Infrared Spectrum: 3-Nitro-4-chlorobenzanilide
Formula: C 13 H 9 Cl N 2 O 3
CAS: 41614-16-8
State: gas
Origin: EPA-IR VAPOR PHASE LIBRARY
1/CM	ABSORBANCE
549.8	0.00472
559.445	0.0042
569.09	0.00437
578.734	0.00355
588.379	0.00339
598.024	0.00306
607.669	0.0032
617.313	0.00305
626.958	0.00267
636.603	0.003
646.248	0.0026
655.893	0.00332
665.537	0.00583
675.182	0.00562
684.827	0.00667
694.472	0.00653
704.116	0.00514
713.761	0.00439
723.406	0.00457
733.051	0.00692
742.695	0.01228
752.34	0.01515
761.985	0.0087
771.63	0.00458
781.275	0.00368
790.919	0.00352
800.564	0.00338
810.209	0.0037
819.854	0.00499
829.498	0.00464
839.143	0.00493
848.788	0.00373
858.433	0.0034
868.078	0.00355
877.722	0.0031
887.367	0.00324
897.012	0.00358
906.657	0.00415
916.301	0.00446
925.946	0.00409
935.591	0.00342
945.236	0.0024829
954.88	0.0024912
964.525	0.0020595
974.17	0.0020012
983.815	0.0018667
993.46	0.0024417
1003.1	0.0024904
1012.75	0.0026
1022.39	0.00332
1032.04	0.00427
1041.68	0.00781
1051.33	0.0133
1060.97	0.00494
1070.62	0.00465
1080.26	0.00439
1089.91	0.00574
1099.55	0.00888
1109.2	0.00715
1118.84	0.0052
1128.49	0.00423
1138.13	0.00388
1147.78	0.00392
1157.42	0.00446
1167.07	0.00397
1176.71	0.0047
1186.36	0.00558
1196	0.00642
1205.64	0.00859
1215.29	0.01156
1224.93	0.01809
1234.58	0.022
1244.22	0.01888
1253.87	0.01312
1263.51	0.0104
1273.16	0.01016
1282.8	0.01172
1292.45	0.01326
1302.09	0.01831
1311.74	0.02205
1321.38	0.01971
1331.03	0.01433
1340.67	0.01536
1350.32	0.01893
1359.96	0.01701
1369.61	0.00922
1379.25	0.00603
1388.9	0.0052
1398.54	0.00524
1408.18	0.00557
1417.83	0.00745
1427.47	0.01599
1437.12	0.03329
1446.76	0.0176
1456.41	0.00883
1466.05	0.01003
1475.7	0.01421
1485.34	0.01233
1494.99	0.02144
1504.63	0.03618
1514.28	0.04571
1523.92	0.04232
1533.57	0.02595
1543.21	0.02265
1552.86	0.02805
1562.5	0.02406
1572.15	0.01635
1581.79	0.01454
1591.44	0.01822
1601.08	0.02584
1610.73	0.0159
1620.37	0.00708
1630.01	0.00479
1639.66	0.00411
1649.3	0.00418
1658.95	0.00428
1668.59	0.0047
1678.24	0.00549
1687.88	0.00787
1697.53	0.01561
1707.17	0.03064
1716.82	0.02765
1726.46	0.01259
1736.11	0.00725
1745.75	0.00493
1755.4	0.0037
1765.04	0.00338
1774.69	0.00325
1784.33	0.00269
1793.98	0.00254
1803.62	0.002311
1813.27	0.0022791
1822.91	0.0021506
1832.55	0.0019751
1842.2	0.0020947
1851.84	0.0020061
1861.49	0.0020585
1871.13	0.002002
1880.78	0.0018929
1890.42	0.0018393
1900.07	0.0018043
1909.71	0.001819
1919.36	0.0017532
1929	0.0018833
1938.65	0.0019939
1948.29	0.0018128
1957.94	0.0017218
1967.58	0.0014426
1977.23	0.0014441
1986.87	0.0014313
1996.52	0.0014562
2006.16	0.0014454
2015.81	0.0014666
2025.45	0.0014477
2035.1	0.00135
2044.74	0.0014362
2054.38	0.0014201
2064.03	0.001359
2073.67	0.001349
2083.32	0.0014311
2092.96	0.001396
2102.61	0.001303
2112.25	0.001271
2121.9	0.001276
2131.54	0.001351
2141.19	0.001356
2150.83	0.001235
2160.48	0.001209
2170.12	0.001311
2179.77	0.001272
2189.41	0.001324
2199.06	0.001221
2208.7	0.001303
2218.35	0.00119
2227.99	0.001092
2237.64	0.001187
2247.28	0.001125
2256.92	0.001156
2266.57	0.001093
2276.21	0.001048
2285.86	0.001056
2295.5	0.001186
2305.15	0.001133
2314.79	0.001266
2324.44	0.001164
2334.08	0.001082
2343.73	0.001184
2353.37	0.001172
2363.02	0.001118
2372.66	0.001138
2382.31	0.001123
2391.95	0.001263
2401.6	0.001138
2411.24	0.001085
2420.89	0.001196
2430.53	0.001177
2440.18	0.001263
2449.82	0.001208
2459.47	0.001114
2469.11	0.001119
2478.75	0.001213
2488.4	0.001108
2498.04	0.001147
2507.69	0.001089
2517.33	0.000847
2526.98	0.00104
2536.62	0.001243
2546.27	0.001152
2555.91	0.000974
2565.56	0.000954
2575.2	0.00103
2584.85	0.000798
2594.49	0.001028
2604.14	0.001018
2613.78	0.001099
2623.43	0.001126
2633.07	0.000993
2642.72	0.001088
2652.36	0.000931
2662.01	0.000918
2671.65	0.000967
2681.29	0.000871
2690.94	0.000914
2700.58	0.001137
2710.23	0.000862
2719.87	0.001096
2729.52	0.000722
2739.16	0.000681
2748.81	0.000914
2758.45	0.000861
2768.1	0.000805
2777.74	0.000706
2787.39	0.000608
2797.03	0.000604
2806.68	0.000797
2816.32	0.000754
2825.97	0.000936
2835.61	0.000943
2845.26	0.000579
2854.9	0.000742
2864.55	0.00089
2874.19	0.001132
2883.84	0.000816
2893.48	0.00091
2903.12	0.000939
2912.77	0.001102
2922.41	0.001025
2932.06	0.001016
2941.7	0.000794
2951.35	0.000687
2960.99	0.000795
2970.64	0.000642
2980.28	0.000833
2989.93	0.000975
2999.57	0.000929
3009.22	0.001235
3018.86	0.0017989
3028.51	0.00278
3038.15	0.00298
3047.8	0.0024275
3057.44	0.00297
3067.09	0.00455
3076.73	0.00452
3086.38	0.00326
3096.02	0.00258
3105.67	0.0021946
3115.31	0.001378
3124.95	0.001171
3134.6	0.000756
3144.24	0.000686
3153.89	0.001078
3163.53	0.000516
3173.18	0.0009
3182.82	0.000823
3192.47	0.000575
3202.11	0.000855
3211.76	0.000679
3221.4	0.000784
3231.05	0.000917
3240.69	0.000848
3250.34	0.000708
3259.98	0.000733
3269.63	0.000957
3279.27	0.000979
3288.92	0.000731
3298.56	0.000805
3308.21	0.000706
3317.85	0.000678
3327.49	0.001129
3337.14	0.000944
3346.78	0.000716
3356.43	0.000717
3366.07	0.00076
3375.72	0.000887
3385.36	0.001058
3395.01	0.0014265
3404.65	0.0021891
3414.3	0.0017008
3423.94	0.0014035
3433.59	0.0014317
3443.23	0.0018331
3452.88	0.0022757
3462.52	0.00294
3472.17	0.0022613
3481.81	0.0014316
3491.46	0.001265
3501.1	0.000706
3510.75	0.000959
3520.39	0.001139
3530.04	0.000889
3539.68	0.000938
3549.32	0.001099
3558.97	0.000814
3568.61	0.000508
3578.26	0.001065
3587.9	0.001014
3597.55	0.000896
3607.19	0.00084
3616.84	0.00101
3626.48	0.000607
3636.13	0.001129
3645.77	0.000955
3655.42	0.000872
3665.06	0.001035
3674.71	0.000663
3684.35	0.000677
3694	0.000939
3703.64	0.000882
3713.29	0.00068
3722.93	0.00105
3732.58	0.000664
3742.22	0.000763
3751.86	0.000674
3761.51	0.000539
3771.15	0.000658
3780.8	0.000802
3790.44	0.001317
3800.09	0.000589
3809.73	0.000819
3819.38	0.000591
3829.02	0.001026
3838.67	0.000611
3848.31	0.000723
3857.96	0.00097
3867.6	0.000685
3877.25	0.001043
3886.89	0.000806
3896.54	0.000871
3906.18	0.0003
3915.83	0.00036
3925.47	0.000948
3935.12	0.0004
3944.76	0.000564
3954.41	0.000555
3964.05	0.000573
3973.69	0.000746
3983.34	0.000621
3992.98	0.000785
