Infrared Spectrum: 2,4-Dimethyl-1,4-pentadiene
Formula: C 7 H 12
CAS: 4161-65-3
State: gas
Instrument: HP-GC/MS/IRD
Origin: NIST Mass Spectrometry Data Center
1/CM	ABSORBANCE
550	0.0013392
562	0.001836
574	0.0016389
586	0.0008856
598	0.0004401
610	0.00027
622	0.0002673
634	0.0002187
646	0.0002268
658	0.0002349
670	0.0002052
682	0.0002133
694	0.0001917
706	0.0002079
718	0.0002808
730	0.0002079
742	0.0002943
754	0.0003105
766	0.0002727
778	0.0004482
790	0.00054
802	0.0009234
814	0.0013986
826	0.0017577
838	0.001728
850	0.0019008
862	0.0033939
874	0.0099468
886	0.021654
898	0.0252909
910	0.0136647
922	0.0044766
934	0.0018711
946	0.0012906
958	0.0010341
970	0.0009828
982	0.0008964
994	0.0009342
1006	0.0009693
1018	0.0011961
1030	0.0013581
1042	0.0011367
1054	0.0008802
1066	0.0005103
1078	0.0002997
1090	0.0002295
1102	0.0002565
1114	0.0002916
1126	0.0002079
1138	0.0002592
1150	0.0002268
1162	0.0002997
1174	0.0005184
1186	0.0006966
1198	0.0008397
1210	0.0012825
1222	0.0017577
1234	0.0017874
1246	0.0018522
1258	0.0021546
1270	0.0021708
1282	0.0016767
1294	0.0013743
1306	0.0013797
1318	0.0015633
1330	0.0017901
1342	0.0018603
1354	0.0024597
1366	0.0046224
1378	0.0067473
1390	0.0058131
1402	0.0033345
1414	0.0038988
1426	0.0059562
1438	0.0082701
1450	0.0086049
1462	0.0066528
1474	0.0038718
1486	0.0021168
1498	0.0013095
1510	0.0010611
1522	0.000891
1534	0.0008559
1546	0.0008748
1558	0.001026
1570	0.0012933
1582	0.0015147
1594	0.0017604
1606	0.0025326
1618	0.004455
1630	0.0074088
1642	0.0092178
1654	0.0079353
1666	0.0046683
1678	0.0021141
1690	0.0009666
1702	0.0005643
1714	0.0004293
1726	0.0003807
1738	0.0003429
1750	0.0003537
1762	0.0005319
1774	0.0011583
1786	0.0019251
1798	0.0020277
1810	0.0012636
1822	0.000567
1834	0.0002943
1846	0.0002403
1858	0.0001971
1870	0.0002079
1882	0.000162
1894	0.0001566
1906	0.0001188
1918	7.56e-05
1930	0.000108
1942	9.99e-05
1954	5.4e-05
1966	8.37e-05
1978	8.64e-05
1990	3.78e-05
2002	4.59e-05
2014	3.24e-05
2026	2.97e-05
2038	3.78e-05
2050	1.62e-05
2062	6.21e-05
2074	8.91e-05
2086	0.000135
2098	0.0001161
2110	9.72e-05
2122	7.29e-05
2134	3.78e-05
2146	2.7e-05
2158	4.05e-05
2170	7.29e-05
2182	9.18e-05
2194	9.99e-05
2206	0.0001242
2218	7.02e-05
2230	8.64e-05
2242	7.29e-05
2254	4.59e-05
2266	8.37e-05
2278	7.56e-05
2290	4.86e-05
2302	5.4e-06
2314	5.13e-05
2326	5.4e-05
2338	8.1e-06
2350	4.05e-05
2362	8.1e-06
2374	8.1e-06
2386	1.89e-05
2398	5.4e-05
2410	2.97e-05
2422	5.67e-05
2434	2.97e-05
2446	4.86e-05
2458	7.56e-05
2470	8.64e-05
2482	6.48e-05
2494	6.48e-05
2506	1.89e-05
2518	3.24e-05
2530	2.16e-05
2542	7.02e-05
2554	2.16e-05
2566	6.21e-05
2578	3.78e-05
2590	5.94e-05
2602	5.94e-05
2614	2.16e-05
2626	8.91e-05
2638	0.0001215
2650	0.0001647
2662	0.0002025
2674	0.0002025
2686	0.0001836
2698	0.0002592
2710	0.0003645
2722	0.0005427
2734	0.0007452
2746	0.0007101
2758	0.0005508
2770	0.0005643
2782	0.0007371
2794	0.0010584
2806	0.0015309
2818	0.0024165
2830	0.0036396
2842	0.0049275
2854	0.006129
2866	0.0074709
2878	0.0091584
2890	0.0121284
2902	0.0157491
2914	0.0192024
2926	0.0197721
2938	0.0177795
2950	0.0148662
2962	0.0148554
2974	0.0183708
2986	0.0178146
2998	0.0115047
3010	0.0065421
3022	0.0040635
3034	0.0032562
3046	0.0036288
3058	0.0059508
3070	0.0114156
3082	0.0142857
3094	0.0095769
3106	0.0032508
3118	0.0015039
3130	0.0010287
3142	0.0006669
3154	0.0004941
3166	0.0003699
3178	0.0002754
3190	0.0002565
3202	0.0002511
3214	0.000216
3226	0.0001998
3238	0.0001431
3250	0.0001485
3262	0.0002187
3274	0.0001971
3286	0.0002646
3298	0.0002349
3310	0.0002376
3322	0.0001647
3334	0.0001836
3346	0.0001512
3358	0.0002322
3370	0.0002106
3382	0.0001161
3394	0.0001377
3406	0.0002025
3418	0.0001566
3430	0.000135
3442	8.37e-05
3454	0.0001242
3466	0.0001188
3478	0.0001107
3490	9.45e-05
3502	0.0001458
3514	5.94e-05
3526	5.13e-05
3538	0.000108
3550	9.18e-05
3562	2.7e-05
3574	0.0001053
3586	5.13e-05
3598	9.99e-05
3610	0.0001026
3622	8.64e-05
3634	6.21e-05
3646	2.97e-05
3658	8.1e-05
3670	1.62e-05
3682	6.21e-05
3694	5.67e-05
3706	3.78e-05
3718	2.97e-05
3730	8.1e-06
3742	8.1e-06
3754	4.86e-05
3766	8.64e-05
3778	8.91e-05
3790	4.59e-05
3802	5.13e-05
3814	1.62e-05
3826	8.1e-06
3838	3.24e-05
