Infrared Spectrum: GALACTOSE, Alpha,D-,PENTAACETATE
Formula: C16 H22 O11
CAS: 4163-59-1
State: SOLID (SPLIT MULL, FLUOROLUBE FOR 3800-1330 AND NUJOL FOR 1330-400 CM ^-^1)
Class: COBLENTZ II
Instrument: DOW KBr FOREPRISM-GRATING
Instrument parameters: BLAZED AT 3.5, 12.0, 20.0 MICRON, CHANGED AT 5.0, 7.5, 14.9 MICRON
Sampling: TRANSMISSION
Resolution: 4
Origin: DOW CHEMICAL COMPANY
1/CM	TRANSMITTANCE
383.998	0.815
392.921	0.817
401.845	0.825
410.768	0.834
419.691	0.859
428.614	0.863
437.538	0.811
446.461	0.919
455.384	0.923
464.307	0.845
473.231	0.905
482.154	0.832
491.077	0.967
500	0.974
508.924	0.965
517.847	0.963
526.77	0.828
535.694	0.983
544.617	0.987
553.54	0.984
562.463	0.928
571.387	0.976
580.31	0.94
589.233	0.944
598.156	0.834
607.08	0.965
616.003	0.987
624.926	0.994
633.849	0.988
642.773	0.956
651.696	0.967
660.619	0.993
669.543	1
678.466	0.98
687.389	0.931
696.312	0.868
705.236	0.949
714.159	0.912
723.082	0.835
732.005	0.889
740.929	0.86
749.852	0.891
758.775	0.955
767.698	0.959
776.622	0.973
785.545	0.979
794.468	0.98
803.392	0.979
812.315	0.972
821.238	0.962
830.161	0.955
839.085	0.934
848.008	0.933
856.931	0.928
865.854	0.916
874.778	0.86
883.701	0.757
892.624	0.778
901.547	0.803
910.471	0.863
919.394	0.832
928.317	0.7
937.241	0.517
946.164	0.576
955.087	0.57
964.01	0.839
972.934	0.849
981.857	0.831
990.78	0.723
999.703	0.668
1008.63	0.447
1017.55	0.555
1026.47	0.64
1035.4	0.564
1044.32	0.414
1053.24	0.454
1062.17	0.467
1071.09	0.232
1080.01	0.258
1088.94	0.644
1097.86	0.739
1106.78	0.652
1115.71	0.629
1124.63	0.691
1133.55	0.465
1142.48	0.762
1151.4	0.762
1160.32	0.711
1169.25	0.602
1178.17	0.693
1187.09	0.635
1196.02	0.479
1204.94	0.174
1213.86	0.115
1222.79	0.135
1231.71	0.154
1240.63	0.267
1249.55	0.205
1258.48	0.305
1267.4	0.329
1276.32	0.467
1285.25	0.642
1294.17	0.701
1303.09	0.733
1312.02	0.753
1320.94	0.76
1329.86	0.776
1338.79	0.76
1347.71	0.741
1356.63	0.658
1365.56	0.557
1374.48	0.471
1383.4	0.644
1392.33	0.82
1401.25	0.836
1410.17	0.864
1419.1	0.856
1428.02	0.806
1436.94	0.785
1445.87	0.843
1454.79	0.885
1463.71	0.9
1472.64	0.868
1481.56	0.942
1490.48	0.947
1499.41	0.949
1508.33	0.949
1517.25	0.951
1526.18	0.948
1535.1	0.947
1544.02	0.948
1552.95	0.953
1561.87	0.959
1570.79	0.96
1579.72	0.962
1588.64	0.963
1597.56	0.962
1606.49	0.958
1615.41	0.955
1624.33	0.949
1633.26	0.941
1642.18	0.931
1651.1	0.937
1660.03	0.942
1668.95	0.94
1677.87	0.931
1686.79	0.913
1695.72	0.878
1704.64	0.853
1713.56	0.796
1722.49	0.659
1731.41	0.435
1740.33	0.167
1749.26	0.253
1758.18	0.147
1767.1	0.315
1776.03	0.563
1784.95	0.841
1793.87	0.912
1802.8	0.942
1811.72	0.953
1820.64	0.959
1829.57	0.963
1838.49	0.976
1847.41	0.979
1856.34	0.981
1865.26	0.984
1874.18	0.983
1883.11	0.986
1892.03	0.991
1900.95	0.993
1909.88	0.993
1918.8	0.997
1927.72	0.998
1936.65	0.997
1945.57	1
1954.49	0.997
1963.42	0.995
1972.34	0.994
1981.26	0.994
1990.19	0.997
1999.11	0.979
2008.03	0.988
2016.96	0.99
2025.88	0.989
2034.8	0.988
2043.73	0.988
2052.65	0.985
2061.57	0.984
2070.5	0.984
2079.42	0.9795
2088.34	0.977
2097.27	0.9751
2106.19	0.969
2115.11	0.969
2124.04	0.967
2132.96	0.967
2141.88	0.967
2150.8	0.967
2159.73	0.967
2168.65	0.966
2177.57	0.965
2186.5	0.966
2195.42	0.966
2204.34	0.9641
2213.27	0.96
2222.19	0.958
2231.11	0.955
2240.04	0.952
2248.96	0.949
2257.88	0.949
2266.81	0.948
2275.73	0.9458
2284.65	0.9484
2293.58	0.953
2302.5	0.9434
2311.42	0.955
2320.35	0.9629
2329.27	0.9645
2338.19	0.9542
2347.12	0.9588
2356.04	0.965
2364.96	0.962
2373.89	0.9593
2382.81	0.956
2391.73	0.9584
2400.66	0.959
2409.58	0.9607
2418.5	0.963
2427.43	0.9654
2436.35	0.9664
2445.27	0.9677
2454.2	0.97
2463.12	0.9707
2472.04	0.9723
2480.97	0.976
2489.89	0.977
2498.81	0.98
2507.74	0.983
2516.66	0.9846
2525.58	0.986
2534.51	0.987
2543.43	0.987
2552.35	0.987
2561.28	0.987
2570.2	0.987
2579.12	0.987
2588.04	0.987
2596.97	0.987
2605.89	0.987
2614.81	0.986
2623.74	0.987
2632.66	0.987
2641.58	0.987
2650.51	0.987
2659.43	0.987
2668.35	0.9867
2677.28	0.986
2686.2	0.986
2695.12	0.986
2704.05	0.986
2712.97	0.986
2721.89	0.986
2730.82	0.986
2739.74	0.986
2748.66	0.986
2757.59	0.986
2766.51	0.9855
2775.43	0.986
2784.36	0.986
2793.28	0.9845
2802.2	0.986
2811.13	0.9855
2820.05	0.984
2828.97	0.9798
2837.9	0.9736
2846.82	0.967
2855.74	0.972
2864.67	0.973
2873.59	0.9738
2882.51	0.9698
2891.44	0.9646
2900.36	0.9514
2909.28	0.944
2918.21	0.947
2927.13	0.948
2936.05	0.947
2944.98	0.949
2953.9	0.9475
2962.82	0.9296
2971.75	0.9292
2980.67	0.9278
2989.59	0.9332
2998.52	0.9348
3007.44	0.97
3016.36	0.972
3025.29	0.976
3034.21	0.979
3043.13	0.9813
3052.05	0.984
3060.98	0.984
3069.9	0.9843
3078.82	0.986
3087.75	0.986
3096.67	0.986
3105.59	0.988
3114.52	0.99
3123.44	0.988
3132.36	0.9869
3141.29	0.986
3150.21	0.987
3159.13	0.988
3168.06	0.988
3176.98	0.988
3185.9	0.9879
3194.83	0.988
3203.75	0.987
3212.67	0.987
3221.6	0.986
3230.52	0.986
3239.44	0.986
3248.37	0.984
3257.29	0.983
3266.21	0.983
3275.14	0.984
3284.06	0.984
3292.98	0.983
3301.91	0.983
3310.83	0.983
3319.75	0.981
3328.68	0.981
3337.6	0.9811
3346.52	0.983
3355.45	0.983
3364.37	0.984
3373.29	0.98
3382.22	0.977
3391.14	0.977
3400.06	0.977
3408.99	0.977
3417.91	0.977
3426.83	0.977
3435.76	0.976
3444.68	0.973
3453.6	0.967
3462.53	0.966
3471.45	0.966
3480.37	0.967
3489.29	0.97
3498.22	0.972
3507.14	0.973
3516.06	0.974
3524.99	0.977
3533.91	0.981
3542.83	0.984
3551.76	0.984
3560.68	0.986
3569.6	0.987
3578.53	0.9761
3587.45	0.9789
3596.37	0.987
3605.3	0.986
3614.22	0.988
3623.14	0.988
3632.07	0.987
3640.99	0.988
3649.91	0.9871
3658.84	0.988
3667.76	0.99
3676.68	0.99
3685.61	0.99
3694.53	0.993
3703.45	0.9969
3712.38	0.9931
3721.3	0.991
3730.22	0.994
3739.15	0.993
3748.07	0.993
3756.99	0.991
3765.92	0.99
3774.84	0.99
3783.76	0.991
3792.69	0.994
