Infrared Spectrum: 1,4-Diformylpiperazine
Formula: C 6 H 10 N 2 O 2
CAS: 4164-39-0
State: gas
Origin: EPA-IR VAPOR PHASE LIBRARY
1/CM	ABSORBANCE
549.9	0.00546
559.547	0.00853
569.193	0.00822
578.84	0.00491
588.486	0.0030933
598.133	0.002392
607.779	0.002194
617.426	0.002408
627.072	0.0027316
636.719	0.0031315
646.365	0.00444
656.012	0.00645
665.658	0.00611
675.305	0.0037144
684.951	0.002008
694.598	0.00151
704.245	0.00139
713.891	0.00137
723.538	0.00127
733.184	0.00134
742.831	0.00157
752.477	0.00171
762.124	0.00171
771.77	0.00167
781.417	0.00164
791.063	0.0017
800.71	0.002482
810.356	0.0078
820.003	0.01374
829.649	0.01071
839.296	0.00489
848.943	0.00457
858.589	0.0034931
868.236	0.001876
877.882	0.00168
887.529	0.001862
897.175	0.002005
906.822	0.001966
916.468	0.001926
926.115	0.002349
935.761	0.00259
945.408	0.0030995
955.054	0.00456
964.701	0.00625
974.347	0.00942
983.994	0.02422
993.64	0.05768
1003.29	0.08336
1012.93	0.05408
1022.58	0.01156
1032.23	0.00588
1041.87	0.0053
1051.52	0.00653
1061.17	0.00771
1070.81	0.00772
1080.46	0.00638
1090.11	0.00526
1099.75	0.00474
1109.4	0.00542
1119.05	0.00644
1128.69	0.00801
1138.34	0.01144
1147.99	0.0202
1157.63	0.04786
1167.28	0.08902
1176.92	0.09117
1186.57	0.07572
1196.22	0.08018
1205.86	0.05665
1215.51	0.0211
1225.16	0.01628
1234.8	0.02188
1244.45	0.03681
1254.1	0.03752
1263.74	0.03176
1273.39	0.0422
1283.04	0.04071
1292.68	0.02107
1302.33	0.0098
1311.98	0.00702
1321.62	0.00744
1331.27	0.00919
1340.92	0.0125
1350.56	0.0168
1360.21	0.02086
1369.86	0.02777
1379.5	0.05122
1389.15	0.10176
1398.79	0.11317
1408.44	0.10678
1418.09	0.11112
1427.73	0.07896
1437.38	0.04429
1447.03	0.03135
1456.67	0.02607
1466.32	0.01716
1475.97	0.01048
1485.61	0.00737
1495.26	0.00594
1504.91	0.00494
1514.55	0.00439
1524.2	0.00403
1533.85	0.0036089
1543.49	0.003429
1553.14	0.0035774
1562.79	0.00383
1572.43	0.00385
1582.08	0.0036333
1591.73	0.0039
1601.37	0.00507
1611.02	0.00752
1620.67	0.0106
1630.31	0.01106
1639.96	0.00934
1649.6	0.0098
1659.25	0.01335
1668.9	0.02359
1678.54	0.03221
1688.19	0.05266
1697.84	0.18959
1707.48	0.62266
1717.13	0.62379
1726.78	0.16497
1736.42	0.04394
1746.07	0.02384
1755.72	0.01984
1765.36	0.01399
1775.01	0.01022
1784.66	0.00855
1794.3	0.00715
1803.95	0.0062
1813.6	0.00555
1823.24	0.00491
1832.89	0.00409
1842.54	0.0036909
1852.18	0.00381
1861.83	0.00396
1871.47	0.0033874
1881.12	0.002784
1890.77	0.00280586
1900.41	0.00287101
1910.06	0.002617
1919.71	0.002402
1929.35	0.002438
1939	0.002502
1948.65	0.002616
1958.29	0.00287156
1967.94	0.003003
1977.59	0.0030551
1987.23	0.0031652
1996.88	0.0035844
2006.53	0.0037143
2016.17	0.0032864
2025.82	0.0029111
2035.47	0.0027684
2045.11	0.002629
2054.76	0.00258
2064.41	0.0027694
2074.05	0.00279129
2083.7	0.00283521
2093.35	0.002661
2102.99	0.002249
2112.64	0.001928
2122.28	0.001899
2131.93	0.001939
2141.58	0.001862
2151.22	0.001831
2160.87	0.001818
2170.52	0.001907
2180.16	0.002005
2189.81	0.002125
2199.46	0.002332
2209.1	0.002427
2218.75	0.002445
2228.4	0.002397
2238.04	0.002318
2247.69	0.002256
2257.34	0.002146
2266.98	0.002295
2276.63	0.002349
2286.28	0.002134
2295.92	0.001925
2305.57	0.001795
2315.22	0.001833
2324.86	0.001893
2334.51	0.001984
2344.16	0.002143
2353.8	0.002366
2363.45	0.0026834
2373.09	0.00286391
2382.74	0.00277723
2392.39	0.002579
2402.03	0.002416
2411.68	0.00255
2421.33	0.002572
2430.97	0.002365
2440.62	0.002136
2450.27	0.002167
2459.91	0.0021
2469.56	0.001954
2479.21	0.00181
2488.85	0.001814
2498.5	0.001842
2508.15	0.001866
2517.79	0.00198
2527.44	0.002128
2537.09	0.002197
2546.73	0.002082
2556.38	0.002128
2566.03	0.002163
2575.67	0.002116
2585.32	0.002162
2594.96	0.002181
2604.61	0.002187
2614.26	0.002193
2623.9	0.002161
2633.55	0.002103
2643.2	0.002303
2652.84	0.002592
2662.49	0.0031049
2672.14	0.0036936
2681.78	0.00378
2691.43	0.003466
2701.08	0.0034971
2710.72	0.00409
2720.37	0.00461
2730.02	0.00557
2739.66	0.00814
2749.31	0.01304
2758.96	0.01678
2768.6	0.01583
2778.25	0.01152
2787.9	0.00946
2797.54	0.00964
2807.19	0.01062
2816.84	0.0133
2826.48	0.02162
2836.13	0.03895
2845.77	0.05886
2855.42	0.06413
2865.07	0.05351
2874.71	0.03931
2884.36	0.02941
2894.01	0.02571
2903.65	0.02695
2913.3	0.0298
2922.95	0.03241
2932.59	0.02815
2942.24	0.02134
2951.89	0.02286
2961.53	0.03086
2971.18	0.02784
2980.83	0.01478
2990.47	0.00947
3000.12	0.00699
3009.77	0.0037379
3019.41	0.00178
3029.06	0.00112
3038.71	0.00104
3048.35	0.00091
3058	0.00089
3067.64	0.00102
3077.29	0.00117
3086.94	0.00136
3096.58	0.00167
3106.23	0.002066
3115.88	0.002158
3125.52	0.002001
3135.17	0.00147
3144.82	0.001
3154.46	0.00062
3164.11	0.0005
3173.76	0.00036
3183.4	0.0001
3193.05	0.00015
3202.7	0.00027
3212.34	6e-05
3221.99	5e-05
3231.64	0.00011
3241.28	6e-05
3250.93	0.0002
3260.58	0.00017
3270.22	0.00017
3279.87	0.00014
3289.52	0.00011
3299.16	0.00028
3308.81	0.00034
3318.45	0.00037
3328.1	0.00036
3337.75	0.00055
3347.39	0.00049
3357.04	0.00052
3366.69	0.00056
3376.33	0.00094
3385.98	0.00144
3395.63	0.002907
3405.27	0.00609
3414.92	0.00653
3424.57	0.0031346
3434.21	0.00111
3443.86	0.00077
3453.51	0.00066
3463.15	0.00051
3472.8	0.00061
3482.45	0.0005
3492.09	0.00055
3501.74	0.00053
3511.39	0.00067
3521.03	0.00048
3530.68	0.00067
3540.33	0.00064
3549.97	0.00074
3559.62	0.00067
3569.26	0.00078
3578.91	0.00078
3588.56	0.00082
3598.2	0.00078
3607.85	0.00092
3617.5	0.0009
3627.14	0.00092
3636.79	0.00095
3646.44	0.00112
3656.08	0.00104
3665.73	0.00109
3675.38	0.00112
3685.02	0.00112
3694.67	0.00114
3704.32	0.00111
3713.96	0.00114
3723.61	0.00121
3733.26	0.00113
3742.9	0.00117
3752.55	0.00115
3762.2	0.00129
3771.84	0.0012
3781.49	0.00119
3791.13	0.00117
3800.78	0.00113
3810.43	0.00124
3820.07	0.00128
3829.72	0.00128
3839.37	0.00137
3849.01	0.00135
3858.66	0.00122
3868.31	0.00131
3877.95	0.00122
3887.6	0.00135
3897.25	0.00127
3906.89	0.00131
3916.54	0.00143
3926.19	0.00144
3935.83	0.00145
3945.48	0.00158
3955.13	0.00158
3964.77	0.00164
3974.42	0.00162
3984.07	0.00167
3993.71	0.00171
