Infrared Spectrum: Nitrobenzene-d5
Formula: C 6 D 5 N O 2
CAS: 4165-60-0
State: gas
Instrument: HP-GC/MS/IRD
Origin: NIST Mass Spectrometry Data Center
1/CM	ABSORBANCE
550	0.0026488
562	0.0016044
574	0.0004508
586	0.0004536
598	0.0010052
610	0.0015876
622	0.0010976
634	0.000742
646	0.0022484
658	0.0022176
670	0.0005264
682	0.0002912
694	0.0004032
706	0.000616
718	0.0007448
730	0.0004816
742	0.0002968
754	0.0003528
766	0.0003276
778	0.0002324
790	0.0003416
802	0.0008932
814	0.0011648
826	0.0015176
838	0.0074228
850	0.0090356
862	0.0034076
874	0.0017136
886	0.0007448
898	0.0002268
910	0.0001848
922	0.0001848
934	0.000252
946	0.000308
958	0.0002716
970	0.0002492
982	0.0002828
994	0.0002828
1006	0.0003612
1018	0.0003444
1030	0.000336
1042	0.0002716
1054	0.0002828
1066	0.0002968
1078	0.0003164
1090	0.0002968
1102	0.0002156
1114	0.0001204
1126	6.44e-05
1138	0.0001428
1150	0.000112
1162	7.56e-05
1174	0.0001316
1186	0.0001036
1198	3.64e-05
1210	3.92e-05
1222	9.24e-05
1234	0.0001064
1246	0.0002296
1258	0.0004284
1270	0.0009632
1282	0.0018228
1294	0.0020412
1306	0.0022148
1318	0.0040768
1330	0.0113568
1342	0.0206388
1354	0.0188776
1366	0.0125804
1378	0.0050064
1390	0.0015288
1402	0.0009828
1414	0.0008792
1426	0.0008848
1438	0.0010304
1450	0.0012404
1462	0.0016436
1474	0.0019376
1486	0.002534
1498	0.0031696
1510	0.0069272
1522	0.0190596
1534	0.0276248
1546	0.0228676
1558	0.0095816
1570	0.007476
1582	0.0103236
1594	0.0098532
1606	0.0056196
1618	0.0025564
1630	0.0014252
1642	0.0009296
1654	0.00056
1666	0.0003276
1678	0.0002576
1690	0.0002184
1702	0.0001484
1714	0.0001708
1726	0.0002072
1738	0.0002212
1750	0.0001624
1762	0.0001092
1774	0.0001176
1786	0.0001372
1798	7.56e-05
1810	8.12e-05
1822	7.84e-05
1834	8.96e-05
1846	0.000126
1858	0.0001036
1870	7.56e-05
1882	5.32e-05
1894	5.04e-05
1906	5.32e-05
1918	5.88e-05
1930	8.4e-05
1942	7.84e-05
1954	4.48e-05
1966	5.6e-06
1978	3.92e-05
1990	3.64e-05
2002	2.8e-05
2014	4.2e-05
2026	4.48e-05
2038	1.96e-05
2050	3.92e-05
2062	2.8e-05
2074	4.48e-05
2086	3.08e-05
2098	2.52e-05
2110	3.64e-05
2122	5.32e-05
2134	8.12e-05
2146	9.52e-05
2158	7.56e-05
2170	5.88e-05
2182	4.76e-05
2194	3.08e-05
2206	4.48e-05
2218	3.92e-05
2230	5.88e-05
2242	6.72e-05
2254	0.000126
2266	0.0005152
2278	0.0012992
2290	0.0017136
2302	0.0015484
2314	0.0011088
2326	0.0003668
2338	0.000154
2350	0.0001232
2362	0.0001288
2374	0.000196
2386	0.0001736
2398	0.0001428
2410	0.0001624
2422	0.0001876
2434	0.0002464
2446	0.000168
2458	8.12e-05
2470	4.48e-05
2482	2.24e-05
2494	1.4e-05
2506	4.48e-05
2518	2.52e-05
2530	5.88e-05
2542	7e-05
2554	5.04e-05
2566	3.36e-05
2578	5.32e-05
2590	7.28e-05
2602	7.84e-05
2614	0.0001064
2626	0.000168
2638	0.0001568
2650	0.0001316
2662	0.0001344
2674	0.0002044
2686	0.0001792
2698	0.000182
2710	0.0001176
2722	7.28e-05
2734	4.2e-05
2746	5.88e-05
2758	7.56e-05
2770	7e-05
2782	8.96e-05
2794	0.0001092
2806	0.0001008
2818	0.0001456
2830	0.0002212
2842	0.0002912
2854	0.0004396
2866	0.0006076
2878	0.0006412
2890	0.0005656
2902	0.000462
2914	0.0004256
2926	0.0003444
2938	0.0002548
2950	0.00021
2962	0.0001344
2974	7.84e-05
2986	5.32e-05
2998	2.52e-05
3010	6.16e-05
3022	1.96e-05
3034	3.64e-05
3046	5.6e-05
3058	9.24e-05
3070	4.2e-05
3082	4.2e-05
3094	0.0001092
3106	8.12e-05
3118	6.16e-05
3130	6.44e-05
3142	3.36e-05
3154	6.44e-05
3166	5.88e-05
3178	4.2e-05
3190	3.36e-05
3202	5.32e-05
3214	7.84e-05
3226	0.0001148
3238	0.0001484
3250	0.0001344
3262	8.4e-05
3274	4.76e-05
3286	4.48e-05
3298	6.44e-05
3310	1.96e-05
3322	5.88e-05
3334	3.92e-05
3346	4.48e-05
3358	0.0001036
3370	5.6e-05
3382	9.24e-05
3394	0.0001036
3406	3.64e-05
3418	3.64e-05
3430	5.6e-06
3442	4.2e-05
3454	5.32e-05
3466	2.8e-05
3478	6.16e-05
3490	0.0001064
3502	2.8e-05
3514	3.36e-05
3526	3.92e-05
3538	5.04e-05
3550	5.04e-05
3562	3.08e-05
3574	5.6e-05
3586	6.44e-05
3598	4.76e-05
3610	4.76e-05
3622	9.52e-05
3634	7.28e-05
3646	4.48e-05
3658	8.4e-06
3670	4.76e-05
3682	8.12e-05
3694	0.0001092
3706	6.72e-05
3718	3.64e-05
3730	8.4e-05
3742	0.0001232
3754	0.0001064
3766	4.2e-05
3778	8.12e-05
3790	8.12e-05
3802	7.84e-05
3814	0.0001288
3826	9.24e-05
3838	5.04e-05
