Infrared Spectrum: 3-Propylglutaric acid
Formula: C 8 H 14 O 4
CAS: 4165-98-4
State: gas
Origin: EPA-IR VAPOR PHASE LIBRARY
1/CM	ABSORBANCE
549.8	0.0210926
559.445	0.0241726
569.09	0.0232926
578.734	0.0176126
588.379	0.0140326
598.024	0.0154726
607.669	0.0180226
617.313	0.0191326
626.958	0.0192626
636.603	0.0179126
646.248	0.0152026
655.893	0.0118226
665.537	0.00953257
675.182	0.00845257
684.827	0.00816257
694.472	0.00795257
704.116	0.00741257
713.761	0.00724257
723.406	0.00660257
733.051	0.00590257
742.695	0.00437257
752.34	0.00322257
761.985	0.00236257
771.63	0.00187257
781.275	0.00162257
790.919	0.00157257
800.564	0.00161257
810.209	0.00179257
819.854	0.00211257
829.498	0.00232257
839.143	0.00252257
848.788	0.00305257
858.433	0.00283257
868.078	0.00265257
877.722	0.00281257
887.367	0.00313257
897.012	0.00352257
906.657	0.00375257
916.301	0.00388257
925.946	0.00390257
935.591	0.00333257
945.236	0.00304257
954.88	0.00301257
964.525	0.00316257
974.17	0.00377257
983.815	0.00479257
993.46	0.00458257
1003.1	0.00400257
1012.75	0.00497257
1022.39	0.00660257
1032.04	0.00894257
1041.68	0.0115926
1051.33	0.0143126
1060.97	0.0184926
1070.62	0.0242726
1080.26	0.0304826
1089.91	0.0391426
1099.55	0.0503826
1109.2	0.0608826
1118.84	0.0627526
1128.49	0.0592326
1138.13	0.0579626
1147.78	0.0549226
1157.42	0.0442726
1167.07	0.0315526
1176.71	0.0215626
1186.36	0.0162826
1196	0.0150826
1205.64	0.0146426
1215.29	0.0141126
1224.93	0.0131426
1234.58	0.0119626
1244.22	0.0115226
1253.87	0.0110026
1263.51	0.0105626
1273.16	0.0101626
1282.8	0.00980257
1292.45	0.00968257
1302.09	0.00962257
1311.74	0.00965257
1321.38	0.0102326
1331.03	0.0113326
1340.67	0.0124926
1350.32	0.0137726
1359.96	0.0151126
1369.61	0.0172826
1379.25	0.0199426
1388.9	0.0192726
1398.54	0.0134726
1408.18	0.00886257
1417.83	0.00842257
1427.47	0.00892257
1437.12	0.00828257
1446.76	0.00671257
1456.41	0.00650257
1466.05	0.00609257
1475.7	0.00443257
1485.34	0.00252257
1494.99	0.00176257
1504.63	0.00140257
1514.28	0.00127257
1523.92	0.00109257
1533.57	0.00115257
1543.21	0.00109257
1552.86	0.00108257
1562.5	0.00100107
1572.15	0.00092807
1581.79	0.00097667
1591.44	0.00094147
1601.08	0.00097707
1610.73	0.00089407
1620.37	0.00088567
1630.01	0.00099937
1639.66	0.00104257
1649.3	0.00108257
1658.95	0.00132257
1668.59	0.00170257
1678.24	0.00216257
1687.88	0.00288257
1697.53	0.00393257
1707.17	0.00563257
1716.82	0.00862257
1726.46	0.0138526
1736.11	0.0219126
1745.75	0.0337826
1755.4	0.0528726
1765.04	0.0935926
1774.69	0.132383
1784.33	0.101813
1793.98	0.0562326
1803.62	0.0323626
1813.27	0.0185726
1822.91	0.0110926
1832.55	0.00703257
1842.2	0.00425257
1851.84	0.00272257
1861.49	0.00205257
1871.13	0.00158257
1880.78	0.00131257
1890.42	0.00123257
1900.07	0.00112257
1909.71	0.00097467
1919.36	0.00105257
1929	0.00098397
1938.65	0.00103257
1948.29	0.00088967
1957.94	0.00089177
1967.58	0.00083967
1977.23	0.00084777
1986.87	0.00083597
1996.52	0.00080097
2006.16	0.00068087
2015.81	0.00074357
2025.45	0.00062437
2035.1	0.00061527
2044.74	0.00054077
2054.38	0.00050467
2064.03	0.00052227
2073.67	0.00051547
2083.32	0.00046237
2092.96	0.00045057
2102.61	0.00047767
2112.25	0.00048957
2121.9	0.00046507
2131.54	0.00047417
2141.19	0.00042537
2150.83	0.00046497
2160.48	0.00057957
2170.12	0.00074127
2179.77	0.00063757
2189.41	0.00075677
2199.06	0.00070597
2208.7	0.00074937
2218.35	0.00074937
2227.99	0.00072427
2237.64	0.00069587
2247.28	0.00065947
2256.92	0.00068587
2266.57	0.00069267
2276.21	0.00057947
2285.86	0.00060217
2295.5	0.00057577
2305.15	0.00056937
2314.79	0.00056587
2324.44	0.00059437
2334.08	0.00056407
2343.73	0.00056657
2353.37	0.00056827
2363.02	0.00046387
2372.66	0.00054117
2382.31	0.00052037
2391.95	0.00056247
2401.6	0.00064327
2411.24	0.00056617
2420.89	0.00053167
2430.53	0.00057457
2440.18	0.00054807
2449.82	0.00066587
2459.47	0.00046637
2469.11	0.00049847
2478.75	0.00046737
2488.4	0.00040997
2498.04	0.00039597
2507.69	0.00044737
2517.33	0.00038837
2526.98	0.00038667
2536.62	0.00038647
2546.27	0.00044627
2555.91	0.00043407
2565.56	0.00041537
2575.2	0.00034007
2584.85	0.00045367
2594.49	0.00036437
2604.14	0.00047307
2613.78	0.00042007
2623.43	0.00045227
2633.07	0.00050457
2642.72	0.00057627
2652.36	0.00042737
2662.01	0.00044827
2671.65	0.00051187
2681.29	0.00055167
2690.94	0.00061187
2700.58	0.00048397
2710.23	0.00063117
2719.87	0.00061247
2729.52	0.00068477
2739.16	0.00073917
2748.81	0.00076637
2758.45	0.00077647
2768.1	0.00070487
2777.74	0.00071327
2787.39	0.00082627
2797.03	0.00092987
2806.68	0.00119257
2816.32	0.00146257
2825.97	0.00184257
2835.61	0.00243257
2845.26	0.00330257
2854.9	0.00524257
2864.55	0.00810257
2874.19	0.0112026
2883.84	0.0127926
2893.48	0.0110526
2903.12	0.0105426
2912.77	0.0130926
2922.41	0.0170826
2932.06	0.0226626
2941.7	0.0260626
2951.35	0.0224526
2960.99	0.0245526
2970.64	0.0294126
2980.28	0.0177426
2989.93	0.00796257
2999.57	0.00463257
3009.22	0.00335257
3018.86	0.00260257
3028.51	0.00226257
3038.15	0.00178257
3047.8	0.00147257
3057.44	0.00119257
3067.09	0.00110257
3076.73	0.00099777
3086.38	0.00079677
3096.02	0.00075197
3105.67	0.00072427
3115.31	0.00079917
3124.95	0.00068757
3134.6	0.00060947
3144.24	0.00053997
3153.89	0.00051647
3163.53	0.00052467
3173.18	0.00044947
3182.82	0.00036207
3192.47	0.00035677
3202.11	0.00051547
3211.76	0.00027687
3221.4	0.00016987
3231.05	0.00037587
3240.69	0.00023147
3250.34	0.00028027
3259.98	0.00026557
3269.63	0.00021157
3279.27	0.00023237
3288.92	0.00035597
3298.56	0.00040157
3308.21	0.00025787
3317.85	0.00026767
3327.49	0.00031207
3337.14	0.00021857
3346.78	0.00032877
3356.43	0.00030207
3366.07	0.00034577
3375.72	0.00018637
3385.36	0.00034927
3395.01	0.00040647
3404.65	0.00037857
3414.3	0.00054067
3423.94	0.00057997
3433.59	0.00065377
3443.23	0.00049137
3452.88	0.00055717
3462.52	0.00045467
3472.17	0.00064617
3481.81	0.00083687
3491.46	0.00089877
3501.1	0.00108257
3510.75	0.00140257
3520.39	0.00192257
3530.04	0.00224257
3539.68	0.00260257
3549.32	0.00432257
3558.97	0.0143826
3568.61	0.0513226
3578.26	0.0457226
3587.9	0.00986257
3597.55	0.00309257
3607.19	0.00209257
3616.84	0.00137257
3626.48	0.00124257
3636.13	0.00102257
3645.77	0.00061517
3655.42	0.00050307
3665.06	0.00042837
3674.71	0.00036587
3684.35	0.00031707
3694	0.00059877
3703.64	0.00027017
3713.29	0.00032227
3722.93	0.00031597
3732.58	0.00024987
3742.22	0.00016967
3751.86	0.00016737
3761.51	0.00034417
3771.15	6.862e-05
3780.8	0.00028487
3790.44	0.00050137
3800.09	0.00028507
3809.73	0.00020477
3819.38	0.00041987
3829.02	0.00024247
3838.67	0.00018617
3848.31	0.00023247
3857.96	0.00013327
3867.6	0.00037067
3877.25	0.00010777
3886.89	0.00018277
3896.54	0.00012877
3906.18	0.00030407
3915.83	0.00024127
3925.47	0.00027027
3935.12	7.816e-05
3944.76	0.00032747
3954.41	0.00033577
3964.05	0.00014737
3973.69	0.00046267
3983.34	0.00038657
3992.98	0.00070727
