Infrared Spectrum: Aniline-d5
Formula: C 6 H 2 D 5 N
CAS: 4165-61-1
State: gas
Instrument: HP-GC/MS/IRD
Origin: NIST Mass Spectrometry Data Center
1/CM	ABSORBANCE
550	0.003495
562	0.0045405
574	0.002682
586	0.002031
598	0.001881
610	0.0022305
622	0.003033
634	0.0037035
646	0.0068415
658	0.008889
670	0.008235
682	0.004722
694	0.003453
706	0.0029595
718	0.003042
730	0.003408
742	0.003744
754	0.0035175
766	0.0023805
778	0.0015705
790	0.001365
802	0.001641
814	0.002037
826	0.001989
838	0.0010785
850	0.000621
862	0.000432
874	0.00054
886	0.000474
898	0.0003075
910	0.0002445
922	0.000168
934	0.0001665
946	0.0004125
958	0.000489
970	0.0004905
982	0.000429
994	0.000312
1006	0.0002655
1018	0.000222
1030	0.000291
1042	0.000498
1054	0.0007545
1066	0.0012225
1078	0.0011955
1090	0.0008385
1102	0.000333
1114	9.45e-05
1126	7.8e-05
1138	7.35e-05
1150	0.000147
1162	0.000486
1174	0.0016605
1186	0.003684
1198	0.0041775
1210	0.002622
1222	0.000681
1234	0.0004155
1246	0.0003825
1258	0.000195
1270	0.0004215
1282	0.001149
1294	0.001266
1306	0.000987
1318	0.000174
1330	0
1342	0.000339
1354	0.0009435
1366	0.0020715
1378	0.0058755
1390	0.0121155
1402	0.0132135
1414	0.0082305
1426	0.0027045
1438	0.0012015
1450	0.000786
1462	0.000714
1474	0.0006825
1486	0.0004935
1498	0.000423
1510	0.0004245
1522	0.0005475
1534	0.0011745
1546	0.0030765
1558	0.0093135
1570	0.0149025
1582	0.012126
1594	0.0066195
1606	0.0079575
1618	0.0112065
1630	0.0104415
1642	0.0058935
1654	0.002646
1666	0.0016245
1678	0.0007935
1690	0.0003945
1702	0.000336
1714	0.000252
1726	0.000171
1738	0.0001455
1750	0.0001065
1762	8.85e-05
1774	0.000138
1786	0.000129
1798	0.0001605
1810	0.0001905
1822	0.000195
1834	0.000192
1846	0.000234
1858	0.000192
1870	0.000159
1882	8.7e-05
1894	8.4e-05
1906	0.0001155
1918	0.0001005
1930	8.25e-05
1942	8.25e-05
1954	8.25e-05
1966	9.6e-05
1978	0.000138
1990	0.0001455
2002	0.0001725
2014	0.00015
2026	0.000183
2038	0.000237
2050	0.0002355
2062	0.000219
2074	0.0002025
2086	0.0001515
2098	0.000159
2110	0.000192
2122	0.0001875
2134	0.0002025
2146	0.0001815
2158	0.0001635
2170	0.000165
2182	0.000183
2194	0.000198
2206	0.000258
2218	0.0004815
2230	0.0010935
2242	0.0020085
2254	0.003072
2266	0.0045735
2278	0.004809
2290	0.004593
2302	0.0022905
2314	0.0009
2326	0.000414
2338	0.0003525
2350	0.000288
2362	0.0003495
2374	0.0004065
2386	0.000459
2398	0.0004695
2410	0.0003495
2422	0.000282
2434	0.00021
2446	0.000165
2458	0.0001515
2470	0.000132
2482	0.00015
2494	0.000171
2506	0.000153
2518	0.000138
2530	0.000174
2542	0.0001965
2554	0.0002235
2566	0.000264
2578	0.000351
2590	0.00042
2602	0.0003705
2614	0.00024
2626	0.000171
2638	0.000162
2650	0.0001995
2662	0.0001935
2674	0.000198
2686	0.0001905
2698	0.0002055
2710	0.00024
2722	0.000204
2734	0.000258
2746	0.000252
2758	0.000213
2770	0.0002505
2782	0.000228
2794	0.0002085
2806	0.0002715
2818	0.0003
2830	0.0003075
2842	0.0003315
2854	0.000315
2866	0.000315
2878	0.0002715
2890	0.000204
2902	0.000207
2914	0.0001725
2926	0.000162
2938	0.000186
2950	0.0002145
2962	0.0002115
2974	0.000249
2986	0.0002565
2998	0.0002595
3010	0.0002595
3022	0.000309
3034	0.0003525
3046	0.0003675
3058	0.0004305
3070	0.000285
3082	0.0002895
3094	0.0002175
3106	0.000252
3118	0.000267
3130	0.0002595
3142	0.0002325
3154	0.000228
3166	0.000249
3178	0.000234
3190	0.0002805
3202	0.000381
3214	0.000492
3226	0.0005655
3238	0.00057
3250	0.0004365
3262	0.0003255
3274	0.0002445
3286	0.000207
3298	0.0002115
3310	0.0001875
3322	0.000171
3334	0.0001695
3346	0.0001875
3358	0.0002505
3370	0.000351
3382	0.0006315
3394	0.001248
3406	0.001683
3418	0.00168
3430	0.0011265
3442	0.000627
3454	0.000567
3466	0.0008205
3478	0.0012585
3490	0.001419
3502	0.001422
3514	0.0010125
3526	0.0005205
3538	0.0003165
3550	0.0002895
3562	0.000198
3574	0.000168
3586	0.0001755
3598	0.000297
3610	0.0002535
3622	0.000234
3634	0.0001965
3646	0.00018
3658	0.000249
3670	0.0002265
3682	0.0002655
3694	0.000213
3706	0.0002085
3718	0.000246
3730	0.000249
3742	0.000237
3754	0.0002355
3766	0.000246
3778	0.0002685
3790	0.0002595
3802	0.0002505
3814	0.000363
3826	0.000348
3838	0.000384
