Infrared Spectrum: PHENOL, 4,6-DI-TERT-BUTYL-2-CHLORO-
Formula: C14 H21 Cl O
CAS: 4166-86-3
State: SOLUTION (10% CCl4 FOR 3800-1340, 10% CS2 FOR 1340-450 CM^-^1)
Class: COBLENTZ III
Instrument: DOW KBr FOREPRISM-GRATING
Instrument parameters: BLAZED AT 3.5, 12.0, 20.0 MICRON AND CHANGED AT 5.0, 7.5, 14.9 MICRON
Sampling: TRANSMISSION
Path length: 0.012 CM, 0.011 CM
Resolution: 2
Origin: DOW CHEMICAL COMPANY
1/CM	TRANSMITTANCE
455	0.8978
464	0.909
473	0.9177
482	0.9175
491	0.9411
500	0.9494
509	0.9457
518	0.8959
527	0.9521
536	0.9636
545	0.9591
554	0.8983
563	0.9716
572	0.9781
581	0.9894
590	0.9882
599	0.9837
608	0.9443
617	0.6925
626	0.964
635	0.9607
644	0.9082
653	0.878
662	0.9308
671	0.957
680	0.9585
689	0.9559
698	0.9368
707	0.9046
716	0.8194
725	0.498
734	0.8637
743	0.6196
752	0.8663
761	0.6578
770	0.4173
779	0.874
788	0.9056
797	0.882
806	0.9146
815	0.8295
824	0.6121
833	0.8827
842	0.7275
851	0.2424
860	0.6218
869	0.2124
878	0.7698
887	0.8452
896	0.9153
905	0.94
914	0.9133
923	0.8764
932	0.7726
941	0.9563
950	0.963
959	0.9689
968	0.9756
977	0.9796
986	0.9805
995	0.9764
1004	0.9654
1013	0.9495
1022	0.8948
1031	0.9547
1040	0.9682
1049	0.9544
1058	0.9502
1067	0.9528
1076	0.9381
1085	0.8967
1094	0.7433
1103	0.8639
1112	0.8978
1121	0.8845
1130	0.8275
1139	0.6881
1148	0.7946
1157	0.7454
1166	0.6718
1175	0.3379
1184	0.141
1193	0.5857
1202	0.2815
1211	0.4054
1220	0.6844
1229	0.7818
1238	0.5803
1247	0.3723
1256	0.2096
1265	0.5912
1274	0.5302
1283	0.2246
1292	0.2304
1301	0.7218
1310	0.7461
1319	0.809
1328	0.6254
1337	0.2825
1346	0.6533
1355	0.8325
1364	0.426
1373	0.499
1382	0.7783
1391	0.5621
1400	0.4882
1409	0.1483
1418	0.6561
1427	0.7441
1436	0.6939
1445	0.3937
1454	0.2994
1463	0.2591
1472	0.3067
1481	0.0707
1490	0.2957
1499	0.6604
1508	0.6658
1517	0.6493
1526	0.6518
1535	0.6062
1544	0.4645
1553	0.4508
1562	0.5004
1571	0.4734
1580	0.3671
1589	0.6017
1598	0.6939
1607	0.7554
1616	0.8489
1625	0.9125
1634	0.9316
1643	0.9113
1652	0.8845
1661	0.8799
1670	0.9061
1679	0.8817
1688	0.9415
1697	0.9468
1706	0.9489
1715	0.9471
1724	0.9427
1733	0.901
1742	0.9239
1751	0.9402
1760	0.9101
1769	0.9404
1778	0.9234
1787	0.9245
1796	0.9514
1805	0.9553
1814	0.9525
1823	0.9511
1832	0.9512
1841	0.9507
1850	0.9491
1859	0.9509
1868	0.9545
1877	0.9571
1886	0.9581
1895	0.9571
1904	0.9564
1913	0.9563
1922	0.9562
1931	0.9567
1940	0.9574
1949	0.9573
1958	0.9565
1967	0.9548
1976	0.9528
1985	0.9516
1994	0.9433
2003	0.9578
2012	0.9656
2021	0.9667
2030	0.969
2039	0.9718
2048	0.9739
2057	0.9725
2066	0.9697
2075	0.9698
2084	0.9728
2093	0.9743
2102	0.9759
2111	0.9771
2120	0.9773
2129	0.9775
2138	0.9784
2147	0.9788
2156	0.9786
2165	0.9774
2174	0.9759
2183	0.9743
2192	0.9735
2201	0.9755
2210	0.9756
2219	0.9749
2228	0.9749
2237	0.9731
2246	0.9698
2255	0.9653
2264	0.9593
2273	0.9527
2282	0.9463
2291	0.9408
2300	0.9411
2309	0.9501
2318	0.96
2327	0.9683
2336	0.9742
2345	0.9746
2354	0.9736
2363	0.972
2372	0.9701
2381	0.9675
2390	0.9659
2399	0.9666
2408	0.9671
2417	0.9658
2426	0.9671
2435	0.972
2444	0.9737
2453	0.9732
2462	0.9721
2471	0.971
2480	0.9697
2489	0.9678
2498	0.9664
2507	0.9657
2516	0.9667
2525	0.9639
2534	0.9618
2543	0.9671
2552	0.968
2561	0.9643
2570	0.9648
2579	0.9661
2588	0.9658
2597	0.9667
2606	0.972
2615	0.9758
2624	0.9733
2633	0.9711
2642	0.9709
2651	0.9646
2660	0.9546
2669	0.9496
2678	0.9544
2687	0.9578
2696	0.9566
2705	0.9474
2714	0.9291
2723	0.9345
2732	0.9543
2741	0.9368
2750	0.9482
2759	0.9598
2768	0.9551
2777	0.9433
2786	0.946
2795	0.9432
2804	0.9247
2813	0.9071
2822	0.9018
2831	0.89
2840	0.8656
2849	0.8117
2858	0.638
2867	0.3736
2876	0.2746
2885	0.4154
2894	0.4123
2903	0.2966
2912	0.2476
2921	0.2999
2930	0.2863
2939	0.2285
2948	0.1108
2957	0.0383
2966	0.0184
2975	0.0545
2984	0.2942
2993	0.5362
3002	0.5465
3011	0.7778
3020	0.8746
3029	0.9023
3038	0.912
3047	0.9209
3056	0.9298
3065	0.9306
3074	0.9306
3083	0.9308
3092	0.9327
3101	0.9368
3110	0.943
3119	0.9506
3128	0.9513
3137	0.9531
3146	0.9582
3155	0.9597
3164	0.9565
3173	0.9517
3182	0.9513
3191	0.9518
3200	0.9521
3209	0.9521
3218	0.953
3227	0.9542
3236	0.9557
3245	0.9571
3254	0.9594
3263	0.9627
3272	0.9663
3281	0.9659
3290	0.9651
3299	0.9671
3308	0.9695
3317	0.9703
3326	0.969
3335	0.9704
3344	0.973
3353	0.975
3362	0.9799
3371	0.9771
3380	0.9733
3389	0.9702
3398	0.9688
3407	0.9727
3416	0.9804
3425	0.9799
3434	0.9778
3443	0.9744
3452	0.969
3461	0.9625
3470	0.954
3479	0.9411
3488	0.9208
3497	0.8763
3506	0.761
3515	0.5351
3524	0.3045
3533	0.0964
3542	0.3392
3551	0.6675
3560	0.8665
3569	0.9475
3578	0.9478
3587	0.9761
3596	0.9793
3605	0.9786
3614	0.98
3623	0.9858
3632	0.9892
3641	0.9934
3650	0.9931
3659	0.9954
3668	0.9901
3677	0.9837
3686	0.9821
3695	0.9871
3704	0.9903
3713	0.9889
3722	0.9881
3731	0.9945
3740	0.9965
3749	0.9954
3758	0.9938
3767	0.9917
3776	0.9907
3785	0.9888
3794	0.9874
