Infrared Spectrum: 2,3-Dimethyl-3-hexanol
Formula: C 8 H 18 O
CAS: 4166-46-5
State: gas
Instrument: HP-GC/MS/IRD
Origin: NIST Mass Spectrometry Data Center
1/CM	ABSORBANCE
550	0.0004012
562	0.0002584
574	0.0001666
586	0.0003536
598	0.0002006
610	0.0001156
622	9.52e-05
634	4.76e-05
646	4.76e-05
658	0.0001156
670	0.000136
682	0.0001564
694	0.0001462
706	0.0001802
718	0.0002754
730	0.0003536
742	0.0002992
754	0.0002584
766	0.000187
778	0.0001734
790	0.000238
802	0.0002346
814	0.0003298
826	0.0005576
838	0.0010268
850	0.001105
862	0.00085
874	0.000901
886	0.0013226
898	0.0020162
910	0.0026554
922	0.0031008
934	0.002703
946	0.0016932
958	0.0010438
970	0.0009044
982	0.0013158
994	0.0021726
1006	0.0026214
1018	0.002295
1030	0.0020502
1042	0.0022542
1054	0.0024582
1066	0.002771
1078	0.0030396
1090	0.0029444
1102	0.002703
1114	0.002873
1126	0.0037672
1138	0.0047056
1150	0.0051578
1162	0.0050864
1174	0.0042704
1186	0.0031144
1198	0.0023324
1210	0.0020026
1222	0.0019686
1234	0.002159
1246	0.002295
1258	0.0023698
1270	0.0025126
1282	0.0026112
1294	0.0025126
1306	0.0022848
1318	0.0020128
1330	0.001853
1342	0.002023
1354	0.0027438
1366	0.0046988
1378	0.0066844
1390	0.0055862
1402	0.0028764
1414	0.0014926
1426	0.0014144
1438	0.0020196
1450	0.0032776
1462	0.004437
1474	0.0039712
1486	0.0021828
1498	0.0009962
1510	0.0005678
1522	0.0004182
1534	0.0003332
1546	0.0002754
1558	0.000187
1570	0.000204
1582	0.0001972
1594	0.0001564
1606	0.0001836
1618	0.0001394
1630	0.0001496
1642	0.0001632
1654	0.000119
1666	0.0001394
1678	0.0001326
1690	0.0001054
1702	7.14e-05
1714	3.4e-05
1726	4.76e-05
1738	2.72e-05
1750	2.72e-05
1762	3.4e-05
1774	2.72e-05
1786	2.72e-05
1798	5.1e-05
1810	3.06e-05
1822	3.4e-05
1834	2.72e-05
1846	3.74e-05
1858	4.08e-05
1870	3.74e-05
1882	4.08e-05
1894	4.42e-05
1906	2.04e-05
1918	2.04e-05
1930	2.04e-05
1942	1.7e-05
1954	3.74e-05
1966	2.04e-05
1978	3.4e-05
1990	2.38e-05
2002	1.02e-05
2014	1.7e-05
2026	3.06e-05
2038	3.06e-05
2050	2.72e-05
2062	2.38e-05
2074	3.4e-05
2086	2.04e-05
2098	1.7e-05
2110	2.38e-05
2122	1.36e-05
2134	1.7e-05
2146	3.06e-05
2158	1.02e-05
2170	3.4e-05
2182	2.38e-05
2194	4.76e-05
2206	2.04e-05
2218	1.36e-05
2230	3.06e-05
2242	6.8e-06
2254	4.42e-05
2266	2.04e-05
2278	6.12e-05
2290	2.38e-05
2302	4.42e-05
2314	5.1e-05
2326	3.4e-05
2338	3.4e-05
2350	5.1e-05
2362	2.38e-05
2374	5.78e-05
2386	8.16e-05
2398	8.5e-05
2410	0.0001088
2422	7.48e-05
2434	4.08e-05
2446	2.38e-05
2458	3.74e-05
2470	5.78e-05
2482	3.06e-05
2494	3.74e-05
2506	4.76e-05
2518	6.12e-05
2530	7.14e-05
2542	5.78e-05
2554	0.000102
2566	9.18e-05
2578	0.0001394
2590	0.0001734
2602	0.000221
2614	0.0002414
2626	0.0002142
2638	0.0002414
2650	0.0002244
2662	0.0002108
2674	0.0002312
2686	0.000238
2698	0.0002856
2710	0.0003162
2722	0.0004046
2734	0.0005406
2746	0.0006154
2758	0.0005746
2770	0.0005882
2782	0.0006528
2794	0.0007582
2806	0.0009418
2818	0.0012546
2830	0.0016422
2842	0.002397
2854	0.0037128
2866	0.0061166
2878	0.010965
2890	0.0133008
2902	0.012138
2914	0.012648
2926	0.0149226
2938	0.0190434
2950	0.0222802
2962	0.029886
2974	0.0331568
2986	0.0215288
2998	0.0098702
3010	0.0041718
3022	0.0023732
3034	0.0017578
3046	0.0013702
3058	0.0011186
3070	0.0009588
3082	0.0008568
3094	0.0007412
3106	0.0006426
3118	0.0005848
3130	0.0005508
3142	0.0004828
3154	0.000476
3166	0.0004726
3178	0.0004182
3190	0.0003978
3202	0.0003366
3214	0.0002414
3226	0.0001632
3238	0.0001428
3250	0.0001088
3262	8.5e-05
3274	9.52e-05
3286	4.76e-05
3298	5.1e-05
3310	7.48e-05
3322	6.46e-05
3334	7.48e-05
3346	7.82e-05
3358	6.12e-05
3370	7.82e-05
3382	6.46e-05
3394	0.0001054
3406	7.82e-05
3418	0.0001122
3430	0.0001156
3442	0.0001224
3454	0.0001292
3466	7.48e-05
3478	4.42e-05
3490	7.14e-05
3502	8.5e-05
3514	6.12e-05
3526	3.06e-05
3538	3.4e-05
3550	4.08e-05
3562	4.76e-05
3574	8.84e-05
3586	8.5e-05
3598	0.0001122
3610	0.0001802
3622	0.0004896
3634	0.0011526
3646	0.0015062
3658	0.0009248
3670	0.0003094
3682	0.000102
3694	6.46e-05
3706	6.46e-05
3718	6.8e-05
3730	7.14e-05
3742	0
3754	4.76e-05
3766	4.42e-05
3778	6.12e-05
3790	6.46e-05
3802	7.48e-05
3814	8.5e-05
3826	0.0001122
3838	7.48e-05
