Infrared Spectrum: 2-Amino-5-chlorothiazole
Formula: C3 H3 Cl N2 S
CAS: 41663-73-4
State: SOLID (SPLIT MULL)
Melting point: 104 C
Class: COBLENTZ III
Instrument: BECKMAN IR-9 (GRATING)
Instrument parameters: ORDER CHANGES: 670, 1200, 2000 CM^-^1
Sampling: TRANSMISSION
Resolution: 2
Origin: DOW CHEMICAL COMPANY
1/CM	TRANSMITTANCE
403	0.5602
412	0.5495
421	0.5132
430	0.617
439	0.6755
448	0.7054
457	0.7275
466	0.7411
475	0.7597
484	0.7637
493	0.6268
502	0.3784
511	0.5619
520	0.6078
529	0.6828
538	0.7143
547	0.7334
556	0.7421
565	0.7467
574	0.7498
583	0.7487
592	0.7361
601	0.719
610	0.7043
619	0.6838
628	0.6722
637	0.7668
646	0.774
655	0.779
664	0.775
673	0.7771
682	0.7893
691	0.7651
700	0.7658
709	0.7584
718	0.7004
727	0.6712
736	0.7137
745	0.7458
754	0.7576
763	0.5882
772	0.7754
781	0.8141
790	0.8378
799	0.8511
808	0.8597
817	0.8649
826	0.8568
835	0.4059
844	0.7001
853	0.8518
862	0.8775
871	0.8896
880	0.8953
889	0.8954
898	0.8947
907	0.894
916	0.8903
925	0.8795
934	0.8682
943	0.8616
952	0.8527
961	0.8377
970	0.8255
979	0.8285
988	0.8158
997	0.7937
1006	0.766
1015	0.6657
1024	0.572
1033	0.5845
1042	0.6335
1051	0.5648
1060	0.3364
1069	0.5469
1078	0.7087
1087	0.7621
1096	0.788
1105	0.8011
1114	0.8046
1123	0.8019
1132	0.7941
1141	0.7808
1150	0.7661
1159	0.7531
1168	0.7554
1177	0.7641
1186	0.7672
1195	0.7234
1204	0.4198
1213	0.7691
1222	0.7844
1231	0.7854
1240	0.7794
1249	0.7671
1258	0.7376
1267	0.7401
1276	0.7353
1285	0.7075
1294	0.6612
1303	0.6052
1312	0.5306
1321	0.4441
1330	0.4224
1339	0.4693
1348	0.4919
1357	0.5502
1366	0.6425
1375	0.6696
1384	0.7034
1393	0.6958
1402	0.6406
1411	0.6091
1420	0.6493
1429	0.6899
1438	0.6918
1447	0.6792
1456	0.6745
1465	0.6593
1474	0.624
1483	0.5471
1492	0.406
1501	0.2822
1510	0.25
1519	0.1511
1528	0.2159
1537	0.7319
1546	0.7653
1555	0.7736
1564	0.7821
1573	0.7631
1582	0.7199
1591	0.6542
1600	0.571
1609	0.4059
1618	0.2556
1627	0.3664
1636	0.6378
1645	0.7362
1654	0.7555
1663	0.7585
1672	0.8263
1681	0.8356
1690	0.868
1699	0.8851
1708	0.8771
1717	0.866
1726	0.8741
1735	0.8835
1744	0.8877
1753	0.8871
1762	0.8833
1771	0.882
1780	0.8821
1789	0.8818
1798	0.8813
1807	0.8806
1816	0.8788
1825	0.8749
1834	0.8716
1843	0.8678
1852	0.8632
1861	0.8582
1870	0.8582
1879	0.8558
1888	0.8539
1897	0.8523
1906	0.8487
1915	0.8463
1924	0.844
1933	0.8406
1942	0.8371
1951	0.8337
1960	0.8303
1969	0.8271
1978	0.8242
1987	0.8169
1996	0.8095
2005	0.8055
2014	0.8022
2023	0.7981
2032	0.794
2041	0.7898
2050	0.7862
2059	0.7838
2068	0.7812
2077	0.7784
2086	0.7751
2095	0.7715
2104	0.7681
2113	0.764
2122	0.7589
2131	0.7538
2140	0.7487
2149	0.7436
2158	0.7384
2167	0.7331
2176	0.7276
2185	0.7215
2194	0.7157
2203	0.7096
2212	0.7035
2221	0.6974
2230	0.6901
2239	0.6828
2248	0.6768
2257	0.6701
2266	0.6621
2275	0.6572
2284	0.6531
2293	0.6524
2302	0.6486
2311	0.6467
2320	0.6471
2329	0.6494
2338	0.6519
2347	0.6545
2356	0.6569
2365	0.6594
2374	0.6582
2383	0.6449
2392	0.632
2401	0.6289
2410	0.6282
2419	0.6264
2428	0.6246
2437	0.6223
2446	0.6193
2455	0.6162
2464	0.6133
2473	0.6104
2482	0.607
2491	0.603
2500	0.599
2509	0.5948
2518	0.5907
2527	0.5866
2536	0.5826
2545	0.5785
2554	0.5738
2563	0.5688
2572	0.5638
2581	0.5587
2590	0.5536
2599	0.5474
2608	0.5407
2617	0.5336
2626	0.5266
2635	0.5185
2644	0.5103
2653	0.5022
2662	0.4946
2671	0.4881
2680	0.4862
2689	0.4899
2698	0.4946
2707	0.498
2716	0.495
2725	0.4891
2734	0.4823
2743	0.4753
2752	0.4681
2761	0.4603
2770	0.4525
2779	0.4447
2788	0.4362
2797	0.4273
2806	0.4168
2815	0.4082
2824	0.3932
2833	0.3958
2842	0.403
2851	0.403
2860	0.3952
2869	0.3875
2878	0.3791
2887	0.3728
2896	0.3678
2905	0.358
2914	0.3448
2923	0.333
2932	0.3209
2941	0.3117
2950	0.3094
2959	0.3091
2968	0.3088
2977	0.3064
2986	0.2999
2995	0.2891
3004	0.2798
3013	0.2706
3022	0.2602
3031	0.2501
3040	0.2428
3049	0.2367
3058	0.2332
3067	0.2342
3076	0.2368
3085	0.2359
3094	0.2341
3103	0.224
3112	0.2197
3121	0.2179
3130	0.2105
3139	0.2092
3148	0.2223
3157	0.2361
3166	0.2659
3175	0.2895
3184	0.3203
3193	0.3474
3202	0.3628
3211	0.3702
3220	0.3739
3229	0.3609
3238	0.3416
3247	0.3198
3256	0.3006
3265	0.2828
3274	0.278
3283	0.2934
3292	0.3332
3301	0.3514
3310	0.3587
3319	0.357
3328	0.3443
3337	0.3259
3346	0.295
3355	0.2575
3364	0.2451
3373	0.2774
3382	0.3178
3391	0.3364
3400	0.3384
3409	0.3337
3418	0.3149
3427	0.33
3436	0.4014
3445	0.4971
3454	0.5305
3463	0.549
3472	0.5565
3481	0.5593
3490	0.5582
3499	0.5548
3508	0.5503
3517	0.5437
3526	0.5369
3535	0.5312
3544	0.5274
3553	0.5248
3562	0.5229
3571	0.5204
3580	0.5102
3589	0.5031
3598	0.5002
3607	0.4987
3616	0.4973
3625	0.4945
3634	0.4918
3643	0.4891
3652	0.4864
3661	0.4824
3670	0.4783
3679	0.4741
3688	0.4699
3697	0.4657
3706	0.4612
3715	0.4568
3724	0.4524
3733	0.448
3742	0.4442
3751	0.4404
3760	0.437
3769	0.4342
3778	0.4314
3787	0.4286
3796	0.4262
