Infrared Spectrum: p-Octyloxybenzylidene p-cyanoaniline
Formula: C 22 H 26 N 2 O
CAS: 41682-73-9
State: gas
Origin: EPA-IR VAPOR PHASE LIBRARY
1/CM	ABSORBANCE
549.8	0.003462
559.445	0.002982
569.09	0.002072
578.734	0.001822
588.379	0.001882
598.024	0.002282
607.669	0.001522
617.313	0.0008294
626.958	0.0006041
636.603	0.0009542
646.248	0.0009717
655.893	0.0005411
665.537	0.0005955
675.182	0.0006496
684.827	0.0007848
694.472	0.001222
704.116	0.001272
713.761	0.001472
723.406	0.001272
733.051	0.0011474
742.695	0.0010862
752.34	0.0008591
761.985	0.0008354
771.63	0.0010023
781.275	0.0009794
790.919	0.0010526
800.564	0.001792
810.209	0.002222
819.854	0.003662
829.498	0.006972
839.143	0.008812
848.788	0.005492
858.433	0.003392
868.078	0.002672
877.722	0.003512
887.367	0.006122
897.012	0.003252
906.657	0.002122
916.301	0.001262
925.946	0.001252
935.591	0.001292
945.236	0.001402
954.88	0.001532
964.525	0.002222
974.17	0.002992
983.815	0.002852
993.46	0.003242
1003.1	0.003532
1012.75	0.004682
1022.39	0.005342
1032.04	0.005612
1041.68	0.004672
1051.33	0.003682
1060.97	0.003152
1070.62	0.002412
1080.26	0.001742
1089.91	0.001692
1099.55	0.001672
1109.2	0.003172
1118.84	0.001922
1128.49	0.002172
1138.13	0.002822
1147.78	0.005122
1157.42	0.023662
1167.07	0.031842
1176.71	0.006502
1186.36	0.006742
1196	0.010822
1205.64	0.007212
1215.29	0.009732
1224.93	0.012622
1234.58	0.020082
1244.22	0.026152
1253.87	0.027002
1263.51	0.014672
1273.16	0.007812
1282.8	0.006972
1292.45	0.009042
1302.09	0.011922
1311.74	0.008032
1321.38	0.004432
1331.03	0.003162
1340.67	0.002842
1350.32	0.002602
1359.96	0.002552
1369.61	0.002662
1379.25	0.003022
1388.9	0.003562
1398.54	0.002592
1408.18	0.002562
1417.83	0.004762
1427.47	0.003672
1437.12	0.002362
1446.76	0.002582
1456.41	0.003352
1466.05	0.004662
1475.7	0.006492
1485.34	0.005412
1494.99	0.009212
1504.63	0.017962
1514.28	0.024712
1523.92	0.006582
1533.57	0.003322
1543.21	0.002912
1552.86	0.003722
1562.5	0.006572
1572.15	0.015522
1581.79	0.016952
1591.44	0.038582
1601.08	0.036942
1610.73	0.014872
1620.37	0.009232
1630.01	0.017302
1639.66	0.016252
1649.3	0.006242
1658.95	0.003652
1668.59	0.002692
1678.24	0.002002
1687.88	0.001502
1697.53	0.001222
1707.17	0.0010881
1716.82	0.0010505
1726.46	0.0010299
1736.11	0.0010156
1745.75	0.0009713
1755.4	0.0010755
1765.04	0.0010482
1774.69	0.0010549
1784.33	0.0008575
1793.98	0.0007533
1803.62	0.000634
1813.27	0.0006144
1822.91	0.0005872
1832.55	0.0004998
1842.2	0.0005679
1851.84	0.0006066
1861.49	0.0006835
1871.13	0.00074
1880.78	0.0008514
1890.42	0.0009546
1900.07	0.0009845
1909.71	0.0008655
1919.36	0.0007907
1929	0.0007839
1938.65	0.0008469
1948.29	0.0007762
1957.94	0.000692
1967.58	0.000744
1977.23	0.0006616
1986.87	0.0006947
1996.52	0.0007973
2006.16	0.0008167
2015.81	0.0009554
2025.45	0.0007943
2035.1	0.0008285
2044.74	0.0008624
2054.38	0.000839
2064.03	0.0007692
2073.67	0.0007292
2083.32	0.0007804
2092.96	0.0006962
2102.61	0.0006107
2112.25	0.0005027
2121.9	0.000536
2131.54	0.000497
2141.19	0.0004909
2150.83	0.0004299
2160.48	0.0003938
2170.12	0.0004363
2179.77	0.0005333
2189.41	0.0004623
2199.06	0.0005268
2208.7	0.000604
2218.35	0.001222
2227.99	0.004432
2237.64	0.002262
2247.28	0.0006668
2256.92	0.0005197
2266.57	0.0004389
2276.21	0.0004126
2285.86	0.0005201
2295.5	0.0005335
2305.15	0.0004713
2314.79	0.0005308
2324.44	0.0004573
2334.08	0.0005189
2343.73	0.0004779
2353.37	0.0005206
2363.02	0.0004772
2372.66	0.0005367
2382.31	0.0005991
2391.95	0.0006198
2401.6	0.0005969
2411.24	0.0006012
2420.89	0.0006128
2430.53	0.0005913
2440.18	0.0007085
2449.82	0.0006755
2459.47	0.000772
2469.11	0.0007041
2478.75	0.0008123
2488.4	0.0007315
2498.04	0.0007491
2507.69	0.0007973
2517.33	0.0007907
2526.98	0.0008977
2536.62	0.0010256
2546.27	0.0009792
2555.91	0.0009027
2565.56	0.0008964
2575.2	0.0007822
2584.85	0.0006783
2594.49	0.0006558
2604.14	0.0006755
2613.78	0.0005874
2623.43	0.0005882
2633.07	0.0005849
2642.72	0.0004759
2652.36	0.0006098
2662.01	0.0005433
2671.65	0.0005504
2681.29	0.0005601
2690.94	0.0006379
2700.58	0.0006657
2710.23	0.000629
2719.87	0.000587
2729.52	0.0007284
2739.16	0.0007797
2748.81	0.0009896
2758.45	0.0010032
2768.1	0.0009376
2777.74	0.0009555
2787.39	0.0010498
2797.03	0.0011455
2806.68	0.001242
2816.32	0.001362
2825.97	0.001772
2835.61	0.002312
2845.26	0.003512
2854.9	0.006452
2864.55	0.009382
2874.19	0.008972
2883.84	0.008242
2893.48	0.007212
2903.12	0.007562
2912.77	0.010172
2922.41	0.014722
2932.06	0.020442
2941.7	0.019482
2951.35	0.014742
2960.99	0.012092
2970.64	0.010652
2980.28	0.005802
2989.93	0.003402
2999.57	0.002382
3009.22	0.002272
3018.86	0.001782
3028.51	0.001842
3038.15	0.002602
3047.8	0.002112
3057.44	0.001382
3067.09	0.001542
3076.73	0.002292
3086.38	0.001692
3096.02	0.001652
3105.67	0.001282
3115.31	0.0009924
3124.95	0.0008221
3134.6	0.0006506
3144.24	0.0005677
3153.89	0.0004135
3163.53	0.0003979
3173.18	0.0004399
3182.82	0.0005065
3192.47	0.0005525
3202.11	0.0005355
3211.76	0.0003127
3221.4	0.0003492
3231.05	0.0006485
3240.69	0.0003058
3250.34	0.0003731
3259.98	0.0003852
3269.63	0.0004694
3279.27	0.0003954
3288.92	0.00029662
3298.56	0.0001687
3308.21	0.00019874
3317.85	0.0001666
3327.49	0.00022092
3337.14	0.00022911
3346.78	0.000403
3356.43	0.00030089
3366.07	0.00020159
3375.72	0.0003353
3385.36	0.0003491
3395.01	0.00019568
3404.65	0.00028239
3414.3	0.0003724
3423.94	0.00025412
3433.59	0.0001669
3443.23	0.00025026
3452.88	0.00023104
3462.52	0.0001296
3472.17	0.00022824
3481.81	0.0001674
3491.46	0.00019491
3501.1	0.0002934
3510.75	0.0003035
3520.39	0.00029677
3530.04	0.000209218
3539.68	0.0002606
3549.32	0.0001919
3558.97	0.00027665
3568.61	0.0001661
3578.26	0.00029632
3587.9	0.00025314
3597.55	0.0001773
3607.19	0.0001352
3616.84	0.0002398
3626.48	0.0001673
3636.13	0.00028897
3645.77	0.00026732
3655.42	0.00025534
3665.06	0.0003383
3674.71	0.0001872
3684.35	0.0001625
3694	0.00019865
3703.64	0.0001386
3713.29	0.0004101
3722.93	0.00023291
3732.58	0.000211512
3742.22	0.00028168
3751.86	0.00027898
3761.51	0.00028421
3771.15	0.0001868
3780.8	0.0003752
3790.44	0.0002144
3800.09	0.0003305
3809.73	0.0001831
3819.38	0.0003249
3829.02	0.00028129
3838.67	8.5e-05
3848.31	0.0001256
3857.96	0.000209252
3867.6	5e-05
3877.25	0.0003123
3886.89	0.00023773
3896.54	0.0003668
3906.18	0.0003052
3915.83	0.00024754
3925.47	0.0002696
3935.12	2.5e-05
3944.76	0.00019634
3954.41	0.0003256
3964.05	0.00027742
3973.69	0.000206671
3983.34	0.0003025
3992.98	0.00023836
