Infrared Spectrum: 2,4,6-Trimethylbenzyl alcohol
Formula: C 10 H 14 O
CAS: 4170-90-5
State: gas
Origin: EPA-IR VAPOR PHASE LIBRARY
1/CM	ABSORBANCE
549.9	0.0011878
559.547	0.001245
569.193	0.001645
578.84	0.001755
588.486	0.001775
598.133	0.0011025
607.779	0.0007926
617.426	0.0005524
627.072	0.0006796
636.719	0.0005134
646.365	0.0004441
656.012	0.0003776
665.658	0.0003634
675.305	0.0003878
684.951	0.0004309
694.598	0.0008197
704.245	0.001495
713.891	0.001995
723.538	0.0011198
733.184	0.0006067
742.831	0.0006182
752.477	0.0007354
762.124	0.001355
771.77	0.002355
781.417	0.002245
791.063	0.0011832
800.71	0.0007247
810.356	0.0006152
820.003	0.0007202
829.649	0.001395
839.296	0.003865
848.943	0.007635
858.589	0.003775
868.236	0.001255
877.882	0.0007867
887.529	0.0007462
897.175	0.0008323
906.822	0.0009333
916.468	0.001265
926.115	0.001585
935.761	0.001975
945.408	0.002355
955.054	0.002855
964.701	0.004025
974.347	0.007015
983.994	0.012855
993.64	0.019285
1003.29	0.017675
1012.93	0.009895
1022.58	0.005585
1032.23	0.004075
1041.87	0.003035
1051.52	0.002145
1061.17	0.001785
1070.81	0.001595
1080.46	0.001325
1090.11	0.0011242
1099.75	0.0009812
1109.4	0.0009854
1119.05	0.0011503
1128.69	0.001555
1138.34	0.001965
1147.99	0.001855
1157.63	0.001565
1167.28	0.001575
1176.92	0.001755
1186.57	0.002055
1196.22	0.002165
1205.86	0.002475
1215.51	0.002555
1225.16	0.002435
1234.8	0.002295
1244.45	0.002235
1254.1	0.002225
1263.74	0.002295
1273.39	0.002185
1283.04	0.002345
1292.68	0.002255
1302.33	0.002095
1311.98	0.001715
1321.62	0.001605
1331.27	0.001705
1340.92	0.001965
1350.56	0.002525
1360.21	0.003435
1369.86	0.005065
1379.5	0.006655
1389.15	0.006665
1398.79	0.004915
1408.44	0.003515
1418.09	0.003275
1427.73	0.003845
1437.38	0.004355
1447.03	0.004565
1456.67	0.004345
1466.32	0.004125
1475.97	0.004355
1485.61	0.004385
1495.26	0.003325
1504.91	0.002525
1514.55	0.002315
1524.2	0.002235
1533.85	0.002215
1543.49	0.002205
1553.14	0.002375
1562.79	0.002785
1572.43	0.003125
1582.08	0.003195
1591.73	0.003085
1601.37	0.004825
1611.02	0.006925
1620.67	0.004535
1630.31	0.0011982
1639.96	0.0004537
1649.6	0.00026823
1659.25	0.0002309
1668.9	0.000114
1678.54	0.0002223
1688.19	0.0002275
1697.84	0.00031499
1707.48	0.0004806
1717.13	0.0006588
1726.78	0.0006902
1736.42	0.00033084
1746.07	0.00033983
1755.72	0.0003588
1765.36	0.0001909
1775.01	0.000112
1784.66	0.000112
1794.3	7.7e-05
1803.95	6.3e-05
1813.6	7.3e-05
1823.24	2.8e-05
1832.89	6.6e-05
1842.54	5.1e-05
1852.18	4e-05
1861.83	9.2e-05
1871.47	8.3e-05
1881.12	0.000124
1890.77	0.00014
1900.41	0.0001781
1910.06	0.000124
1919.71	0.00014
1929.35	0.0001581
1939	0.0001576
1948.65	0.000195
1958.29	0.0002111
1967.94	0.0002197
1977.59	0.00028607
1987.23	0.00027618
1996.88	0.0002217
2006.53	0.0001585
2016.17	0.000133
2025.82	0.00015
2035.47	0.000129
2045.11	9e-05
2054.76	8.3e-05
2064.41	0.0001598
2074.05	0.000142
2083.7	0.0001683
2093.35	0.0001556
2102.99	0.0001725
2112.64	0.000144
2122.28	0.0001546
2131.93	0.0001543
2141.58	0.0001599
2151.22	0.0001682
2160.87	0.0001834
2170.52	0.0002188
2180.16	0.0001991
2189.81	0.0001928
2199.46	0.0001782
2209.1	0.000135
2218.75	0.0001964
2228.4	0.0001698
2238.04	0.0001855
2247.69	0.0002001
2257.34	0.0002154
2266.98	0.0001939
2276.63	0.0002044
2286.28	0.0002162
2295.92	0.0001965
2305.57	0.0001868
2315.22	0.0002002
2324.86	0.000137
2334.51	0.0001634
2344.16	0.0002099
2353.8	0.0002238
2363.45	0.0002039
2373.09	0.0002152
2382.74	0.0003245
2392.39	0.00034018
2402.03	0.0003033
2411.68	0.000353
2421.33	0.00034428
2430.97	0.00031056
2440.62	0.0003591
2450.27	0.0004215
2459.91	0.000372
2469.56	0.00034479
2479.21	0.0003467
2488.85	0.0003718
2498.5	0.0003663
2508.15	0.0003617
2517.79	0.00034369
2527.44	0.00033559
2537.09	0.0003301
2546.73	0.00031989
2556.38	0.00034135
2566.03	0.00032896
2575.67	0.0003835
2585.32	0.0003496
2594.96	0.0003603
2604.61	0.00033477
2614.26	0.0004017
2623.9	0.0004481
2633.55	0.0003763
2643.2	0.0004265
2652.84	0.0004143
2662.49	0.0005146
2672.14	0.0005658
2681.78	0.0005396
2691.43	0.0005502
2701.08	0.0005842
2710.72	0.0006596
2720.37	0.0007531
2730.02	0.0009247
2739.66	0.0012308
2749.31	0.0012374
2758.96	0.000983
2768.6	0.0009477
2778.25	0.0009374
2787.9	0.0010794
2797.54	0.001051
2807.19	0.001265
2816.84	0.001515
2826.48	0.001895
2836.13	0.002345
2845.77	0.003215
2855.42	0.004895
2865.07	0.007455
2874.71	0.009235
2884.36	0.009245
2894.01	0.009095
2903.65	0.010205
2913.3	0.013405
2922.95	0.017965
2932.59	0.019545
2942.24	0.016725
2951.89	0.013965
2961.53	0.012845
2971.18	0.012055
2980.83	0.011155
2990.47	0.010385
3000.12	0.010085
3009.77	0.010505
3019.41	0.010105
3029.06	0.008455
3038.71	0.006845
3048.35	0.005285
3058	0.003945
3067.64	0.003095
3077.29	0.002545
3086.94	0.002065
3096.58	0.001565
3106.23	0.0012144
3115.88	0.0011818
3125.52	0.0010465
3135.17	0.0008308
3144.82	0.0008657
3154.46	0.0006004
3164.11	0.0006792
3173.76	0.000636
3183.4	0.000595
3193.05	0.0005855
3202.7	0.0006275
3212.34	0.0003684
3221.99	0.0004918
3231.64	0.0004317
3241.28	0.00031987
3250.93	0.00053
3260.58	0.0004394
3270.22	0.0004964
3279.87	0.00029894
3289.52	0.000435
3299.16	0.0004236
3308.81	0.0004458
3318.45	0.0005609
3328.1	0.00031428
3337.75	0.0004515
3347.39	0.00034246
3357.04	0.0004818
3366.69	0.0004923
3376.33	0.0003541
3385.98	0.0004784
3395.63	0.00030655
3405.27	0.00033851
3414.92	0.0005112
3424.57	0.00025892
3434.21	0.00053
3443.86	0.0004638
3453.51	0.0004417
3463.15	0.0006023
3472.8	0.0004754
3482.45	0.0005299
3492.09	0.0004274
3501.74	0.000403
3511.39	0.0004626
3521.03	0.00034378
3530.68	0.0003683
3540.33	0.0004438
3549.97	0.0004403
3559.62	0.0004085
3569.26	0.0004727
3578.91	0.0004109
3588.56	0.0005518
3598.2	0.0003974
3607.85	0.0005557
3617.5	0.0005552
3627.14	0.000714
3636.79	0.001785
3646.44	0.003355
3656.08	0.003075
3665.73	0.001565
3675.38	0.0005552
3685.02	0.0005631
3694.67	0.0003851
3704.32	0.0004591
3713.96	0.0005719
3723.61	0.0005025
3733.26	0.0006062
3742.9	0.0004147
3752.55	0.0004977
3762.2	0.0004159
3771.84	0.0005028
3781.49	0.0005278
3791.13	0.0005286
3800.78	0.0003987
3810.43	0.000515
3820.07	0.0006089
3829.72	0.0003798
3839.37	0.0005727
3849.01	0.0003915
3858.66	0.0005709
3868.31	0.0005871
3877.95	0.0004819
3887.6	0.0004892
3897.25	0.0005292
3906.89	0.0005689
3916.54	0.000633
3926.19	0.0005808
3935.83	0.0005484
3945.48	0.0005678
3955.13	0.0003946
3964.77	0.0006473
3974.42	0.0006361
3984.07	0.0004764
3993.71	0.0004872
