Infrared Spectrum: Silane, isopropyl-trichloro-,
Formula: C3 H7 Cl3 Si
CAS: 4170-46-1
State: SOLUTION (10% CCl4 FOR 3800-1300, 10% CS2 FOR 1300-550, AND 10% CCl4 FOR 550-250)
Boiling point: 118.5 C
Class: COBLENTZ III
Instrument: PERKIN-ELMER 521 (GRATING)
Instrument parameters: FILTERS AT 3150, 2500, 2000, 1150, 700, 410. GRATING CHANGES: 2000, 630
Path length: 0.012 CM, 0.011 CM, AND 0.010 CM
Resolution: 2
Origin: DOW CORNING CORP.
1/CM	TRANSMITTANCE
227	0.7475
236	0.7637
245	0.7797
254	0.7885
263	0.7943
272	0.7977
281	0.8011
290	0.8012
299	0.7963
308	0.7897
317	0.832
326	0.8591
335	0.8597
344	0.8567
353	0.8481
362	0.8486
371	0.8489
380	0.8292
389	0.8235
398	0.8089
407	0.7663
416	0.8074
425	0.8337
434	0.836
443	0.7799
452	0.5758
461	0.3997
470	0.7755
479	0.8246
488	0.8274
497	0.8231
506	0.813
515	0.8138
524	0.8248
533	0.8188
542	0.7822
551	0.7257
560	0.6429
569	0.343
578	0.0001
587	0
596	0.1126
605	0.5357
614	0.624
623	0.6154
632	0.644
641	0.7001
650	0.6964
659	0.5542
668	0.3386
677	0.0861
686	0.303
695	0.7065
704	0.7379
713	0.7562
722	0.7939
731	0.8337
740	0.8487
749	0.8423
758	0.8294
767	0.8157
776	0.7948
785	0.7556
794	0.768
803	0.8206
812	0.8387
821	0.8607
830	0.8626
839	0.855
848	0.8318
857	0.7843
866	0.73
875	0.4185
884	0.6592
893	0.8046
902	0.8207
911	0.8081
920	0.6937
929	0.7782
938	0.8489
947	0.8543
956	0.8511
965	0.8432
974	0.8314
983	0.792
992	0.6882
1001	0.3282
1010	0.756
1019	0.8437
1028	0.8407
1037	0.8345
1046	0.8446
1055	0.8225
1064	0.6978
1073	0.8071
1082	0.8485
1091	0.8579
1100	0.8617
1109	0.8653
1118	0.869
1127	0.8659
1136	0.8668
1145	0.8668
1154	0.8592
1163	0.8435
1172	0.8507
1181	0.8652
1190	0.8683
1199	0.8676
1208	0.8631
1217	0.8522
1226	0.8229
1235	0.7467
1244	0.7953
1253	0.8516
1262	0.8392
1271	0.7915
1280	0.846
1289	0.8537
1298	0.8763
1307	0.9018
1316	0.8996
1325	0.8932
1334	0.8872
1343	0.8819
1352	0.8773
1361	0.8381
1370	0.8328
1379	0.8376
1388	0.6541
1397	0.8656
1406	0.8645
1415	0.8671
1424	0.8525
1433	0.8391
1442	0.7695
1451	0.5779
1460	0.3904
1469	0.4324
1478	0.7608
1487	0.8472
1496	0.866
1505	0.8707
1514	0.8756
1523	0.8763
1532	0.8745
1541	0.8669
1550	0.8609
1559	0.8614
1568	0.8752
1577	0.8761
1586	0.8785
1595	0.8799
1604	0.882
1613	0.8825
1622	0.8833
1631	0.8848
1640	0.877
1649	0.8764
1658	0.876
1667	0.8763
1676	0.8769
1685	0.877
1694	0.8786
1703	0.8811
1712	0.8838
1721	0.8849
1730	0.8856
1739	0.8849
1748	0.882
1757	0.881
1766	0.8823
1775	0.8827
1784	0.8826
1793	0.8823
1802	0.8819
1811	0.882
1820	0.8823
1829	0.8824
1838	0.8825
1847	0.8822
1856	0.8818
1865	0.8821
1874	0.8824
1883	0.8819
1892	0.8814
1901	0.8811
1910	0.8808
1919	0.8806
1928	0.882
1937	0.8817
1946	0.8815
1955	0.8832
1964	0.883
1973	0.8846
1982	0.8857
1991	0.888
2000	0.8989
2009	0.8919
2018	0.8913
2027	0.8912
2036	0.8912
2045	0.8913
2054	0.8913
2063	0.8913
2072	0.8929
2081	0.8899
2090	0.8879
2099	0.8852
2108	0.8813
2117	0.876
2126	0.8678
2135	0.8547
2144	0.8514
2153	0.855
2162	0.8656
2171	0.8744
2180	0.8804
2189	0.8821
2198	0.8858
2207	0.8814
2216	0.8806
2225	0.879
2234	0.8767
2243	0.8743
2252	0.8794
2261	0.8835
2270	0.8848
2279	0.8843
2288	0.8836
2297	0.8831
2306	0.8834
2315	0.8842
2324	0.8855
2333	0.8854
2342	0.8832
2351	0.8826
2360	0.8826
2369	0.8813
2378	0.8796
2387	0.8796
2396	0.8801
2405	0.8788
2414	0.8779
2423	0.8773
2432	0.8768
2441	0.8788
2450	0.8758
2459	0.8711
2468	0.8729
2477	0.8741
2486	0.874
2495	0.8732
2504	0.8724
2513	0.872
2522	0.8719
2531	0.8722
2540	0.8725
2549	0.8729
2558	0.8733
2567	0.8733
2576	0.8731
2585	0.8716
2594	0.8699
2603	0.8684
2612	0.8677
2621	0.8677
2630	0.8679
2639	0.8689
2648	0.872
2657	0.8731
2666	0.8712
2675	0.8696
2684	0.8686
2693	0.8676
2702	0.8663
2711	0.8648
2720	0.8623
2729	0.8576
2738	0.8563
2747	0.8593
2756	0.8633
2765	0.8615
2774	0.8633
2783	0.8669
2792	0.8678
2801	0.8622
2810	0.8529
2819	0.8453
2828	0.8388
2837	0.8352
2846	0.8126
2855	0.7754
2864	0.7349
2873	0.5708
2882	0.3433
2891	0.6121
2900	0.6282
2909	0.6063
2918	0.6565
2927	0.6139
2936	0.5124
2945	0.431
2954	0.5271
2963	0.3252
2972	0.2372
2981	0.2323
2990	0.6967
2999	0.7932
3008	0.8371
3017	0.8533
3026	0.8643
3035	0.8696
3044	0.8751
3053	0.8751
3062	0.8766
3071	0.8775
3080	0.8783
3089	0.8791
3098	0.8799
3107	0.8809
3116	0.8823
3125	0.8836
3134	0.8845
3143	0.8849
3152	0.8854
3161	0.8858
3170	0.8858
3179	0.8856
3188	0.8859
3197	0.8864
3206	0.8887
3215	0.8935
3224	0.8949
3233	0.896
3242	0.8968
3251	0.8974
3260	0.8977
3269	0.8973
3278	0.8969
3287	0.8964
3296	0.8963
3305	0.8961
3314	0.8956
3323	0.8949
3332	0.8942
3341	0.8935
3350	0.8928
3359	0.8921
3368	0.892
3377	0.892
3386	0.8919
3395	0.8918
3404	0.8916
3413	0.8913
3422	0.8913
3431	0.8914
3440	0.8916
3449	0.8918
3458	0.8921
3467	0.8923
3476	0.8925
3485	0.8925
3494	0.8925
3503	0.8924
3512	0.8924
3521	0.8925
3530	0.8926
3539	0.8928
3548	0.8933
3557	0.8943
3566	0.8964
3575	0.8958
3584	0.8992
3593	0.9097
3602	0.9037
3611	0.8955
3620	0.8945
3629	0.8937
3638	0.8935
3647	0.8934
3656	0.8933
3665	0.8934
3674	0.8934
3683	0.8936
3692	0.8939
3701	0.8941
3710	0.8944
3719	0.8945
3728	0.8947
3737	0.8948
3746	0.8947
3755	0.8943
3764	0.8922
3773	0.8854
3782	0.8914
3791	0.8949
3800	0.8951
3809	0.8951
3818	0.8952
