Infrared Spectrum: (1,1-Diethylpropyl)benzene
Formula: C 13 H 20
CAS: 4170-84-7
State: gas
Instrument: HP-GC/MS/IRD
Origin: NIST Mass Spectrometry Data Center
1/CM	ABSORBANCE
550	0.0012705
562	0.0013068
574	0.0011748
586	0.0003762
598	5.94e-05
610	9.24e-05
622	0
634	7.26e-05
646	0.0002475
658	0.0005973
670	0.0011946
682	0.0029865
694	0.0092202
706	0.0077088
718	0.0020559
730	0.0013959
742	0.0038082
754	0.0078474
766	0.003861
778	0.0011319
790	0.0007689
802	0.0008118
814	0.0004224
826	0.0002508
838	0.0001551
850	0.0003003
862	0.0004851
874	0.0011352
886	0.0013365
898	0.0010527
910	0.0009042
922	0.0010098
934	0.0006171
946	0.0002046
958	0.0001617
970	0.0001881
982	0.0002475
994	0.0005412
1006	0.0010989
1018	0.001518
1030	0.0021186
1042	0.0015213
1054	0.000495
1066	0.0004917
1078	0.000528
1090	0.0002805
1102	0.0001914
1114	0.0001221
1126	5.61e-05
1138	0.0001617
1150	0.0002178
1162	0.0002178
1174	0.0002673
1186	0.0003432
1198	0.0005874
1210	0.0003729
1222	0.0001188
1234	0.0001023
1246	0.0001089
1258	0.0001122
1270	0.0003432
1282	0.0005775
1294	0.0010494
1306	0.0013893
1318	0.0009768
1330	0.0012936
1342	0.0016368
1354	0.0011319
1366	0.001452
1378	0.003366
1390	0.0030591
1402	0.001023
1414	0.0007029
1426	0.0009438
1438	0.0022473
1450	0.0041844
1462	0.0064449
1474	0.0055572
1486	0.0040821
1498	0.0045474
1510	0.0020823
1522	0.0010395
1534	0.0007953
1546	0.0007326
1558	0.0007458
1570	0.0007524
1582	0.0013629
1594	0.0021087
1606	0.0017787
1618	0.0007425
1630	0.0004059
1642	0.0004092
1654	0.0005313
1666	0.0003828
1678	0.0003696
1690	0.0002871
1702	0.0003729
1714	0.0003696
1726	0.0002904
1738	0.0003168
1750	0.0003663
1762	0.0003135
1774	0.0003663
1786	0.0006435
1798	0.0007029
1810	0.0003531
1822	0.0002376
1834	0.0002013
1846	0.0003399
1858	0.0003564
1870	0.0004059
1882	0.0002805
1894	0.0002574
1906	0.0001881
1918	0.0002211
1930	0.0004257
1942	0.000627
1954	0.0004059
1966	0.0001584
1978	7.26e-05
1990	8.58e-05
2002	2.31e-05
2014	4.62e-05
2026	5.61e-05
2038	4.29e-05
2050	3.63e-05
2062	6.27e-05
2074	5.28e-05
2086	2.97e-05
2098	1.98e-05
2110	2.31e-05
2122	1.32e-05
2134	4.62e-05
2146	1.65e-05
2158	1.65e-05
2170	2.97e-05
2182	2.64e-05
2194	3.63e-05
2206	3.3e-06
2218	1.98e-05
2230	5.28e-05
2242	4.29e-05
2254	3.63e-05
2266	6.93e-05
2278	5.94e-05
2290	4.95e-05
2302	0.0001122
2314	0.0001518
2326	0.0001089
2338	6.93e-05
2350	0.0001551
2362	8.25e-05
2374	0.000165
2386	0.0001881
2398	0.0001782
2410	0.0001452
2422	0.0001287
2434	0.0001056
2446	8.91e-05
2458	0.0001122
2470	8.58e-05
2482	0.0001023
2494	9.9e-05
2506	0.0001287
2518	0.0001386
2530	0.0001683
2542	0.0001254
2554	0.0001353
2566	0.0001452
2578	0.000198
2590	0.0002673
2602	0.0002772
2614	0.000231
2626	0.0002673
2638	0.0003234
2650	0.000363
2662	0.0003201
2674	0.0003234
2686	0.0003168
2698	0.0003168
2710	0.0003333
2722	0.0004356
2734	0.0005511
2746	0.0007359
2758	0.0006897
2770	0.0006798
2782	0.0007656
2794	0.0008745
2806	0.0010263
2818	0.0012573
2830	0.0016203
2842	0.0020922
2854	0.0030624
2866	0.0056562
2878	0.0107085
2890	0.0151437
2902	0.012111
2914	0.0116226
2926	0.0191664
2938	0.028347
2950	0.0263274
2962	0.0249645
2974	0.033
2986	0.0194535
2998	0.0075339
3010	0.0047454
3022	0.0051084
3034	0.0060291
3046	0.0055407
3058	0.0073227
3070	0.0080388
3082	0.0055704
3094	0.0053196
3106	0.0032604
3118	0.0019239
3130	0.0012474
3142	0.0009174
3154	0.0007656
3166	0.0005775
3178	0.0004917
3190	0.0003663
3202	0.0002937
3214	0.0002475
3226	0.0002211
3238	0.0001881
3250	0.0001881
3262	0.0001815
3274	0.0001419
3286	0.0001386
3298	9.24e-05
3310	0.0001287
3322	8.58e-05
3334	9.57e-05
3346	6.93e-05
3358	9.24e-05
3370	0.0001023
3382	5.61e-05
3394	8.25e-05
3406	4.62e-05
3418	8.58e-05
3430	8.58e-05
3442	2.31e-05
3454	5.94e-05
3466	6.27e-05
3478	7.92e-05
3490	7.59e-05
3502	8.25e-05
3514	5.28e-05
3526	0.0001551
3538	3.63e-05
3550	5.61e-05
3562	4.95e-05
3574	1.32e-05
3586	0.0001419
3598	4.95e-05
3610	0.0001155
3622	6.93e-05
3634	6.27e-05
3646	0.0001881
3658	8.91e-05
3670	0.000165
3682	7.59e-05
3694	9.57e-05
3706	6.93e-05
3718	8.91e-05
3730	0.0001221
3742	0.0002046
3754	0.0001353
3766	3.96e-05
3778	1.98e-05
3790	3.3e-06
3802	8.25e-05
3814	6.93e-05
3826	2.97e-05
3838	7.26e-05
