Infrared Spectrum: 2-Phenoxybutyryl chloride
Formula: C 10 H 11 Cl O 2
CAS: 41717-60-6
State: gas
Origin: EPA-IR VAPOR PHASE LIBRARY
1/CM	ABSORBANCE
549.9	0.00806
559.547	0.00844
569.193	0.00832
578.84	0.00811
588.486	0.00834
598.133	0.00845
607.779	0.009
617.426	0.00856
627.072	0.00738
636.719	0.007
646.365	0.00694
656.012	0.00686
665.658	0.00754
675.305	0.01049
684.951	0.01708
694.598	0.01657
704.245	0.01196
713.891	0.01116
723.538	0.01176
733.184	0.01684
742.831	0.03136
752.477	0.04277
762.124	0.03463
771.77	0.02769
781.417	0.02512
791.063	0.024
800.71	0.02492
810.356	0.02213
820.003	0.01785
829.649	0.01757
839.296	0.01912
848.943	0.01516
858.589	0.01251
868.236	0.01378
877.882	0.01564
887.529	0.01637
897.175	0.01664
906.822	0.01533
916.468	0.01337
926.115	0.01443
935.761	0.01791
945.408	0.0179
955.054	0.0192
964.701	0.02029
974.347	0.01836
983.994	0.01945
993.64	0.01987
1003.29	0.01736
1012.93	0.01607
1022.58	0.01895
1032.23	0.0191
1041.87	0.01728
1051.52	0.02057
1061.17	0.02234
1070.81	0.0202
1080.46	0.01702
1090.11	0.01322
1099.75	0.01171
1109.4	0.01176
1119.05	0.01153
1128.69	0.01176
1138.34	0.01209
1147.99	0.01097
1157.63	0.01165
1167.28	0.01634
1176.92	0.01535
1186.57	0.01075
1196.22	0.01528
1205.86	0.03451
1215.51	0.07129
1225.16	0.11551
1234.8	0.11306
1244.45	0.04716
1254.1	0.02504
1263.74	0.0189
1273.39	0.01513
1283.04	0.01351
1292.68	0.0113
1302.33	0.00912
1311.98	0.00716
1321.62	0.00683
1331.27	0.00761
1340.92	0.00959
1350.56	0.00898
1360.21	0.00624
1369.86	0.00496
1379.5	0.00526
1389.15	0.00641
1398.79	0.00562
1408.44	0.00379
1418.09	0.0033764
1427.73	0.00384
1437.38	0.00551
1447.03	0.00779
1456.67	0.01041
1466.32	0.01403
1475.97	0.02047
1485.61	0.04859
1495.26	0.06929
1504.91	0.02703
1514.55	0.00825
1524.2	0.00527
1533.85	0.00439
1543.49	0.00434
1553.14	0.00513
1562.79	0.00715
1572.43	0.01241
1582.08	0.02533
1591.73	0.04264
1601.37	0.03679
1611.02	0.01521
1620.67	0.00688
1630.31	0.00457
1639.96	0.00366
1649.6	0.00341
1659.25	0.00357
1668.9	0.00375
1678.54	0.00359
1688.19	0.00361
1697.84	0.00363
1707.48	0.00381
1717.13	0.00402
1726.78	0.00464
1736.42	0.00579
1746.07	0.00784
1755.72	0.01071
1765.36	0.01549
1775.01	0.02676
1784.66	0.04873
1794.3	0.06016
1803.95	0.04575
1813.6	0.04454
1823.24	0.04895
1832.89	0.03617
1842.54	0.02313
1852.18	0.01643
1861.83	0.01241
1871.47	0.0095
1881.12	0.00707
1890.77	0.0055
1900.41	0.00474
1910.06	0.00464
1919.71	0.00478
1929.35	0.00455
1939	0.00414
1948.65	0.00373
1958.29	0.0030402
1967.94	0.002864
1977.59	0.0027921
1987.23	0.0027433
1996.88	0.00279
2006.53	0.002715
2016.17	0.0026998
2025.82	0.0026294
2035.47	0.0027942
2045.11	0.0029128
2054.76	0.0030262
2064.41	0.0030465
2074.05	0.0029073
2083.7	0.0027284
2093.35	0.0026281
2102.99	0.0026272
2112.64	0.0025982
2122.28	0.002514
2131.93	0.00242628
2141.58	0.002205
2151.22	0.002264
2160.87	0.0023576
2170.52	0.00245886
2180.16	0.00244704
2189.81	0.0025122
2199.46	0.00243353
2209.1	0.0023654
2218.75	0.002284
2228.4	0.002245
2238.04	0.00219
2247.69	0.002216
2257.34	0.00223
2266.98	0.002263
2276.63	0.002164
2286.28	0.002091
2295.92	0.002113
2305.57	0.00227
2315.22	0.0023649
2324.86	0.0023941
2334.51	0.0023595
2344.16	0.002295
2353.8	0.00229
2363.45	0.0023037
2373.09	0.0023266
2382.74	0.002251
2392.39	0.0023565
2402.03	0.0023819
2411.68	0.0023807
2421.33	0.0025952
2430.97	0.0026987
2440.62	0.0027838
2450.27	0.0027224
2459.91	0.0025253
2469.56	0.002305
2479.21	0.002152
2488.85	0.002189
2498.5	0.002189
2508.15	0.002214
2517.79	0.002217
2527.44	0.002123
2537.09	0.002166
2546.73	0.002069
2556.38	0.00202
2566.03	0.002021
2575.67	0.002046
2585.32	0.001947
2594.96	0.001998
2604.61	0.001928
2614.26	0.00197
2623.9	0.001963
2633.55	0.001871
2643.2	0.001803
2652.84	0.001824
2662.49	0.001819
2672.14	0.001897
2681.78	0.00186
2691.43	0.002033
2701.08	0.001981
2710.72	0.001884
2720.37	0.001944
2730.02	0.002077
2739.66	0.001924
2749.31	0.002157
2758.96	0.002095
2768.6	0.002118
2778.25	0.002156
2787.9	0.002159
2797.54	0.002255
2807.19	0.002127
2816.84	0.002146
2826.48	0.002117
2836.13	0.002271
2845.77	0.0027092
2855.42	0.0030983
2865.07	0.00425
2874.71	0.00507
2884.36	0.00721
2894.01	0.00867
2903.65	0.00762
2913.3	0.00775
2922.95	0.00919
2932.59	0.0107
2942.24	0.01449
2951.89	0.01521
2961.53	0.01343
2971.18	0.01562
2980.83	0.02234
2990.47	0.01925
3000.12	0.01047
3009.77	0.00575
3019.41	0.00563
3029.06	0.00701
3038.71	0.0103
3048.35	0.01151
3058	0.00981
3067.64	0.01095
3077.29	0.01366
3086.94	0.01178
3096.58	0.00836
3106.23	0.00639
3115.88	0.0033728
3125.52	0.001934
3135.17	0.00144
3144.82	0.00121
3154.46	0.00096
3164.11	0.00092
3173.76	0.00071
3183.4	0.00069
3193.05	0.00051
3202.7	0.00049
3212.34	0.00055
3221.99	0.00038
3231.64	0.00046
3241.28	0.00023
3250.93	0.00023
3260.58	0.00023
3270.22	0.00028
3279.87	0.00034
3289.52	0.00032
3299.16	0.00032
3308.81	0.00023
3318.45	0.00035
3328.1	0.00018
3337.75	0.00031
3347.39	0.00027
3357.04	8e-05
3366.69	0.00026
3376.33	0.00029
3385.98	0.00033
3395.63	0.00016
3405.27	0.00023
3414.92	0.00012
3424.57	0.00029
3434.21	0.00024
3443.86	0.00011
3453.51	0.00035
3463.15	0.00017
3472.8	0.00018
3482.45	0.00029
3492.09	0.00043
3501.74	0.0004
3511.39	0.00057
3521.03	0.00065
3530.68	0.00085
3540.33	0.00096
3549.97	0.00117
3559.62	0.00137
3569.26	0.00128
3578.91	0.00112
3588.56	0.00097
3598.2	0.00126
3607.85	0.00131
3617.5	0.0013
3627.14	0.0013
3636.79	0.00117
3646.44	0.00123
3656.08	0.00111
3665.73	0.00119
3675.38	0.00119
3685.02	0.0009
3694.67	0.00109
3704.32	0.00111
3713.96	0.00112
3723.61	0.0009
3733.26	0.00092
3742.9	0.00101
3752.55	0.00105
3762.2	0.00109
3771.84	0.00113
3781.49	0.00106
3791.13	0.00111
3800.78	0.00098
3810.43	0.00124
3820.07	0.00125
3829.72	0.00098
3839.37	0.00109
3849.01	0.00112
3858.66	0.00116
3868.31	0.00105
3877.95	0.0012
3887.6	0.00124
3897.25	0.00123
3906.89	0.00137
3916.54	0.00122
3926.19	0.00128
3935.83	0.001406
3945.48	0.00113
3955.13	0.00136
3964.77	0.00136
3974.42	0.0013
3984.07	0.00126
3993.71	0.00138
