Infrared Spectrum: 1,4-Dimethyl-1,2,3,4-tetrahydronaphthalene
Formula: C 12 H 16
CAS: 4175-54-6
State: gas
Instrument: HP-GC/MS/IRD
Origin: NIST Mass Spectrometry Data Center
1/CM	ABSORBANCE
550	0.0055977
562	0.0008648
574	0.0004935
586	0.0003337
598	0.0001316
610	3.29e-05
622	6.58e-05
634	0.0003102
646	0.0004371
658	0.0003243
670	0.0002303
682	0.0003384
694	0.0009917
706	0.001222
718	0.0010528
730	0.0029845
742	0.0122717
754	0.0169576
766	0.0054708
778	0.0017061
790	0.0010857
802	0.0008037
814	0.0006862
826	0.0006768
838	0.0009729
850	0.0009588
862	0.0007849
874	0.0006486
886	0.0007285
898	0.0008131
910	0.0009823
922	0.0010387
934	0.0011045
946	0.0010622
958	0.0010105
970	0.0011327
982	0.0014805
994	0.002068
1006	0.002256
1018	0.0034498
1030	0.0044321
1042	0.0030033
1054	0.0017202
1066	0.0011515
1078	0.0010951
1090	0.0010434
1102	0.0011703
1114	0.0013066
1126	0.0013254
1138	0.0012079
1150	0.0011844
1162	0.0013442
1174	0.001504
1186	0.0014288
1198	0.0016262
1210	0.0019411
1222	0.0015463
1234	0.001269
1246	0.0013912
1258	0.0015745
1270	0.0017766
1282	0.0020633
1294	0.0022748
1306	0.0026555
1318	0.0034827
1330	0.0038399
1342	0.0030597
1354	0.002773
1366	0.0033135
1378	0.0054567
1390	0.0036331
1402	0.0020022
1414	0.0021009
1426	0.0027495
1438	0.0047047
1450	0.0072897
1462	0.0080417
1474	0.0077221
1486	0.0089958
1498	0.0050807
1510	0.0017437
1522	0.0008225
1534	0.0011092
1546	0.0010904
1558	2.35e-05
1570	0.0015181
1582	0.0020915
1594	0.0024158
1606	0.0026179
1618	0.0015181
1630	0.0014241
1642	0.0012126
1654	0.0002256
1666	0.0011562
1678	0.0013395
1690	0.0015087
1702	0.0004794
1714	0.0009635
1726	0.0015134
1738	0.0007896
1750	0.0008836
1762	0.0010622
1774	0.0008695
1786	0.0015416
1798	0.0015416
1810	0.0014288
1822	0.0014805
1834	0.0014288
1846	0.0010152
1858	0.001269
1870	0.0011562
1882	0.001363
1894	0.0014523
1906	0.001692
1918	0.0013019
1930	0.0013818
1942	0.0014006
1954	0.0010998
1966	0.0009259
1978	0.0009212
1990	0.0008507
2002	0.0008554
2014	0.0008554
2026	0.0008131
2038	0.0007943
2050	0.0007567
2062	0.0007332
2074	0.0007097
2086	0.000705
2098	0.0006909
2110	0.0006627
2122	0.0006392
2134	0.0006016
2146	0.0006063
2158	0.0005969
2170	0.0005687
2182	0.0005734
2194	0.0005499
2206	0.000517
2218	0.0004794
2230	0.00047
2242	0.0004606
2254	0.0004606
2266	0.0004324
2278	0.0004324
2290	0.0004559
2302	0.0004653
2314	0.0004465
2326	0.0004512
2338	0.000329
2350	0.000329
2362	0.0002914
2374	0.0003149
2386	0.0002914
2398	0.000235
2410	0.0002162
2422	0.0001739
2434	0.0001457
2446	0.0001269
2458	0.0001551
2470	0.0001269
2482	0.0001222
2494	0.0001034
2506	6.58e-05
2518	3.76e-05
2530	1.41e-05
2542	5.17e-05
2554	0.0001504
2566	0.0002162
2578	0.0002679
2590	0.0003102
2602	0.0003619
2614	0.0003243
2626	0.0003102
2638	0.000329
2650	0.0003854
2662	0.0004794
2674	0.0005452
2686	0.0005546
2698	0.0004935
2710	0.0004606
2722	0.0004982
2734	0.0006439
2746	0.0007238
2758	0.0006721
2770	0.0007661
2782	0.0009353
2794	0.0011374
2806	0.0013442
2818	0.001739
2830	0.002256
2842	0.0034169
2854	0.008883
2866	0.0181279
2878	0.0189081
2890	0.017813
2902	0.0167555
2914	0.0197447
2926	0.0360584
2938	0.0464971
2950	0.0284679
2962	0.0291823
2974	0.0288298
2986	0.0123986
2998	0.0050713
3010	0.0062087
3022	0.0083143
3034	0.0067492
3046	0.0058844
3058	0.0087796
3070	0.010998
3082	0.0067915
3094	0.0033887
3106	0.0026461
3118	0.001833
3130	0.0014617
3142	0.0014617
3154	0.0014523
3166	0.0012455
3178	0.0011656
3190	0.0010669
3202	0.0009588
3214	0.0009024
3226	0.0008742
3238	0.0008366
3250	0.0008601
3262	0.0008413
3274	0.000846
3286	0.0008413
3298	0.000799
3310	0.0008131
3322	0.0008178
3334	0.0008131
3346	0.0007943
3358	0.0007614
3370	0.0008037
3382	0.0008084
3394	0.0008084
3406	0.0008366
3418	0.0007943
3430	0.000799
3442	0.0008272
3454	0.0008695
3466	0.0008507
3478	0.0008601
3490	0.0008836
3502	0.0008977
3514	0.0009494
3526	0.0008601
3538	0.0009118
3550	0.0008413
3562	0.0008507
3574	0.0008648
3586	0.0006909
3598	0.0007567
3610	0.0005311
3622	0.000658
3634	0.0007238
3646	0.0003478
3658	0.0007238
3670	0.0001974
3682	0.0007802
3694	0.0007661
3706	0.0007802
3718	0.0009024
3730	0.0005217
3742	2.82e-05
3754	0.0001504
3766	0.0007238
3778	0.0008977
3790	0.0010857
3802	0.0003149
3814	0.0006251
3826	0.0008037
3838	0.0003478
