Infrared Spectrum: L-Leucine-4-nitroanilide
Formula: C 12 H 17 N 3 O 3
CAS: 4178-93-2
State: gas
Origin: EPA-IR VAPOR PHASE LIBRARY
1/CM	ABSORBANCE
549.8	0.00527
559.445	0.00528
569.09	0.00462
578.734	0.00521
588.379	0.00489
598.024	0.00631
607.669	0.00564
617.313	0.00609
626.958	0.00671
636.603	0.00756
646.248	0.00735
655.893	0.00816
665.537	0.00996
675.182	0.01279
684.827	0.01726
694.472	0.01666
704.116	0.01435
713.761	0.01275
723.406	0.01232
733.051	0.01357
742.695	0.01855
752.34	0.02042
761.985	0.01331
771.63	0.01255
781.275	0.01472
790.919	0.01758
800.564	0.02466
810.209	0.03058
819.854	0.03216
829.498	0.02704
839.143	0.02646
848.788	0.03663
858.433	0.0413
868.078	0.0311
877.722	0.01953
887.367	0.01409
897.012	0.0107
906.657	0.00843
916.301	0.00723
925.946	0.00616
935.591	0.00592
945.236	0.00579
954.88	0.00604
964.525	0.00527
974.17	0.00477
983.815	0.00457
993.46	0.00462
1003.1	0.00502
1012.75	0.00568
1022.39	0.00482
1032.04	0.00525
1041.68	0.00553
1051.33	0.00701
1060.97	0.0093
1070.62	0.00957
1080.26	0.01193
1089.91	0.01365
1099.55	0.01829
1109.2	0.03409
1118.84	0.0309
1128.49	0.02691
1138.13	0.02479
1147.78	0.02204
1157.42	0.02301
1167.07	0.03014
1176.71	0.03038
1186.36	0.01963
1196	0.01381
1205.64	0.01266
1215.29	0.01286
1224.93	0.01498
1234.58	0.02424
1244.22	0.0376
1253.87	0.02426
1263.51	0.01474
1273.16	0.01446
1282.8	0.02034
1292.45	0.04735
1302.09	0.07234
1311.74	0.0369
1321.38	0.04114
1331.03	0.05702
1340.67	0.14747
1350.32	0.20435
1359.96	0.07952
1369.61	0.04843
1379.25	0.0328
1388.9	0.03253
1398.54	0.0491
1408.18	0.05992
1417.83	0.022
1427.47	0.01594
1437.12	0.01781
1446.76	0.02103
1456.41	0.02715
1466.05	0.03935
1475.7	0.05207
1485.34	0.07371
1494.99	0.12322
1504.63	0.22833
1514.28	0.26984
1523.92	0.16993
1533.57	0.13005
1543.21	0.14393
1552.86	0.07854
1562.5	0.0455
1572.15	0.03653
1581.79	0.04233
1591.44	0.07767
1601.08	0.10098
1610.73	0.06084
1620.37	0.0324
1630.01	0.02157
1639.66	0.01636
1649.3	0.01225
1658.95	0.01039
1668.59	0.01
1678.24	0.01072
1687.88	0.01304
1697.53	0.01836
1707.17	0.03481
1716.82	0.07041
1726.46	0.07846
1736.11	0.04059
1745.75	0.01828
1755.4	0.01137
1765.04	0.00823
1774.69	0.00641
1784.33	0.00492
1793.98	0.00387
1803.62	0.00322
1813.27	0.00286
1822.91	0.00256
1832.55	0.0021
1842.2	0.00205
1851.84	0.00195
1861.49	0.00184
1871.13	0.00175
1880.78	0.00201
1890.42	0.00229
1900.07	0.00229
1909.71	0.00195
1919.36	0.00191
1929	0.00171
1938.65	0.00151
1948.29	0.00131
1957.94	0.00122
1967.58	0.0010479
1977.23	0.0011277
1986.87	0.0009437
1996.52	0.0009277
2006.16	0.0009884
2015.81	0.0008624
2025.45	0.0009694
2035.1	0.0008886
2044.74	0.0009086
2054.38	0.0010166
2064.03	0.0010153
2073.67	0.0009381
2083.32	0.0010572
2092.96	0.0010218
2102.61	0.0011345
2112.25	0.001112
2121.9	0.0011401
2131.54	0.0009705
2141.19	0.0009805
2150.83	0.0008351
2160.48	0.0010955
2170.12	0.0009715
2179.77	0.0007722
2189.41	0.0008873
2199.06	0.0009946
2208.7	0.001101
2218.35	0.0010878
2227.99	0.0009272
2237.64	0.000778
2247.28	0.0007953
2256.92	0.0007364
2266.57	0.0006768
2276.21	0.0007933
2285.86	0.0009941
2295.5	0.000898
2305.15	0.0009159
2314.79	0.000906
2324.44	0.0009879
2334.08	0.0009436
2343.73	0.0007703
2353.37	0.0011461
2363.02	0.0011129
2372.66	0.0011412
2382.31	0.0010602
2391.95	0.0010487
2401.6	0.00122
2411.24	0.00105
2420.89	0.0011178
2430.53	0.00121
2440.18	0.0015
2449.82	0.00205
2459.47	0.00214
2469.11	0.00176
2478.75	0.00149
2488.4	0.0012
2498.04	0.00124
2507.69	0.0009962
2517.33	0.00134
2526.98	0.00142
2536.62	0.0018
2546.27	0.00181
2555.91	0.00174
2565.56	0.00149
2575.2	0.00136
2584.85	0.00146
2594.49	0.0016
2604.14	0.0017
2613.78	0.00176
2623.43	0.0017
2633.07	0.00158
2642.72	0.00153
2652.36	0.0015
2662.01	0.0013
2671.65	0.00144
2681.29	0.00148
2690.94	0.00155
2700.58	0.00179
2710.23	0.002
2719.87	0.00188
2729.52	0.00196
2739.16	0.00199
2748.81	0.00211
2758.45	0.00186
2768.1	0.00175
2777.74	0.00192
2787.39	0.00213
2797.03	0.00228
2806.68	0.00246
2816.32	0.00303
2825.97	0.00379
2835.61	0.00482
2845.26	0.00721
2854.9	0.00981
2864.55	0.01157
2874.19	0.01811
2883.84	0.02459
2893.48	0.02236
2903.12	0.02436
2912.77	0.02827
2922.41	0.02995
2932.06	0.03053
2941.7	0.03159
2951.35	0.0327
2960.99	0.04966
2970.64	0.06242
2980.28	0.02251
2989.93	0.01039
2999.57	0.00617
3009.22	0.00452
3018.86	0.00318
3028.51	0.00331
3038.15	0.00419
3047.8	0.00428
3057.44	0.00333
3067.09	0.00351
3076.73	0.00485
3086.38	0.00331
3096.02	0.00267
3105.67	0.00229
3115.31	0.00269
3124.95	0.00304
3134.6	0.00252
3144.24	0.00231
3153.89	0.0018
3163.53	0.00188
3173.18	0.00218
3182.82	0.00212
3192.47	0.00246
3202.11	0.00218
3211.76	0.00216
3221.4	0.00206
3231.05	0.00179
3240.69	0.00198
3250.34	0.00221
3259.98	0.00226
3269.63	0.0028
3279.27	0.00306
3288.92	0.00326
3298.56	0.00368
3308.21	0.00494
3317.85	0.00743
3327.49	0.01177
3337.14	0.02017
3346.78	0.03035
3356.43	0.03193
3366.07	0.02535
3375.72	0.01623
3385.36	0.01032
3395.01	0.0071
3404.65	0.00581
3414.3	0.00536
3423.94	0.00519
3433.59	0.00412
3443.23	0.00358
3452.88	0.00356
3462.52	0.00273
3472.17	0.00152
3481.81	0.00116
3491.46	0.0008538
3501.1	0.0009405
3510.75	0.0005163
3520.39	0.0006415
3530.04	0.0006434
3539.68	0.0005961
3549.32	0.0004467
3558.97	0.000284
3568.61	0.0004711
3578.26	0.0006743
3587.9	0.0005081
3597.55	0.0006057
3607.19	0.000337
3616.84	0.0003312
3626.48	0.0005991
3636.13	0.0003724
3645.77	0.0003948
3655.42	0.0003585
3665.06	0.00019347
3674.71	0.0002614
3684.35	0.0005116
3694	0.00020053
3703.64	0.0001456
3713.29	0.0002742
3722.93	0.0008509
3732.58	0.0002725
3742.22	0.0007335
3751.86	0.0005423
3761.51	0.0004475
3771.15	0.0001335
3780.8	0.0003601
3790.44	0.0004274
3800.09	0.0004038
3809.73	0.000386
3819.38	0.0005093
3829.02	0.0005116
3838.67	0.000309
3848.31	0.0002728
3857.96	0.0003616
3867.6	0.0004845
3877.25	0.0003945
3886.89	0.00024544
3896.54	0.0003755
3906.18	0.00025873
3915.83	0.0004195
3925.47	0.0003825
3935.12	0.0005142
3944.76	0.000372
3954.41	0.0003415
3964.05	0.0006299
3973.69	0.0007889
3983.34	0.000759
3992.98	0.0001024
