Infrared Spectrum: 4-Di-n-butylamino-1-butanol
Formula: C 12 H 27 N O
CAS: 41788-34-5
State: gas
Origin: EPA-IR VAPOR PHASE LIBRARY
1/CM	ABSORBANCE
501.5	0.00184
513.074	0.00151
524.648	0.00154
536.222	0.00132
547.796	0.00126
559.37	0.00133
570.944	0.00124
582.518	0.00104
594.092	0.0008155
605.666	0.0006221
617.24	0.0006327
628.814	0.0004932
640.388	0.0006504
651.962	0.0006155
663.536	0.0006688
675.11	0.0006621
686.684	0.0006602
698.258	0.0009775
709.832	0.00133
721.406	0.00174
732.98	0.00218
744.554	0.00245
756.128	0.00209
767.702	0.00178
779.276	0.00187
790.85	0.00203
802.423	0.00203
813.997	0.0021
825.571	0.00202
837.145	0.00185
848.719	0.0018
860.293	0.00183
871.867	0.00213
883.441	0.00263
895.015	0.0031
906.589	0.00375
918.163	0.00389
929.737	0.00434
941.311	0.00526
952.885	0.00557
964.459	0.00528
976.033	0.00583
987.607	0.00664
999.181	0.00745
1010.76	0.00879
1022.33	0.01286
1033.9	0.01804
1045.48	0.02199
1057.05	0.0235
1068.63	0.02241
1080.2	0.02078
1091.77	0.01638
1103.35	0.01111
1114.92	0.00798
1126.49	0.00646
1138.07	0.00611
1149.64	0.00692
1161.22	0.00811
1172.79	0.00937
1184.36	0.00782
1195.94	0.00626
1207.51	0.00565
1219.09	0.0056
1230.66	0.0064
1242.23	0.00739
1253.81	0.00761
1265.38	0.0077
1276.96	0.00712
1288.53	0.00675
1300.1	0.00754
1311.68	0.00765
1323.25	0.00711
1334.83	0.00794
1346.4	0.00907
1357.97	0.0111
1369.55	0.01266
1381.12	0.01256
1392.7	0.00876
1404.27	0.00562
1415.84	0.00452
1427.42	0.0047
1438.99	0.00655
1450.57	0.00947
1462.14	0.01284
1473.71	0.0105
1485.29	0.005
1496.86	0.00272
1508.44	0.00188
1520.01	0.00142
1531.58	0.00113
1543.16	0.0009178
1554.73	0.0007419
1566.31	0.0006487
1577.88	0.0005997
1589.45	0.0005419
1601.03	0.0004843
1612.6	0.000461
1624.18	0.0004533
1635.75	0.0004779
1647.32	0.0005227
1658.9	0.0004505
1670.47	0.0003345
1682.05	0.0002898
1693.62	0.0002718
1705.19	0.0002293
1716.77	0.0002489
1728.34	0.0002062
1739.92	0.0002153
1751.49	0.0001856
1763.06	0.0001759
1774.64	0.000198
1786.21	0.0002024
1797.79	0.0002188
1809.36	0.0002092
1820.93	0.0002209
1832.51	0.0002061
1844.08	0.0002138
1855.66	0.0002201
1867.23	0.0002343
1878.8	0.0002331
1890.38	0.0002455
1901.95	0.0002337
1913.53	0.0002508
1925.1	0.0002113
1936.67	0.0002199
1948.25	0.0002467
1959.82	0.0002442
1971.4	0.0002518
1982.97	0.000252
1994.54	0.0002809
2006.12	0.0003034
2017.69	0.0003316
2029.27	0.0003606
2040.84	0.000406
2052.41	0.0003631
2063.99	0.0003724
2075.56	0.0002981
2087.14	0.0002962
2098.71	0.0002716
2110.28	0.0002572
2121.86	0.0002397
2133.43	0.0002538
2145.01	0.0002684
2156.58	0.0002395
2168.15	0.0002764
2179.73	0.0002845
2191.3	0.0002705
2202.88	0.0002284
2214.45	0.000256
2226.02	0.000236
2237.6	0.000262
2249.17	0.000288
2260.74	0.0002976
2272.32	0.000297
2283.89	0.0003298
2295.47	0.0003443
2307.04	0.0003909
2318.61	0.0004309
2330.19	0.0004507
2341.76	0.0004465
2353.34	0.0004856
2364.91	0.0005101
2376.48	0.0004318
2388.06	0.0004004
2399.63	0.0003876
2411.21	0.000417
2422.78	0.0003998
2434.35	0.0004017
2445.93	0.0004025
2457.5	0.0003679
2469.08	0.0003422
2480.65	0.0003742
2492.22	0.0004226
2503.8	0.0004648
2515.37	0.0005674
2526.95	0.0006277
2538.52	0.0007006
2550.09	0.0007944
2561.67	0.0009232
2573.24	0.00101
2584.82	0.00115
2596.39	0.00134
2607.96	0.00151
2619.54	0.00168
2631.11	0.00186
2642.69	0.00216
2654.26	0.00249
2665.83	0.00304
2677.41	0.00362
2688.98	0.00406
2700.56	0.00466
2712.13	0.00553
2723.7	0.00651
2735.28	0.00757
2746.85	0.00846
2758.43	0.00954
2770	0.01145
2781.57	0.01458
2793.15	0.02134
2804.72	0.02933
2816.3	0.02774
2827.87	0.02258
2839.44	0.02055
2851.02	0.02368
2862.59	0.03437
2874.17	0.04492
2885.74	0.04467
2897.31	0.04049
2908.89	0.04798
2920.46	0.06045
2932.04	0.08099
2943.61	0.0932
2955.18	0.08058
2966.76	0.0786
2978.33	0.03978
2989.91	0.01753
3001.48	0.01061
3013.05	0.00727
3024.63	0.00531
3036.2	0.00401
3047.78	0.00316
3059.35	0.0025
3070.92	0.00217
3082.5	0.00195
3094.07	0.00173
3105.65	0.0016
3117.22	0.00138
3128.79	0.00133
3140.37	0.00122
3151.94	0.00124
3163.52	0.00117
3175.09	0.00119
3186.66	0.00118
3198.24	0.00122
3209.81	0.00125
3221.39	0.00126
3232.96	0.00128
3244.53	0.00133
3256.11	0.0013
3267.68	0.00126
3279.26	0.00127
3290.83	0.00121
3302.4	0.00111
3313.98	0.00108
3325.55	0.00106
3337.13	0.0009988
3348.7	0.00101
3360.27	0.000952
3371.85	0.0009069
3383.42	0.0008274
3395	0.0007727
3406.57	0.0007516
3418.14	0.0007307
3429.72	0.000682
3441.29	0.0006197
3452.86	0.0006311
3464.44	0.0006132
3476.01	0.0005708
3487.59	0.0005277
3499.16	0.0004852
3510.73	0.0004223
3522.31	0.0004085
3533.88	0.0003183
3545.46	0.0003145
3557.03	0.0003076
3568.6	0.0002629
3580.18	0.0003315
3591.75	0.0003902
3603.33	0.000396
3614.9	0.0005567
3626.47	0.0007224
3638.05	0.00112
3649.62	0.00216
3661.2	0.00376
3672.77	0.00377
3684.34	0.00186
3695.92	0.0009317
3707.49	0.0005644
3719.07	0.0004952
3730.64	0.0003953
3742.21	0.0003279
3753.79	0.0002922
3765.36	0.0002573
3776.94	0.0002881
3788.51	0.0002667
3800.08	0.000316
3811.66	0.0002617
3823.23	0.0003968
3834.81	0.0003535
3846.38	0.000417
3857.95	0.0004329
3869.53	0.0004261
3881.1	0.000355
3892.68	0.0003246
3904.25	0.0002498
3915.82	0.0001977
3927.4	0.0002707
3938.97	0.0002741
3950.55	0.000296
3962.12	0.000218
3973.69	0.0002937
3985.27	0.0003123
3996.84	0.0002719
