Infrared Spectrum: 3,5-Dimethoxytoluene
Formula: C 9 H 12 O 2
CAS: 4179-19-5
State: gas
Origin: EPA-IR VAPOR PHASE LIBRARY
1/CM	ABSORBANCE
549.8	0.003485
559.445	0.003085
569.09	0.002985
578.735	0.003245
588.38	0.004245
598.025	0.004285
607.67	0.003395
617.315	0.002975
626.96	0.002955
636.605	0.002315
646.251	0.002065
655.896	0.002485
665.541	0.004685
675.186	0.009505
684.831	0.013655
694.476	0.008115
704.121	0.003385
713.766	0.0016312
723.411	0.0012787
733.056	0.0010744
742.701	0.0009454
752.346	0.0008777
761.991	0.0009472
771.636	0.0010157
781.281	0.001199
790.926	0.002225
800.571	0.005185
810.216	0.009435
819.861	0.012965
829.507	0.020525
839.152	0.022395
848.797	0.018825
858.442	0.010925
868.087	0.005445
877.732	0.003365
887.377	0.003245
897.022	0.003735
906.667	0.006335
916.312	0.010315
925.957	0.012135
935.602	0.009595
945.247	0.006935
954.892	0.006305
964.537	0.005625
974.182	0.005355
983.827	0.006525
993.472	0.007845
1003.12	0.007855
1012.76	0.007095
1022.41	0.007475
1032.05	0.011165
1041.7	0.021925
1051.34	0.039275
1060.99	0.054035
1070.63	0.053905
1080.28	0.035845
1089.92	0.016985
1099.57	0.011225
1109.21	0.011265
1118.86	0.014545
1128.5	0.027435
1138.15	0.071985
1147.79	0.146225
1157.44	0.164185
1167.08	0.094815
1176.73	0.043645
1186.37	0.048335
1196.02	0.083055
1205.66	0.093665
1215.31	0.052865
1224.95	0.018115
1234.6	0.011945
1244.24	0.012455
1253.89	0.011615
1263.53	0.008465
1273.18	0.008175
1282.82	0.014165
1292.47	0.022595
1302.11	0.028405
1311.76	0.039575
1321.4	0.052215
1331.05	0.047005
1340.69	0.031045
1350.34	0.019495
1359.98	0.011415
1369.63	0.007845
1379.27	0.007785
1388.92	0.009445
1398.56	0.011875
1408.21	0.016285
1417.85	0.028545
1427.5	0.046385
1437.14	0.048115
1446.79	0.039975
1456.43	0.054245
1466.08	0.066345
1475.73	0.051725
1485.37	0.033765
1495.02	0.025005
1504.66	0.020315
1514.31	0.018055
1523.95	0.018165
1533.6	0.018685
1543.24	0.018445
1552.89	0.019075
1562.53	0.024885
1572.18	0.043075
1581.82	0.087445
1591.47	0.148845
1601.11	0.169525
1610.76	0.116215
1620.4	0.062795
1630.05	0.031035
1639.69	0.016655
1649.34	0.010225
1658.98	0.007275
1668.63	0.006145
1678.27	0.005905
1687.92	0.005705
1697.56	0.004885
1707.21	0.003745
1716.85	0.003045
1726.5	0.002785
1736.14	0.002685
1745.79	0.002505
1755.43	0.002365
1765.08	0.002095
1774.72	0.001885
1784.37	0.0017309
1794.01	0.0015552
1803.66	0.0013831
1813.3	0.0012484
1822.95	0.0012001
1832.59	0.0010982
1842.24	0.0009948
1851.88	0.00078143
1861.53	0.00080013
1871.17	0.00082507
1880.82	0.00074139
1890.46	0.00080709
1900.11	0.0008935
1909.75	0.00084422
1919.4	0.0008581
1929.04	0.00076878
1938.69	0.00081014
1948.33	0.0009385
1957.98	0.0011296
1967.62	0.00116
1977.27	0.0011032
1986.91	0.0011783
1996.56	0.0011146
2006.2	0.0009313
2015.85	0.0008667
2025.49	0.00079551
2035.14	0.0008549
2044.78	0.001133
2054.43	0.0015471
2064.07	0.002065
2073.72	0.002415
2083.36	0.002245
2093.01	0.001975
2102.65	0.002005
2112.3	0.001985
2121.94	0.001925
2131.59	0.001815
2141.23	0.0015654
2150.88	0.0012083
2160.52	0.0009338
2170.17	0.0006785
2179.81	0.0007214
2189.46	0.00080585
2199.1	0.0012013
2208.75	0.0015442
2218.39	0.0015778
2228.04	0.0015173
2237.68	0.0012955
2247.33	0.0011379
2256.97	0.0009424
2266.62	0.0006824
2276.26	0.000445
2285.91	0.000281
2295.55	0.000208
2305.2	0.000245
2314.84	0.000269
2324.49	0.000283
2334.13	0.000352
2343.78	0.000354
2353.42	0.000458
2363.07	0.000594
2372.72	0.0006653
2382.36	0.0006901
2392.01	0.0006933
2401.65	0.000573
2411.3	0.000559
2420.94	0.000551
2430.59	0.000596
2440.23	0.000613
2449.88	0.0006947
2459.52	0.0007258
2469.17	0.0006866
2478.81	0.000635
2488.46	0.0006502
2498.1	0.0006473
2507.75	0.000537
2517.39	0.000501
2527.04	0.000495
2536.68	0.000468
2546.33	0.000339
2555.97	0.000306
2565.62	0.000185
2575.26	0.000151
2584.91	0.000241
2594.55	0.000372
2604.2	0.000487
2613.84	0.00063
2623.49	0.000573
2633.13	0.000492
2642.78	0.00064
2652.42	0.000435
2662.07	0.000409
2671.71	0.00042
2681.36	0.000343
2691	0.000234
2700.65	0.000256
2710.29	0.000354
2719.94	0.000422
2729.58	0.0008598
2739.23	0.0012667
2748.87	0.0015738
2758.52	0.0014469
2768.16	0.0016414
2777.81	0.001925
2787.45	0.002405
2797.1	0.003195
2806.74	0.003995
2816.39	0.005795
2826.03	0.009935
2835.68	0.020385
2845.32	0.028725
2854.97	0.023515
2864.61	0.017235
2874.26	0.017145
2883.9	0.018115
2893.55	0.019755
2903.19	0.023375
2912.84	0.029385
2922.48	0.036025
2932.13	0.043315
2941.77	0.052255
2951.42	0.051335
2961.06	0.039205
2970.71	0.025255
2980.35	0.019835
2990	0.024155
2999.64	0.037425
3009.29	0.036015
3018.93	0.019665
3028.58	0.012325
3038.22	0.009525
3047.87	0.008505
3057.51	0.009675
3067.16	0.010775
3076.8	0.009535
3086.45	0.007215
3096.09	0.004795
3105.74	0.003105
3115.38	0.002105
3125.03	0.0015125
3134.67	0.0013137
3144.32	0.0008579
3153.96	0.0007146
3163.61	0.0006947
3173.25	0.000453
3182.9	0.000527
3192.54	0.00054
3202.19	0.000249
3211.83	0.000408
3221.48	0.0002
3231.12	0.000199
3240.77	0.000201
3250.41	0.000122
3260.06	0.000218
3269.7	0.000123
3279.35	9.5e-05
3289	0.000129
3298.64	0.000152
3308.29	0.000151
3317.93	0.000209
3327.58	0.000219
3337.22	0.000124
3346.87	9.5e-05
3356.51	7.8e-05
3366.16	0.000252
3375.8	0.000294
3385.45	0.000189
3395.09	0.000313
3404.74	0.000318
3414.38	0.000252
3424.03	0.000261
3433.67	0.000315
3443.32	0.000181
3452.96	0.000257
3462.61	0.000428
3472.25	0.000374
3481.9	0.000275
3491.54	0.000196
3501.19	0.000193
3510.83	0.000226
3520.48	0.000419
3530.12	0.000254
3539.77	0.00019
3549.41	0.000426
3559.06	0.000342
3568.7	0.000396
3578.35	0.000323
3587.99	0.000577
3597.64	0.00039
3607.28	0.000297
3616.93	0.000373
3626.57	0.000359
3636.22	0.00037
3645.86	0.000313
3655.51	0.000481
3665.15	0.000322
3674.8	0.000395
3684.44	0.000311
3694.09	0.000309
3703.73	0.000241
3713.38	0.000293
3723.02	0.00033
3732.67	0.000444
3742.31	0.000564
3751.96	0.000309
3761.6	0.000282
3771.25	0.000421
3780.89	0.000479
3790.54	0.000378
3800.18	0.000246
3809.83	0.000285
3819.47	0.000361
3829.12	0.000213
3838.76	0.000466
3848.41	0.000304
3858.05	0.000434
3867.7	0.00044
3877.34	0.00045
3886.99	0.000395
3896.63	0.000573
3906.28	0.000609
3915.92	0.000597
3925.57	0.000442
3935.21	0.000512
3944.86	0.000585
3954.5	0.00051
3964.15	0.000524
3973.79	0.000382
3983.44	0.000614
3993.08	0.00048
