Infrared Spectrum: 2-n-Octylfuran
Formula: C 12 H 20 O
CAS: 4179-38-8
State: gas
Origin: EPA-IR VAPOR PHASE LIBRARY
1/CM	ABSORBANCE
549.9	0.00025
559.547	0.000291
569.193	0.000848
578.84	0.001502
588.486	0.00364
598.133	0.00647
607.779	0.00325
617.426	0.0019672
627.072	0.00134773
636.719	0.001083
646.365	0.000986
656.012	0.000994
665.658	0.0012217
675.305	0.0019634
684.951	0.00354
694.598	0.00649
704.245	0.0121
713.891	0.02392
723.538	0.04905
733.184	0.03445
742.831	0.01726
752.477	0.0106
762.124	0.00771
771.77	0.00744
781.417	0.00985
791.063	0.01466
800.71	0.00996
810.356	0.00541
820.003	0.00346
829.649	0.00243
839.296	0.0020021
848.943	0.0018887
858.589	0.0018452
868.236	0.0021769
877.882	0.00388
887.529	0.00708
897.175	0.00532
906.822	0.00646
916.468	0.00881
926.115	0.00932
935.761	0.00727
945.408	0.00521
955.054	0.00405
964.701	0.00365
974.347	0.00407
983.994	0.00572
993.64	0.01007
1003.29	0.01817
1012.93	0.0165
1022.58	0.00839
1032.23	0.0046
1041.87	0.00297
1051.52	0.00244
1061.17	0.00304
1070.81	0.00521
1080.46	0.00598
1090.11	0.00408
1099.75	0.00337
1109.4	0.00281
1119.05	0.00234
1128.69	0.00333
1138.34	0.0096
1147.99	0.01887
1157.63	0.01276
1167.28	0.00816
1176.92	0.00652
1186.57	0.00565
1196.22	0.00535
1205.86	0.00486
1215.51	0.00396
1225.16	0.00375
1234.8	0.00408
1244.45	0.00415
1254.1	0.0037
1263.74	0.00309
1273.39	0.00309
1283.04	0.00335
1292.68	0.00375
1302.33	0.00424
1311.98	0.00443
1321.62	0.00503
1331.27	0.0069
1340.92	0.00813
1350.56	0.00799
1360.21	0.00707
1369.86	0.00637
1379.5	0.0067
1389.15	0.00592
1398.79	0.00415
1408.44	0.00362
1418.09	0.00419
1427.73	0.0063
1437.38	0.01207
1447.03	0.01768
1456.67	0.01869
1466.32	0.01624
1475.97	0.01105
1485.61	0.00849
1495.26	0.012
1504.91	0.02024
1514.55	0.01375
1524.2	0.00794
1533.85	0.0052
1543.49	0.00386
1553.14	0.0038
1562.79	0.00499
1572.43	0.0071
1582.08	0.0087
1591.73	0.01051
1601.37	0.00791
1611.02	0.00332
1620.67	0.0021378
1630.31	0.0020028
1639.96	0.0021578
1649.6	0.0016821
1659.25	0.00130733
1668.9	0.0011949
1678.54	0.00125667
1688.19	0.0020195
1697.84	0.00337
1707.48	0.0020677
1717.13	0.001058
1726.78	0.000861
1736.42	0.000786
1746.07	0.000775
1755.72	0.000731
1765.36	0.000703
1775.01	0.000639
1784.66	0.000649
1794.3	0.000678
1803.95	0.000686
1813.6	0.000636
1823.24	0.000684
1832.89	0.000672
1842.54	0.00066
1852.18	0.000685
1861.83	0.000691
1871.47	0.000601
1881.12	0.000574
1890.77	0.000634
1900.41	0.000632
1910.06	0.000651
1919.71	0.000742
1929.35	0.000707
1939	0.000701
1948.65	0.000656
1958.29	0.000697
1967.94	0.000716
1977.59	0.000679
1987.23	0.000771
1996.88	0.000831
2006.53	0.001002
2016.17	0.001114
2025.82	0.001083
2035.47	0.001007
2045.11	0.001004
2054.76	0.001071
2064.41	0.001127
2074.05	0.0012046
2083.7	0.0012472
2093.35	0.001118
2102.99	0.001093
2112.64	0.001014
2122.28	0.000984
2131.93	0.001026
2141.58	0.001028
2151.22	0.001066
2160.87	0.001054
2170.52	0.001067
2180.16	0.001024
2189.81	0.001067
2199.46	0.001089
2209.1	0.0012226
2218.75	0.00125016
2228.4	0.00127241
2238.04	0.0012061
2247.69	0.0011613
2257.34	0.0011997
2266.98	0.0011793
2276.63	0.0011945
2286.28	0.0012293
2295.92	0.0012455
2305.57	0.0012164
2315.22	0.001162
2324.86	0.0011833
2334.51	0.0011666
2344.16	0.0011777
2353.8	0.0011768
2363.45	0.001248
2373.09	0.0012668
2382.74	0.00125673
2392.39	0.00130807
2402.03	0.00131065
2411.68	0.00130488
2421.33	0.00127736
2430.97	0.0012058
2440.62	0.0012252
2450.27	0.0011669
2459.91	0.0012102
2469.56	0.001117
2479.21	0.0012111
2488.85	0.0012088
2498.5	0.00125806
2508.15	0.0012003
2517.79	0.0014049
2527.44	0.0014249
2537.09	0.0014406
2546.73	0.0014249
2556.38	0.0014927
2566.03	0.001601
2575.67	0.0016427
2585.32	0.0017619
2594.96	0.0018711
2604.61	0.0019341
2614.26	0.0019178
2623.9	0.0020341
2633.55	0.00231
2643.2	0.00253
2652.84	0.0028
2662.49	0.00283
2672.14	0.00285
2681.78	0.00286
2691.43	0.00272
2701.08	0.00267
2710.72	0.00249
2720.37	0.0026
2730.02	0.00275
2739.66	0.00304
2749.31	0.0032
2758.96	0.00316
2768.6	0.00346
2778.25	0.00378
2787.9	0.00432
2797.54	0.00514
2807.19	0.00624
2816.84	0.00778
2826.48	0.01015
2836.13	0.0145
2845.77	0.02488
2855.42	0.04817
2865.07	0.06706
2874.71	0.05964
2884.36	0.04878
2894.01	0.04375
2903.65	0.05494
2913.3	0.08255
2922.95	0.1316
2932.59	0.17863
2942.24	0.16206
2951.89	0.11017
2961.53	0.08417
2971.18	0.06844
2980.83	0.03523
2990.47	0.01912
3000.12	0.01278
3009.77	0.00917
3019.41	0.00702
3029.06	0.00582
3038.71	0.00473
3048.35	0.00408
3058	0.00353
3067.64	0.00317
3077.29	0.00316
3086.94	0.00295
3096.58	0.00318
3106.23	0.0038
3115.88	0.00576
3125.52	0.00575
3135.17	0.00345
3144.82	0.00295
3154.46	0.00356
3164.11	0.0024
3173.76	0.0013614
3183.4	0.0011902
3193.05	0.001042
3202.7	0.001106
3212.34	0.000831
3221.99	0.000685
3231.64	0.000643
3241.28	0.000538
3250.93	0.000402
3260.58	0.000485
3270.22	0.000531
3279.87	0.000735
3289.52	0.000511
3299.16	0.000344
3308.81	0.000388
3318.45	0.000359
3328.1	0.000464
3337.75	0.000262
3347.39	0.000428
3357.04	0.000389
3366.69	0.000528
3376.33	0.000402
3385.98	0.000277
3395.63	0.00025
3405.27	0.000326
3414.92	0.00021
3424.57	0.000286
3434.21	0.00016
3443.86	0.000326
3453.51	0.00018
3463.15	0.00015
3472.8	9e-05
3482.45	0.00022
3492.09	0.00024
3501.74	1e-05
3511.39	5e-05
3521.03	6e-05
3530.68	6e-05
3540.33	0.0002
3549.97	0.00023
3559.62	0.00013
3569.26	0.000289
3578.91	0.000351
3588.56	0.00022
3598.2	0.00024
3607.85	0.000425
3617.5	0.000383
3627.14	0.000475
3636.79	0.000572
3646.44	0.000372
3656.08	0.000415
3665.73	0.000458
3675.38	0.000546
3685.02	0.000569
3694.67	0.000461
3704.32	0.000528
3713.96	0.00043
3723.61	0.000488
3733.26	0.000593
3742.9	0.000495
3752.55	0.000697
3762.2	0.00038
3771.84	0.000497
3781.49	0.000605
3791.13	0.000613
3800.78	0.000563
3810.43	0.000681
3820.07	0.000499
3829.72	0.000718
3839.37	0.000749
3849.01	0.000678
3858.66	0.000617
3868.31	0.000651
3877.95	0.00066
3887.6	0.000742
3897.25	0.000708
3906.89	0.000667
3916.54	0.000791
3926.19	0.000792
3935.83	0.000727
3945.48	0.000789
3955.13	0.000869
3964.77	0.000989
3974.42	0.00093
3984.07	0.001044
3993.71	0.001109
