Infrared Spectrum: Tricyclazole
Formula: C 9 H 7 N 3 S
CAS: 41814-78-2
State: gas
Instrument: HP-GC/MS/IRD
Origin: NIST Mass Spectrometry Data Center
1/CM	ABSORBANCE
550	0.002058
562	0.000195
574	0.000198
586	0.000261
598	0.000135
610	0.000114
622	0.000285
634	0.001149
646	0.000702
658	0.000159
670	0.000114
682	0.00018
694	0.000123
706	0.000213
718	0.00132
730	0.002166
742	0.001083
754	0.003792
766	0.006609
778	0.003063
790	0.000765
802	0.000267
814	0.000171
826	0.000114
838	3.6e-05
850	0.000159
862	0.000357
874	0.001263
886	0.000774
898	0.00021
910	0.000225
922	0.00024
934	0.0009
946	0.00264
958	0.00096
970	0.000735
982	0.000633
994	0.000369
1006	0.000246
1018	0.000126
1030	0.00018
1042	0.000159
1054	0.000312
1066	0.000378
1078	0.000492
1090	0.000594
1102	0.000204
1114	0.000198
1126	0.00063
1138	0.001614
1150	0.000999
1162	0.000963
1174	0.001197
1186	0.002862
1198	0.003033
1210	0.003666
1222	0.000963
1234	0.000378
1246	0.000795
1258	0.000858
1270	0.000408
1282	0.000456
1294	0.001452
1306	0.002589
1318	0.001305
1330	0.000384
1342	0.000513
1354	0.00183
1366	0.001986
1378	0.000927
1390	0.000864
1402	0.001095
1414	0.002229
1426	0.003489
1438	0.002703
1450	0.003399
1462	0.007641
1474	0.016263
1486	0.03
1498	0.015069
1510	0.002574
1522	0.001497
1534	0.001491
1546	0.001578
1558	0.000996
1570	0.000732
1582	0.000582
1594	0.000507
1606	0.000375
1618	0.000291
1630	0.000351
1642	0.000495
1654	0.000369
1666	0.000225
1678	0.000234
1690	0.000252
1702	0.000168
1714	0.000129
1726	0.000159
1738	0.000177
1750	0.000225
1762	0.000384
1774	0.000255
1786	0.000114
1798	7.5e-05
1810	9.9e-05
1822	0.000138
1834	0.00027
1846	0.000255
1858	0.000123
1870	9.3e-05
1882	0.000138
1894	0.000219
1906	0.000456
1918	0.000468
1930	0.000237
1942	0.000111
1954	8.7e-05
1966	9.3e-05
1978	7.5e-05
1990	5.7e-05
2002	8.4e-05
2014	9e-05
2026	7.5e-05
2038	6e-05
2050	7.2e-05
2062	7.5e-05
2074	6.6e-05
2086	9.3e-05
2098	5.1e-05
2110	6.6e-05
2122	7.8e-05
2134	5.7e-05
2146	6.6e-05
2158	4.8e-05
2170	6.6e-05
2182	3.9e-05
2194	8.7e-05
2206	9.6e-05
2218	7.5e-05
2230	6.3e-05
2242	6.3e-05
2254	9.6e-05
2266	6.6e-05
2278	5.7e-05
2290	4.2e-05
2302	7.2e-05
2314	5.1e-05
2326	0.000111
2338	0.000114
2350	7.8e-05
2362	4.8e-05
2374	4.8e-05
2386	7.5e-05
2398	5.7e-05
2410	5.4e-05
2422	0.000111
2434	0.000102
2446	0.000138
2458	0.000171
2470	0.000156
2482	0.000126
2494	0.000132
2506	8.7e-05
2518	8.7e-05
2530	7.2e-05
2542	9e-05
2554	0.000111
2566	0.00012
2578	0.000108
2590	0.000126
2602	0.000153
2614	0.000135
2626	0.000111
2638	3e-05
2650	6.3e-05
2662	0.000105
2674	0.000129
2686	7.8e-05
2698	0.000123
2710	5.1e-05
2722	7.8e-05
2734	0.000132
2746	0.000147
2758	0.000114
2770	3.6e-05
2782	6.6e-05
2794	0.000102
2806	5.1e-05
2818	6.6e-05
2830	0.000108
2842	0.000177
2854	0.00027
2866	0.000456
2878	0.000681
2890	0.000582
2902	0.000525
2914	0.000582
2926	0.000858
2938	0.001383
2950	0.001404
2962	0.001236
2974	0.001038
2986	0.001287
2998	0.001002
3010	0.000495
3022	0.000513
3034	0.000675
3046	0.000798
3058	0.001215
3070	0.001575
3082	0.00132
3094	0.000711
3106	0.00033
3118	0.000225
3130	0.000222
3142	0.000162
3154	0.00012
3166	0.000147
3178	0.000156
3190	8.1e-05
3202	9.6e-05
3214	8.1e-05
3226	3.3e-05
3238	4.5e-05
3250	0.000102
3262	9e-05
3274	4.2e-05
3286	0.000117
3298	0.000108
3310	6.6e-05
3322	0.000108
3334	6.9e-05
3346	7.8e-05
3358	2.4e-05
3370	9.6e-05
3382	4.2e-05
3394	0.000102
3406	7.8e-05
3418	0.00012
3430	5.4e-05
3442	3.9e-05
3454	7.2e-05
3466	8.1e-05
3478	3.9e-05
3490	7.5e-05
3502	6.3e-05
3514	6.9e-05
3526	8.7e-05
3538	0
3550	9e-05
3562	7.8e-05
3574	0.000144
3586	0.000102
3598	0.000117
3610	7.5e-05
3622	7.8e-05
3634	9.6e-05
3646	0.000144
3658	0.000156
3670	6e-05
3682	7.5e-05
3694	0.000183
3706	9.9e-05
3718	0.000141
3730	0.000138
3742	0.000111
3754	0.000111
3766	0.000147
3778	0.000132
3790	0.000105
3802	0.000159
3814	0.000156
3826	0.00015
3838	0.000135
