Infrared Spectrum: 4-Hydroxy-3-nitrobenzyl alcohol
Formula: C 7 H 7 N O 4
CAS: 41833-13-0
State: gas
Origin: EPA-IR VAPOR PHASE LIBRARY
1/CM	ABSORBANCE
549.8	0.0066286
559.445	0.0068486
569.09	0.0070086
578.734	0.0068586
588.379	0.0068286
598.024	0.0073886
607.669	0.0066886
617.313	0.0056186
626.958	0.0056786
636.603	0.0065986
646.248	0.0080886
655.893	0.0102086
665.537	0.0130786
675.182	0.0173486
684.827	0.0180086
694.472	0.0120486
704.116	0.0070986
713.761	0.0042086
723.406	0.0027786
733.051	0.0021386
742.695	0.0024086
752.34	0.0038386
761.985	0.0080386
771.63	0.0085486
781.275	0.0070386
790.919	0.0042686
800.564	0.0036986
810.209	0.0074386
819.854	0.0165186
829.498	0.0221686
839.143	0.0132186
848.788	0.0056186
858.433	0.0026286
868.078	0.0021886
877.722	0.0029186
887.367	0.0051986
897.012	0.0066586
906.657	0.0063486
916.301	0.0062086
925.946	0.0053686
935.591	0.0040386
945.236	0.0039886
954.88	0.0043686
964.525	0.0053586
974.17	0.0062686
983.815	0.0065386
993.46	0.0077686
1003.1	0.0100086
1012.75	0.0130086
1022.39	0.0166186
1032.04	0.0211886
1041.68	0.0206786
1051.33	0.0151386
1060.97	0.0132186
1070.62	0.0146786
1080.26	0.0123686
1089.91	0.0065486
1099.55	0.0052886
1109.2	0.0063886
1118.84	0.0078886
1128.49	0.0102786
1138.13	0.0105386
1147.78	0.0120686
1157.42	0.0166386
1167.07	0.0273686
1176.71	0.0433886
1186.36	0.0493786
1196	0.0368986
1205.64	0.0212786
1215.29	0.0148386
1224.93	0.0165086
1234.58	0.0251186
1244.22	0.0381486
1253.87	0.0482386
1263.51	0.0455286
1273.16	0.0360586
1282.8	0.0309786
1292.45	0.0279286
1302.09	0.0340186
1311.74	0.0526586
1321.38	0.0745786
1331.03	0.0781786
1340.67	0.0624186
1350.32	0.0426286
1359.96	0.0297486
1369.61	0.0253986
1379.25	0.0222686
1388.9	0.0171186
1398.54	0.0137886
1408.18	0.0132486
1417.83	0.0163586
1427.47	0.0247386
1437.12	0.0299486
1446.76	0.0232086
1456.41	0.0150686
1466.05	0.0140186
1475.7	0.0159586
1485.34	0.0254586
1494.99	0.0312386
1504.63	0.0189086
1514.28	0.0114486
1523.92	0.0160286
1533.57	0.0332286
1543.21	0.0684586
1552.86	0.0773186
1562.5	0.0440686
1572.15	0.0245686
1581.79	0.0246886
1591.44	0.0237686
1601.08	0.0178086
1610.73	0.0180886
1620.37	0.0274386
1630.01	0.0394186
1639.66	0.0299186
1649.3	0.0113686
1658.95	0.0050886
1668.59	0.0034686
1678.24	0.0026086
1687.88	0.0020086
1697.53	0.0016286
1707.17	0.0012386
1716.82	0.0011186
1726.46	0.0009629
1736.11	0.0009417
1745.75	0.0009083
1755.4	0.0009015
1765.04	0.0010286
1774.69	0.0012386
1784.33	0.0013486
1793.98	0.0011586
1803.62	0.000725
1813.27	0.0005302
1822.91	0.000397
1832.55	0.0004575
1842.2	0.0005248
1851.84	0.0006383
1861.49	0.0004381
1871.13	0.0003207
1880.78	0.0002313
1890.42	0.0002348
1900.07	0.0003152
1909.71	0.0005978
1919.36	0.0009289
1929	0.0006985
1938.65	0.0004633
1948.29	0.0002417
1957.94	0.0001917
1967.58	0.0002059
1977.23	0.0002283
1986.87	0.000261
1996.52	0.0002622
2006.16	0.0003379
2015.81	0.0003206
2025.45	0.0003312
2035.1	0.0003327
2044.74	0.0003541
2054.38	0.000302
2064.03	0.0003688
2073.67	0.0003889
2083.32	0.0003826
2092.96	0.0002856
2102.61	0.0003263
2112.25	0.0002528
2121.9	0.0002889
2131.54	0.0002769
2141.19	0.0003452
2150.83	0.0002665
2160.48	0.0002279
2170.12	0.0001377
2179.77	0.0001413
2189.41	8.848e-05
2199.06	0.0001585
2208.7	0.0001506
2218.35	0.00019
2227.99	0.0001261
2237.64	0.0001841
2247.28	0.0001891
2256.92	0.0002879
2266.57	0.0004116
2276.21	0.0003643
2285.86	0.0003853
2295.5	0.0004269
2305.15	0.0003553
2314.79	0.0003921
2324.44	0.0003777
2334.08	0.0004931
2343.73	0.0003213
2353.37	0.0005111
2363.02	0.0005825
2372.66	0.0005633
2382.31	0.0004575
2391.95	0.0005464
2401.6	0.0007013
2411.24	0.000657
2420.89	0.0006184
2430.53	0.000614
2440.18	0.0005121
2449.82	0.0005387
2459.47	0.0004759
2469.11	0.0004121
2478.75	0.0004514
2488.4	0.0004384
2498.04	0.0006392
2507.69	0.0006616
2517.33	0.0006233
2526.98	0.0006555
2536.62	0.0006394
2546.27	0.0007939
2555.91	0.0009393
2565.56	0.0009648
2575.2	0.0009209
2584.85	0.0007645
2594.49	0.0006826
2604.14	0.0008099
2613.78	0.0009476
2623.43	0.0009564
2633.07	0.0008899
2642.72	0.0008463
2652.36	0.0007807
2662.01	0.0007461
2671.65	0.0007871
2681.29	0.000691
2690.94	0.0007839
2700.58	0.0007364
2710.23	0.000789
2719.87	0.0009084
2729.52	0.0010786
2739.16	0.0011086
2748.81	0.0012686
2758.45	0.0012286
2768.1	0.0012286
2777.74	0.0013286
2787.39	0.0014386
2797.03	0.0016086
2806.68	0.0016886
2816.32	0.0019886
2825.97	0.0022786
2835.61	0.0028486
2845.26	0.0034686
2854.9	0.0045986
2864.55	0.0060686
2874.19	0.0081586
2883.84	0.0102186
2893.48	0.0096686
2903.12	0.0080386
2912.77	0.0074686
2922.41	0.0072386
2932.06	0.0071286
2941.7	0.0071286
2951.35	0.0064486
2960.99	0.0056786
2970.64	0.0043786
2980.28	0.0031586
2989.93	0.0024486
2999.57	0.0022286
3009.22	0.0018886
3018.86	0.0019786
3028.51	0.0024086
3038.15	0.0028286
3047.8	0.0030186
3057.44	0.0023486
3067.09	0.0024486
3076.73	0.0026986
3086.38	0.0026086
3096.02	0.0017286
3105.67	0.0011286
3115.31	0.0011186
3124.95	0.0010486
3134.6	0.0009606
3144.24	0.0009441
3153.89	0.0013686
3163.53	0.0013886
3173.18	0.0017686
3182.82	0.0020586
3192.47	0.0026486
3202.11	0.0031786
3211.76	0.0043586
3221.4	0.0058286
3231.05	0.0072986
3240.69	0.0091886
3250.34	0.0111886
3259.98	0.0125786
3269.63	0.0132886
3279.27	0.0131886
3288.92	0.0126086
3298.56	0.0118186
3308.21	0.0108786
3317.85	0.0101486
3327.49	0.0094386
3337.14	0.0087986
3346.78	0.0085186
3356.43	0.0079586
3366.07	0.0075286
3375.72	0.0067986
3385.36	0.0062886
3395.01	0.0058086
3404.65	0.0051686
3414.3	0.0045986
3423.94	0.0043286
3433.59	0.0037686
3443.23	0.0036186
3452.88	0.0033786
3462.52	0.0031886
3472.17	0.0028886
3481.81	0.0028986
3491.46	0.0026986
3501.1	0.0024786
3510.75	0.0022486
3520.39	0.0020786
3530.04	0.0020786
3539.68	0.0018486
3549.32	0.0019386
3558.97	0.0017386
3568.61	0.0016786
3578.26	0.0017286
3587.9	0.0017586
3597.55	0.0016786
3607.19	0.0017886
3616.84	0.0018986
3626.48	0.0023686
3636.13	0.0033286
3645.77	0.0053186
3655.42	0.0069886
3665.06	0.0071986
3674.71	0.0049386
3684.35	0.0032386
3694	0.0020086
3703.64	0.0013186
3713.29	0.0008266
3722.93	0.0008185
3732.58	0.0005939
3742.22	0.0003557
3751.86	0.0005099
3761.51	0.0004902
3771.15	0.0005197
3780.8	0.0001963
3790.44	0.0002158
3800.09	7.387e-05
3809.73	0.0002979
3819.38	0.0003452
3829.02	0.0002356
3838.67	0.0003555
3848.31	0.000293
3857.96	0.0004627
3867.6	0.0003359
3877.25	0.0002733
3886.89	0.0001632
3896.54	0.0003149
3906.18	8.331e-05
3915.83	0.0002188
3925.47	0.0003559
3935.12	0.0003473
3944.76	4.843e-05
3954.41	1.375e-05
3964.05	0.0003647
3973.69	0.0002976
3983.34	0.0002732
3992.98	4.921e-05
