Infrared Spectrum: 5,6-Dimethyl(1H)benzotriazole
Formula: C 8 H 9 N 3
CAS: 4184-79-6
State: gas
Origin: EPA-IR VAPOR PHASE LIBRARY
1/CM	ABSORBANCE
501.5	0.0007268
513.074	0.0004357
524.648	0.0006013
536.222	0.0008015
547.796	0.000644
559.37	0.0005719
570.944	0.0006667
582.518	0.0007751
594.092	0.0011908
605.666	0.0008754
617.24	0.0007861
628.814	0.000712
640.388	0.0008711
651.962	0.0006688
663.536	0.0009284
675.11	0.0020708
686.684	0.0030008
698.258	0.0020108
709.832	0.0008259
721.406	0.0004446
732.98	0.0003675
744.554	0.0003094
756.128	0.0004314
767.702	0.0004973
779.276	0.0006991
790.85	0.000712
802.423	0.0006664
813.997	0.000761
825.571	0.0020108
837.145	0.0040408
848.719	0.0037408
860.293	0.0027108
871.867	0.0029508
883.441	0.0030008
895.015	0.0039208
906.589	0.0040308
918.163	0.0023408
929.737	0.0008629
941.311	0.0004434
952.885	0.0006128
964.459	0.0012708
976.033	0.0032008
987.607	0.0053408
999.181	0.0044708
1010.76	0.0027408
1022.33	0.0013108
1033.9	0.0008034
1045.48	0.0005556
1057.05	0.0005011
1068.63	0.0005473
1080.2	0.0009764
1091.77	0.0012008
1103.35	0.0014208
1114.92	0.0015408
1126.49	0.0011008
1138.07	0.0007892
1149.64	0.0011008
1161.22	0.0011608
1172.79	0.0019008
1184.36	0.0028408
1195.94	0.0035208
1207.51	0.0050808
1219.09	0.0062408
1230.66	0.0037108
1242.23	0.0014208
1253.81	0.0015808
1265.38	0.0022008
1276.96	0.0016908
1288.53	0.0011408
1300.1	0.0013108
1311.68	0.0012808
1323.25	0.0007454
1334.83	0.0005814
1346.4	0.0006892
1357.97	0.0007875
1369.55	0.0010608
1381.12	0.0012108
1392.7	0.0009903
1404.27	0.0006284
1415.84	0.0007084
1427.42	0.0012608
1438.99	0.0021908
1450.57	0.0032508
1462.14	0.0038608
1473.71	0.0029108
1485.29	0.0017008
1496.86	0.0011908
1508.44	0.0007776
1520.01	0.0005347
1531.58	0.0005515
1543.16	0.0006659
1554.73	0.0005638
1566.31	0.000506
1577.88	0.0007339
1589.45	0.0009261
1601.03	0.0007546
1612.6	0.000967
1624.18	0.0011208
1635.75	0.0008968
1647.32	0.0007348
1658.9	0.0007226
1670.47	0.000629
1682.05	0.0004811
1693.62	0.0004221
1705.19	0.0004542
1716.77	0.0004306
1728.34	0.0004397
1739.92	0.0004703
1751.49	0.0003602
1763.06	0.0002622
1774.64	0.0002332
1786.21	0.0001917
1797.79	0.0001926
1809.36	0.0001774
1820.93	0.0001481
1832.51	0.0001551
1844.08	0.0001499
1855.66	0.0001769
1867.23	0.0001973
1878.8	0.0002134
1890.38	0.0002015
1901.95	0.0001882
1913.53	0.0001514
1925.1	0.0001604
1936.67	0.0001562
1948.25	0.0001545
1959.82	0.00013071
1971.4	0.0001628
1982.97	0.0001636
1994.54	0.0001647
2006.12	0.0001568
2017.69	0.0001569
2029.27	0.000135
2040.84	0.0001773
2052.41	0.0001606
2063.99	0.0001584
2075.56	0.0001511
2087.14	0.0001755
2098.71	0.0001811
2110.28	0.000184
2121.86	0.0001534
2133.43	0.0001763
2145.01	0.000177
2156.58	0.0001721
2168.15	0.0001749
2179.73	0.0001867
2191.3	0.0001998
2202.88	0.0002265
2214.45	0.0002499
2226.02	0.0002236
2237.6	0.0002016
2249.17	0.0001574
2260.74	0.0002123
2272.32	0.0001795
2283.89	0.0001924
2295.47	0.0002011
2307.04	0.0002204
2318.61	0.0002125
2330.19	0.0002356
2341.76	0.0002517
2353.34	0.0002739
2364.91	0.0002518
2376.48	0.0002455
2388.06	0.0002052
2399.63	0.0002036
2411.21	0.0002407
2422.78	0.0002462
2434.35	0.0002704
2445.93	0.0002553
2457.5	0.0002959
2469.08	0.0002832
2480.65	0.000307
2492.22	0.0002574
2503.8	0.0002027
2515.37	0.0002295
2526.95	0.0002208
2538.52	0.000189
2550.09	0.0002007
2561.67	0.0001884
2573.24	0.0001905
2584.82	0.0001633
2596.39	0.000194
2607.96	0.0002781
2619.54	0.0002697
2631.11	0.0002455
2642.69	0.0001865
2654.26	0.0001917
2665.83	0.0001854
2677.41	0.0002446
2688.98	0.0002253
2700.56	0.0002051
2712.13	0.0002652
2723.7	0.0002891
2735.28	0.0003359
2746.85	0.0003783
2758.43	0.000333
2770	0.00033
2781.57	0.0002898
2793.15	0.0003114
2804.72	0.0003918
2816.3	0.0004527
2827.87	0.0005439
2839.44	0.0006846
2851.02	0.0009655
2862.59	0.0017008
2874.17	0.0024108
2885.74	0.0025108
2897.31	0.0023308
2908.89	0.0027308
2920.46	0.0037208
2932.04	0.0052208
2943.61	0.0055408
2955.18	0.0045608
2966.76	0.0039108
2978.33	0.0040108
2989.91	0.0031808
3001.48	0.0015908
3013.05	0.0012408
3024.63	0.0016608
3036.2	0.0022108
3047.78	0.0018708
3059.35	0.0012208
3070.92	0.0009815
3082.5	0.0009351
3094.07	0.00084
3105.65	0.0006734
3117.22	0.0005045
3128.79	0.0003605
3140.37	0.0003276
3151.94	0.0002706
3163.52	0.000209
3175.09	0.0001392
3186.66	0.0001817
3198.24	0.0001767
3209.81	0.00012367
3221.39	0.00010644
3232.96	0.0001315
3244.53	0.00011321
3256.11	0.0001345
3267.68	0.00010256
3279.26	0.0001346
3290.83	0.0001751
3302.4	6.874e-05
3313.98	0.00012057
3325.55	9.513e-05
3337.13	6.695e-05
3348.7	0.0002059
3360.27	0.0001531
3371.85	0.0001315
3383.42	0.0001568
3395	0.0001356
3406.57	0.000132
3418.14	0.0002147
3429.72	0.0002279
3441.29	0.0003822
3452.86	0.0007661
3464.44	0.0021008
3476.01	0.0049908
3487.59	0.0100608
3499.16	0.0107808
3510.73	0.0084708
3522.31	0.0038408
3533.88	0.0007384
3545.46	0.0002686
3557.03	0.0001865
3568.6	0.0001517
3580.18	0.0002471
3591.75	0.0001729
3603.33	0.00018
3614.9	0.0002009
3626.47	0.0001864
3638.05	0.00012992
3649.62	0.0001539
3661.2	0.000119
3672.77	6.453e-05
3684.34	8.16e-05
3695.92	0.000139
3707.49	0.00011884
3719.07	8.618e-05
3730.64	0.00011321
3742.21	0.00010246
3753.79	0.000145
3765.36	0.00011305
3776.94	5.105e-05
3788.51	4.837e-05
3800.08	6.952e-05
3811.66	0.00010726
3823.23	6.63e-05
3834.81	0.0001813
3846.38	0.0001737
3857.95	0.0001547
3869.53	0.0001511
3881.1	0.0002521
3892.68	0.0001981
3904.25	0.0001312
3915.82	0.0002157
3927.4	0.0002321
3938.97	0.0002177
3950.55	0.0002203
3962.12	0.0001886
3973.69	0.00010645
3985.27	0.0001385
3996.84	5.501e-05
