Infrared Spectrum: 10-(3-DIMETHYLAMINO-2-METHYLPROPYL)-2-METHOXYPHENOTHIAZINE, HYDROCHLORIDE
Formula: C19 H25 Cl N2 O S
CAS: 4185-80-2
State: SOLID (KBr DISC)
Class: COBLENTZ III
Instrument: Not specified, most likely a prism spectrometer.
Instrument parameters: NaCl PRISM
Sampling: TRANSMISSION
Resolution: 2
Origin: SMITH KLINE & FRENCH LABS.
MICROMETERS	TRANSMITTANCE
2.019	0.32
2.05333	0.329
2.08766	0.331
2.12199	0.341
2.15631	0.351
2.19064	0.364
2.22497	0.363
2.2593	0.368
2.29363	0.369
2.32796	0.378
2.36229	0.382
2.39662	0.389
2.43094	0.398
2.46527	0.401
2.4996	0.408
2.53393	0.421
2.56826	0.432
2.60259	0.44
2.63692	0.442
2.67125	0.445
2.70557	0.447
2.7399	0.459
2.77423	0.468
2.80856	0.463
2.84289	0.445
2.87722	0.426
2.91155	0.419
2.94588	0.432
2.9802	0.45
3.01453	0.469
3.04886	0.474
3.08319	0.495
3.11752	0.498
3.15185	0.526
3.18618	0.528
3.2205	0.526
3.25483	0.49
3.28916	0.441
3.32349	0.413
3.35782	0.37
3.39215	0.281
3.42648	0.241
3.46081	0.236
3.49513	0.268
3.52946	0.304
3.56379	0.315
3.59812	0.385
3.63245	0.398
3.66678	0.398
3.70111	0.381
3.73544	0.341
3.76976	0.289
3.80409	0.243
3.83842	0.212
3.87275	0.201
3.90708	0.196
3.94141	0.201
3.97574	0.213
4.01007	0.213
4.04439	0.21
4.07872	0.184
4.11305	0.2
4.14738	0.23
4.18171	0.259
4.21604	0.326
4.25037	0.345
4.28469	0.368
4.31902	0.4
4.35335	0.451
4.38768	0.49
4.42201	0.532
4.45634	0.547
4.49067	0.57
4.525	0.579
4.55932	0.597
4.59365	0.607
4.62798	0.62
4.66231	0.634
4.69664	0.642
4.73097	0.65
4.7653	0.651
4.79963	0.665
4.83395	0.669
4.86828	0.674
4.90261	0.687
4.93694	0.692
4.97127	0.689
5.0056	0.701
5.03993	0.706
5.07426	0.708
5.10858	0.714
5.14291	0.715
5.17724	0.714
5.21157	0.718
5.2459	0.72
5.28023	0.726
5.31456	0.731
5.34888	0.725
5.38321	0.72
5.41754	0.726
5.45187	0.734
5.4862	0.747
5.52053	0.75
5.55486	0.751
5.58919	0.752
5.62351	0.753
5.65784	0.753
5.69217	0.753
5.7265	0.757
5.76083	0.753
5.79516	0.751
5.82949	0.748
5.86382	0.751
5.89814	0.754
5.93247	0.756
5.9668	0.754
6.00113	0.762
6.03546	0.758
6.06979	0.748
6.10412	0.741
6.13845	0.72
6.17277	0.66
6.2071	0.45
6.24143	0.214
6.27576	0.217
6.31009	0.151
6.34442	0.081
6.37875	0.157
6.41307	0.35
6.4474	0.564
6.48173	0.609
6.51606	0.656
6.55039	0.656
6.58472	0.651
6.61905	0.654
6.65338	0.562
6.6877	0.221
6.72203	0.214
6.75636	0.201
6.79069	0.14
6.82502	0.053
6.85935	0.045
6.89368	0.048
6.92801	0.07
6.96233	0.076
6.99666	0.162
7.03099	0.176
7.06532	0.212
7.09965	0.229
7.13398	0.262
7.16831	0.275
7.20264	0.336
7.23696	0.437
7.27129	0.469
7.30562	0.491
7.33995	0.559
7.37428	0.569
7.40861	0.53
7.44294	0.4
7.47726	0.378
7.51159	0.374
7.54592	0.381
7.58025	0.459
7.61458	0.397
7.64891	0.296
7.68324	0.128
7.71757	0.198
7.75189	0.21
7.78622	0.13
7.82055	0.206
7.85488	0.106
7.88921	0.076
7.92354	0.098
7.95787	0.252
7.9922	0.375
8.02652	0.495
8.06085	0.509
8.09518	0.437
8.12951	0.339
8.16384	0.245
8.19817	0.278
8.2325	0.347
8.26683	0.23
8.30115	0.081
8.33548	0.085
8.36981	0.251
8.40414	0.324
8.43847	0.332
8.4728	0.22
8.50713	0.159
8.54145	0.178
8.57578	0.179
8.61011	0.169
8.64444	0.165
8.67877	0.247
8.7131	0.336
8.74743	0.358
8.78176	0.298
8.81608	0.254
8.85041	0.235
8.88474	0.24
8.91907	0.35
8.9534	0.474
8.98773	0.5
9.02206	0.45
9.05639	0.381
9.09071	0.392
9.12504	0.448
9.15937	0.462
9.1937	0.514
9.22803	0.539
9.26236	0.589
9.29669	0.601
9.33102	0.595
9.36534	0.436
9.39967	0.325
9.434	0.371
9.46833	0.446
9.50266	0.42
9.53699	0.286
9.57132	0.25
9.60564	0.32
9.63997	0.258
9.6743	0.213
9.70863	0.2
9.74296	0.314
9.77729	0.429
9.81162	0.478
9.84595	0.48
9.88027	0.5
9.9146	0.484
9.94893	0.387
9.98326	0.442
10.0176	0.557
10.0519	0.578
10.0862	0.56
10.1206	0.495
10.1549	0.39
10.1892	0.358
10.2236	0.334
10.2579	0.36
10.2922	0.452
10.3265	0.501
10.3609	0.543
10.3952	0.565
10.4295	0.569
10.4639	0.592
10.4982	0.624
10.5325	0.646
10.5668	0.656
10.6012	0.623
10.6355	0.539
10.6698	0.481
10.7042	0.487
10.7385	0.541
10.7728	0.578
10.8071	0.586
10.8415	0.597
10.8758	0.631
10.9101	0.657
10.9445	0.669
10.9788	0.669
11.0131	0.671
11.0475	0.68
11.0818	0.682
11.1161	0.68
11.1504	0.675
11.1848	0.668
11.2191	0.631
11.2534	0.559
11.2878	0.529
11.3221	0.513
11.3564	0.501
11.3907	0.579
11.4251	0.629
11.4594	0.65
11.4937	0.664
11.5281	0.659
11.5624	0.646
11.5967	0.65
11.631	0.65
11.6654	0.615
11.6997	0.512
11.734	0.481
11.7684	0.506
11.8027	0.6
11.837	0.612
11.8713	0.548
11.9057	0.43
11.94	0.501
11.9743	0.568
12.0087	0.603
12.043	0.604
12.0773	0.601
12.1116	0.609
12.146	0.618
12.1803	0.619
12.2146	0.628
12.249	0.64
12.2833	0.645
12.3176	0.656
12.3519	0.65
12.3863	0.641
12.4206	0.604
12.4549	0.547
12.4893	0.547
12.5236	0.562
12.5579	0.435
12.5922	0.3
12.6266	0.32
12.6609	0.37
12.6952	0.573
12.7296	0.642
12.7639	0.679
12.7982	0.7
12.8325	0.717
12.8669	0.726
12.9012	0.72
12.9355	0.719
12.9699	0.708
13.0042	0.686
13.0385	0.631
13.0728	0.521
13.1072	0.345
13.1415	0.196
13.1758	0.158
13.2102	0.114
13.2445	0.136
13.2788	0.21
13.3131	0.246
13.3475	0.37
13.3818	0.39
13.4161	0.356
13.4505	0.339
13.4848	0.448
13.5191	0.54
13.5534	0.537
13.5878	0.502
13.6221	0.553
13.6564	0.609
13.6908	0.643
13.7251	0.659
13.7594	0.667
13.7937	0.648
13.8281	0.647
13.8624	0.659
13.8967	0.691
13.9311	0.706
13.9654	0.719
13.9997	0.72
14.034	0.718
14.0684	0.702
14.1027	0.693
14.137	0.7
14.1714	0.713
14.2057	0.725
14.24	0.75
14.2743	0.741
14.3087	0.756
14.343	0.75
14.3773	0.752
14.4117	0.756
14.446	0.752
14.4803	0.745
14.5147	0.745
14.549	0.739
14.5833	0.718
14.6176	0.708
14.652	0.704
14.6863	0.701
14.7206	0.701
14.755	0.724
14.7893	0.732
14.8236	0.751
14.8579	0.753
14.8923	0.753
14.9266	0.748
14.9609	0.748
14.9953	0.719
15.0296	0.726
15.0639	0.753
15.0982	0.752
15.1326	0.754
15.1669	0.753
