Infrared Spectrum: AMMONIUM IODIDE, ALLYLTRIETHYL-
Formula: C9 H20 I N
CAS: 4186-64-5
State: SOLID (SPLIT MULL)
Class: COBLENTZ III
Instrument: DOW KBr FOREPRISM-GRATING
Instrument parameters: BLAZED AT 3.5, 12.0, 20.0 MICRON AND CHANGED AT 5.0, 7.5, 14.9 MICRON
Sampling: TRANSMISSION
Resolution: 2
Origin: DOW CHEMICAL COMPANY
1/CM	TRANSMITTANCE
457	0.8921
466	0.9071
475	0.906
484	0.8921
493	0.9518
502	0.9751
511	0.9782
520	0.9781
529	0.9754
538	0.9581
547	0.9455
556	0.9839
565	0.997
574	1.0025
583	1.0045
592	1.0047
601	1.0004
610	0.974
619	0.8791
628	0.9546
637	1.0038
646	1.0178
655	1.0224
664	1.0254
673	1.0254
682	1.0218
691	1.0108
700	0.9854
709	0.9157
718	0.8341
727	0.9071
736	0.9325
745	0.9573
754	0.9585
763	0.95
772	0.9234
781	0.8689
790	0.582
799	0.4284
808	0.5139
817	0.6592
826	0.9234
835	0.947
844	0.9504
853	0.9378
862	0.8421
871	0.9291
880	0.9296
889	0.9284
898	0.9232
907	0.8882
916	0.7867
925	0.6071
934	0.7199
943	0.3614
952	0.4729
961	0.4817
970	0.6018
979	0.6086
988	0.6818
997	0.621
1006	0.433
1015	0.5473
1024	0.4023
1033	0.4138
1042	0.7772
1051	0.884
1060	0.8905
1069	0.8425
1078	0.7962
1087	0.7487
1096	0.8645
1105	0.8864
1114	0.8899
1123	0.9007
1132	0.8839
1141	0.8256
1150	0.7595
1159	0.6558
1168	0.3762
1177	0.3338
1186	0.5715
1195	0.8327
1204	0.873
1213	0.8928
1222	0.906
1231	0.9027
1240	0.8871
1249	0.8706
1258	0.8533
1267	0.8192
1276	0.7515
1285	0.6706
1294	0.715
1303	0.5229
1312	0.7206
1321	0.7799
1330	0.7785
1339	0.6296
1348	0.6309
1357	0.706
1366	0.7104
1375	0.7261
1384	0.7683
1393	0.7248
1402	0.616
1411	0.6676
1420	0.7741
1429	0.7089
1438	0.7175
1447	0.6033
1456	0.5449
1465	0.7508
1474	0.7232
1483	0.888
1492	0.9878
1501	0.9856
1510	0.9802
1519	0.9768
1528	0.9724
1537	0.9689
1546	0.9714
1555	0.9752
1564	0.9756
1573	0.9747
1582	0.9737
1591	0.9707
1600	0.9624
1609	0.9568
1618	0.9566
1627	0.9534
1636	0.9391
1645	0.9507
1654	0.9527
1663	0.9465
1672	0.9375
1681	0.924
1690	0.9101
1699	0.9062
1708	0.9192
1717	0.9147
1726	0.9199
1735	0.9196
1744	0.9177
1753	0.9149
1762	0.9118
1771	0.9083
1780	0.9048
1789	0.9014
1798	0.8987
1807	0.8974
1816	0.8961
1825	0.8917
1834	0.887
1843	0.8839
1852	0.8817
1861	0.8781
1870	0.8763
1879	0.8758
1888	0.8758
1897	0.8756
1906	0.8783
1915	0.8775
1924	0.8745
1933	0.8721
1942	0.8714
1951	0.8749
1960	0.8687
1969	0.8664
1978	0.8645
1987	0.8612
1996	0.8793
2005	0.8804
2014	0.881
2023	0.8785
2032	0.8742
2041	0.8693
2050	0.8651
2059	0.8594
2068	0.8539
2077	0.8493
2086	0.8454
2095	0.8414
2104	0.8371
2113	0.832
2122	0.8263
2131	0.8203
2140	0.8149
2149	0.8095
2158	0.8043
2167	0.7992
2176	0.7948
2185	0.7915
2194	0.7884
2203	0.7846
2212	0.7751
2221	0.7638
2230	0.7519
2239	0.7415
2248	0.7339
2257	0.7267
2266	0.7215
2275	0.7178
2284	0.7154
2293	0.7125
2302	0.7087
2311	0.7084
2320	0.7119
2329	0.7112
2338	0.7104
2347	0.7097
2356	0.7089
2365	0.7087
2374	0.7083
2383	0.7072
2392	0.7061
2401	0.7047
2410	0.7032
2419	0.7018
2428	0.7008
2437	0.6997
2446	0.6989
2455	0.6982
2464	0.6975
2473	0.6972
2482	0.6972
2491	0.6971
2500	0.6968
2509	0.6957
2518	0.6937
2527	0.6917
2536	0.69
2545	0.6871
2554	0.6842
2563	0.6811
2572	0.6782
2581	0.6751
2590	0.6722
2599	0.6698
2608	0.6674
2617	0.6649
2626	0.6621
2635	0.6593
2644	0.6565
2653	0.6534
2662	0.6499
2671	0.6464
2680	0.6428
2689	0.6399
2698	0.6369
2707	0.634
2716	0.631
2725	0.6279
2734	0.6249
2743	0.6217
2752	0.6186
2761	0.6153
2770	0.6116
2779	0.6071
2788	0.6026
2797	0.598
2806	0.5934
2815	0.5877
2824	0.5812
2833	0.5733
2842	0.5638
2851	0.5575
2860	0.5512
2869	0.5452
2878	0.5395
2887	0.5339
2896	0.5284
2905	0.5159
2914	0.5062
2923	0.4985
2932	0.491
2941	0.4833
2950	0.4709
2959	0.433
2968	0.374
2977	0.4339
2986	0.5677
2995	0.5348
3004	0.5921
3013	0.5962
3022	0.5923
3031	0.588
3040	0.5836
3049	0.5791
3058	0.5744
3067	0.569
3076	0.564
3085	0.5612
3094	0.5652
3103	0.5637
3112	0.5606
3121	0.5573
3130	0.5536
3139	0.5498
3148	0.546
3157	0.5424
3166	0.5387
3175	0.535
3184	0.5312
3193	0.5275
3202	0.5238
3211	0.5209
3220	0.518
3229	0.515
3238	0.5121
3247	0.5094
3256	0.5067
3265	0.5039
3274	0.5008
3283	0.4975
3292	0.4944
3301	0.491
3310	0.4884
3319	0.4859
3328	0.4834
3337	0.4808
3346	0.4783
3355	0.476
3364	0.4738
3373	0.4715
3382	0.4693
3391	0.467
3400	0.4647
3409	0.4624
3418	0.4602
3427	0.4579
3436	0.4558
3445	0.4535
3454	0.4512
3463	0.4494
3472	0.4475
3481	0.4457
3490	0.4438
3499	0.4421
3508	0.4403
3517	0.4382
3526	0.436
3535	0.4343
3544	0.4344
3553	0.4333
3562	0.4281
3571	0.4216
3580	0.4282
3589	0.428
3598	0.4262
3607	0.4246
3616	0.4229
3625	0.4208
3634	0.4177
3643	0.4147
3652	0.412
3661	0.4093
3670	0.4072
3679	0.4049
3688	0.403
3697	0.4012
3706	0.3994
3715	0.3971
3724	0.3948
3733	0.3926
3742	0.3908
3751	0.389
3760	0.3879
3769	0.3864
3778	0.3845
3787	0.3826
3796	0.3806
