Infrared Spectrum: 1-Phenyl-2-propyn-1-ol
Formula: C 9 H 8 O
CAS: 4187-87-5
State: gas
Instrument: HP-GC/MS/IRD
Origin: NIST Mass Spectrometry Data Center
1/CM	ABSORBANCE
550	0.001816
562	0.0018816
574	0.0026448
586	0.0014
598	0.0006464
610	0.0011568
622	0.0041952
634	0.0112944
646	0.0157872
658	0.0136256
670	0.0083392
682	0.0071376
694	0.009152
706	0.0070448
718	0.0049568
730	0.0051376
742	0.0058112
754	0.0054224
766	0.0032128
778	0.0012416
790	0.0006288
802	0.0007552
814	0.0011168
826	0.0008304
838	0.0002464
850	0.0001456
862	0.00012
874	0.0002032
886	0.00044
898	0.0010032
910	0.0019328
922	0.0036368
934	0.005776
946	0.0052528
958	0.002904
970	0.0020832
982	0.0023424
994	0.0041344
1006	0.007896
1018	0.0125808
1030	0.0134432
1042	0.0094432
1054	0.0049152
1066	0.0023488
1078	0.0012592
1090	0.0008576
1102	0.0006384
1114	0.0005792
1126	0.0006096
1138	0.0007712
1150	0.001184
1162	0.002064
1174	0.0034096
1186	0.0037568
1198	0.0030048
1210	0.0023712
1222	0.0024368
1234	0.0029024
1246	0.00408
1258	0.0064064
1270	0.0071792
1282	0.0058672
1294	0.0048368
1306	0.0045008
1318	0.004672
1330	0.0045552
1342	0.0041312
1354	0.0040336
1366	0.0039536
1378	0.003416
1390	0.0024464
1402	0.0015456
1414	0.0011056
1426	0.001128
1438	0.0018176
1450	0.002504
1462	0.0021264
1474	0.0012832
1486	0.001816
1498	0.002032
1510	0.000656
1522	0.0002576
1534	0.0001872
1546	0.0001456
1558	7.68e-05
1570	0.00016
1582	0.0002416
1594	0.00052
1606	0.0005408
1618	0.000192
1630	4.32e-05
1642	6.08e-05
1654	9.92e-05
1666	0.000112
1678	8.48e-05
1690	0
1702	4.96e-05
1714	9.12e-05
1726	9.92e-05
1738	0.000152
1750	0.0001824
1762	0.000176
1774	0.0001728
1786	0.000336
1798	0.0005312
1810	0.0003248
1822	0.0001232
1834	6.88e-05
1846	8.48e-05
1858	0.0001696
1870	0.0002848
1882	0.000448
1894	0.0003744
1906	0.0002176
1918	0.0001808
1930	0.0003632
1942	0.0005104
1954	0.0006064
1966	0.0003952
1978	0.0001568
1990	0.0001408
2002	0.000136
2014	0.0001344
2026	0.0001472
2038	0.0001648
2050	0.0001392
2062	0.0001904
2074	0.0001744
2086	0.0001584
2098	0.0002496
2110	0.0003104
2122	0.0003008
2134	0.0002272
2146	0.0001568
2158	0.0001152
2170	0.0001328
2182	0.0001328
2194	0.0001312
2206	0.0001744
2218	0.0001648
2230	0.0001616
2242	0.0001472
2254	0.0001728
2266	0.0001552
2278	0.0001312
2290	0.0001456
2302	0.0001744
2314	0.0002176
2326	0.000232
2338	0.0002016
2350	0.0001808
2362	0.0002032
2374	0.000168
2386	0.0001456
2398	0.0001472
2410	0.0001248
2422	0.0001728
2434	0.0001632
2446	0.0001568
2458	0.0001552
2470	0.000128
2482	0.0001568
2494	0.0001296
2506	0.0001472
2518	0.000128
2530	0.0001312
2542	0.000136
2554	0.0001344
2566	0.0001504
2578	0.0002
2590	0.0001872
2602	0.000168
2614	0.0001888
2626	0.0001808
2638	0.000192
2650	0.0002128
2662	0.0002
2674	0.0001952
2686	0.0001984
2698	0.0001584
2710	0.000136
2722	0.0001376
2734	0.0001424
2746	0.0001504
2758	0.0001792
2770	0.0001664
2782	0.0001568
2794	0.00016
2806	0.0001664
2818	0.000144
2830	0.0001952
2842	0.000264
2854	0.0004976
2866	0.0007952
2878	0.0013872
2890	0.001768
2902	0.001784
2914	0.0014448
2926	0.000968
2938	0.0006048
2950	0.0003632
2962	0.0003184
2974	0.0003568
2986	0.0004048
2998	0.0004544
3010	0.0009472
3022	0.0020816
3034	0.003808
3046	0.0040768
3058	0.0039568
3070	0.0057152
3082	0.0050208
3094	0.0029104
3106	0.00192
3118	0.0008992
3130	0.0003776
3142	0.0001728
3154	0.0001792
3166	0.000176
3178	0.0002
3190	0.0001184
3202	0.0001392
3214	0.0001456
3226	0.0001392
3238	0.0001856
3250	0.0002608
3262	0.0004192
3274	0.0007904
3286	0.0015552
3298	0.0033472
3310	0.0057408
3322	0.0096
3334	0.0077728
3346	0.0018864
3358	0.0006896
3370	0.0003696
3382	0.0002944
3394	0.0002688
3406	0.0002224
3418	0.0002176
3430	0.0002752
3442	0.0002896
3454	0.0002928
3466	0.0002736
3478	0.000224
3490	0.0002944
3502	0.0002496
3514	0.0002032
3526	0.0002688
3538	0.0002704
3550	0.000264
3562	0.000248
3574	0.0002656
3586	0.0003776
3598	0.0004432
3610	0.0007504
3622	0.0016512
3634	0.0035264
3646	0.0040464
3658	0.002256
3670	0.0009792
3682	0.0005904
3694	0.0003696
3706	0.0002864
3718	0.0003232
3730	0.0002464
3742	0.0002576
3754	0.0002656
3766	0.0003056
3778	0.0001984
3790	0.000248
3802	0.0002688
3814	0.000256
3826	0.00028
3838	0.000232
