Infrared Spectrum: Benzamide, N-phenacyl-
Formula: C15 H13 N O2
CAS: 4190-14-1
State: SOLID (SPLIT MULL), FLUOROLUBE FOR 3800-1330 CM^-^1, NUJOL FOR 1330-400 CM^-^1
Melting point: 124 C
Class: COBLENTZ III
Instrument: DOW KBr FOREPRISM-GRATING
Instrument parameters: BLAZED AT 3.5, 12.0, 20.0 MICRON AND CHANGED AT 5.0, 7.5, 14.9 MICRON
Sampling: TRANSMISSION
Resolution: 2
Origin: DOW CHEMICAL COMPANY
1/CM	TRANSMITTANCE
382	0.7243
391	0.7264
400	0.7312
409	0.736
418	0.7429
427	0.7581
436	0.7786
445	0.7896
454	0.7977
463	0.8052
472	0.8139
481	0.8312
490	0.8402
499	0.8356
508	0.8283
517	0.8123
526	0.7692
535	0.7239
544	0.8293
553	0.8359
562	0.8273
571	0.7285
580	0.7856
589	0.7468
598	0.5643
607	0.6609
616	0.7594
625	0.8188
634	0.8435
643	0.8448
652	0.7939
661	0.8348
670	0.8327
679	0.8199
688	0.369
697	0.7701
706	0.8203
715	0.5573
724	0.7777
733	0.844
742	0.8525
751	0.8482
760	0.415
769	0.846
778	0.8416
787	0.8583
796	0.851
805	0.762
814	0.8548
823	0.8534
832	0.8517
841	0.8471
850	0.8429
859	0.8319
868	0.8427
877	0.8367
886	0.829
895	0.8216
904	0.8297
913	0.819
922	0.7678
931	0.7839
940	0.8187
949	0.8165
958	0.8086
967	0.7912
976	0.7478
985	0.7356
994	0.7238
1003	0.6129
1012	0.8041
1021	0.8005
1030	0.8153
1039	0.8148
1048	0.8131
1057	0.8078
1066	0.789
1075	0.7495
1084	0.8079
1093	0.8045
1102	0.799
1111	0.7998
1120	0.7974
1129	0.7924
1138	0.7847
1147	0.7729
1156	0.7528
1165	0.7747
1174	0.7612
1183	0.7155
1192	0.7436
1201	0.7327
1210	0.7172
1219	0.5792
1228	0.4033
1237	0.64
1246	0.6448
1255	0.7384
1264	0.7413
1273	0.7421
1282	0.7494
1291	0.7404
1300	0.6833
1309	0.7291
1318	0.7285
1327	0.7327
1336	0.6121
1345	0.5893
1354	0.5753
1363	0.3687
1372	0.5537
1381	0.7403
1390	0.7449
1399	0.7404
1408	0.7364
1417	0.7337
1426	0.7192
1435	0.6841
1444	0.4929
1453	0.4294
1462	0.7437
1471	0.7032
1480	0.5708
1489	0.3443
1498	0.6958
1507	0.6391
1516	0.464
1525	0.2485
1534	0.5647
1543	0.7497
1552	0.7843
1561	0.7739
1570	0.7429
1579	0.5339
1588	0.775
1597	0.6408
1606	0.7067
1615	0.699
1624	0.5853
1633	0.2814
1642	0.2693
1651	0.7311
1660	0.7993
1669	0.8383
1678	0.8251
1687	0.6011
1696	0.4575
1705	0.8956
1714	0.8969
1723	0.8917
1732	0.8874
1741	0.8845
1750	0.8826
1759	0.8793
1768	0.8789
1777	0.8828
1786	0.8856
1795	0.8843
1804	0.881
1813	0.8789
1822	0.8805
1831	0.8837
1840	0.886
1849	0.8843
1858	0.8818
1867	0.881
1876	0.8788
1885	0.8754
1894	0.8706
1903	0.8723
1912	0.8761
1921	0.8783
1930	0.8788
1939	0.8767
1948	0.874
1957	0.8739
1966	0.8692
1975	0.8639
1984	0.8682
1993	0.8629
2002	0.8748
2011	0.8769
2020	0.8771
2029	0.8761
2038	0.8745
2047	0.8723
2056	0.8697
2065	0.8669
2074	0.8644
2083	0.8622
2092	0.8602
2101	0.8581
2110	0.8558
2119	0.8538
2128	0.8525
2137	0.8511
2146	0.8492
2155	0.8473
2164	0.8454
2173	0.8429
2182	0.8405
2191	0.838
2200	0.8355
2209	0.8322
2218	0.8286
2227	0.8251
2236	0.8216
2245	0.8181
2254	0.8146
2263	0.8112
2272	0.809
2281	0.8069
2290	0.804
2299	0.8005
2308	0.7987
2317	0.799
2326	0.7992
2335	0.7995
2344	0.8004
2353	0.8012
2362	0.8019
2371	0.8059
2380	0.8089
2389	0.8091
2398	0.809
2407	0.8089
2416	0.8089
2425	0.8091
2434	0.8093
2443	0.8095
2452	0.8098
2461	0.8101
2470	0.8101
2479	0.8101
2488	0.81
2497	0.8098
2506	0.8098
2515	0.8098
2524	0.8093
2533	0.8077
2542	0.8067
2551	0.8058
2560	0.8047
2569	0.8035
2578	0.8024
2587	0.8012
2596	0.7997
2605	0.7985
2614	0.7976
2623	0.7967
2632	0.7959
2641	0.7951
2650	0.7942
2659	0.7927
2668	0.7914
2677	0.79
2686	0.7887
2695	0.7873
2704	0.786
2713	0.7846
2722	0.7837
2731	0.7828
2740	0.782
2749	0.781
2758	0.7797
2767	0.7783
2776	0.777
2785	0.7756
2794	0.774
2803	0.7724
2812	0.7708
2821	0.769
2830	0.766
2839	0.7628
2848	0.76
2857	0.7602
2866	0.7629
2875	0.763
2884	0.7599
2893	0.7537
2902	0.7486
2911	0.75
2920	0.7523
2929	0.7494
2938	0.7417
2947	0.7259
2956	0.7192
2965	0.752
2974	0.7518
2983	0.7473
2992	0.7417
3001	0.7419
3010	0.7398
3019	0.7187
3028	0.7142
3037	0.7223
3046	0.7115
3055	0.7011
3064	0.7163
3073	0.7475
3082	0.7513
3091	0.7515
3100	0.75
3109	0.7485
3118	0.7472
3127	0.746
3136	0.7449
3145	0.7431
3154	0.7414
3163	0.7394
3172	0.7373
3181	0.7352
3190	0.7336
3199	0.732
3208	0.7302
3217	0.7277
3226	0.7253
3235	0.7229
3244	0.7184
3253	0.7135
3262	0.7077
3271	0.7015
3280	0.6946
3289	0.6872
3298	0.6776
3307	0.6666
3316	0.6512
3325	0.6321
3334	0.6006
3343	0.5477
3352	0.4343
3361	0.371
3370	0.6985
3379	0.7411
3388	0.7404
3397	0.7399
3406	0.7391
3415	0.7381
3424	0.7364
3433	0.7341
3442	0.7317
3451	0.7292
3460	0.7264
3469	0.7235
3478	0.7206
3487	0.7178
3496	0.7151
3505	0.7125
3514	0.7098
3523	0.7077
3532	0.7056
3541	0.7036
3550	0.7017
3559	0.6999
3568	0.6979
3577	0.6912
3586	0.691
3595	0.698
3604	0.694
3613	0.6928
3622	0.6926
3631	0.6926
3640	0.6926
3649	0.691
3658	0.6895
3667	0.6858
3676	0.6817
3685	0.6798
3694	0.6784
3703	0.6773
3712	0.6764
3721	0.6754
3730	0.6747
3739	0.674
3748	0.6734
3757	0.6727
3766	0.6721
3775	0.6715
3784	0.6711
3793	0.6717
