Infrared Spectrum: 5-Hexadecanone
Formula: C 16 H 32 O
CAS: 41903-81-5
State: gas
Origin: EPA-IR VAPOR PHASE LIBRARY
1/CM	ABSORBANCE
549.9	0.0013575
559.547	0.0009223
569.193	0.00080602
578.84	0.000563
588.486	0.000637
598.133	0.000632
607.779	0.0007396
617.426	0.0009083
627.072	0.0009971
636.719	0.000969
646.365	0.0007047
656.012	0.0007265
665.658	0.00057
675.305	0.000585
684.951	0.0008746
694.598	0.0014476
704.245	0.002573
713.891	0.004113
723.538	0.004643
733.184	0.004643
742.831	0.004233
752.477	0.003653
762.124	0.003163
771.77	0.002833
781.417	0.002253
791.063	0.0017801
800.71	0.0014816
810.356	0.0011962
820.003	0.0011814
829.649	0.0010683
839.296	0.0010631
848.943	0.0011733
858.589	0.001149
868.236	0.001377
877.882	0.0015378
887.529	0.0016717
897.175	0.0017811
906.822	0.001883
916.468	0.001953
926.115	0.002043
935.761	0.002143
945.408	0.002313
955.054	0.002483
964.701	0.002773
974.347	0.003113
983.994	0.003443
993.64	0.003813
1003.29	0.004393
1012.93	0.005553
1022.58	0.007803
1032.23	0.010283
1041.87	0.010953
1051.52	0.009633
1061.17	0.008763
1070.81	0.008493
1080.46	0.008153
1090.11	0.007303
1099.75	0.006843
1109.4	0.007813
1119.05	0.010343
1128.69	0.012593
1138.34	0.012003
1147.99	0.010443
1157.63	0.009463
1167.28	0.008743
1176.92	0.008023
1186.57	0.007313
1196.22	0.007023
1205.86	0.007343
1215.51	0.007673
1225.16	0.007833
1234.8	0.007923
1244.45	0.008213
1254.1	0.008673
1263.74	0.008593
1273.39	0.008363
1283.04	0.008923
1292.68	0.009593
1302.33	0.010533
1311.98	0.010973
1321.62	0.011563
1331.27	0.013713
1340.92	0.017713
1350.56	0.021783
1360.21	0.022253
1369.86	0.017603
1379.5	0.013243
1389.15	0.010873
1398.79	0.008803
1408.44	0.009893
1418.09	0.011773
1427.73	0.012213
1437.38	0.014163
1447.03	0.019353
1456.67	0.025563
1466.32	0.024393
1475.97	0.014773
1485.61	0.007583
1495.26	0.004563
1504.91	0.003023
1514.55	0.002283
1524.2	0.001793
1533.85	0.0014525
1543.49	0.0011995
1553.14	0.0011359
1562.79	0.0009544
1572.43	0.0009087
1582.08	0.00087619
1591.73	0.00082795
1601.37	0.00085021
1611.02	0.0009182
1620.67	0.0010263
1630.31	0.0011719
1639.96	0.0013184
1649.6	0.001566
1659.25	0.002083
1668.9	0.003003
1678.54	0.004683
1688.19	0.007443
1697.84	0.013283
1707.48	0.027813
1717.13	0.054223
1726.78	0.066713
1736.42	0.036773
1746.07	0.014813
1755.72	0.006913
1765.36	0.003803
1775.01	0.002433
1784.66	0.0016674
1794.3	0.0011952
1803.95	0.0008964
1813.6	0.0006986
1823.24	0.000544
1832.89	0.000455
1842.54	0.000369
1852.18	0.000319
1861.83	0.000257
1871.47	0.000209
1881.12	0.000176
1890.77	0.000131
1900.41	9.5e-05
1910.06	8.6e-05
1919.71	5.9e-05
1929.35	7.6e-05
1939	3.1e-05
1948.65	3.7e-05
1958.29	5.2e-05
1967.94	5.4e-05
1977.59	9.8e-05
1987.23	1.2e-05
1996.88	8.9e-05
2006.53	0.000159
2016.17	0.000199
2025.82	0.000312
2035.47	0.000351
2045.11	0.000365
2054.76	0.000321
2064.41	0.000285
2074.05	0.000229
2083.7	0.000182
2093.35	0.000166
2102.99	0.000174
2112.64	0.000223
2122.28	0.000205
2131.93	0.000261
2141.58	0.000226
2151.22	0.000278
2160.87	0.000295
2170.52	0.000258
2180.16	0.000339
2189.81	0.000307
2199.46	0.000298
2209.1	0.000306
2218.75	0.000309
2228.4	0.000331
2238.04	0.000219
2247.69	0.000251
2257.34	0.000291
2266.98	0.000273
2276.63	0.000321
2286.28	0.000333
2295.92	0.00033
2305.57	0.00032
2315.22	0.000343
2324.86	0.000309
2334.51	0.000255
2344.16	0.000317
2353.8	0.000328
2363.45	0.000331
2373.09	0.000372
2382.74	0.00036
2392.39	0.000376
2402.03	0.000426
2411.68	0.000397
2421.33	0.000383
2430.97	0.000355
2440.62	0.000329
2450.27	0.000307
2459.91	0.000328
2469.56	0.000345
2479.21	0.000345
2488.85	0.00037
2498.5	0.000431
2508.15	0.000467
2517.79	0.000544
2527.44	0.000611
2537.09	0.000648
2546.73	0.0007561
2556.38	0.0007785
2566.03	0.00083763
2575.67	0.0009587
2585.32	0.0010041
2594.96	0.0010795
2604.61	0.0012564
2614.26	0.0013164
2623.9	0.0015453
2633.55	0.0016163
2643.2	0.001853
2652.84	0.002113
2662.49	0.002413
2672.14	0.002683
2681.78	0.002773
2691.43	0.002713
2701.08	0.002413
2710.72	0.002483
2720.37	0.002643
2730.02	0.002823
2739.66	0.003323
2749.31	0.003643
2758.96	0.003813
2768.6	0.004163
2778.25	0.004823
2787.9	0.005853
2797.54	0.007443
2807.19	0.009453
2816.84	0.011813
2826.48	0.015443
2836.13	0.021413
2845.77	0.036163
2855.42	0.074433
2865.07	0.105393
2874.71	0.090263
2884.36	0.081253
2894.01	0.079073
2903.65	0.095053
2913.3	0.132803
2922.95	0.208783
2932.59	0.285153
2942.24	0.235943
2951.89	0.162463
2961.53	0.140033
2971.18	0.120733
2980.83	0.064003
2990.47	0.034183
3000.12	0.021233
3009.77	0.014593
3019.41	0.010903
3029.06	0.008683
3038.71	0.007083
3048.35	0.005813
3058	0.004893
3067.64	0.004243
3077.29	0.003673
3086.94	0.003363
3096.58	0.003013
3106.23	0.002733
3115.88	0.002473
3125.52	0.002073
3135.17	0.001883
3144.82	0.001933
3154.46	0.001933
3164.11	0.0017714
3173.76	0.0017107
3183.4	0.0015705
3193.05	0.0014943
3202.7	0.0013363
3212.34	0.0012603
3221.99	0.0010903
3231.64	0.00081823
3241.28	0.000948
3250.93	0.00087959
3260.58	0.00079586
3270.22	0.0007568
3279.87	0.0008381
3289.52	0.0006934
3299.16	0.0007155
3308.81	0.000641
3318.45	0.0007291
3328.1	0.0009413
3337.75	0.00079743
3347.39	0.0010102
3357.04	0.0009253
3366.69	0.000790685
3376.33	0.0008866
3385.98	0.0010474
3395.63	0.0012425
3405.27	0.0013285
3414.92	0.0014116
3424.57	0.001803
3434.21	0.0017085
3443.86	0.0013919
3453.51	0.0009918
3463.15	0.00061
3472.8	0.000578
3482.45	0.000557
3492.09	0.000487
3501.74	0.000445
3511.39	0.000386
3521.03	0.00056
3530.68	0.000451
3540.33	0.00042
3549.97	0.000345
3559.62	0.000408
3569.26	0.00039
3578.91	0.000344
3588.56	0.000348
3598.2	0.000415
3607.85	0.000445
3617.5	0.0007007
3627.14	0.000532
3636.79	0.000577
3646.44	0.000641
3656.08	0.000589
3665.73	0.000557
3675.38	0.000449
3685.02	0.000628
3694.67	0.0006932
3704.32	0.0006997
3713.96	0.000517
3723.61	0.00048
3733.26	0.000546
3742.9	0.000607
3752.55	0.000562
3762.2	0.000526
3771.84	0.000528
3781.49	0.000563
3791.13	0.000633
3800.78	0.000673
3810.43	0.000657
3820.07	0.000488
3829.72	0.000471
3839.37	0.000626
3849.01	0.000655
3858.66	0.000626
3868.31	0.000643
3877.95	0.000572
3887.6	0.000637
3897.25	0.000517
3906.89	0.000593
3916.54	0.000621
3926.19	0.000623
3935.83	0.0007051
3945.48	0.000635
3955.13	0.00078059
3964.77	0.00082274
3974.42	0.00077489
3984.07	0.00082551
3993.71	0.0009348
