Infrared Spectrum: 1,5-Dimethyl-1,4-cyclohexadiene
Formula: C 8 H 12
CAS: 4190-06-1
State: gas
Instrument: HP-GC/MS/IRD
Origin: NIST Mass Spectrometry Data Center
1/CM	ABSORBANCE
550	0.0002223
562	4.23e-05
574	0.0002043
586	0.0002124
598	0.0002817
610	0.0002007
622	0.00027
634	0.0001872
646	0.0002655
658	0.0002547
670	0.0002052
682	0.0003042
694	0.0002223
706	0.0002691
718	0.0002565
730	0.0004608
742	0.0008406
754	0.0014832
766	0.0013293
778	0.001089
790	0.0005904
802	0.0003834
814	0.000252
826	0.0003186
838	0.0003339
850	0.0002817
862	0.0002763
874	0.0003591
886	0.0004959
898	0.0006606
910	0.0009531
922	0.001116
934	0.0010314
946	0.0013689
958	0.0015912
970	0.0011475
982	0.0007551
994	0.0005004
1006	0.0004572
1018	0.000432
1030	0.0004752
1042	0.0006768
1054	0.000666
1066	0.0004347
1078	0.0002367
1090	0.0002826
1102	0.0003087
1114	0.000504
1126	0.000594
1138	0.0003492
1150	0.0001899
1162	0.0002106
1174	0.000225
1186	0.0002781
1198	0.0002745
1210	0.0002961
1222	0.0003213
1234	0.0001899
1246	0.000198
1258	0.0002178
1270	0.0002745
1282	0.0003024
1294	0.0002889
1306	0.0002988
1318	0.000297
1330	0.000306
1342	0.0003231
1354	0.0003897
1366	0.0006759
1378	0.0013572
1390	0.0016614
1402	0.0009648
1414	0.0007605
1426	0.0011547
1438	0.0017064
1450	0.0020574
1462	0.0016407
1474	0.0008811
1486	0.0004896
1498	0.0003636
1510	0.0003033
1522	0.000261
1534	0.0002502
1546	0.0002169
1558	0.0002079
1570	0.0002412
1582	0.0002691
1594	0.0003312
1606	0.0003339
1618	0.000351
1630	0.0003717
1642	0.0003636
1654	0.0002952
1666	0.0002871
1678	0.0002853
1690	0.0003969
1702	0.0004095
1714	0.0003321
1726	0.000225
1738	0.0001827
1750	0.0001674
1762	0.0001386
1774	0.0001152
1786	9.09e-05
1798	9.27e-05
1810	9.63e-05
1822	0.0001089
1834	0.0001224
1846	0.0001179
1858	0.000153
1870	0.0001278
1882	0.0001053
1894	0.0001143
1906	0.0001071
1918	8.01e-05
1930	8.64e-05
1942	7.65e-05
1954	9.54e-05
1966	7.92e-05
1978	9.18e-05
1990	5.22e-05
2002	7.2e-05
2014	8.46e-05
2026	7.83e-05
2038	9.72e-05
2050	8.55e-05
2062	8.64e-05
2074	8.46e-05
2086	5.04e-05
2098	8.46e-05
2110	5.04e-05
2122	3.96e-05
2134	6.3e-05
2146	2.07e-05
2158	4.86e-05
2170	3.78e-05
2182	5.67e-05
2194	4.05e-05
2206	5.31e-05
2218	3.51e-05
2230	7.11e-05
2242	3.96e-05
2254	4.59e-05
2266	6.75e-05
2278	5.85e-05
2290	3.69e-05
2302	8.1e-06
2314	1.44e-05
2326	5.31e-05
2338	2.07e-05
2350	5.4e-05
2362	1.62e-05
2374	4.32e-05
2386	2.88e-05
2398	5.13e-05
2410	8.1e-05
2422	8.37e-05
2434	8.55e-05
2446	0.0001017
2458	7.74e-05
2470	3.78e-05
2482	5.58e-05
2494	8.64e-05
2506	0.0001359
2518	8.55e-05
2530	7.29e-05
2542	0.0001197
2554	0.0001278
2566	0.0001062
2578	0.0001017
2590	9.54e-05
2602	0.000135
2614	0.0001287
2626	0.0001494
2638	0.000234
2650	0.0002772
2662	0.0002844
2674	0.0002547
2686	0.0002367
2698	0.0001863
2710	0.0002817
2722	0.0004158
2734	0.0006534
2746	0.0007254
2758	0.000666
2770	0.0006651
2782	0.0007839
2794	0.001197
2806	0.0022014
2818	0.0042669
2830	0.0058365
2842	0.0064206
2854	0.0073944
2866	0.009
2878	0.008055
2890	0.0069066
2902	0.0055206
2914	0.0054675
2926	0.0060579
2938	0.0062334
2950	0.0043551
2962	0.0051021
2974	0.0055683
2986	0.004662
2998	0.0031905
3010	0.0029052
3022	0.0029574
3034	0.0029934
3046	0.0021069
3058	0.0012186
3070	0.0008838
3082	0.0007488
3094	0.0006435
3106	0.0005364
3118	0.0004689
3130	0.0003285
3142	0.0002466
3154	0.0001998
3166	0.0001953
3178	0.0001863
3190	0.0001908
3202	0.0002187
3214	0.0001953
3226	0.0001575
3238	0.0001737
3250	0.0001404
3262	0.0001404
3274	0.0001548
3286	0.0001161
3298	0.0001386
3310	0.0001206
3322	0.0001665
3334	0.0001593
3346	0.000198
3358	0.0001845
3370	0.0001107
3382	9.9e-05
3394	0.0001071
3406	0.0001017
3418	0.0001728
3430	7.47e-05
3442	0.0001089
3454	0.0001215
3466	0.0001017
3478	0.0001368
3490	0.0001314
3502	0.0001323
3514	7.65e-05
3526	0.000153
3538	0.0001233
3550	0.000171
3562	1.8e-05
3574	0.0001107
3586	0.0001008
3598	0.0001161
3610	0.0001926
3622	0.0001314
3634	0.0001143
3646	9.36e-05
3658	3.33e-05
3670	0.0002115
3682	0.000171
3694	0.0001521
3706	0.0001323
3718	0.0001323
3730	0.0001359
3742	0.0001584
3754	0.0001917
3766	0.0001539
3778	0.0002097
3790	0.0001746
3802	0.0001683
3814	8.64e-05
3826	0.0002016
3838	0.000225
