Infrared Spectrum: 3,4-Dimethyl-o-phenylenediamine
Formula: C 8 H 12 N 2
CAS: 41927-01-9
State: gas
Origin: EPA-IR VAPOR PHASE LIBRARY
1/CM	ABSORBANCE
549.8	0.0242364
559.445	0.0266664
569.09	0.0326264
578.734	0.0354564
588.379	0.0329564
598.024	0.0324064
607.669	0.0337164
617.313	0.0362464
626.958	0.0388364
636.603	0.0415064
646.248	0.0432064
655.893	0.0450564
665.537	0.0501564
675.182	0.0568264
684.827	0.0611164
694.472	0.0584364
704.116	0.0503364
713.761	0.0409364
723.406	0.0351564
733.051	0.0329264
742.695	0.0341764
752.34	0.0350964
761.985	0.0335264
771.63	0.0351164
781.275	0.0451564
790.919	0.0611764
800.564	0.0503964
810.209	0.0355464
819.854	0.0242764
829.498	0.0202064
839.143	0.0182664
848.788	0.0167364
858.433	0.0169464
868.078	0.0159264
877.722	0.0140864
887.367	0.0127264
897.012	0.0121064
906.657	0.0119964
916.301	0.0120364
925.946	0.0113464
935.591	0.0111464
945.236	0.0119164
954.88	0.0125064
964.525	0.0123864
974.17	0.0123464
983.815	0.0119664
993.46	0.0118964
1003.1	0.0120364
1012.75	0.0109064
1022.39	0.0115364
1032.04	0.0108464
1041.68	0.0116264
1051.33	0.0126264
1060.97	0.0154164
1070.62	0.0175264
1080.26	0.0187064
1089.91	0.0190164
1099.55	0.0164664
1109.2	0.0133064
1118.84	0.0130464
1128.49	0.0122064
1138.13	0.0131964
1147.78	0.0141964
1157.42	0.0155964
1167.07	0.0190464
1176.71	0.0184764
1186.36	0.0124364
1196	0.0093264
1205.64	0.0077164
1215.29	0.0098064
1224.93	0.0127664
1234.58	0.0186564
1244.22	0.0207064
1253.87	0.0222464
1263.51	0.0216864
1273.16	0.0298364
1282.8	0.0483264
1292.45	0.0570164
1302.09	0.0421864
1311.74	0.0215964
1321.38	0.0133464
1331.03	0.0089964
1340.67	0.0070464
1350.32	0.0066264
1359.96	0.0064564
1369.61	0.0068064
1379.25	0.0071364
1388.9	0.0073564
1398.54	0.0075864
1408.18	0.0085564
1417.83	0.0111964
1427.47	0.0160864
1437.12	0.0242564
1446.76	0.0335964
1456.41	0.0409064
1466.05	0.0460664
1475.7	0.0542264
1485.34	0.0712564
1494.99	0.0848364
1504.63	0.0679864
1514.28	0.0357364
1523.92	0.0198864
1533.57	0.0153764
1543.21	0.0139164
1552.86	0.0139864
1562.5	0.0157164
1572.15	0.0190764
1581.79	0.0242064
1591.44	0.0331264
1601.08	0.0474964
1610.73	0.0653664
1620.37	0.0717764
1630.01	0.0573964
1639.66	0.0353164
1649.3	0.0208564
1658.95	0.0132464
1668.59	0.0091964
1678.24	0.0072864
1687.88	0.0063664
1697.53	0.0058864
1707.17	0.0054664
1716.82	0.0049164
1726.46	0.0046864
1736.11	0.0045964
1745.75	0.0046164
1755.4	0.0044764
1765.04	0.0042464
1774.69	0.0039264
1784.33	0.0038564
1793.98	0.0040164
1803.62	0.0046264
1813.27	0.0055064
1822.91	0.0054264
1832.55	0.0043064
1842.2	0.0031564
1851.84	0.0024364
1861.49	0.0022964
1871.13	0.0021364
1880.78	0.0020664
1890.42	0.0019264
1900.07	0.0020064
1909.71	0.0021364
1919.36	0.0020964
1929	0.0021864
1938.65	0.0021964
1948.29	0.0020364
1957.94	0.0021364
1967.58	0.0018364
1977.23	0.0017264
1986.87	0.0015264
1996.52	0.0013464
2006.16	0.0013664
2015.81	0.0013264
2025.45	0.0013764
2035.1	0.0014164
2044.74	0.0012264
2054.38	0.0013264
2064.03	0.0013464
2073.67	0.0013764
2083.32	0.0013864
2092.96	0.0013664
2102.61	0.0012864
2112.25	0.0013964
2121.9	0.0012764
2131.54	0.0014164
2141.19	0.0013264
2150.83	0.0013164
2160.48	0.0013264
2170.12	0.0011064
2179.77	0.0011764
2189.41	0.0009401
2199.06	0.0007775
2208.7	0.0009006
2218.35	0.0011964
2227.99	0.0009476
2237.64	0.0010364
2247.28	0.0011764
2256.92	0.0011364
2266.57	0.0012664
2276.21	0.0010864
2285.86	0.0010264
2295.5	0.0010564
2305.15	0.0010564
2314.79	0.0012764
2324.44	0.0011164
2334.08	0.0009454
2343.73	0.0009794
2353.37	0.0009705
2363.02	0.000782
2372.66	0.0007354
2382.31	0.0009652
2391.95	0.000747
2401.6	0.0008352
2411.24	0.0007901
2420.89	0.0007774
2430.53	0.000959
2440.18	0.0010464
2449.82	0.0010964
2459.47	0.0009369
2469.11	0.0010664
2478.75	0.0008721
2488.4	0.000922
2498.04	0.0008343
2507.69	0.0008648
2517.33	0.0006044
2526.98	0.0007486
2536.62	0.0009104
2546.27	0.0008313
2555.91	0.0009759
2565.56	0.0008642
2575.2	0.0009678
2584.85	0.0011264
2594.49	0.0010664
2604.14	0.0011364
2613.78	0.0013464
2623.43	0.0009454
2633.07	0.0010764
2642.72	0.0009227
2652.36	0.0008816
2662.01	0.0010564
2671.65	0.000929
2681.29	0.0008022
2690.94	0.0009494
2700.58	0.0012164
2710.23	0.0012464
2719.87	0.0018064
2729.52	0.0025564
2739.16	0.0032064
2748.81	0.0032164
2758.45	0.0022364
2768.1	0.0021664
2777.74	0.0021964
2787.39	0.0022364
2797.03	0.0025964
2806.68	0.0028464
2816.32	0.0036964
2825.97	0.0045564
2835.61	0.0060864
2845.26	0.0092264
2854.9	0.0156364
2864.55	0.0263464
2874.19	0.0336764
2883.84	0.0319564
2893.48	0.0280064
2903.12	0.0285964
2912.77	0.0358664
2922.41	0.0462864
2932.06	0.0496064
2941.7	0.0429064
2951.35	0.0326464
2960.99	0.0262064
2970.64	0.0246364
2980.28	0.0220064
2989.93	0.0183964
2999.57	0.0183264
3009.22	0.0229964
3018.86	0.0300364
3028.51	0.0329464
3038.15	0.0310964
3047.8	0.0270364
3057.44	0.0202864
3067.09	0.0146064
3076.73	0.0104464
3086.38	0.0077864
3096.02	0.0053064
3105.67	0.0042964
3115.31	0.0029664
3124.95	0.0025564
3134.6	0.0019564
3144.24	0.0019264
3153.89	0.0015364
3163.53	0.0016864
3173.18	0.0013364
3182.82	0.0017064
3192.47	0.0012164
3202.11	0.0010564
3211.76	0.0015764
3221.4	0.0014564
3231.05	0.0012464
3240.69	0.0010119
3250.34	0.0010964
3259.98	0.0007191
3269.63	0.0009085
3279.27	0.0007178
3288.92	0.0010124
3298.56	0.0007916
3308.21	0.0008666
3317.85	0.0010108
3327.49	0.0010127
3337.14	0.0015664
3346.78	0.0031864
3356.43	0.0052964
3366.07	0.0072964
3375.72	0.0073064
3385.36	0.0055764
3395.01	0.0035464
3404.65	0.0028364
3414.3	0.0027764
3423.94	0.0038164
3433.59	0.0059664
3443.23	0.0080964
3452.88	0.0096364
3462.52	0.0120164
3472.17	0.0126864
3481.81	0.0100364
3491.46	0.0065364
3501.1	0.0044064
3510.75	0.0033964
3520.39	0.0028264
3530.04	0.0020364
3539.68	0.0016464
3549.32	0.0016164
3558.97	0.0015464
3568.61	0.0008876
3578.26	0.0007212
3587.9	0.000709
3597.55	0.0006775
3607.19	0.0006092
3616.84	0.0008132
3626.48	0.000887
3636.13	0.0007274
3645.77	0.0005306
3655.42	0.0006379
3665.06	0.0003481
3674.71	0.0006532
3684.35	0.0006385
3694	0.0008913
3703.64	0.0003699
3713.29	0.0001668
3722.93	0.0001463
3732.58	0.0005504
3742.22	0.0003435
3751.86	0.0003811
3761.51	0.0004155
3771.15	0.0006183
3780.8	0.0007019
3790.44	0.0005094
3800.09	0.0004388
3809.73	0.0005864
3819.38	0.000459
3829.02	0.000387
3838.67	0.0005002
3848.31	0.000542
3857.96	0.0009575
3867.6	0.0004958
3877.25	0.0008768
3886.89	0.000233
3896.54	0.0009156
3906.18	0.0004489
3915.83	0.0010264
3925.47	0.0011164
3935.12	0.0009579
3944.76	0.0005169
3954.41	0.0004952
3964.05	0.0007454
3973.69	0.0010153
3983.34	0.0007216
3992.98	0.0009603
