Infrared Spectrum: 5-Chloro-1,10-phenanthroline
Formula: C 12 H 7 Cl N 2
CAS: 4199-89-7
State: gas
Instrument: HP-GC/MS/IRD
Origin: NIST Mass Spectrometry Data Center
1/CM	ABSORBANCE
550	0.0001148
562	7.98e-05
574	0.000259
586	0.000315
598	0.0003836
610	0.002492
622	0.0023072
634	0.0002828
646	0.000126
658	0.000112
670	6.16e-05
682	0.0001666
694	0.0004802
706	0.0008666
718	0.0007252
730	0.005124
742	0.0109494
754	0.002044
766	0.001414
778	0.0037338
790	0.0048972
802	0.0040152
814	0.001071
826	0.0009716
838	0.0005642
850	0.0009436
862	0.004774
874	0.0095088
886	0.0017766
898	0.0006734
910	0.0008008
922	0.002639
934	0.009527
946	0.004725
958	0.0012488
970	0.0011942
982	0.0005082
994	0.0002604
1006	0.0002982
1018	0.0005978
1030	0.0014378
1042	0.0012866
1054	0.0002212
1066	0.0006076
1078	0.0010962
1090	0.0004368
1102	0.0002716
1114	0.0003934
1126	0.0004732
1138	0.0022442
1150	0.0011774
1162	0.001225
1174	0.0007126
1186	0.0010598
1198	0.0010934
1210	0.0008344
1222	0.00049
1234	0.0003976
1246	0.0011116
1258	0.0020384
1270	0.002485
1282	0.0021476
1294	0.0004578
1306	0.000231
1318	0.0001428
1330	0.0002226
1342	0.0003108
1354	0.0008974
1366	0.00273
1378	0.0015134
1390	0.0016884
1402	0.004613
1414	0.014
1426	0.0061264
1438	0.00084
1450	0.0005754
1462	0.0006608
1474	0.0027636
1486	0.0041902
1498	0.0049742
1510	0.0022414
1522	0.0006468
1534	0.0009534
1546	0.0040264
1558	0.0041762
1570	0.0020356
1582	0.0042812
1594	0.0065058
1606	0.0051282
1618	0.0020244
1630	0.0009548
1642	0.0006076
1654	0.0003668
1666	0.0002436
1678	0.0002156
1690	0.0001666
1702	0.00021
1714	0.0004676
1726	0.000798
1738	0.0012278
1750	0.0006244
1762	0.000308
1774	0.0002604
1786	9.8e-05
1798	6.44e-05
1810	0.0001204
1822	6.58e-05
1834	4.34e-05
1846	5.6e-05
1858	0.00014
1870	0.0004116
1882	0.0006748
1894	0.000434
1906	0.000553
1918	0.000637
1930	0.0003626
1942	0.0008708
1954	0.0007336
1966	0.0001582
1978	6.86e-05
1990	6.16e-05
2002	4.9e-05
2014	3.64e-05
2026	1.4e-05
2038	2.24e-05
2050	3.22e-05
2062	4.34e-05
2074	6.44e-05
2086	7.14e-05
2098	9.24e-05
2110	0.0001386
2122	7.7e-05
2134	5.46e-05
2146	5.6e-05
2158	3.92e-05
2170	9.66e-05
2182	8.54e-05
2194	9.24e-05
2206	9.94e-05
2218	0.000105
2230	0.000112
2242	0.000105
2254	6.86e-05
2266	9.52e-05
2278	4.2e-05
2290	7.56e-05
2302	4.62e-05
2314	3.5e-05
2326	0.0001176
2338	0.0001022
2350	2.94e-05
2362	6.72e-05
2374	4.34e-05
2386	1.26e-05
2398	7.84e-05
2410	0.000147
2422	8.82e-05
2434	5.46e-05
2446	6.72e-05
2458	7e-05
2470	0.0001106
2482	8.12e-05
2494	0.0001008
2506	8.68e-05
2518	0.0001106
2530	6.16e-05
2542	4.9e-05
2554	0.0001078
2566	4.34e-05
2578	6.58e-05
2590	9.38e-05
2602	8.4e-05
2614	6.44e-05
2626	0.0001386
2638	7.14e-05
2650	5.46e-05
2662	4.76e-05
2674	3.36e-05
2686	5.18e-05
2698	8.96e-05
2710	5.32e-05
2722	4.76e-05
2734	0.0001022
2746	4.34e-05
2758	6.02e-05
2770	1.96e-05
2782	9.94e-05
2794	4.9e-05
2806	7e-05
2818	8.68e-05
2830	8.54e-05
2842	0.000119
2854	0.0002086
2866	0.0001526
2878	0.0002058
2890	0.0003178
2902	0.0002114
2914	0.000266
2926	0.0003472
2938	0.0004046
2950	0.0004368
2962	0.0004242
2974	0.0004466
2986	0.0008036
2998	0.0012096
3010	0.0021224
3022	0.0040418
3034	0.0047684
3046	0.004984
3058	0.0049784
3070	0.004893
3082	0.0054432
3094	0.0026376
3106	0.0009968
3118	0.0004354
3130	0.0002548
3142	0.0002814
3154	0.0002212
3166	0.000182
3178	0.0001596
3190	0.000154
3202	9.52e-05
3214	7.7e-05
3226	6.16e-05
3238	5.46e-05
3250	6.3e-05
3262	8.4e-05
3274	5.18e-05
3286	8.96e-05
3298	6.02e-05
3310	0.0001036
3322	0.0001232
3334	8.96e-05
3346	9.94e-05
3358	6.58e-05
3370	0.0001106
3382	8.82e-05
3394	7.28e-05
3406	0.0001078
3418	0.0002044
3430	8.12e-05
3442	7.98e-05
3454	7.14e-05
3466	1.54e-05
3478	6.44e-05
3490	9.66e-05
3502	1.96e-05
3514	2.38e-05
3526	8.82e-05
3538	0.000147
3550	4.34e-05
3562	6.58e-05
3574	8.12e-05
3586	6.86e-05
3598	6.86e-05
3610	0.0001204
3622	8.12e-05
3634	9.1e-05
3646	0.0001036
3658	8.26e-05
3670	0.0001218
3682	0.0001386
3694	0.0001176
3706	9.24e-05
3718	4.34e-05
3730	6.72e-05
3742	4.76e-05
3754	0.0001022
3766	6.02e-05
3778	9.52e-05
3790	0.0001932
3802	0.0001652
3814	0.0001526
3826	0.0001778
3838	0.0001134
