Infrared Spectrum: HEPTADECYLAMINE
Formula: C17 H37 N
CAS: 4200-95-7
State: SOLID (SPLIT MULL), FLUOROLUBE FOR 3800-1330 CM^-^1, NUJOL FOR 1330-400 CM^-^1
Class: COBLENTZ III
Instrument: DOW KBr FOREPRISM-GRATING
Instrument parameters: BLAZED AT 3.5, 12.0, 20.0 MICRON AND CHANGED AT 5.0, 7.5, 14.9 MICRON
Sampling: TRANSMISSION
Resolution: 2
Origin: DOW CHEMICAL COMPANY
1/CM	TRANSMITTANCE
397.652	0.879
406.456	0.885
415.26	0.89
424.064	0.896
432.868	0.903
441.673	0.91
450.477	0.914
459.281	0.92
468.085	0.928
476.889	0.934
485.693	0.938
494.497	0.946
503.301	0.945
512.105	0.938
520.91	0.94
529.714	0.947
538.518	0.954
547.322	0.957
556.126	0.957
564.93	0.957
573.734	0.96
582.538	0.962
591.342	0.962
600.147	0.967
608.951	0.969
617.755	0.972
626.559	0.973
635.363	0.972
644.167	0.972
652.971	0.969
661.775	0.965
670.58	0.965
679.384	0.957
688.188	0.946
696.992	0.928
705.796	0.883
714.6	0.655
723.404	0.664
732.208	0.817
741.012	0.881
749.817	0.883
758.621	0.877
767.425	0.865
776.229	0.854
785.033	0.854
793.837	0.859
802.641	0.862
811.445	0.873
820.249	0.866
829.054	0.869
837.858	0.869
846.662	0.864
855.466	0.87
864.27	0.869
873.074	0.864
881.878	0.843
890.682	0.851
899.486	0.853
908.291	0.847
917.095	0.853
925.899	0.839
934.703	0.833
943.507	0.826
952.311	0.851
961.115	0.825
969.919	0.822
978.723	0.85
987.528	0.847
996.332	0.811
1005.14	0.85
1013.94	0.848
1022.74	0.815
1031.55	0.814
1040.35	0.814
1049.16	0.781
1057.96	0.71
1066.76	0.603
1075.57	0.784
1084.37	0.815
1093.18	0.825
1101.98	0.822
1110.79	0.818
1119.59	0.822
1128.39	0.84
1137.2	0.842
1146	0.833
1154.81	0.854
1163.61	0.862
1172.41	0.872
1181.22	0.872
1190.02	0.873
1198.83	0.875
1207.63	0.873
1216.43	0.879
1225.24	0.875
1234.04	0.877
1242.85	0.877
1251.65	0.876
1260.46	0.873
1269.26	0.864
1278.06	0.862
1286.87	0.853
1295.67	0.835
1304.48	0.835
1313.28	0.84
1322.08	0.844
1330.89	0.835
1339.69	0.745
1348.5	0.802
1357.3	0.853
1366.1	0.861
1374.91	0.847
1383.71	0.885
1392.52	0.888
1401.32	0.905
1410.12	0.902
1418.93	0.895
1427.73	0.883
1436.54	0.868
1445.34	0.853
1454.15	0.781
1462.95	0.619
1471.75	0.565
1480.56	0.862
1489.36	0.903
1498.17	0.921
1506.97	0.932
1515.77	0.934
1524.58	0.934
1533.38	0.928
1542.19	0.92
1550.99	0.912
1559.79	0.899
1568.6	0.891
1577.4	0.89
1586.21	0.887
1595.01	0.885
1603.82	0.887
1612.62	0.901
1621.42	0.928
1630.23	0.935
1639.03	0.936
1647.84	0.943
1656.64	0.94
1665.44	0.945
1674.25	0.964
1683.05	0.978
1691.86	0.989
1700.66	0.997
1709.46	1
1718.27	1.002
1727.07	1.008
1735.88	1.012
1744.68	1.012
1753.49	1.015
1762.29	1.012
1771.09	1.01
1779.9	1.006
1788.7	1.005
1797.51	1.006
1806.31	1.008
1815.11	1.006
1823.92	1.005
1832.72	1.005
1841.53	1.004
1850.33	1.004
1859.13	1.004
1867.94	1.004
1876.74	1.004
1885.55	1.004
1894.35	1.002
1903.16	1.005
1911.96	1.006
1920.76	1.006
1929.57	1.004
1938.37	1.002
1947.18	1.004
1955.98	1.002
1964.78	1.002
1973.59	1.001
1982.39	0.998
1991.2	0.994
2000	0.991
2008.8	0.991
2017.61	0.991
2026.41	0.989
2035.22	0.987
2044.02	0.9859
2052.83	0.984
2061.63	0.9839
2070.43	0.982
2079.24	0.9799
2088.04	0.978
2096.85	0.975
2105.65	0.9729
2114.45	0.972
2123.26	0.9707
2132.06	0.968
2140.87	0.9666
2149.67	0.964
2158.47	0.961
2167.28	0.958
2176.08	0.957
2184.89	0.957
2193.69	0.957
2202.5	0.956
2211.3	0.9537
2220.1	0.9497
2228.91	0.943
2237.71	0.9414
2246.52	0.936
2255.32	0.935
2264.12	0.931
2272.93	0.931
2281.73	0.9286
2290.54	0.925
2299.34	0.9274
2308.14	0.932
2316.95	0.9354
2325.75	0.935
2334.56	0.9317
2343.36	0.9329
2352.17	0.935
2360.97	0.935
2369.77	0.932
2378.58	0.931
2387.38	0.928
2396.19	0.928
2404.99	0.928
2413.79	0.927
2422.6	0.925
2431.4	0.925
2440.21	0.925
2449.01	0.924
2457.81	0.924
2466.62	0.921
2475.42	0.921
2484.23	0.92
2493.03	0.9173
2501.83	0.916
2510.64	0.913
2519.44	0.91
2528.25	0.9093
2537.05	0.907
2545.86	0.9063
2554.66	0.9035
2563.46	0.901
2572.27	0.898
2581.07	0.894
2589.88	0.8912
2598.68	0.89
2607.48	0.8842
2616.29	0.8792
2625.09	0.8751
2633.9	0.8721
2642.7	0.8681
2651.5	0.8623
2660.31	0.861
2669.11	0.858
2677.92	0.8541
2686.72	0.8501
2695.53	0.8461
2704.33	0.839
2713.13	0.8291
2721.94	0.82
2730.74	0.806
2739.55	0.796
2748.35	0.7909
2757.15	0.7759
2765.96	0.759
2774.76	0.7478
2783.57	0.7297
2792.37	0.7095
2801.17	0.6831
2809.98	0.6428
2818.78	0.5853
2827.59	0.5002
2836.39	0.3302
2845.2	0.118
2854	0.2708
2862.8	0.467
2871.61	0.467
2880.41	0.4282
2889.22	0.3646
2898.02	0.2682
2906.82	0.1656
2915.63	0.074
2924.43	0.1319
2933.24	0.3242
2942.04	0.4491
2950.84	0.486
2959.65	0.5165
2968.45	0.7197
2977.26	0.8387
2986.06	0.8693
2994.87	0.873
3003.67	0.873
3012.47	0.873
3021.28	0.872
3030.08	0.87
3038.89	0.8696
3047.69	0.866
3056.49	0.862
3065.3	0.862
3074.1	0.862
3082.91	0.861
3091.71	0.859
3100.51	0.859
3109.32	0.858
3118.12	0.857
3126.93	0.855
3135.73	0.854
3144.54	0.848
3153.34	0.847
3162.14	0.847
3170.95	0.847
3179.75	0.848
3188.56	0.8492
3197.36	0.851
3206.16	0.85
3214.97	0.85
3223.77	0.8487
3232.58	0.848
3241.38	0.846
3250.18	0.8433
3258.99	0.84
3267.79	0.8355
3276.6	0.821
3285.4	0.8208
3294.21	0.833
3303.01	0.839
3311.81	0.8352
3320.62	0.8314
3329.42	0.7833
3338.23	0.8173
3347.03	0.8387
3355.83	0.8437
3364.64	0.8527
3373.44	0.8608
3382.25	0.8689
3391.05	0.8729
3399.85	0.8751
3408.66	0.877
3417.46	0.88
3426.27	0.884
3435.07	0.891
3443.88	0.896
3452.68	0.901
3461.48	0.905
3470.29	0.91
3479.09	0.916
3487.9	0.9211
3496.7	0.927
3505.5	0.9321
3514.31	0.939
3523.11	0.945
3531.92	0.9491
3540.72	0.9531
3549.52	0.9571
3558.33	0.958
3567.13	0.957
3575.94	0.956
3584.74	0.965
3593.54	0.967
3602.35	0.973
3611.15	0.9764
3619.96	0.979
3628.76	0.979
3637.57	0.98
3646.37	0.982
3655.17	0.9823
3663.98	0.9845
3672.78	0.989
3681.59	0.989
3690.39	0.989
3699.19	0.989
3708	0.989
3716.8	0.9863
3725.61	0.986
3734.41	0.9853
3743.21	0.9836
3752.02	0.9812
3760.82	0.979
3769.63	0.979
3778.43	0.979
3787.24	0.979
3796.04	0.978
