Infrared Spectrum: Dimethyl acetylmethylphosphonate
Formula: C 5 H 11 O 4 P
CAS: 4202-14-6
State: gas
Origin: EPA-IR VAPOR PHASE LIBRARY
1/CM	ABSORBANCE
549.9	0.00659
559.547	0.00531
569.193	0.00535
578.84	0.00762
588.486	0.00966
598.133	0.00796
607.779	0.00454
617.426	0.00289
627.072	0.0023894
636.719	0.0021874
646.365	0.0020978
656.012	0.0021334
665.658	0.0020572
675.305	0.0022691
684.951	0.0025922
694.598	0.00331
704.245	0.00409
713.891	0.00482
723.538	0.00547
733.184	0.00493
742.831	0.00444
752.477	0.00614
762.124	0.01071
771.77	0.01513
781.417	0.0159
791.063	0.01868
800.71	0.02658
810.356	0.03538
820.003	0.03991
829.649	0.03723
839.296	0.03082
848.943	0.02679
858.589	0.02044
868.236	0.0123
877.882	0.00701
887.529	0.00495
897.175	0.004
906.822	0.00365
916.468	0.00379
926.115	0.00419
935.761	0.00469
945.408	0.00565
955.054	0.00803
964.701	0.0118
974.347	0.01388
983.994	0.01322
993.64	0.01351
1003.29	0.01781
1012.93	0.0279
1022.58	0.05106
1032.23	0.09773
1041.87	0.14248
1051.52	0.14184
1061.17	0.11646
1070.81	0.09199
1080.46	0.05567
1090.11	0.03307
1099.75	0.02507
1109.4	0.02175
1119.05	0.01965
1128.69	0.01714
1138.34	0.01424
1147.99	0.01212
1157.63	0.01177
1167.28	0.01346
1176.92	0.01729
1186.57	0.02128
1196.22	0.02446
1205.86	0.02808
1215.51	0.0337
1225.16	0.03583
1234.8	0.0289
1244.45	0.02097
1254.1	0.02135
1263.74	0.03365
1273.39	0.05447
1283.04	0.06513
1292.68	0.05489
1302.33	0.03364
1311.98	0.01697
1321.62	0.00923
1331.27	0.00717
1340.92	0.00765
1350.56	0.01046
1360.21	0.01498
1369.86	0.0155
1379.5	0.01111
1389.15	0.0095
1398.79	0.00954
1408.44	0.00835
1418.09	0.00697
1427.73	0.00643
1437.38	0.0064
1447.03	0.00683
1456.67	0.00708
1466.32	0.00643
1475.97	0.00566
1485.61	0.0047
1495.26	0.00395
1504.91	0.00365
1514.55	0.00353
1524.2	0.00366
1533.85	0.00376
1543.49	0.00378
1553.14	0.00362
1562.79	0.00338
1572.43	0.00317
1582.08	0.003
1591.73	0.00291
1601.37	0.00314
1611.02	0.00363
1620.67	0.00428
1630.31	0.0044
1639.96	0.0037
1649.6	0.00311
1659.25	0.003
1668.9	0.00333
1678.54	0.00411
1688.19	0.00571
1697.84	0.00854
1707.48	0.01444
1717.13	0.02716
1726.78	0.0417
1736.42	0.04049
1746.07	0.02521
1755.72	0.01481
1765.36	0.00925
1775.01	0.00588
1784.66	0.00412
1794.3	0.00333
1803.95	0.00295
1813.6	0.002757
1823.24	0.0026331
1832.89	0.0024928
1842.54	0.0023753
1852.18	0.0022942
1861.83	0.0022243
1871.47	0.0021365
1881.12	0.0021147
1890.77	0.0020032
1900.41	0.00187733
1910.06	0.001754
1919.71	0.001649
1929.35	0.001561
1939	0.00141
1948.65	0.001337
1958.29	0.001325
1967.94	0.001277
1977.59	0.001269
1987.23	0.001311
1996.88	0.001266
2006.53	0.001293
2016.17	0.001193
2025.82	0.001192
2035.47	0.001133
2045.11	0.001114
2054.76	0.001149
2064.41	0.001193
2074.05	0.001232
2083.7	0.001289
2093.35	0.001277
2102.99	0.001216
2112.64	0.0012
2122.28	0.001137
2131.93	0.001129
2141.58	0.001049
2151.22	0.00101
2160.87	0.000978
2170.52	0.000934
2180.16	0.000973
2189.81	0.000963
2199.46	0.000954
2209.1	0.000958
2218.75	0.00095
2228.4	0.00089
2238.04	0.000937
2247.69	0.0009
2257.34	0.00087
2266.98	0.00087
2276.63	0.00084
2286.28	0.00086
2295.92	0.00084
2305.57	0.00086
2315.22	0.00084
2324.86	0.00087
2334.51	0.000916
2344.16	0.000883
2353.8	0.00086
2363.45	0.000881
2373.09	0.00082
2382.74	0.00083
2392.39	0.00081
2402.03	0.0008
2411.68	0.0008
2421.33	0.00079
2430.97	0.00078
2440.62	0.0008
2450.27	0.00076
2459.91	0.00076
2469.56	0.00074
2479.21	0.00073
2488.85	0.00079
2498.5	0.00079
2508.15	0.00073
2517.79	0.00081
2527.44	0.00076
2537.09	0.00081
2546.73	0.00081
2556.38	0.00078
2566.03	0.00083
2575.67	0.00084
2585.32	0.00078
2594.96	0.00085
2604.61	0.00079
2614.26	0.00077
2623.9	0.00077
2633.55	0.00073
2643.2	0.0008
2652.84	0.00078
2662.49	0.00073
2672.14	0.00069
2681.78	0.0007
2691.43	0.00067
2701.08	0.00071
2710.72	0.0007
2720.37	0.00062
2730.02	0.0006
2739.66	0.00061
2749.31	0.00063
2758.96	0.00061
2768.6	0.00072
2778.25	0.00075
2787.9	0.0008
2797.54	0.000934
2807.19	0.001093
2816.84	0.001342
2826.48	0.0017835
2836.13	0.0024786
2845.77	0.00454
2855.42	0.00861
2865.07	0.00932
2874.71	0.00564
2884.36	0.00378
2894.01	0.00372
2903.65	0.00433
2913.3	0.00559
2922.95	0.00676
2932.59	0.00757
2942.24	0.00943
2951.89	0.01715
2961.53	0.02511
2971.18	0.02102
2980.83	0.01177
2990.47	0.00914
3000.12	0.0088
3009.77	0.00926
3019.41	0.00854
3029.06	0.00689
3038.71	0.0052
3048.35	0.00432
3058	0.0039
3067.64	0.0038
3077.29	0.00357
3086.94	0.00297
3096.58	0.0026685
3106.23	0.0021127
3115.88	0.001639
3125.52	0.001369
3135.17	0.001125
3144.82	0.00087
3154.46	0.00076
3164.11	0.00054
3173.76	0.00055
3183.4	0.00031
3193.05	0.00027
3202.7	0.0002
3212.34	0.00026
3221.99	0.0003
3231.64	0.00031
3241.28	0.00025
3250.93	9e-05
3260.58	7e-05
3270.22	0.0002
3279.87	0.00029
3289.52	7e-05
3299.16	0.00025
3308.81	0.00032
3318.45	0.00031
3328.1	0.00038
3337.75	0.00023
3347.39	0.00023
3357.04	0.00034
3366.69	0.00045
3376.33	0.00038
3385.98	0.00037
3395.63	0.00068
3405.27	0.0005
3414.92	0.00068
3424.57	0.000897
3434.21	0.001154
3443.86	0.001307
3453.51	0.001232
3463.15	0.00084
3472.8	0.00074
3482.45	0.00085
3492.09	0.00066
3501.74	0.00063
3511.39	0.00056
3521.03	0.0007
3530.68	0.00066
3540.33	0.00068
3549.97	0.00066
3559.62	0.00062
3569.26	0.00082
3578.91	0.00079
3588.56	0.00076
3598.2	0.00075
3607.85	0.00075
3617.5	0.00084
3627.14	0.00066
3636.79	0.00076
3646.44	0.000894
3656.08	0.00087
3665.73	0.000908
3675.38	0.00083
3685.02	0.000919
3694.67	0.000903
3704.32	0.00081
3713.96	0.000975
3723.61	0.00076
3733.26	0.00086
3742.9	0.000943
3752.55	0.00085
3762.2	0.001051
3771.84	0.00083
3781.49	0.000984
3791.13	0.000984
3800.78	0.001022
3810.43	0.000993
3820.07	0.000922
3829.72	0.00082
3839.37	0.000972
3849.01	0.00088
3858.66	0.000969
3868.31	0.000914
3877.95	0.000981
3887.6	0.001008
3897.25	0.001062
3906.89	0.000955
3916.54	0.000992
3926.19	0.000979
3935.83	0.000922
3945.48	0.001001
3955.13	0.001001
3964.77	0.00098
3974.42	0.001076
3984.07	0.001006
3993.71	0.001136
