Infrared Spectrum: Silane, chlorophenyl-,
Formula: C6 H7 Cl Si
CAS: 4206-75-1
State: SOLUTION (11% CCl4 FOR 3800-1300, 3% CS2 FOR 1300-650, AND 11% CCl4 FOR 650-250)
Boiling point: 163 C
Class: COBLENTZ III
Instrument: PERKIN-ELMER 521 (GRATING)
Instrument parameters: FILTERS AT 3150, 2500, 2000, 1150, 700, 410. GRATING CHANGES: 2000, 630
Path length: 0.012 CM, 0.010 CM, AND 0.011 CM
Resolution: 2
Origin: DOW CORNING CORP.
1/CM	TRANSMITTANCE
261	0.8209
270	0.823
279	0.8277
288	0.8399
297	0.8501
306	0.8568
315	0.8612
324	0.8639
333	0.8636
342	0.8601
351	0.8582
360	0.8346
369	0.7785
378	0.6328
387	0.4674
396	0.6552
405	0.7685
414	0.8112
423	0.8031
432	0.7552
441	0.6627
450	0.5807
459	0.7052
468	0.7789
477	0.7935
486	0.7937
495	0.774
504	0.7262
513	0.5253
522	0.0794
531	0
540	0.2404
549	0.5718
558	0.6685
567	0.6396
576	0.5648
585	0.2417
594	0.1701
603	0.5629
612	0.6018
621	0.5817
630	0.688
639	0.6544
648	0.7471
657	0.885
666	0.8677
675	0.8452
684	0.783
693	0.5355
702	0.5405
711	0.7081
720	0.8035
729	0.7589
738	0.6602
747	0.7537
756	0.864
765	0.8779
774	0.8835
783	0.8767
792	0.8728
801	0.873
810	0.8653
819	0.8388
828	0.7854
837	0.6647
846	0.1834
855	0.0958
864	0.5638
873	0.7353
882	0.8399
891	0.8367
900	0.8145
909	0.7682
918	0.6976
927	0.5118
936	0.3223
945	0.4849
954	0.7582
963	0.8342
972	0.8644
981	0.8671
990	0.8666
999	0.8645
1008	0.8667
1017	0.8654
1026	0.8617
1035	0.8553
1044	0.8457
1053	0.8304
1062	0.8126
1071	0.799
1080	0.8008
1089	0.8187
1098	0.817
1107	0.7805
1116	0.4563
1125	0.7588
1134	0.8468
1143	0.8569
1152	0.8573
1161	0.8635
1170	0.8624
1179	0.8565
1188	0.8647
1197	0.873
1206	0.8766
1215	0.8712
1224	0.8698
1233	0.8691
1242	0.8684
1251	0.8683
1260	0.8688
1269	0.8694
1278	0.8668
1287	0.8591
1296	0.8297
1305	0.7945
1314	0.8444
1323	0.8095
1332	0.6293
1341	0.8688
1350	0.8665
1359	0.8529
1368	0.8077
1377	0.841
1386	0.8447
1395	0.8331
1404	0.8222
1413	0.7867
1422	0.4908
1431	0.2063
1440	0.7961
1449	0.8271
1458	0.8505
1467	0.857
1476	0.8356
1485	0.7676
1494	0.874
1503	0.8747
1512	0.873
1521	0.868
1530	0.8589
1539	0.8548
1548	0.8583
1557	0.8586
1566	0.8464
1575	0.8239
1584	0.7567
1593	0.8316
1602	0.8655
1611	0.8636
1620	0.8715
1629	0.881
1638	0.8749
1647	0.8689
1656	0.8638
1665	0.8706
1674	0.8803
1683	0.8809
1692	0.8752
1701	0.881
1710	0.8796
1719	0.8868
1728	0.8894
1737	0.8906
1746	0.8909
1755	0.8757
1764	0.8522
1773	0.8749
1782	0.8929
1791	0.8929
1800	0.8813
1809	0.8462
1818	0.7975
1827	0.8661
1836	0.8725
1845	0.8914
1854	0.8936
1863	0.893
1872	0.8753
1881	0.8074
1890	0.8568
1899	0.8384
1908	0.873
1917	0.8967
1926	0.8992
1935	0.8953
1944	0.8711
1953	0.8082
1962	0.8661
1971	0.8535
1980	0.8827
1989	0.8992
1998	0.9037
2007	0.9101
2016	0.9134
2025	0.9132
2034	0.9129
2043	0.9123
2052	0.9116
2061	0.9101
2070	0.9081
2079	0.9045
2088	0.8959
2097	0.8832
2106	0.8609
2115	0.8283
2124	0.7537
2133	0.6768
2142	0.5337
2151	0.3758
2160	0.2179
2169	0.06
2178	0.0011
2187	0.0023
2196	0.0218
2205	0.1528
2214	0.3317
2223	0.5075
2232	0.5989
2241	0.763
2250	0.8083
2259	0.8502
2268	0.8735
2277	0.884
2286	0.8911
2295	0.8979
2304	0.9004
2313	0.8983
2322	0.901
2331	0.8999
2340	0.8952
2349	0.8972
2358	0.9025
2367	0.9101
2376	0.9131
2385	0.9114
2394	0.911
2403	0.9131
2412	0.9148
2421	0.9164
2430	0.9168
2439	0.9169
2448	0.9161
2457	0.9152
2466	0.9142
2475	0.9131
2484	0.9115
2493	0.9095
2502	0.9111
2511	0.9104
2520	0.9101
2529	0.9092
2538	0.9084
2547	0.9076
2556	0.9069
2565	0.9062
2574	0.9058
2583	0.9047
2592	0.9043
2601	0.9034
2610	0.9002
2619	0.8994
2628	0.9149
2637	0.9135
2646	0.9115
2655	0.9101
2664	0.9087
2673	0.9071
2682	0.9049
2691	0.9024
2700	0.8987
2709	0.8953
2718	0.9029
2727	0.9061
2736	0.9074
2745	0.9068
2754	0.905
2763	0.9018
2772	0.8983
2781	0.8951
2790	0.8924
2799	0.8908
2808	0.8866
2817	0.8795
2826	0.8687
2835	0.8716
2844	0.8674
2853	0.8541
2862	0.8791
2871	0.8868
2880	0.885
2889	0.8719
2898	0.8573
2907	0.8441
2916	0.8224
2925	0.8091
2934	0.8209
2943	0.844
2952	0.8351
2961	0.7738
2970	0.8
2979	0.843
2988	0.8408
2997	0.8159
3006	0.6786
3015	0.643
3024	0.6322
3033	0.7006
3042	0.7238
3051	0.6028
3060	0.5032
3069	0.5561
3078	0.4256
3087	0.6453
3096	0.7367
3105	0.8465
3114	0.875
3123	0.88
3132	0.8686
3141	0.8679
3150	0.9061
3159	0.9157
3168	0.92
3177	0.9191
3186	0.9233
3195	0.93
3204	0.9332
3213	0.9346
3222	0.9343
3231	0.934
3240	0.9339
3249	0.9337
3258	0.9336
3267	0.9338
3276	0.934
3285	0.9337
3294	0.9327
3303	0.9316
3312	0.9306
3321	0.9296
3330	0.9287
3339	0.9279
3348	0.9272
3357	0.9264
3366	0.9257
3375	0.9249
3384	0.9245
3393	0.9246
3402	0.9248
3411	0.925
3420	0.9253
3429	0.9258
3438	0.9265
3447	0.927
3456	0.9277
3465	0.9277
3474	0.9277
3483	0.9277
3492	0.9277
3501	0.9277
3510	0.9276
3519	0.9274
3528	0.9273
3537	0.9271
3546	0.9267
3555	0.9263
3564	0.926
3573	0.9255
3582	0.9252
3591	0.9249
3600	0.9247
3609	0.9244
3618	0.9242
3627	0.9192
3636	0.9173
3645	0.9179
3654	0.9197
3663	0.9204
3672	0.9179
3681	0.914
3690	0.9208
3699	0.9215
3708	0.9218
3717	0.9226
3726	0.9236
3735	0.918
3744	0.9094
3753	0.906
3762	0.9176
3771	0.9243
3780	0.9261
3789	0.9281
3798	0.9274
3807	0.9225
3816	0.9178
