Infrared Spectrum: 1,2-DIBROMO-1,2-DICHLORO-1,2-DIFLUORO ETHANE
Formula: C2 Br2 Cl2 F2
CAS: 421-69-2
State: SOLUTION (10% CCl4 FOR 5000-1330, 10% CS2 FOR 1330-625 CM^-^1)
Class: COBLENTZ
Instrument: Not specified, most likely a prism, grating, or hybrid spectrometer.
Sampling: TRANSMISSION
Path length: 0.0125 CM, 0.0119 CM
Resolution: 4
Origin: DOW CHEMICAL COMPANY
MICROMETERS	TRANSMITTANCE
2.034	0.899
2.07512	0.899
2.11623	0.899
2.15735	0.899
2.19847	0.899
2.23958	0.899
2.2807	0.899
2.32181	0.899
2.36293	0.899
2.40405	0.902
2.44516	0.901
2.48628	0.902
2.5274	0.901
2.56851	0.897
2.60963	0.904
2.65074	0.899
2.69186	0.899
2.73298	0.897
2.77409	0.889
2.81521	0.889
2.85633	0.889
2.89744	0.89
2.93856	0.887
2.97967	0.883
3.02079	0.89
3.06191	0.889
3.10302	0.887
3.14414	0.89
3.18526	0.89
3.22637	0.894
3.26749	0.894
3.3086	0.892
3.34972	0.89
3.39084	0.894
3.43195	0.897
3.47307	0.897
3.51419	0.894
3.5553	0.897
3.59642	0.897
3.63753	0.895
3.67865	0.897
3.71977	0.897
3.76088	0.897
3.802	0.897
3.84312	0.897
3.88423	0.897
3.92535	0.897
3.96646	0.897
4.00758	0.897
4.0487	0.897
4.08981	0.895
4.13093	0.897
4.17205	0.895
4.21316	0.882
4.25428	0.88
4.29539	0.873
4.33651	0.873
4.37763	0.882
4.41874	0.883
4.45986	0.878
4.50098	0.892
4.54209	0.89
4.58321	0.89
4.62432	0.89
4.66544	0.878
4.70656	0.875
4.74767	0.89
4.78879	0.894
4.82991	0.89
4.87102	0.894
4.91214	0.892
4.95325	0.889
4.99437	0.883
5.03549	0.89
5.0766	0.894
5.11772	0.894
5.15884	0.897
5.19995	0.897
5.24107	0.89
5.28218	0.89
5.3233	0.885
5.36442	0.882
5.40553	0.882
5.44665	0.885
5.48777	0.887
5.52888	0.88
5.57	0.885
5.61111	0.885
5.65223	0.885
5.69335	0.889
5.73446	0.889
5.77558	0.889
5.8167	0.889
5.85781	0.887
5.89893	0.885
5.94004	0.882
5.98116	0.878
6.02228	0.875
6.06339	0.875
6.10451	0.868
6.14563	0.86
6.18674	0.82
6.22786	0.744
6.26897	0.65
6.31009	0.604
6.35121	0.566
6.39232	0.51
6.43344	0.452
6.47456	0.472
6.51567	0.581
6.55679	0.629
6.5979	0.679
6.63902	0.742
6.68014	0.79
6.72125	0.837
6.76237	0.856
6.80349	0.866
6.8446	0.866
6.88572	0.873
6.92683	0.868
6.96795	0.868
7.00907	0.868
7.05018	0.861
7.0913	0.863
7.13242	0.866
7.17353	0.868
7.21465	0.866
7.25576	0.868
7.29688	0.872
7.338	0.873
7.37911	0.877
7.42023	0.877
7.46135	0.875
7.50246	0.87
7.54358	0.866
7.58469	0.873
7.62581	0.873
7.66693	0.877
7.70804	0.88
7.74916	0.877
7.79028	0.878
7.83139	0.88
7.87251	0.878
7.91362	0.875
7.95474	0.878
7.99586	0.878
8.03697	0.88
8.07809	0.882
8.11921	0.88
8.16032	0.875
8.20144	0.872
8.24255	0.873
8.28367	0.875
8.32479	0.875
8.3659	0.87
8.40702	0.865
8.44814	0.86
8.48925	0.861
8.53037	0.861
8.57148	0.829
8.6126	0.764
8.65372	0.699
8.69483	0.701
8.73595	0.735
8.77707	0.733
8.81818	0.641
8.8593	0.435
8.90041	0.213
8.94153	0.242
8.98265	0.3
9.02376	0.216
9.06488	0.052
9.106	0.172
9.14711	0.472
9.18823	0.638
9.22934	0.643
9.27046	0.546
9.31158	0.481
9.35269	0.494
9.39381	0.636
9.43493	0.773
9.47604	0.827
9.51716	0.853
9.55827	0.861
9.59939	0.861
9.64051	0.858
9.68162	0.848
9.72274	0.827
9.76386	0.815
9.80497	0.793
9.84609	0.699
9.8872	0.488
9.92832	0.273
9.96944	0.315
10.0106	0.54
10.0517	0.633
10.0928	0.684
10.1339	0.767
10.175	0.82
10.2161	0.858
10.2573	0.87
10.2984	0.878
10.3395	0.88
10.3806	0.878
10.4217	0.877
10.4628	0.88
10.5039	0.88
10.5451	0.88
10.5862	0.875
10.6273	0.868
10.6684	0.865
10.7095	0.861
10.7506	0.863
10.7918	0.858
10.8329	0.86
10.874	0.86
10.9151	0.853
10.9562	0.844
10.9973	0.808
11.0385	0.757
11.0796	0.715
11.1207	0.701
11.1618	0.711
11.2029	0.737
11.244	0.744
11.2852	0.725
11.3263	0.662
11.3674	0.539
11.4085	0.343
11.4496	0.197
11.4907	0.179
11.5319	0.138
11.573	0.109
11.6141	0.167
11.6552	0.245
11.6963	0.269
11.7374	0.197
11.7786	0.107
11.8197	0.104
11.8608	0.218
11.9019	0.271
11.943	0.261
11.9841	0.378
12.0253	0.554
12.0664	0.636
12.1075	0.682
12.1486	0.703
12.1897	0.713
12.2308	0.715
12.2719	0.709
12.3131	0.701
12.3542	0.682
12.3953	0.646
12.4364	0.558
12.4775	0.412
12.5186	0.213
12.5598	0.134
12.6009	0.139
12.642	0.187
12.6831	0.165
12.7242	0.095
12.7653	0.1
12.8065	0.283
12.8476	0.414
12.8887	0.575
12.9298	0.617
12.9709	0.609
13.012	0.549
13.0532	0.493
13.0943	0.455
13.1354	0.532
13.1765	0.624
13.2176	0.687
13.2587	0.718
13.2999	0.728
13.341	0.726
13.3821	0.713
13.4232	0.699
13.4643	0.68
13.5054	0.629
13.5466	0.559
13.5877	0.474
13.6288	0.307
13.6699	0.163
13.711	0.156
13.7521	0.3
13.7932	0.465
13.8344	0.583
13.8755	0.627
13.9166	0.645
13.9577	0.646
13.9988	0.639
14.0399	0.605
14.0811	0.549
14.1222	0.479
14.1633	0.354
14.2044	0.267
14.2455	0.252
14.2866	0.278
14.3278	0.281
14.3689	0.249
14.41	0.196
14.4511	0.165
14.4922	0.148
14.5333	0.119
14.5745	0.088
14.6156	0.104
14.6567	0.189
14.6978	0.31
14.7389	0.404
14.78	0.476
14.8212	0.506
14.8623	0.517
14.9034	0.523
14.9445	0.529
14.9856	0.539
15.0267	0.537
15.0679	0.537
15.109	0.532
15.1501	0.525
15.1912	0.518
15.2323	0.51
15.2734	0.501
15.3146	0.496
15.3557	0.494
15.3968	0.486
15.4379	0.472
15.479	0.469
15.5201	0.464
15.5612	0.452
15.6024	0.447
15.6435	0.443
15.6846	0.438
15.7257	0.431
15.7668	0.428
15.8079	0.421
15.8491	0.416
15.8902	0.411
15.9313	0.418
