Infrared Spectrum: 1,1,1-Trifluoroacetone
Formula: C 3 H 3 F 3 O
CAS: 421-50-1
State: gas
Instrument: HP-GC/MS/IRD
Origin: NIST Mass Spectrometry Data Center
1/CM	ABSORBANCE
550	0.000416
562	0.0007736
574	0.0007616
586	0.0002968
598	0.0007912
610	0.0011624
622	0.0009128
634	0.0004768
646	0.000204
658	0.0001496
670	8.8e-05
682	0.0001232
694	0.000156
706	0.0001632
718	0.0001864
730	0.000124
742	7.12e-05
754	0.0001968
766	0.000252
778	0.0002472
790	0.000152
802	0.0002016
814	0.000184
826	0.0001
838	0.0001856
850	0.0001952
862	0.0001368
874	0.0001624
886	0.0001392
898	0.0001144
910	0.0002016
922	0.000148
934	0.0003232
946	0.0005024
958	0.000832
970	0.000988
982	0.0009264
994	0.0007232
1006	0.0008288
1018	0.0010808
1030	0.001052
1042	0.0009152
1054	0.0006136
1066	0.0005552
1078	0.0006656
1090	0.0018304
1102	0.0042184
1114	0.0058504
1126	0.0052344
1138	0.0038976
1150	0.0059768
1162	0.008
1174	0.0069392
1186	0.0056496
1198	0.0064008
1210	0.0074
1222	0.00712
1234	0.0043512
1246	0.001572
1258	0.0006656
1270	0.0004288
1282	0.0003968
1294	0.0007752
1306	0.0013448
1318	0.00178
1330	0.0015952
1342	0.0011416
1354	0.0006896
1366	0.0005712
1378	0.0006288
1390	0.0005616
1402	0.0005024
1414	0.0005864
1426	0.0006544
1438	0.0006864
1450	0.0005088
1462	0.000412
1474	0.0004112
1486	0.000292
1498	0.000276
1510	0.0004576
1522	0.0004072
1534	0.0003008
1546	0.00032
1558	0.0003824
1570	0.0002368
1582	0.0002024
1594	0.0001648
1606	0.0001824
1618	0.0001864
1630	0.0001784
1642	0.0001792
1654	0.0002696
1666	0.000172
1678	0.0002216
1690	0.000204
1702	0.0002648
1714	0.0002824
1726	0.000412
1738	0.0006696
1750	0.0012944
1762	0.0024432
1774	0.0032632
1786	0.0030272
1798	0.0015248
1810	0.0005224
1822	0.0002616
1834	0.000164
1846	0.0001488
1858	0.0001088
1870	0.0001408
1882	0.0001464
1894	0.000144
1906	0.0001368
1918	0.0001424
1930	0.0001288
1942	0.0001088
1954	0.0001368
1966	0.0001144
1978	8.64e-05
1990	8.24e-05
2002	8e-05
2014	8.56e-05
2026	0.0001056
2038	0.0001208
2050	8.32e-05
2062	5.84e-05
2074	5.04e-05
2086	7.92e-05
2098	6.4e-05
2110	9.36e-05
2122	0.0001088
2134	7.36e-05
2146	7.68e-05
2158	0.000112
2170	9.6e-05
2182	7.52e-05
2194	0.0001088
2206	0.0001336
2218	6.24e-05
2230	9.76e-05
2242	6.56e-05
2254	0.0001112
2266	6.64e-05
2278	0.0001136
2290	7.28e-05
2302	0.0001232
2314	8.4e-05
2326	0.0001416
2338	0.000148
2350	0.0001088
2362	0.0001296
2374	0.0001312
2386	0.0001256
2398	0.0001536
2410	8.24e-05
2422	8.32e-05
2434	0.0001072
2446	0.00012
2458	8.4e-05
2470	0.0001024
2482	8.16e-05
2494	0.0001208
2506	7.44e-05
2518	4.32e-05
2530	4.8e-06
2542	2.24e-05
2554	3.76e-05
2566	8.4e-05
2578	8.56e-05
2590	7.84e-05
2602	8.56e-05
2614	0.0001128
2626	6.08e-05
2638	9.68e-05
2650	9.2e-05
2662	8.24e-05
2674	0.0001432
2686	5.44e-05
2698	8.16e-05
2710	3.2e-05
2722	0.0001872
2734	4.72e-05
2746	7.36e-05
2758	5.12e-05
2770	0.0001136
2782	0.000112
2794	6.88e-05
2806	0.000116
2818	0.0001184
2830	0.0001384
2842	0.000104
2854	0.0001024
2866	0.000152
2878	8.72e-05
2890	9.28e-05
2902	5.6e-05
2914	0.0001024
2926	4.56e-05
2938	0.0001144
2950	0.000128
2962	0.0001304
2974	5.68e-05
2986	0.0001184
2998	0.0001584
3010	0.0001224
3022	0.0001496
3034	0.0001568
3046	0.000168
3058	0.0001496
3070	0.000232
3082	7.36e-05
3094	0.0001512
3106	7.04e-05
3118	0.0002
3130	0.0001192
3142	0.0001104
3154	0.0001128
3166	3.44e-05
3178	4.56e-05
3190	0.0001416
3202	0.000112
3214	0.0001736
3226	0.0001144
3238	6.48e-05
3250	0.000136
3262	9.6e-05
3274	0.0001104
3286	0.0001072
3298	0.0001496
3310	0.0001016
3322	3.2e-06
3334	0.00016
3346	0.0001304
3358	4.72e-05
3370	0.0001192
3382	3.6e-05
3394	7.2e-05
3406	7.92e-05
3418	8.16e-05
3430	2.24e-05
3442	9.44e-05
3454	9.76e-05
3466	0.0001032
3478	9.92e-05
3490	0.0001064
3502	0.0002424
3514	0.0001584
3526	0.00018
3538	0.000312
3550	0.0001912
3562	0.0001472
3574	0.0001488
3586	0.0003584
3598	0.0001792
3610	0.0002032
3622	0.0002528
3634	0.0001
3646	9.36e-05
3658	0
3670	0.0001104
3682	5.68e-05
3694	0.000112
3706	0.0001504
3718	0.0001752
3730	0.0001392
3742	0.0002672
3754	0.0002544
3766	9.12e-05
3778	4.88e-05
3790	5.6e-06
3802	0.0001112
3814	0.0001184
3826	9.68e-05
3838	0.000152
