Infrared Spectrum: 4-(tert-Butyl)benzonitrile
Formula: C 11 H 13 N
CAS: 4210-32-6
State: gas
Origin: EPA-IR VAPOR PHASE LIBRARY
1/CM	ABSORBANCE
549.8	0.010657
559.445	0.020877
569.09	0.024517
578.734	0.015127
588.379	0.006007
598.024	0.0013184
607.669	0.000815
617.313	0.001737
626.958	0.0008663
636.603	0.0010041
646.248	0.002017
655.893	0.001053
665.537	0.002147
675.182	0.002297
684.827	0.001817
694.472	0.0015125
704.116	0.0010199
713.761	0.000546698
723.406	0.0013181
733.051	0.002107
742.695	0.002537
752.34	0.001677
761.985	0.002197
771.63	0.003107
781.275	0.002277
790.919	0.002817
800.564	0.004377
810.209	0.007387
819.854	0.015387
829.498	0.031387
839.143	0.037757
848.788	0.021147
858.433	0.007507
868.078	0.002617
877.722	0.0011826
887.367	0.001607
897.012	0.0014155
906.657	0.002117
916.301	0.002657
925.946	0.002867
935.591	0.001707
945.236	0.001817
954.88	0.0008535
964.525	0.0012628
974.17	0.00123
983.815	0.00061094
993.46	0.002037
1003.1	0.003617
1012.75	0.009457
1022.39	0.010557
1032.04	0.003347
1041.68	0.001957
1051.33	0.003037
1060.97	0.000733
1070.62	0.001657
1080.26	0.0013924
1089.91	0.004517
1099.55	0.014687
1109.2	0.014977
1118.84	0.004927
1128.49	0.003657
1138.13	0.004197
1147.78	0.002847
1157.42	0.001877
1167.07	0.001677
1176.71	0.002567
1186.36	0.003697
1196	0.006577
1205.64	0.005677
1215.29	0.004057
1224.93	0.004137
1234.58	0.004627
1244.22	0.005737
1253.87	0.010997
1263.51	0.019937
1273.16	0.015017
1282.8	0.005637
1292.45	0.002607
1302.09	0.001877
1311.74	0.001727
1321.38	0.0015045
1331.03	0.001827
1340.67	0.002777
1350.32	0.005397
1359.96	0.012087
1369.61	0.019147
1379.25	0.017667
1388.9	0.014507
1398.54	0.015607
1408.18	0.011457
1417.83	0.006787
1427.47	0.004497
1437.12	0.004197
1446.76	0.006517
1456.41	0.011057
1466.05	0.015567
1475.7	0.017277
1485.34	0.017567
1494.99	0.024367
1504.63	0.030367
1514.28	0.016517
1523.92	0.008727
1533.57	0.003617
1543.21	0.002437
1552.86	0.002077
1562.5	0.001747
1572.15	0.0014581
1581.79	0.002007
1591.44	0.004877
1601.08	0.012757
1610.73	0.016357
1620.37	0.007747
1630.01	0.002667
1639.66	0.002067
1649.3	0.002827
1658.95	0.003467
1668.59	0.003527
1678.24	0.002747
1687.88	0.001476
1697.53	0.0011706
1707.17	0.0012417
1716.82	0.0011403
1726.46	0.0010951
1736.11	0.0012349
1745.75	0.0010416
1755.4	0.0012616
1765.04	0.001537
1774.69	0.002557
1784.33	0.003607
1793.98	0.002917
1803.62	0.001577
1813.27	0.0013948
1822.91	0.0011384
1832.55	0.0010734
1842.2	0.0007804
1851.84	0.0010641
1861.49	0.0009272
1871.13	0.0011744
1880.78	0.0014042
1890.42	0.002137
1900.07	0.002897
1909.71	0.003307
1919.36	0.003167
1929	0.002157
1938.65	0.0013195
1948.29	0.0012862
1957.94	0.0009168
1967.58	0.0007819
1977.23	0.0007129
1986.87	0.0008039
1996.52	0.0008385
2006.16	0.0007052
2015.81	0.0010378
2025.45	0.0008005
2035.1	0.0009637
2044.74	0.0010264
2054.38	0.0007999
2064.03	0.0007169
2073.67	0.0008593
2083.32	0.0008125
2092.96	0.0007782
2102.61	0.0005163
2112.25	0.0007787
2121.9	0.0007388
2131.54	0.000408
2141.19	0.0007197
2150.83	0.0008267
2160.48	0.0007602
2170.12	0.0009459
2179.77	0.0010079
2189.41	0.0012506
2199.06	0.0011915
2208.7	0.001957
2218.35	0.006637
2227.99	0.018437
2237.64	0.017957
2247.28	0.003327
2256.92	0.0012976
2266.57	0.0012881
2276.21	0.0009253
2285.86	0.0011843
2295.5	0.001226
2305.15	0.0012218
2314.79	0.0011076
2324.44	0.0011417
2334.08	0.0007535
2343.73	0.0012165
2353.37	0.0011271
2363.02	0.0015021
2372.66	0.0014519
2382.31	0.0010379
2391.95	0.0012109
2401.6	0.0010988
2411.24	0.00129
2420.89	0.0012375
2430.53	0.0010275
2440.18	0.0009565
2449.82	0.0008392
2459.47	0.0006879
2469.11	0.0008024
2478.75	0.0010034
2488.4	0.00055348
2498.04	0.0010228
2507.69	0.0009491
2517.33	0.0010994
2526.98	0.0008347
2536.62	0.0011116
2546.27	0.0013581
2555.91	0.001523
2565.56	0.0012684
2575.2	0.0010962
2584.85	0.0011808
2594.49	0.0007679
2604.14	0.0009405
2613.78	0.0012175
2623.43	0.001267
2633.07	0.0012517
2642.72	0.0006376
2652.36	0.0010544
2662.01	0.0009457
2671.65	0.0010759
2681.29	0.0010004
2690.94	0.0012639
2700.58	0.0010377
2710.23	0.001567
2719.87	0.001917
2729.52	0.001697
2739.16	0.001887
2748.81	0.001837
2758.45	0.001707
2768.1	0.002017
2777.74	0.002007
2787.39	0.002367
2797.03	0.002247
2806.68	0.003077
2816.32	0.002787
2825.97	0.003037
2835.61	0.003657
2845.26	0.004747
2854.9	0.007357
2864.55	0.013107
2874.19	0.022297
2883.84	0.026737
2893.48	0.026247
2903.12	0.026107
2912.77	0.033027
2922.41	0.033497
2932.06	0.031187
2941.7	0.035687
2951.35	0.052607
2960.99	0.096467
2970.64	0.151367
2980.28	0.104697
2989.93	0.037257
2999.57	0.015277
3009.22	0.007917
3018.86	0.004977
3028.51	0.005647
3038.15	0.006847
3047.8	0.009357
3057.44	0.007187
3067.09	0.005677
3076.73	0.006537
3086.38	0.008277
3096.02	0.009377
3105.67	0.008217
3115.31	0.005617
3124.95	0.004057
3134.6	0.003567
3144.24	0.002277
3153.89	0.002167
3163.53	0.001647
3173.18	0.001717
3182.82	0.0014775
3192.47	0.002107
3202.11	0.002097
3211.76	0.002017
3221.4	0.002067
3231.05	0.001547
3240.69	0.001787
3250.34	0.002277
3259.98	0.001827
3269.63	0.001717
3279.27	0.0012486
3288.92	0.0014253
3298.56	0.0011817
3308.21	0.0008803
3317.85	0.000962
3327.49	0.0007383
3337.14	0.000653
3346.78	0.0006644
3356.43	0.0014466
3366.07	0.0013114
3375.72	0.000882
3385.36	0.0011066
3395.01	0.001637
3404.65	0.0014388
3414.3	0.0011386
3423.94	0.0013023
3433.59	0.0011272
3443.23	0.0013678
3452.88	0.0010109
3462.52	0.0010362
3472.17	0.0008823
3481.81	0.0007043
3491.46	0.000339
3501.1	0.0009537
3510.75	0.00114
3520.39	0.0011897
3530.04	0.0010389
3539.68	8.8e-05
3549.32	0.0009082
3558.97	0.0010463
3568.61	0.00058449
3578.26	0.0008326
3587.9	0.00057948
3597.55	0.00022
3607.19	0.000366
3616.84	0.0007895
3626.48	5e-06
3636.13	0.001172
3645.77	0.0009413
3655.42	0.0015169
3665.06	0.0004591
3674.71	0.0010149
3684.35	0.0008642
3694	0.0009095
3703.64	0.0004971
3713.29	0.0007697
3722.93	0.000717
3732.58	0.0011884
3742.22	0.000392
3751.86	0.000283
3761.51	0.00058652
3771.15	0.0004429
3780.8	0.0009348
3790.44	0.0005252
3800.09	0.0004956
3809.73	0.00055524
3819.38	0.0014454
3829.02	0.0009449
3838.67	0.0006901
3848.31	0.000836
3857.96	0.0011319
3867.6	0.0012442
3877.25	0.000887
3886.89	0.0004469
3896.54	0.001657
3906.18	0.001677
3915.83	0.0011029
3925.47	0.0013556
3935.12	0.0011328
3944.76	0.001557
3954.41	0.0009359
3964.05	0.0010167
3973.69	0.0012548
3983.34	0.0008657
3992.98	0.0015092
