Infrared Spectrum: 4-Acetamido-9-fluorenone
Formula: C 15 H 11 N O 2
CAS: 42135-35-3
State: gas
Origin: EPA-IR VAPOR PHASE LIBRARY
1/CM	ABSORBANCE
549.8	0.00445
559.445	0.00142709
569.09	0.00264
578.734	0.00094
588.379	0.001182
598.024	0.0018992
607.669	0.00262
617.313	0.00239
626.958	0.0023711
636.603	0.0019034
646.248	0.000885
655.893	0.0017102
665.537	0.0015539
675.182	0.00285
684.827	0.002388
694.472	0.0013796
704.116	0.0014617
713.761	0.00311
723.406	0.00853
733.051	0.01476
742.695	0.00798
752.34	0.0031
761.985	0.0020915
771.63	0.00285
781.275	0.0023507
790.919	0.0017612
800.564	0.00142493
810.209	0.00255
819.854	0.00283
829.498	0.0023597
839.143	0.0018317
848.788	0.0016159
858.433	0.0020964
868.078	0.00261
877.722	0.00248
887.367	0.00317
897.012	0.00414
906.657	0.00472
916.301	0.0042
925.946	0.00322
935.591	0.00264
945.236	0.0019912
954.88	0.0021222
964.525	0.00314
974.17	0.00423
983.815	0.00343
993.46	0.00447
1003.1	0.00461
1012.75	0.0035
1022.39	0.0023589
1032.04	0.0020499
1041.68	0.0020044
1051.33	0.00148436
1060.97	0.00252
1070.62	0.00299
1080.26	0.00337
1089.91	0.00278
1099.55	0.00405
1109.2	0.000613
1118.84	0.000866
1128.49	0.001061
1138.13	0.0015101
1147.78	0.0018618
1157.42	0.00286
1167.07	0.00337
1176.71	0.00278
1186.36	0.00266
1196	0.00563
1205.64	0.00487
1215.29	0.01189
1224.93	0.01225
1234.58	0.00819
1244.22	0.01089
1253.87	0.00772
1263.51	0.00904
1273.16	0.01434
1282.8	0.0136
1292.45	0.0149
1302.09	0.0165
1311.74	0.0089
1321.38	0.0044
1331.03	0.00334
1340.67	0.00295
1350.32	0.0034
1359.96	0.00576
1369.61	0.0087
1379.25	0.00795
1388.9	0.0069
1398.54	0.00898
1408.18	0.01481
1417.83	0.01366
1427.47	0.00748
1437.12	0.00621
1446.76	0.00731
1456.41	0.00833
1466.05	0.01069
1475.7	0.01339
1485.34	0.01754
1494.99	0.01587
1504.63	0.01262
1514.28	0.00833
1523.92	0.0055
1533.57	0.00439
1543.21	0.00351
1552.86	0.00294
1562.5	0.00325
1572.15	0.00391
1581.79	0.00524
1591.44	0.00934
1601.08	0.01357
1610.73	0.01074
1620.37	0.00533
1630.01	0.0033
1639.66	0.00302
1649.3	0.00274
1658.95	0.00271
1668.59	0.00324
1678.24	0.00376
1687.88	0.00484
1697.53	0.00668
1707.17	0.01301
1716.82	0.03047
1726.46	0.05372
1736.11	0.05395
1745.75	0.0176
1755.4	0.00844
1765.04	0.00575
1774.69	0.00433
1784.33	0.00333
1793.98	0.00249
1803.62	0.0021844
1813.27	0.0022702
1822.91	0.002046
1832.55	0.001805
1842.2	0.0018502
1851.84	0.0017557
1861.49	0.0016216
1871.13	0.0017019
1880.78	0.0016874
1890.42	0.0017408
1900.07	0.00145485
1909.71	0.001503
1919.36	0.0017915
1929	0.0016305
1938.65	0.0017989
1948.29	0.0017538
1957.94	0.001748
1967.58	0.001287
1977.23	0.0013504
1986.87	0.0012903
1996.52	0.0013529
2006.16	0.001233
2015.81	0.001176
2025.45	0.001192
2035.1	0.001262
2044.74	0.001188
2054.38	0.0012933
2064.03	0.0015187
2073.67	0.0013011
2083.32	0.001249
2092.96	0.00125
2102.61	0.0013556
2112.25	0.00144005
2121.9	0.00142842
2131.54	0.0015325
2141.19	0.0015292
2150.83	0.0012912
2160.48	0.0016367
2170.12	0.0015743
2179.77	0.0015496
2189.41	0.001134
2199.06	0.001207
2208.7	0.001213
2218.35	0.001196
2227.99	0.001097
2237.64	0.0015109
2247.28	0.0016323
2256.92	0.0013365
2266.57	0.001278
2276.21	0.001107
2285.86	0.001157
2295.5	0.001223
2305.15	0.0015314
2314.79	0.0015155
2324.44	0.0015368
2334.08	0.001176
2343.73	0.00141271
2353.37	0.00138625
2363.02	0.001139
2372.66	0.00138745
2382.31	0.0013595
2391.95	0.00145918
2401.6	0.0013744
2411.24	0.001124
2420.89	0.00141684
2430.53	0.001234
2440.18	0.0013081
2449.82	0.001063
2459.47	0.000963
2469.11	0.000935
2478.75	0.0013615
2488.4	0.001225
2498.04	0.000783
2507.69	0.001121
2517.33	0.001133
2526.98	0.001203
2536.62	0.00139122
2546.27	0.0016723
2555.91	0.001284
2565.56	0.00138229
2575.2	0.00145371
2584.85	0.001287
2594.49	0.0016579
2604.14	0.0012943
2613.78	0.00140529
2623.43	0.001213
2633.07	0.001209
2642.72	0.0013364
2652.36	0.001093
2662.01	0.0015338
2671.65	0.00143064
2681.29	0.00144966
2690.94	0.0016072
2700.58	0.00147431
2710.23	0.0013329
2719.87	0.001179
2729.52	0.00138964
2739.16	0.00138383
2748.81	0.00146531
2758.45	0.001103
2768.1	0.000988
2777.74	0.001125
2787.39	0.001272
2797.03	0.001367
2806.68	0.001083
2816.32	0.001356
2825.97	0.0016143
2835.61	0.000981
2845.26	0.001251
2854.9	0.001178
2864.55	0.001229
2874.19	0.00140997
2883.84	0.00142644
2893.48	0.00122
2903.12	0.0020372
2912.77	0.0019782
2922.41	0.0019064
2932.06	0.0023867
2941.7	0.0021173
2951.35	0.0018513
2960.99	0.00138503
2970.64	0.0017317
2980.28	0.0015774
2989.93	0.0018822
2999.57	0.0015923
3009.22	0.0017859
3018.86	0.0022947
3028.51	0.0021191
3038.15	0.0029
3047.8	0.00316
3057.44	0.00327
3067.09	0.00479
3076.73	0.00578
3086.38	0.00465
3096.02	0.0023895
3105.67	0.0016326
3115.31	0.001113
3124.95	0.001084
3134.6	0.001253
3144.24	0.0015679
3153.89	0.0016863
3163.53	0.001274
3173.18	0.00145959
3182.82	0.00071
3192.47	0.001203
3202.11	0.0013659
3211.76	0.0016112
3221.4	0.00077
3231.05	0.001096
3240.69	0.000925
3250.34	0.001184
3259.98	0.001181
3269.63	0.001038
3279.27	0.0012903
3288.92	0.0015229
3298.56	0.00145653
3308.21	0.001001
3317.85	0.001287
3327.49	0.000919
3337.14	0.0015295
3346.78	0.0013061
3356.43	0.0017408
3366.07	0.001206
3375.72	0.001086
3385.36	0.001119
3395.01	0.0014011
3404.65	0.0019309
3414.3	0.0018034
3423.94	0.0022952
3433.59	0.00256
3443.23	0.00246
3452.88	0.00263
3462.52	0.00249
3472.17	0.0021884
3481.81	0.0021924
3491.46	0.0020933
3501.1	0.001268
3510.75	0.001176
3520.39	0.0017728
3530.04	0.000679
3539.68	0.0014254
3549.32	0.001073
3558.97	0.000998
3568.61	0.0015015
3578.26	0.000744
3587.9	0.000732
3597.55	0.000716
3607.19	0.00139286
3616.84	0.000815
3626.48	0.0012991
3636.13	0.0015361
3645.77	0.00142864
3655.42	0.001143
3665.06	0.000667
3674.71	0.0015954
3684.35	0.000932
3694	0.000759
3703.64	0.0015865
3713.29	0.001254
3722.93	0.001222
3732.58	0.00089
3742.22	0.001271
3751.86	0.000473
3761.51	0.00029
3771.15	0.001093
3780.8	0.001249
3790.44	0.000976
3800.09	0.000882
3809.73	0.00108
3819.38	0.0015049
3829.02	0.000817
3838.67	0.001267
3848.31	0.001057
3857.96	0.00103
3867.6	0.0019566
3877.25	0.00144262
3886.89	0.001123
3896.54	0.000463
3906.18	0.001007
3915.83	0.001062
3925.47	0.0013745
3935.12	0.0013412
3944.76	0.001122
3954.41	0.00139357
3964.05	0.0015656
3973.69	0.001537
3983.34	0.0013738
3992.98	0.0015006
