Infrared Spectrum: N,N-Bis(2-chloroethl)-p-toluenesulphonamide
Formula: C 11 H 15 Cl 2 N O 2 S
CAS: 42137-88-2
State: gas
Origin: EPA-IR VAPOR PHASE LIBRARY
1/CM	ABSORBANCE
549.9	0.11026
559.547	0.09757
569.193	0.0406
578.84	0.01625
588.486	0.00986
598.133	0.008
607.779	0.00769
617.426	0.00937
627.072	0.01569
636.719	0.03524
646.365	0.05749
656.012	0.04025
665.658	0.0346
675.305	0.03397
684.951	0.0396
694.598	0.0718
704.245	0.07449
713.891	0.11739
723.538	0.07806
733.184	0.03381
742.831	0.03143
752.477	0.05275
762.124	0.08201
771.77	0.06948
781.417	0.04273
791.063	0.03828
800.71	0.04077
810.356	0.05851
820.003	0.04145
829.649	0.02694
839.296	0.02586
848.943	0.0297
858.589	0.03608
868.236	0.04174
877.882	0.04299
887.529	0.03433
897.175	0.02564
906.822	0.02648
916.468	0.03104
926.115	0.02743
935.761	0.02717
945.408	0.03438
955.054	0.04132
964.701	0.03078
974.347	0.01998
983.994	0.01918
993.64	0.02242
1003.29	0.02154
1012.93	0.02183
1022.58	0.01988
1032.23	0.01356
1041.87	0.01262
1051.52	0.01357
1061.17	0.0209
1070.81	0.03492
1080.46	0.04018
1090.11	0.08245
1099.75	0.06135
1109.4	0.03008
1119.05	0.03069
1128.69	0.03776
1138.34	0.04466
1147.99	0.05539
1157.63	0.13219
1167.28	0.27232
1176.92	0.10101
1186.57	0.04186
1196.22	0.03111
1205.86	0.03136
1215.51	0.03141
1225.16	0.03066
1234.8	0.02624
1244.45	0.01956
1254.1	0.02125
1263.74	0.02103
1273.39	0.01762
1283.04	0.01659
1292.68	0.01719
1302.33	0.02633
1311.98	0.02934
1321.62	0.02798
1331.27	0.04019
1340.92	0.06297
1350.56	0.09844
1360.21	0.12764
1369.86	0.14306
1379.5	0.09687
1389.15	0.03947
1398.79	0.02329
1408.44	0.01969
1418.09	0.01609
1427.73	0.01646
1437.38	0.0219
1447.03	0.02836
1456.67	0.02905
1466.32	0.01662
1475.97	0.01118
1485.61	0.01362
1495.26	0.01923
1504.91	0.01175
1514.55	0.0077
1524.2	0.00642
1533.85	0.00572
1543.49	0.00526
1553.14	0.0051
1562.79	0.00528
1572.43	0.00614
1582.08	0.00856
1591.73	0.01483
1601.37	0.01802
1611.02	0.01029
1620.67	0.00623
1630.31	0.00492
1639.96	0.00504
1649.6	0.00498
1659.25	0.00359
1668.9	0.0028913
1678.54	0.00257312
1688.19	0.002395
1697.84	0.002238
1707.48	0.002224
1717.13	0.002219
1726.78	0.002337
1736.42	0.00250952
1746.07	0.0027417
1755.72	0.0030208
1765.36	0.0028006
1775.01	0.0026428
1784.66	0.0029778
1794.3	0.00409
1803.95	0.00358
1813.6	0.002392
1823.24	0.002079
1832.89	0.002031
1842.54	0.002095
1852.18	0.002238
1861.83	0.002321
1871.47	0.0024013
1881.12	0.00259015
1890.77	0.0028476
1900.41	0.00356
1910.06	0.0045
1919.71	0.00384
1929.35	0.0027688
1939	0.002327
1948.65	0.002133
1958.29	0.00206
1967.94	0.002085
1977.59	0.00205
1987.23	0.001947
1996.88	0.001906
2006.53	0.001932
2016.17	0.001977
2025.82	0.001921
2035.47	0.001852
2045.11	0.001889
2054.76	0.001894
2064.41	0.001869
2074.05	0.001883
2083.7	0.001923
2093.35	0.001923
2102.99	0.001963
2112.64	0.001988
2122.28	0.001863
2131.93	0.001837
2141.58	0.001903
2151.22	0.001873
2160.87	0.001939
2170.52	0.002014
2180.16	0.002145
2189.81	0.002152
2199.46	0.002162
2209.1	0.002116
2218.75	0.001994
2228.4	0.002029
2238.04	0.002148
2247.69	0.0024162
2257.34	0.0026142
2266.98	0.002304
2276.63	0.00216
2286.28	0.00217
2295.92	0.002326
2305.57	0.0024664
2315.22	0.002255
2324.86	0.002266
2334.51	0.002149
2344.16	0.001963
2353.8	0.001908
2363.45	0.001922
2373.09	0.001899
2382.74	0.002006
2392.39	0.00211
2402.03	0.002096
2411.68	0.002092
2421.33	0.002027
2430.97	0.001986
2440.62	0.00199
2450.27	0.002015
2459.91	0.001987
2469.56	0.001961
2479.21	0.00185
2488.85	0.001866
2498.5	0.001977
2508.15	0.002252
2517.79	0.002274
2527.44	0.00214
2537.09	0.002096
2546.73	0.001908
2556.38	0.001929
2566.03	0.00188
2575.67	0.001994
2585.32	0.002124
2594.96	0.002077
2604.61	0.001845
2614.26	0.001732
2623.9	0.00156
2633.55	0.00146
2643.2	0.00138
2652.84	0.001517
2662.49	0.001515
2672.14	0.001655
2681.78	0.001795
2691.43	0.00201
2701.08	0.002126
2710.72	0.002151
2720.37	0.002177
2730.02	0.00199
2739.66	0.002246
2749.31	0.002327
2758.96	0.001885
2768.6	0.001671
2778.25	0.001605
2787.9	0.001799
2797.54	0.001915
2807.19	0.002116
2816.84	0.002478
2826.48	0.0027952
2836.13	0.00356
2845.77	0.00509
2855.42	0.00792
2865.07	0.01176
2874.71	0.01459
2884.36	0.01548
2894.01	0.01374
2903.65	0.01331
2913.3	0.01472
2922.95	0.01941
2932.59	0.02854
2942.24	0.0301
2951.89	0.0236
2961.53	0.0252
2971.18	0.03008
2980.83	0.02265
2990.47	0.01729
3000.12	0.01449
3009.77	0.01337
3019.41	0.01332
3029.06	0.01554
3038.71	0.01686
3048.35	0.01487
3058	0.01119
3067.64	0.01046
3077.29	0.00748
3086.94	0.00585
3096.58	0.00419
3106.23	0.00251343
3115.88	0.001696
3125.52	0.00124
3135.17	0.0009
3144.82	0.00084
3154.46	0.00054
3164.11	0.00048
3173.76	0.00036
3183.4	0.00019
3193.05	0.00024
3202.7	0.00016
3212.34	4e-05
3221.99	0
3231.64	0.00019
3241.28	0.00019
3250.93	0.00022
3260.58	0.0002
3270.22	1e-05
3279.87	0.00018
3289.52	0.00027
3299.16	0.00011
3308.81	5e-05
3318.45	0.0001
3328.1	2e-05
3337.75	0.00024
3347.39	0.00023
3357.04	0.00026
3366.69	0.00032
3376.33	0.00038
3385.98	0.00042
3395.63	0.00013
3405.27	0.00022
3414.92	0.00043
3424.57	0.0005
3434.21	0.00044
3443.86	0.00033
3453.51	0.00026
3463.15	0.00047
3472.8	0.00031
3482.45	0.00046
3492.09	0.00065
3501.74	0.00058
3511.39	0.00048
3521.03	0.00055
3530.68	0.00056
3540.33	0.00063
3549.97	0.00066
3559.62	0.00072
3569.26	0.00071
3578.91	0.00072
3588.56	0.00066
3598.2	0.0008
3607.85	0.00088
3617.5	0.00075
3627.14	0.00091
3636.79	0.001
3646.44	0.001
3656.08	0.00108
3665.73	0.00118
3675.38	0.0011
3685.02	0.00112
3694.67	0.00104
3704.32	0.00106
3713.96	0.00107
3723.61	0.00115
3733.26	0.00121
3742.9	0.00118
3752.55	0.0012
3762.2	0.00119
3771.84	0.00112
3781.49	0.00117
3791.13	0.00098
3800.78	0.00111
3810.43	0.00114
3820.07	0.0011
3829.72	0.00113
3839.37	0.00124
3849.01	0.00116
3858.66	0.00127
3868.31	0.00121
3877.95	0.00135
3887.6	0.00136
3897.25	0.00139
3906.89	0.00128
3916.54	0.00123
3926.19	0.00131
3935.83	0.00127
3945.48	0.00136
3955.13	0.00138
3964.77	0.00126
3974.42	0.00134
3984.07	0.00147
3993.71	0.00135
