Infrared Spectrum: 2-Nitrothiophene-4-carbonitrile
Formula: C 5 H 2 N 2 O 2 S
CAS: 42137-24-6
State: gas
Origin: EPA-IR VAPOR PHASE LIBRARY
1/CM	ABSORBANCE
549.8	0.0016724
559.445	0.001417
569.09	0.00091081
578.734	0.002686
588.379	0.0018416
598.024	0.002996
607.669	0.007656
617.313	0.011456
626.958	0.007076
636.603	0.003426
646.248	0.002106
655.893	0.001926
665.537	0.002286
675.182	0.0018939
684.827	0.0010879
694.472	0.002026
704.116	0.005386
713.761	0.009466
723.406	0.009176
733.051	0.005506
742.695	0.002896
752.34	0.002426
761.985	0.002776
771.63	0.006026
781.275	0.013496
790.919	0.026086
800.564	0.021876
810.209	0.030286
819.854	0.022386
829.498	0.003726
839.143	0.002936
848.788	0.005456
858.433	0.012866
868.078	0.017826
877.722	0.013436
887.367	0.005186
897.012	0.0014149
906.657	0.0013198
916.301	0.0018471
925.946	0.0012384
935.591	0.0017205
945.236	0.0013313
954.88	0.00075
964.525	0.0008768
974.17	0.00097915
983.815	0.0018525
993.46	0.00092913
1003.1	0.001057
1012.75	0.0018452
1022.39	0.0015405
1032.04	0.0016895
1041.68	0.003426
1051.33	0.008546
1060.97	0.012146
1070.62	0.010026
1080.26	0.006686
1089.91	0.004136
1099.55	0.0017278
1109.2	0.002556
1118.84	0.0017834
1128.49	0.0012699
1138.13	0.0016217
1147.78	0.000765
1157.42	0.002446
1167.07	0.002636
1176.71	0.004006
1186.36	0.007136
1196	0.012486
1205.64	0.011916
1215.29	0.003546
1224.93	0.003556
1234.58	0.003566
1244.22	0.003246
1253.87	0.003636
1263.51	0.003396
1273.16	0.002906
1282.8	0.003876
1292.45	0.005676
1302.09	0.009216
1311.74	0.013896
1321.38	0.027796
1331.03	0.063706
1340.67	0.093026
1350.32	0.072496
1359.96	0.039846
1369.61	0.027416
1379.25	0.008796
1388.9	0.004826
1398.54	0.006126
1408.18	0.009856
1417.83	0.016446
1427.47	0.019596
1437.12	0.015216
1446.76	0.009706
1456.41	0.006896
1466.05	0.005416
1475.7	0.005116
1485.34	0.005966
1494.99	0.008436
1504.63	0.014576
1514.28	0.026776
1523.92	0.040956
1533.57	0.050636
1543.21	0.058406
1552.86	0.066496
1562.5	0.064536
1572.15	0.046346
1581.79	0.019946
1591.44	0.008906
1601.08	0.005966
1610.73	0.005246
1620.37	0.004836
1630.01	0.004126
1639.66	0.003196
1649.3	0.002176
1658.95	0.002166
1668.59	0.0018043
1678.24	0.0017426
1687.88	0.0017739
1697.53	0.0018687
1707.17	0.002146
1716.82	0.002146
1726.46	0.002776
1736.11	0.002816
1745.75	0.002316
1755.4	0.0017376
1765.04	0.0016244
1774.69	0.0015282
1784.33	0.0014184
1793.98	0.0015648
1803.62	0.0012484
1813.27	0.0011985
1822.91	0.0010887
1832.55	0.0011557
1842.2	0.0011714
1851.84	0.0011901
1861.49	0.0010402
1871.13	0.0011195
1880.78	0.0012595
1890.42	0.0012577
1900.07	0.0010521
1909.71	0.0011413
1919.36	0.0010719
1929	0.0012408
1938.65	0.00101437
1948.29	0.0008591
1957.94	0.000917733
1967.58	0.0008318
1977.23	0.000917429
1986.87	0.00100396
1996.52	0.0008
2006.16	0.00100461
2015.81	0.0011164
2025.45	0.0010421
2035.1	0.00099948
2044.74	0.0011071
2054.38	0.0008287
2064.03	0.0010902
2073.67	0.0009505
2083.32	0.0010225
2092.96	0.00081
2102.61	0.0012033
2112.25	0.0011049
2121.9	0.0011072
2131.54	0.0009676
2141.19	0.000639
2150.83	0.000795
2160.48	0.00098138
2170.12	0.00072
2179.77	0.0010628
2189.41	0.0009053
2199.06	0.0008897
2208.7	0.0010874
2218.35	0.0014108
2227.99	0.002726
2237.64	0.004496
2247.28	0.003896
2256.92	0.0018122
2266.57	0.0012798
2276.21	0.0009611
2285.86	0.0011356
2295.5	0.0010679
2305.15	0.0010423
2314.79	0.0010561
2324.44	0.0010753
2334.08	0.0013023
2343.73	0.0013252
2353.37	0.0010974
2363.02	0.0011118
2372.66	0.0013503
2382.31	0.0012268
2391.95	0.0012766
2401.6	0.0013586
2411.24	0.0012992
2420.89	0.0010273
2430.53	0.00094285
2440.18	0.00097069
2449.82	0.0009034
2459.47	0.000749
2469.11	0.0012399
2478.75	0.00095959
2488.4	0.00100682
2498.04	0.0010635
2507.69	0.0011414
2517.33	0.0009042
2526.98	0.00069
2536.62	0.000541
2546.27	0.00091247
2555.91	0.000879
2565.56	0.0011591
2575.2	0.00099296
2584.85	0.0008893
2594.49	0.0011962
2604.14	0.0011434
2613.78	0.0011346
2623.43	0.0008959
2633.07	0.0008755
2642.72	0.0013053
2652.36	0.00099288
2662.01	0.0010795
2671.65	0.0016055
2681.29	0.0013118
2690.94	0.001936
2700.58	0.0014876
2710.23	0.0016644
2719.87	0.0013384
2729.52	0.0017226
2739.16	0.0014243
2748.81	0.0011222
2758.45	0.0013936
2768.1	0.0012123
2777.74	0.001141
2787.39	0.0010536
2797.03	0.0008625
2806.68	0.0011713
2816.32	0.0008369
2825.97	0.0014509
2835.61	0.0014246
2845.26	0.0013977
2854.9	0.0018347
2864.55	0.001853
2874.19	0.002306
2883.84	0.002016
2893.48	0.0016631
2903.12	0.001926
2912.77	0.0016431
2922.41	0.0012892
2932.06	0.00094244
2941.7	0.0008772
2951.35	0.00098416
2960.99	0.00091236
2970.64	0.000752
2980.28	0.0010226
2989.93	0.0010499
2999.57	0.00099553
3009.22	0.00017
3018.86	0.000592
3028.51	0.00100632
3038.15	0.0013668
3047.8	0.00101495
3057.44	0.00096615
3067.09	0.000682
3076.73	0.000812
3086.38	0.0014641
3096.02	0.002266
3105.67	0.003816
3115.31	0.009016
3124.95	0.008826
3134.6	0.003176
3144.24	0.001321
3153.89	0.000693
3163.53	0.000665
3173.18	0.0012101
3182.82	0.0010811
3192.47	0.00043
3202.11	0.0008347
3211.76	0.000663
3221.4	0.00054
3231.05	0.000745
3240.69	0.000677
3250.34	0.000613
3259.98	0.000643
3269.63	0.00092672
3279.27	0.0011973
3288.92	0.000749
3298.56	0.000712
3308.21	0.000816
3317.85	0.00094306
3327.49	0.000398
3337.14	0.0008745
3346.78	0.000355
3356.43	0.0011724
3366.07	0.000647
3375.72	0.00095023
3385.36	0.0008368
3395.01	0.0011522
3404.65	0.000673
3414.3	0.000604
3423.94	0.00065
3433.59	0.000297
3443.23	0.00093543
3452.88	0.0010543
3462.52	0.0011066
3472.17	0.0010608
3481.81	0.000635
3491.46	0.000389
3501.1	0.000603
3510.75	0.001198
3520.39	0.000561
3530.04	0.00099062
3539.68	0.0011149
3549.32	0.00096824
3558.97	0.0011237
3568.61	0.0011798
3578.26	0.000629
3587.9	0.0011514
3597.55	0.0011631
3607.19	0.000713
3616.84	0.0013985
3626.48	0.000343
3636.13	0.000898
3645.77	0.0012873
3655.42	0.0012001
3665.06	0.0013087
3674.71	0.0013098
3684.35	0.0008959
3694	0.0009858
3703.64	0.000786
3713.29	0.0013381
3722.93	0.000722
3732.58	0.0010863
3742.22	0.0008317
3751.86	0.0013629
3761.51	0.0012185
3771.15	0.0012679
3780.8	0.0011952
3790.44	0.0008691
3800.09	0.0008534
3809.73	0.000686
3819.38	0.0012851
3829.02	0.00069
3838.67	0.000608
3848.31	0.000749
3857.96	0.0011254
3867.6	0.0010379
3877.25	0.000746
3886.89	0.000578
3896.54	0.000686
3906.18	0.0014501
3915.83	0.0010367
3925.47	0.000683
3935.12	0.0013995
3944.76	0.0010693
3954.41	0.00099771
3964.05	0.000439
3973.69	0.0012272
3983.34	0.00069
3992.98	0.0013938
