Infrared Spectrum: 2-Amino-5-nitropyridine
Formula: C 5 H 5 N 3 O 2
CAS: 4214-76-0
State: gas
Instrument: HP-GC/MS/IRD
Origin: NIST Mass Spectrometry Data Center
1/CM	ABSORBANCE
550	0.0007742
562	0.000882
574	0.0012348
586	0.0016268
598	0.0017836
610	0.002107
622	0.0032683
634	0.0058947
646	0.0043218
658	0.001764
670	0.0018228
682	0.0015288
694	0.0009898
706	0.0010241
718	0.0014406
730	0.0015239
742	0.0018081
754	0.0032291
766	0.0042434
778	0.0030331
790	0.0021217
802	0.0020531
814	0.0031703
826	0.0064043
838	0.0062769
850	0.0043659
862	0.0042679
874	0.0027587
886	0.001323
898	0.0011466
910	0.0008967
922	0.0007938
934	0.0008869
946	0.0010927
958	0.0009408
970	0.0006419
982	0.0004753
994	0.0005782
1006	0.0008232
1018	0.0008428
1030	0.0006811
1042	0.0006909
1054	0.0006713
1066	0.000539
1078	0.0003136
1090	0.0003038
1102	0.0010045
1114	0.0051646
1126	0.0054341
1138	0.0011956
1150	0.0004998
1162	0.0002597
1174	3.43e-05
1186	0
1198	3.92e-05
1210	0.0001911
1222	0.0004802
1234	0.00049
1246	0.000392
1258	0.0009016
1270	0.0035525
1282	0.005537
1294	0.0049539
1306	0.0065758
1318	0.0060858
1330	0.0097167
1342	0.035427
1354	0.0452858
1366	0.0129752
1378	0.0050519
1390	0.0030331
1402	0.0061887
1414	0.0090258
1426	0.0037632
1438	0.0014112
1450	0.0016366
1462	0.0038171
1474	0.0093002
1486	0.0128968
1498	0.0075215
1510	0.0070658
1522	0.0139062
1534	0.015386
1546	0.0094766
1558	0.0050911
1570	0.0081585
1582	0.0185906
1594	0.024549
1606	0.0392098
1618	0.0466774
1630	0.0183358
1642	0.0056154
1654	0.002156
1666	0.0013818
1678	0.0013426
1690	0.0010241
1702	0.0006615
1714	0.0005929
1726	0.0004606
1738	0.0003381
1750	0.0002793
1762	0.0002646
1774	0.0003185
1786	0.0004018
1798	0.0003724
1810	0.0003332
1822	0.0002597
1834	0.0002058
1846	0.0001911
1858	0.0002254
1870	0.0003038
1882	0.0004067
1894	0.0004165
1906	0.0003969
1918	0.0004116
1930	0.0004802
1942	0.0004361
1954	0.0003332
1966	0.0002842
1978	0.0003577
1990	0.0003528
2002	0.0002989
2014	0.0002989
2026	0.000245
2038	0.0002744
2050	0.000294
2062	0.0002744
2074	0.0003087
2086	0.0003332
2098	0.0003724
2110	0.0003381
2122	0.0003822
2134	0.0003528
2146	0.0003332
2158	0.0003185
2170	0.0002891
2182	0.0003087
2194	0.0002989
2206	0.000343
2218	0.0003724
2230	0.0003822
2242	0.0003773
2254	0.0004018
2266	0.0004116
2278	0.0004067
2290	0.0004116
2302	0.0004312
2314	0.0004361
2326	0.0004557
2338	0.0004459
2350	0.0004214
2362	0.0003675
2374	0.000343
2386	0.0003724
2398	0.0003724
2410	0.0003871
2422	0.0003969
2434	0.0004655
2446	0.0005145
2458	0.0005537
2470	0.0005684
2482	0.0005733
2494	0.0005684
2506	0.0004508
2518	0.0004116
2530	0.0004067
2542	0.0004508
2554	0.000539
2566	0.0004753
2578	0.0004851
2590	0.0004851
2602	0.0004116
2614	0.0004165
2626	0.0004704
2638	0.0005341
2650	0.0004949
2662	0.0004214
2674	0.0004312
2686	0.0004263
2698	0.0003871
2710	0.0003038
2722	0.0003038
2734	0.0003479
2746	0.0003479
2758	0.0003528
2770	0.0003577
2782	0.000343
2794	0.0003577
2806	0.0003773
2818	0.0003969
2830	0.0004214
2842	0.0004557
2854	0.0005586
2866	0.0006272
2878	0.0006125
2890	0.0005145
2902	0.0005145
2914	0.0005145
2926	0.000588
2938	0.0005733
2950	0.0005047
2962	0.0004949
2974	0.0003822
2986	0.0004018
2998	0.0003381
3010	0.0003626
3022	0.0003871
3034	0.0004949
3046	0.0006811
3058	0.0008575
3070	0.0009359
3082	0.0008624
3094	0.0007938
3106	0.0005831
3118	0.0004165
3130	0.000343
3142	0.0003381
3154	0.0003822
3166	0.0004067
3178	0.0005978
3190	0.0007203
3202	0.0006566
3214	0.0004998
3226	0.0004508
3238	0.0004116
3250	0.0003675
3262	0.0003626
3274	0.0003381
3286	0.0003283
3298	0.0003479
3310	0.0003822
3322	0.0003087
3334	0.0003283
3346	0.0003724
3358	0.0003479
3370	0.0004459
3382	0.0005586
3394	0.0009604
3406	0.002303
3418	0.0046991
3430	0.0045766
3442	0.0053018
3454	0.0051303
3466	0.0014945
3478	0.0007742
3490	0.0008624
3502	0.0012397
3514	0.0018326
3526	0.0019649
3538	0.0017199
3550	0.0018816
3562	0.0021658
3574	0.0016219
3586	0.0007546
3598	0.0004753
3610	0.0004067
3622	0.000343
3634	0.0003871
3646	0.0003577
3658	0.0003185
3670	0.000294
3682	0.0003675
3694	0.000343
3706	0.0003675
3718	0.0003528
3730	0.0003332
3742	0.0003038
3754	0.0003185
3766	0.0003479
3778	0.0003675
3790	0.0003675
3802	0.0003479
3814	0.0003479
3826	0.0003234
3838	0.0003332
