Infrared Spectrum: 5-Chloro-2-hydroxypyridine
Formula: C 5 H 4 Cl N O
CAS: 4214-79-3
State: gas
Origin: EPA-IR VAPOR PHASE LIBRARY
1/CM	ABSORBANCE
549.9	0.0011443
559.547	0.0007831
569.193	0.00087825
578.84	0.00090011
588.486	0.00092195
598.133	0.0008162
607.779	0.0009743
617.426	0.0015849
627.072	0.00341
636.719	0.00526
646.365	0.00764
656.012	0.01104
665.658	0.00836
675.305	0.00304
684.951	0.000847996
694.598	0.0007779
704.245	0.0007815
713.891	0.0009426
723.538	0.0013001
733.184	0.0017057
742.831	0.0017606
752.477	0.0014776
762.124	0.0012334
771.77	0.0011544
781.417	0.0011872
791.063	0.0017721
800.71	0.00367
810.356	0.00663
820.003	0.00916
829.649	0.01084
839.296	0.00768
848.943	0.00467
858.589	0.00273
868.236	0.0016715
877.882	0.001187
887.529	0.0011171
897.175	0.0014163
906.822	0.00189
916.468	0.00241
926.115	0.00201
935.761	0.0017815
945.408	0.001347
955.054	0.001153
964.701	0.0011078
974.347	0.0013328
983.994	0.0015654
993.64	0.00237
1003.29	0.00391
1012.93	0.00389
1022.58	0.00286
1032.23	0.00251
1041.87	0.00245
1051.52	0.00201
1061.17	0.0014763
1070.81	0.0015907
1080.46	0.00266
1090.11	0.0048
1099.75	0.01021
1109.4	0.02048
1119.05	0.02083
1128.69	0.01111
1138.34	0.01873
1147.99	0.03052
1157.63	0.03752
1167.28	0.02564
1176.92	0.01323
1186.57	0.01071
1196.22	0.01144
1205.86	0.008
1215.51	0.00426
1225.16	0.00387
1234.8	0.00669
1244.45	0.00962
1254.1	0.00939
1263.74	0.00628
1273.39	0.00839
1283.04	0.01909
1292.68	0.02314
1302.33	0.0159
1311.98	0.00899
1321.62	0.0095
1331.27	0.00951
1340.92	0.00916
1350.56	0.00736
1360.21	0.00415
1369.86	0.0026
1379.5	0.0029
1389.15	0.00339
1398.79	0.00488
1408.44	0.005
1418.09	0.00351
1427.73	0.0032
1437.38	0.00472
1447.03	0.00766
1456.67	0.02476
1466.32	0.06242
1475.97	0.06655
1485.61	0.03156
1495.26	0.01126
1504.91	0.00665
1514.55	0.00413
1524.2	0.0031
1533.85	0.00262
1543.49	0.00282
1553.14	0.0032
1562.79	0.00589
1572.43	0.01155
1582.08	0.01716
1591.73	0.01879
1601.37	0.01607
1611.02	0.01124
1620.67	0.00614
1630.31	0.00402
1639.96	0.00187
1649.6	0.0015843
1659.25	0.0017147
1668.9	0.00247
1678.54	0.00362
1688.19	0.00479
1697.84	0.0073
1707.48	0.01341
1717.13	0.02014
1726.78	0.01901
1736.42	0.00897
1746.07	0.00328
1755.72	0.0017117
1765.36	0.0013026
1775.01	0.0013312
1784.66	0.0013698
1794.3	0.0012916
1803.95	0.0011809
1813.6	0.0012352
1823.24	0.0013867
1832.89	0.001472
1842.54	0.0014169
1852.18	0.0012289
1861.83	0.000958
1871.47	0.00087245
1881.12	0.000809
1890.77	0.00086654
1900.41	0.0010161
1910.06	0.0009814
1919.71	0.0009429
1929.35	0.0007942
1939	0.0008146
1948.65	0.00088722
1958.29	0.0008167
1967.94	0.000696
1977.59	0.000736
1987.23	0.0007585
1996.88	0.0007738
2006.53	0.0007918
2016.17	0.000689
2025.82	0.000666
2035.47	0.000652
2045.11	0.000677
2054.76	0.000657
2064.41	0.000615
2074.05	0.000599
2083.7	0.000564
2093.35	0.00059
2102.99	0.000662
2112.64	0.000667
2122.28	0.000709
2131.93	0.0007
2141.58	0.00072
2151.22	0.00066
2160.87	0.000611
2170.52	0.00058
2180.16	0.000564
2189.81	0.000569
2199.46	0.000562
2209.1	0.000574
2218.75	0.000549
2228.4	0.000625
2238.04	0.000678
2247.69	0.000726
2257.34	0.0007415
2266.98	0.000681
2276.63	0.000706
2286.28	0.000653
2295.92	0.0007954
2305.57	0.0008074
2315.22	0.00083873
2324.86	0.000725
2334.51	0.00061
2344.16	0.000586
2353.8	0.000507
2363.45	0.00045
2373.09	0.000506
2382.74	0.000568
2392.39	0.000623
2402.03	0.000703
2411.68	0.0008001
2421.33	0.0009643
2430.97	0.0010214
2440.62	0.0010862
2450.27	0.0010263
2459.91	0.00084244
2469.56	0.000687
2479.21	0.000676
2488.85	0.000628
2498.5	0.000584
2508.15	0.000566
2517.79	0.00061
2527.44	0.000638
2537.09	0.00064
2546.73	0.000687
2556.38	0.000735
2566.03	0.000840055
2575.67	0.000844088
2585.32	0.0008252
2594.96	0.000707
2604.61	0.000629
2614.26	0.000577
2623.9	0.000545
2633.55	0.000567
2643.2	0.000562
2652.84	0.000537
2662.49	0.000407
2672.14	0.000453
2681.78	0.000389
2691.43	0.000373
2701.08	0.000431
2710.72	0.000436
2720.37	0.000503
2730.02	0.000478
2739.66	0.000418
2749.31	0.000513
2758.96	0.000463
2768.6	0.000454
2778.25	0.000382
2787.9	0.000347
2797.54	0.000298
2807.19	0.00029
2816.84	0.000452
2826.48	0.000481
2836.13	0.000444
2845.77	0.000508
2855.42	0.000357
2865.07	0.0003
2874.71	0.000251
2884.36	0.000218
2894.01	0.000267
2903.65	0.000208
2913.3	0.000221
2922.95	8.6e-05
2932.59	8.3e-05
2942.24	0
2951.89	5.8e-05
2961.53	0.000124
2971.18	0.00022
2980.83	0.00019
2990.47	0.000165
3000.12	0.000172
3009.77	0.000277
3019.41	0.00045
3029.06	0.00086705
3038.71	0.001045
3048.35	0.0011541
3058	0.0007753
3067.64	0.0008227
3077.29	0.0009431
3086.94	0.0012053
3096.58	0.0012411
3106.23	0.0009615
3115.88	0.000538
3125.52	0.000389
3135.17	0.00054
3144.82	0.000579
3154.46	0.000461
3164.11	0.000448
3173.76	0.000415
3183.4	0.000415
3193.05	0.000275
3202.7	0.000309
3212.34	0.000202
3221.99	0.000264
3231.64	0.000291
3241.28	0.00026
3250.93	0.000116
3260.58	0.000205
3270.22	0.00033
3279.87	0.000176
3289.52	0.000243
3299.16	0.000364
3308.81	0.000343
3318.45	0.000284
3328.1	0.000393
3337.75	0.000218
3347.39	0.000297
3357.04	0.000303
3366.69	0.000365
3376.33	0.000317
3385.98	0.000429
3395.63	0.000486
3405.27	0.000629
3414.92	0.0010198
3424.57	0.0019
3434.21	0.0028
3443.86	0.00273
3453.51	0.00184
3463.15	0.00093643
3472.8	0.000555
3482.45	0.000458
3492.09	0.000486
3501.74	0.000606
3511.39	0.000409
3521.03	0.000586
3530.68	0.000534
3540.33	0.000542
3549.97	0.000633
3559.62	0.0010111
3569.26	0.00202
3578.91	0.0057
3588.56	0.01934
3598.2	0.02208
3607.85	0.01813
3617.5	0.00478
3627.14	0.00189
3636.79	0.00088035
3646.44	0.0010739
3656.08	0.00093757
3665.73	0.000738
3675.38	0.000571
3685.02	0.000705
3694.67	0.000636
3704.32	0.000555
3713.96	0.000635
3723.61	0.000697
3733.26	0.000646
3742.9	0.000581
3752.55	0.000583
3762.2	0.000651
3771.84	0.000551
3781.49	0.000699
3791.13	0.000513
3800.78	0.000486
3810.43	0.000548
3820.07	0.000483
3829.72	0.000466
3839.37	0.000505
3849.01	0.000538
3858.66	0.000563
3868.31	0.000613
3877.95	0.000584
3887.6	0.000532
3897.25	0.000597
3906.89	0.000603
3916.54	0.000618
3926.19	0.000521
3935.83	0.000587
3945.48	0.000504
3955.13	0.00058
3964.77	0.00057
3974.42	0.000658
3984.07	0.000467
3993.71	0.000519
