Infrared Spectrum: 2-Propoxyethyl chloride
Formula: C 5 H 11 Cl O
CAS: 42149-74-6
State: gas
Origin: EPA-IR VAPOR PHASE LIBRARY
1/CM	ABSORBANCE
549.8	0.0011443
559.445	0.0006319
569.09	0.0004089
578.735	0.0005258
588.38	0.0006999
598.025	0.000587
607.67	0.0006378
617.315	0.0006469
626.96	0.0005926
636.605	0.0009985
646.251	0.0008294
655.896	0.0016543
665.541	0.0030343
675.186	0.0038243
684.831	0.0037243
694.476	0.0024843
704.121	0.0014543
713.766	0.0013043
723.411	0.0016543
733.056	0.0026143
742.701	0.0045743
752.346	0.0058343
761.991	0.0056243
771.636	0.0042843
781.281	0.0023543
790.926	0.0014143
800.571	0.0010167
810.216	0.0008283
819.861	0.0009887
829.507	0.0011043
839.152	0.0012743
848.797	0.0009989
858.442	0.000945
868.087	0.0010542
877.732	0.0011943
887.377	0.0014043
897.022	0.0015243
906.667	0.0017843
916.312	0.0021343
925.957	0.0024743
935.602	0.0030243
945.247	0.0035843
954.892	0.0040543
964.537	0.0042643
974.182	0.0041943
983.827	0.0037543
993.472	0.0028843
1003.12	0.0024643
1012.76	0.0025743
1022.41	0.0031343
1032.05	0.0044343
1041.7	0.0057443
1051.34	0.0062743
1060.99	0.0058443
1070.63	0.0063643
1080.28	0.0092643
1089.92	0.0156443
1099.57	0.0255043
1109.21	0.0347143
1118.86	0.0382143
1128.5	0.0362243
1138.15	0.0288343
1147.79	0.0174843
1157.44	0.0100743
1167.08	0.0067343
1176.73	0.0047343
1186.37	0.0038843
1196.02	0.0043543
1205.66	0.0044543
1215.31	0.0035243
1224.95	0.0027343
1234.6	0.0026443
1244.24	0.0036943
1253.89	0.0044643
1263.53	0.0040243
1273.18	0.0036343
1282.82	0.0042643
1292.47	0.0052643
1302.11	0.0054743
1311.76	0.0044543
1321.4	0.0029243
1331.05	0.0024243
1340.69	0.0029943
1350.34	0.0039643
1359.98	0.0056143
1369.63	0.0061443
1379.27	0.0049043
1388.92	0.0034843
1398.56	0.0025643
1408.21	0.0021443
1417.85	0.0020143
1427.5	0.0029343
1437.14	0.0038343
1446.79	0.0043543
1456.43	0.0048043
1466.08	0.0048143
1475.73	0.0041243
1485.37	0.0029943
1495.02	0.0017843
1504.66	0.0011543
1514.31	0.0007934
1523.95	0.0005944
1533.6	0.000453
1543.24	0.0003114
1552.89	0.0003846
1562.53	0.0002799
1572.18	0.0002948
1581.82	0.0002933
1591.47	0.0002707
1601.11	0.000299
1610.76	0.0003167
1620.4	0.0002286
1630.05	0.0002428
1639.69	0.0002642
1649.34	0.0002635
1658.98	0.0002081
1668.63	0.0002239
1678.27	0.0002296
1687.92	0.0002268
1697.56	0.00012336
1707.21	0.00014824
1716.85	0.00011986
1726.5	0.00012437
1736.14	0.00014863
1745.79	0.00015653
1755.43	0.00013905
1765.08	0.000100322
1774.72	6.78e-05
1784.37	0.00013952
1794.01	0.00014977
1803.66	0.0002047
1813.3	0.00013156
1822.95	0.00016867
1832.59	0.00016131
1842.24	0.0002243
1851.88	0.0001577
1861.53	0.0002822
1871.17	0.0003449
1880.82	0.000371
1890.46	0.0002884
1900.11	0.0003323
1909.75	0.0002665
1919.4	0.0002669
1929.04	0.0002321
1938.69	0.0003394
1948.33	0.0003475
1957.98	0.0003705
1967.62	0.0003416
1977.27	0.0003588
1986.91	0.000356
1996.56	0.0003259
2006.2	0.0003273
2015.85	0.0003362
2025.49	0.0003508
2035.14	0.0003358
2044.78	0.0004464
2054.43	0.0004446
2064.07	0.0004727
2073.72	0.0004343
2083.36	0.000371
2093.01	0.0003886
2102.65	0.0003956
2112.3	0.0002553
2121.94	0.0002961
2131.59	0.0003359
2141.23	0.0003515
2150.88	0.0003438
2160.52	0.0002353
2170.17	0.0002285
2179.81	0.0002443
2189.46	0.0002373
2199.1	0.0002497
2208.75	0.0002756
2218.39	0.0002292
2228.04	0.0002656
2237.68	0.0003694
2247.33	0.0002286
2256.97	0.0003104
2266.62	0.000253
2276.26	0.0002939
2285.91	0.0002342
2295.55	0.0002968
2305.2	0.0002457
2314.84	0.0002153
2324.49	0.0002196
2334.13	0.00018311
2343.78	0.0002055
2353.42	0.0002041
2363.07	0.0002171
2372.72	0.0003025
2382.36	0.0002272
2392.01	0.0002424
2401.65	0.0002139
2411.3	0.0002595
2420.94	0.0002384
2430.59	0.0002046
2440.23	0.00018048
2449.88	0.0002114
2459.52	0.00016582
2469.17	0.00018618
2478.81	0.0002058
2488.46	0.00016936
2498.1	0.0002555
2507.75	0.0002741
2517.39	0.0002206
2527.04	0.000312
2536.68	0.0002422
2546.33	0.0002349
2555.97	0.0002956
2565.62	0.0002417
2575.26	0.0004017
2584.91	0.0003454
2594.55	0.0003171
2604.2	0.0004346
2613.84	0.0004574
2623.49	0.0003924
2633.13	0.000445
2642.78	0.0004738
2652.42	0.000606
2662.07	0.0005083
2671.71	0.0007009
2681.36	0.0008454
2691	0.0008671
2700.65	0.0010635
2710.29	0.0012543
2719.94	0.0015243
2729.58	0.0017043
2739.23	0.0018843
2748.87	0.0019743
2758.52	0.0020143
2768.16	0.0020043
2777.81	0.0022643
2787.45	0.0025643
2797.1	0.0030043
2806.74	0.0033543
2816.39	0.0038343
2826.03	0.0050343
2835.68	0.0076543
2845.32	0.0110743
2854.97	0.0152943
2864.61	0.0185543
2874.26	0.0204043
2883.9	0.0209043
2893.55	0.0189343
2903.19	0.0161243
2912.84	0.0153243
2922.48	0.0165243
2932.13	0.0187443
2941.77	0.0213143
2951.42	0.0228243
2961.06	0.0233143
2970.71	0.0239743
2980.35	0.0210543
2990	0.0144643
2999.64	0.0085843
3009.29	0.0059043
3018.93	0.0041143
3028.58	0.0026643
3038.22	0.0020743
3047.87	0.0015143
3057.51	0.0012143
3067.16	0.0010857
3076.8	0.0009586
3086.45	0.0009121
3096.09	0.0009975
3105.74	0.0008384
3115.38	0.0007048
3125.03	0.0006239
3134.67	0.000671
3144.32	0.0005651
3153.96	0.0005664
3163.61	0.0006257
3173.25	0.0003551
3182.9	0.0005677
3192.54	0.0003208
3202.19	0.0005201
3211.83	0.0002206
3221.48	0.000492
3231.12	0.00013375
3240.77	0.0002868
3250.41	0.0004355
3260.06	0.00018287
3269.7	0.0002626
3279.35	0.0002983
3289	0.00011394
3298.64	0.00018937
3308.29	0.0002747
3317.93	4.23e-05
3327.58	0.0002639
3337.22	0.0003223
3346.87	0.0003713
3356.51	0.0002614
3366.16	0.0001163
3375.8	0.0003109
3385.45	0.0003025
3395.09	0.00016616
3404.74	0.0002102
3414.38	0.0003091
3424.03	7.17e-05
3433.67	0.0002209
3443.32	0.0002788
3452.96	0.0003113
3462.61	0.0002418
3472.25	0.0003773
3481.9	0.00017765
3491.54	0.0002723
3501.19	0.0001933
3510.83	0.0002301
3520.48	0.0003734
3530.12	0.0002572
3539.77	0.0003351
3549.41	0.00012182
3559.06	0.00014691
3568.7	0.0002211
3578.35	5.58e-05
3587.99	0.0002312
3597.64	0.0002388
3607.28	0.0003493
3616.93	0.00019199
3626.57	0.0003148
3636.22	0.0002038
3645.86	0.0002219
3655.51	0.0002205
3665.15	0.0004204
3674.8	0.000276
3684.44	0.0002887
3694.09	0.00014017
3703.73	0.0003909
3713.38	0.0002158
3723.02	0.000213
3732.67	0.0003109
3742.31	6.56e-05
3751.96	0.00015226
3761.6	0.0004506
3771.25	0.0003582
3780.89	0.0002694
3790.54	0.0004085
3800.18	0.00011124
3809.83	0.0002157
3819.47	0.000203
3829.12	0.0003514
3838.76	0.000104195
3848.41	0.00017808
3858.05	0.0003919
3867.7	0.0002941
3877.34	0.00015359
3886.99	0.0003175
3896.63	0.0003363
3906.28	0.0002865
3915.92	0.000456
3925.57	0.000296
3935.21	0.0003562
3944.86	0.0004257
3954.5	0.0002778
3964.15	0.0004798
3973.79	0.0003733
3983.44	0.0004234
3993.08	0.0004209
