Infrared Spectrum: 1-Ethyl-4-isopropylbenzene
Formula: C 11 H 16
CAS: 4218-48-8
State: gas
Instrument: HP-GC/MS/IRD
Origin: NIST Mass Spectrometry Data Center
1/CM	ABSORBANCE
550	0.0029937
562	0.0038913
574	0.0029784
586	0.0014688
598	0.0005814
610	0.0001632
622	1.53e-05
634	6.12e-05
646	3.57e-05
658	5.61e-05
670	0.000204
682	0.0002907
694	0.0001989
706	0.0001836
718	0.0001173
730	0.0001938
742	7.65e-05
754	6.63e-05
766	0.0001785
778	0.0005049
790	0.0010506
802	0.0020247
814	0.0046206
826	0.0079356
838	0.0060843
850	0.0021675
862	0.0006783
874	0.0003111
886	0.000255
898	0.0001581
910	0.0001275
922	0.0001275
934	0.0001326
946	0.0001428
958	0.0003621
970	0.0005253
982	0.0003315
994	0.0003468
1006	0.0009996
1018	0.002448
1030	0.0014382
1042	0.0014892
1054	0.0026469
1066	0.0037077
1078	0.0015555
1090	0.0008925
1102	0.0012801
1114	0.0015861
1126	0.0010812
1138	0.0008007
1150	0.0005151
1162	0.0001836
1174	0.0001887
1186	0.0003825
1198	0.0004641
1210	0.0004029
1222	0.0003621
1234	0.0004998
1246	0.000408
1258	0.0004539
1270	0.0008313
1282	0.0012852
1294	0.0014637
1306	0.0022542
1318	0.0027693
1330	0.0024378
1342	0.0019482
1354	0.0020451
1366	0.0025245
1378	0.0029835
1390	0.0030396
1402	0.0023817
1414	0.0025959
1426	0.002652
1438	0.0026622
1450	0.0037383
1462	0.0050694
1474	0.0044778
1486	0.0031875
1498	0.0040545
1510	0.0073797
1522	0.0056202
1534	0.0012648
1546	0.0004947
1558	0.0002601
1570	0.0002346
1582	0.0002142
1594	0.0001836
1606	0.0002448
1618	0.0002448
1630	0.0003468
1642	0.0004947
1654	0.0006018
1666	0.0004488
1678	0.0002244
1690	9.69e-05
1702	4.59e-05
1714	2.55e-05
1726	7.65e-05
1738	7.14e-05
1750	0.0001581
1762	0.0003213
1774	0.0005202
1786	0.0004794
1798	0.0001275
1810	7.14e-05
1822	4.08e-05
1834	6.63e-05
1846	7.65e-05
1858	0.000153
1870	0.0003162
1882	0.0007089
1894	0.0008466
1906	0.0005304
1918	0.0001938
1930	9.69e-05
1942	5.61e-05
1954	5.1e-05
1966	3.57e-05
1978	3.57e-05
1990	2.04e-05
2002	5.1e-05
2014	5.61e-05
2026	9.18e-05
2038	5.1e-05
2050	4.08e-05
2062	5.1e-06
2074	3.06e-05
2086	2.04e-05
2098	1.02e-05
2110	2.55e-05
2122	0
2134	1.53e-05
2146	3.57e-05
2158	3.06e-05
2170	3.06e-05
2182	3.06e-05
2194	0
2206	2.04e-05
2218	5.1e-05
2230	9.18e-05
2242	9.69e-05
2254	0.0001428
2266	0.0001224
2278	0.0001275
2290	0.0001224
2302	0.0001071
2314	0.0001122
2326	0.0001173
2338	0.0001428
2350	0.0001173
2362	0.0001173
2374	0.0001326
2386	0.0001173
2398	0.0001275
2410	0.0001377
2422	0.0001326
2434	0.0001479
2446	0.0001377
2458	0.0001377
2470	0.0001632
2482	0.0001785
2494	0.0001785
2506	0.000204
2518	0.0001887
2530	0.0001938
2542	0.0001734
2554	0.0001887
2566	0.0002295
2578	0.000306
2590	0.0003927
2602	0.0003825
2614	0.0003621
2626	0.0003519
2638	0.0003315
2650	0.0003162
2662	0.000306
2674	0.0003213
2686	0.0003162
2698	0.0003672
2710	0.0004488
2722	0.0005661
2734	0.0007038
2746	0.0007446
2758	0.0007803
2770	0.0008823
2782	0.0009027
2794	0.0010455
2806	0.0012495
2818	0.0015147
2830	0.0018972
2842	0.0027744
2854	0.0045951
2866	0.0086955
2878	0.0141882
2890	0.0152184
2902	0.014127
2914	0.0144789
2926	0.0165189
2938	0.0223533
2950	0.0241383
2962	0.0405756
2974	0.0463947
2986	0.0188394
2998	0.0102306
3010	0.0092463
3022	0.0110211
3034	0.0081753
3046	0.005967
3058	0.005355
3070	0.0041769
3082	0.0034731
3094	0.002856
3106	0.0020247
3118	0.0014637
3130	0.0013872
3142	0.0011424
3154	0.0008568
3166	0.0007038
3178	0.0006681
3190	0.0006018
3202	0.0005661
3214	0.0004641
3226	0.0004029
3238	0.0003162
3250	0.0002805
3262	0.0001989
3274	0.0002193
3286	0.000153
3298	0.000153
3310	0.000153
3322	0.0001428
3334	0.0001428
3346	0.0001173
3358	7.65e-05
3370	0.0001122
3382	0.0001326
3394	0.0001326
3406	9.69e-05
3418	0.0001173
3430	0.0001275
3442	0.0001173
3454	0.0001122
3466	7.14e-05
3478	8.16e-05
3490	3.57e-05
3502	5.61e-05
3514	2.04e-05
3526	5.1e-05
3538	5.61e-05
3550	7.14e-05
3562	3.57e-05
3574	0
3586	5.1e-06
3598	3.06e-05
3610	5.1e-06
3622	2.55e-05
3634	3.06e-05
3646	6.12e-05
3658	0.0001071
3670	0.0001173
3682	9.69e-05
3694	7.65e-05
3706	7.14e-05
3718	7.14e-05
3730	7.65e-05
3742	7.65e-05
3754	7.65e-05
3766	7.65e-05
3778	5.1e-05
3790	8.67e-05
3802	9.18e-05
3814	0.000102
3826	0.0001428
3838	0.0001326
