Infrared Spectrum: ETHYLENE GLYCOL, (MONO)LAURATE
Formula: C14 H28 O3
CAS: 4219-48-1
State: LIQUID (NEAT)
Class: COBLENTZ III
Instrument: BAIRD NaCl PRISM
Sampling: TRANSMISSION
Path length: CAPILLARY
Resolution: 4
Origin: WYANDOTTE CHEMICALS CORP.
MICROMETERS	TRANSMITTANCE
2.036	0.72
2.07515	0.723
2.1143	0.724
2.15346	0.735
2.19261	0.719
2.23176	0.662
2.27091	0.664
2.31007	0.665
2.34922	0.67
2.38837	0.672
2.42752	0.678
2.46668	0.691
2.50583	0.714
2.54498	0.721
2.58413	0.725
2.62329	0.734
2.66244	0.737
2.70159	0.721
2.74074	0.687
2.7799	0.567
2.81905	0.401
2.8582	0.29
2.89735	0.213
2.93651	0.167
2.97566	0.153
3.01481	0.154
3.05396	0.17
3.09311	0.203
3.13227	0.254
3.17142	0.345
3.21057	0.424
3.24972	0.48
3.28888	0.482
3.32803	0.375
3.36718	0.159
3.40633	0.051
3.44549	0.045
3.48464	0.071
3.52379	0.078
3.56294	0.25
3.6021	0.414
3.64125	0.529
3.6804	0.561
3.71955	0.579
3.75871	0.589
3.79786	0.616
3.83701	0.639
3.87616	0.66
3.91532	0.687
3.95447	0.714
3.99362	0.721
4.03277	0.736
4.07192	0.746
4.11108	0.754
4.15023	0.767
4.18938	0.765
4.22853	0.79
4.26769	0.803
4.30684	0.786
4.34599	0.778
4.38514	0.769
4.4243	0.783
4.46345	0.8
4.5026	0.792
4.54175	0.805
4.58091	0.81
4.62006	0.808
4.65921	0.812
4.69836	0.813
4.73752	0.817
4.77667	0.813
4.81582	0.812
4.85497	0.814
4.89413	0.817
4.93328	0.812
4.97243	0.806
5.01158	0.808
5.05073	0.816
5.08989	0.814
5.12904	0.814
5.16819	0.813
5.20734	0.819
5.2465	0.813
5.28565	0.816
5.3248	0.822
5.36395	0.823
5.40311	0.823
5.44226	0.816
5.48141	0.805
5.52056	0.767
5.55972	0.731
5.59887	0.667
5.63802	0.557
5.67717	0.287
5.71633	0.111
5.75548	0.102
5.79463	0.109
5.83378	0.162
5.87293	0.258
5.91209	0.408
5.95124	0.533
5.99039	0.604
6.02954	0.618
6.0687	0.661
6.10785	0.692
6.147	0.724
6.18615	0.746
6.22531	0.761
6.26446	0.772
6.30361	0.764
6.34276	0.769
6.38192	0.769
6.42107	0.764
6.46022	0.756
6.49937	0.753
6.53853	0.743
6.57768	0.725
6.61683	0.694
6.65598	0.636
6.69514	0.541
6.73429	0.382
6.77344	0.166
6.81259	0.151
6.85174	0.189
6.8909	0.22
6.93005	0.241
6.9692	0.283
7.00835	0.281
7.04751	0.297
7.08666	0.301
7.12581	0.284
7.16496	0.272
7.20412	0.221
7.24327	0.205
7.28242	0.242
7.32157	0.273
7.36073	0.262
7.39988	0.256
7.43903	0.264
7.47818	0.285
7.51734	0.28
7.55649	0.269
7.59564	0.263
7.63479	0.253
7.67395	0.248
7.7131	0.243
7.75225	0.227
7.7914	0.221
7.83055	0.212
7.86971	0.202
7.90886	0.192
7.94801	0.18
7.98716	0.17
8.02632	0.169
8.06547	0.169
8.10462	0.169
8.14377	0.169
8.18293	0.171
8.22208	0.169
8.26123	0.16
8.30038	0.153
8.33954	0.142
8.37869	0.132
8.41784	0.118
8.45699	0.109
8.49615	0.109
8.5353	0.111
8.57445	0.113
8.6136	0.129
8.65276	0.138
8.69191	0.162
8.73106	0.202
8.77021	0.248
8.80936	0.267
8.84852	0.262
8.88767	0.227
8.92682	0.207
8.96597	0.197
9.00513	0.216
9.04428	0.22
9.08343	0.219
9.12258	0.188
9.16174	0.17
9.20089	0.149
9.24004	0.164
9.27919	0.167
9.31835	0.18
9.3575	0.193
9.39665	0.192
9.4358	0.187
9.47496	0.188
9.51411	0.181
9.55326	0.185
9.59241	0.185
9.63157	0.199
9.67072	0.219
9.70987	0.243
9.74902	0.284
9.78817	0.307
9.82733	0.341
9.86648	0.388
9.90563	0.42
9.94478	0.454
9.98394	0.47
10.0231	0.487
10.0622	0.506
10.1014	0.508
10.1405	0.512
10.1797	0.519
10.2189	0.517
10.258	0.515
10.2972	0.514
10.3363	0.5
10.3755	0.487
10.4146	0.481
10.4538	0.477
10.4929	0.476
10.5321	0.477
10.5712	0.48
10.6104	0.488
10.6495	0.496
10.6887	0.501
10.7278	0.502
10.767	0.5
10.8061	0.504
10.8453	0.514
10.8844	0.52
10.9236	0.526
10.9627	0.525
11.0019	0.526
11.0411	0.523
11.0802	0.512
11.1194	0.5
11.1585	0.485
11.1977	0.446
11.2368	0.403
11.276	0.381
11.3151	0.361
11.3543	0.361
11.3934	0.361
11.4326	0.379
11.4717	0.401
11.5109	0.419
11.55	0.43
11.5892	0.439
11.6283	0.449
11.6675	0.455
11.7066	0.484
11.7458	0.511
11.7849	0.537
11.8241	0.553
11.8633	0.564
11.9024	0.571
11.9416	0.589
11.9807	0.599
12.0199	0.615
12.059	0.621
12.0982	0.631
12.1373	0.627
12.1765	0.627
12.2156	0.632
12.2548	0.636
12.2939	0.643
12.3331	0.638
12.3722	0.639
12.4114	0.642
12.4505	0.644
12.4897	0.644
12.5288	0.654
12.568	0.656
12.6071	0.654
12.6463	0.655
12.6855	0.642
12.7246	0.638
12.7638	0.639
12.8029	0.632
12.8421	0.623
12.8812	0.617
12.9204	0.613
12.9595	0.612
12.9987	0.601
13.0378	0.595
13.077	0.595
13.1161	0.595
13.1553	0.59
13.1944	0.583
13.2336	0.583
13.2727	0.572
13.3119	0.566
13.351	0.558
13.3902	0.553
13.4293	0.542
13.4685	0.537
13.5077	0.529
13.5468	0.512
13.586	0.5
13.6251	0.488
13.6643	0.465
13.7034	0.442
13.7426	0.415
13.7817	0.401
13.8209	0.392
13.86	0.377
13.8992	0.373
13.9383	0.386
13.9775	0.411
14.0166	0.452
14.0558	0.469
14.0949	0.488
14.1341	0.511
14.1732	0.523
14.2124	0.541
14.2515	0.546
14.2907	0.553
14.3299	0.558
14.369	0.562
14.4082	0.569
14.4473	0.569
14.4865	0.577
14.5256	0.582
14.5648	0.585
14.6039	0.598
14.6431	0.598
14.6822	0.601
14.7214	0.601
14.7605	0.598
14.7997	0.594
14.8388	0.602
14.878	0.61
14.9171	0.607
14.9563	0.604
14.9954	0.613
15.0346	0.617
15.0737	0.623
15.1129	0.623
15.1521	0.62
15.1912	0.618
15.2304	0.616
15.2695	0.611
15.3087	0.616
15.3478	0.62
15.387	0.616
15.4261	0.623
15.4653	0.621
15.5044	0.616
15.5436	0.627
15.5827	0.631
15.6219	0.638
15.661	0.636
15.7002	0.629
15.7393	0.626
15.7785	0.626
15.8176	0.627
15.8568	0.633
15.8959	0.633
15.9351	0.64
15.9743	0.639
16.0134	0.644
