Infrared Spectrum: 1,1-DIFLUORO-1,2,2,3,3-PENTACHLORO PROPANE
Formula: C3 H Cl5 F2
CAS: 422-30-0
State: SOLUTION (10% CCl4 FOR 5000-1330, 10% CS2 FOR 1330-625 CM^-^1)
Boiling point: 165-166 C AT 747 mmHg
Class: COBLENTZ
Instrument: Not specified, most likely a prism, grating, or hybrid spectrometer.
Sampling: TRANSMISSION
Path length: 0.0113 CM, 0.0109 CM
Resolution: 4
Origin: DOW CHEMICAL COMPANY
MICROMETERS	TRANSMITTANCE
2.027	0.846
2.06804	0.848
2.10907	0.849
2.15011	0.849
2.19115	0.849
2.23218	0.849
2.27322	0.849
2.31426	0.849
2.35529	0.846
2.39633	0.851
2.43737	0.856
2.4784	0.86
2.51944	0.866
2.56047	0.873
2.60151	0.873
2.64255	0.865
2.68358	0.865
2.72462	0.865
2.76566	0.856
2.80669	0.853
2.84773	0.849
2.88877	0.844
2.9298	0.839
2.97084	0.837
3.01188	0.836
3.05291	0.836
3.09395	0.837
3.13499	0.837
3.17602	0.841
3.21706	0.841
3.2581	0.837
3.29913	0.829
3.34017	0.773
3.38121	0.858
3.42224	0.853
3.46328	0.851
3.50431	0.851
3.54535	0.853
3.58639	0.854
3.62742	0.858
3.66846	0.858
3.7095	0.86
3.75053	0.86
3.79157	0.863
3.83261	0.861
3.87364	0.865
3.91468	0.866
3.95572	0.866
3.99675	0.863
4.03779	0.863
4.07883	0.861
4.11986	0.86
4.1609	0.861
4.20194	0.863
4.24297	0.853
4.28401	0.836
4.32504	0.831
4.36608	0.844
4.40712	0.854
4.44815	0.86
4.48919	0.863
4.53023	0.865
4.57126	0.861
4.6123	0.863
4.65334	0.872
4.69437	0.877
4.73541	0.873
4.77645	0.873
4.81748	0.878
4.85852	0.878
4.89956	0.872
4.94059	0.875
4.98163	0.877
5.02267	0.873
5.0637	0.878
5.10474	0.882
5.14578	0.882
5.18681	0.882
5.22785	0.88
5.26888	0.88
5.30992	0.883
5.35096	0.88
5.39199	0.88
5.43303	0.878
5.47407	0.878
5.5151	0.88
5.55614	0.882
5.59718	0.88
5.63821	0.882
5.67925	0.883
5.72029	0.883
5.76132	0.883
5.80236	0.883
5.8434	0.883
5.88443	0.883
5.92547	0.88
5.96651	0.878
6.00754	0.875
6.04858	0.863
6.08962	0.854
6.13065	0.854
6.17169	0.836
6.21272	0.788
6.25376	0.737
6.2948	0.667
6.33583	0.631
6.37687	0.604
6.41791	0.573
6.45894	0.496
6.49998	0.508
6.54102	0.597
6.58205	0.646
6.62309	0.703
6.66413	0.766
6.70516	0.808
6.7462	0.841
6.78724	0.849
6.82827	0.868
6.86931	0.87
6.91035	0.875
6.95138	0.877
6.99242	0.877
7.03345	0.877
7.07449	0.882
7.11553	0.882
7.15656	0.882
7.1976	0.883
7.23864	0.883
7.27967	0.88
7.32071	0.88
7.36175	0.877
7.40278	0.877
7.44382	0.878
7.48486	0.873
7.52589	0.87
7.56693	0.87
7.60797	0.868
7.649	0.863
7.69004	0.86
7.73108	0.858
7.77211	0.854
7.81315	0.849
7.85419	0.825
7.89522	0.796
7.93626	0.791
7.97729	0.819
8.01833	0.831
8.05937	0.832
8.1004	0.825
8.14144	0.783
8.18248	0.639
8.22351	0.459
8.26455	0.592
8.30559	0.728
8.34662	0.749
8.38766	0.737
8.4287	0.684
8.46973	0.571
8.51077	0.37
8.55181	0.1
8.59284	0.025
8.63388	0.029
8.67492	0.151
8.71595	0.356
8.75699	0.419
8.79803	0.332
8.83906	0.291
8.8801	0.544
8.92113	0.675
8.96217	0.703
9.00321	0.72
9.04424	0.75
9.08528	0.774
9.12632	0.788
9.16735	0.79
9.20839	0.784
9.24943	0.762
9.29046	0.742
9.3315	0.723
9.37254	0.667
9.41357	0.58
9.45461	0.537
9.49565	0.457
9.53668	0.515
9.57772	0.61
9.61876	0.617
9.65979	0.616
9.70083	0.595
9.74186	0.518
9.7829	0.443
9.82394	0.31
9.86497	0.073
9.90601	0.16
9.94705	0.477
9.98808	0.624
10.0291	0.686
10.0702	0.713
10.1112	0.689
10.1522	0.539
10.1933	0.445
10.2343	0.616
10.2753	0.715
10.3164	0.766
10.3574	0.805
10.3984	0.829
10.4395	0.831
10.4805	0.831
10.5216	0.829
10.5626	0.829
10.6036	0.836
10.6447	0.843
10.6857	0.844
10.7267	0.848
10.7678	0.839
10.8088	0.824
10.8499	0.815
10.8909	0.815
10.9319	0.829
10.973	0.831
11.014	0.825
11.055	0.822
11.0961	0.812
11.1371	0.796
11.1781	0.771
11.2192	0.75
11.2602	0.726
11.3013	0.692
11.3423	0.629
11.3833	0.595
11.4244	0.547
11.4654	0.482
11.5064	0.412
11.5475	0.401
11.5885	0.448
11.6295	0.479
11.6706	0.445
11.7116	0.409
11.7527	0.464
11.7937	0.554
11.8347	0.621
11.8758	0.66
11.9168	0.684
11.9578	0.708
11.9989	0.72
12.0399	0.718
12.0809	0.699
12.122	0.663
12.163	0.605
12.2041	0.513
12.2451	0.325
12.2861	0.124
12.3272	0.039
12.3682	0.119
12.4092	0.32
12.4503	0.481
12.4913	0.585
12.5323	0.643
12.5734	0.662
12.6144	0.658
12.6555	0.622
12.6965	0.568
12.7375	0.508
12.7786	0.44
12.8196	0.358
12.8606	0.208
12.9017	0.075
12.9427	0.023
12.9837	0.022
13.0248	0.105
13.0658	0.259
13.1069	0.353
13.1479	0.412
13.1889	0.416
13.23	0.418
13.271	0.428
13.312	0.428
13.3531	0.36
13.3941	0.232
13.4352	0.15
13.4762	0.216
13.5172	0.416
13.5583	0.546
13.5993	0.609
13.6403	0.627
13.6814	0.643
13.7224	0.658
13.7634	0.668
13.8045	0.674
13.8455	0.674
13.8866	0.668
13.9276	0.653
13.9686	0.629
14.0097	0.598
14.0507	0.546
14.0917	0.467
14.1328	0.397
14.1738	0.377
14.2148	0.418
14.2559	0.494
14.2969	0.561
14.338	0.592
14.379	0.612
14.42	0.621
14.4611	0.621
14.5021	0.621
14.5431	0.621
14.5842	0.617
14.6252	0.614
14.6662	0.607
14.7073	0.598
14.7483	0.588
14.7894	0.578
14.8304	0.573
14.8714	0.564
14.9125	0.552
14.9535	0.549
14.9945	0.544
15.0356	0.537
15.0766	0.527
15.1176	0.517
15.1587	0.501
15.1997	0.494
15.2408	0.479
15.2818	0.472
15.3228	0.464
15.3639	0.459
15.4049	0.452
15.4459	0.445
15.487	0.438
15.528	0.433
15.5691	0.428
15.6101	0.423
15.6511	0.416
15.6922	0.406
15.7332	0.392
15.7742	0.372
15.8153	0.351
15.8563	0.329
15.8973	0.319
