Infrared Spectrum: Acetoacetamide, N-tert-butyl-
Formula: C8 H15 N O2
CAS: 42222-06-0
State: SOLUTION (10% CCl4 FOR 3800-1330, 10% CS2 FOR 1330-400)
Class: COBLENTZ III
Instrument: BECKMAN IR-9 (GRATING)
Instrument parameters: ORDER CHANGES: 670, 1200, 2000 CM^-^1
Sampling: TRANSMISSION
Path length: 0.011 CM, 0.010 CM
Resolution: 2
Origin: DOW CHEMICAL COMPANY
1/CM	TRANSMITTANCE
404	0.1665
413	0.2656
422	0.4221
431	0.486
440	0.5417
449	0.5546
458	0.5249
467	0.5267
476	0.5552
485	0.6073
494	0.6463
503	0.6473
512	0.6723
521	0.6825
530	0.6452
539	0.5875
548	0.5467
557	0.625
566	0.6517
575	0.6026
584	0.5511
593	0.6235
602	0.6733
611	0.6945
620	0.725
629	0.7422
638	0.7302
647	0.6906
656	0.6402
665	0.6547
674	0.6771
683	0.6694
692	0.6906
701	0.7163
710	0.7448
719	0.7704
728	0.766
737	0.7397
746	0.7869
755	0.7809
764	0.8354
773	0.8521
782	0.7445
791	0.7334
800	0.7183
809	0.7978
818	0.8408
827	0.8615
836	0.8634
845	0.8435
854	0.7826
863	0.7297
872	0.737
881	0.7572
890	0.7727
899	0.7622
908	0.769
917	0.7209
926	0.7128
935	0.6859
944	0.7677
953	0.6779
962	0.7232
971	0.7816
980	0.8237
989	0.8274
998	0.8027
1007	0.7491
1016	0.7845
1025	0.7417
1034	0.6831
1043	0.8065
1052	0.7849
1061	0.8072
1070	0.8585
1079	0.865
1088	0.8658
1097	0.8596
1106	0.8508
1115	0.8365
1124	0.81
1133	0.7646
1142	0.6762
1151	0.5309
1160	0.3184
1169	0.3718
1178	0.4865
1187	0.5344
1196	0.4507
1205	0.3273
1214	0.1944
1223	0.1283
1232	0.0761
1241	0.284
1250	0.4535
1259	0.4628
1268	0.3863
1277	0.2723
1286	0.3317
1295	0.3851
1304	0.4118
1313	0.3894
1322	0.3029
1331	0.2836
1340	0.3487
1349	0.3849
1358	0.1217
1367	0.0186
1376	0.3275
1385	0.3438
1394	0.1354
1403	0.2931
1412	0.2253
1421	0.2703
1430	0.3391
1439	0.4112
1448	0.2819
1457	0.0696
1466	0.3588
1475	0.3968
1484	0.3482
1493	0.4421
1502	0.3251
1511	0.2294
1520	0.1401
1529	0.0609
1538	0.0202
1547	0.0125
1556	0.0168
1565	0.0613
1574	0.2494
1583	0.353
1592	0.4127
1601	0.4524
1610	0.4507
1619	0.3595
1628	0.3237
1637	0.1847
1646	0.0178
1655	0.0093
1664	0.0081
1673	0.0081
1682	0.0097
1691	0.0849
1700	0.1555
1709	0.0316
1718	0.0138
1727	0.0594
1736	0.3155
1745	0.5006
1754	0.5991
1763	0.687
1772	0.734
1781	0.7625
1790	0.7819
1799	0.7951
1808	0.8077
1817	0.8193
1826	0.8265
1835	0.8326
1844	0.8388
1853	0.8426
1862	0.8457
1871	0.8502
1880	0.8538
1889	0.8564
1898	0.8586
1907	0.8601
1916	0.8614
1925	0.8632
1934	0.8643
1943	0.8645
1952	0.8644
1961	0.8644
1970	0.8638
1979	0.8633
1988	0.8638
1997	0.8552
2006	0.8731
2015	0.8774
2024	0.8791
2033	0.8799
2042	0.8808
2051	0.8817
2060	0.8821
2069	0.8811
2078	0.8808
2087	0.8817
2096	0.8813
2105	0.8806
2114	0.88
2123	0.8794
2132	0.8773
2141	0.8735
2150	0.8708
2159	0.8708
2168	0.8714
2177	0.8712
2186	0.8715
2195	0.8732
2204	0.874
2213	0.873
2222	0.8709
2231	0.8685
2240	0.8663
2249	0.8641
2258	0.8603
2267	0.8587
2276	0.8575
2285	0.8473
2294	0.8469
2303	0.8499
2312	0.8536
2321	0.8569
2330	0.8618
2339	0.8672
2348	0.8747
2357	0.876
2366	0.8758
2375	0.8733
2384	0.8671
2393	0.8572
2402	0.8553
2411	0.8556
2420	0.8564
2429	0.8574
2438	0.858
2447	0.8568
2456	0.8557
2465	0.8548
2474	0.8539
2483	0.853
2492	0.8522
2501	0.8516
2510	0.8513
2519	0.8509
2528	0.8493
2537	0.8475
2546	0.8455
2555	0.843
2564	0.8398
2573	0.8362
2582	0.8325
2591	0.8295
2600	0.8292
2609	0.8313
2618	0.8345
2627	0.8366
2636	0.8373
2645	0.8368
2654	0.8352
2663	0.8323
2672	0.8292
2681	0.8257
2690	0.8221
2699	0.8173
2708	0.8106
2717	0.8047
2726	0.8057
2735	0.8059
2744	0.8038
2753	0.7999
2762	0.7952
2771	0.7919
2780	0.79
2789	0.79
2798	0.7872
2807	0.7729
2816	0.7602
2825	0.7609
2834	0.7592
2843	0.7337
2852	0.6899
2861	0.5395
2870	0.4734
2879	0.4697
2888	0.4918
2897	0.482
2906	0.3842
2915	0.3834
2924	0.3446
2933	0.319
2942	0.3728
2951	0.3166
2960	0.1653
2969	0.0837
2978	0.1426
2987	0.3274
2996	0.3367
3005	0.5197
3014	0.6306
3023	0.6845
3032	0.7008
3041	0.6991
3050	0.6788
3059	0.6516
3068	0.6194
3077	0.6199
3086	0.646
3095	0.6792
3104	0.7157
3113	0.7374
3122	0.7512
3131	0.7599
3140	0.7647
3149	0.7653
3158	0.7636
3167	0.7587
3176	0.7497
3185	0.7355
3194	0.7199
3203	0.6997
3212	0.6858
3221	0.6802
3230	0.6767
3239	0.6681
3248	0.6358
3257	0.5837
3266	0.547
3275	0.5069
3284	0.4414
3293	0.3891
3302	0.3449
3311	0.3039
3320	0.2622
3329	0.2249
3338	0.2122
3347	0.2132
3356	0.2318
3365	0.2718
3374	0.3219
3383	0.3727
3392	0.4685
3401	0.5362
3410	0.6045
3419	0.6356
3428	0.6552
3437	0.6536
3446	0.6255
3455	0.738
3464	0.7765
3473	0.7919
3482	0.801
3491	0.8066
3500	0.811
3509	0.8148
3518	0.8177
3527	0.82
3536	0.8222
3545	0.8244
3554	0.827
3563	0.8291
3572	0.8298
3581	0.8265
3590	0.8273
3599	0.8366
3608	0.8397
3617	0.8418
3626	0.8445
3635	0.847
3644	0.8488
3653	0.8481
3662	0.8445
3671	0.8399
3680	0.8356
3689	0.8372
3698	0.8473
3707	0.8548
3716	0.8559
3725	0.856
3734	0.8559
3743	0.8558
3752	0.8556
3761	0.8553
3770	0.8549
3779	0.8544
3788	0.8543
3797	0.8538
