Infrared Spectrum: N-t-Octylacrylamide
Formula: C 11 H 21 N O
CAS: 4223-03-4
State: gas
Origin: EPA-IR VAPOR PHASE LIBRARY
1/CM	ABSORBANCE
549.8	0.00425
559.445	0.00361
569.09	0.00301
578.734	0.00271
588.379	0.00237
598.024	0.00205
607.669	0.00139
617.313	0.00106
626.958	0.0009964
636.603	0.0008676
646.248	0.0009578
655.893	0.0009513
665.537	0.00163
675.182	0.00263
684.827	0.002
694.472	0.0009142
704.116	0.0007426
713.761	0.0004769
723.406	0.0006952
733.051	0.0007924
742.695	0.0008334
752.34	0.0008256
761.985	0.00172
771.63	0.0023
781.275	0.00506
790.919	0.00997
800.564	0.00972
810.209	0.00481
819.854	0.00329
829.498	0.00303
839.143	0.00359
848.788	0.00412
858.433	0.00522
868.078	0.00483
877.722	0.00481
887.367	0.00478
897.012	0.00517
906.657	0.0062
916.301	0.0077
925.946	0.01131
935.591	0.01421
945.236	0.01367
954.88	0.01655
964.525	0.02056
974.17	0.02148
983.815	0.01337
993.46	0.00884
1003.1	0.00617
1012.75	0.005
1022.39	0.00442
1032.04	0.00417
1041.68	0.00423
1051.33	0.00426
1060.97	0.00562
1070.62	0.00492
1080.26	0.00342
1089.91	0.00244
1099.55	0.00275
1109.2	0.00279
1118.84	0.00405
1128.49	0.00653
1138.13	0.00827
1147.78	0.01039
1157.42	0.00956
1167.07	0.00828
1176.71	0.01112
1186.36	0.02217
1196	0.03911
1205.64	0.04495
1215.29	0.04355
1224.93	0.04639
1234.58	0.04699
1244.22	0.03783
1253.87	0.02485
1263.51	0.02016
1273.16	0.01789
1282.8	0.01285
1292.45	0.00936
1302.09	0.01025
1311.74	0.01075
1321.38	0.01079
1331.03	0.01017
1340.67	0.01011
1350.32	0.01488
1359.96	0.02107
1369.61	0.03181
1379.25	0.02516
1388.9	0.02695
1398.54	0.03123
1408.18	0.02431
1417.83	0.01794
1427.47	0.02015
1437.12	0.02695
1446.76	0.03811
1456.41	0.04547
1466.05	0.04963
1475.7	0.06671
1485.34	0.10233
1494.99	0.13894
1504.63	0.107
1514.28	0.04989
1523.92	0.02463
1533.57	0.0146
1543.21	0.00997
1552.86	0.00751
1562.5	0.00625
1572.15	0.00576
1581.79	0.00558
1591.44	0.00562
1601.08	0.00647
1610.73	0.01009
1620.37	0.015
1630.01	0.0142
1639.66	0.01154
1649.3	0.00888
1658.95	0.00866
1668.59	0.01127
1678.24	0.01953
1687.88	0.0455
1697.53	0.09844
1707.17	0.10193
1716.82	0.03933
1726.46	0.0131
1736.11	0.00738
1745.75	0.00561
1755.4	0.00472
1765.04	0.00406
1774.69	0.00318
1784.33	0.00232
1793.98	0.0018
1803.62	0.0015
1813.27	0.00137
1822.91	0.00137
1832.55	0.0012
1842.2	0.00122
1851.84	0.00118
1861.49	0.00145
1871.13	0.00162
1880.78	0.00128
1890.42	0.0011
1900.07	0.00128
1909.71	0.00186
1919.36	0.00216
1929	0.00175
1938.65	0.00111
1948.29	0.0007047
1957.94	0.0006164
1967.58	0.0005689
1977.23	0.000571
1986.87	0.0005322
1996.52	0.0003812
2006.16	0.0003589
2015.81	0.0004313
2025.45	0.0003217
2035.1	0.0003821
2044.74	0.0003789
2054.38	0.0003658
2064.03	0.0003939
2073.67	0.0004088
2083.32	0.0003761
2092.96	0.0004973
2102.61	0.0004471
2112.25	0.0004085
2121.9	0.000365
2131.54	0.0002996
2141.19	0.0003263
2150.83	0.0002891
2160.48	0.0002771
2170.12	0.0003734
2179.77	0.0002665
2189.41	0.0002031
2199.06	0.0001901
2208.7	0.0002159
2218.35	0.0002028
2227.99	0.0003388
2237.64	0.000201
2247.28	0.000208
2256.92	0.0002613
2266.57	0.000237
2276.21	0.0002471
2285.86	0.000307
2295.5	0.0003607
2305.15	0.0002632
2314.79	0.000265
2324.44	0.0003812
2334.08	0.0003834
2343.73	0.0004218
2353.37	0.0005758
2363.02	0.0005202
2372.66	0.0004156
2382.31	0.0004961
2391.95	0.0004204
2401.6	0.0004636
2411.24	0.0004041
2420.89	0.0003416
2430.53	0.0003087
2440.18	0.0001612
2449.82	0.0002897
2459.47	0.0002842
2469.11	0.0003629
2478.75	0.0002289
2488.4	0.0002247
2498.04	0.0002505
2507.69	0.0003135
2517.33	0.0003024
2526.98	0.00031
2536.62	0.0003365
2546.27	0.0003435
2555.91	0.0003475
2565.56	0.0004937
2575.2	0.0004408
2584.85	0.0004585
2594.49	0.0004831
2604.14	0.0005131
2613.78	0.0006723
2623.43	0.0006239
2633.07	0.0008137
2642.72	0.0008679
2652.36	0.00106
2662.01	0.00114
2671.65	0.00124
2681.29	0.00141
2690.94	0.00142
2700.58	0.00149
2710.23	0.00162
2719.87	0.00195
2729.52	0.00193
2739.16	0.00184
2748.81	0.00168
2758.45	0.00172
2768.1	0.00169
2777.74	0.00195
2787.39	0.00231
2797.03	0.00256
2806.68	0.00321
2816.32	0.00373
2825.97	0.00459
2835.61	0.00591
2845.26	0.00809
2854.9	0.01106
2864.55	0.01829
2874.19	0.0298
2883.84	0.03616
2893.48	0.03919
2903.12	0.04505
2912.77	0.04888
2922.41	0.04806
2932.06	0.04913
2941.7	0.05921
2951.35	0.08294
2960.99	0.11366
2970.64	0.10206
2980.28	0.06512
2989.93	0.04477
2999.57	0.034
3009.22	0.02181
3018.86	0.01369
3028.51	0.009
3038.15	0.0053
3047.8	0.00399
3057.44	0.00397
3067.09	0.00327
3076.73	0.00339
3086.38	0.00552
3096.02	0.00612
3105.67	0.00439
3115.31	0.00258
3124.95	0.00138
3134.6	0.0015
3144.24	0.00136
3153.89	0.00145
3163.53	0.00151
3173.18	0.00157
3182.82	0.00139
3192.47	0.00174
3202.11	0.00146
3211.76	0.00156
3221.4	0.00134
3231.05	0.00139
3240.69	0.00133
3250.34	0.00117
3259.98	0.0012
3269.63	0.0009356
3279.27	0.0007622
3288.92	0.0008573
3298.56	0.0006248
3308.21	0.0004929
3317.85	0.00113
3327.49	0.0006865
3337.14	0.0008864
3346.78	0.0008542
3356.43	0.0009169
3366.07	0.00108
3375.72	0.00125
3385.36	0.0018
3395.01	0.00209
3404.65	0.0015
3414.3	0.00155
3423.94	0.00201
3433.59	0.00318
3443.23	0.00574
3452.88	0.00822
3462.52	0.00807
3472.17	0.00672
3481.81	0.00458
3491.46	0.00231
3501.1	0.00174
3510.75	0.00117
3520.39	0.0007707
3530.04	0.0007943
3539.68	0.0008029
3549.32	0.0006154
3558.97	0.0005908
3568.61	0.0004693
3578.26	0.0003144
3587.9	0.000437
3597.55	0.0001102
3607.19	0.0003321
3616.84	0.0004266
3626.48	0.0004119
3636.13	0.0005079
3645.77	0.000329
3655.42	0.000261
3665.06	0.0002182
3674.71	0.0001854
3684.35	0.0003325
3694	0.000149
3703.64	0.0002516
3713.29	0.0002402
3722.93	0.0001984
3732.58	0.000307
3742.22	0.0004481
3751.86	0.0002796
3761.51	0.0002994
3771.15	9.384e-05
3780.8	0.0002969
3790.44	0.0003269
3800.09	0.0003629
3809.73	0.0005791
3819.38	0.0003976
3829.02	0.0003031
3838.67	0.0005875
3848.31	0.000639
3857.96	0.0006803
3867.6	0.0004846
3877.25	0.000564
3886.89	0.0004539
3896.54	0.0004768
3906.18	0.0004711
3915.83	0.0005549
3925.47	0.0003931
3935.12	0.0005468
3944.76	0.000768
3954.41	0.0004911
3964.05	0.0003065
3973.69	0.0002787
3983.34	0.0005418
3992.98	0.0005115
