Infrared Spectrum: Acetic acid, bis(4-methoxyphenyl)methyl ester
Formula: C17 H18 O4
CAS: 42240-30-2
State: LIQUID (NEAT)
Class: COBLENTZ III
Instrument: PERKIN-ELMER 180 (GRATING)
Instrument parameters: GRATINGS: 2000, 1000, 500, 250 CM^-^1; FILTER CHANGE: 2970, 2000, 1485, 1000, 743, 500, 372, 250, 186 CM^-^1.
Sampling: TRANSMISSION
Path length: CAPILLARY BETWEEN KBr PLATES
Resolution: 2
Origin: K. K. DEB-NCI FREDERICK CANCER RESEARCH CENTER
1/CM	TRANSMITTANCE
403	0.7175
412	0.7545
421	0.7918
430	0.8221
439	0.8393
448	0.845
457	0.8481
466	0.8596
475	0.8757
484	0.8823
493	0.8779
502	0.8673
511	0.8439
520	0.8114
529	0.8392
538	0.8143
547	0.6586
556	0.4734
565	0.4459
574	0.6711
583	0.7845
592	0.7017
601	0.705
610	0.6534
619	0.8409
628	0.8095
637	0.8374
646	0.8866
655	0.853
664	0.8467
673	0.889
682	0.9032
691	0.9062
700	0.9043
709	0.8916
718	0.8886
727	0.8617
736	0.8814
745	0.8913
754	0.8849
763	0.8661
772	0.7379
781	0.6728
790	0.8399
799	0.8273
808	0.6054
817	0.296
826	0.2853
835	0.3349
844	0.6454
853	0.7012
862	0.6535
871	0.7193
880	0.7731
889	0.8402
898	0.8483
907	0.8445
916	0.8149
925	0.7649
934	0.7445
943	0.7186
952	0.6657
961	0.5619
970	0.4926
979	0.5784
988	0.7189
997	0.7159
1006	0.5381
1015	0.4102
1024	0.2378
1033	0.0996
1042	0.2574
1051	0.5321
1060	0.6581
1069	0.7155
1078	0.7575
1087	0.7928
1096	0.816
1105	0.7891
1114	0.551
1123	0.7411
1132	0.7862
1141	0.8066
1150	0.7783
1159	0.7303
1168	0.3141
1177	0.0467
1186	0.3122
1195	0.5245
1204	0.5603
1213	0.4751
1222	0.1872
1231	0.0261
1240	0.0151
1249	0.0125
1258	0.0754
1267	0.2777
1276	0.3375
1285	0.483
1294	0.4378
1303	0.2662
1312	0.586
1321	0.6803
1330	0.7157
1339	0.7229
1348	0.7079
1357	0.6854
1366	0.4992
1375	0.407
1384	0.6839
1393	0.7672
1402	0.7796
1411	0.7612
1420	0.6721
1429	0.655
1438	0.6031
1447	0.4928
1456	0.5026
1465	0.3601
1474	0.5159
1483	0.7068
1492	0.6858
1501	0.4419
1510	0.0824
1519	0.0376
1528	0.534
1537	0.7508
1546	0.7981
1555	0.8107
1564	0.8138
1573	0.7892
1582	0.6574
1591	0.5721
1600	0.6309
1609	0.2718
1618	0.3074
1627	0.6064
1636	0.7698
1645	0.7947
1654	0.8061
1663	0.8203
1672	0.8236
1681	0.8142
1690	0.787
1699	0.7458
1708	0.6521
1717	0.5269
1726	0.2861
1735	0.1052
1744	0.1084
1753	0.3234
1762	0.6612
1771	0.7378
1780	0.7878
1789	0.8151
1798	0.8355
1807	0.8523
1816	0.8627
1825	0.8683
1834	0.8711
1843	0.8725
1852	0.8733
1861	0.8723
1870	0.8668
1879	0.8583
1888	0.8487
1897	0.8519
1906	0.8627
1915	0.8719
1924	0.8798
1933	0.8834
1942	0.8816
1951	0.8792
1960	0.8814
1969	0.8886
1978	0.8966
1987	0.8961
1996	0.8912
2005	0.8834
2014	0.8748
2023	0.8632
2032	0.8635
2041	0.8719
2050	0.8707
2059	0.8644
2068	0.8698
2077	0.8775
2086	0.8851
2095	0.8936
2104	0.8997
2113	0.9018
2122	0.9023
2131	0.9024
2140	0.9015
2149	0.899
2158	0.8952
2167	0.8946
2176	0.8953
2185	0.8965
2194	0.8981
2203	0.8995
2212	0.9011
2221	0.9021
2230	0.9028
2239	0.9031
2248	0.9032
2257	0.9024
2266	0.9004
2275	0.8961
2284	0.8896
2293	0.8836
2302	0.8916
2311	0.8995
2320	0.9012
2329	0.9017
2338	0.9016
2347	0.901
2356	0.9006
2365	0.9
2374	0.8995
2383	0.8983
2392	0.8968
2401	0.8953
2410	0.8936
2419	0.892
2428	0.8926
2437	0.8931
2446	0.892
2455	0.8894
2464	0.8861
2473	0.8826
2482	0.8801
2491	0.8805
2500	0.8813
2509	0.8814
2518	0.8813
2527	0.8792
2536	0.8745
2545	0.8665
2554	0.8599
2563	0.8667
2572	0.8811
2581	0.8841
2590	0.8817
2599	0.8781
2608	0.8758
2617	0.8767
2626	0.8779
2635	0.879
2644	0.8809
2653	0.8829
2662	0.8854
2671	0.886
2680	0.8847
2689	0.8834
2698	0.8825
2707	0.8824
2716	0.8826
2725	0.8838
2734	0.8846
2743	0.8835
2752	0.8806
2761	0.877
2770	0.8765
2779	0.8762
2788	0.8755
2797	0.8748
2806	0.8714
2815	0.866
2824	0.8513
2833	0.6782
2842	0.5898
2851	0.7711
2860	0.8158
2869	0.8194
2878	0.8159
2887	0.8041
2896	0.7792
2905	0.6953
2914	0.6562
2923	0.669
2932	0.5984
2941	0.576
2950	0.5984
2959	0.5737
2968	0.6167
2977	0.6824
2986	0.7223
2995	0.6751
3004	0.6244
3013	0.6654
3022	0.7255
3031	0.7334
3040	0.7227
3049	0.76
3058	0.7635
3067	0.7612
3076	0.7715
3085	0.7915
3094	0.8123
3103	0.8214
3112	0.8278
3121	0.833
3130	0.8345
3139	0.8359
3148	0.8411
3157	0.8459
3166	0.8467
3175	0.8464
3184	0.8478
3193	0.8492
3202	0.8497
3211	0.8502
3220	0.8505
3229	0.8506
3238	0.8508
3247	0.851
3256	0.8512
3265	0.8514
3274	0.8517
3283	0.8519
3292	0.8522
3301	0.8527
3310	0.854
3319	0.8551
3328	0.8564
3337	0.8575
3346	0.8591
3355	0.861
3364	0.8628
3373	0.8646
3382	0.8665
3391	0.8682
3400	0.8699
3409	0.8716
3418	0.8733
3427	0.8722
3436	0.8707
3445	0.869
3454	0.8657
3463	0.864
3472	0.8661
3481	0.8697
3490	0.8746
3499	0.8786
3508	0.8804
3517	0.8821
3526	0.8838
3535	0.8852
3544	0.8862
3553	0.8872
3562	0.8882
3571	0.8891
3580	0.8899
3589	0.8908
3598	0.8916
3607	0.8925
3616	0.8933
3625	0.8932
3634	0.8932
3643	0.8932
3652	0.8932
3661	0.8928
3670	0.892
3679	0.8914
3688	0.8917
3697	0.892
3706	0.8925
3715	0.8927
3724	0.8929
3733	0.8939
3742	0.8993
3751	0.904
3760	0.8981
3769	0.8938
3778	0.8924
3787	0.8921
3796	0.8919
