Infrared Spectrum: 2-(4-MORPHOLINYL)BENZOTHIAZOLE
Formula: C11 H12 N2 O S
CAS: 4225-26-7
State: SOLUTION (10% CCl4 FOR 5000-1330, 10% CS2 FOR 1330-625 CM^-^1)
Class: COBLENTZ
Instrument: Not specified, most likely a prism, grating, or hybrid spectrometer.
Sampling: TRANSMISSION
Path length: 0.0122 CM, 0.0119 CM
Resolution: 4
Origin: DOW CHEMICAL COMPANY
MICROMETERS	TRANSMITTANCE
2.02	0.875
2.06021	0.87
2.10042	0.868
2.14063	0.867
2.18085	0.86
2.22106	0.844
2.26127	0.837
2.30148	0.837
2.34169	0.837
2.3819	0.84
2.42212	0.845
2.46233	0.854
2.50254	0.868
2.54275	0.882
2.58296	0.875
2.62317	0.87
2.66339	0.873
2.7036	0.868
2.74381	0.865
2.78402	0.862
2.82423	0.857
2.86444	0.849
2.90465	0.839
2.94487	0.842
2.98508	0.844
3.02529	0.844
3.0655	0.845
3.10571	0.849
3.14592	0.854
3.18614	0.864
3.22635	0.807
3.26656	0.747
3.30677	0.819
3.34698	0.582
3.38719	0.514
3.42741	0.494
3.46762	0.487
3.50783	0.467
3.54804	0.809
3.58825	0.835
3.62846	0.819
3.66868	0.815
3.70889	0.83
3.7491	0.842
3.78931	0.865
3.82952	0.867
3.86973	0.873
3.90994	0.868
3.95016	0.878
3.99037	0.877
4.03058	0.872
4.07079	0.872
4.111	0.877
4.15121	0.893
4.19143	0.897
4.23164	0.88
4.27185	0.868
4.31206	0.868
4.35227	0.873
4.39248	0.882
4.4327	0.885
4.47291	0.887
4.51312	0.89
4.55333	0.89
4.59354	0.89
4.63375	0.887
4.67396	0.877
4.71418	0.877
4.75439	0.88
4.7946	0.883
4.83481	0.888
4.87502	0.892
4.91523	0.895
4.95545	0.897
4.99566	0.897
5.03587	0.887
5.07608	0.875
5.11629	0.859
5.1565	0.85
5.19672	0.878
5.23693	0.86
5.27714	0.87
5.31735	0.888
5.35756	0.872
5.39777	0.895
5.43799	0.895
5.4782	0.877
5.51841	0.883
5.55862	0.883
5.59883	0.862
5.63904	0.882
5.67925	0.9
5.71947	0.897
5.75968	0.897
5.79989	0.913
5.8401	0.902
5.88031	0.883
5.92052	0.868
5.96074	0.878
6.00095	0.892
6.04116	0.888
6.08137	0.877
6.12158	0.865
6.16179	0.873
6.20201	0.882
6.24222	0.883
6.28243	0.892
6.32264	0.9
6.36285	0.892
6.40306	0.882
6.44327	0.89
6.48349	0.883
6.5237	0.87
6.56391	0.86
6.60412	0.854
6.64433	0.849
6.68454	0.827
6.72476	0.615
6.76497	0.266
6.80518	0.207
6.84539	0.278
6.8856	0.28
6.92581	0.368
6.96603	0.145
7.00624	0.285
7.04645	0.655
7.08666	0.751
7.12687	0.809
7.16708	0.771
7.20729	0.703
7.24751	0.797
7.28772	0.733
7.32793	0.653
7.36814	0.752
7.40835	0.854
7.44856	0.859
7.48878	0.852
7.52899	0.84
7.5692	0.804
7.60941	0.608
7.64962	0.669
7.68983	0.731
7.73005	0.719
7.77026	0.588
7.81047	0.655
7.85068	0.643
7.89089	0.601
7.9311	0.409
7.97132	0.426
8.01153	0.754
8.05174	0.565
8.09195	0.447
8.13216	0.729
8.17237	0.854
8.21258	0.857
8.2528	0.847
8.29301	0.845
8.33322	0.898
8.37343	0.913
8.41364	0.907
8.45385	0.885
8.49407	0.865
8.53428	0.86
8.57449	0.859
8.6147	0.832
8.65491	0.829
8.69512	0.829
8.73534	0.814
8.77555	0.781
8.81576	0.721
8.85597	0.626
8.89618	0.411
8.93639	0.205
8.9766	0.049
9.01682	0.104
9.05703	0.399
9.09724	0.631
9.13745	0.742
9.17766	0.786
9.21787	0.757
9.25809	0.635
9.2983	0.595
9.33851	0.638
9.37872	0.718
9.41893	0.729
9.45914	0.668
9.49936	0.678
9.53957	0.744
9.57978	0.784
9.61999	0.796
9.6602	0.786
9.70041	0.741
9.74063	0.592
9.78084	0.434
9.82105	0.451
9.86126	0.505
9.90147	0.313
9.94168	0.344
9.98189	0.628
10.0221	0.691
10.0623	0.726
10.1025	0.729
10.1427	0.713
10.183	0.651
10.2232	0.538
10.2634	0.449
10.3036	0.451
10.3438	0.432
10.384	0.421
10.4242	0.53
10.4644	0.567
10.5046	0.545
10.5449	0.436
10.5851	0.268
10.6253	0.16
10.6655	0.131
10.7057	0.147
10.7459	0.303
10.7861	0.53
10.8263	0.588
10.8665	0.605
10.9068	0.626
10.947	0.635
10.9872	0.568
11.0274	0.547
11.0676	0.737
11.1078	0.83
11.148	0.857
11.1882	0.875
11.2285	0.88
11.2687	0.888
11.3089	0.902
11.3491	0.908
11.3893	0.91
11.4295	0.913
11.4697	0.918
11.5099	0.92
11.5501	0.912
11.5904	0.9
11.6306	0.89
11.6708	0.888
11.711	0.857
11.7512	0.756
11.7914	0.597
11.8316	0.62
11.8718	0.807
11.9121	0.878
11.9523	0.905
11.9925	0.918
12.0327	0.936
12.0729	0.948
12.1131	0.955
12.1533	0.96
12.1935	0.955
12.2337	0.958
12.274	0.96
12.3142	0.96
12.3544	0.96
12.3946	0.958
12.4348	0.956
12.475	0.955
12.5152	0.955
12.5554	0.955
12.5956	0.956
12.6359	0.956
12.6761	0.956
12.7163	0.956
12.7565	0.956
12.7967	0.955
12.8369	0.955
12.8771	0.945
12.9173	0.932
12.9576	0.92
12.9978	0.902
13.038	0.857
13.0782	0.804
13.1184	0.711
13.1586	0.562
13.1988	0.368
13.239	0.102
13.2792	0.038
13.3195	0.172
13.3597	0.464
13.3999	0.676
13.4401	0.814
13.4803	0.862
13.5205	0.888
13.5607	0.898
13.6009	0.895
13.6411	0.857
13.6814	0.746
13.7216	0.545
13.7618	0.323
13.802	0.25
13.8422	0.512
13.8824	0.721
13.9226	0.834
13.9628	0.877
14.0031	0.89
14.0433	0.905
14.0835	0.905
14.1237	0.878
14.1639	0.84
14.2041	0.82
14.2443	0.819
14.2845	0.83
14.3247	0.849
14.365	0.839
14.4052	0.802
14.4454	0.759
14.4856	0.734
14.5258	0.724
14.566	0.751
14.6062	0.807
14.6464	0.847
14.6867	0.86
14.7269	0.864
14.7671	0.852
14.8073	0.81
14.8475	0.757
14.8877	0.706
14.9279	0.671
14.9681	0.646
15.0083	0.641
15.0486	0.676
15.0888	0.733
15.129	0.786
15.1692	0.817
15.2094	0.834
15.2496	0.844
15.2898	0.849
15.33	0.854
15.3702	0.857
15.4105	0.857
15.4507	0.859
15.4909	0.859
15.5311	0.859
15.5713	0.857
15.6115	0.854
15.6517	0.85
15.6919	0.845
15.7322	0.837
15.7724	0.834
15.8126	0.83
15.8528	0.827
15.893	0.825
