Infrared Spectrum: Aniline, 4-tert-butyl-2-chloro-
Formula: C10 H14 Cl N
CAS: 42265-67-8
State: LIQUID (NEAT)
Class: COBLENTZ III
Instrument: BECKMAN IR-4 (HYBRID PRISM-GRATING)
Instrument parameters: NaCl PRISM
Sampling: TRANSMISSION
Path length: CAPILLARY
Resolution: 2
Origin: MONSANTO (J. FREEMAN)
1/CM	TRANSMITTANCE
625.431	0.5346
634.267	0.5411
643.103	0.5409
651.94	0.5316
660.776	0.526
669.612	0.5027
678.448	0.5011
687.284	0.5123
696.12	0.5238
704.957	0.5349
713.793	0.3764
722.629	0.22
731.465	0.4992
740.301	0.6018
749.137	0.6425
757.974	0.6706
766.81	0.6945
775.646	0.715
784.482	0.7336
793.318	0.7195
802.154	0.5213
810.991	0.1856
819.827	0.3397
828.663	0.5939
837.499	0.7249
846.335	0.7612
855.171	0.7539
864.008	0.5716
872.844	0.2566
881.68	0.4866
890.516	0.7309
899.352	0.8074
908.188	0.8258
917.025	0.7681
925.861	0.7989
934.697	0.803
943.533	0.8391
952.369	0.8702
961.205	0.8796
970.042	0.887
978.878	0.8938
987.714	0.897
996.55	0.8988
1005.39	0.8975
1014.22	0.8352
1023.06	0.8272
1031.89	0.6686
1040.73	0.4132
1049.57	0.6274
1058.4	0.6908
1067.24	0.6814
1076.08	0.704
1084.91	0.7808
1093.75	0.8544
1102.58	0.8597
1111.42	0.6578
1120.26	0.3943
1129.09	0.7873
1137.93	0.8635
1146.76	0.8385
1155.6	0.5967
1164.44	0.5791
1173.27	0.8488
1182.11	0.8755
1190.95	0.7962
1199.78	0.668
1208.62	0.8249
1217.45	0.8495
1226.29	0.8376
1235.13	0.7264
1243.96	0.5229
1252.8	0.2814
1261.64	0.3361
1270.47	0.2419
1279.31	0.5577
1288.14	0.3962
1296.98	0.2584
1305.82	0.3331
1314.65	0.4961
1323.49	0.7433
1332.32	0.8239
1341.16	0.8621
1350	0.7231
1358.83	0.3629
1367.67	0.6803
1376.51	0.7693
1385.34	0.5938
1394.18	0.4413
1403.01	0.4819
1411.85	0.7887
1420.69	0.8126
1429.52	0.7533
1438.36	0.6859
1447.19	0.639
1456.03	0.4558
1464.87	0.4168
1473.7	0.4328
1482.54	0.3392
1491.38	0.2459
1500.21	0.1021
1509.05	0.0956
1517.88	0.4104
1526.72	0.6778
1535.56	0.6845
1544.39	0.6391
1553.23	0.5903
1562.06	0.514
1570.9	0.6108
1579.74	0.5428
1588.57	0.3729
1597.41	0.3921
1606.25	0.2474
1615.08	0.1115
1623.92	0.2764
1632.75	0.4743
1641.59	0.6699
1650.43	0.827
1659.26	0.8695
1668.1	0.9032
1676.93	0.9235
1685.77	0.9367
1694.61	0.9485
1703.44	0.957
1712.28	0.9609
1721.12	0.9579
1729.95	0.93
1738.79	0.9021
1747.62	0.8908
1756.46	0.9146
1765.3	0.9386
1774.13	0.9511
1782.97	0.9559
1791.81	0.9559
1800.64	0.9531
1809.48	0.9496
1818.31	0.9474
1827.15	0.9526
1835.99	0.9582
1844.82	0.9575
1853.66	0.9487
1862.49	0.9337
1871.33	0.9108
1880.17	0.9064
1889	0.925
1897.84	0.9402
1906.68	0.9478
1915.51	0.9507
1924.35	0.9522
1933.18	0.954
1942.02	0.9556
1950.86	0.9573
1959.69	0.9585
1968.53	0.9592
1977.36	0.9593
1986.2	0.9591
1995.04	0.9582
2003.87	0.9576
2012.71	0.9575
2021.55	0.9584
2030.38	0.9603
2039.22	0.963
2048.05	0.9631
2056.89	0.962
2065.73	0.9606
2074.56	0.9591
2083.4	0.9581
2092.23	0.9572
2101.07	0.956
2109.91	0.9549
2118.74	0.9542
2127.58	0.9538
2136.42	0.9534
2145.25	0.9541
2154.09	0.9548
2162.92	0.9537
2171.76	0.9528
2180.6	0.9537
2189.43	0.9555
2198.27	0.9564
2207.1	0.9574
2215.94	0.9582
2224.78	0.9591
2233.61	0.96
2242.45	0.9612
2251.29	0.9625
2260.12	0.9616
2268.96	0.9604
2277.79	0.9584
2286.63	0.9582
2295.47	0.9585
2304.3	0.9589
2313.14	0.9593
2321.98	0.9592
2330.81	0.9591
2339.65	0.9587
2348.48	0.9581
2357.32	0.9574
2366.16	0.9552
2374.99	0.9519
2383.83	0.9532
2392.66	0.9564
2401.5	0.9593
2410.34	0.9605
2419.17	0.9615
2428.01	0.9619
2436.85	0.9618
2445.68	0.9617
2454.52	0.9619
2463.35	0.9621
2472.19	0.9618
2481.03	0.9613
2489.86	0.9608
2498.7	0.9601
2507.53	0.9584
2516.37	0.9567
2525.21	0.9537
2534.04	0.9498
2542.88	0.9455
2551.72	0.943
2560.55	0.9419
2569.39	0.9403
2578.22	0.9383
2587.06	0.9363
2595.9	0.9339
2604.73	0.9323
2613.57	0.9312
2622.4	0.9305
2631.24	0.9299
2640.08	0.9292
2648.91	0.9285
2657.75	0.9278
2666.59	0.9265
2675.42	0.9247
2684.26	0.9233
2693.09	0.9222
2701.93	0.9232
2710.77	0.9247
2719.6	0.9267
2728.44	0.9283
2737.27	0.9292
2746.11	0.9284
2754.95	0.9245
2763.78	0.9184
2772.62	0.9072
2781.46	0.8971
2790.29	0.887
2799.13	0.876
2807.96	0.8629
2816.8	0.8488
2825.64	0.8318
2834.47	0.8001
2843.31	0.6388
2852.15	0.4784
2860.98	0.4067
2869.82	0.4046
2878.65	0.3879
2887.49	0.364
2896.33	0.3492
2905.16	0.3379
2914	0.2826
2922.83	0.2277
2931.67	0.173
2940.51	0.1297
2949.34	0.1437
2958.18	0.2561
2967.02	0.3717
2975.85	0.4868
2984.69	0.6012
2993.52	0.715
3002.36	0.7316
3011.2	0.7334
3020.03	0.7428
3028.87	0.7603
3037.7	0.7776
3046.54	0.7949
3055.38	0.812
3064.21	0.829
3073.05	0.8461
3081.89	0.863
3090.72	0.8786
3099.56	0.8805
3108.39	0.88
3117.23	0.8784
3126.07	0.864
3134.9	0.8434
3143.74	0.8228
3152.57	0.8024
3161.41	0.782
3170.25	0.7618
3179.08	0.7528
3187.92	0.7519
3196.76	0.7611
3205.59	0.771
3214.43	0.781
3223.26	0.7909
3232.1	0.7993
3240.94	0.801
3249.77	0.7745
3258.61	0.728
3267.44	0.682
3276.28	0.6361
3285.12	0.5905
3293.95	0.5451
3302.79	0.5001
3311.63	0.4551
3320.46	0.4105
3329.3	0.3671
3338.13	0.3576
3346.97	0.3807
3355.81	0.4323
3364.64	0.4837
3373.48	0.5349
3382.32	0.5634
3391.15	0.5528
3399.99	0.5314
3408.82	0.5099
3417.66	0.4886
3426.5	0.4674
3435.33	0.4566
3444.17	0.4728
3453	0.5353
3461.84	0.5974
3470.68	0.6593
3479.51	0.7209
3488.35	0.7821
3497.19	0.8268
3506.02	0.8626
3514.86	0.8741
3523.69	0.8806
3532.53	0.8859
3541.37	0.8895
3550.2	0.8924
3559.04	0.8954
3567.87	0.8981
3576.71	0.8999
3585.55	0.9017
3594.38	0.9029
3603.22	0.9036
3612.06	0.9043
3620.89	0.905
3629.73	0.9055
3638.56	0.9057
3647.4	0.906
3656.24	0.9062
3665.07	0.9064
3673.91	0.9066
3682.74	0.9063
3691.58	0.906
3700.42	0.9057
3709.25	0.9054
3718.09	0.9049
3726.93	0.9043
3735.76	0.9034
3744.6	0.9024
3753.43	0.9016
3762.27	0.9007
3771.11	0.8996
3779.94	0.8984
3788.78	0.8971
3797.61	0.8958
3806.45	0.8946
3815.29	0.8933
3824.12	0.892
3832.96	0.8907
3841.8	0.8895
3850.63	0.8882
3859.47	0.887
3868.3	0.8862
3877.14	0.8855
3885.98	0.8848
3894.81	0.8841
3903.65	0.8834
3912.49	0.8828
3921.32	0.8824
3930.16	0.8824
