Infrared Spectrum: 4(3H)-PTERIDINONE, 2-AMINO-6-(DIETHOXYMETHYL)- (KETO FORM)
Formula: C11 H15 N5 O3
CAS: 4227-30-9
State: SOLID (0.7 mg / 650 mg, KBr DISC)
Class: COBLENTZ III
Instrument: PERKIN-ELMER 21 (GRATING)
Instrument parameters: FILTER CHANGE AT ABOUT 1024 CM^-^1
Sampling: TRANSMISSION
Resolution: 2
Origin: SOUTHERN RESEARCH INSTITUTE
1/CM	TRANSMITTANCE
611.099	0.579
620.495	0.5753
629.891	0.5674
639.287	0.567
648.683	0.5696
658.079	0.5884
667.475	0.6044
676.871	0.623
686.267	0.6885
695.663	0.7229
705.059	0.7421
714.455	0.751
723.851	0.7589
733.247	0.761
742.643	0.7638
752.039	0.765
761.435	0.767
770.831	0.7635
780.227	0.7541
789.623	0.7474
799.019	0.757
808.415	0.7558
817.81	0.723
827.206	0.606
836.602	0.742
845.998	0.7177
855.394	0.6539
864.79	0.61
874.186	0.6216
883.582	0.6275
892.978	0.6425
902.374	0.6993
911.77	0.7105
921.166	0.7648
930.562	0.7679
939.958	0.7381
949.354	0.7145
958.75	0.7624
968.146	0.767
977.542	0.7636
986.938	0.7478
996.334	0.7111
1005.73	0.6563
1015.13	0.5527
1024.52	0.5309
1033.92	0.5865
1043.31	0.5099
1052.71	0.3497
1062.11	0.3175
1071.5	0.4494
1080.9	0.5789
1090.29	0.5762
1099.69	0.4782
1109.09	0.3814
1118.48	0.4107
1127.88	0.4674
1137.27	0.5527
1146.67	0.6227
1156.07	0.652
1165.46	0.656
1174.86	0.6485
1184.25	0.618
1193.65	0.6865
1203.05	0.761
1212.44	0.772
1221.84	0.7618
1231.23	0.7318
1240.63	0.644
1250.03	0.5599
1259.42	0.7124
1268.82	0.6962
1278.21	0.6582
1287.61	0.5215
1297.01	0.4878
1306.4	0.6541
1315.8	0.6099
1325.19	0.5421
1334.59	0.5605
1343.99	0.6223
1353.38	0.6174
1362.78	0.5305
1372.17	0.462
1381.57	0.556
1390.97	0.6207
1400.36	0.5917
1409.76	0.5269
1419.15	0.5343
1428.55	0.6145
1437.94	0.7001
1447.34	0.71
1456.74	0.7175
1466.13	0.7158
1475.53	0.6422
1484.92	0.5951
1494.32	0.558
1503.72	0.6211
1513.11	0.5895
1522.51	0.5187
1531.9	0.3623
1541.3	0.6123
1550.7	0.6866
1560.09	0.6928
1569.49	0.6516
1578.88	0.5451
1588.28	0.6546
1597.68	0.6543
1607.07	0.5911
1616.47	0.5378
1625.86	0.5436
1635.26	0.5278
1644.66	0.5095
1654.05	0.4966
1663.45	0.4266
1672.84	0.2883
1682.24	0.179
1691.64	0.1664
1701.03	0.132
1710.43	0.2927
1719.82	0.4653
1729.22	0.6345
1738.62	0.7236
1748.01	0.7596
1757.41	0.79
1766.8	0.8164
1776.2	0.8283
1785.6	0.8402
1794.99	0.8481
1804.39	0.8572
1813.78	0.8669
1823.18	0.8759
1832.58	0.873
1841.97	0.8767
1851.37	0.878
1860.76	0.88
1870.16	0.88
1879.56	0.88
1888.95	0.88
1898.35	0.88
1907.74	0.88
1917.14	0.881
1926.54	0.882
1935.93	0.882
1945.33	0.884
1954.72	0.884
1964.12	0.884
1973.52	0.8845
1982.91	0.885
1992.31	0.885
2001.7	0.881
2011.1	0.88
2020.5	0.878
2029.89	0.878
2039.29	0.877
2048.68	0.877
2058.08	0.877
2067.48	0.877
2076.87	0.877
2086.27	0.877
2095.66	0.877
2105.06	0.877
2114.46	0.877
2123.85	0.877
2133.25	0.877
2142.64	0.877
2152.04	0.877
2161.44	0.8757
2170.83	0.873
2180.23	0.872
2189.62	0.871
2199.02	0.8705
2208.42	0.8677
2217.81	0.867
2227.21	0.867
2236.6	0.8647
2246	0.864
2255.39	0.864
2264.79	0.863
2274.19	0.857
2283.58	0.856
2292.98	0.857
2302.37	0.859
2311.77	0.859
2321.17	0.859
2330.56	0.857
2339.96	0.856
2349.35	0.855
2358.75	0.8525
2368.15	0.8429
2377.54	0.836
2386.94	0.832
2396.33	0.827
2405.73	0.8225
2415.13	0.8127
2424.52	0.8037
2433.92	0.7967
2443.31	0.789
2452.71	0.7825
2462.11	0.777
2471.5	0.7717
2480.9	0.7687
2490.29	0.765
2499.69	0.7625
2509.09	0.7515
2518.48	0.744
2527.88	0.744
2537.27	0.74
2546.67	0.7357
2556.07	0.7307
2565.46	0.727
2574.86	0.7204
2584.25	0.7019
2593.65	0.6812
2603.05	0.6695
2612.44	0.662
2621.84	0.6535
2631.23	0.6455
2640.63	0.6357
2650.03	0.6257
2659.42	0.6105
2668.82	0.5907
2678.21	0.5525
2687.61	0.5377
2697.01	0.5267
2706.4	0.521
2715.8	0.519
2725.19	0.515
2734.59	0.51
2743.99	0.5085
2753.38	0.506
2762.78	0.507
2772.17	0.5143
2781.57	0.526
2790.97	0.525
2800.36	0.5187
2809.76	0.513
2819.15	0.507
2828.55	0.502
2837.95	0.501
2847.34	0.5053
2856.74	0.5188
2866.13	0.5373
2875.53	0.539
2884.93	0.535
2894.32	0.5355
2903.72	0.538
2913.11	0.538
2922.51	0.537
2931.91	0.5285
2941.3	0.522
2950.7	0.522
2960.09	0.5411
2969.49	0.5795
2978.89	0.5817
2988.28	0.571
2997.68	0.554
3007.07	0.5417
3016.47	0.5282
3025.87	0.5105
3035.26	0.4969
3044.66	0.4789
3054.05	0.4506
3063.45	0.429
3072.84	0.424
3082.24	0.422
3091.64	0.422
3101.03	0.4253
3110.43	0.43
3119.82	0.43
3129.22	0.43
3138.62	0.432
3148.01	0.4315
3157.41	0.429
3166.8	0.429
3176.2	0.426
3185.6	0.4247
3194.99	0.4177
3204.39	0.4097
3213.78	0.3984
3223.18	0.3847
3232.58	0.385
3241.97	0.3905
3251.37	0.3981
3260.76	0.4125
3270.16	0.4331
3279.56	0.4631
3288.95	0.5023
3298.35	0.514
3307.74	0.5434
3317.14	0.5753
3326.54	0.6078
3335.93	0.623
3345.33	0.6278
3354.72	0.638
3364.12	0.6473
3373.52	0.6525
3382.91	0.656
3392.31	0.659
3401.7	0.66
3411.1	0.6685
3420.5	0.6765
3429.89	0.6863
3439.29	0.6943
3448.68	0.7023
3458.08	0.7085
3467.48	0.7198
3476.87	0.732
3486.27	0.736
3495.66	0.7433
3505.06	0.7528
3514.46	0.7603
3523.85	0.7695
3533.25	0.776
3542.64	0.7833
3552.04	0.7913
3561.44	0.8015
3570.83	0.8123
3580.23	0.8215
3589.62	0.8375
3599.02	0.8523
3608.42	0.8643
3617.81	0.872
3627.21	0.875
3636.6	0.875
3646	0.876
3655.4	0.8785
3664.79	0.881
3674.19	0.881
3683.58	0.882
3692.98	0.882
3702.38	0.882
3711.77	0.884
3721.17	0.8843
3730.56	0.888
3739.96	0.8905
3749.36	0.894
3758.75	0.894
3768.15	0.892
3777.54	0.89
3786.94	0.8847
3796.34	0.882
3805.73	0.881
3815.13	0.882
3824.52	0.882
3833.92	0.882
3843.32	0.882
3852.71	0.882
3862.11	0.881
3871.5	0.882
3880.9	0.882
3890.29	0.882
3899.69	0.882
3909.09	0.881
3918.48	0.881
3927.88	0.88
3937.27	0.878
3946.67	0.8767
3956.07	0.875
3965.46	0.876
3974.86	0.876
3984.25	0.8757
3993.65	0.8745
4003.05	0.872
4012.44	0.8705
4021.84	0.871
