Infrared Spectrum: BENZIMIDAZOLE, 4,7-DIBROMO-2-(TRIFLUOROMETHYL)-
Formula: C8 H3 Br2 F3 N2
CAS: 4228-97-1
State: SOLID (KBr DISC)
Class: COBLENTZ III
Instrument: UNICAM SP-200
Sampling: TRANSMISSION
Resolution: 2
Origin: FISONS LTD., VIA S.D.C. (DR. G. T. NEWBOLD)
1/CM	TRANSMITTANCE
651.753	0.918
663.368	0.902
674.983	0.884
686.598	0.879
698.213	0.867
709.829	0.849
721.444	0.799
733.059	0.71
744.674	0.87
756.289	0.862
767.904	0.816
779.519	0.835
791.134	0.811
802.749	0.8
814.365	0.757
825.98	0.5355
837.595	0.871
849.21	0.88
860.825	0.889
872.44	0.89
884.055	0.897
895.67	0.892
907.286	0.879
918.901	0.867
930.516	0.801
942.131	0.248
953.746	0.918
965.361	0.891
976.976	0.733
988.591	0.4569
1000.21	0.897
1011.82	0.892
1023.44	0.878
1035.05	0.863
1046.67	0.849
1058.28	0.84
1069.9	0.82
1081.51	0.799
1093.13	0.749
1104.74	0.681
1116.36	0.692
1127.97	0.585
1139.59	0.4381
1151.2	0.1101
1162.82	0.061
1174.43	0.356
1186.05	0.071
1197.66	0.13
1209.28	0.6699
1220.89	0.8539
1232.51	0.85
1244.12	0.625
1255.74	0.203
1267.35	0.7029
1278.97	0.792
1290.58	0.728
1302.2	0.2772
1313.81	0.535
1325.43	0.74
1337.04	0.853
1348.66	0.869
1360.28	0.845
1371.89	0.773
1383.51	0.5961
1395.12	0.561
1406.74	0.779
1418.35	0.783
1429.97	0.72
1441.58	0.5861
1453.2	0.335
1464.81	0.723
1476.43	0.89
1488.04	0.85
1499.66	0.845
1511.27	0.862
1522.89	0.87
1534.5	0.839
1546.12	0.677
1557.73	0.795
1569.35	0.765
1580.96	0.851
1592.58	0.869
1604.19	0.851
1615.81	0.805
1627.42	0.868
1639.04	0.876
1650.65	0.876
1662.27	0.877
1673.88	0.878
1685.5	0.875
1697.11	0.881
1708.73	0.881
1720.34	0.878
1731.96	0.883
1743.57	0.889
1755.19	0.894
1766.8	0.89
1778.42	0.895
1790.03	0.899
1801.65	0.896
1813.26	0.895
1824.88	0.89
1836.49	0.865
1848.11	0.871
1859.72	0.891
1871.34	0.887
1882.96	0.889
1894.57	0.888
1906.19	0.887
1917.8	0.888
1929.42	0.888
1941.03	0.889
1952.65	0.889
1964.26	0.886
1975.88	0.886
1987.49	0.882
1999.11	0.8806
2010.72	0.877
2022.34	0.877
2033.95	0.877
2045.57	0.876
2057.18	0.873
2068.8	0.873
2080.41	0.872
2092.03	0.872
2103.64	0.871
2115.26	0.8694
2126.87	0.869
2138.49	0.8678
2150.1	0.867
2161.72	0.867
2173.33	0.867
2184.95	0.8667
2196.56	0.8644
2208.18	0.8611
2219.79	0.861
2231.41	0.8595
2243.02	0.857
2254.64	0.854
2266.25	0.8527
2277.87	0.85
2289.48	0.8471
2301.1	0.844
2312.71	0.842
2324.33	0.8402
2335.94	0.838
2347.56	0.838
2359.17	0.839
2370.79	0.839
2382.41	0.8328
2394.02	0.831
2405.64	0.83
2417.25	0.8269
2428.87	0.8206
2440.48	0.8154
2452.1	0.8081
2463.71	0.8
2475.33	0.799
2486.94	0.793
2498.56	0.7767
2510.17	0.7669
2521.79	0.759
2533.4	0.75
2545.02	0.7498
2556.63	0.7409
2568.25	0.711
2579.86	0.6998
2591.48	0.697
2603.09	0.696
2614.71	0.6911
2626.32	0.6771
2637.94	0.6614
2649.55	0.658
2661.17	0.6518
2672.78	0.6408
2684.4	0.6122
2696.01	0.5872
2707.63	0.5603
2719.24	0.5722
2730.86	0.5768
2742.47	0.5802
2754.09	0.5862
2765.7	0.5819
2777.32	0.5623
2788.93	0.5525
2800.55	0.5479
2812.16	0.5403
2823.78	0.5332
2835.39	0.4992
2847.01	0.4716
2858.62	0.473
2870.24	0.5106
2881.86	0.5173
2893.47	0.4925
2905.09	0.4584
2916.7	0.4219
2928.32	0.4167
2939.93	0.431
2951.55	0.4407
2963.16	0.4323
2974.78	0.4159
2986.39	0.4092
2998.01	0.3931
3009.62	0.3877
3021.24	0.395
3032.85	0.4006
3044.47	0.4066
3056.08	0.4107
3067.7	0.4374
3079.31	0.4816
3090.93	0.5083
3102.54	0.529
3114.16	0.5387
3125.77	0.5738
3137.39	0.6025
3149	0.6208
3160.62	0.6494
3172.23	0.6577
3183.85	0.6693
3195.46	0.7022
3207.08	0.7086
3218.69	0.7129
3230.31	0.7162
3241.92	0.7195
3253.54	0.7225
3265.15	0.726
3276.77	0.729
3288.38	0.7284
3300	0.7261
3311.61	0.7248
3323.23	0.7235
3334.84	0.7212
3346.46	0.719
3358.07	0.7167
3369.69	0.7138
3381.31	0.7111
3392.92	0.711
3404.54	0.7095
3416.15	0.7082
3427.77	0.708
3439.38	0.7083
3451	0.7106
3462.61	0.711
3474.23	0.7096
3485.84	0.707
3497.46	0.709
3509.07	0.7111
3520.69	0.7153
3532.3	0.718
3543.92	0.719
3555.53	0.719
3567.15	0.719
3578.76	0.719
3590.38	0.718
3601.99	0.717
3613.61	0.7154
3625.22	0.715
3636.84	0.715
3648.45	0.715
3660.07	0.715
3671.68	0.715
3683.3	0.714
3694.91	0.7123
3706.53	0.71
3718.14	0.708
3729.76	0.7075
3741.37	0.7062
3752.99	0.7019
3764.6	0.6986
3776.22	0.696
3787.83	0.695
3799.45	0.6928
3811.06	0.692
3822.68	0.691
3834.29	0.6899
3845.91	0.6868
3857.52	0.682
3869.14	0.68
3880.76	0.678
3892.37	0.677
3903.99	0.676
3915.6	0.676
3927.22	0.675
3938.83	0.673
3950.45	0.671
3962.06	0.671
3973.68	0.671
3985.29	0.671
3996.91	0.67
4008.52	0.67
4020.14	0.67
4031.75	0.669
4043.37	0.667
4054.98	0.6654
4066.6	0.665
4078.21	0.6619
4089.83	0.661
4101.44	0.661
4113.06	0.661
4124.67	0.6607
4136.29	0.6574
4147.9	0.6512
4159.52	0.651
4171.13	0.6496
4182.75	0.648
4194.36	0.646
4205.98	0.645
4217.59	0.6429
4229.21	0.641
4240.82	0.641
4252.44	0.641
4264.05	0.6417
4275.67	0.641
4287.28	0.641
4298.9	0.64
4310.51	0.64
4322.13	0.6398
4333.74	0.639
4345.36	0.638
4356.97	0.633
4368.59	0.631
4380.21	0.6304
4391.82	0.63
4403.44	0.6298
4415.05	0.6285
4426.67	0.626
4438.28	0.625
4449.9	0.621
4461.51	0.62
4473.13	0.6163
4484.74	0.615
4496.36	0.6115
4507.97	0.6093
4519.59	0.608
4531.2	0.608
4542.82	0.608
4554.43	0.6071
4566.05	0.607
4577.66	0.606
4589.28	0.604
4600.89	0.603
4612.51	0.6027
4624.12	0.602
4635.74	0.602
4647.35	0.6
4658.97	0.6
4670.58	0.599
4682.2	0.5969
4693.81	0.595
4705.43	0.594
4717.04	0.596
4728.66	0.596
4740.27	0.59
4751.89	0.589
4763.5	0.589
4775.12	0.589
4786.73	0.589
4798.35	0.589
4809.96	0.588
4821.58	0.588
4833.19	0.5862
4844.81	0.5849
4856.42	0.583
4868.04	0.5823
4879.65	0.582
4891.27	0.58
4902.89	0.579
4914.5	0.577
4926.12	0.576
4937.73	0.576
4949.35	0.576
4960.96	0.575
4972.58	0.574
4984.19	0.573
4995.81	0.573
