Infrared Spectrum: BENZIMIDAZOLE, 4-CHLORO-6-NITRO-2-(TRIFLUOROMETHYL)-
Formula: C8 H3 Cl F3 N3 O2
CAS: 4228-91-5
State: SOLID (KBr DISC)
Class: COBLENTZ III
Instrument: UNICAM SP-200
Sampling: TRANSMISSION
Resolution: 2
Origin: FISONS LTD., VIA S.D.C. (DR. G. T. NEWBOLD)
1/CM	TRANSMITTANCE
656.25	0.912
667.857	0.709
679.464	0.895
691.071	0.917
702.679	0.923
714.286	0.919
725.893	0.895
737.5	0.838
749.107	0.7892
760.714	0.8158
772.321	0.4121
783.928	0.89
795.536	0.916
807.143	0.921
818.75	0.911
830.357	0.902
841.964	0.893
853.571	0.868
865.178	0.887
876.785	0.897
888.393	0.842
900	0.5622
911.607	0.805
923.214	0.625
934.821	0.819
946.428	0.858
958.035	0.871
969.643	0.867
981.25	0.792
992.857	0.7002
1004.46	0.669
1016.07	0.7849
1027.68	0.873
1039.29	0.877
1050.89	0.881
1062.5	0.874
1074.11	0.7761
1085.71	0.754
1097.32	0.82
1108.93	0.818
1120.54	0.776
1132.14	0.709
1143.75	0.5121
1155.36	0.144
1166.96	0.0521
1178.57	0.116
1190.18	0.2068
1201.79	0.281
1213.39	0.62
1225	0.74
1236.61	0.748
1248.21	0.507
1259.82	0.3398
1271.43	0.6301
1283.04	0.733
1294.64	0.731
1306.25	0.6271
1317.86	0.307
1329.46	0.057
1341.07	0.3059
1352.68	0.193
1364.29	0.32
1375.89	0.6659
1387.5	0.701
1399.11	0.673
1410.71	0.67
1422.32	0.761
1433.93	0.78
1445.53	0.689
1457.14	0.38
1468.75	0.702
1480.36	0.742
1491.96	0.6
1503.57	0.642
1515.18	0.505
1526.78	0.1942
1538.39	0.3029
1550	0.551
1561.61	0.779
1573.21	0.811
1584.82	0.825
1596.43	0.704
1608.03	0.792
1619.64	0.798
1631.25	0.81
1642.86	0.821
1654.46	0.832
1666.07	0.836
1677.68	0.84
1689.28	0.839
1700.89	0.837
1712.5	0.832
1724.11	0.822
1735.71	0.822
1747.32	0.829
1758.93	0.822
1770.53	0.835
1782.14	0.842
1793.75	0.85
1805.36	0.853
1816.96	0.859
1828.57	0.861
1840.18	0.862
1851.78	0.864
1863.39	0.867
1875	0.864
1886.61	0.868
1898.21	0.872
1909.82	0.872
1921.43	0.871
1933.03	0.875
1944.64	0.879
1956.25	0.873
1967.86	0.878
1979.46	0.878
1991.07	0.879
2002.68	0.8786
2014.28	0.8772
2025.89	0.8754
2037.5	0.8726
2049.11	0.8768
2060.71	0.877
2072.32	0.877
2083.93	0.877
2095.53	0.877
2107.14	0.879
2118.75	0.8786
2130.36	0.876
2141.96	0.871
2153.57	0.868
2165.18	0.868
2176.78	0.868
2188.39	0.869
2200	0.868
2211.61	0.867
2223.21	0.866
2234.82	0.8639
2246.43	0.8608
2258.03	0.849
2269.64	0.8431
2281.25	0.841
2292.86	0.839
2304.46	0.837
2316.07	0.835
2327.68	0.835
2339.28	0.8324
2350.89	0.8322
2362.5	0.8288
2374.11	0.8088
2385.71	0.7951
2397.32	0.7757
2408.93	0.7438
2420.53	0.7366
2432.14	0.736
2443.75	0.729
2455.36	0.7215
2466.96	0.699
2478.57	0.6914
2490.18	0.6837
2501.78	0.6683
2513.39	0.6462
2525	0.6373
2536.61	0.6197
2548.21	0.6112
2559.82	0.5993
2571.43	0.5891
2583.03	0.5669
2594.64	0.5311
2606.25	0.519
2617.86	0.518
2629.46	0.5223
2641.07	0.5167
2652.68	0.5005
2664.28	0.4891
2675.89	0.4931
2687.5	0.502
2699.11	0.4923
2710.71	0.4826
2722.32	0.4804
2733.93	0.4837
2745.53	0.487
2757.14	0.488
2768.75	0.488
2780.36	0.4862
2791.96	0.4777
2803.57	0.473
2815.18	0.4847
2826.78	0.5065
2838.39	0.5049
2850	0.5006
2861.6	0.5034
2873.21	0.5108
2884.82	0.5177
2896.43	0.5265
2908.03	0.5192
2919.64	0.512
2931.25	0.5153
2942.85	0.5218
2954.46	0.5308
2966.07	0.5383
2977.68	0.545
2989.28	0.549
3000.89	0.5558
3012.5	0.561
3024.1	0.5723
3035.71	0.5783
3047.32	0.5681
3058.93	0.5577
3070.53	0.5638
3082.14	0.6126
3093.75	0.6348
3105.35	0.6613
3116.96	0.678
3128.57	0.686
3140.18	0.6883
3151.78	0.6981
3163.39	0.7027
3175	0.706
3186.6	0.707
3198.21	0.708
3209.82	0.709
3221.43	0.709
3233.03	0.7103
3244.64	0.711
3256.25	0.711
3267.85	0.711
3279.46	0.71
3291.07	0.709
3302.68	0.707
3314.28	0.706
3325.89	0.705
3337.5	0.7033
3349.1	0.702
3360.71	0.701
3372.32	0.7
3383.93	0.699
3395.53	0.698
3407.14	0.698
3418.75	0.6996
3430.35	0.7009
3441.96	0.7031
3453.57	0.7064
3465.18	0.709
3476.78	0.7129
3488.39	0.7172
3500	0.721
3511.6	0.7238
3523.21	0.728
3534.82	0.7293
3546.43	0.731
3558.03	0.7328
3569.64	0.736
3581.25	0.7374
3592.85	0.74
3604.46	0.7409
3616.07	0.744
3627.68	0.744
3639.28	0.746
3650.89	0.748
3662.5	0.7483
3674.1	0.749
3685.71	0.7482
3697.32	0.7449
3708.93	0.743
3720.53	0.742
3732.14	0.741
3743.75	0.741
3755.35	0.741
3766.96	0.741
3778.57	0.741
3790.18	0.74
3801.78	0.736
3813.39	0.7332
3825	0.732
3836.6	0.732
3848.21	0.733
3859.82	0.7332
3871.43	0.7319
3883.03	0.73
3894.64	0.729
3906.25	0.7281
3917.85	0.7268
3929.46	0.725
3941.07	0.725
3952.68	0.724
3964.28	0.723
3975.89	0.723
3987.5	0.723
3999.1	0.723
4010.71	0.7227
4022.32	0.721
4033.93	0.72
4045.53	0.7158
4057.14	0.714
4068.75	0.713
4080.35	0.7091
4091.96	0.7078
4103.57	0.7075
4115.18	0.708
4126.78	0.709
4138.39	0.7087
4150	0.707
4161.6	0.7069
4173.21	0.706
4184.82	0.7056
4196.43	0.703
4208.03	0.703
4219.64	0.7052
4231.25	0.707
4242.85	0.7063
4254.46	0.704
4266.07	0.702
4277.68	0.7015
4289.28	0.701
4300.89	0.7019
4312.5	0.7007
4324.1	0.6994
4335.71	0.699
4347.32	0.698
4358.92	0.6956
4370.53	0.6943
4382.14	0.694
4393.75	0.694
4405.35	0.694
4416.96	0.6932
4428.57	0.691
4440.17	0.69
4451.78	0.69
4463.39	0.689
4475	0.688
4486.6	0.687
4498.21	0.6863
4509.82	0.685
4521.42	0.6848
4533.03	0.683
4544.64	0.679
4556.25	0.678
4567.85	0.678
4579.46	0.675
4591.07	0.674
4602.67	0.6752
4614.28	0.678
4625.89	0.677
4637.5	0.675
4649.1	0.6748
4660.71	0.673
4672.32	0.6713
4683.92	0.671
4695.53	0.669
4707.14	0.668
4718.75	0.6662
4730.35	0.665
4741.96	0.664
4753.57	0.664
4765.17	0.663
4776.78	0.6619
4788.39	0.66
4800	0.6593
4811.6	0.659
4823.21	0.6588
4834.82	0.6522
4846.42	0.646
4858.03	0.647
4869.64	0.648
4881.25	0.648
4892.85	0.648
4904.46	0.647
4916.07	0.6456
4927.67	0.644
4939.28	0.643
4950.89	0.6418
4962.5	0.641
4974.1	0.64
4985.71	0.641
4997.32	0.64
5008.92	0.6405
