Infrared Spectrum: BENZIMIDAZOLE, 4,7-DICHLORO-2-(TRIFLUOROMETHYL)-
Formula: C8 H3 Cl2 F3 N2
CAS: 4228-89-1
State: SOLID (KBr DISC)
Class: COBLENTZ III
Instrument: UNICAM SP-200
Sampling: TRANSMISSION
Resolution: 2
Origin: FISONS LTD., VIA S.D.C. (DR. G. T. NEWBOLD)
1/CM	TRANSMITTANCE
654.402	0.93
666.025	0.949
677.648	0.93
689.271	0.922
700.894	0.932
712.518	0.926
724.141	0.898
735.764	0.757
747.387	0.93
759.01	0.8911
770.633	0.868
782.256	0.911
793.879	0.904
805.502	0.877
817.126	0.753
828.749	0.5054
840.372	0.837
851.995	0.86
863.618	0.883
875.241	0.9
886.864	0.91
898.487	0.916
910.11	0.919
921.734	0.917
933.357	0.899
944.98	0.881
956.603	0.7371
968.226	0.568
979.849	0.791
991.472	0.5473
1003.1	0.897
1014.72	0.918
1026.34	0.918
1037.96	0.913
1049.59	0.902
1061.21	0.883
1072.83	0.862
1084.46	0.837
1096.08	0.791
1107.7	0.664
1119.33	0.709
1130.95	0.635
1142.57	0.483
1154.2	0.1812
1165.82	0.116
1177.44	0.2799
1189.07	0.1091
1200.69	0.116
1212.31	0.666
1223.93	0.843
1235.56	0.882
1247.18	0.767
1258.8	0.2151
1270.43	0.7699
1282.05	0.818
1293.67	0.7631
1305.3	0.3651
1316.92	0.217
1328.54	0.862
1340.17	0.892
1351.79	0.903
1363.41	0.88
1375.03	0.77
1386.66	0.6071
1398.28	0.418
1409.9	0.786
1421.53	0.816
1433.15	0.791
1444.77	0.667
1456.4	0.3511
1468.02	0.561
1479.64	0.9
1491.27	0.895
1502.89	0.82
1514.51	0.879
1526.14	0.891
1537.76	0.8621
1549.38	0.6
1561	0.877
1572.63	0.83
1584.25	0.875
1595.87	0.876
1607.5	0.845
1619.12	0.8189
1630.74	0.872
1642.37	0.875
1653.99	0.88
1665.61	0.886
1677.24	0.887
1688.86	0.895
1700.48	0.895
1712.11	0.897
1723.73	0.895
1735.35	0.904
1746.97	0.913
1758.6	0.914
1770.22	0.914
1781.84	0.911
1793.47	0.918
1805.09	0.921
1816.71	0.923
1828.34	0.918
1839.96	0.891
1851.58	0.912
1863.21	0.926
1874.83	0.928
1886.45	0.922
1898.07	0.923
1909.7	0.926
1921.32	0.924
1932.94	0.924
1944.57	0.927
1956.19	0.924
1967.81	0.923
1979.44	0.924
1991.06	0.924
2002.68	0.9233
2014.31	0.919
2025.93	0.9203
2037.55	0.921
2049.18	0.921
2060.8	0.919
2072.42	0.918
2084.04	0.915
2095.67	0.913
2107.29	0.911
2118.91	0.911
2130.54	0.91
2142.16	0.909
2153.78	0.9071
2165.41	0.9034
2177.03	0.9013
2188.65	0.9
2200.28	0.8964
2211.9	0.8893
2223.52	0.888
2235.15	0.8875
2246.77	0.885
2258.39	0.8795
2270.01	0.8709
2281.64	0.8597
2293.26	0.8584
2304.88	0.858
2316.51	0.8557
2328.13	0.8512
2339.75	0.85
2351.38	0.849
2363	0.8443
2374.62	0.8305
2386.25	0.8217
2397.87	0.8
2409.49	0.7956
2421.11	0.789
2432.74	0.7841
2444.36	0.7777
2455.98	0.7717
2467.61	0.7638
2479.23	0.7421
2490.85	0.731
2502.48	0.7149
2514.1	0.6936
2525.72	0.6699
2537.35	0.6597
2548.97	0.6561
2560.59	0.6454
2572.22	0.6223
2583.84	0.5952
2595.46	0.5681
2607.08	0.563
2618.71	0.561
2630.33	0.5599
2641.95	0.5453
2653.58	0.5078
2665.2	0.5067
2676.82	0.512
2688.45	0.5009
2700.07	0.4764
2711.69	0.4484
2723.32	0.436
2734.94	0.4681
2746.56	0.5061
2758.19	0.519
2769.81	0.5107
2781.43	0.4909
2793.05	0.4593
2804.68	0.4593
2816.3	0.4708
2827.92	0.4726
2839.55	0.4635
2851.17	0.4553
2862.79	0.453
2874.42	0.4625
2886.04	0.5
2897.66	0.511
2909.29	0.4899
2920.91	0.4425
2932.53	0.4307
2944.15	0.4503
2955.78	0.4798
2967.4	0.5029
2979.02	0.5012
2990.65	0.472
3002.27	0.4735
3013.89	0.4899
3025.52	0.5175
3037.14	0.554
3048.76	0.5728
3060.39	0.5793
3072.01	0.6003
3083.63	0.6139
3095.26	0.6519
3106.88	0.6788
3118.5	0.6851
3130.12	0.7035
3141.75	0.7238
3153.37	0.731
3164.99	0.7434
3176.62	0.7504
3188.24	0.7537
3199.86	0.7579
3211.49	0.7637
3223.11	0.77
3234.73	0.7726
3246.36	0.774
3257.98	0.7737
3269.6	0.773
3281.23	0.772
3292.85	0.772
3304.47	0.7716
3316.09	0.7703
3327.72	0.768
3339.34	0.7643
3350.96	0.759
3362.59	0.7542
3374.21	0.75
3385.83	0.7477
3397.46	0.7414
3409.08	0.7401
3420.7	0.74
3432.33	0.7404
3443.95	0.7424
3455.57	0.745
3467.19	0.746
3478.82	0.747
3490.44	0.7488
3502.06	0.749
3513.69	0.7476
3525.31	0.7464
3536.93	0.745
3548.56	0.7492
3560.18	0.7514
3571.8	0.754
3583.43	0.758
3595.05	0.76
3606.67	0.76
3618.3	0.761
3629.92	0.761
3641.54	0.759
3653.16	0.7567
3664.79	0.754
3676.41	0.753
3688.03	0.752
3699.66	0.752
3711.28	0.752
3722.9	0.751
3734.53	0.75
3746.15	0.75
3757.77	0.75
3769.4	0.7483
3781.02	0.7454
3792.64	0.7469
3804.27	0.7472
3815.89	0.747
3827.51	0.7443
3839.13	0.741
3850.76	0.741
3862.38	0.74
3874	0.7373
3885.63	0.7337
3897.25	0.725
3908.87	0.7243
3920.5	0.724
3932.12	0.724
3943.74	0.723
3955.37	0.7215
3966.99	0.72
3978.61	0.7197
3990.23	0.7144
4001.86	0.7093
4013.48	0.708
4025.1	0.708
4036.73	0.708
4048.35	0.708
4059.97	0.7068
4071.6	0.7045
4083.22	0.7022
4094.84	0.701
4106.47	0.7007
4118.09	0.699
4129.71	0.7009
4141.34	0.7
4152.96	0.699
4164.58	0.697
4176.2	0.694
4187.83	0.694
4199.45	0.694
4211.07	0.694
4222.7	0.694
4234.32	0.693
4245.94	0.692
4257.57	0.6901
4269.19	0.689
4280.81	0.6872
4292.44	0.6826
4304.06	0.6791
4315.68	0.6738
4327.31	0.671
4338.93	0.6728
4350.55	0.6739
4362.17	0.672
4373.8	0.67
4385.42	0.67
4397.04	0.67
4408.67	0.672
4420.29	0.672
4431.91	0.669
4443.54	0.6677
4455.16	0.6629
4466.78	0.6602
4478.41	0.659
4490.03	0.659
4501.65	0.6584
4513.27	0.656
4524.9	0.6548
4536.52	0.651
4548.14	0.651
4559.77	0.652
4571.39	0.651
4583.01	0.6505
4594.64	0.65
4606.26	0.649
4617.88	0.648
4629.51	0.6414
4641.13	0.64
4652.75	0.639
4664.38	0.639
4676	0.639
4687.62	0.636
4699.24	0.6344
4710.87	0.631
4722.49	0.631
4734.11	0.631
4745.74	0.631
4757.36	0.631
4768.98	0.6301
4780.61	0.6238
4792.23	0.6205
4803.85	0.62
4815.48	0.62
4827.1	0.619
4838.72	0.619
4850.35	0.618
4861.97	0.616
4873.59	0.613
4885.21	0.613
4896.84	0.613
4908.46	0.6118
4920.08	0.6105
4931.71	0.609
4943.33	0.609
4954.95	0.6087
4966.58	0.608
4978.2	0.608
4989.82	0.608
5001.45	0.608
