Infrared Spectrum: BENZIMIDAZOLE, 4,6-DICHLORO-2-(TRIFLUOROMETHYL)-
Formula: C8 H3 Cl2 F3 N2
CAS: 4228-88-0
State: SOLID (KBr DISC)
Class: COBLENTZ III
Instrument: UNICAM SP-200
Sampling: TRANSMISSION
Resolution: 2
Origin: FISONS LTD., VIA S.D.C. (DR. G. T. NEWBOLD)
1/CM	TRANSMITTANCE
656.4	0.807
667.967	0.958
679.535	0.946
691.102	0.945
702.67	0.934
714.237	0.92
725.804	0.884
737.372	0.86
748.939	0.921
760.507	0.93
772.074	0.843
783.642	0.909
795.209	0.5602
806.776	0.7779
818.344	0.869
829.911	0.886
841.479	0.89
853.046	0.605
864.613	0.6637
876.181	0.899
887.748	0.857
899.316	0.823
910.883	0.89
922.451	0.92
934.018	0.928
945.585	0.93
957.153	0.925
968.72	0.893
980.288	0.778
991.855	0.3826
1003.42	0.575
1014.99	0.898
1026.56	0.906
1038.12	0.901
1049.69	0.905
1061.26	0.888
1072.83	0.844
1084.39	0.601
1095.96	0.83
1107.53	0.819
1119.1	0.744
1130.66	0.687
1142.23	0.3572
1153.8	0.126
1165.37	0.066
1176.93	0.289
1188.5	0.113
1200.07	0.077
1211.64	0.6179
1223.2	0.793
1234.77	0.751
1246.34	0.178
1257.91	0.566
1269.47	0.7649
1281.04	0.84
1292.61	0.82
1304.18	0.7441
1315.74	0.381
1327.31	0.4938
1338.88	0.853
1350.44	0.838
1362.01	0.584
1373.58	0.7249
1385.15	0.809
1396.71	0.804
1408.28	0.593
1419.85	0.773
1431.42	0.721
1442.98	0.5111
1454.55	0.3328
1466.12	0.82
1477.69	0.862
1489.25	0.828
1500.82	0.85
1512.39	0.864
1523.96	0.844
1535.52	0.7421
1547.09	0.432
1558.66	0.661
1570.23	0.6381
1581.79	0.7171
1593.36	0.816
1604.93	0.813
1616.5	0.718
1628.06	0.824
1639.63	0.832
1651.2	0.851
1662.77	0.858
1674.33	0.849
1685.9	0.847
1697.47	0.841
1709.03	0.863
1720.6	0.868
1732.17	0.87
1743.74	0.879
1755.3	0.883
1766.87	0.883
1778.44	0.888
1790.01	0.89
1801.57	0.89
1813.14	0.891
1824.71	0.896
1836.28	0.894
1847.84	0.897
1859.41	0.894
1870.98	0.891
1882.55	0.897
1894.11	0.897
1905.68	0.891
1917.25	0.897
1928.82	0.897
1940.38	0.894
1951.95	0.892
1963.52	0.892
1975.09	0.892
1986.65	0.891
1998.22	0.892
2009.79	0.8903
2021.36	0.889
2032.92	0.8887
2044.49	0.888
2056.06	0.8861
2067.62	0.884
2079.19	0.882
2090.76	0.881
2102.33	0.878
2113.89	0.8777
2125.46	0.877
2137.03	0.877
2148.6	0.8758
2160.16	0.8736
2171.73	0.873
2183.3	0.872
2194.87	0.87
2206.43	0.869
2218	0.868
2229.57	0.866
2241.14	0.857
2252.7	0.854
2264.27	0.8511
2275.84	0.85
2287.41	0.85
2298.97	0.85
2310.54	0.85
2322.11	0.85
2333.68	0.8495
2345.24	0.849
2356.81	0.848
2368.38	0.847
2379.95	0.8394
2391.51	0.8312
2403.08	0.8218
2414.65	0.8065
2426.21	0.8042
2437.78	0.802
2449.35	0.8017
2460.92	0.7994
2472.48	0.7887
2484.05	0.7764
2495.62	0.7633
2507.19	0.7415
2518.75	0.738
2530.32	0.7377
2541.89	0.7304
2553.46	0.7216
2565.02	0.7167
2576.59	0.6975
2588.16	0.6774
2599.73	0.6702
2611.29	0.654
2622.86	0.6376
2634.43	0.6248
2646	0.6088
2657.56	0.5845
2669.13	0.5578
2680.7	0.539
2692.27	0.5444
2703.83	0.5567
2715.4	0.5623
2726.97	0.5571
2738.53	0.5393
2750.1	0.5138
2761.67	0.4972
2773.24	0.4918
2784.8	0.4849
2796.37	0.462
2807.94	0.448
2819.51	0.452
2831.07	0.4471
2842.64	0.4328
2854.21	0.4341
2865.78	0.4469
2877.34	0.454
2888.91	0.454
2900.48	0.4495
2912.05	0.4252
2923.61	0.4116
2935.18	0.405
2946.75	0.406
2958.32	0.4035
2969.88	0.3954
2981.45	0.3919
2993.02	0.3907
3004.59	0.3864
3016.15	0.386
3027.72	0.3902
3039.29	0.3994
3050.86	0.4112
3062.42	0.42
3073.99	0.42
3085.56	0.42
3097.12	0.4298
3108.69	0.4538
3120.26	0.4764
3131.83	0.5011
3143.39	0.5315
3154.96	0.5537
3166.53	0.5641
3178.1	0.5781
3189.66	0.5851
3201.23	0.5944
3212.8	0.6075
3224.37	0.6187
3235.93	0.6285
3247.5	0.6373
3259.07	0.6459
3270.64	0.656
3282.2	0.6643
3293.77	0.6656
3305.34	0.6678
3316.91	0.669
3328.47	0.669
3340.04	0.669
3351.61	0.669
3363.18	0.669
3374.74	0.6685
3386.31	0.6672
3397.88	0.666
3409.45	0.665
3421.01	0.6644
3432.58	0.663
3444.15	0.663
3455.71	0.663
3467.28	0.664
3478.85	0.665
3490.42	0.6673
3501.98	0.6706
3513.55	0.6718
3525.12	0.6731
3536.69	0.675
3548.25	0.676
3559.82	0.677
3571.39	0.677
3582.96	0.677
3594.52	0.677
3606.09	0.6771
3617.66	0.679
3629.23	0.68
3640.79	0.682
3652.36	0.685
3663.93	0.686
3675.5	0.686
3687.06	0.685
3698.63	0.684
3710.2	0.683
3721.77	0.68
3733.33	0.676
3744.9	0.6732
3756.47	0.671
3768.04	0.67
3779.6	0.6688
3791.17	0.667
3802.74	0.6642
3814.3	0.66
3825.87	0.658
3837.44	0.6596
3849.01	0.6591
3860.57	0.6557
3872.14	0.6531
3883.71	0.6503
3895.28	0.649
3906.84	0.6447
3918.41	0.6435
3929.98	0.643
3941.55	0.645
3953.11	0.6446
3964.68	0.643
3976.25	0.641
3987.82	0.64
3999.38	0.639
4010.95	0.639
4022.52	0.637
4034.09	0.636
4045.65	0.6338
4057.22	0.6301
4068.79	0.6288
4080.36	0.628
4091.92	0.629
4103.49	0.63
4115.06	0.6287
4126.62	0.6225
4138.19	0.621
4149.76	0.623
4161.33	0.623
4172.89	0.623
4184.46	0.6211
4196.03	0.6186
4207.6	0.6155
4219.16	0.614
4230.73	0.614
4242.3	0.613
4253.87	0.6104
4265.43	0.609
4277	0.609
4288.57	0.6094
4300.14	0.611
4311.7	0.61
4323.27	0.6087
4334.84	0.605
4346.41	0.6022
4357.97	0.601
4369.54	0.601
4381.11	0.601
4392.68	0.601
4404.24	0.602
4415.81	0.6015
4427.38	0.5982
4438.95	0.5939
4450.51	0.5907
4462.08	0.59
4473.65	0.589
4485.21	0.588
4496.78	0.588
4508.35	0.588
4519.92	0.587
4531.48	0.587
4543.05	0.5865
4554.62	0.586
4566.19	0.586
4577.75	0.586
4589.32	0.586
4600.89	0.586
4612.46	0.586
4624.02	0.585
4635.59	0.584
4647.16	0.584
4658.73	0.583
4670.29	0.583
4681.86	0.5811
4693.43	0.58
4705	0.579
4716.56	0.5763
4728.13	0.572
4739.7	0.572
4751.27	0.571
4762.83	0.5682
4774.4	0.5679
4785.97	0.567
4797.54	0.5664
4809.1	0.565
4820.67	0.565
4832.24	0.565
4843.8	0.565
4855.37	0.565
4866.94	0.568
4878.51	0.568
4890.07	0.5651
4901.64	0.5629
4913.21	0.5616
4924.78	0.561
4936.34	0.561
4947.91	0.56
4959.48	0.56
4971.05	0.559
4982.61	0.559
4994.18	0.558
