Infrared Spectrum: 2-Propylfuran
Formula: C 7 H 10 O
CAS: 4229-91-8
State: gas
Instrument: HP-GC/MS/IRD
Origin: NIST Mass Spectrometry Data Center
1/CM	ABSORBANCE
550	0.0002502
562	0.0001359
574	0.0003852
586	0.0006606
598	0.0010386
610	0.0007164
622	0.0002619
634	7.92e-05
646	0
658	6.75e-05
670	0.0002142
682	0.0003519
694	0.0010044
706	0.0029178
718	0.0063297
730	0.0074079
742	0.0042426
754	0.0018225
766	0.0011358
778	0.0016884
790	0.0024147
802	0.00198
814	0.0010863
826	0.0004482
838	0.00018
850	0.0002664
862	0.0004149
874	0.0008352
886	0.0011196
898	0.0008577
910	0.0008397
922	0.0013527
934	0.001458
946	0.0009828
958	0.0004509
970	0.0003861
982	0.0008685
994	0.0022806
1006	0.0032391
1018	0.0025155
1030	0.000954
1042	0.0004158
1054	0.0003285
1066	0.0004455
1078	0.0007461
1090	0.0010278
1102	0.0007623
1114	0.0004293
1126	0.0005769
1138	0.0021816
1150	0.0028908
1162	0.0017703
1174	0.0013437
1186	0.0015993
1198	0.0014697
1210	0.0010143
1222	0.0006102
1234	0.0005589
1246	0.0006336
1258	0.0005841
1270	0.0005445
1282	0.000567
1294	0.0004617
1306	0.0003105
1318	0.0003879
1330	0.0008577
1342	0.0010557
1354	0.0006813
1366	0.0005004
1378	0.0008118
1390	0.000891
1402	0.0006093
1414	0.0005076
1426	0.0007848
1438	0.001512
1450	0.0020745
1462	0.0018765
1474	0.0013599
1486	0.0014769
1498	0.0027468
1510	0.0030654
1522	0.0018846
1534	0.0010305
1546	0.0006597
1558	0.0008109
1570	0.0012024
1582	0.0016515
1594	0.0017226
1606	0.0011619
1618	0.0004671
1630	0.0003339
1642	0.0003195
1654	0.0002268
1666	0.0001413
1678	0.0001818
1690	0.0004041
1702	0.0004482
1714	0.0002061
1726	9.54e-05
1738	7.02e-05
1750	4.05e-05
1762	4.14e-05
1774	7.2e-05
1786	8.1e-06
1798	4.14e-05
1810	3.96e-05
1822	4.86e-05
1834	2.7e-05
1846	4.41e-05
1858	5.85e-05
1870	4.41e-05
1882	4.41e-05
1894	1.98e-05
1906	4.41e-05
1918	4.77e-05
1930	4.23e-05
1942	5.49e-05
1954	6.66e-05
1966	2.88e-05
1978	2.52e-05
1990	3.87e-05
2002	5.94e-05
2014	8.19e-05
2026	6.48e-05
2038	5.67e-05
2050	8.46e-05
2062	6.93e-05
2074	0.0001008
2086	0.0001179
2098	9.81e-05
2110	5.94e-05
2122	5.4e-05
2134	4.77e-05
2146	4.77e-05
2158	4.05e-05
2170	4.32e-05
2182	5.58e-05
2194	6.66e-05
2206	7.65e-05
2218	7.65e-05
2230	8.46e-05
2242	7.83e-05
2254	4.86e-05
2266	6.48e-05
2278	5.22e-05
2290	8.55e-05
2302	4.23e-05
2314	6.3e-06
2326	7.02e-05
2338	7.74e-05
2350	4.95e-05
2362	6.93e-05
2374	4.05e-05
2386	7.65e-05
2398	8.46e-05
2410	7.47e-05
2422	0.0001044
2434	5.76e-05
2446	6.3e-05
2458	4.5e-05
2470	5.76e-05
2482	3.6e-05
2494	3.96e-05
2506	5.49e-05
2518	5.76e-05
2530	5.22e-05
2542	5.4e-06
2554	7.02e-05
2566	4.5e-05
2578	5.22e-05
2590	8.91e-05
2602	8.01e-05
2614	6.66e-05
2626	9.09e-05
2638	0.0001422
2650	0.0001854
2662	0.0001539
2674	0.0001467
2686	0.0001611
2698	9.36e-05
2710	0.0001161
2722	0.0001431
2734	0.0001458
2746	0.0001728
2758	0.0001998
2770	0.0001728
2782	0.0002304
2794	0.0002304
2806	0.0003033
2818	0.000468
2830	0.0006507
2842	0.0010935
2854	0.0015525
2866	0.0023139
2878	0.0037665
2890	0.0041832
2902	0.0038187
2914	0.0045261
2926	0.0060651
2938	0.0080127
2950	0.0085995
2962	0.0086409
2974	0.0085743
2986	0.0056619
2998	0.0024111
3010	0.0012429
3022	0.0007632
3034	0.0005526
3046	0.0004914
3058	0.0004176
3070	0.0003393
3082	0.0003276
3094	0.0004419
3106	0.0006273
3118	0.0008856
3130	0.000729
3142	0.0004536
3154	0.0004806
3166	0.0003267
3178	0.0001431
3190	0.0001035
3202	7.83e-05
3214	0.0001188
3226	7.29e-05
3238	1.44e-05
3250	5.94e-05
3262	4.5e-05
3274	7.92e-05
3286	7.38e-05
3298	7.02e-05
3310	9.63e-05
3322	0.0001098
3334	7.74e-05
3346	6.3e-05
3358	8.01e-05
3370	0.0001017
3382	0.0001134
3394	9e-05
3406	7.11e-05
3418	8.55e-05
3430	0.0001233
3442	0.000108
3454	0.0001242
3466	9.63e-05
3478	0.0001233
3490	9.54e-05
3502	0.0001107
3514	0.0001107
3526	9.81e-05
3538	8.73e-05
3550	0.0001161
3562	0.0001242
3574	0.0001053
3586	6.03e-05
3598	9.9e-05
3610	0.0001404
3622	0.0001026
3634	0.0001215
3646	4.68e-05
3658	4.95e-05
3670	0.0001152
3682	0.0001512
3694	0.000126
3706	7.02e-05
3718	8.28e-05
3730	9.36e-05
3742	0.0001395
3754	0.0001746
3766	0.0001485
3778	0.0001089
3790	0.0001449
3802	0.0001161
3814	0.0001071
3826	0.0001197
3838	7.11e-05
