Infrared Spectrum: 1,2,4,4-TETRACHLORO-1,1,2,3,3,4-HEXAFLUOROHEXANE
Formula: C4 Cl4 F6
CAS: 423-38-1
State: LIQUID
Class: COBLENTZ
Instrument: Not specified, most likely a prism, grating, or hybrid spectrometer.
Sampling: TRANSMISSION
Path length: 0.003 CM
Resolution: 4
Origin: WYANDOTTE CHEMICALS CORP., WYANDOTTE, MICHIGAN, USA
MICROMETERS	TRANSMITTANCE
2.037	0.934
2.07425	0.94
2.1115	0.932
2.14875	0.936
2.186	0.948
2.22325	0.946
2.26051	0.948
2.29776	0.957
2.33501	0.96
2.37226	0.953
2.40951	0.957
2.44676	0.959
2.48401	0.962
2.52126	0.965
2.55851	0.968
2.59576	0.967
2.63302	0.962
2.67027	0.97
2.70752	0.968
2.74477	0.96
2.78202	0.96
2.81927	0.945
2.85652	0.937
2.89377	0.932
2.93102	0.926
2.96827	0.932
3.00552	0.929
3.04278	0.931
3.08003	0.929
3.11728	0.911
3.15453	0.906
3.19178	0.897
3.22903	0.876
3.26628	0.862
3.30353	0.85
3.34078	0.842
3.37803	0.836
3.41529	0.828
3.45254	0.845
3.48979	0.845
3.52704	0.864
3.56429	0.881
3.60154	0.884
3.63879	0.898
3.67604	0.901
3.71329	0.9
3.75054	0.912
3.78779	0.917
3.82505	0.917
3.8623	0.914
3.89955	0.925
3.9368	0.926
3.97405	0.932
4.0113	0.932
4.04855	0.928
4.0858	0.918
4.12305	0.906
4.1603	0.9
4.19756	0.907
4.23481	0.903
4.27206	0.912
4.30931	0.914
4.34656	0.901
4.38381	0.892
4.42106	0.895
4.45831	0.9
4.49556	0.903
4.53281	0.897
4.57007	0.901
4.60732	0.889
4.64457	0.876
4.68182	0.903
4.71907	0.918
4.75632	0.925
4.79357	0.929
4.83082	0.943
4.86807	0.932
4.90532	0.931
4.94257	0.934
4.97983	0.934
5.01708	0.942
5.05433	0.929
5.09158	0.939
5.12883	0.948
5.16608	0.942
5.20333	0.939
5.24058	0.95
5.27783	0.939
5.31508	0.934
5.35234	0.934
5.38959	0.932
5.42684	0.932
5.46409	0.931
5.50134	0.934
5.53859	0.926
5.57584	0.921
5.61309	0.921
5.65034	0.921
5.68759	0.918
5.72484	0.917
5.7621	0.911
5.79935	0.914
5.8366	0.909
5.87385	0.898
5.9111	0.878
5.94835	0.861
5.9856	0.861
6.02285	0.861
6.0601	0.859
6.09735	0.862
6.13461	0.865
6.17186	0.864
6.20911	0.875
6.24636	0.87
6.28361	0.878
6.32086	0.879
6.35811	0.876
6.39536	0.876
6.43261	0.87
6.46986	0.858
6.50711	0.859
6.54437	0.867
6.58162	0.862
6.61887	0.867
6.65612	0.853
6.69337	0.84
6.73062	0.811
6.76787	0.839
6.80512	0.831
6.84237	0.831
6.87962	0.842
6.91688	0.845
6.95413	0.84
6.99138	0.848
7.02863	0.836
7.06588	0.839
7.10313	0.828
7.14038	0.814
7.17763	0.811
7.21488	0.804
7.25213	0.812
7.28938	0.803
7.32664	0.809
7.36389	0.814
7.40114	0.808
7.43839	0.815
7.47564	0.811
7.51289	0.822
7.55014	0.819
7.58739	0.811
7.62464	0.815
7.66189	0.811
7.69915	0.795
7.7364	0.786
7.77365	0.751
7.8109	0.686
7.84815	0.642
7.8854	0.561
7.92265	0.413
7.9599	0.209
7.99715	0.042
8.0344	0.034
8.07165	0.085
8.10891	0.093
8.14616	0.09
8.18341	0.068
8.22066	0.029
8.25791	0.023
8.29516	0.024
8.33241	0.021
8.36966	0.024
8.40691	0.023
8.44416	0.02
8.48142	0.021
8.51867	0.023
8.55592	0.023
8.59317	0.023
8.63042	0.024
8.66767	0.034
8.70492	0.048
8.74217	0.071
8.77942	0.068
8.81667	0.034
8.85392	0.028
8.89118	0.028
8.92843	0.029
8.96568	0.026
9.00293	0.024
9.04018	0.026
9.07743	0.028
9.11468	0.029
9.15193	0.045
9.18918	0.084
9.22643	0.126
9.26369	0.126
9.30094	0.182
9.33819	0.257
9.37544	0.283
9.41269	0.204
9.44994	0.078
9.48719	0.028
9.52444	0.02
9.56169	0.026
9.59894	0.037
9.6362	0.06
9.67345	0.068
9.7107	0.057
9.74795	0.046
9.7852	0.07
9.82245	0.143
9.8597	0.26
9.89695	0.365
9.9342	0.425
9.97145	0.436
10.0087	0.463
10.046	0.466
10.0832	0.453
10.1205	0.422
10.1577	0.332
10.195	0.229
10.2322	0.118
10.2695	0.053
10.3067	0.026
10.344	0.02
10.3812	0.026
10.4185	0.037
10.4557	0.053
10.493	0.109
10.5302	0.171
10.5675	0.201
10.6047	0.224
10.642	0.279
10.6792	0.305
10.7165	0.277
10.7537	0.232
10.791	0.176
10.8282	0.129
10.8655	0.067
10.9027	0.037
10.94	0.034
10.9772	0.028
11.0145	0.023
11.0517	0.017
11.089	0.024
11.1262	0.023
11.1635	0.031
11.2007	0.029
11.238	0.029
11.2752	0.039
11.3125	0.046
11.3497	0.054
11.387	0.071
11.4242	0.088
11.4615	0.113
11.4987	0.141
11.536	0.174
11.5732	0.173
11.6105	0.123
11.6477	0.088
11.685	0.082
11.7222	0.102
11.7595	0.134
11.7968	0.159
11.834	0.18
11.8713	0.17
11.9085	0.173
11.9458	0.219
11.983	0.302
12.0203	0.377
12.0575	0.422
12.0948	0.483
12.132	0.531
12.1693	0.572
12.2065	0.569
12.2438	0.558
12.281	0.51
12.3183	0.432
12.3555	0.43
12.3928	0.513
12.43	0.552
12.4673	0.552
12.5045	0.527
12.5418	0.475
12.579	0.436
12.6163	0.435
12.6535	0.436
12.6908	0.4
12.728	0.34
12.7653	0.252
12.8025	0.191
12.8398	0.244
12.877	0.39
12.9143	0.491
12.9515	0.558
12.9888	0.578
13.026	0.569
13.0633	0.583
13.1005	0.567
13.1378	0.539
13.175	0.486
13.2123	0.404
13.2495	0.313
13.2868	0.188
13.324	0.088
13.3613	0.054
13.3985	0.053
13.4358	0.054
13.473	0.053
13.5103	0.053
13.5475	0.056
13.5848	0.063
13.622	0.062
13.6593	0.068
13.6965	0.098
13.7338	0.151
13.7711	0.223
13.8083	0.302
13.8456	0.382
13.8828	0.43
13.9201	0.45
13.9573	0.463
13.9946	0.453
14.0318	0.449
14.0691	0.432
14.1063	0.4
14.1436	0.352
14.1808	0.294
14.2181	0.227
14.2553	0.171
14.2926	0.132
14.3298	0.118
14.3671	0.112
14.4043	0.115
14.4416	0.118
14.4788	0.12
14.5161	0.129
14.5533	0.138
14.5906	0.148
14.6278	0.162
14.6651	0.17
14.7023	0.18
14.7396	0.202
14.7768	0.235
14.8141	0.285
14.8513	0.358
14.8886	0.407
14.9258	0.457
14.9631	0.494
15.0003	0.528
15.0376	0.567
15.0748	0.574
15.1121	0.563
15.1493	0.569
15.1866	0.57
15.2238	0.567
15.2611	0.555
15.2983	0.533
15.3356	0.514
15.3728	0.492
15.4101	0.472
15.4473	0.458
15.4846	0.452
15.5218	0.45
15.5591	0.475
15.5963	0.508
15.6336	0.533
15.6708	0.552
15.7081	0.564
15.7454	0.566
15.7826	0.567
15.8199	0.575
15.8571	0.585
15.8944	0.594
15.9316	0.603
15.9689	0.624
