Infrared Spectrum: 3,4-Dimethoxy-.beta.-nitrostyrene
Formula: C 10 H 11 N O 4
CAS: 4230-93-7
State: gas
Origin: EPA-IR VAPOR PHASE LIBRARY
1/CM	ABSORBANCE
549.8	0.0011005
559.445	0.002109
569.09	0.001979
578.734	0.002169
588.379	0.001699
598.024	0.001659
607.669	0.001749
617.313	0.0011294
626.958	0.0007106
636.603	0.000282
646.248	0.0006641
655.893	0.00046159
665.537	0.0003471
675.182	0.0005795
684.827	0.0006092
694.472	0.0007818
704.116	0.001709
713.761	0.003219
723.406	0.001829
733.051	0.0009079
742.695	0.0008222
752.34	0.0012153
761.985	0.0011536
771.63	0.0009678
781.275	0.0012082
790.919	0.002059
800.564	0.003209
810.209	0.003299
819.854	0.003259
829.498	0.002879
839.143	0.002229
848.788	0.0012832
858.433	0.0010389
868.078	0.0008626
877.722	0.0007579
887.367	0.0006937
897.012	0.0011923
906.657	0.0011347
916.301	0.0013695
925.946	0.002069
935.591	0.002989
945.236	0.004199
954.88	0.006239
964.525	0.007429
974.17	0.004269
983.815	0.002509
993.46	0.002609
1003.1	0.003249
1012.75	0.005659
1022.39	0.008339
1032.04	0.009729
1041.68	0.006369
1051.33	0.002779
1060.97	0.001779
1070.62	0.0009482
1080.26	0.0008443
1089.91	0.0013301
1099.55	0.0008761
1109.2	0.002649
1118.84	0.003999
1128.49	0.007229
1138.13	0.007839
1147.78	0.006419
1157.42	0.006749
1167.07	0.005329
1176.71	0.003329
1186.36	0.002029
1196	0.002559
1205.64	0.003489
1215.29	0.005889
1224.93	0.007539
1234.58	0.007569
1244.22	0.008329
1253.87	0.012179
1263.51	0.022849
1273.16	0.032679
1282.8	0.024159
1292.45	0.018839
1302.09	0.017169
1311.74	0.012019
1321.38	0.009519
1331.03	0.010579
1340.67	0.015069
1350.32	0.023049
1359.96	0.010949
1369.61	0.003449
1379.25	0.002339
1388.9	0.002299
1398.54	0.003509
1408.18	0.005389
1417.83	0.005719
1427.47	0.003969
1437.12	0.004009
1446.76	0.005279
1456.41	0.005419
1466.05	0.006449
1475.7	0.005789
1485.34	0.006049
1494.99	0.010519
1504.63	0.022289
1514.28	0.024899
1523.92	0.015619
1533.57	0.017089
1543.21	0.017589
1552.86	0.011029
1562.5	0.008879
1572.15	0.009299
1581.79	0.007469
1591.44	0.006689
1601.08	0.007329
1610.73	0.005189
1620.37	0.003319
1630.01	0.004479
1639.66	0.007069
1649.3	0.003469
1658.95	0.001789
1668.59	0.0013241
1678.24	0.0011923
1687.88	0.0008461
1697.53	0.0007436
1707.17	0.0007707
1716.82	0.0006353
1726.46	0.000627
1736.11	0.000559
1745.75	0.0005404
1755.4	0.000605
1765.04	0.0005586
1774.69	0.0005544
1784.33	0.0005299
1793.98	0.00050393
1803.62	0.0006014
1813.27	0.0005742
1822.91	0.0005602
1832.55	0.0005258
1842.2	0.000556
1851.84	0.0005672
1861.49	0.0005945
1871.13	0.0005212
1880.78	0.0005971
1890.42	0.0005848
1900.07	0.0005901
1909.71	0.0005914
1919.36	0.0006577
1929	0.0006526
1938.65	0.0006338
1948.29	0.0005265
1957.94	0.0005342
1967.58	0.0005458
1977.23	0.0005983
1986.87	0.0006255
1996.52	0.0006677
2006.16	0.0007704
2015.81	0.0008141
2025.45	0.0008736
2035.1	0.0008802
2044.74	0.000774
2054.38	0.0007235
2064.03	0.0007343
2073.67	0.0007265
2083.32	0.0006167
2092.96	0.00045962
2102.61	0.0003846
2112.25	0.00050795
2121.9	0.000416501
2131.54	0.00044774
2141.19	0.000374
2150.83	0.00040338
2160.48	0.00049477
2170.12	0.00048917
2179.77	0.00043453
2189.41	0.00048837
2199.06	0.00044542
2208.7	0.00043156
2218.35	0.000410719
2227.99	0.00048476
2237.64	0.0005454
2247.28	0.0005497
2256.92	0.000551
2266.57	0.0005463
2276.21	0.0005534
2285.86	0.0007178
2295.5	0.0005851
2305.15	0.0005426
2314.79	0.00048592
2324.44	0.0005385
2334.08	0.00049488
2343.73	0.00043294
2353.37	0.00044094
2363.02	0.0003144
2372.66	0.0003178
2382.31	0.0003794
2391.95	0.00050892
2401.6	0.00044022
2411.24	0.000285
2420.89	0.00050373
2430.53	0.0006172
2440.18	0.00047211
2449.82	0.00047781
2459.47	0.0006124
2469.11	0.0005392
2478.75	0.0005514
2488.4	0.0004636
2498.04	0.0006194
2507.69	0.0006318
2517.33	0.0006183
2526.98	0.0006447
2536.62	0.0006591
2546.27	0.0006436
2555.91	0.0005803
2565.56	0.0008712
2575.2	0.0006894
2584.85	0.0007973
2594.49	0.0007992
2604.14	0.0008276
2613.78	0.000639
2623.43	0.0007
2633.07	0.0005705
2642.72	0.0005688
2652.36	0.0005411
2662.01	0.000415839
2671.65	0.0005549
2681.29	0.0005098
2690.94	0.00048
2700.58	0.0005718
2710.23	0.0003714
2719.87	0.00043842
2729.52	0.0006509
2739.16	0.0005439
2748.81	0.00042595
2758.45	0.0005289
2768.1	0.0005452
2777.74	0.000715
2787.39	0.0006927
2797.03	0.000677
2806.68	0.0009093
2816.32	0.0010505
2825.97	0.001579
2835.61	0.002529
2845.26	0.003799
2854.9	0.003209
2864.55	0.002389
2874.19	0.002179
2883.84	0.002149
2893.48	0.002199
2903.12	0.002649
2912.77	0.003019
2922.41	0.003449
2932.06	0.003969
2941.7	0.005629
2951.35	0.005949
2960.99	0.004909
2970.64	0.004129
2980.28	0.003199
2989.93	0.002789
2999.57	0.003449
3009.22	0.004419
3018.86	0.003269
3028.51	0.001989
3038.15	0.001449
3047.8	0.001709
3057.44	0.001829
3067.09	0.001609
3076.73	0.0013624
3086.38	0.0009127
3096.02	0.0010456
3105.67	0.0012409
3115.31	0.001739
3124.95	0.0006255
3134.6	0.0006317
3144.24	0.00044663
3153.89	0.0005282
3163.53	0.0004611
3173.18	0.0003835
3182.82	0.0003943
3192.47	0.00044671
3202.11	0.000225
3211.76	0.000417542
3221.4	0.0005115
3231.05	0.000281
3240.69	0.00040141
3250.34	0.000186
3259.98	0.0003277
3269.63	0.0005603
3279.27	0.0003609
3288.92	4.2e-05
3298.56	0.0003524
3308.21	0.0003123
3317.85	0.0003665
3327.49	0.0003606
3337.14	0.0003566
3346.78	0.000410221
3356.43	0.000268
3366.07	0.0003698
3375.72	0.000253
3385.36	0.0003279
3395.01	0.000172
3404.65	0.000416071
3414.3	0.0003821
3423.94	0.000234
3433.59	0.0003121
3443.23	0.000185
3452.88	0.0003205
3462.52	1.1e-05
3472.17	0.000114
3481.81	0.00040063
3491.46	0.0004314
3501.1	0.0003565
3510.75	0.0003486
3520.39	0.0003351
3530.04	0.000373
3539.68	0.00028
3549.32	0.00043767
3558.97	0.000277
3568.61	0.0003703
3578.26	9.6e-05
3587.9	0.000142
3597.55	0.0003142
3607.19	0.000197
3616.84	0.000206
3626.48	0.000214
3636.13	7.3e-05
3645.77	0.000199
3655.42	0.000116
3665.06	0.00040524
3674.71	0.000246
3684.35	0.000172
3694	0.0003578
3703.64	0.0003886
3713.29	0.0003409
3722.93	0.0003157
3732.58	0.0003756
3742.22	0.0003287
3751.86	0.00044018
3761.51	0.0003178
3771.15	0.0003575
3780.8	0.000216
3790.44	0.0003298
3800.09	0.0003177
3809.73	0.0005931
3819.38	0.000284
3829.02	0.0003247
3838.67	0.000179
3848.31	0.0003796
3857.96	0.000205
3867.6	0.0003722
3877.25	0.00050297
3886.89	0.00047045
3896.54	0.000256
3906.18	0.000274
3915.83	0.00045378
3925.47	0.000153
3935.12	0.000172
3944.76	0.000284
3954.41	0.000257
3964.05	0.0006145
3973.69	0.000222
3983.34	0.000378
3992.98	0.000301
