Infrared Spectrum: 4-BROMO-Alpha-(DIMETHYLAMINO)-o-CRESOL
Formula: C9 H12 Br N O
CAS: 42313-79-1
State: SOLUTION (10% CCl4 FOR 5000-1300, 10% CS2 FOR 1300-625 CM^-^1)
Class: COBLENTZ
Instrument: Not specified, most likely a prism, grating, or hybrid spectrometer.
Sampling: TRANSMISSION
Path length: 0.01 CM, 0.01 CM
Resolution: 4
Origin: DOW CHEMICAL COMPANY
MICROMETERS	TRANSMITTANCE
2.02	0.854
2.06072	0.858
2.10144	0.858
2.14215	0.858
2.18287	0.861
2.22359	0.861
2.26431	0.856
2.30503	0.856
2.34574	0.861
2.38646	0.863
2.42718	0.868
2.4679	0.868
2.50862	0.868
2.54933	0.868
2.59005	0.87
2.63077	0.873
2.67149	0.875
2.71221	0.871
2.75293	0.87
2.79364	0.861
2.83436	0.853
2.87508	0.833
2.9158	0.811
2.95652	0.785
2.99723	0.757
3.03795	0.725
3.07867	0.672
3.11939	0.629
3.16011	0.583
3.20082	0.566
3.24154	0.539
3.28226	0.519
3.32298	0.497
3.3637	0.365
3.40441	0.359
3.44513	0.381
3.48585	0.301
3.52657	0.263
3.56729	0.269
3.608	0.317
3.64872	0.462
3.68944	0.497
3.73016	0.516
3.77088	0.569
3.8116	0.571
3.85231	0.6
3.89303	0.642
3.93375	0.671
3.97447	0.689
4.01519	0.726
4.0559	0.758
4.09662	0.763
4.13734	0.774
4.17806	0.792
4.21878	0.794
4.25949	0.79
4.30021	0.802
4.34093	0.819
4.38165	0.819
4.42237	0.829
4.46308	0.833
4.5038	0.843
4.54452	0.853
4.58524	0.861
4.62596	0.863
4.66667	0.87
4.70739	0.87
4.74811	0.871
4.78883	0.871
4.82955	0.873
4.87027	0.871
4.91098	0.87
4.9517	0.87
4.99242	0.871
5.03314	0.878
5.07386	0.89
5.11457	0.89
5.15529	0.888
5.19601	0.89
5.23673	0.885
5.27745	0.875
5.31816	0.853
5.35888	0.838
5.3996	0.873
5.44032	0.88
5.48104	0.875
5.52175	0.875
5.56247	0.876
5.60319	0.878
5.64391	0.871
5.68463	0.854
5.72534	0.843
5.76606	0.848
5.80678	0.861
5.8475	0.86
5.88822	0.854
5.92894	0.856
5.96965	0.853
6.01037	0.844
6.05109	0.831
6.09181	0.811
6.13253	0.782
6.17324	0.657
6.21396	0.521
6.25468	0.505
6.2954	0.367
6.33612	0.397
6.37683	0.485
6.41755	0.46
6.45827	0.436
6.49899	0.487
6.53971	0.551
6.58042	0.575
6.62114	0.581
6.66186	0.521
6.70258	0.258
6.7433	0.045
6.78401	0.074
6.82473	0.158
6.86545	0.357
6.90617	0.497
6.94689	0.613
6.98761	0.571
7.02832	0.472
7.06904	0.62
7.10976	0.61
7.15048	0.527
7.1912	0.391
7.23191	0.384
7.27263	0.534
7.31335	0.603
7.35407	0.558
7.39479	0.414
7.4355	0.716
7.47622	0.821
7.51694	0.827
7.55766	0.831
7.59838	0.827
7.63909	0.789
7.67981	0.704
7.72053	0.473
7.76125	0.517
7.80197	0.472
7.84268	0.143
7.8834	0.08
7.92412	0.048
7.96484	0.074
8.00556	0.172
8.04628	0.32
8.08699	0.436
8.12771	0.613
8.16843	0.706
8.20915	0.765
8.24987	0.784
8.29058	0.802
8.3313	0.794
8.37202	0.738
8.41274	0.548
8.45346	0.35
8.49417	0.448
8.53489	0.607
8.57561	0.726
8.61633	0.763
8.65705	0.747
8.69776	0.753
8.73848	0.802
8.7792	0.821
8.81992	0.824
8.86064	0.816
8.90135	0.777
8.94207	0.655
8.98279	0.564
9.02351	0.691
9.06423	0.701
9.10495	0.586
9.14566	0.632
9.18638	0.76
9.2271	0.79
9.26782	0.75
9.30854	0.612
9.34925	0.701
9.38997	0.787
9.43069	0.79
9.47141	0.78
9.51213	0.745
9.55284	0.622
9.59356	0.451
9.63428	0.605
9.675	0.701
9.71572	0.661
9.75643	0.46
9.79715	0.242
9.83787	0.384
9.87859	0.676
9.91931	0.77
9.96002	0.811
10.0007	0.833
10.0415	0.833
10.0822	0.829
10.1229	0.824
10.1636	0.802
10.2043	0.728
10.2451	0.517
10.2858	0.468
10.3265	0.696
10.3672	0.804
10.4079	0.833
10.4486	0.849
10.4894	0.86
10.5301	0.86
10.5708	0.856
10.6115	0.848
10.6522	0.819
10.693	0.795
10.7337	0.814
10.7744	0.831
10.8151	0.831
10.8558	0.826
10.8965	0.819
10.9373	0.809
10.978	0.79
11.0187	0.774
11.0594	0.758
11.1001	0.743
11.1408	0.701
11.1816	0.645
11.2223	0.559
11.263	0.49
11.3037	0.485
11.3444	0.45
11.3852	0.264
11.4259	0.193
11.4666	0.391
11.5073	0.522
11.548	0.561
11.5887	0.568
11.6295	0.561
11.6702	0.549
11.7109	0.531
11.7516	0.512
11.7923	0.477
11.8331	0.413
11.8738	0.313
11.9145	0.274
11.9552	0.352
11.9959	0.462
12.0366	0.531
12.0774	0.558
12.1181	0.541
12.1588	0.462
12.1995	0.32
12.2402	0.116
12.281	0.043
12.3217	0.141
12.3624	0.296
12.4031	0.401
12.4438	0.48
12.4845	0.522
12.5253	0.558
12.566	0.578
12.6067	0.593
12.6474	0.608
12.6881	0.62
12.7289	0.63
12.7696	0.645
12.8103	0.652
12.851	0.657
12.8917	0.652
12.9324	0.618
12.9732	0.532
13.0139	0.435
13.0546	0.43
13.0953	0.543
13.136	0.618
13.1768	0.661
13.2175	0.688
13.2582	0.701
13.2989	0.709
13.3396	0.718
13.3803	0.723
13.4211	0.73
13.4618	0.733
13.5025	0.738
13.5432	0.74
13.5839	0.741
13.6247	0.741
13.6654	0.738
13.7061	0.733
13.7468	0.731
13.7875	0.726
13.8282	0.72
13.869	0.708
13.9097	0.684
13.9504	0.672
13.9911	0.677
14.0318	0.694
14.0726	0.703
14.1133	0.704
14.154	0.701
14.1947	0.699
14.2354	0.694
14.2761	0.691
14.3169	0.682
14.3576	0.679
14.3983	0.677
14.439	0.671
14.4797	0.664
14.5204	0.662
14.5612	0.655
14.6019	0.649
14.6426	0.642
14.6833	0.635
14.724	0.627
14.7648	0.618
14.8055	0.607
14.8462	0.602
14.8869	0.595
14.9276	0.585
14.9683	0.578
15.0091	0.573
15.0498	0.559
15.0905	0.549
15.1312	0.532
15.1719	0.519
15.2127	0.5
15.2534	0.478
15.2941	0.453
15.3348	0.419
15.3755	0.372
15.4162	0.311
15.457	0.274
15.4977	0.283
15.5384	0.322
15.5791	0.36
15.6198	0.387
15.6606	0.399
15.7013	0.401
15.742	0.401
15.7827	0.401
15.8234	0.399
15.8641	0.399
15.9049	0.391
15.9456	0.333
15.9863	0.377
