Infrared Spectrum: 5-n-HEXYL-2-METHYL-Delta^2-THIAZOLINE
Formula: C10 H19 N S
CAS: 4233-81-2
Boiling point: 82-84 C AT 1 mmHg
Class: COBLENTZ
Instrument: Not specified, most likely a prism, grating, or hybrid spectrometer.
Sampling: TRANSMISSION
Path length: FILM
Resolution: 4
Origin: ARTHUR D. LITTLE, INC.
1/CM	TRANSMITTANCE
644.988	0.6
652.042	0.622
659.097	0.645
666.151	0.661
673.206	0.684
680.26	0.687
687.315	0.696
694.369	0.69
701.424	0.672
708.478	0.652
715.533	0.677
722.587	0.698
729.642	0.72
736.696	0.731
743.751	0.733
750.805	0.741
757.86	0.75
764.914	0.757
771.969	0.758
779.023	0.753
786.077	0.754
793.132	0.759
800.186	0.764
807.241	0.767
814.295	0.771
821.35	0.772
828.404	0.769
835.459	0.762
842.513	0.758
849.568	0.753
856.622	0.75
863.677	0.742
870.731	0.717
877.786	0.69
884.84	0.683
891.895	0.65
898.949	0.501
906.003	0.424
913.058	0.552
920.112	0.658
927.167	0.698
934.221	0.697
941.276	0.696
948.33	0.698
955.385	0.696
962.439	0.688
969.494	0.698
976.548	0.724
983.603	0.725
990.657	0.727
997.712	0.731
1004.77	0.727
1011.82	0.725
1018.88	0.718
1025.93	0.698
1032.98	0.686
1040.04	0.685
1047.09	0.686
1054.15	0.699
1061.2	0.727
1068.26	0.741
1075.31	0.741
1082.37	0.735
1089.42	0.728
1096.47	0.708
1103.53	0.683
1110.58	0.654
1117.64	0.605
1124.69	0.468
1131.75	0.305
1138.8	0.282
1145.86	0.449
1152.91	0.6
1159.96	0.659
1167.02	0.673
1174.07	0.681
1181.13	0.699
1188.18	0.698
1195.24	0.688
1202.29	0.678
1209.35	0.681
1216.4	0.698
1223.45	0.721
1230.51	0.727
1237.56	0.73
1244.62	0.727
1251.67	0.726
1258.73	0.725
1265.78	0.726
1272.84	0.72
1279.89	0.713
1286.94	0.712
1294	0.72
1301.05	0.73
1308.11	0.728
1315.16	0.727
1322.22	0.725
1329.27	0.72
1336.33	0.705
1343.38	0.67
1350.44	0.585
1357.49	0.555
1364.54	0.67
1371.6	0.719
1378.65	0.719
1385.71	0.706
1392.76	0.694
1399.82	0.646
1406.87	0.599
1413.93	0.532
1420.98	0.53
1428.03	0.532
1435.09	0.531
1442.14	0.534
1449.2	0.53
1456.25	0.529
1463.31	0.549
1470.36	0.7
1477.42	0.733
1484.47	0.746
1491.52	0.75
1498.58	0.75
1505.63	0.748
1512.69	0.744
1519.74	0.741
1526.8	0.748
1533.85	0.752
1540.91	0.751
1547.96	0.751
1555.01	0.752
1562.07	0.752
1569.12	0.751
1576.18	0.745
1583.23	0.742
1590.29	0.735
1597.34	0.726
1604.4	0.711
1611.45	0.68
1618.51	0.616
1625.56	0.465
1632.61	0.319
1639.67	0.335
1646.72	0.639
1653.78	0.707
1660.83	0.734
1667.89	0.74
1674.94	0.746
1682	0.752
1689.05	0.757
1696.1	0.768
1703.16	0.772
1710.21	0.774
1717.27	0.775
1724.32	0.779
1731.38	0.779
1738.43	0.774
1745.49	0.776
1752.54	0.779
1759.59	0.778
1766.65	0.778
1773.7	0.782
1780.76	0.782
1787.81	0.781
1794.87	0.78
1801.92	0.781
1808.98	0.784
1816.03	0.784
1823.08	0.782
1830.14	0.782
1837.19	0.782
1844.25	0.782
1851.3	0.782
1858.36	0.782
1865.41	0.78
1872.47	0.781
1879.52	0.784
1886.58	0.782
1893.63	0.782
1900.68	0.782
1907.74	0.782
1914.79	0.784
1921.85	0.784
1928.9	0.784
1935.96	0.782
1943.01	0.782
1950.07	0.782
1957.12	0.782
1964.17	0.782
1971.23	0.784
1978.28	0.782
1985.34	0.782
1992.39	0.784
1999.45	0.785
2006.5	0.785
2013.56	0.785
2020.61	0.782
2027.66	0.781
2034.72	0.781
2041.77	0.782
2048.83	0.782
2055.88	0.782
2062.94	0.782
2069.99	0.782
2077.05	0.782
2084.1	0.782
2091.15	0.782
2098.21	0.782
2105.26	0.782
2112.32	0.782
2119.37	0.782
2126.43	0.782
2133.48	0.782
2140.54	0.782
2147.59	0.782
2154.65	0.781
2161.7	0.781
2168.75	0.782
2175.81	0.782
2182.86	0.782
2189.92	0.782
2196.97	0.784
2204.03	0.784
2211.08	0.784
2218.14	0.785
2225.19	0.785
2232.24	0.784
2239.3	0.782
2246.35	0.784
2253.41	0.782
2260.46	0.782
2267.52	0.784
2274.57	0.782
2281.63	0.782
2288.68	0.784
2295.73	0.782
2302.79	0.782
2309.84	0.782
2316.9	0.782
2323.95	0.781
2331.01	0.78
2338.06	0.781
2345.12	0.781
2352.17	0.78
2359.22	0.78
2366.28	0.782
2373.33	0.785
2380.39	0.786
2387.44	0.786
2394.5	0.786
2401.55	0.786
2408.61	0.786
2415.66	0.786
2422.72	0.785
2429.77	0.785
2436.82	0.782
2443.88	0.782
2450.93	0.784
2457.99	0.785
2465.04	0.785
2472.1	0.782
2479.15	0.784
2486.21	0.782
2493.26	0.784
2500.31	0.784
2507.37	0.784
2514.42	0.782
2521.48	0.782
2528.53	0.781
2535.59	0.781
2542.64	0.782
2549.7	0.782
2556.75	0.78
2563.8	0.781
2570.86	0.782
2577.91	0.784
2584.97	0.782
2592.02	0.781
2599.08	0.781
2606.13	0.781
2613.19	0.78
2620.24	0.78
2627.29	0.779
2634.35	0.778
2641.4	0.779
2648.46	0.778
2655.51	0.776
2662.57	0.776
2669.62	0.776
2676.68	0.776
2683.73	0.776
2690.79	0.776
2697.84	0.778
2704.89	0.774
2711.95	0.774
2719	0.773
2726.06	0.773
2733.11	0.773
2740.17	0.774
2747.22	0.774
2754.28	0.775
2761.33	0.774
2768.38	0.765
2775.44	0.76
2782.49	0.755
2789.55	0.746
2796.6	0.739
2803.66	0.734
2810.71	0.719
2817.77	0.707
2824.82	0.686
2831.87	0.652
2838.93	0.607
2845.98	0.464
2853.04	0.326
2860.09	0.273
2867.15	0.314
2874.2	0.407
2881.26	0.424
2888.31	0.444
2895.36	0.408
2902.42	0.349
2909.47	0.315
2916.53	0.259
2923.58	0.184
2930.64	0.153
2937.69	0.165
2944.75	0.217
2951.8	0.276
2958.85	0.288
2965.91	0.293
2972.96	0.362
2980.02	0.502
2987.07	0.624
2994.13	0.664
3001.18	0.685
3008.24	0.706
3015.29	0.732
3022.35	0.746
3029.4	0.75
3036.45	0.752
3043.51	0.754
3050.56	0.755
3057.62	0.757
3064.67	0.757
3071.73	0.76
3078.78	0.767
3085.84	0.769
3092.89	0.769
3099.94	0.768
3107	0.765
3114.05	0.765
3121.11	0.765
3128.16	0.765
3135.22	0.764
3142.27	0.762
