Infrared Spectrum: 5-Chloro-1-indanone
Formula: C 9 H 7 Cl O
CAS: 42348-86-7
State: gas
Origin: EPA-IR VAPOR PHASE LIBRARY
1/CM	ABSORBANCE
549.8	0.004777
559.445	0.009507
569.09	0.013667
578.734	0.010487
588.379	0.004437
598.024	0.004247
607.669	0.005357
617.313	0.004477
626.958	0.002507
636.603	0.0011376
646.248	0.0008616
655.893	0.000601
665.537	0.0009125
675.182	0.002477
684.827	0.004957
694.472	0.005977
704.116	0.003607
713.761	0.001737
723.406	0.0016463
733.051	0.005107
742.695	0.010037
752.34	0.003587
761.985	0.0012781
771.63	0.001967
781.275	0.002937
790.919	0.005537
800.564	0.015697
810.209	0.031157
819.854	0.030837
829.498	0.026677
839.143	0.018117
848.788	0.012767
858.433	0.042677
868.078	0.089477
877.722	0.047087
887.367	0.014287
897.012	0.008037
906.657	0.006057
916.301	0.004197
925.946	0.003207
935.591	0.003137
945.236	0.003137
954.88	0.003477
964.525	0.003297
974.17	0.002807
983.815	0.004687
993.46	0.006007
1003.1	0.012397
1012.75	0.028017
1022.39	0.052337
1032.04	0.037367
1041.68	0.014327
1051.33	0.021947
1060.97	0.054637
1070.62	0.063277
1080.26	0.031467
1089.91	0.015137
1099.55	0.008207
1109.2	0.007927
1118.84	0.008997
1128.49	0.005297
1138.13	0.003607
1147.78	0.0011118
1157.42	0.007027
1167.07	0.016697
1176.71	0.016847
1186.36	0.029007
1196	0.073767
1205.64	0.050247
1215.29	0.010347
1224.93	0.013927
1234.58	0.037447
1244.22	0.043887
1253.87	0.034227
1263.51	0.035167
1273.16	0.016257
1282.8	0.016057
1292.45	0.026607
1302.09	0.071897
1311.74	0.086827
1321.38	0.032967
1331.03	0.009117
1340.67	0.005557
1350.32	0.004657
1359.96	0.005287
1369.61	0.007137
1379.25	0.007657
1388.9	0.008197
1398.54	0.009747
1408.18	0.015177
1417.83	0.019947
1427.47	0.015687
1437.12	0.016367
1446.76	0.021977
1456.41	0.021017
1466.05	0.018557
1475.7	0.013057
1485.34	0.006057
1494.99	0.004817
1504.63	0.004497
1514.28	0.005157
1523.92	0.004377
1533.57	0.003937
1543.21	0.005187
1552.86	0.009527
1562.5	0.019917
1572.15	0.050637
1581.79	0.088277
1591.44	0.117977
1601.08	0.145427
1610.73	0.086667
1620.37	0.027667
1630.01	0.013167
1639.66	0.008857
1649.3	0.008597
1658.95	0.007377
1668.59	0.007047
1678.24	0.007777
1687.88	0.011937
1697.53	0.021467
1707.17	0.031767
1716.82	0.050277
1726.46	0.142327
1736.11	0.390847
1745.75	0.380357
1755.4	0.117097
1765.04	0.040257
1774.69	0.018417
1784.33	0.010537
1793.98	0.007527
1803.62	0.006277
1813.27	0.005977
1822.91	0.006107
1832.55	0.005527
1842.2	0.004237
1851.84	0.003517
1861.49	0.003357
1871.13	0.003097
1880.78	0.002597
1890.42	0.002887
1900.07	0.003677
1909.71	0.004317
1919.36	0.004037
1929	0.003017
1938.65	0.002497
1948.29	0.002277
1957.94	0.001977
1967.58	0.001987
1977.23	0.002027
1986.87	0.001857
1996.52	0.001877
2006.16	0.001887
2015.81	0.0014929
2025.45	0.0014636
2035.1	0.001897
2044.74	0.001927
2054.38	0.001877
2064.03	0.001654
2073.67	0.001496
2083.32	0.0013293
2092.96	0.0011942
2102.61	0.0014009
2112.25	0.0012334
2121.9	0.0012487
2131.54	0.001342
2141.19	0.0012436
2150.83	0.0013051
2160.48	0.001212
2170.12	0.0012766
2179.77	0.0016069
2189.41	0.0012431
2199.06	0.001302
2208.7	0.0017045
2218.35	0.0014906
2227.99	0.001717
2237.64	0.0015326
2247.28	0.001797
2256.92	0.001757
2266.57	0.0016937
2276.21	0.0016942
2285.86	0.0016386
2295.5	0.0016067
2305.15	0.0016235
2314.79	0.001767
2324.44	0.002027
2334.08	0.002397
2343.73	0.002497
2353.37	0.002537
2363.02	0.001837
2372.66	0.0014549
2382.31	0.0013711
2391.95	0.0015674
2401.6	0.0014544
2411.24	0.0016291
2420.89	0.0012641
2430.53	0.0012236
2440.18	0.0013306
2449.82	0.0011508
2459.47	0.0014443
2469.11	0.0014238
2478.75	0.001797
2488.4	0.0015237
2498.04	0.0010822
2507.69	0.0012103
2517.33	0.0014429
2526.98	0.00139
2536.62	0.0014125
2546.27	0.001787
2555.91	0.001797
2565.56	0.002217
2575.2	0.002027
2584.85	0.001495
2594.49	0.0013623
2604.14	0.0014538
2613.78	0.001717
2623.43	0.0014329
2633.07	0.0015321
2642.72	0.0012943
2652.36	0.0016317
2662.01	0.0016178
2671.65	0.0015778
2681.29	0.001727
2690.94	0.001737
2700.58	0.001737
2710.23	0.0016406
2719.87	0.0013551
2729.52	0.0013262
2739.16	0.0012697
2748.81	0.0016825
2758.45	0.0015228
2768.1	0.0015468
2777.74	0.0012138
2787.39	0.0012549
2797.03	0.0012302
2806.68	0.0014954
2816.32	0.002557
2825.97	0.002307
2835.61	0.002517
2845.26	0.004427
2854.9	0.005687
2864.55	0.007147
2874.19	0.008057
2883.84	0.007097
2893.48	0.004547
2903.12	0.003217
2912.77	0.004597
2922.41	0.009477
2932.06	0.025297
2941.7	0.042127
2951.35	0.029687
2960.99	0.015517
2970.64	0.017087
2980.28	0.009637
2989.93	0.004147
2999.57	0.001927
3009.22	0.002357
3018.86	0.002607
3028.51	0.003817
3038.15	0.004237
3047.8	0.005237
3057.44	0.006747
3067.09	0.006667
3076.73	0.006847
3086.38	0.006827
3096.02	0.004437
3105.67	0.002347
3115.31	0.0015642
3124.95	0.001957
3134.6	0.001827
3144.24	0.0014257
3153.89	0.0011181
3163.53	0.0008805
3173.18	0.0009831
3182.82	0.0011567
3192.47	0.0010068
3202.11	0.0010028
3211.76	0.00073797
3221.4	0.0009763
3231.05	0.000152
3240.69	0.000757
3250.34	0.00080011
3259.98	0.000211
3269.63	0.000558
3279.27	0.0008076
3288.92	0.000526
3298.56	0.000512
3308.21	0.000562
3317.85	0.0006347
3327.49	0.000605
3337.14	0.0009966
3346.78	0.0006944
3356.43	0.000512
3366.07	0.000536
3375.72	0.0011991
3385.36	0.0008518
3395.01	0.001311
3404.65	0.00072927
3414.3	0.0012933
3423.94	0.0012118
3433.59	0.002367
3443.23	0.003337
3452.88	0.004777
3462.52	0.006867
3472.17	0.005507
3481.81	0.002637
3491.46	0.002087
3501.1	0.001737
3510.75	0.0009682
3520.39	0.0010267
3530.04	0.0011778
3539.68	0.0010106
3549.32	0.0006279
3558.97	0.0009497
3568.61	0.0008381
3578.26	0.00054
3587.9	0.00045
3597.55	0.00076868
3607.19	0.0006673
3616.84	0.0006236
3626.48	0.0015983
3636.13	0.001038
3645.77	0.00075871
3655.42	0.00073425
3665.06	0.0006159
3674.71	0.0008925
3684.35	0.0008601
3694	0.00075304
3703.64	0.0009866
3713.29	0.000606
3722.93	0.000672
3732.58	0.001294
3742.22	0.001099
3751.86	0.00079919
3761.51	0.0006182
3771.15	0.000527
3780.8	0.0006562
3790.44	0.0009284
3800.09	0.00076155
3809.73	0.000299
3819.38	0.0009386
3829.02	0.000929
3838.67	0.000542
3848.31	0.00073635
3857.96	0.0008565
3867.6	0.00079601
3877.25	0.00069787
3886.89	0.0011054
3896.54	0.0014014
3906.18	0.0012451
3915.83	0.0008925
3925.47	0.0010955
3935.12	0.0013891
3944.76	0.0012541
3954.41	0.0014575
3964.05	0.0009541
3973.69	0.000469
3983.34	0.0006696
3992.98	0.000707113
