Infrared Spectrum: 3,5-Bis(trifluoromethyl)benzylamine
Formula: C 9 H 7 F 6 N
CAS: 42365-62-8
State: gas
Origin: EPA-IR VAPOR PHASE LIBRARY
1/CM	ABSORBANCE
549.8	0.010233
559.445	0.012053
569.09	0.010873
578.734	0.012473
588.379	0.012913
598.024	0.012903
607.669	0.013253
617.313	0.014103
626.958	0.015893
636.603	0.018123
646.248	0.019903
655.893	0.021703
665.537	0.024683
675.182	0.065013
684.827	0.188293
694.472	0.058043
704.116	0.089223
713.761	0.072183
723.406	0.066293
733.051	0.046633
742.695	0.034943
752.34	0.042133
761.985	0.049653
771.63	0.054803
781.275	0.049473
790.919	0.038863
800.564	0.030283
810.209	0.024793
819.854	0.022073
829.498	0.028273
839.143	0.066923
848.788	0.057043
858.433	0.031303
868.078	0.034143
877.722	0.050993
887.367	0.069273
897.012	0.090763
906.657	0.074143
916.301	0.023173
925.946	0.012903
935.591	0.009963
945.236	0.008223
954.88	0.007733
964.525	0.006903
974.17	0.006973
983.815	0.008193
993.46	0.009503
1003.1	0.011503
1012.75	0.011873
1022.39	0.009963
1032.04	0.009883
1041.68	0.010783
1051.33	0.011793
1060.97	0.013113
1070.62	0.013773
1080.26	0.015463
1089.91	0.023623
1099.55	0.046133
1109.2	0.082723
1118.84	0.076473
1128.49	0.111503
1138.13	0.354803
1147.78	0.976513
1157.42	0.903953
1167.07	0.441713
1176.71	0.913533
1186.36	0.860333
1196	0.270353
1205.64	0.098723
1215.29	0.073733
1224.93	0.064873
1234.58	0.060983
1244.22	0.059523
1253.87	0.081903
1263.51	0.187973
1273.16	0.782193
1282.8	1.17569
1292.45	0.268023
1302.09	0.086803
1311.74	0.050953
1321.38	0.042243
1331.03	0.047643
1340.67	0.076833
1350.32	0.156553
1359.96	0.280513
1369.61	0.257983
1379.25	0.132733
1388.9	0.057713
1398.54	0.029243
1408.18	0.018773
1417.83	0.014873
1427.47	0.013243
1437.12	0.013603
1446.76	0.017923
1456.41	0.025803
1466.05	0.021093
1475.7	0.011283
1485.34	0.007363
1494.99	0.006493
1504.63	0.006763
1514.28	0.006513
1523.92	0.006203
1533.57	0.005813
1543.21	0.006573
1552.86	0.007443
1562.5	0.007783
1572.15	0.008583
1581.79	0.009373
1591.44	0.011463
1601.08	0.016263
1610.73	0.026673
1620.37	0.038193
1630.01	0.031373
1639.66	0.018893
1649.3	0.013653
1658.95	0.010413
1668.59	0.007163
1678.24	0.005753
1687.88	0.004593
1697.53	0.004203
1707.17	0.003743
1716.82	0.003523
1726.46	0.003653
1736.11	0.003833
1745.75	0.004053
1755.4	0.004283
1765.04	0.004393
1774.69	0.004803
1784.33	0.006323
1793.98	0.008803
1803.62	0.012793
1813.27	0.011453
1822.91	0.007443
1832.55	0.006373
1842.2	0.005153
1851.84	0.003833
1861.49	0.003053
1871.13	0.002903
1880.78	0.002613
1890.42	0.002143
1900.07	0.002233
1909.71	0.001913
1919.36	0.001423
1929	0.001313
1938.65	0.001423
1948.29	0.001533
1957.94	0.001223
1967.58	0.001163
1977.23	0.001483
1986.87	0.002193
1996.52	0.002393
2006.16	0.002523
2015.81	0.002333
2025.45	0.001903
2035.1	0.001693
2044.74	0.001723
2054.38	0.001683
2064.03	0.001563
2073.67	0.001553
2083.32	0.001413
2092.96	0.001243
2102.61	0.001163
2112.25	0.001223
2121.9	0.001293
2131.54	0.0010688
2141.19	0.0007486
2150.83	0.0009408
2160.48	0.0009021
2170.12	0.001163
2179.77	0.001203
2189.41	0.001463
2199.06	0.001913
2208.7	0.002423
2218.35	0.002423
2227.99	0.002303
2237.64	0.002813
2247.28	0.003373
2256.92	0.003503
2266.57	0.003783
2276.21	0.004623
2285.86	0.005103
2295.5	0.004283
2305.15	0.003443
2314.79	0.003023
2324.44	0.002883
2334.08	0.002943
2343.73	0.002893
2353.37	0.002803
2363.02	0.002783
2372.66	0.002503
2382.31	0.002233
2391.95	0.001603
2401.6	0.001403
2411.24	0.001243
2420.89	0.001533
2430.53	0.001503
2440.18	0.001153
2449.82	0.001253
2459.47	0.001133
2469.11	0.0010858
2478.75	0.0010362
2488.4	0.0007921
2498.04	0.0009042
2507.69	0.0009349
2517.33	0.0009428
2526.98	0.0009835
2536.62	0.001153
2546.27	0.001603
2555.91	0.001863
2565.56	0.001623
2575.2	0.001133
2584.85	0.001163
2594.49	0.0010634
2604.14	0.001113
2613.78	0.001133
2623.43	0.001793
2633.07	0.001933
2642.72	0.002433
2652.36	0.002143
2662.01	0.001573
2671.65	0.001673
2681.29	0.001493
2690.94	0.001613
2700.58	0.001693
2710.23	0.001603
2719.87	0.001793
2729.52	0.002123
2739.16	0.002353
2748.81	0.002313
2758.45	0.002623
2768.1	0.002773
2777.74	0.003043
2787.39	0.003263
2797.03	0.003783
2806.68	0.004613
2816.32	0.006403
2825.97	0.008143
2835.61	0.010403
2845.26	0.013513
2854.9	0.017153
2864.55	0.020603
2874.19	0.022453
2883.84	0.020403
2893.48	0.020043
2903.12	0.022953
2912.77	0.022253
2922.41	0.019633
2932.06	0.017973
2941.7	0.018183
2951.35	0.016263
2960.99	0.012363
2970.64	0.008743
2980.28	0.006423
2989.93	0.004633
2999.57	0.002543
3009.22	0.002103
3018.86	0.001833
3028.51	0.002153
3038.15	0.003253
3047.8	0.003943
3057.44	0.003343
3067.09	0.002493
3076.73	0.002213
3086.38	0.002313
3096.02	0.002013
3105.67	0.001963
3115.31	0.001213
3124.95	0.001113
3134.6	0.0006967
3144.24	0.0007601
3153.89	0.0004742
3163.53	0.000759
3173.18	0.0005171
3182.82	0.0007825
3192.47	0.0009769
3202.11	0.000994
3211.76	0.0010432
3221.4	0.001293
3231.05	0.001243
3240.69	0.001183
3250.34	0.0010606
3259.98	0.0009319
3269.63	0.0007043
3279.27	0.0006382
3288.92	0.0006836
3298.56	0.0005224
3308.21	0.0002996
3317.85	0.0007725
3327.49	0.0008284
3337.14	0.001133
3346.78	0.001623
3356.43	0.002423
3366.07	0.001923
3375.72	0.001573
3385.36	0.001263
3395.01	0.001403
3404.65	0.001553
3414.3	0.001913
3423.94	0.002513
3433.59	0.002723
3443.23	0.001573
3452.88	0.001633
3462.52	0.001283
3472.17	0.000813
3481.81	0.0007272
3491.46	0.0008947
3501.1	0.0005444
3510.75	0.000506
3520.39	0.0005098
3530.04	0.0005587
3539.68	0.0006591
3549.32	0.0005247
3558.97	0.000404
3568.61	0.0005827
3578.26	0.000357
3587.9	0.0006119
3597.55	0.0006603
3607.19	0.0005806
3616.84	0.0005046
3626.48	0.0004833
3636.13	0.0005278
3645.77	0.0005111
3655.42	0.0002661
3665.06	0.0005271
3674.71	0.0007452
3684.35	0.0005419
3694	0.000554
3703.64	0.0002359
3713.29	0.0005262
3722.93	0.0004862
3732.58	0.0007101
3742.22	0.0002772
3751.86	0.000472
3761.51	0.0004652
3771.15	0.000757
3780.8	0.0004177
3790.44	0.0002193
3800.09	6.17e-05
3809.73	0.0004789
3819.38	0.0005036
3829.02	0.0003052
3838.67	0.0003972
3848.31	0.0003108
3857.96	0.0006007
3867.6	0.0005083
3877.25	0.0004778
3886.89	0.0004922
3896.54	0.000829
3906.18	0.0007291
3915.83	0.0005331
3925.47	0.0008713
3935.12	0.0005683
3944.76	0.0004715
3954.41	0.0008394
3964.05	0.0007441
3973.69	0.0007678
3983.34	0.0007499
3992.98	0.0007961
