Infrared Spectrum: 2,5-DIMETHYL-1,4-DIPROPIONITRILE PIPERAZINE
Formula: C12 H20 N4
CAS: 4236-65-1
State: SOLID (MINERAL OIL MULL)
Class: COBLENTZ
Instrument: Not specified, most likely a prism, grating, or hybrid spectrometer.
Sampling: TRANSMISSION
Resolution: 4
Origin: WYANDOTTE CHEMICALS CORP., WYANDOTTE, MICHIGAN, USA
MICROMETERS	TRANSMITTANCE
2.019	0.599
2.05609	0.61
2.09317	0.611
2.13026	0.599
2.16734	0.568
2.20443	0.538
2.24151	0.546
2.2786	0.554
2.31569	0.56
2.35277	0.569
2.38986	0.583
2.42694	0.58
2.46403	0.588
2.50111	0.594
2.5382	0.6
2.57529	0.611
2.61237	0.605
2.64946	0.616
2.68654	0.628
2.72363	0.621
2.76071	0.619
2.7978	0.616
2.83489	0.605
2.87197	0.597
2.90906	0.597
2.94614	0.59
2.98323	0.593
3.02031	0.59
3.0574	0.576
3.09449	0.557
3.13157	0.484
3.16866	0.524
3.20574	0.526
3.24283	0.501
3.27991	0.416
3.317	0.1
3.35409	0.021
3.39117	0.017
3.42826	0.024
3.46534	0.024
3.50243	0.027
3.53951	0.107
3.5766	0.305
3.61369	0.341
3.65077	0.411
3.68786	0.465
3.72494	0.478
3.76203	0.546
3.79911	0.566
3.8362	0.568
3.87329	0.607
3.91037	0.656
3.94746	0.613
3.98454	0.673
4.02163	0.709
4.05871	0.712
4.0958	0.708
4.13289	0.717
4.16997	0.708
4.20706	0.729
4.24414	0.717
4.28123	0.709
4.31832	0.712
4.3554	0.734
4.39249	0.726
4.42957	0.779
4.46666	0.813
4.50374	0.406
4.54083	0.36
4.57792	0.534
4.615	0.614
4.65209	0.642
4.68917	0.67
4.72626	0.704
4.76334	0.718
4.80043	0.726
4.83752	0.732
4.8746	0.728
4.91169	0.718
4.94877	0.732
4.98586	0.756
5.02294	0.76
5.06003	0.763
5.09712	0.765
5.1342	0.781
5.17129	0.759
5.20837	0.756
5.24546	0.777
5.28254	0.782
5.31963	0.774
5.35672	0.779
5.3938	0.782
5.43089	0.779
5.46797	0.784
5.50506	0.798
5.54214	0.816
5.57923	0.807
5.61632	0.809
5.6534	0.805
5.69049	0.804
5.72757	0.796
5.76466	0.812
5.80174	0.796
5.83883	0.776
5.87592	0.796
5.913	0.785
5.95009	0.788
5.98717	0.795
6.02426	0.787
6.06134	0.812
6.09843	0.807
6.13552	0.816
6.1726	0.816
6.20969	0.81
6.24677	0.812
6.28386	0.809
6.32094	0.776
6.35803	0.756
6.39512	0.777
6.4322	0.753
6.46929	0.779
6.50637	0.77
6.54346	0.776
6.58054	0.754
6.61763	0.706
6.65472	0.596
6.6918	0.462
6.72889	0.318
6.76597	0.149
6.80306	0.08
6.84014	0.026
6.87723	0.037
6.91432	0.2
6.9514	0.503
6.98849	0.377
7.02557	0.284
7.06266	0.555
7.09974	0.605
7.13683	0.526
7.17392	0.397
7.211	0.052
7.24809	0.152
7.28517	0.066
7.32226	0.142
7.35934	0.282
7.39643	0.021
7.43352	0.052
7.4706	0.234
7.50769	0.336
7.54477	0.113
7.58186	0.206
7.61894	0.42
7.65603	0.495
7.69312	0.529
7.7302	0.389
7.76729	0.433
7.80437	0.447
7.84146	0.231
7.87854	0.551
7.91563	0.667
7.95272	0.704
7.9898	0.61
8.02689	0.259
8.06397	0.472
8.10106	0.644
8.13814	0.706
8.17523	0.777
8.21232	0.815
8.2494	0.812
8.28649	0.753
8.32357	0.639
8.36066	0.386
8.39775	0.139
8.43483	0.072
8.47192	0.13
8.509	0.197
8.54609	0.218
8.58317	0.189
8.62026	0.082
8.65735	0.088
8.69443	0.183
8.73152	0.316
8.7686	0.433
8.80569	0.489
8.84277	0.427
8.87986	0.093
8.91695	0.243
8.95403	0.555
8.99112	0.656
9.0282	0.692
9.06529	0.577
9.10237	0.301
9.13946	0.108
9.17655	0.136
9.21363	0.15
9.25072	0.083
9.2878	0.274
9.32489	0.42
9.36197	0.504
9.39906	0.551
9.43615	0.588
9.47323	0.604
9.51032	0.621
9.5474	0.622
9.58449	0.63
9.62157	0.607
9.65866	0.593
9.69575	0.566
9.73283	0.402
9.76992	0.135
9.807	0.234
9.84409	0.492
9.88117	0.604
9.91826	0.667
9.95535	0.715
9.99243	0.731
10.0295	0.739
10.0666	0.751
10.1037	0.756
10.1408	0.748
10.1779	0.687
10.2149	0.512
10.252	0.284
10.2891	0.071
10.3262	0.035
10.3633	0.1
10.4004	0.26
10.4375	0.389
10.4745	0.461
10.5116	0.484
10.5487	0.378
10.5858	0.439
10.6229	0.58
10.66	0.625
10.6971	0.635
10.7341	0.6
10.7712	0.647
10.8083	0.67
10.8454	0.701
10.8825	0.72
10.9196	0.726
10.9567	0.726
10.9937	0.72
11.0308	0.63
11.0679	0.377
11.105	0.22
11.1421	0.372
11.1792	0.579
11.2163	0.67
11.2533	0.718
11.2904	0.75
11.3275	0.774
11.3646	0.787
11.4017	0.801
11.4388	0.799
11.4759	0.809
11.5129	0.818
11.55	0.813
11.5871	0.815
11.6242	0.824
11.6613	0.813
11.6984	0.81
11.7355	0.813
11.7725	0.813
11.8096	0.812
11.8467	0.809
11.8838	0.809
11.9209	0.809
11.958	0.81
11.9951	0.812
12.0321	0.805
12.0692	0.791
12.1063	0.782
12.1434	0.76
12.1805	0.759
12.2176	0.736
12.2547	0.704
12.2917	0.614
12.3288	0.543
12.3659	0.49
12.403	0.496
12.4401	0.472
12.4772	0.402
12.5143	0.263
12.5513	0.215
12.5884	0.318
12.6255	0.517
12.6626	0.663
12.6997	0.743
12.7368	0.785
12.7739	0.812
12.8109	0.815
12.848	0.821
12.8851	0.819
12.9222	0.801
12.9593	0.768
12.9964	0.711
13.0335	0.604
13.0705	0.456
13.1076	0.349
13.1447	0.399
13.1818	0.549
13.2189	0.661
13.256	0.742
13.2931	0.788
13.3301	0.812
13.3672	0.836
13.4043	0.833
13.4414	0.833
13.4785	0.83
13.5156	0.83
13.5527	0.827
13.5897	0.829
13.6268	0.827
13.6639	0.829
13.701	0.827
13.7381	0.824
13.7752	0.822
13.8123	0.819
13.8493	0.822
13.8864	0.829
13.9235	0.855
13.9606	0.878
13.9977	0.906
14.0348	0.925
14.0719	0.931
14.1089	0.94
14.146	0.947
14.1831	0.956
14.2202	0.958
14.2573	0.956
14.2944	0.961
14.3315	0.961
14.3685	0.948
14.4056	0.95
14.4427	0.94
14.4798	0.922
14.5169	0.923
14.554	0.919
14.5911	0.905
14.6281	0.886
14.6652	0.872
14.7023	0.846
14.7394	0.816
14.7765	0.796
14.8136	0.771
14.8507	0.74
14.8877	0.714
14.9248	0.681
14.9619	0.635
14.999	0.607
15.0361	0.582
15.0732	0.588
15.1103	0.614
15.1473	0.656
15.1844	0.714
15.2215	0.757
15.2586	0.791
15.2957	0.812
15.3328	0.824
15.3699	0.833
15.4069	0.832
15.444	0.829
15.4811	0.813
15.5182	0.809
15.5553	0.802
15.5924	0.798
15.6295	0.795
15.6665	0.788
15.7036	0.759
15.7407	0.756
15.7778	0.759
15.8149	0.737
15.852	0.722
15.8891	0.72
15.9261	0.709
15.9632	0.694
16.0003	0.686
