Infrared Spectrum: VALERIC ACID, 4-HYDROXY-2,2,4-TRIMETHYL, Gamma-LACTONE
Formula: C8 H14 O2
CAS: 4237-83-6
State: SOLID (MELT)
Melting point: 38.5-40 C
Class: COBLENTZ
Instrument: Not specified, most likely a prism, grating, or hybrid spectrometer.
Sampling: TRANSMISSION
Resolution: 4
Origin: TENNESSEE EASTMAN COMPANY, RESEARCH LABORATORIES
MICROMETERS	TRANSMITTANCE
1.993	0.984
2.03398	0.981
2.07495	0.988
2.11593	0.991
2.1569	0.998
2.19788	0.957
2.23885	0.94
2.27983	0.919
2.3208	0.921
2.36178	0.924
2.40276	0.924
2.44373	0.923
2.48471	0.936
2.52568	0.941
2.56666	0.943
2.60763	0.945
2.64861	0.947
2.68958	0.948
2.73056	0.948
2.77153	0.933
2.81251	0.919
2.85349	0.863
2.89446	0.909
2.93544	0.924
2.97641	0.926
3.01739	0.926
3.05836	0.924
3.09934	0.919
3.14031	0.897
3.18129	0.907
3.22227	0.919
3.26324	0.907
3.30422	0.824
3.34519	0.375
3.38617	0.177
3.42714	0.462
3.46812	0.419
3.50909	0.819
3.55007	0.87
3.59105	0.912
3.63202	0.916
3.673	0.916
3.71397	0.928
3.75495	0.933
3.79592	0.936
3.8369	0.943
3.87787	0.943
3.91885	0.945
3.95983	0.948
4.0008	0.948
4.04178	0.943
4.08275	0.928
4.12373	0.94
4.1647	0.945
4.20568	0.938
4.24665	0.938
4.28763	0.938
4.3286	0.935
4.36958	0.936
4.41056	0.928
4.45153	0.943
4.49251	0.948
4.53348	0.93
4.57446	0.935
4.61543	0.95
4.65641	0.953
4.69738	0.955
4.73836	0.959
4.77934	0.96
4.82031	0.962
4.86129	0.964
4.90226	0.955
4.94324	0.96
4.98421	0.96
5.02519	0.962
5.06616	0.962
5.10714	0.96
5.14812	0.957
5.18909	0.953
5.23007	0.936
5.27104	0.94
5.31202	0.938
5.35299	0.918
5.39397	0.88
5.43494	0.822
5.47592	0.824
5.5169	0.747
5.55787	0.592
5.59885	0.168
5.63982	0.058
5.6808	0.039
5.72177	0.131
5.76275	0.389
5.80372	0.58
5.8447	0.716
5.88567	0.786
5.92665	0.817
5.96763	0.829
6.0086	0.848
6.04958	0.865
6.09055	0.868
6.13153	0.899
6.1725	0.911
6.21348	0.921
6.25445	0.931
6.29543	0.93
6.33641	0.914
6.37738	0.909
6.41836	0.899
6.45933	0.909
6.50031	0.873
6.54128	0.841
6.58226	0.749
6.62323	0.771
6.66421	0.819
6.70519	0.766
6.74616	0.638
6.78714	0.363
6.82811	0.259
6.86909	0.324
6.91006	0.496
6.95104	0.639
6.99201	0.694
7.03299	0.762
7.07396	0.798
7.11494	0.755
7.15592	0.609
7.19689	0.216
7.23787	0.298
7.27884	0.197
7.31982	0.5
7.36079	0.694
7.40177	0.81
7.44274	0.824
7.48372	0.81
7.5247	0.771
7.56567	0.713
7.60665	0.672
7.64762	0.546
7.6886	0.276
7.72957	0.196
7.77055	0.127
7.81152	0.098
7.8525	0.08
7.89348	0.075
7.93445	0.153
7.97543	0.373
8.0164	0.472
8.05738	0.383
8.09835	0.182
8.13933	0.138
8.1803	0.208
8.22128	0.339
8.26226	0.397
8.30323	0.288
8.34421	0.344
8.38518	0.288
8.42616	0.17
8.46713	0.165
8.50811	0.349
8.54908	0.498
8.59006	0.571
8.63103	0.621
8.67201	0.651
8.71299	0.667
8.75396	0.651
8.79494	0.631
8.83591	0.605
8.87689	0.552
8.91786	0.438
8.95884	0.288
8.99981	0.15
9.04079	0.063
9.08177	0.046
9.12274	0.049
9.16372	0.107
9.20469	0.221
9.24567	0.366
9.28664	0.506
9.32762	0.609
9.36859	0.682
9.40957	0.73
9.45055	0.757
9.49152	0.773
9.5325	0.784
9.57347	0.795
9.61445	0.802
9.65542	0.805
9.6964	0.808
9.73737	0.81
9.77835	0.8
9.81933	0.786
9.8603	0.788
9.90128	0.791
9.94225	0.795
9.98323	0.798
10.0242	0.8
10.0652	0.788
10.1062	0.754
10.1471	0.682
10.1881	0.602
10.2291	0.568
10.2701	0.607
10.311	0.595
10.352	0.59
10.393	0.612
10.434	0.585
10.4749	0.506
10.5159	0.365
10.5569	0.235
10.5979	0.139
10.6388	0.085
10.6798	0.078
10.7208	0.141
10.7618	0.279
10.8027	0.46
10.8437	0.587
10.8847	0.674
10.9257	0.708
10.9666	0.706
11.0076	0.691
11.0486	0.715
11.0896	0.759
11.1305	0.807
11.1715	0.837
11.2125	0.861
11.2535	0.878
11.2944	0.889
11.3354	0.899
11.3764	0.904
11.4174	0.907
11.4583	0.909
11.4993	0.911
11.5403	0.916
11.5813	0.916
11.6222	0.919
11.6632	0.919
11.7042	0.921
11.7452	0.924
11.7862	0.926
11.8271	0.926
11.8681	0.928
11.9091	0.928
11.9501	0.928
11.991	0.928
12.032	0.924
12.073	0.914
12.114	0.899
12.1549	0.86
12.1959	0.839
12.2369	0.858
12.2779	0.887
12.3188	0.902
12.3598	0.909
12.4008	0.914
12.4418	0.918
12.4827	0.916
12.5237	0.914
12.5647	0.914
12.6057	0.914
12.6466	0.916
12.6876	0.909
12.7286	0.907
12.7696	0.899
12.8105	0.897
12.8515	0.892
12.8925	0.878
12.9335	0.872
12.9744	0.86
13.0154	0.839
13.0564	0.805
13.0974	0.718
13.1383	0.573
13.1793	0.51
13.2203	0.648
13.2613	0.769
13.3022	0.825
13.3432	0.844
13.3842	0.858
13.4252	0.86
13.4661	0.86
13.5071	0.86
13.5481	0.856
13.5891	0.856
13.63	0.854
13.671	0.849
13.712	0.843
13.753	0.836
13.794	0.819
13.8349	0.793
13.8759	0.737
13.9169	0.651
13.9579	0.576
13.9988	0.585
14.0398	0.672
14.0808	0.73
14.1218	0.762
14.1627	0.778
14.2037	0.786
14.2447	0.79
14.2857	0.79
14.3266	0.79
14.3676	0.79
14.4086	0.79
14.4496	0.786
14.4905	0.786
14.5315	0.778
14.5725	0.774
14.6135	0.769
14.6544	0.766
14.6954	0.764
14.7364	0.757
14.7774	0.754
14.8183	0.747
14.8593	0.74
14.9003	0.732
14.9413	0.728
14.9822	0.718
15.0232	0.715
15.0642	0.709
15.1052	0.701
15.1461	0.697
15.1871	0.692
15.2281	0.689
15.2691	0.682
15.31	0.679
15.351	0.679
15.392	0.677
15.433	0.674
15.4739	0.665
15.5149	0.667
15.5559	0.66
15.5969	0.66
15.6378	0.66
15.6788	0.656
15.7198	0.651
15.7608	0.653
15.8018	0.651
15.8427	0.651
15.8837	0.651
15.9247	0.648
15.9657	0.646
