Infrared Spectrum: 5-CHLORO-3-NITRO-o-PHENYLENE DIAMINE
Formula: C6 H6 Cl N3 O2
CAS: 42389-30-0
State: SOLID (MINERAL OIL MULL)
Melting point: 166.5-168 C
Class: COBLENTZ
Instrument: Not specified, most likely a prism, grating, or hybrid spectrometer.
Sampling: TRANSMISSION
Resolution: 4
Origin: WYANDOTTE CHEMICALS CORP., WYANDOTTE, MICHIGAN, USA
MICROMETERS	TRANSMITTANCE
2.025	0.214
2.0622	0.218
2.0994	0.223
2.1366	0.229
2.1738	0.232
2.211	0.237
2.2482	0.246
2.2854	0.243
2.3226	0.25
2.3598	0.256
2.397	0.268
2.4342	0.282
2.4714	0.29
2.5086	0.291
2.5458	0.298
2.583	0.312
2.6202	0.326
2.6574	0.35
2.6946	0.357
2.7318	0.36
2.769	0.366
2.8062	0.386
2.8434	0.402
2.8806	0.378
2.9178	0.307
2.955	0.208
2.9922	0.145
3.0294	0.1
3.0666	0.097
3.1038	0.153
3.141	0.183
3.1782	0.214
3.2154	0.245
3.2526	0.232
3.2898	0.248
3.327	0.145
3.3642	0.027
3.4014	0.02
3.4386	0.021
3.4758	0.023
3.513	0.045
3.5502	0.251
3.5874	0.385
3.6246	0.442
3.6618	0.445
3.699	0.448
3.7362	0.459
3.7734	0.465
3.8106	0.478
3.8478	0.501
3.885	0.517
3.9222	0.534
3.9594	0.549
3.9966	0.565
4.0338	0.568
4.071	0.577
4.1082	0.583
4.1454	0.59
4.1826	0.597
4.2198	0.597
4.257	0.583
4.2942	0.59
4.3314	0.599
4.3686	0.619
4.4058	0.642
4.443	0.649
4.4802	0.65
4.5174	0.663
4.5546	0.67
4.5918	0.681
4.629	0.687
4.6662	0.692
4.7034	0.703
4.7406	0.717
4.7778	0.737
4.815	0.736
4.8522	0.736
4.8894	0.748
4.9266	0.751
4.9638	0.76
5.001	0.771
5.0382	0.779
5.0754	0.791
5.1126	0.802
5.1498	0.809
5.187	0.821
5.2242	0.821
5.2614	0.836
5.2986	0.849
5.3358	0.858
5.373	0.863
5.4102	0.878
5.4474	0.88
5.4846	0.897
5.5218	0.909
5.559	0.914
5.5962	0.92
5.6334	0.927
5.6706	0.913
5.7078	0.914
5.745	0.93
5.7822	0.961
5.8194	0.936
5.8566	0.881
5.8938	0.95
5.931	0.958
5.9682	0.906
6.0054	0.659
6.0426	0.299
6.0798	0.301
6.117	0.392
6.1542	0.352
6.1914	0.413
6.2286	0.513
6.2658	0.579
6.303	0.628
6.3402	0.566
6.3774	0.604
6.4146	0.597
6.4518	0.472
6.489	0.156
6.5262	0.043
6.5634	0.027
6.6006	0.037
6.6378	0.086
6.675	0.155
6.7122	0.195
6.7494	0.145
6.7866	0.048
6.8238	0.04
6.861	0.057
6.8982	0.136
6.9354	0.26
6.9726	0.377
7.0098	0.302
7.047	0.147
7.0842	0.315
7.1214	0.454
7.1586	0.42
7.1958	0.18
7.233	0.031
7.2702	0.08
7.3074	0.184
7.3446	0.305
7.3818	0.268
7.419	0.108
7.4562	0.037
7.4934	0.034
7.5306	0.096
7.5678	0.204
7.605	0.322
7.6422	0.406
7.6794	0.414
7.7166	0.385
7.7538	0.33
7.791	0.236
7.8282	0.124
7.8654	0.04
7.9026	0.024
7.9398	0.037
7.977	0.052
8.0142	0.074
8.0514	0.105
8.0886	0.153
8.1258	0.212
8.163	0.276
8.2002	0.319
8.2374	0.371
8.2746	0.406
8.3118	0.431
8.349	0.462
8.3862	0.487
8.4234	0.507
8.4606	0.515
8.4978	0.527
8.535	0.523
8.5722	0.529
8.6094	0.541
8.6466	0.549
8.6838	0.56
8.721	0.546
8.7582	0.531
8.7954	0.531
8.8326	0.527
8.8698	0.513
8.907	0.486
8.9442	0.459
8.9814	0.43
9.0186	0.422
9.0558	0.436
9.093	0.486
9.1302	0.504
9.1674	0.47
9.2046	0.44
9.2418	0.451
9.279	0.489
9.3162	0.529
9.3534	0.569
9.3906	0.593
9.4278	0.61
9.465	0.628
9.5022	0.642
9.5394	0.65
9.5766	0.658
9.6138	0.669
9.651	0.681
9.6882	0.689
9.7254	0.697
9.7626	0.709
9.7998	0.718
9.837	0.722
9.8742	0.722
9.9114	0.725
9.9486	0.74
9.9858	0.731
10.023	0.732
10.0602	0.737
10.0974	0.737
10.1346	0.736
10.1718	0.729
10.209	0.717
10.2462	0.709
10.2834	0.703
10.3206	0.701
10.3578	0.701
10.395	0.695
10.4322	0.684
10.4694	0.667
10.5066	0.647
10.5438	0.636
10.581	0.633
10.6182	0.659
10.6554	0.69
10.6926	0.698
10.7298	0.703
10.767	0.704
10.8042	0.708
10.8414	0.706
10.8786	0.701
10.9158	0.692
10.953	0.692
10.9902	0.664
11.0274	0.534
11.0646	0.305
11.1018	0.304
11.139	0.389
11.1762	0.437
11.2134	0.431
11.2506	0.371
11.2878	0.285
11.325	0.153
11.3622	0.135
11.3994	0.259
11.4366	0.45
11.4738	0.529
11.511	0.554
11.5482	0.523
11.5854	0.496
11.6226	0.453
11.6598	0.371
11.697	0.274
11.7342	0.145
11.7714	0.076
11.8086	0.119
11.8458	0.194
11.883	0.228
11.9202	0.236
11.9574	0.222
11.9946	0.19
12.0318	0.18
12.069	0.167
12.1062	0.155
12.1434	0.15
12.1806	0.153
12.2178	0.158
12.255	0.167
12.2922	0.184
12.3294	0.201
12.3666	0.228
12.4038	0.263
12.441	0.296
12.4782	0.346
12.5154	0.371
12.5526	0.336
12.5898	0.276
12.627	0.27
12.6642	0.305
12.7014	0.35
12.7386	0.377
12.7758	0.411
12.813	0.439
12.8502	0.453
12.8874	0.456
12.9246	0.464
12.9618	0.44
12.999	0.377
13.0362	0.276
13.0734	0.124
13.1106	0.09
13.1478	0.163
13.185	0.276
13.2222	0.375
13.2594	0.436
13.2966	0.479
13.3338	0.504
13.371	0.532
13.4082	0.54
13.4454	0.552
13.4826	0.529
13.5198	0.51
13.557	0.467
13.5942	0.417
13.6314	0.344
13.6686	0.299
13.7058	0.27
13.743	0.274
13.7802	0.304
13.8174	0.332
13.8546	0.364
13.8918	0.372
13.929	0.363
13.9662	0.336
14.0034	0.322
14.0406	0.354
14.0778	0.397
14.115	0.445
14.1522	0.475
14.1894	0.504
14.2266	0.512
14.2638	0.54
14.301	0.552
14.3382	0.562
14.3754	0.566
14.4126	0.572
14.4498	0.585
14.487	0.583
14.5242	0.586
14.5614	0.59
14.5986	0.59
14.6358	0.59
14.673	0.59
14.7102	0.586
14.7474	0.585
14.7846	0.58
14.8218	0.58
14.859	0.579
14.8962	0.577
14.9334	0.571
14.9706	0.563
15.0078	0.54
15.045	0.512
15.0822	0.486
15.1194	0.489
15.1566	0.503
15.1938	0.521
15.231	0.526
15.2682	0.532
15.3054	0.523
15.3426	0.521
15.3798	0.518
15.417	0.513
15.4542	0.507
15.4914	0.495
15.5286	0.493
15.5658	0.484
15.603	0.479
15.6402	0.478
15.6774	0.472
15.7146	0.459
15.7518	0.454
15.789	0.453
15.8262	0.44
15.8634	0.427
15.9006	0.425
15.9378	0.427
15.975	0.422
