Infrared Spectrum: BENZOIC ACID, Alpha-CYANOBENZYL ESTER
Formula: C15 H11 N O2
CAS: 4242-46-0
State: SOLUTION (10% CCl4 FOR 5000-1330, 10% CS2 FOR 1330-625 CM^-^1)
Class: COBLENTZ
Instrument: Not specified, most likely a prism, grating, or hybrid spectrometer.
Sampling: TRANSMISSION
Path length: 0.0111 CM, 0.0105 CM
Resolution: 4
Origin: DOW CHEMICAL COMPANY
MICROMETERS	TRANSMITTANCE
2.034	0.862
2.0752	0.852
2.1164	0.852
2.15759	0.859
2.19879	0.864
2.23999	0.866
2.28119	0.864
2.32239	0.852
2.36358	0.859
2.40478	0.85
2.44598	0.845
2.48718	0.871
2.52838	0.873
2.56957	0.873
2.61077	0.874
2.65197	0.874
2.69317	0.871
2.73437	0.871
2.77556	0.871
2.81676	0.871
2.85796	0.859
2.89916	0.849
2.94036	0.864
2.98155	0.867
3.02275	0.871
3.06395	0.871
3.10515	0.866
3.14635	0.866
3.18754	0.847
3.22874	0.756
3.26994	0.696
3.31114	0.783
3.35234	0.84
3.39353	0.799
3.43473	0.855
3.47593	0.874
3.51713	0.879
3.55833	0.895
3.59952	0.893
3.64072	0.891
3.68192	0.893
3.72312	0.893
3.76432	0.89
3.80551	0.89
3.84671	0.89
3.88791	0.893
3.92911	0.893
3.97031	0.891
4.01151	0.893
4.0527	0.897
4.0939	0.902
4.1351	0.902
4.1763	0.9
4.2175	0.902
4.25869	0.895
4.29989	0.89
4.34109	0.891
4.38229	0.893
4.42349	0.893
4.46468	0.9
4.50588	0.903
4.54708	0.903
4.58828	0.902
4.62948	0.9
4.67067	0.9
4.71187	0.9
4.75307	0.902
4.79427	0.898
4.83547	0.891
4.87666	0.89
4.91786	0.891
4.95906	0.893
5.00026	0.879
5.04146	0.843
5.08265	0.835
5.12385	0.854
5.16505	0.871
5.20625	0.843
5.24745	0.843
5.28864	0.861
5.32984	0.869
5.37104	0.873
5.41224	0.862
5.45344	0.83
5.49463	0.809
5.53583	0.811
5.57703	0.814
5.61823	0.761
5.65943	0.632
5.70062	0.396
5.74182	0.056
5.78302	0.07
5.82422	0.461
5.86542	0.751
5.90661	0.782
5.94781	0.816
5.98901	0.835
6.03021	0.84
6.07141	0.83
6.1126	0.83
6.1538	0.797
6.195	0.636
6.2362	0.495
6.2774	0.548
6.31859	0.564
6.35979	0.569
6.40099	0.519
6.44219	0.475
6.48339	0.512
6.52458	0.6
6.56578	0.641
6.60698	0.672
6.64818	0.615
6.68938	0.596
6.73057	0.806
6.77177	0.814
6.81297	0.679
6.85417	0.449
6.89537	0.787
6.93656	0.849
6.97776	0.85
7.01896	0.855
7.06016	0.861
7.10136	0.857
7.14255	0.831
7.18375	0.821
7.22495	0.838
7.26615	0.842
7.30735	0.833
7.34854	0.797
7.38974	0.708
7.43094	0.639
7.47214	0.596
7.51334	0.499
7.55454	0.325
7.59573	0.248
7.63693	0.334
7.67813	0.445
7.71933	0.475
7.76053	0.416
7.80172	0.355
7.84292	0.315
7.88412	0.231
7.92532	0.07
7.96652	0.005
8.00771	0.013
8.04891	0.022
8.09011	0.145
8.13131	0.439
8.17251	0.641
8.2137	0.701
8.2549	0.71
8.2961	0.672
8.3373	0.545
8.3785	0.492
8.41969	0.56
8.46089	0.389
8.50209	0.391
8.54329	0.65
8.58449	0.668
8.62568	0.672
8.66688	0.699
8.70808	0.701
8.74928	0.701
8.79048	0.704
8.83167	0.698
8.87287	0.684
8.91407	0.653
8.95527	0.602
8.99647	0.511
9.03766	0.36
9.07886	0.173
9.12006	0.138
9.16126	0.099
9.20246	0.013
9.24365	0.017
9.28485	0.096
9.32605	0.217
9.36725	0.094
9.40845	0.032
9.44964	0.255
9.49084	0.53
9.53204	0.638
9.57324	0.684
9.61444	0.692
9.65563	0.634
9.69683	0.464
9.73803	0.149
9.77923	0.245
9.82043	0.56
9.86162	0.607
9.90282	0.559
9.94402	0.499
9.98522	0.485
10.0264	0.389
10.0676	0.348
10.1088	0.389
10.15	0.466
10.1912	0.543
10.2324	0.583
10.2736	0.602
10.3148	0.608
10.356	0.591
10.3972	0.554
10.4384	0.528
10.4796	0.53
10.5208	0.533
10.562	0.511
10.6032	0.499
10.6444	0.547
10.6856	0.581
10.7268	0.624
10.768	0.679
10.8092	0.677
10.8504	0.627
10.8916	0.581
10.9328	0.583
10.974	0.644
11.0152	0.703
11.0564	0.723
11.0976	0.728
11.1388	0.71
11.18	0.67
11.2212	0.634
11.2624	0.627
11.3036	0.643
11.3448	0.653
11.386	0.663
11.4271	0.667
11.4683	0.663
11.5095	0.655
11.5507	0.641
11.5919	0.631
11.6331	0.624
11.6743	0.622
11.7155	0.629
11.7567	0.643
11.7979	0.665
11.8391	0.689
11.8803	0.708
11.9215	0.73
11.9627	0.749
12.0039	0.77
12.0451	0.777
12.0863	0.783
12.1275	0.787
12.1687	0.783
12.2099	0.778
12.2511	0.766
12.2923	0.754
12.3335	0.749
12.3747	0.746
12.4159	0.739
12.4571	0.716
12.4983	0.684
12.5395	0.689
12.5807	0.722
12.6219	0.747
12.6631	0.753
12.7043	0.758
12.7455	0.759
12.7867	0.759
12.8279	0.756
12.8691	0.749
12.9103	0.734
12.9515	0.718
12.9927	0.687
13.0339	0.629
13.0751	0.54
13.1163	0.435
13.1575	0.315
13.1987	0.25
13.2399	0.248
13.2811	0.293
13.3223	0.344
13.3635	0.382
13.4047	0.403
13.4459	0.408
13.4871	0.409
13.5282	0.437
13.5694	0.481
13.6106	0.543
13.6518	0.569
13.693	0.579
13.7342	0.578
13.7754	0.567
13.8166	0.538
13.8578	0.499
13.899	0.433
13.9402	0.308
13.9814	0.197
14.0226	0.072
14.0638	0.01
14.105	0
14.1462	0.012
14.1874	0.053
14.2286	0.101
14.2698	0.132
14.311	0.137
14.3522	0.087
14.3934	0.061
14.4346	0.078
14.4758	0.132
14.517	0.193
14.5582	0.24
14.5994	0.257
14.6406	0.288
14.6818	0.325
14.723	0.367
14.7642	0.394
14.8054	0.404
14.8466	0.411
14.8878	0.421
14.929	0.432
14.9702	0.444
15.0114	0.456
15.0526	0.459
15.0938	0.459
15.135	0.457
15.1762	0.452
15.2174	0.447
15.2586	0.439
15.2998	0.433
15.341	0.432
15.3822	0.428
15.4234	0.425
15.4646	0.42
15.5058	0.409
15.547	0.397
15.5881	0.389
15.6293	0.379
15.6705	0.375
15.7117	0.375
15.7529	0.377
15.7941	0.379
15.8353	0.38
15.8765	0.382
15.9177	0.38
