Infrared Spectrum: o-CRESOL, 4-(1-METHYLHEXYL)-
Formula: C14 H22 O
CAS: 42433-61-4
State: SOLUTION (10% CCl4 FOR 3800-1330, 10% CS2 FOR 1330-450 CM^-^1)
Boiling point: 144-145 C
Class: COBLENTZ III
Instrument: DOW KBr FOREPRISM-GRATING
Instrument parameters: BLAZED AT 3.5, 12.0, 20.0 MICRON AND CHANGED AT 5.0, 7.5, 14.9 MICRON
Sampling: TRANSMISSION
Path length: 0.012 CM, 0.012 CM
Resolution: 2
Origin: DOW CHEMICAL COMPANY
1/CM	TRANSMITTANCE
450.733	0.855
459.531	0.86
468.328	0.862
477.126	0.865
485.924	0.877
494.721	0.884
503.519	0.892
512.317	0.899
521.114	0.903
529.912	0.903
538.71	0.902
547.507	0.892
556.305	0.863
565.103	0.911
573.9	0.918
582.698	0.915
591.495	0.929
600.293	0.899
609.091	0.874
617.888	0.943
626.686	0.955
635.484	0.933
644.281	0.903
653.079	0.889
661.877	0.932
670.674	0.906
679.472	0.931
688.27	0.9
697.067	0.913
705.865	0.933
714.663	0.9
723.46	0.841
732.258	0.797
741.056	0.2961
749.853	0.665
758.651	0.768
767.449	0.625
776.246	0.472
785.044	0.834
793.842	0.892
802.639	0.822
811.437	0.621
820.235	0.56
829.032	0.723
837.83	0.83
846.627	0.774
855.425	0.716
864.223	0.75
873.02	0.778
881.818	0.719
890.616	0.849
899.413	0.889
908.211	0.911
917.009	0.889
925.806	0.892
934.604	0.911
943.402	0.907
952.199	0.9
960.997	0.936
969.795	0.946
978.592	0.935
987.39	0.869
996.188	0.819
1004.99	0.88
1013.78	0.898
1022.58	0.889
1031.38	0.837
1040.18	0.863
1048.97	0.881
1057.77	0.859
1066.57	0.8
1075.37	0.739
1084.16	0.749
1092.96	0.701
1101.76	0.461
1110.56	0.509
1119.35	0.632
1128.15	0.76
1136.95	0.695
1145.75	0.674
1154.55	0.589
1163.34	0.454
1172.14	0.385
1180.94	0.181
1189.74	0.133
1198.53	0.243
1207.33	0.512
1216.13	0.582
1224.93	0.617
1233.72	0.692
1242.52	0.69
1251.32	0.468
1260.12	0.23
1268.91	0.55
1277.71	0.658
1286.51	0.695
1295.31	0.694
1304.11	0.651
1312.9	0.556
1321.7	0.502
1330.5	0.596
1339.3	0.668
1348.09	0.698
1356.89	0.719
1365.69	0.724
1374.49	0.549
1383.28	0.692
1392.08	0.837
1400.88	0.851
1409.68	0.801
1418.48	0.654
1427.27	0.589
1436.07	0.388
1444.87	0.395
1453.67	0.172
1462.46	0.104
1471.26	0.268
1480.06	0.446
1488.86	0.566
1497.65	0.483
1506.45	0.207
1515.25	0.497
1524.05	0.584
1532.84	0.55
1541.64	0.479
1550.44	0.458
1559.24	0.516
1568.04	0.588
1576.83	0.577
1585.63	0.549
1594.43	0.477
1603.23	0.706
1612.02	0.701
1620.82	0.816
1629.62	0.87
1638.42	0.891
1647.21	0.911
1656.01	0.904
1664.81	0.913
1673.61	0.92
1682.4	0.933
1691.2	0.935
1700	0.933
1708.8	0.932
1717.6	0.924
1726.39	0.933
1735.19	0.938
1743.99	0.933
1752.79	0.935
1761.58	0.936
1770.38	0.944
1779.18	0.944
1787.98	0.938
1796.77	0.95
1805.57	0.949
1814.37	0.954
1823.17	0.954
1831.96	0.954
1840.76	0.931
1849.56	0.91
1858.36	0.936
1867.16	0.944
1875.95	0.946
1884.75	0.957
1893.55	0.955
1902.35	0.931
1911.14	0.942
1919.94	0.955
1928.74	0.961
1937.54	0.964
1946.33	0.964
1955.13	0.965
1963.93	0.965
1972.73	0.968
1981.52	0.966
1990.32	0.971
1999.12	0.975
2007.92	0.979
2016.72	0.982
2025.51	0.983
2034.31	0.984
2043.11	0.985
2051.91	0.99
2060.7	0.99
2069.5	0.99
2078.3	0.993
2087.1	0.993
2095.89	0.993
2104.69	0.995
2113.49	0.995
2122.29	0.995
2131.09	0.994
2139.88	0.993
2148.68	0.993
2157.48	0.994
2166.28	0.994
2175.07	0.9935
2183.87	0.991
2192.67	0.994
2201.47	0.994
2210.26	0.994
2219.06	0.993
2227.86	0.991
2236.66	0.988
2245.45	0.9849
2254.25	0.9809
2263.05	0.9754
2271.85	0.968
2280.65	0.9654
2289.44	0.964
2298.24	0.9656
2307.04	0.9701
2315.84	0.973
2324.63	0.976
2333.43	0.977
2342.23	0.979
2351.03	0.979
2359.82	0.979
2368.62	0.976
2377.42	0.9766
2386.22	0.977
2395.01	0.977
2403.81	0.977
2412.61	0.977
2421.41	0.977
2430.21	0.977
2439	0.977
2447.8	0.976
2456.6	0.976
2465.4	0.976
2474.19	0.9796
2482.99	0.982
2491.79	0.982
2500.59	0.9808
2509.38	0.979
2518.18	0.977
2526.98	0.977
2535.78	0.977
2544.57	0.977
2553.37	0.976
2562.17	0.975
2570.97	0.972
2579.77	0.971
2588.56	0.971
2597.36	0.968
2606.16	0.966
2614.96	0.966
2623.75	0.9621
2632.55	0.957
2641.35	0.955
2650.15	0.955
2658.94	0.9503
2667.74	0.946
2676.54	0.9497
2685.34	0.9533
2694.14	0.953
2702.93	0.9493
2711.73	0.941
2720.53	0.9297
2729.33	0.9003
2738.12	0.907
2746.92	0.934
2755.72	0.94
2764.52	0.94
2773.31	0.934
2782.11	0.9193
2790.91	0.9013
2799.71	0.8816
2808.5	0.8539
2817.3	0.8159
2826.1	0.7513
2834.9	0.6335
2843.7	0.3806
2852.49	0.1089
2861.29	0.158
2870.09	0.1192
2878.89	0.2986
2887.68	0.3003
2896.48	0.1912
2905.28	0.1108
2914.08	0.0501
2922.87	0.0163
2931.67	0.0255
2940.47	0.0752
2949.27	0.05
2958.06	0.012
2966.86	0.0428
2975.66	0.2491
2984.46	0.4894
2993.26	0.647
3002.05	0.6931
3010.85	0.6614
3019.65	0.6378
3028.45	0.63
3037.24	0.6885
3046.04	0.6913
3054.84	0.7455
3063.64	0.7672
3072.43	0.8073
3081.23	0.8508
3090.03	0.8878
3098.83	0.9023
3107.62	0.926
3116.42	0.9328
3125.22	0.9375
3134.02	0.942
3142.82	0.9438
3151.61	0.9437
3160.41	0.94
3169.21	0.9392
3178.01	0.9322
3186.8	0.932
3195.6	0.9328
3204.4	0.933
3213.2	0.932
3221.99	0.9312
3230.79	0.9264
3239.59	0.928
3248.39	0.9224
3257.18	0.918
3265.98	0.9142
3274.78	0.9102
3283.58	0.9044
3292.38	0.8966
3301.17	0.893
3309.97	0.8872
3318.77	0.8772
3327.57	0.874
3336.36	0.8674
3345.16	0.8622
3353.96	0.8534
3362.76	0.8472
3371.55	0.8402
3380.35	0.8315
3389.15	0.8233
3397.95	0.8152
3406.75	0.8072
3415.54	0.7972
3424.34	0.7892
3433.14	0.7803
3441.94	0.7695
3450.73	0.7605
3459.53	0.7478
3468.33	0.742
3477.13	0.7393
3485.92	0.738
3494.72	0.741
3503.52	0.7469
3512.32	0.749
3521.11	0.7433
3529.91	0.742
3538.71	0.7469
3547.51	0.7666
3556.31	0.771
3565.1	0.7655
3573.9	0.7314
3582.7	0.6563
3591.5	0.5261
3600.29	0.2526
3609.09	0.1399
3617.89	0.4746
3626.69	0.7941
3635.48	0.9184
3644.28	0.9488
3653.08	0.9549
3661.88	0.9598
3670.67	0.961
3679.47	0.966
3688.27	0.9708
3697.07	0.9818
3705.87	0.9869
3714.66	0.9909
3723.46	0.9949
3732.26	0.995
3741.06	0.995
3749.85	0.995
3758.65	0.994
3767.45	0.994
3776.25	0.993
3785.04	0.993
3793.84	0.993
