Infrared Spectrum: KETONE, 5-CHLORO-4-NITRO-2-THIENYL METHYL
Formula: C6 H4 Cl N O3 S
CAS: 42456-75-7
State: SOLID (PELLET)
Class: COBLENTZ
Instrument: Not specified, most likely a prism, grating, or hybrid spectrometer.
Sampling: TRANSMISSION
Resolution: 4
Origin: TENNESSEE EASTMAN COMPANY, RESEARCH LABORATORIES
MICROMETERS	TRANSMITTANCE
2.028	0.571
2.06795	0.571
2.10789	0.571
2.14784	0.58
2.18779	0.598
2.22774	0.605
2.26768	0.613
2.30763	0.623
2.34758	0.631
2.38753	0.635
2.42747	0.646
2.46742	0.653
2.50737	0.671
2.54732	0.678
2.58726	0.686
2.62721	0.698
2.66716	0.701
2.70711	0.715
2.74705	0.723
2.787	0.726
2.82695	0.73
2.8669	0.731
2.90684	0.733
2.94679	0.736
2.98674	0.741
3.02669	0.746
3.06663	0.753
3.10658	0.771
3.14653	0.783
3.18648	0.786
3.22642	0.735
3.26637	0.62
3.30632	0.776
3.34627	0.781
3.38621	0.798
3.42616	0.793
3.46611	0.795
3.50606	0.8
3.546	0.821
3.58595	0.833
3.6259	0.848
3.66585	0.853
3.70579	0.861
3.74574	0.861
3.78569	0.871
3.82564	0.88
3.86558	0.883
3.90553	0.883
3.94548	0.891
3.98543	0.9
4.02537	0.901
4.06532	0.91
4.10527	0.908
4.14522	0.913
4.18516	0.918
4.22511	0.928
4.26506	0.956
4.30501	0.958
4.34495	0.946
4.3849	0.938
4.42485	0.95
4.4648	0.955
4.50474	0.956
4.54469	0.958
4.58464	0.961
4.62459	0.966
4.66453	0.966
4.70448	0.968
4.74443	0.968
4.78438	0.968
4.82432	0.983
4.86427	0.983
4.90422	0.983
4.94417	0.983
4.98411	0.985
5.02406	1
5.06401	0.981
5.10396	0.985
5.1439	0.988
5.18385	0.99
5.2238	0.99
5.26375	0.991
5.30369	0.991
5.34364	0.988
5.38359	0.98
5.42354	0.983
5.46348	0.986
5.50343	0.986
5.54338	0.988
5.58333	0.985
5.62327	0.985
5.66322	0.976
5.70317	0.961
5.74312	0.943
5.78306	0.941
5.82301	0.94
5.86296	0.888
5.9029	0.653
5.94285	0.418
5.9828	0.083
6.02275	0.31
6.06269	0.685
6.10264	0.821
6.14259	0.851
6.18254	0.88
6.22248	0.888
6.26243	0.88
6.30238	0.871
6.34233	0.835
6.38227	0.743
6.42222	0.346
6.46217	0.121
6.50212	0.138
6.54206	0.081
6.58201	0.15
6.62196	0.398
6.66191	0.636
6.70185	0.775
6.7418	0.831
6.78175	0.846
6.8217	0.851
6.86164	0.813
6.90159	0.56
6.94154	0.47
6.98149	0.603
7.02143	0.656
7.06138	0.795
7.10133	0.828
7.14128	0.82
7.18122	0.673
7.22117	0.431
7.26112	0.226
7.30107	0.126
7.34101	0.16
7.38096	0.4
7.42091	0.616
7.46086	0.551
7.5008	0.23
7.54075	0.188
7.5807	0.4
7.62065	0.336
7.66059	0.415
7.70054	0.621
7.74049	0.741
7.78044	0.791
7.82038	0.698
7.86033	0.278
7.90028	0.063
7.94023	0.276
7.98017	0.611
8.02012	0.783
8.06007	0.84
8.10002	0.855
8.13996	0.87
8.17991	0.853
8.21986	0.916
8.25981	0.948
8.29975	0.963
8.3397	0.985
8.37965	0.99
8.4196	0.993
8.45954	0.94
8.49949	0.763
8.53944	0.598
8.57939	0.56
8.61933	0.633
8.65928	0.783
8.69923	0.875
8.73918	0.92
8.77912	0.93
8.81907	0.96
8.85902	0.973
8.89897	0.981
8.93891	0.996
8.97886	1.008
9.01881	1.008
9.05876	1.011
9.0987	1.02
9.13865	1.011
9.1786	1.001
9.21855	0.971
9.25849	0.945
9.29844	0.941
9.33839	0.883
9.37834	0.661
9.41828	0.548
9.45823	0.703
9.49818	0.825
9.53813	0.855
9.57807	0.841
9.61802	0.671
9.65797	0.63
9.69791	0.738
9.73786	0.808
9.77781	0.783
9.81776	0.806
9.8577	0.898
9.89765	0.956
9.9376	0.97
9.97755	0.98
10.0175	1
10.0574	1.001
10.0974	1.001
10.1373	1.001
10.1773	1.01
10.2172	1.01
10.2572	0.995
10.2971	0.988
10.3371	0.998
10.377	1.001
10.417	0.99
10.4569	0.983
10.4969	0.983
10.5368	0.941
10.5768	0.821
10.6167	0.785
10.6567	0.861
10.6966	0.921
10.7365	0.921
10.7765	0.811
10.8164	0.806
10.8564	0.926
10.8963	0.973
10.9363	0.981
10.9762	0.993
11.0162	1.008
11.0561	1.01
11.0961	0.991
11.136	0.986
11.176	0.988
11.2159	0.988
11.2559	0.963
11.2958	0.93
11.3358	0.861
11.3757	0.833
11.4157	0.835
11.4556	0.791
11.4956	0.775
11.5355	0.81
11.5754	0.82
11.6154	0.823
11.6553	0.823
11.6953	0.821
11.7352	0.846
11.7752	0.9
11.8151	0.963
11.8551	0.975
11.895	0.983
11.935	0.993
11.9749	1.013
12.0149	1.013
12.0548	1.005
12.0948	0.983
12.1347	0.981
12.1747	0.981
12.2146	0.971
12.2546	0.963
12.2945	0.97
12.3344	0.973
12.3744	0.975
12.4143	0.985
12.4543	0.996
12.4942	0.996
12.5342	0.986
12.5741	0.981
12.6141	0.983
12.654	0.983
12.694	0.968
12.7339	0.888
12.7739	0.626
12.8138	0.295
12.8538	0.381
12.8937	0.716
12.9337	0.866
12.9736	0.908
13.0136	0.916
13.0535	0.925
13.0935	0.926
13.1334	0.87
13.1733	0.685
13.2133	0.548
13.2532	0.603
13.2932	0.735
13.3331	0.853
13.3731	0.928
13.413	0.966
13.453	0.981
13.4929	0.985
13.5329	0.985
13.5728	0.985
13.6128	0.988
13.6527	0.986
13.6927	0.97
13.7326	0.966
13.7726	0.966
13.8125	0.975
13.8525	0.98
13.8924	0.978
13.9323	0.961
13.9723	0.961
14.0122	0.965
14.0522	0.973
14.0921	0.991
14.1321	1.006
14.172	1.02
14.212	1.021
14.2519	1.003
14.2919	1
14.3318	1
14.3718	1
14.4117	1
14.4517	1
14.4916	1
14.5316	1
14.5715	1
14.6115	1.001
14.6514	1.005
14.6913	1.003
14.7313	1.003
14.7712	1.003
14.8112	1.003
14.8511	1.003
14.8911	1.003
14.931	0.998
14.971	0.98
15.0109	0.98
15.0509	0.983
15.0908	0.983
15.1308	0.975
15.1707	0.963
15.2107	0.961
15.2506	0.96
15.2906	0.96
15.3305	0.96
15.3705	0.961
15.4104	0.96
15.4504	0.958
15.4903	0.951
15.5302	0.948
15.5702	0.946
15.6101	0.945
15.6501	0.943
15.69	0.941
15.73	0.931
15.7699	0.911
15.8099	0.898
15.8498	0.881
15.8898	0.875
15.9297	0.86
15.9697	0.851
