Infrared Spectrum: Inden-1-ol, 1,2,3-triphenyl-
Formula: C27 H20 O
CAS: 42454-94-4
State: SOLUTION (5% CCl4 FOR 3800-1330, 5% CS2 FOR 1330-460 CM^-^1)
Melting point: 137 C
Class: COBLENTZ III
Instrument: DOW KBr FOREPRISM-GRATING
Instrument parameters: BLAZED AT 3.5, 12.0, 20.0 MICRON AND CHANGED AT 5.0, 7.5, 14.9 MICRON
Sampling: TRANSMISSION
Path length: 0.011 CM, 0.011 CM
Resolution: 2
Origin: DOW CHEMICAL COMPANY
1/CM	TRANSMITTANCE
458	0.74
467	0.747
476	0.7515
485	0.7546
494	0.7431
503	0.7516
512	0.7721
521	0.7907
530	0.7947
539	0.7887
548	0.6329
557	0.7969
566	0.8107
575	0.8109
584	0.7956
593	0.6004
602	0.8071
611	0.7522
620	0.7589
629	0.7896
638	0.7933
647	0.7606
656	0.7532
665	0.7293
674	0.778
683	0.7462
692	0.5148
701	0.1269
710	0.6813
719	0.7924
728	0.7903
737	0.6903
746	0.3356
755	0.2437
764	0.5137
773	0.7852
782	0.7698
791	0.8134
800	0.812
809	0.7954
818	0.8374
827	0.8292
836	0.7903
845	0.7411
854	0.7002
863	0.7181
872	0.7444
881	0.7837
890	0.8096
899	0.8023
908	0.7764
917	0.7369
926	0.594
935	0.7652
944	0.7582
953	0.8313
962	0.8266
971	0.835
980	0.8329
989	0.8414
998	0.8124
1007	0.8073
1016	0.7253
1025	0.6337
1034	0.6109
1043	0.6345
1052	0.7834
1061	0.7231
1070	0.765
1079	0.765
1088	0.8369
1097	0.8409
1106	0.8043
1115	0.7846
1124	0.8313
1133	0.8356
1142	0.8084
1151	0.7537
1160	0.624
1169	0.6565
1178	0.7014
1187	0.7631
1196	0.8086
1205	0.831
1214	0.8403
1223	0.843
1232	0.8406
1241	0.8284
1250	0.8277
1259	0.8175
1268	0.7919
1277	0.7788
1286	0.7616
1295	0.7751
1304	0.7789
1313	0.7624
1322	0.7279
1331	0.6975
1340	0.7233
1349	0.7403
1358	0.7594
1367	0.7981
1376	0.8034
1385	0.8011
1394	0.8197
1403	0.8262
1412	0.8172
1421	0.8158
1430	0.8099
1439	0.7539
1448	0.4923
1457	0.6906
1466	0.7089
1475	0.7291
1484	0.6722
1493	0.4779
1502	0.6618
1511	0.676
1520	0.6385
1529	0.5875
1538	0.5341
1547	0.4309
1556	0.4625
1565	0.5307
1574	0.5641
1583	0.5788
1592	0.5957
1601	0.5661
1610	0.7359
1619	0.7943
1628	0.8162
1637	0.8355
1646	0.8433
1655	0.8413
1664	0.8351
1673	0.839
1682	0.8388
1691	0.8329
1700	0.8191
1709	0.7749
1718	0.7566
1727	0.8127
1736	0.8271
1745	0.8202
1754	0.8147
1763	0.8147
1772	0.8205
1781	0.8303
1790	0.8293
1799	0.8145
1808	0.8031
1817	0.8203
1826	0.8292
1835	0.8307
1844	0.8293
1853	0.8346
1862	0.8329
1871	0.8195
1880	0.8147
1889	0.8177
1898	0.8233
1907	0.8301
1916	0.834
1925	0.8422
1934	0.8336
1943	0.7887
1952	0.8104
1961	0.8178
1970	0.8384
1979	0.8458
1988	0.8438
1997	0.838
2006	0.841
2015	0.8441
2024	0.8451
2033	0.8449
2042	0.8445
2051	0.8442
2060	0.8442
2069	0.8442
2078	0.8445
2087	0.8448
2096	0.8453
2105	0.8456
2114	0.8461
2123	0.8465
2132	0.8469
2141	0.8471
2150	0.8474
2159	0.8477
2168	0.848
2177	0.8479
2186	0.8478
2195	0.8476
2204	0.8474
2213	0.847
2222	0.8464
2231	0.8456
2240	0.8439
2249	0.8411
2258	0.8382
2267	0.8345
2276	0.8311
2285	0.8298
2294	0.8295
2303	0.8306
2312	0.8329
2321	0.8365
2330	0.8393
2339	0.8399
2348	0.8424
2357	0.848
2366	0.8506
2375	0.8514
2384	0.852
2393	0.8525
2402	0.8531
2411	0.8538
2420	0.8545
2429	0.8551
2438	0.8556
2447	0.8558
2456	0.8561
2465	0.8564
2474	0.8567
2483	0.8567
2492	0.8563
2501	0.8558
2510	0.8554
2519	0.8548
2528	0.8543
2537	0.8536
2546	0.8534
2555	0.8536
2564	0.8538
2573	0.8539
2582	0.8532
2591	0.8525
2600	0.8523
2609	0.8519
2618	0.8523
2627	0.8527
2636	0.8533
2645	0.8538
2654	0.8543
2663	0.8548
2672	0.8553
2681	0.8558
2690	0.8564
2699	0.8568
2708	0.8568
2717	0.8568
2726	0.8567
2735	0.8565
2744	0.8564
2753	0.8559
2762	0.8556
2771	0.8553
2780	0.8552
2789	0.8551
2798	0.855
2807	0.8549
2816	0.8548
2825	0.8548
2834	0.854
2843	0.8529
2852	0.8517
2861	0.85
2870	0.8482
2879	0.8459
2888	0.8433
2897	0.8407
2906	0.8378
2915	0.8344
2924	0.8329
2933	0.837
2942	0.8409
2951	0.8406
2960	0.8392
2969	0.8358
2978	0.8321
2987	0.8251
2996	0.817
3005	0.8038
3014	0.7751
3023	0.6601
3032	0.6747
3041	0.7069
3050	0.6687
3059	0.6021
3068	0.6113
3077	0.6747
3086	0.6896
3095	0.7753
3104	0.8212
3113	0.8405
3122	0.8503
3131	0.8503
3140	0.8498
3149	0.8539
3158	0.8566
3167	0.8572
3176	0.8579
3185	0.8587
3194	0.8594
3203	0.8601
3212	0.8609
3221	0.8622
3230	0.8636
3239	0.865
3248	0.8658
3257	0.8665
3266	0.8673
3275	0.8678
3284	0.8683
3293	0.8687
3302	0.8693
3311	0.8696
3320	0.8695
3329	0.8694
3338	0.8692
3347	0.8689
3356	0.8686
3365	0.8678
3374	0.8671
3383	0.8663
3392	0.865
3401	0.8637
3410	0.8615
3419	0.859
3428	0.857
3437	0.8554
3446	0.8543
3455	0.8541
3464	0.8549
3473	0.8569
3482	0.8582
3491	0.8584
3500	0.8568
3509	0.8516
3518	0.8445
3527	0.8371
3536	0.8291
3545	0.825
3554	0.8235
3563	0.8142
3572	0.7982
3581	0.7608
3590	0.6347
3599	0.6432
3608	0.8396
3617	0.861
3626	0.8666
3635	0.8694
3644	0.8717
3653	0.8741
3662	0.8772
3671	0.8766
3680	0.8749
3689	0.8739
3698	0.8767
3707	0.8805
3716	0.8828
3725	0.8836
3734	0.8838
3743	0.8838
3752	0.8837
3761	0.8835
3770	0.8836
3779	0.8841
3788	0.8849
3797	0.8858
