Infrared Spectrum: 5-HYDROXY-2-NITRO-BENZALDEHYDE
Formula: C7 H5 N O4
CAS: 42454-06-8
State: SOLID (SPLIT MULL), FLUOROLUBE FOR 3800-1330 CM^-^1, NUJOL FOR 1330-400 CM^-^1
Melting point: 167 C
Class: COBLENTZ III
Instrument: BECKMAN IR-9 (GRATING)
Instrument parameters: ORDER CHANGES: 670, 1200, 2000 CM^-^1
Sampling: TRANSMISSION
Resolution: 2
Origin: DOW CHEMICAL COMPANY
1/CM	TRANSMITTANCE
404.415	0.668
413.245	0.676
422.075	0.686
430.905	0.546
439.735	0.763
448.565	0.789
457.395	0.867
466.225	0.882
475.055	0.94
483.885	0.954
492.715	0.962
501.546	0.966
510.376	0.973
519.206	0.982
528.036	0.984
536.866	0.983
545.696	0.962
554.526	0.962
563.356	0.982
572.186	0.983
581.016	0.983
589.846	0.979
598.676	0.948
607.506	0.619
616.336	0.9
625.166	0.964
633.996	0.966
642.826	0.952
651.656	0.929
660.486	0.887
669.316	0.598
678.147	0.745
686.977	0.746
695.807	0.85
704.637	0.847
713.467	0.777
722.297	0.654
731.127	0.645
739.957	0.526
748.787	0.262
757.617	0.58
766.447	0.677
775.277	0.757
784.107	0.733
792.937	0.716
801.767	0.728
810.597	0.769
819.427	0.803
828.257	0.829
837.087	0.318
845.917	0.6409
854.748	0.6211
863.578	0.864
872.408	0.897
881.238	0.907
890.068	0.896
898.898	0.901
907.728	0.896
916.558	0.6079
925.388	0.886
934.218	0.912
943.048	0.914
951.878	0.907
960.708	0.886
969.538	0.796
978.368	0.553
987.198	0.7921
996.028	0.894
1004.86	0.773
1013.69	0.85
1022.52	0.894
1031.35	0.886
1040.18	0.874
1049.01	0.863
1057.84	0.836
1066.67	0.73
1075.5	0.253
1084.33	0.78
1093.16	0.845
1101.99	0.858
1110.82	0.858
1119.65	0.832
1128.48	0.792
1137.31	0.769
1146.14	0.728
1154.97	0.665
1163.8	0.5419
1172.63	0.2041
1181.46	0.695
1190.29	0.701
1199.12	0.636
1207.95	0.567
1216.78	0.4279
1225.61	0.177
1234.44	0.067
1243.27	0.572
1252.1	0.69
1260.93	0.661
1269.76	0.594
1278.59	0.466
1287.42	0.383
1296.25	0.261
1305.08	0.071
1313.91	0.015
1322.74	0.103
1331.57	0.033
1340.4	0.1301
1349.23	0.373
1358.06	0.3179
1366.89	0.309
1375.72	0.557
1384.55	0.65
1393.38	0.641
1402.21	0.503
1411.04	0.514
1419.87	0.607
1428.7	0.571
1437.53	0.546
1446.36	0.579
1455.19	0.52
1464.02	0.438
1472.85	0.467
1481.68	0.4768
1490.51	0.5721
1499.34	0.593
1508.17	0.499
1517	0.255
1525.83	0.084
1534.66	0.3222
1543.49	0.562
1552.32	0.596
1561.15	0.543
1569.98	0.3119
1578.81	0.073
1587.64	0.0562
1596.47	0.449
1605.3	0.551
1614.13	0.508
1622.96	0.634
1631.79	0.665
1640.62	0.637
1649.45	0.583
1658.28	0.4429
1667.11	0.1679
1675.94	0.0691
1684.77	0.3784
1693.6	0.7281
1702.43	0.825
1711.26	0.875
1720.09	0.879
1728.92	0.914
1737.75	0.933
1746.58	0.939
1755.41	0.939
1764.24	0.934
1773.07	0.933
1781.9	0.937
1790.73	0.93
1799.56	0.921
1808.39	0.912
1817.22	0.914
1826.05	0.896
1834.88	0.893
1843.71	0.911
1852.54	0.907
1861.37	0.904
1870.2	0.904
1879.03	0.892
1887.86	0.886
1896.69	0.893
1905.52	0.883
1914.35	0.875
1923.18	0.856
1932.01	0.84
1940.84	0.869
1949.67	0.871
1958.5	0.871
1967.33	0.871
1976.16	0.867
1984.99	0.864
1993.82	0.858
2002.65	0.8465
2011.48	0.853
2020.31	0.854
2029.14	0.854
2037.97	0.852
2046.8	0.8455
2055.63	0.837
2064.46	0.8345
2073.29	0.834
2082.12	0.8315
2090.95	0.8285
2099.78	0.8245
2108.61	0.821
2117.44	0.817
2126.27	0.8124
2135.1	0.808
2143.93	0.803
2152.76	0.798
2161.59	0.793
2170.42	0.7925
2179.25	0.791
2188.08	0.785
2196.92	0.7805
2205.75	0.775
2214.58	0.7705
2223.41	0.7649
2232.24	0.7595
2241.07	0.752
2249.9	0.749
2258.73	0.7455
2267.56	0.742
2276.39	0.739
2285.22	0.735
2294.05	0.731
2302.88	0.7264
2311.71	0.723
2320.54	0.72
2329.37	0.716
2338.2	0.7124
2347.03	0.709
2355.86	0.7069
2364.69	0.7044
2373.52	0.702
2382.35	0.6974
2391.18	0.6889
2400.01	0.6794
2408.84	0.6694
2417.67	0.666
2426.5	0.669
2435.33	0.666
2444.16	0.6598
2452.99	0.6528
2461.82	0.6422
2470.65	0.626
2479.48	0.6258
2488.31	0.6154
2497.14	0.6052
2505.97	0.603
2514.8	0.6062
2523.63	0.6125
2532.46	0.621
2541.29	0.6162
2550.12	0.6034
2558.95	0.6022
2567.78	0.6108
2576.61	0.612
2585.44	0.6038
2594.27	0.5974
2603.1	0.597
2611.93	0.596
2620.76	0.591
2629.59	0.5842
2638.42	0.579
2647.25	0.576
2656.08	0.5754
2664.91	0.5714
2673.74	0.5595
2682.57	0.5448
2691.4	0.525
2700.23	0.521
2709.06	0.52
2717.89	0.517
2726.72	0.5007
2735.55	0.5
2744.38	0.5059
2753.21	0.5165
2762.04	0.526
2770.87	0.525
2779.7	0.5214
2788.53	0.5134
2797.36	0.5024
2806.19	0.491
2815.02	0.4769
2823.85	0.461
2832.68	0.464
2841.51	0.4723
2850.34	0.477
2859.17	0.477
2868	0.4703
2876.83	0.463
2885.66	0.4557
2894.49	0.45
2903.32	0.447
2912.15	0.4227
2920.98	0.408
2929.81	0.397
2938.64	0.391
2947.47	0.3857
2956.3	0.374
2965.13	0.3587
2973.96	0.3553
2982.79	0.351
2991.62	0.3456
3000.45	0.3329
3009.28	0.3123
3018.11	0.2896
3026.94	0.2793
3035.77	0.2562
3044.6	0.2226
3053.43	0.204
3062.26	0.201
3071.09	0.1963
3079.92	0.1893
3088.75	0.189
3097.58	0.1859
3106.41	0.1645
3115.24	0.1298
3124.07	0.125
3132.9	0.13
3141.73	0.1273
3150.56	0.123
3159.39	0.123
3168.22	0.124
3177.05	0.1298
3185.88	0.1526
3194.71	0.1691
3203.54	0.1824
3212.37	0.1964
3221.2	0.2169
3230.03	0.2406
3238.86	0.2634
3247.69	0.2782
3256.52	0.2945
3265.35	0.3179
3274.18	0.3425
3283.01	0.3726
3291.84	0.3994
3300.67	0.4266
3309.5	0.4489
3318.33	0.4689
3327.16	0.491
3335.99	0.5099
3344.82	0.5297
3353.65	0.5435
3362.48	0.5592
3371.31	0.5725
3380.14	0.5787
3388.97	0.5865
3397.8	0.5938
3406.63	0.5977
3415.46	0.6025
3424.29	0.603
3433.12	0.604
3441.95	0.604
3450.78	0.604
3459.61	0.604
3468.44	0.603
3477.27	0.601
3486.1	0.5985
3494.93	0.597
3503.76	0.596
3512.59	0.5932
3521.42	0.5902
3530.25	0.589
3539.08	0.5862
3547.91	0.5835
3556.74	0.582
3565.57	0.579
3574.4	0.5764
3583.23	0.5734
3592.06	0.571
3600.89	0.568
3609.72	0.565
3618.55	0.5618
3627.38	0.56
3636.21	0.557
3645.04	0.554
3653.87	0.5502
3662.7	0.549
3671.53	0.5462
3680.36	0.544
3689.19	0.542
3698.02	0.5392
3706.85	0.5364
3715.68	0.535
3724.51	0.532
3733.34	0.529
3742.17	0.5252
3751	0.5224
3759.83	0.52
3768.66	0.518
3777.49	0.517
3786.32	0.5142
3795.15	0.5132
3803.98	0.513
