Infrared Spectrum: Trioxa-1,13-tridecanediamine,4,7,10-,
Formula: C10 H24 N2 O3
CAS: 4246-51-9
State: LIQUID (NEAT)
Class: COBLENTZ III
Instrument: BAIRD (GRATING)
Instrument parameters: NaCl PRISM
Path length: 0.0015 CM
Resolution: 2
Origin: WYANDOTTE CHEMICALS CORP.
1/CM	TRANSMITTANCE
626	0.6198
635	0.6304
644	0.6356
653	0.6446
662	0.6101
671	0.6529
680	0.6603
689	0.6577
698	0.6452
707	0.6257
716	0.6008
725	0.5747
734	0.531
743	0.4346
752	0.3086
761	0.2457
770	0.2176
779	0.2041
788	0.1759
797	0.1203
806	0.0648
815	0.0415
824	0.0318
833	0.0261
842	0.0233
851	0.026
860	0.0304
869	0.0311
878	0.0326
887	0.034
896	0.0351
905	0.0402
914	0.0446
923	0.051
932	0.0521
941	0.0681
950	0.0907
959	0.1242
968	0.1653
977	0.1688
986	0.1524
995	0.1521
1004	0.1555
1013	0.1303
1022	0.0924
1031	0.0468
1040	0.0294
1049	0.0323
1058	0.0379
1067	0.025
1076	0.0134
1085	0.0103
1094	0.0078
1103	0.0074
1112	0.0114
1121	0.0152
1130	0.0171
1139	0.0185
1148	0.0177
1157	0.0378
1166	0.1019
1175	0.1838
1184	0.2771
1193	0.3691
1202	0.4586
1211	0.4756
1220	0.4088
1229	0.3344
1238	0.2343
1247	0.1352
1256	0.1468
1265	0.2438
1274	0.2819
1283	0.2229
1292	0.1484
1301	0.1172
1310	0.1495
1319	0.2626
1328	0.2318
1337	0.2897
1346	0.2285
1355	0.0657
1364	0.0781
1373	0.1321
1382	0.1775
1391	0.2156
1400	0.2378
1409	0.3554
1418	0.4891
1427	0.4319
1436	0.2975
1445	0.2511
1454	0.2301
1463	0.1741
1472	0.1505
1481	0.1528
1490	0.1648
1499	0.2611
1508	0.486
1517	0.6578
1526	0.6812
1535	0.6765
1544	0.658
1553	0.6156
1562	0.5996
1571	0.558
1580	0.4738
1589	0.3815
1598	0.2902
1607	0.2175
1616	0.1918
1625	0.2254
1634	0.3146
1643	0.4029
1652	0.4901
1661	0.5765
1670	0.5978
1679	0.6118
1688	0.6761
1697	0.7444
1706	0.7899
1715	0.8329
1724	0.8559
1733	0.874
1742	0.8853
1751	0.893
1760	0.9007
1769	0.9076
1778	0.9101
1787	0.9099
1796	0.9102
1805	0.9113
1814	0.9127
1823	0.912
1832	0.9078
1841	0.8986
1850	0.888
1859	0.8801
1868	0.8744
1877	0.8717
1886	0.8641
1895	0.8468
1904	0.8443
1913	0.8366
1922	0.8214
1931	0.8063
1940	0.7961
1949	0.7887
1958	0.7881
1967	0.7877
1976	0.7895
1985	0.805
1994	0.8255
2003	0.8471
2012	0.8605
2021	0.869
2030	0.8713
2039	0.8723
2048	0.8728
2057	0.8733
2066	0.8734
2075	0.8735
2084	0.8735
2093	0.8734
2102	0.873
2111	0.8726
2120	0.8723
2129	0.8721
2138	0.872
2147	0.8717
2156	0.8712
2165	0.8707
2174	0.8702
2183	0.8705
2192	0.8708
2201	0.8714
2210	0.8727
2219	0.8741
2228	0.8762
2237	0.8782
2246	0.8816
2255	0.8847
2264	0.8877
2273	0.8906
2282	0.8929
2291	0.8946
2300	0.8958
2309	0.8961
2318	0.8961
2327	0.8969
2336	0.8999
2345	0.9047
2354	0.9049
2363	0.9037
2372	0.904
2381	0.9053
2390	0.9073
2399	0.908
2408	0.9055
2417	0.9016
2426	0.8964
2435	0.89
2444	0.8837
2453	0.88
2462	0.8779
2471	0.8775
2480	0.8785
2489	0.8789
2498	0.8776
2507	0.8734
2516	0.8672
2525	0.8602
2534	0.8535
2543	0.8477
2552	0.842
2561	0.8358
2570	0.8257
2579	0.8127
2588	0.8013
2597	0.791
2606	0.7819
2615	0.7725
2624	0.7631
2633	0.7526
2642	0.7383
2651	0.7206
2660	0.6996
2669	0.6616
2678	0.605
2687	0.5489
2696	0.4931
2705	0.456
2714	0.4146
2723	0.3731
2732	0.3318
2741	0.2909
2750	0.2576
2759	0.2406
2768	0.2244
2777	0.1937
2786	0.1498
2795	0.1154
2804	0.0708
2813	0.0406
2822	0.0193
2831	0.0112
2840	0.0069
2849	0.0054
2858	0.0048
2867	0.0044
2876	0.0042
2885	0.0038
2894	0.0036
2903	0.0044
2912	0.0053
2921	0.0061
2930	0.0076
2939	0.0101
2948	0.0127
2957	0.0161
2966	0.0213
2975	0.0732
2984	0.1544
2993	0.2352
3002	0.3155
3011	0.3953
3020	0.4746
3029	0.5534
3038	0.6328
3047	0.6558
3056	0.6692
3065	0.6799
3074	0.6861
3083	0.6883
3092	0.6878
3101	0.6843
3110	0.6696
3119	0.6417
3128	0.6115
3137	0.5814
3146	0.5515
3155	0.5217
3164	0.4922
3173	0.4628
3182	0.4335
3191	0.4184
3200	0.4166
3209	0.4143
3218	0.4106
3227	0.4067
3236	0.3977
3245	0.3707
3254	0.3418
3263	0.3131
3272	0.2845
3281	0.2561
3290	0.2425
3299	0.2517
3308	0.2777
3317	0.2818
3326	0.2651
3335	0.2198
3344	0.1748
3353	0.1575
3362	0.1831
3371	0.2552
3380	0.3269
3389	0.3982
3398	0.4693
3407	0.5614
3416	0.5839
3425	0.6203
3434	0.6424
3443	0.6587
3452	0.6719
3461	0.6842
3470	0.6971
3479	0.7096
3488	0.7217
3497	0.7328
3506	0.7436
3515	0.7499
3524	0.756
3533	0.7617
3542	0.7675
3551	0.7734
3560	0.7771
3569	0.7807
3578	0.7839
3587	0.7866
3596	0.7893
3605	0.7925
3614	0.796
3623	0.8005
3632	0.8056
3641	0.8136
3650	0.8319
3659	0.8511
3668	0.866
3677	0.8791
3686	0.8919
3695	0.9039
3704	0.915
3713	0.9234
3722	0.9304
3731	0.9357
3740	0.94
3749	0.9431
3758	0.9462
3767	0.9488
3776	0.9515
3785	0.9541
3794	0.9567
3803	0.9592
3812	0.9617
3821	0.9635
3830	0.9651
3839	0.9655
3848	0.9654
3857	0.9645
3866	0.9631
3875	0.9611
3884	0.9591
3893	0.9574
3902	0.9575
3911	0.9597
3920	0.9625
3929	0.9652
3938	0.9675
3947	0.9689
3956	0.9693
3965	0.9692
3974	0.9683
3983	0.967
3992	0.9646
