Infrared Spectrum: t-Butyl carbamate
Formula: C 5 H 11 N O 2
CAS: 4248-19-5
State: gas
Origin: EPA-IR VAPOR PHASE LIBRARY
1/CM	ABSORBANCE
549.8	0.00325
559.445	0.00276
569.09	0.00228
578.735	0.0013013
588.38	0.0014375
598.025	0.0010288
607.67	0.0008315
617.315	0.0009234
626.96	0.0011305
636.605	0.0011177
646.251	0.0012323
655.896	0.0010474
665.541	0.00163
675.186	0.00166
684.831	0.00203
694.476	0.00246
704.121	0.00296
713.766	0.00401
723.411	0.00447
733.056	0.00443
742.701	0.00379
752.346	0.00422
761.991	0.00603
771.636	0.0073
781.281	0.00719
790.926	0.00576
800.571	0.0051
810.216	0.00478
819.861	0.00497
829.507	0.00515
839.152	0.00557
848.797	0.00555
858.442	0.00459
868.087	0.00357
877.732	0.00246
887.377	0.00247
897.022	0.0019
906.667	0.00235
916.312	0.00237
925.957	0.00262
935.602	0.00218
945.247	0.00182
954.892	0.00187
964.537	0.00265
974.182	0.00271
983.827	0.00456
993.472	0.00871
1003.12	0.01463
1012.76	0.01764
1022.41	0.0158
1032.05	0.01303
1041.7	0.0113
1051.34	0.00841
1060.99	0.00396
1070.63	0.00288
1080.28	0.00492
1089.92	0.01093
1099.57	0.01569
1109.21	0.01477
1118.86	0.00892
1128.5	0.00536
1138.15	0.00565
1147.79	0.00902
1157.44	0.01629
1167.08	0.02597
1176.73	0.03477
1186.37	0.03399
1196.02	0.02372
1205.66	0.01269
1215.31	0.00903
1224.95	0.00962
1234.6	0.01235
1244.24	0.01504
1253.89	0.01465
1263.53	0.01149
1273.18	0.00871
1282.82	0.00703
1292.47	0.00693
1302.11	0.00944
1311.76	0.01712
1321.4	0.03798
1331.05	0.07013
1340.69	0.08124
1350.34	0.06021
1359.98	0.02819
1369.63	0.02257
1379.27	0.01758
1388.92	0.01289
1398.56	0.00812
1408.21	0.00521
1417.85	0.00249
1427.5	0.00206
1437.14	0.00248
1446.79	0.00349
1456.43	0.00436
1466.08	0.00498
1475.73	0.00462
1485.37	0.00391
1495.02	0.00269
1504.66	0.0019
1514.31	0.00152
1523.95	0.00153
1533.6	0.00194
1543.24	0.00264
1552.89	0.00406
1562.53	0.00997
1572.18	0.01961
1581.82	0.02336
1591.47	0.01855
1601.11	0.0107
1610.76	0.00644
1620.4	0.00373
1630.05	0.00259
1639.69	0.00195
1649.34	0.00197
1658.98	0.00194
1668.63	0.00214
1678.27	0.0027
1687.92	0.00333
1697.56	0.00369
1707.21	0.00426
1716.85	0.00554
1726.5	0.01002
1736.14	0.02547
1745.79	0.05645
1755.43	0.08213
1765.08	0.07659
1774.72	0.04074
1784.37	0.01384
1794.01	0.00552
1803.66	0.00389
1813.3	0.00373
1822.95	0.00383
1832.59	0.00352
1842.24	0.00286
1851.88	0.00218
1861.53	0.0018
1871.17	0.00155
1880.82	0.0013338
1890.46	0.0011104
1900.11	0.00095
1909.75	0.0008433
1919.4	0.0008465
1929.04	0.0008699
1938.69	0.0009209
1948.33	0.0009441
1957.98	0.000789
1967.62	0.0007905
1977.27	0.0007577
1986.91	0.0007778
1996.56	0.0008224
2006.2	0.0007391
2015.85	0.0007929
2025.49	0.0006805
2035.14	0.0007214
2044.78	0.000685
2054.43	0.0006457
2064.07	0.0006355
2073.72	0.0006045
2083.36	0.00054462
2093.01	0.0006306
2102.65	0.0006219
2112.3	0.000641
2121.94	0.00054535
2131.59	0.0005608
2141.23	0.0006383
2150.88	0.0006014
2160.52	0.0005709
2170.17	0.0005867
2179.81	0.0006441
2189.46	0.0006033
2199.1	0.0006188
2208.75	0.00052226
2218.39	0.0006437
2228.04	0.0006725
2237.68	0.0008294
2247.33	0.0008844
2256.97	0.0008544
2266.62	0.0009416
2276.26	0.0010986
2285.91	0.0012678
2295.55	0.00153
2305.2	0.00193
2314.84	0.00248
2324.49	0.00283
2334.13	0.00279
2343.78	0.0026
2353.42	0.00292
2363.07	0.00356
2372.72	0.00296
2382.36	0.0013766
2392.01	0.0006961
2401.65	0.00050707
2411.3	0.0005733
2420.94	0.00044313
2430.59	0.0005964
2440.23	0.0005571
2449.88	0.00046028
2459.52	0.0003692
2469.17	0.0004322
2478.81	0.0004373
2488.46	0.00031
2498.1	0.0004316
2507.75	0.000275
2517.39	0.0004081
2527.04	0.0004124
2536.68	0.0003796
2546.33	0.000258
2555.97	0.0004295
2565.62	0.0004316
2575.26	0.000455454
2584.91	0.00047527
2594.55	0.0004135
2604.2	0.00052798
2613.84	0.00045523
2623.49	0.00044419
2633.13	0.00047446
2642.78	0.00046635
2652.42	0.0003545
2662.07	0.00047859
2671.71	0.00048988
2681.36	0.0003759
2691	0.000435
2700.65	0.000455128
2710.29	0.00052735
2719.94	0.0003844
2729.58	0.00051815
2739.23	0.00050506
2748.87	0.00053296
2758.52	0.000457474
2768.16	0.0006364
2777.81	0.0006132
2787.45	0.0007098
2797.1	0.0006737
2806.74	0.0007082
2816.39	0.0008218
2826.03	0.0009504
2835.68	0.0010561
2845.32	0.0012573
2854.97	0.00177
2864.61	0.00229
2874.26	0.00296
2883.9	0.00375
2893.55	0.0044
2903.19	0.00508
2912.84	0.00584
2922.48	0.007
2932.13	0.00875
2941.77	0.00982
2951.42	0.00934
2961.06	0.01032
2970.71	0.01509
2980.35	0.02075
2990	0.01864
2999.64	0.01186
3009.29	0.00601
3018.93	0.0037
3028.58	0.0019
3038.22	0.0009615
3047.87	0.000678
3057.51	0.0007991
3067.16	0.0008362
3076.8	0.0009748
3086.45	0.0008955
3096.09	0.0009218
3105.74	0.0008792
3115.38	0.0006395
3125.03	0.0006695
3134.67	0.00049329
3144.32	0.000586
3153.96	0.00051928
3163.61	0.00052908
3173.25	0.00051603
3182.9	0.00052309
3192.54	0.0005533
3202.19	0.000311
3211.83	0.0003959
3221.48	0.0003878
3231.12	0.000449785
3240.77	0.0005841
3250.41	0.00046204
3260.06	0.000119
3269.7	0.00044512
3279.35	0.00024
3289	0.000182
3298.64	0.000208
3308.29	0.00028
3317.93	0.000287
3327.58	0.000224
3337.22	0.000314
3346.87	0.000327
3356.51	0.000228
3366.16	0.00034
3375.8	0.0003579
3385.45	0.000298
3395.09	0.000343
3404.74	0.0005664
3414.38	0.0011846
3424.03	0.00206
3433.67	0.00357
3443.32	0.00522
3452.96	0.00655
3462.61	0.00602
3472.25	0.00429
3481.9	0.00195
3491.54	0.0011463
3501.19	0.0010508
3510.83	0.0014099
3520.48	0.0017
3530.12	0.00265
3539.77	0.0037
3549.41	0.00435
3559.06	0.00525
3568.7	0.00558
3578.35	0.00565
3587.99	0.00445
3597.64	0.00237
3607.28	0.0006487
3616.93	0.000451715
3626.57	0.00045104
3636.22	0.0005711
3645.86	0.000456389
3655.51	0.0003616
3665.15	0.000296
3674.8	0.00031
3684.44	0.000141
3694.09	0.000252
3703.73	0.000324
3713.38	0.000217
3723.02	0.000284
3732.67	0.000102
3742.31	0.0004366
3751.96	0.0003796
3761.6	0.000296
3771.25	0.000258
3780.89	6e-06
3790.54	0.000135
3800.18	0.000272
3809.83	0.000214
3819.47	0.000234
3829.12	0.000202
3838.76	0.000176
3848.41	0.000138
3858.05	0.000285
3867.7	4.4e-05
3877.34	1.6e-05
3886.99	0.000309
3896.63	0.000251
3906.28	0.000299
3915.92	0.00047849
3925.57	0.0004273
3935.21	0.000283
3944.86	0.000316
3954.5	0.0004008
3964.15	0.00052113
3973.79	0.0004217
3983.44	0.0006005
3993.08	0.0006791
