Infrared Spectrum: 1-Phenyl-1-pentyne
Formula: C 11 H 12
CAS: 4250-81-1
State: gas
Instrument: HP-GC/MS/IRD
Origin: NIST Mass Spectrometry Data Center
1/CM	ABSORBANCE
550	0.0006084
562	0.0003108
574	0.0002592
586	0.0003048
598	0.0004272
610	0.0003684
622	0.0002904
634	0.0003876
646	0.000462
658	0.0009288
670	0.0023112
682	0.0045048
694	0.005238
706	0.0031812
718	0.0018336
730	0.0025764
742	0.0054804
754	0.0078036
766	0.0046932
778	0.0016584
790	0.0007416
802	0.000402
814	0.0003456
826	0.0002772
838	0.00024
850	0.0003132
862	0.0003612
874	0.0004464
886	0.0005616
898	0.0006708
910	0.0007536
922	0.0005184
934	0.0003132
946	0.000234
958	0.0002376
970	0.0002268
982	0.000258
994	0.0002196
1006	0.0003264
1018	0.0008892
1030	0.0014064
1042	0.000672
1054	0.0009276
1066	0.0010728
1078	0.0010248
1090	0.0007032
1102	0.0004428
1114	0.000252
1126	0.0001668
1138	8.04e-05
1150	3.84e-05
1162	7.92e-05
1174	8.64e-05
1186	8.4e-06
1198	4.8e-06
1210	8.4e-05
1222	0.0002532
1234	0.00027
1246	0.0003588
1258	0.0005592
1270	0.0008376
1282	0.0014724
1294	0.001152
1306	0.0007932
1318	0.0015792
1330	0.0030288
1342	0.0030516
1354	0.0011868
1366	0.0007176
1378	0.000996
1390	0.0010608
1402	0.0007188
1414	0.0007632
1426	0.0013512
1438	0.002244
1450	0.0020844
1462	0.0019692
1474	0.0023064
1486	0.0057924
1498	0.0043356
1510	0.0014352
1522	0.0006852
1534	0.0005256
1546	0.0004788
1558	0.0005448
1570	0.0007548
1582	0.0013452
1594	0.0030408
1606	0.0023364
1618	0.0005592
1630	0.0003408
1642	0.0003384
1654	0.0004944
1666	0.0004932
1678	0.0002784
1690	0.0002304
1702	0.0002532
1714	0.0002928
1726	0.0003756
1738	0.0004044
1750	0.0004032
1762	0.0003216
1774	0.0003408
1786	0.0005064
1798	0.0005688
1810	0.0003804
1822	0.0003312
1834	0.000252
1846	0.0002724
1858	0.000372
1870	0.0005184
1882	0.0006588
1894	0.0004248
1906	0.0002664
1918	0.0003324
1930	0.0004944
1942	0.0006036
1954	0.000678
1966	0.0003672
1978	0.00021
1990	0.00021
2002	0.0002016
2014	0.000216
2026	0.0002172
2038	0.0002172
2050	0.000222
2062	0.0002076
2074	0.000192
2086	0.0002052
2098	0.0002016
2110	0.0002016
2122	0.000204
2134	0.000222
2146	0.0002364
2158	0.0002796
2170	0.0003036
2182	0.000324
2194	0.000396
2206	0.0005172
2218	0.0006096
2230	0.0007992
2242	0.0007164
2254	0.000396
2266	0.0003264
2278	0.0003144
2290	0.0002712
2302	0.0002976
2314	0.0003408
2326	0.0003156
2338	0.0003192
2350	0.000282
2362	0.0002676
2374	0.0002508
2386	0.0002412
2398	0.0002244
2410	0.000228
2422	0.0002424
2434	0.0002532
2446	0.0002052
2458	0.0002256
2470	0.0002184
2482	0.0002148
2494	0.000252
2506	0.0002604
2518	0.0002556
2530	0.0002184
2542	0.0002688
2554	0.0002388
2566	0.000246
2578	0.0002484
2590	0.0002712
2602	0.0002688
2614	0.0002844
2626	0.0002964
2638	0.0002964
2650	0.0003168
2662	0.00036
2674	0.0003552
2686	0.0003192
2698	0.0003432
2710	0.0002988
2722	0.0003288
2734	0.0003444
2746	0.0004092
2758	0.0004524
2770	0.0004584
2782	0.0004788
2794	0.0005364
2806	0.0006456
2818	0.0007968
2830	0.00114
2842	0.001884
2854	0.002616
2866	0.002922
2878	0.0050904
2890	0.0051864
2902	0.0049644
2914	0.0064056
2926	0.0075528
2938	0.0111912
2950	0.010746
2962	0.008862
2974	0.0111876
2986	0.0073728
2998	0.0033204
3010	0.0021672
3022	0.0024552
3034	0.003474
3046	0.0032796
3058	0.0043188
3070	0.005892
3082	0.0042468
3094	0.0036072
3106	0.0022728
3118	0.0011076
3130	0.0007008
3142	0.0005784
3154	0.0004824
3166	0.0004548
3178	0.0003792
3190	0.0004428
3202	0.0003948
3214	0.0003576
3226	0.0003552
3238	0.0002664
3250	0.0002808
3262	0.0003324
3274	0.000282
3286	0.0002832
3298	0.000282
3310	0.000276
3322	0.0002832
3334	0.0003132
3346	0.000258
3358	0.0002952
3370	0.0002604
3382	0.0001884
3394	0.000252
3406	0.0002364
3418	0.0002436
3430	0.0002484
3442	0.0002568
3454	0.0002628
3466	0.0002892
3478	0.0002664
3490	0.0002928
3502	0.0003312
3514	0.0002724
3526	0.0002448
3538	0.0002556
3550	0.0002772
3562	0.0002856
3574	0.0002652
3586	0.0002904
3598	0.0002688
3610	0.0003048
3622	0.0003468
3634	0.0003312
3646	0.0003048
3658	0.0002892
3670	0.0003324
3682	0.0003384
3694	0.0003096
3706	0.0003156
3718	0.0003468
3730	0.0003372
3742	0.0003372
3754	0.0003132
3766	0.000342
3778	0.0003696
3790	0.0003516
3802	0.000324
3814	0.0003912
3826	0.0003228
3838	0.000354
