Infrared Spectrum: 12-Chloro-5-dodecyne
Formula: C 12 H 21 Cl
CAS: 42513-36-0
State: gas
Instrument: HP-GC/MS/IRD
Origin: NIST Mass Spectrometry Data Center
1/CM	ABSORBANCE
550	0.0027632
562	0.0002816
574	9.68e-05
586	0.0001804
598	7.92e-05
610	0.0001672
622	0.0002728
634	0.0004884
646	0.0010516
658	0.002024
670	0.001518
682	0.000836
694	0.0007964
706	0.0011352
718	0.001848
730	0.003036
742	0.0033572
754	0.0022396
766	0.0014036
778	0.0009416
790	0.000792
802	0.000616
814	0.0005808
826	0.0005104
838	0.000462
850	0.0004884
862	0.0005104
874	0.0004048
886	0.000418
898	0.0004136
910	0.000484
922	0.0005764
934	0.0005808
946	0.0005544
958	0.000572
970	0.00055
982	0.0004708
994	0.0005148
1006	0.0004136
1018	0.0003344
1030	0.0004092
1042	0.0004268
1054	0.0004092
1066	0.0004224
1078	0.0004532
1090	0.000396
1102	0.000462
1114	0.000308
1126	0.0002376
1138	0.0002332
1150	0.0002112
1162	0.0002816
1174	0.0002684
1186	0.0003476
1198	0.0004356
1210	0.0005148
1222	0.000616
1234	0.0008624
1246	0.00121
1258	0.0015136
1270	0.0020108
1282	0.0030756
1294	0.0035904
1306	0.003652
1318	0.0039644
1330	0.0051216
1342	0.0037312
1354	0.0030228
1366	0.0021868
1378	0.0015356
1390	0.0012452
1402	0.0009328
1414	0.0011088
1426	0.0019404
1438	0.0044396
1450	0.005412
1462	0.0048708
1474	0.0029524
1486	0.0013684
1498	0.0008184
1510	0.0006468
1522	0.0005588
1534	0.000418
1546	0.000374
1558	0.000484
1570	0.0002376
1582	0.0002024
1594	0.000176
1606	0.000154
1618	0.00022
1630	0.0001452
1642	0.0001496
1654	0.000286
1666	0.0001496
1678	0.0001496
1690	0.0001276
1702	0.0002244
1714	0.0001584
1726	7.48e-05
1738	0.000154
1750	0.0001232
1762	0.0001144
1774	0.0001188
1786	5.28e-05
1798	7.92e-05
1810	4.84e-05
1822	5.72e-05
1834	4.4e-05
1846	7.48e-05
1858	3.08e-05
1870	6.16e-05
1882	1.76e-05
1894	1.76e-05
1906	1.76e-05
1918	2.64e-05
1930	3.52e-05
1942	1.76e-05
1954	4.4e-06
1966	1.76e-05
1978	3.52e-05
1990	1.76e-05
2002	4.84e-05
2014	6.6e-05
2026	8.36e-05
2038	9.24e-05
2050	8.36e-05
2062	7.04e-05
2074	6.6e-05
2086	4.84e-05
2098	3.08e-05
2110	5.72e-05
2122	7.04e-05
2134	3.96e-05
2146	3.08e-05
2158	4.84e-05
2170	6.16e-05
2182	3.08e-05
2194	4.4e-05
2206	4.4e-05
2218	6.16e-05
2230	5.72e-05
2242	7.48e-05
2254	3.52e-05
2266	6.16e-05
2278	7.04e-05
2290	6.6e-05
2302	8.36e-05
2314	4.4e-05
2326	3.52e-05
2338	4.4e-06
2350	4.4e-05
2362	8.8e-06
2374	5.28e-05
2386	8.36e-05
2398	9.68e-05
2410	7.04e-05
2422	7.92e-05
2434	9.24e-05
2446	5.28e-05
2458	4.4e-05
2470	4.4e-05
2482	5.28e-05
2494	3.08e-05
2506	5.28e-05
2518	0.0001144
2530	0.0001232
2542	0.0001056
2554	0.0001276
2566	0.0001452
2578	0.000176
2590	0.0002596
2602	0.0002376
2614	0.0002156
2626	0.0002992
2638	0.000352
2650	0.0004356
2662	0.0004884
2674	0.0005016
2686	0.0005192
2698	0.0004444
2710	0.00044
2722	0.0004928
2734	0.0005192
2746	0.0006556
2758	0.0006732
2770	0.0007744
2782	0.0008536
2794	0.0010032
2806	0.0013288
2818	0.0017732
2830	0.0026136
2842	0.004884
2854	0.0096272
2866	0.0147708
2878	0.0137588
2890	0.011462
2902	0.0127336
2914	0.0190784
2926	0.0303644
2938	0.0436392
2950	0.0350196
2962	0.0241604
2974	0.0171292
2986	0.0086592
2998	0.0061644
3010	0.0033396
3022	0.0021252
3034	0.0015004
3046	0.0011264
3058	0.0008976
3070	0.000748
3082	0.0006512
3094	0.00055
3106	0.0004708
3118	0.0004136
3130	0.0003696
3142	0.0003388
3154	0.0003388
3166	0.00033
3178	0.000308
3190	0.000242
3202	0.0003036
3214	0.0002156
3226	0.0001848
3238	0.0001672
3250	0.0001408
3262	0.0001232
3274	0.0001232
3286	0.0001496
3298	0.0001276
3310	0.0001452
3322	0.0001452
3334	0.0001144
3346	0.0001144
3358	0.000132
3370	0.0001012
3382	9.68e-05
3394	6.6e-05
3406	0.0001012
3418	0.0001276
3430	0.0001408
3442	0.0001276
3454	0.00011
3466	8.36e-05
3478	8.36e-05
3490	8.36e-05
3502	6.16e-05
3514	4.4e-05
3526	6.16e-05
3538	6.6e-05
3550	3.08e-05
3562	7.92e-05
3574	2.2e-05
3586	0.00011
3598	0.0001452
3610	0.0001848
3622	0.0001716
3634	0.0001804
3646	0.0002068
3658	0.0002156
3670	0.000242
3682	0.0001628
3694	0.000198
3706	0.0001496
3718	0.000198
3730	0.0002244
3742	0.0003212
3754	0.0003168
3766	0.0001804
3778	0.0001892
3790	0.00022
3802	0.000286
3814	0.0002464
3826	0.000242
3838	0.000264
