Infrared Spectrum: 1,1'-DITHIODI-2-NAPHTHOL
Formula: C20 H14 O2 S2
CAS: 42521-82-4
State: SOLID (KBr PELLET)
Melting point: 167-168 C
Class: COBLENTZ
Instrument: Not specified, most likely a prism, grating, or hybrid spectrometer.
Sampling: TRANSMISSION
Resolution: 4
Origin: TENNESSEE EASTMAN COMPANY, RESEARCH LABORATORIES
MICROMETERS	TRANSMITTANCE
2.013	0.891
2.05189	0.894
2.09078	0.896
2.12967	0.896
2.16855	0.897
2.20744	0.902
2.24633	0.907
2.28522	0.913
2.32411	0.915
2.363	0.917
2.40189	0.918
2.44077	0.92
2.47966	0.92
2.51855	0.92
2.55744	0.918
2.59633	0.917
2.63522	0.917
2.6741	0.917
2.71299	0.902
2.75188	0.818
2.79077	0.779
2.82966	0.722
2.86855	0.431
2.90744	0.573
2.94632	0.537
2.98521	0.678
3.0241	0.762
3.06299	0.801
3.10188	0.821
3.14077	0.844
3.17966	0.865
3.21854	0.875
3.25743	0.795
3.29632	0.845
3.33521	0.881
3.3741	0.883
3.41299	0.894
3.45187	0.909
3.49076	0.92
3.52965	0.928
3.56854	0.931
3.60743	0.935
3.64632	0.936
3.68521	0.938
3.72409	0.941
3.76298	0.941
3.80187	0.939
3.84076	0.943
3.87965	0.941
3.91854	0.941
3.95743	0.941
3.99631	0.939
4.0352	0.941
4.07409	0.944
4.11298	0.943
4.15187	0.946
4.19076	0.949
4.22964	0.948
4.26853	0.918
4.30742	0.912
4.34631	0.935
4.3852	0.949
4.42409	0.951
4.46298	0.956
4.50186	0.956
4.54075	0.956
4.57964	0.956
4.61853	0.956
4.65742	0.954
4.69631	0.948
4.7352	0.952
4.77408	0.952
4.81297	0.956
4.85186	0.952
4.89075	0.954
4.92964	0.954
4.96853	0.957
5.00742	0.959
5.0463	0.956
5.08519	0.939
5.12408	0.918
5.16297	0.923
5.20186	0.905
5.24075	0.922
5.27963	0.943
5.31852	0.948
5.35741	0.954
5.3963	0.943
5.43519	0.936
5.47408	0.925
5.51297	0.935
5.55185	0.925
5.59074	0.935
5.62963	0.92
5.66852	0.923
5.70741	0.913
5.7463	0.91
5.78519	0.887
5.82407	0.891
5.86296	0.889
5.90185	0.866
5.94074	0.863
5.97963	0.865
6.01852	0.85
6.0574	0.803
6.09629	0.805
6.13518	0.724
6.17407	0.323
6.21296	0.667
6.25185	0.375
6.29074	0.54
6.32962	0.693
6.36851	0.641
6.4074	0.829
6.44629	0.865
6.48518	0.853
6.52407	0.797
6.56296	0.535
6.60184	0.435
6.64073	0.743
6.67962	0.84
6.71851	0.853
6.7574	0.842
6.79629	0.573
6.83517	0.441
6.87406	0.834
6.91295	0.801
6.95184	0.745
6.99073	0.844
7.02962	0.858
7.06851	0.853
7.10739	0.79
7.14628	0.62
7.18517	0.28
7.22406	0.506
7.26295	0.73
7.30184	0.779
7.34073	0.75
7.37961	0.688
7.4185	0.509
7.45739	0.681
7.49628	0.818
7.53517	0.847
7.57406	0.863
7.61295	0.863
7.65183	0.862
7.69072	0.871
7.72961	0.863
7.7685	0.834
7.80739	0.798
7.84628	0.785
7.88516	0.772
7.92405	0.764
7.96294	0.582
8.00183	0.663
8.04072	0.758
8.07961	0.764
8.1185	0.719
8.15738	0.599
8.19627	0.42
8.23516	0.259
8.27405	0.237
8.31294	0.238
8.35183	0.238
8.39072	0.225
8.4296	0.183
8.46849	0.194
8.50738	0.301
8.54627	0.491
8.58516	0.607
8.62405	0.59
8.66293	0.396
8.70182	0.488
8.74071	0.496
8.7796	0.659
8.81849	0.386
8.85738	0.233
8.89627	0.383
8.93515	0.616
8.97404	0.701
9.01293	0.748
9.05182	0.769
9.09071	0.787
9.1296	0.795
9.16849	0.801
9.20737	0.806
9.24626	0.813
9.28515	0.814
9.32404	0.823
9.36293	0.826
9.40182	0.831
9.44071	0.836
9.47959	0.837
9.51848	0.837
9.55737	0.839
9.59626	0.839
9.63515	0.823
9.67404	0.73
9.71292	0.756
9.75181	0.806
9.7907	0.819
9.82959	0.827
9.86848	0.836
9.90737	0.84
9.94626	0.836
9.98514	0.798
10.024	0.816
10.0629	0.844
10.1018	0.853
10.1407	0.853
10.1796	0.855
10.2185	0.862
10.2574	0.863
10.2963	0.865
10.3351	0.847
10.374	0.818
10.4129	0.818
10.4518	0.847
10.4907	0.852
10.5296	0.85
10.5685	0.84
10.6074	0.842
10.6462	0.842
10.6851	0.813
10.724	0.805
10.7629	0.836
10.8018	0.873
10.8407	0.907
10.8796	0.917
10.9185	0.918
10.9574	0.922
10.9962	0.922
11.0351	0.922
11.074	0.925
11.1129	0.928
11.1518	0.931
11.1907	0.931
11.2296	0.93
11.2685	0.928
11.3074	0.926
11.3462	0.928
11.3851	0.926
11.424	0.917
11.4629	0.85
11.5018	0.836
11.5407	0.85
11.5796	0.842
11.6185	0.849
11.6573	0.887
11.6962	0.912
11.7351	0.922
11.774	0.923
11.8129	0.923
11.8518	0.918
11.8907	0.907
11.9296	0.876
11.9685	0.84
12.0073	0.772
12.0462	0.655
12.0851	0.47
12.124	0.246
12.1629	0.17
12.2018	0.228
12.2407	0.232
12.2796	0.366
12.3185	0.608
12.3573	0.737
12.3962	0.814
12.4351	0.849
12.474	0.868
12.5129	0.878
12.5518	0.883
12.5907	0.884
12.6296	0.883
12.6685	0.881
12.7073	0.878
12.7462	0.871
12.7851	0.865
12.824	0.798
12.8629	0.599
12.9018	0.47
12.9407	0.654
12.9796	0.795
13.0184	0.811
13.0573	0.771
13.0962	0.568
13.1351	0.391
13.174	0.423
13.2129	0.438
13.2518	0.331
13.2907	0.188
13.3296	0.235
13.3684	0.469
13.4073	0.639
13.4462	0.745
13.4851	0.801
13.524	0.829
13.5629	0.84
13.6018	0.842
13.6407	0.829
13.6796	0.797
13.7184	0.759
13.7573	0.771
13.7962	0.824
13.8351	0.849
13.874	0.863
13.9129	0.87
13.9518	0.873
13.9907	0.875
14.0295	0.876
14.0684	0.875
14.1073	0.875
14.1462	0.873
14.1851	0.87
14.224	0.866
14.2629	0.866
14.3018	0.866
14.3407	0.866
14.3795	0.866
14.4184	0.866
14.4573	0.857
14.4962	0.852
14.5351	0.842
14.574	0.839
14.6129	0.831
14.6518	0.829
14.6907	0.824
14.7295	0.819
14.7684	0.813
14.8073	0.81
14.8462	0.808
14.8851	0.8
14.924	0.784
14.9629	0.758
15.0018	0.735
15.0407	0.727
15.0795	0.724
15.1184	0.715
15.1573	0.689
15.1962	0.649
15.2351	0.59
15.274	0.561
15.3129	0.561
15.3518	0.586
15.3906	0.615
15.4295	0.634
15.4684	0.641
15.5073	0.641
15.5462	0.639
15.5851	0.636
15.624	0.626
15.6629	0.623
15.7018	0.62
15.7406	0.61
15.7795	0.607
15.8184	0.602
15.8573	0.595
15.8962	0.587
15.9351	0.582
15.974	0.577
