Infrared Spectrum: DUOMEEN O
Formula: C21 H46 N2
CAS: 4253-76-3
Class: COBLENTZ
Instrument: PERKIN-ELMER
Sampling: TRANSMISSION
Path length: 0.0025 CM
Resolution: 4
Origin: STANDARD OIL COMPANY OF OHIO (J. GRASELLI)
MICROMETERS	TRANSMITTANCE
2.061	0.988
2.09464	0.989
2.12829	0.988
2.16193	0.989
2.19558	0.989
2.22922	0.988
2.26286	0.961
2.29651	0.915
2.33015	0.922
2.3638	0.922
2.39744	0.925
2.43108	0.935
2.46473	0.944
2.49837	0.956
2.53202	0.962
2.56566	0.966
2.5993	0.969
2.63295	0.972
2.66659	0.974
2.70023	0.966
2.73388	0.959
2.76752	0.952
2.80117	0.937
2.83481	0.912
2.86845	0.89
2.9021	0.852
2.93574	0.774
2.96939	0.764
3.00303	0.702
3.03667	0.722
3.07032	0.774
3.10396	0.8
3.13761	0.815
3.17125	0.84
3.20489	0.849
3.23854	0.803
3.27218	0.708
3.30583	0.47
3.33947	0.165
3.37311	0.011
3.40676	0.006
3.4404	0.023
3.47405	0.015
3.50769	0.148
3.54133	0.231
3.57498	0.416
3.60862	0.571
3.64226	0.641
3.67591	0.73
3.70955	0.751
3.7432	0.788
3.77684	0.847
3.81048	0.871
3.84413	0.891
3.87777	0.912
3.91142	0.923
3.94506	0.932
3.9787	0.94
4.01235	0.95
4.04599	0.952
4.07964	0.956
4.11328	0.959
4.14692	0.957
4.18057	0.956
4.21421	0.956
4.24786	0.954
4.2815	0.954
4.31514	0.956
4.34879	0.952
4.38243	0.95
4.41608	0.949
4.44972	0.947
4.48336	0.945
4.51701	0.945
4.55065	0.949
4.5843	0.947
4.61794	0.945
4.65158	0.947
4.68523	0.949
4.71887	0.95
4.75251	0.95
4.78616	0.949
4.8198	0.945
4.85345	0.942
4.88709	0.944
4.92073	0.942
4.95438	0.942
4.98802	0.944
5.02167	0.947
5.05531	0.95
5.08895	0.949
5.1226	0.949
5.15624	0.949
5.18989	0.947
5.22353	0.945
5.25717	0.944
5.29082	0.945
5.32446	0.945
5.35811	0.944
5.39175	0.944
5.42539	0.944
5.45904	0.945
5.49268	0.945
5.52633	0.949
5.55997	0.949
5.59361	0.949
5.62726	0.945
5.6609	0.942
5.69455	0.94
5.72819	0.939
5.76183	0.934
5.79548	0.925
5.82912	0.915
5.86276	0.901
5.89641	0.856
5.93005	0.817
5.9637	0.802
5.99734	0.785
6.03098	0.783
6.06463	0.785
6.09827	0.771
6.13192	0.749
6.16556	0.746
6.1992	0.751
6.23285	0.759
6.26649	0.773
6.30014	0.788
6.33378	0.802
6.36742	0.815
6.40107	0.825
6.43471	0.835
6.46836	0.842
6.502	0.849
6.53564	0.851
6.56929	0.849
6.60293	0.837
6.63658	0.815
6.67022	0.766
6.70386	0.686
6.73751	0.531
6.77115	0.306
6.80479	0.148
6.83844	0.14
6.87208	0.226
6.90573	0.324
6.93937	0.358
6.97301	0.465
7.00666	0.631
7.0403	0.768
7.07395	0.771
7.10759	0.736
7.14123	0.727
7.17488	0.688
7.20852	0.634
7.24217	0.532
7.27581	0.57
7.30945	0.576
7.3431	0.607
7.37674	0.61
7.41039	0.629
7.44403	0.661
7.47767	0.712
7.51132	0.749
7.54496	0.741
7.57861	0.715
7.61225	0.702
7.64589	0.693
7.67954	0.69
7.71318	0.703
7.74683	0.727
7.78047	0.734
7.81411	0.741
7.84776	0.744
7.8814	0.749
7.91504	0.756
7.94869	0.764
7.98233	0.773
8.01598	0.78
8.04962	0.785
8.08326	0.79
8.11691	0.796
8.15055	0.8
8.1842	0.807
8.21784	0.81
8.25148	0.813
8.28513	0.815
8.31877	0.812
8.35242	0.813
8.38606	0.813
8.4197	0.808
8.45335	0.802
8.48699	0.796
8.52064	0.781
8.55428	0.766
8.58792	0.754
8.62157	0.741
8.65521	0.724
8.68886	0.686
8.7225	0.656
8.75614	0.573
8.78979	0.5
8.82343	0.433
8.85707	0.412
8.89072	0.446
8.92436	0.487
8.95801	0.576
8.99165	0.617
9.02529	0.639
9.05894	0.651
9.09258	0.653
9.12623	0.648
9.15987	0.639
9.19351	0.636
9.22716	0.636
9.2608	0.639
9.29445	0.634
9.32809	0.636
9.36173	0.659
9.39538	0.678
9.42902	0.692
9.46267	0.7
9.49631	0.71
9.52995	0.714
9.5636	0.722
9.59724	0.729
9.63089	0.732
9.66453	0.732
9.69817	0.736
9.73182	0.737
9.76546	0.741
9.79911	0.746
9.83275	0.749
9.86639	0.751
9.90004	0.759
9.93368	0.764
9.96732	0.768
10.001	0.769
10.0346	0.769
10.0683	0.766
10.1019	0.756
10.1355	0.741
10.1692	0.72
10.2028	0.681
10.2365	0.654
10.2701	0.598
10.3038	0.548
10.3374	0.548
10.3711	0.615
10.4047	0.678
10.4383	0.7
10.472	0.712
10.5056	0.717
10.5393	0.72
10.5729	0.719
10.6066	0.714
10.6402	0.71
10.6738	0.705
10.7075	0.705
10.7411	0.702
10.7748	0.702
10.8084	0.697
10.8421	0.69
10.8757	0.681
10.9094	0.675
10.943	0.668
10.9766	0.663
11.0103	0.654
11.0439	0.649
11.0776	0.641
11.1112	0.631
11.1449	0.622
11.1785	0.612
11.2122	0.605
11.2458	0.6
11.2794	0.593
11.3131	0.59
11.3467	0.587
11.3804	0.583
11.414	0.582
11.4477	0.578
11.4813	0.573
11.5149	0.566
11.5486	0.56
11.5822	0.551
11.6159	0.546
11.6495	0.538
11.6832	0.532
11.7168	0.524
11.7505	0.521
11.7841	0.516
11.8177	0.512
11.8514	0.509
11.885	0.502
11.9187	0.499
11.9523	0.494
11.986	0.487
12.0196	0.478
12.0532	0.47
12.0869	0.463
12.1205	0.453
12.1542	0.448
12.1878	0.441
12.2215	0.433
12.2551	0.426
12.2888	0.421
12.3224	0.416
12.356	0.411
12.3897	0.404
12.4233	0.401
12.457	0.395
12.4906	0.394
12.5243	0.394
12.5579	0.395
12.5916	0.395
12.6252	0.401
12.6588	0.404
12.6925	0.411
12.7261	0.417
12.7598	0.423
12.7934	0.429
12.8271	0.436
12.8607	0.439
12.8943	0.443
12.928	0.446
12.9616	0.448
12.9953	0.448
13.0289	0.448
13.0626	0.448
13.0962	0.445
13.1299	0.445
13.1635	0.443
13.1971	0.441
13.2308	0.441
13.2644	0.443
13.2981	0.441
13.3317	0.439
13.3654	0.434
13.399	0.431
13.4327	0.426
13.4663	0.417
13.4999	0.411
13.5336	0.406
13.5672	0.397
13.6009	0.387
13.6345	0.375
13.6682	0.365
13.7018	0.353
13.7354	0.341
13.7691	0.323
13.8027	0.301
13.8364	0.296
13.87	0.299
13.9037	0.311
13.9373	0.343
13.971	0.362
14.0046	0.384
14.0382	0.402
14.0719	0.426
14.1055	0.441
14.1392	0.455
14.1728	0.468
14.2065	0.48
14.2401	0.49
14.2737	0.499
14.3074	0.51
14.341	0.519
14.3747	0.529
14.4083	0.538
14.442	0.548
14.4756	0.551
14.5093	0.561
14.5429	0.57
14.5765	0.578
14.6102	0.587
14.6438	0.597
14.6775	0.6
14.7111	0.609
14.7448	0.614
14.7784	0.622
14.8121	0.629
14.8457	0.634
14.8793	0.639
14.913	0.648
14.9466	0.649
14.9803	0.651
15.0139	0.659
15.0476	0.664
15.0812	0.668
15.1148	0.671
15.1485	0.671
15.1821	0.673
15.2158	0.675
15.2494	0.675
15.2831	0.676
15.3167	0.676
15.3504	0.675
15.384	0.675
15.4176	0.675
