Infrared Spectrum: Triacetoxymethylsilane
Formula: C 7 H 12 O 6 Si
CAS: 4253-34-3
State: gas
Origin: EPA-IR VAPOR PHASE LIBRARY
1/CM	ABSORBANCE
549.9	0.00092004
559.547	0.0011549
569.193	0.0013799
578.84	0.00198
588.486	0.00266
598.133	0.00267
607.779	0.00221
617.426	0.00261
627.072	0.00313
636.719	0.00234
646.365	0.0018074
656.012	0.0015905
665.658	0.0016505
675.305	0.0017114
684.951	0.0014219
694.598	0.0015201
704.245	0.0016678
713.891	0.0019007
723.538	0.00226
733.184	0.00261
742.831	0.00277
752.477	0.00279
762.124	0.00274
771.77	0.00307
781.417	0.00415
791.063	0.00615
800.71	0.00847
810.356	0.01098
820.003	0.01213
829.649	0.00964
839.296	0.00691
848.943	0.00481
858.589	0.00363
868.236	0.00321
877.882	0.00297
887.529	0.00307
897.175	0.00326
906.822	0.0039
916.468	0.00516
926.115	0.00765
935.761	0.01306
945.408	0.02243
955.054	0.02749
964.701	0.01918
974.347	0.01134
983.994	0.00916
993.64	0.01015
1003.29	0.01375
1012.93	0.02087
1022.58	0.02274
1032.23	0.01552
1041.87	0.0096
1051.52	0.00721
1061.17	0.00582
1070.81	0.00542
1080.46	0.00552
1090.11	0.00531
1099.75	0.00464
1109.4	0.00379
1119.05	0.00334
1128.69	0.00311
1138.34	0.00333
1147.99	0.00385
1157.63	0.00515
1167.28	0.00748
1176.92	0.01285
1186.57	0.02327
1196.22	0.03981
1205.86	0.05396
1215.51	0.05083
1225.16	0.03496
1234.8	0.02068
1244.45	0.01497
1254.1	0.01361
1263.74	0.01199
1273.39	0.01261
1283.04	0.01019
1292.68	0.00465
1302.33	0.00294
1311.98	0.00241
1321.62	0.00223
1331.27	0.00228
1340.92	0.00244
1350.56	0.00317
1360.21	0.00613
1369.86	0.01447
1379.5	0.01391
1389.15	0.00549
1398.79	0.00348
1408.44	0.00324
1418.09	0.00288
1427.73	0.00276
1437.38	0.00253
1447.03	0.00211
1456.67	0.0016622
1466.32	0.0014243
1475.97	0.0013258
1485.61	0.0012845
1495.26	0.0012044
1504.91	0.001109
1514.55	0.0011862
1524.2	0.001149
1533.85	0.0011725
1543.49	0.0011732
1553.14	0.00125
1562.79	0.0012653
1572.43	0.0013001
1582.08	0.0013598
1591.73	0.001272
1601.37	0.0013154
1611.02	0.0013269
1620.67	0.0013497
1630.31	0.0014643
1639.96	0.0015332
1649.6	0.0014114
1659.25	0.0015209
1668.9	0.0014385
1678.54	0.0015951
1688.19	0.0017096
1697.84	0.00203
1707.48	0.00255
1717.13	0.00331
1726.78	0.00456
1736.42	0.00714
1746.07	0.01456
1755.72	0.02741
1765.36	0.03281
1775.01	0.0242
1784.66	0.01437
1794.3	0.01003
1803.95	0.00748
1813.6	0.00493
1823.24	0.00317
1832.89	0.00231
1842.54	0.0018383
1852.18	0.0016439
1861.83	0.001436
1871.47	0.0013899
1881.12	0.0013788
1890.77	0.0012645
1900.41	0.0011218
1910.06	0.0010749
1919.71	0.0010552
1929.35	0.00101216
1939	0.00101574
1948.65	0.0010061
1958.29	0.00099707
1967.94	0.00094974
1977.59	0.0009107
1987.23	0.000901
1996.88	0.0009098
2006.53	0.0009182
2016.17	0.0009132
2025.82	0.0008447
2035.47	0.0008334
2045.11	0.00079
2054.76	0.000804
2064.41	0.000707
2074.05	0.000786
2083.7	0.000684
2093.35	0.000692
2102.99	0.000744
2112.64	0.000705
2122.28	0.000685
2131.93	0.000735
2141.58	0.000725
2151.22	0.000756
2160.87	0.000762
2170.52	0.000768
2180.16	0.000749
2189.81	0.000767
2199.46	0.000743
2209.1	0.00076
2218.75	0.000712
2228.4	0.000728
2238.04	0.000666
2247.69	0.000657
2257.34	0.000661
2266.98	0.000667
2276.63	0.000669
2286.28	0.00063
2295.92	0.000649
2305.57	0.000683
2315.22	0.000659
2324.86	0.00064
2334.51	0.000657
2344.16	0.00059
2353.8	0.000598
2363.45	0.000601
2373.09	0.000646
2382.74	0.000579
2392.39	0.000589
2402.03	0.000623
2411.68	0.000665
2421.33	0.000638
2430.97	0.000628
2440.62	0.000579
2450.27	0.000582
2459.91	0.000609
2469.56	0.000577
2479.21	0.000548
2488.85	0.000524
2498.5	0.000531
2508.15	0.000501
2517.79	0.000408
2527.44	0.00052
2537.09	0.000481
2546.73	0.000463
2556.38	0.000474
2566.03	0.000461
2575.67	0.000478
2585.32	0.000492
2594.96	0.000457
2604.61	0.000463
2614.26	0.000398
2623.9	0.000376
2633.55	0.000333
2643.2	0.000433
2652.84	0.000409
2662.49	0.000392
2672.14	0.000474
2681.78	0.000404
2691.43	0.000396
2701.08	0.000403
2710.72	0.000452
2720.37	0.000249
2730.02	0.000391
2739.66	0.000316
2749.31	0.000313
2758.96	0.000231
2768.6	0.000256
2778.25	0.000253
2787.9	0.00041
2797.54	0.000312
2807.19	0.000234
2816.84	0.000324
2826.48	0.00033
2836.13	0.000337
2845.77	0.000257
2855.42	0.000328
2865.07	0.000222
2874.71	0.000384
2884.36	0.000317
2894.01	0.000311
2903.65	0.000452
2913.3	0.000501
2922.95	0.000385
2932.59	0.00046
2942.24	0.000756
2951.89	0.000586
2961.53	0.00065
2971.18	0.000578
2980.83	0.000807
2990.47	0.0008
3000.12	0.00077
3009.77	0.000611
3019.41	0.0008514
3029.06	0.00097213
3038.71	0.000731
3048.35	0.000495
3058	0.000392
3067.64	0.000499
3077.29	0.000567
3086.94	0.000437
3096.58	0.000306
3106.23	0.000443
3115.88	0.000243
3125.52	0.000416
3135.17	0.000362
3144.82	0.000313
3154.46	0.000248
3164.11	0.000341
3173.76	0.000295
3183.4	0.000182
3193.05	0.000397
3202.7	0.000259
3212.34	0.000411
3221.99	0.00025
3231.64	3.6e-05
3241.28	0.000387
3250.93	0.000301
3260.58	0.000191
3270.22	0.000233
3279.87	0.000281
3289.52	0.000301
3299.16	0.000343
3308.81	0.000435
3318.45	0.000718
3328.1	0.000465
3337.75	0.000336
3347.39	0.000513
3357.04	0.000439
3366.69	0.000354
3376.33	0.00047
3385.98	0.000436
3395.63	0.000337
3405.27	0.000428
3414.92	0.000459
3424.57	0.000567
3434.21	0.000514
3443.86	0.000668
3453.51	0.000474
3463.15	0.000719
3472.8	0.000719
3482.45	0.000713
3492.09	0.0008847
3501.74	0.000772
3511.39	0.000679
3521.03	0.000825
3530.68	0.000796
3540.33	0.000804
3549.97	0.0009118
3559.62	0.000796
3569.26	0.000805
3578.91	0.000705
3588.56	0.000619
3598.2	0.000828
3607.85	0.000676
3617.5	0.000464
3627.14	0.000542
3636.79	0.000612
3646.44	0.000449
3656.08	0.000644
3665.73	0.000606
3675.38	0.000438
3685.02	0.000543
3694.67	0.000708
3704.32	0.000664
3713.96	0.00076
3723.61	0.00064
3733.26	0.000634
3742.9	0.00062
3752.55	0.000518
3762.2	0.000637
3771.84	0.000502
3781.49	0.000723
3791.13	0.000642
3800.78	0.000384
3810.43	0.00062
3820.07	0.000657
3829.72	0.000677
3839.37	0.000535
3849.01	0.000504
3858.66	0.000545
3868.31	0.000577
3877.95	0.000648
3887.6	0.000605
3897.25	0.000505
3906.89	0.000748
3916.54	0.000559
3926.19	0.000631
3935.83	0.000692
3945.48	0.000442
3955.13	0.000687
3964.77	0.000572
3974.42	0.000576
3984.07	0.000674
3993.71	0.000683
