Infrared Spectrum: Cyclopentyl cyanide
Formula: C 6 H 9 N
CAS: 4254-02-8
State: gas
Instrument: HP-GC/MS/IRD
Origin: NIST Mass Spectrometry Data Center
1/CM	ABSORBANCE
550	0.000182
562	0.000286
574	0.0002314
586	0.0002158
598	0.0001092
610	1.04e-05
622	5.2e-05
634	2.86e-05
646	0.000117
658	0.0002054
670	0.0001534
682	0.0001898
694	0.0002782
706	0.0002652
718	0.000221
730	0.000156
742	0.0001716
754	0.000195
766	0.0001716
778	0.000182
790	0.0002392
802	0.0002496
814	0.0002704
826	0.000312
838	0.0002834
850	0.0003198
862	0.0003224
874	0.0004862
886	0.0006058
898	0.0006812
910	0.0006422
922	0.0006162
934	0.0005746
946	0.0005486
958	0.0004134
970	0.0002912
982	0.0001924
994	0.0001378
1006	0.000104
1018	0.0001742
1030	0.0001326
1042	0.0001976
1054	0.0001222
1066	0.0001378
1078	0.0001326
1090	8.84e-05
1102	0.0001144
1114	0.000143
1126	0.0001898
1138	0.0001768
1150	0.0002444
1162	0.0003354
1174	0.0003224
1186	0.0003016
1198	0.0003016
1210	0.0003354
1222	0.0003874
1234	0.0004264
1246	0.000377
1258	0.000338
1270	0.0003744
1282	0.0004004
1294	0.000468
1306	0.000624
1318	0.0007124
1330	0.0007696
1342	0.000702
1354	0.0004836
1366	0.0002782
1378	0.0002184
1390	0.0002496
1402	0.000338
1414	0.0004914
1426	0.0007696
1438	0.0013598
1450	0.002184
1462	0.0023088
1474	0.0018252
1486	0.0011258
1498	0.00065
1510	0.000351
1522	0.0001898
1534	0.0001222
1546	7.54e-05
1558	4.16e-05
1570	5.46e-05
1582	3.9e-05
1594	2.86e-05
1606	4.42e-05
1618	0
1630	3.9e-05
1642	5.2e-06
1654	2.6e-06
1666	2.08e-05
1678	4.68e-05
1690	1.3e-05
1702	3.9e-05
1714	5.46e-05
1726	3.64e-05
1738	4.16e-05
1750	2.6e-06
1762	1.3e-05
1774	2.86e-05
1786	2.34e-05
1798	3.64e-05
1810	3.12e-05
1822	2.6e-05
1834	1.3e-05
1846	4.68e-05
1858	3.38e-05
1870	4.16e-05
1882	4.16e-05
1894	2.6e-05
1906	2.08e-05
1918	2.34e-05
1930	3.9e-05
1942	1.82e-05
1954	5.98e-05
1966	2.08e-05
1978	3.38e-05
1990	2.34e-05
2002	4.42e-05
2014	5.2e-05
2026	4.68e-05
2038	5.46e-05
2050	3.38e-05
2062	3.12e-05
2074	5.98e-05
2086	5.2e-05
2098	4.42e-05
2110	6.24e-05
2122	5.72e-05
2134	6.76e-05
2146	9.1e-05
2158	0.0001326
2170	0.0001144
2182	0.0001248
2194	0.0001248
2206	0.0001612
2218	0.0003718
2230	0.0009334
2242	0.0012688
2254	0.0009984
2266	0.0002964
2278	0.0002262
2290	0.0001612
2302	0.0001612
2314	0.000182
2326	0.0001638
2338	0.0001508
2350	0.0001534
2362	0.0001118
2374	0.0001092
2386	8.06e-05
2398	0.0001144
2410	9.1e-05
2422	9.62e-05
2434	9.36e-05
2446	5.72e-05
2458	2.86e-05
2470	4.68e-05
2482	4.42e-05
2494	1.56e-05
2506	5.72e-05
2518	4.94e-05
2530	4.16e-05
2542	4.94e-05
2554	6.24e-05
2566	2.08e-05
2578	4.68e-05
2590	3.9e-05
2602	7.28e-05
2614	4.16e-05
2626	5.2e-05
2638	2.86e-05
2650	1.56e-05
2662	1.56e-05
2674	2.08e-05
2686	3.9e-05
2698	4.94e-05
2710	7.8e-05
2722	0.0001222
2734	0.0001508
2746	0.0002028
2758	0.000182
2770	0.0002496
2782	0.0003094
2794	0.0002912
2806	0.0003562
2818	0.0005148
2830	0.0007462
2842	0.0011804
2854	0.0019526
2866	0.0037778
2878	0.0067262
2890	0.0077636
2902	0.0071084
2914	0.0067366
2926	0.0083876
2938	0.011232
2950	0.0157274
2962	0.0218946
2974	0.0256594
2986	0.0203892
2998	0.0111202
3010	0.0049166
3022	0.002444
3034	0.00143
3046	0.0008372
3058	0.0006136
3070	0.0003848
3082	0.0003042
3094	0.000247
3106	0.0001794
3118	0.000169
3130	8.32e-05
3142	0.000143
3154	0.0001976
3166	0.000143
3178	0.0001664
3190	0.0001898
3202	0.0002158
3214	0.0002184
3226	0.0001898
3238	0.0002028
3250	0.0001664
3262	9.62e-05
3274	0.0001092
3286	0.0001404
3298	7.8e-05
3310	9.62e-05
3322	8.06e-05
3334	3.12e-05
3346	3.9e-05
3358	4.68e-05
3370	5.98e-05
3382	8.06e-05
3394	0.0001378
3406	9.88e-05
3418	8.58e-05
3430	8.06e-05
3442	9.62e-05
3454	7.02e-05
3466	0.0001378
3478	0.0001456
3490	0.0001118
3502	0.0001222
3514	0.0001404
3526	0.0001482
3538	0.0001144
3550	0.0001144
3562	0.000195
3574	0.0001534
3586	0.000195
3598	0.0001586
3610	0.0001456
3622	0.0001352
3634	0.0001456
3646	0.000143
3658	0.0001378
3670	0.0001846
3682	0.0001768
3694	0.0001534
3706	0.0001508
3718	0.000195
3730	0.0001612
3742	0.0001742
3754	0.000208
3766	0.0001794
3778	0.0001768
3790	0.0002288
3802	0.000208
3814	0.0001924
3826	0.000195
3838	0.000221
