Infrared Spectrum: Bifenox
Formula: C 14 H 9 Cl 2 N O 5
CAS: 42576-02-3
State: gas
Instrument: HP-GC/MS/IRD
Origin: NIST Mass Spectrometry Data Center
1/CM	ABSORBANCE
550	0.0037145
562	0.0031165
574	0.001288
586	0.000828
598	0.0004485
610	0.000207
622	4.6e-05
634	0.0007245
646	0.003059
658	0.003496
670	0.001357
682	0.0010235
694	0.001196
706	0.003312
718	0.004048
730	0.0029785
742	0.006486
754	0.007912
766	0.007452
778	0.005589
790	0.010304
802	0.009177
814	0.00805
826	0.0170315
838	0.015157
850	0.0095795
862	0.011937
874	0.0106145
886	0.005704
898	0.0042205
910	0.00667
922	0.007498
934	0.0017825
946	0.0012305
958	0.0014835
970	0.0044735
982	0.0156515
994	0.009821
1006	0.0022425
1018	0.0013455
1030	0.00207
1042	0.0053245
1054	0.0182735
1066	0.034362
1078	0.0110285
1090	0.0119715
1102	0.0329935
1114	0.0153065
1126	0.020079
1138	0.0151455
1150	0.00851
1162	0.00667
1174	0.0096255
1186	0.0184805
1198	0.0249895
1210	0.0209875
1222	0.025944
1234	0.0509105
1246	0.066654
1258	0.0728985
1270	0.079603
1282	0.115
1294	0.066401
1306	0.0411815
1318	0.0316595
1330	0.0219995
1342	0.03427
1354	0.055085
1366	0.0283245
1378	0.0183195
1390	0.0149155
1402	0.013984
1414	0.022103
1426	0.019458
1438	0.035144
1450	0.0230805
1462	0.0390195
1474	0.099981
1486	0.0350175
1498	0.0171465
1510	0.012719
1522	0.0169165
1534	0.030981
1546	0.0519685
1558	0.0393875
1570	0.037306
1582	0.034454
1594	0.031096
1606	0.0146165
1618	0.010396
1630	0.0054165
1642	0.0033925
1654	0.0025875
1666	0.002231
1678	0.00184
1690	0.0017595
1702	0.0022195
1714	0.0036455
1726	0.006946
1738	0.015709
1750	0.0332925
1762	0.0511175
1774	0.0239775
1786	0.0091425
1798	0.003496
1810	0.0019205
1822	0.0013915
1834	0.0012765
1846	0.001058
1858	0.0010235
1870	0.001058
1882	0.001242
1894	0.001081
1906	0.0009085
1918	0.00046
1930	0.0003105
1942	0.000299
1954	0.0003795
1966	0.000506
1978	0.0005405
1990	0.0004945
2002	0.000391
2014	0.000299
2026	0.000368
2038	0.00046
2050	0.000483
2062	0.0004255
2074	0.000483
2086	0.0004945
2098	0.0006785
2110	0.0008625
2122	0.000759
2134	0.000437
2146	0.0002645
2158	0.000115
2170	0.0001035
2182	8.05e-05
2194	5.75e-05
2206	3.45e-05
2218	2.3e-05
2230	1.15e-05
2242	0
2254	4.6e-05
2266	6.9e-05
2278	5.75e-05
2290	6.9e-05
2302	0.000138
2314	0.0001955
2326	0.000207
2338	0.000184
2350	0.000138
2362	0.0001265
2374	0.00023
2386	0.000322
2398	0.0003105
2410	0.0004025
2422	0.000506
2434	0.000575
2446	0.0005865
2458	0.000552
2470	0.0005865
2482	0.0005635
2494	0.000575
2506	0.000506
2518	0.0004485
2530	0.0003105
2542	0.000276
2554	0.0002415
2566	0.000184
2578	0.0002645
2590	0.000345
2602	0.000414
2614	0.000322
2626	0.00023
2638	0.000161
2650	0.000184
2662	0.0001955
2674	0.000276
2686	0.0002875
2698	0.0002415
2710	0.0002185
2722	0.000184
2734	0.000161
2746	9.2e-05
2758	8.05e-05
2770	0.000115
2782	8.05e-05
2794	0.000184
2806	0.000253
2818	0.00046
2830	0.00069
2842	0.0011845
2854	0.001564
2866	0.0013685
2878	0.001265
2890	0.0015755
2902	0.0017825
2914	0.001679
2926	0.0014835
2938	0.001702
2950	0.0033235
2962	0.010902
2974	0.0040825
2986	0.001633
2998	0.001564
3010	0.001909
3022	0.0018285
3034	0.001863
3046	0.0014605
3058	0.001173
3070	0.001472
3082	0.0017595
3094	0.001035
3106	0.0006325
3118	0.0004945
3130	0.000299
3142	0.00023
3154	0.000207
3166	0.0001955
3178	0.0001955
3190	0.0001955
3202	0.00023
3214	0.0001725
3226	0.0001035
3238	5.75e-05
3250	5.75e-05
3262	3.45e-05
3274	0.0001035
3286	0.000138
3298	0.0001265
3310	0.0001265
3322	0.000184
3334	6.9e-05
3346	0.0001265
3358	0.000115
3370	0.000161
3382	0.000184
3394	0.0001955
3406	0.000207
3418	0.000161
3430	0.0002185
3442	0.000253
3454	0.00023
3466	0.0003335
3478	0.000437
3490	0.000575
3502	0.000805
3514	0.000644
3526	0.000506
3538	0.0003795
3550	0.000253
3562	0.0002415
3574	0.00023
3586	0.000299
3598	0.000276
3610	0.000276
3622	0.000253
3634	0.000276
3646	0.0003105
3658	0.0003565
3670	0.000322
3682	0.0002875
3694	0.0003335
3706	0.000345
3718	0.0003335
3730	0.0004025
3742	0.000414
3754	0.000483
3766	0.000368
3778	0.0003335
3790	0.0003795
3802	0.000322
3814	0.000345
3826	0.0003335
3838	0.0003335
