Infrared Spectrum: PHOSPHONIC DIAMIDE, N,N'-DI-p-TOLYL
Formula: C14 H17 N2 O P
CAS: 42597-24-0
State: SOLID (KBr PELLET)
Class: COBLENTZ
Instrument: PERKIN-ELMER
Sampling: TRANSMISSION
Resolution: 4
Origin: STANDARD OIL OF OHIO
MICROMETERS	TRANSMITTANCE
1.993	0.915
2.02677	0.922
2.06054	0.925
2.0943	0.925
2.12807	0.923
2.16184	0.923
2.19561	0.927
2.22937	0.932
2.26314	0.928
2.29691	0.925
2.33068	0.923
2.36445	0.928
2.39821	0.932
2.43198	0.923
2.46575	0.923
2.49952	0.928
2.53328	0.93
2.56705	0.93
2.60082	0.932
2.63459	0.932
2.66836	0.932
2.70212	0.906
2.73589	0.822
2.76966	0.701
2.80343	0.603
2.83719	0.53
2.87096	0.488
2.90473	0.474
2.9385	0.471
2.97226	0.422
3.00603	0.298
3.0398	0.191
3.07357	0.176
3.10734	0.232
3.1411	0.366
3.17487	0.457
3.20864	0.494
3.24241	0.477
3.27617	0.423
3.30994	0.498
3.34371	0.51
3.37748	0.481
3.41125	0.477
3.44501	0.542
3.47878	0.591
3.51255	0.732
3.54632	0.798
3.58008	0.818
3.61385	0.822
3.64762	0.83
3.68139	0.866
3.71516	0.883
3.74892	0.888
3.78269	0.888
3.81646	0.888
3.85023	0.889
3.88399	0.888
3.91776	0.881
3.95153	0.879
3.9853	0.891
4.01907	0.906
4.05283	0.905
4.0866	0.894
4.12037	0.82
4.15414	0.616
4.1879	0.75
4.22167	0.781
4.25544	0.822
4.28921	0.854
4.32298	0.893
4.35674	0.911
4.39051	0.918
4.42428	0.92
4.45805	0.916
4.49181	0.916
4.52558	0.915
4.55935	0.918
4.59312	0.915
4.62689	0.915
4.66065	0.913
4.69442	0.911
4.72819	0.911
4.76196	0.911
4.79572	0.91
4.82949	0.911
4.86326	0.915
4.89703	0.913
4.93079	0.913
4.96456	0.913
4.99833	0.913
5.0321	0.915
5.06587	0.916
5.09963	0.92
5.1334	0.918
5.16717	0.916
5.20094	0.91
5.2347	0.889
5.26847	0.871
5.30224	0.825
5.33601	0.886
5.36978	0.908
5.40354	0.916
5.43731	0.925
5.47108	0.927
5.50485	0.928
5.53861	0.927
5.57238	0.916
5.60615	0.906
5.63992	0.9
5.67369	0.901
5.70745	0.906
5.74122	0.915
5.77499	0.915
5.80876	0.911
5.84252	0.903
5.87629	0.9
5.91006	0.9
5.94383	0.898
5.9776	0.866
6.01136	0.808
6.04513	0.735
6.0789	0.674
6.11267	0.484
6.14643	0.222
6.1802	0.418
6.21397	0.676
6.24774	0.672
6.28151	0.691
6.31527	0.755
6.34904	0.789
6.38281	0.801
6.41658	0.794
6.45034	0.769
6.48411	0.671
6.51788	0.396
6.55165	0.098
6.58542	0.03
6.61918	0.183
6.65295	0.437
6.68672	0.481
6.72049	0.442
6.75425	0.342
6.78802	0.249
6.82179	0.257
6.85556	0.281
6.88932	0.315
6.92309	0.383
6.95686	0.477
6.99063	0.591
7.0244	0.693
7.05816	0.732
7.09193	0.701
7.1257	0.616
7.15947	0.35
7.19323	0.115
7.227	0.22
7.26077	0.469
7.29454	0.608
7.32831	0.683
7.36207	0.728
7.39584	0.755
7.42961	0.75
7.46338	0.732
7.49714	0.732
7.53091	0.74
7.56468	0.701
7.59845	0.452
7.63222	0.276
7.66598	0.425
7.69975	0.415
7.73352	0.266
7.76729	0.086
7.80105	0.037
7.83482	0.128
7.86859	0.293
7.90236	0.462
7.93613	0.549
7.96989	0.557
8.00366	0.445
8.03743	0.232
8.0712	0.23
8.10496	0.281
8.13873	0.313
8.1725	0.371
8.20627	0.371
8.24004	0.388
8.2738	0.376
8.30757	0.294
8.34134	0.167
8.37511	0.098
8.40887	0.023
8.44264	0.059
8.47641	0.071
8.51018	0.008
8.54395	0.011
8.57771	0.137
8.61148	0.325
8.64525	0.455
8.67902	0.52
8.71278	0.598
8.74655	0.633
8.78032	0.655
8.81409	0.659
8.84785	0.598
8.88162	0.354
8.91539	0.394
8.94916	0.528
8.98293	0.589
9.01669	0.613
9.05046	0.666
9.08423	0.733
9.118	0.766
9.15176	0.783
9.18553	0.788
9.2193	0.789
9.25307	0.786
9.28684	0.777
9.3206	0.762
9.35437	0.744
9.38814	0.727
9.42191	0.715
9.45567	0.705
9.48944	0.681
9.52321	0.64
9.55698	0.549
9.59075	0.422
9.62451	0.335
9.65828	0.41
9.69205	0.5
9.72582	0.576
9.75958	0.593
9.79335	0.564
9.82712	0.51
9.86089	0.554
9.89466	0.657
9.92842	0.672
9.96219	0.662
9.99596	0.638
10.0297	0.611
10.0635	0.577
10.0973	0.53
10.131	0.479
10.1648	0.422
10.1986	0.383
10.2323	0.354
10.2661	0.318
10.2999	0.291
10.3336	0.235
10.3674	0.177
10.4012	0.118
10.4349	0.084
10.4687	0.067
10.5025	0.061
10.5362	0.028
10.57	0.013
10.6038	0.028
10.6375	0.115
10.6713	0.218
10.7051	0.276
10.7388	0.291
10.7726	0.296
10.8064	0.357
10.8402	0.41
10.8739	0.444
10.9077	0.452
10.9415	0.461
10.9752	0.501
11.009	0.544
11.0428	0.584
11.0765	0.618
11.1103	0.637
11.1441	0.645
11.1778	0.649
11.2116	0.649
11.2454	0.649
11.2791	0.65
11.3129	0.661
11.3467	0.672
11.3804	0.679
11.4142	0.672
11.448	0.661
11.4817	0.647
11.5155	0.611
11.5493	0.579
11.583	0.549
11.6168	0.55
11.6506	0.593
11.6843	0.649
11.7181	0.7
11.7519	0.718
11.7856	0.72
11.8194	0.715
11.8532	0.7
11.887	0.684
11.9207	0.669
11.9545	0.627
11.9883	0.528
12.022	0.384
12.0558	0.332
12.0896	0.327
12.1233	0.352
12.1571	0.338
12.1909	0.288
12.2246	0.266
12.2584	0.21
12.2922	0.161
12.3259	0.149
12.3597	0.13
12.3935	0.105
12.4272	0.1
12.461	0.194
12.4948	0.401
12.5285	0.559
12.5623	0.65
12.5961	0.713
12.6298	0.747
12.6636	0.755
12.6974	0.764
12.7311	0.772
12.7649	0.772
12.7987	0.772
12.8325	0.766
12.8662	0.764
12.9	0.766
12.9338	0.772
12.9675	0.779
13.0013	0.781
13.0351	0.766
13.0688	0.742
13.1026	0.728
13.1364	0.737
13.1701	0.766
13.2039	0.783
13.2377	0.794
13.2714	0.798
13.3052	0.8
13.339	0.8
13.3727	0.8
13.4065	0.8
13.4403	0.8
13.474	0.801
13.5078	0.803
13.5416	0.806
13.5753	0.808
13.6091	0.808
13.6429	0.808
13.6766	0.808
13.7104	0.806
13.7442	0.805
13.7779	0.805
13.8117	0.803
13.8455	0.8
13.8793	0.796
13.913	0.789
13.9468	0.788
13.9806	0.788
14.0143	0.789
14.0481	0.786
14.0819	0.772
14.1156	0.742
14.1494	0.701
14.1832	0.669
14.2169	0.657
14.2507	0.659
14.2845	0.689
14.3182	0.72
14.352	0.749
14.3858	0.762
14.4195	0.767
14.4533	0.771
14.4871	0.772
14.5208	0.772
14.5546	0.774
14.5884	0.772
14.6221	0.771
14.6559	0.769
14.6897	0.769
14.7234	0.767
14.7572	0.764
14.791	0.764
14.8247	0.764
14.8585	0.762
14.8923	0.762
14.9261	0.761
14.9598	0.761
14.9936	0.759
15.0274	0.747
15.0611	0.738
15.0949	0.732
15.1287	0.723
15.1624	0.716
15.1962	0.71
15.23	0.701
15.2637	0.691
15.2975	0.684
15.3313	0.674
15.365	0.664
15.3988	0.659
