Infrared Spectrum: ETHYL-A,A-DIBENZYLACETOACETATE
Formula: C20 H22 O3
CAS: 42597-26-2
Class: COBLENTZ
Instrument: Not specified, most likely a prism, grating, or hybrid spectrometer.
Sampling: TRANSMISSION
Resolution: 4
MICROMETERS	TRANSMITTANCE
1.993	0.922
2.02881	0.92
2.06463	0.916
2.10044	0.918
2.13625	0.92
2.17206	0.909
2.20788	0.909
2.24369	0.911
2.2795	0.901
2.31532	0.901
2.35113	0.901
2.38694	0.904
2.42276	0.892
2.45857	0.883
2.49438	0.899
2.53019	0.908
2.56601	0.916
2.60182	0.918
2.63763	0.92
2.67345	0.92
2.70926	0.915
2.74507	0.906
2.78088	0.902
2.8167	0.888
2.85251	0.878
2.88832	0.862
2.92414	0.851
2.95995	0.865
2.99576	0.879
3.03158	0.883
3.06739	0.886
3.1032	0.886
3.13901	0.879
3.17483	0.86
3.21064	0.786
3.24645	0.701
3.28227	0.584
3.31808	0.508
3.35389	0.48
3.3897	0.535
3.42552	0.567
3.46133	0.673
3.49714	0.802
3.53296	0.86
3.56877	0.883
3.60458	0.899
3.64039	0.902
3.67621	0.906
3.71202	0.909
3.74783	0.911
3.78365	0.911
3.81946	0.911
3.85527	0.909
3.89109	0.908
3.9269	0.908
3.96271	0.908
3.99852	0.906
4.03434	0.906
4.07015	0.904
4.10596	0.904
4.14178	0.902
4.17759	0.902
4.2134	0.908
4.24921	0.934
4.28503	0.943
4.32084	0.927
4.35665	0.897
4.39247	0.897
4.42828	0.895
4.46409	0.893
4.49991	0.892
4.53572	0.892
4.57153	0.893
4.60734	0.895
4.64316	0.895
4.67897	0.897
4.71478	0.897
4.7506	0.897
4.78641	0.897
4.82222	0.893
4.85803	0.892
4.89385	0.89
4.92966	0.892
4.96547	0.89
5.00129	0.879
5.0371	0.869
5.07291	0.835
5.10873	0.825
5.14454	0.858
5.18035	0.871
5.21616	0.863
5.25198	0.848
5.28779	0.826
5.3236	0.828
5.35942	0.862
5.39523	0.865
5.43104	0.849
5.46685	0.814
5.50267	0.798
5.53848	0.8
5.57429	0.796
5.61011	0.765
5.64592	0.703
5.68173	0.558
5.71754	0.146
5.75336	0.09
5.78917	0.075
5.82498	0.035
5.8608	0
5.89661	0.114
5.93242	0.547
5.96824	0.62
6.00405	0.659
6.03986	0.701
6.07567	0.722
6.11149	0.733
6.1473	0.745
6.18311	0.738
6.21893	0.533
6.25474	0.643
6.29055	0.657
6.32636	0.729
6.36218	0.777
6.39799	0.786
6.4338	0.777
6.46962	0.773
6.50543	0.8
6.54124	0.814
6.57706	0.807
6.61287	0.763
6.64868	0.6
6.68449	0.249
6.72031	0.466
6.75612	0.616
6.79193	0.602
6.82775	0.549
6.86356	0.395
6.89937	0.233
6.93518	0.213
6.971	0.385
7.00681	0.464
7.04262	0.501
7.07844	0.567
7.11425	0.63
7.15006	0.639
7.18588	0.593
7.22169	0.568
7.2575	0.597
7.29331	0.551
7.32913	0.335
7.36494	0.326
7.40075	0.21
7.43657	0.404
7.47238	0.498
7.50819	0.505
7.544	0.487
7.57982	0.473
7.61563	0.48
7.65144	0.5
7.68726	0.505
7.72307	0.489
7.75888	0.5
7.7947	0.484
7.83051	0.413
7.86632	0.323
7.90213	0.226
7.93795	0.233
7.97376	0.273
8.00957	0.257
8.04539	0.204
8.0812	0.159
8.11701	0.136
8.15282	0.137
8.18864	0.166
8.22445	0.194
8.26026	0.197
8.29608	0.18
8.33189	0.171
8.3677	0.155
8.40351	0.111
8.43933	0.083
8.47514	0.077
8.51095	0.098
8.54677	0.125
8.58258	0.153
8.61839	0.159
8.65421	0.151
8.69002	0.144
8.72583	0.185
8.76164	0.332
8.79746	0.446
8.83327	0.503
8.86908	0.567
8.9049	0.581
8.94071	0.572
8.97652	0.538
9.01233	0.503
9.04815	0.5
9.08396	0.521
9.11977	0.376
9.15559	0.28
9.1914	0.183
9.22721	0.151
9.26303	0.21
9.29884	0.367
9.33465	0.434
9.37046	0.466
9.40628	0.478
9.44209	0.454
9.4779	0.431
9.51372	0.485
9.54953	0.554
9.58534	0.57
9.62115	0.561
9.65697	0.51
9.69278	0.436
9.72859	0.399
9.76441	0.418
9.80022	0.406
9.83603	0.383
9.87185	0.385
9.90766	0.464
9.94347	0.524
9.97928	0.577
10.0151	0.651
10.0509	0.692
10.0867	0.699
10.1225	0.701
10.1583	0.703
10.1942	0.706
10.23	0.724
10.2658	0.743
10.3016	0.745
10.3374	0.743
10.3732	0.738
10.409	0.736
10.4449	0.734
10.4807	0.74
10.5165	0.75
10.5523	0.777
10.5881	0.807
10.6239	0.819
10.6597	0.828
10.6955	0.839
10.7314	0.848
10.7672	0.851
10.803	0.844
10.8388	0.818
10.8746	0.773
10.9104	0.734
10.9462	0.729
10.982	0.738
11.0179	0.772
11.0537	0.803
11.0895	0.825
11.1253	0.835
11.1611	0.835
11.1969	0.832
11.2327	0.823
11.2685	0.818
11.3044	0.818
11.3402	0.809
11.376	0.802
11.4118	0.791
11.4476	0.77
11.4834	0.708
11.5192	0.653
11.5551	0.607
11.5909	0.583
11.6267	0.575
11.6625	0.584
11.6983	0.625
11.7341	0.678
11.7699	0.706
11.8057	0.745
11.8416	0.772
11.8774	0.777
11.9132	0.77
11.949	0.772
11.9848	0.789
12.0206	0.805
12.0564	0.818
12.0922	0.821
12.1281	0.823
12.1639	0.821
12.1997	0.816
12.2355	0.809
12.2713	0.8
12.3071	0.795
12.3429	0.796
12.3788	0.805
12.4146	0.803
12.4504	0.796
12.4862	0.782
12.522	0.773
12.5578	0.757
12.5936	0.74
12.6294	0.719
12.6653	0.692
12.7011	0.674
12.7369	0.662
12.7727	0.662
12.8085	0.666
12.8443	0.673
12.8801	0.671
12.9159	0.673
12.9518	0.676
12.9876	0.687
13.0234	0.697
13.0592	0.689
13.095	0.584
13.1308	0.434
13.1666	0.349
13.2024	0.249
13.2383	0.217
13.2741	0.197
13.3099	0.208
13.3457	0.231
13.3815	0.247
13.4173	0.245
13.4531	0.24
13.489	0.259
13.5248	0.309
13.5606	0.383
13.5964	0.445
13.6322	0.5
13.668	0.526
13.7038	0.542
13.7396	0.556
13.7755	0.575
13.8113	0.595
13.8471	0.614
13.8829	0.628
13.9187	0.646
13.9545	0.653
13.9903	0.646
14.0261	0.602
14.062	0.452
14.0978	0.374
14.1336	0.273
14.1694	0.143
14.2052	0.097
14.241	0.063
14.2768	0.031
14.3126	0.026
14.3485	0.047
14.3843	0.106
14.4201	0.358
14.4559	0.494
14.4917	0.56
14.5275	0.6
14.5633	0.616
14.5992	0.63
14.635	0.643
14.6708	0.646
14.7066	0.65
14.7424	0.65
14.7782	0.653
14.814	0.655
14.8498	0.655
14.8857	0.662
14.9215	0.666
14.9573	0.669
14.9931	0.671
15.0289	0.666
15.0647	0.664
15.1005	0.657
15.1363	0.653
15.1722	0.646
15.208	0.632
15.2438	0.623
15.2796	0.616
15.3154	0.614
15.3512	0.609
15.387	0.595
15.4228	0.588
