Infrared Spectrum: Carbamic acid, butyl-, 3-hydroxy-2-methyl-2-propyl carbamate ester
Formula: C13 H26 N2 O4
CAS: 4268-36-4
State: SOLID (1 mg / 650 mg KBr DISC)
Class: COBLENTZ III
Instrument: PERKIN-ELMER 521 (GRATING)
Instrument parameters: FILTERS AT 3150, 2500, 2000, 1150, 700, 410. GRATING CHANGES: 2000, 630
Sampling: TRANSMISSION
Resolution: 2
Origin: SOUTHERN RESEARCH INSTITUTE
1/CM	TRANSMITTANCE
254	0.2053
264	0.2727
274	0.3892
284	0.4535
294	0.5065
304	0.5692
314	0.6168
324	0.6369
334	0.6993
344	0.739
354	0.7616
364	0.7816
374	0.8134
384	0.8424
394	0.8516
404	0.8565
414	0.861
424	0.8648
434	0.8678
444	0.8793
454	0.8887
464	0.8931
474	0.8966
484	0.8981
494	0.8975
504	0.8924
514	0.8833
524	0.8713
534	0.873
544	0.8655
554	0.8561
564	0.8474
574	0.8414
584	0.8387
594	0.8434
604	0.8296
614	0.8309
624	0.8331
634	0.8441
644	0.8628
654	0.8908
664	0.9158
674	0.9204
684	0.9372
694	0.9311
704	0.9363
714	0.9496
724	0.9328
734	0.9435
744	0.9565
754	0.9652
764	0.9342
774	0.8741
784	0.9409
794	0.9736
804	0.9792
814	0.9872
824	0.9908
834	0.9877
844	0.9818
854	0.9745
864	0.9713
874	0.9697
884	0.9666
894	0.9574
904	0.9641
914	0.9487
924	0.9412
934	0.9495
944	0.9419
954	0.9354
964	0.9453
974	0.9108
984	0.9138
994	0.923
1004	0.9096
1014	0.8626
1024	0.8438
1034	0.8691
1044	0.8272
1054	0.7458
1064	0.6753
1074	0.6685
1084	0.6594
1094	0.731
1104	0.7882
1114	0.8022
1124	0.7966
1134	0.7919
1144	0.74
1154	0.825
1164	0.8862
1174	0.8996
1184	0.8957
1194	0.8872
1204	0.8717
1214	0.8389
1224	0.7711
1234	0.7717
1244	0.671
1254	0.5941
1264	0.665
1274	0.6562
1284	0.6725
1294	0.706
1304	0.732
1314	0.7251
1324	0.6573
1334	0.5428
1344	0.592
1354	0.7702
1364	0.8219
1374	0.7278
1384	0.709
1394	0.7876
1404	0.6439
1414	0.6354
1424	0.7712
1434	0.8058
1444	0.7939
1454	0.761
1464	0.7344
1474	0.7341
1484	0.8569
1494	0.8793
1504	0.8539
1514	0.8098
1524	0.7257
1534	0.6037
1544	0.5921
1554	0.7207
1564	0.7873
1574	0.8446
1584	0.8404
1594	0.8015
1604	0.7083
1614	0.7907
1624	0.8419
1634	0.8626
1644	0.8626
1654	0.833
1664	0.7726
1674	0.573
1684	0.2118
1694	0.2187
1704	0.3526
1714	0.3815
1724	0.42
1734	0.5651
1744	0.6585
1754	0.8098
1764	0.867
1774	0.889
1784	0.9024
1794	0.9102
1804	0.9151
1814	0.9216
1824	0.9283
1834	0.9325
1844	0.9379
1854	0.9388
1864	0.9413
1874	0.9426
1884	0.9434
1894	0.944
1904	0.9441
1914	0.9438
1924	0.9437
1934	0.944
1944	0.9443
1954	0.944
1964	0.9423
1974	0.9416
1984	0.9412
1994	0.9363
2004	0.9343
2014	0.9355
2024	0.9365
2034	0.9375
2044	0.9374
2054	0.937
2064	0.9363
2074	0.936
2084	0.9359
2094	0.9358
2104	0.9357
2114	0.9354
2124	0.9351
2134	0.9349
2144	0.9357
2154	0.9376
2164	0.9373
2174	0.9336
2184	0.9326
2194	0.9324
2204	0.9314
2214	0.9312
2224	0.9308
2234	0.9308
2244	0.9309
2254	0.9308
2264	0.931
2274	0.9313
2284	0.9315
2294	0.9315
2304	0.9314
2314	0.9311
2324	0.9306
2334	0.931
2344	0.9309
2354	0.9298
2364	0.9289
2374	0.9282
2384	0.9276
2394	0.9271
2404	0.9266
2414	0.9258
2424	0.925
2434	0.9244
2444	0.9239
2454	0.9233
2464	0.9226
2474	0.9218
2484	0.9214
2494	0.9224
2504	0.9228
2514	0.921
2524	0.919
2534	0.9177
2544	0.9166
2554	0.9157
2564	0.9152
2574	0.9146
2584	0.915
2594	0.916
2604	0.9146
2614	0.9119
2624	0.9095
2634	0.9092
2644	0.9089
2654	0.9091
2664	0.9085
2674	0.9056
2684	0.9047
2694	0.9045
2704	0.9017
2714	0.8975
2724	0.892
2734	0.8904
2744	0.8927
2754	0.8956
2764	0.8963
2774	0.8948
2784	0.8926
2794	0.8896
2804	0.8853
2814	0.8769
2824	0.8697
2834	0.8585
2844	0.8224
2854	0.7692
2864	0.7317
2874	0.6822
2884	0.7275
2894	0.7127
2904	0.7096
2914	0.7005
2924	0.6393
2934	0.5905
2944	0.6261
2954	0.5339
2964	0.5143
2974	0.6273
2984	0.7192
2994	0.8007
3004	0.8258
3014	0.8373
3024	0.8415
3034	0.8448
3044	0.8465
3054	0.8469
3064	0.8471
3074	0.8473
3084	0.8476
3094	0.8476
3104	0.8449
3114	0.8431
3124	0.8418
3134	0.8327
3144	0.8306
3154	0.8192
3164	0.8046
3174	0.7912
3184	0.7744
3194	0.7635
3204	0.7615
3214	0.7621
3224	0.7573
3234	0.7438
3244	0.7223
3254	0.6985
3264	0.6704
3274	0.6553
3284	0.6568
3294	0.6422
3304	0.6054
3314	0.5677
3324	0.5242
3334	0.5194
3344	0.5102
3354	0.5048
3364	0.5173
3374	0.5331
3384	0.5343
3394	0.53
3404	0.5278
3414	0.5281
3424	0.5356
3434	0.5561
3444	0.5782
3454	0.6026
3464	0.6225
3474	0.6386
3484	0.653
3494	0.6631
3504	0.6717
3514	0.6831
3524	0.7004
3534	0.7171
3544	0.7312
3554	0.7446
3564	0.755
3574	0.7639
3584	0.7715
3594	0.7754
3604	0.7854
3614	0.7959
3624	0.8031
3634	0.8095
3644	0.8142
3654	0.8172
3664	0.8187
3674	0.818
3684	0.8145
3694	0.8192
3704	0.8222
3714	0.8269
3724	0.8292
3734	0.8313
3744	0.8298
3754	0.8268
3764	0.8264
3774	0.828
3784	0.8293
3794	0.8295
3804	0.829
3814	0.8284
3824	0.8276
3834	0.8257
3844	0.8219
3854	0.82
