Infrared Spectrum: Mandelic acid, Alpha-cyclopentyl
Formula: C13 H16 O3
CAS: 427-49-6
State: SOLID (SPLIT MULL), FLUOROLUBE FOR 3800-1330 CM^-^1, NUJOL FOR 1330-400 CM^-^1
Melting point: 146 C
Class: COBLENTZ III
Instrument: BECKMAN IR-9 (GRATING)
Instrument parameters: ORDER CHANGES: 670, 1200, 2000 CM^-^1
Sampling: TRANSMISSION
Resolution: 2
Origin: DOW CHEMICAL COMPANY
1/CM	TRANSMITTANCE
405	0.441
414	0.4393
423	0.5615
432	0.6404
441	0.693
450	0.7317
459	0.7571
468	0.7665
477	0.7688
486	0.7666
495	0.725
504	0.5778
513	0.6431
522	0.5458
531	0.4477
540	0.435
549	0.4401
558	0.5058
567	0.5876
576	0.6861
585	0.7738
594	0.8135
603	0.8282
612	0.8351
621	0.7975
630	0.7598
639	0.8316
648	0.8759
657	0.8809
666	0.821
675	0.424
684	0.4607
693	0.6993
702	0.0349
711	0.4327
720	0.1939
729	0.6854
738	0.7536
747	0.7628
756	0.2683
765	0.5671
774	0.7699
783	0.8054
792	0.8016
801	0.7684
810	0.77
819	0.7791
828	0.7803
837	0.7727
846	0.7456
855	0.7061
864	0.6343
873	0.6287
882	0.66
891	0.4817
900	0.5427
909	0.6378
918	0.6528
927	0.5505
936	0.6987
945	0.7347
954	0.769
963	0.594
972	0.7551
981	0.8182
990	0.8082
999	0.6278
1008	0.7652
1017	0.7211
1026	0.3284
1035	0.4593
1044	0.6709
1053	0.7027
1062	0.68
1071	0.5687
1080	0.3068
1089	0.5451
1098	0.3904
1107	0.1702
1116	0.0481
1125	0.2169
1134	0.4959
1143	0.5751
1152	0.5536
1161	0.3621
1170	0.1605
1179	0.3943
1188	0.3641
1197	0.0971
1206	0.3363
1215	0.4734
1224	0.1987
1233	0.0513
1242	0.174
1251	0.3555
1260	0.5403
1269	0.5654
1278	0.5397
1287	0.5324
1296	0.4825
1305	0.3754
1314	0.3028
1323	0.1928
1332	0.3227
1341	0.4963
1350	0.6072
1359	0.4298
1368	0.5143
1377	0.5492
1386	0.6328
1395	0.687
1404	0.7108
1413	0.7343
1422	0.7362
1431	0.744
1440	0.7459
1449	0.3764
1458	0.601
1467	0.7748
1476	0.7757
1485	0.7595
1494	0.739
1503	0.7614
1512	0.834
1521	0.8466
1530	0.8506
1539	0.8536
1548	0.854
1557	0.852
1566	0.8476
1575	0.8351
1584	0.7941
1593	0.7955
1602	0.7499
1611	0.7904
1620	0.792
1629	0.7905
1638	0.7802
1647	0.7605
1656	0.7396
1665	0.7194
1674	0.6328
1683	0.582
1692	0.5114
1701	0.2297
1710	0.0479
1719	0.0004
1728	0.0102
1737	0.3424
1746	0.5906
1755	0.6594
1764	0.7049
1773	0.7277
1782	0.7469
1791	0.7632
1800	0.775
1809	0.7844
1818	0.7922
1827	0.8005
1836	0.8168
1845	0.8316
1854	0.8376
1863	0.8425
1872	0.845
1881	0.8474
1890	0.8475
1899	0.8403
1908	0.8479
1917	0.8498
1926	0.8518
1935	0.8689
1944	0.8684
1953	0.8659
1962	0.8537
1971	0.8573
1980	0.8651
1989	0.8647
1998	0.8676
2007	0.8713
2016	0.873
2025	0.8732
2034	0.8733
2043	0.8726
2052	0.872
2061	0.8714
2070	0.8706
2079	0.8695
2088	0.8685
2097	0.8673
2106	0.8659
2115	0.8644
2124	0.863
2133	0.8605
2142	0.8578
2151	0.8552
2160	0.8525
2169	0.8498
2178	0.8468
2187	0.8438
2196	0.8408
2205	0.8378
2214	0.8348
2223	0.8314
2232	0.8279
2241	0.8242
2250	0.8205
2259	0.8168
2268	0.8132
2277	0.8097
2286	0.8062
2295	0.8032
2304	0.8005
2313	0.7976
2322	0.7947
2331	0.7897
2340	0.7853
2349	0.7806
2358	0.779
2367	0.778
2376	0.7787
2385	0.7812
2394	0.7849
2403	0.7812
2412	0.7759
2421	0.7688
2430	0.7616
2439	0.7542
2448	0.7469
2457	0.7394
2466	0.732
2475	0.7286
2484	0.7273
2493	0.7272
2502	0.7273
2511	0.7258
2520	0.7175
2529	0.7066
2538	0.695
2547	0.6816
2556	0.6671
2565	0.6505
2574	0.6328
2583	0.6192
2592	0.6057
2601	0.5898
2610	0.5771
2619	0.5728
2628	0.562
2637	0.5624
2646	0.5652
2655	0.5742
2664	0.5906
2673	0.6005
2682	0.6025
2691	0.6025
2700	0.6021
2709	0.5996
2718	0.5944
2727	0.5882
2736	0.5791
2745	0.5693
2754	0.5586
2763	0.5466
2772	0.5329
2781	0.5178
2790	0.5024
2799	0.4865
2808	0.4706
2817	0.4555
2826	0.4408
2835	0.4246
2844	0.4067
2853	0.384
2862	0.3374
2871	0.2001
2880	0.2015
2889	0.2929
2898	0.2972
2907	0.2744
2916	0.2272
2925	0.2182
2934	0.194
2943	0.1601
2952	0.1318
2961	0.0618
2970	0.1052
2979	0.1673
2988	0.2333
2997	0.253
3006	0.2611
3015	0.2656
3024	0.2699
3033	0.2747
3042	0.2825
3051	0.3015
3060	0.3108
3069	0.3159
3078	0.3227
3087	0.3506
3096	0.363
3105	0.3923
3114	0.4058
3123	0.4175
3132	0.4287
3141	0.4406
3150	0.4543
3159	0.4706
3168	0.49
3177	0.5103
3186	0.5297
3195	0.5498
3204	0.5715
3213	0.5895
3222	0.607
3231	0.6246
3240	0.64
3249	0.6534
3258	0.6658
3267	0.6755
3276	0.6799
3285	0.68
3294	0.6765
3303	0.6674
3312	0.657
3321	0.6523
3330	0.6517
3339	0.6535
3348	0.6503
3357	0.6356
3366	0.614
3375	0.5879
3384	0.553
3393	0.4997
3402	0.317
3411	0.1165
3420	0.0458
3429	0.0779
3438	0.2847
3447	0.4075
3456	0.5075
3465	0.5868
3474	0.692
3483	0.7238
3492	0.74
3501	0.7465
3510	0.7519
3519	0.758
3528	0.7699
3537	0.789
3546	0.802
3555	0.8127
3564	0.8214
3573	0.8263
3582	0.8285
3591	0.8306
3600	0.8313
3609	0.8319
3618	0.8326
3627	0.8328
3636	0.8329
3645	0.833
3654	0.8331
3663	0.833
3672	0.8329
3681	0.8329
3690	0.8328
3699	0.8325
3708	0.832
3717	0.8314
3726	0.8309
3735	0.8303
3744	0.8295
3753	0.8286
3762	0.8276
3771	0.8264
3780	0.8229
3789	0.8196
3798	0.8175
3807	0.8163
