Infrared Spectrum: 6-Chlorouracil
Formula: C 4 H 3 Cl N 2 O 2
CAS: 4270-27-3
State: gas
Origin: EPA-IR VAPOR PHASE LIBRARY
1/CM	ABSORBANCE
549.8	0.001749
559.445	0.002289
569.09	0.002919
578.734	0.002659
588.379	0.003269
598.024	0.0012147
607.669	0.002159
617.313	0.003099
626.958	0.006169
636.603	0.011979
646.248	0.020309
655.893	0.024119
665.537	0.014309
675.182	0.006799
684.827	0.003569
694.472	0.002799
704.116	0.003349
713.761	0.004059
723.406	0.003419
733.051	0.004509
742.695	0.008289
752.34	0.017819
761.985	0.011779
771.63	0.006339
781.275	0.004019
790.919	0.004639
800.564	0.008689
810.209	0.014149
819.854	0.014199
829.498	0.008259
839.143	0.003769
848.788	0.002709
858.433	0.001609
868.078	0.002029
877.722	0.002779
887.367	0.003399
897.012	0.002559
906.657	0.001839
916.301	0.001839
925.946	0.001709
935.591	0.002339
945.236	0.004669
954.88	0.009799
964.525	0.015349
974.17	0.022019
983.815	0.021969
993.46	0.015489
1003.1	0.006139
1012.75	0.004619
1022.39	0.003609
1032.04	0.003619
1041.68	0.003319
1051.33	0.002219
1060.97	0.002229
1070.62	0.003729
1080.26	0.006289
1089.91	0.007409
1099.55	0.003899
1109.2	0.001909
1118.84	0.001969
1128.49	0.0011994
1138.13	0.001589
1147.78	0.001989
1157.42	0.002149
1167.07	0.003479
1176.71	0.003409
1186.36	0.006709
1196	0.009769
1205.64	0.009309
1215.29	0.007969
1224.93	0.006559
1234.58	0.005239
1244.22	0.004879
1253.87	0.004729
1263.51	0.005289
1273.16	0.007109
1282.8	0.010599
1292.45	0.011479
1302.09	0.008589
1311.74	0.007099
1321.38	0.006409
1331.03	0.006249
1340.67	0.007149
1350.32	0.009049
1359.96	0.013519
1369.61	0.027779
1379.25	0.045649
1388.9	0.042349
1398.54	0.019969
1408.18	0.008869
1417.83	0.007499
1427.47	0.014019
1437.12	0.030989
1446.76	0.041999
1456.41	0.040489
1466.05	0.031349
1475.7	0.021919
1485.34	0.009889
1494.99	0.006509
1504.63	0.006569
1514.28	0.005839
1523.92	0.004969
1533.57	0.004269
1543.21	0.004209
1552.86	0.004919
1562.5	0.005769
1572.15	0.005559
1581.79	0.005919
1591.44	0.007929
1601.08	0.012479
1610.73	0.024959
1620.37	0.043899
1630.01	0.052329
1639.66	0.034999
1649.3	0.015519
1658.95	0.010899
1668.59	0.010899
1678.24	0.011969
1687.88	0.014899
1697.53	0.021119
1707.17	0.033319
1716.82	0.071599
1726.46	0.149059
1736.11	0.172359
1745.75	0.132239
1755.4	0.126069
1765.04	0.165919
1774.69	0.150269
1784.33	0.079029
1793.98	0.048679
1803.62	0.035769
1813.27	0.019669
1822.91	0.009159
1832.55	0.006199
1842.2	0.006499
1851.84	0.006969
1861.49	0.007429
1871.13	0.006539
1880.78	0.005219
1890.42	0.004709
1900.07	0.004169
1909.71	0.003599
1919.36	0.002909
1929	0.002979
1938.65	0.002739
1948.29	0.002779
1957.94	0.002689
1967.58	0.002619
1977.23	0.002309
1986.87	0.001929
1996.52	0.001879
2006.16	0.001749
2015.81	0.001729
2025.45	0.001709
2035.1	0.001669
2044.74	0.001749
2054.38	0.001799
2064.03	0.001719
2073.67	0.001539
2083.32	0.001449
2092.96	0.001579
2102.61	0.001519
2112.25	0.001469
2121.9	0.001579
2131.54	0.001439
2141.19	0.0014143
2150.83	0.001839
2160.48	0.002029
2170.12	0.001979
2179.77	0.001839
2189.41	0.001509
2199.06	0.001549
2208.7	0.001689
2218.35	0.001969
2227.99	0.002309
2237.64	0.002589
2247.28	0.002719
2256.92	0.002889
2266.57	0.002839
2276.21	0.002789
2285.86	0.002649
2295.5	0.002359
2305.15	0.002109
2314.79	0.002109
2324.44	0.002209
2334.08	0.002219
2343.73	0.002109
2353.37	0.002199
2363.02	0.002379
2372.66	0.002179
2382.31	0.001869
2391.95	0.001839
2401.6	0.001599
2411.24	0.001579
2420.89	0.001609
2430.53	0.001569
2440.18	0.001509
2449.82	0.001729
2459.47	0.001569
2469.11	0.001499
2478.75	0.001859
2488.4	0.001559
2498.04	0.001659
2507.69	0.001489
2517.33	0.001629
2526.98	0.001639
2536.62	0.001839
2546.27	0.001659
2555.91	0.001649
2565.56	0.001939
2575.2	0.001969
2584.85	0.001669
2594.49	0.001829
2604.14	0.001569
2613.78	0.001609
2623.43	0.001599
2633.07	0.001859
2642.72	0.001719
2652.36	0.001469
2662.01	0.001569
2671.65	0.001779
2681.29	0.001869
2690.94	0.001939
2700.58	0.002039
2710.23	0.002259
2719.87	0.002199
2729.52	0.002019
2739.16	0.001939
2748.81	0.002059
2758.45	0.002109
2768.1	0.002059
2777.74	0.001909
2787.39	0.001679
2797.03	0.001929
2806.68	0.001889
2816.32	0.001739
2825.97	0.001859
2835.61	0.001679
2845.26	0.001849
2854.9	0.001759
2864.55	0.001749
2874.19	0.001479
2883.84	0.001759
2893.48	0.001949
2903.12	0.001669
2912.77	0.001719
2922.41	0.001509
2932.06	0.0014107
2941.7	0.001909
2951.35	0.001559
2960.99	0.001699
2970.64	0.001629
2980.28	0.001759
2989.93	0.001779
2999.57	0.001709
3009.22	0.001809
3018.86	0.001919
3028.51	0.001769
3038.15	0.001529
3047.8	0.001559
3057.44	0.001769
3067.09	0.001899
3076.73	0.001959
3086.38	0.002169
3096.02	0.002169
3105.67	0.002399
3115.31	0.003419
3124.95	0.004029
3134.6	0.003959
3144.24	0.002959
3153.89	0.002099
3163.53	0.002219
3173.18	0.002179
3182.82	0.002219
3192.47	0.002029
3202.11	0.002219
3211.76	0.002399
3221.4	0.002369
3231.05	0.002369
3240.69	0.002509
3250.34	0.002479
3259.98	0.002409
3269.63	0.002239
3279.27	0.002279
3288.92	0.001859
3298.56	0.001989
3308.21	0.001959
3317.85	0.001899
3327.49	0.001659
3337.14	0.002179
3346.78	0.001909
3356.43	0.001679
3366.07	0.001909
3375.72	0.001769
3385.36	0.001779
3395.01	0.002019
3404.65	0.002389
3414.3	0.004499
3423.94	0.012049
3433.59	0.024669
3443.23	0.027149
3452.88	0.023089
3462.52	0.028089
3472.17	0.026549
3481.81	0.017159
3491.46	0.004919
3501.1	0.002929
3510.75	0.002919
3520.39	0.002459
3530.04	0.001899
3539.68	0.001899
3549.32	0.001489
3558.97	0.001439
3568.61	0.0012207
3578.26	0.0010766
3587.9	0.0008408
3597.55	0.0009064
3607.19	0.0010175
3616.84	0.0009035
3626.48	0.000847
3636.13	0.0008622
3645.77	0.0004975
3655.42	0.0005799
3665.06	0.0007093
3674.71	0.0008879
3684.35	0.0004449
3694	0.00048902
3703.64	0.0004131
3713.29	0.000443185
3722.93	0.00046739
3732.58	0.000259
3742.22	0.0008187
3751.86	0.0010585
3761.51	0.0003841
3771.15	0.0003946
3780.8	0.000315
3790.44	0.000266
3800.09	0.0005732
3809.73	0.0005744
3819.38	0.00016
3829.02	0.000241
3838.67	0.0004244
3848.31	0.000239
3857.96	0.000145
3867.6	0.0004168
3877.25	0.0005398
3886.89	0.0005579
3896.54	0.00047047
3906.18	0.0009909
3915.83	0.0007109
3925.47	0.000114
3935.12	0.000609
3944.76	0.0003593
3954.41	0.0006818
3964.05	0.001004
3973.69	0.0008421
3983.34	0.000597
3992.98	0.00043322
