Infrared Spectrum: 2-METHYL-4,4-DIMETHYLOL OXAZOLINE
Formula: C6 H11 N O3
CAS: 4271-18-5
State: SOLID (KBr PELLET)
Class: COBLENTZ
Instrument: PERKIN-ELMER
Sampling: TRANSMISSION
Resolution: 4
Origin: STANDARD OIL OF OHIO
MICROMETERS	TRANSMITTANCE
2.034	0.819
2.06784	0.819
2.10167	0.816
2.13551	0.816
2.16934	0.817
2.20318	0.819
2.23701	0.819
2.27085	0.804
2.30468	0.802
2.33852	0.809
2.37235	0.812
2.40619	0.812
2.44002	0.807
2.47386	0.798
2.50769	0.79
2.54153	0.783
2.57536	0.783
2.6092	0.79
2.64303	0.785
2.67687	0.773
2.7107	0.747
2.74454	0.672
2.77837	0.499
2.81221	0.306
2.84604	0.182
2.87988	0.112
2.91371	0.066
2.94755	0.04
2.98138	0.039
3.01522	0.083
3.04905	0.122
3.08289	0.134
3.11672	0.146
3.15056	0.16
3.18439	0.178
3.21823	0.202
3.25206	0.235
3.2859	0.269
3.31973	0.294
3.35357	0.281
3.3874	0.226
3.42124	0.202
3.45507	0.209
3.48891	0.231
3.52274	0.264
3.55658	0.298
3.59041	0.34
3.62425	0.379
3.65808	0.393
3.69192	0.422
3.72576	0.449
3.75959	0.47
3.79343	0.492
3.82726	0.524
3.8611	0.55
3.89493	0.572
3.92877	0.594
3.9626	0.621
3.99644	0.643
4.03027	0.664
4.06411	0.684
4.09794	0.701
4.13178	0.715
4.16561	0.729
4.19945	0.746
4.23328	0.761
4.26712	0.77
4.30095	0.781
4.33479	0.797
4.36862	0.809
4.40246	0.819
4.43629	0.826
4.47013	0.831
4.50396	0.834
4.5378	0.839
4.57163	0.841
4.60547	0.844
4.6393	0.844
4.67314	0.841
4.70697	0.834
4.74081	0.831
4.77464	0.827
4.80848	0.826
4.84231	0.826
4.87615	0.831
4.90998	0.836
4.94382	0.838
4.97765	0.839
5.01149	0.841
5.04532	0.841
5.07916	0.839
5.11299	0.839
5.14683	0.838
5.18066	0.834
5.2145	0.833
5.24833	0.833
5.28217	0.834
5.31601	0.833
5.34984	0.829
5.38368	0.829
5.41751	0.831
5.45135	0.827
5.48518	0.824
5.51902	0.819
5.55285	0.81
5.58669	0.804
5.62052	0.792
5.65436	0.781
5.68819	0.764
5.72203	0.751
5.75586	0.73
5.7897	0.701
5.82353	0.659
5.85737	0.557
5.8912	0.483
5.92504	0.272
5.95887	0.107
5.99271	0.054
6.02654	0.107
6.06038	0.301
6.09421	0.39
6.12805	0.444
6.16188	0.471
6.19572	0.504
6.22955	0.502
6.26339	0.477
6.29722	0.468
6.33106	0.512
6.36489	0.553
6.39873	0.572
6.43256	0.611
6.4664	0.623
6.50023	0.637
6.53407	0.642
6.5679	0.638
6.60174	0.63
6.63557	0.613
6.66941	0.584
6.70324	0.541
6.73708	0.499
6.77091	0.388
6.80475	0.31
6.83858	0.281
6.87242	0.289
6.90625	0.294
6.94009	0.299
6.97393	0.294
7.00776	0.325
7.0416	0.366
7.07543	0.378
7.10927	0.327
7.1431	0.218
7.17694	0.143
7.21077	0.132
7.24461	0.219
7.27844	0.311
7.31228	0.405
7.34611	0.407
7.37995	0.396
7.41378	0.47
7.44762	0.512
7.48145	0.521
7.51529	0.504
7.54912	0.446
7.58296	0.362
7.61679	0.339
7.65063	0.379
7.68446	0.415
7.7183	0.424
7.75213	0.405
7.78597	0.379
7.8198	0.356
7.85364	0.238
7.88747	0.166
7.92131	0.216
7.95514	0.243
7.98898	0.252
8.02281	0.269
8.05665	0.291
8.09048	0.315
8.12432	0.315
8.15815	0.318
8.19199	0.342
8.22582	0.391
8.25966	0.477
8.29349	0.533
8.32733	0.551
8.36116	0.545
8.395	0.483
8.42883	0.403
8.46267	0.413
8.4965	0.47
8.53034	0.504
8.56418	0.514
8.59801	0.509
8.63185	0.504
8.66568	0.502
8.69952	0.499
8.73335	0.453
8.76719	0.413
8.80102	0.509
8.83486	0.529
8.86869	0.536
8.90253	0.553
8.93636	0.562
8.9702	0.568
9.00403	0.574
9.03787	0.577
9.0717	0.58
9.10554	0.56
9.13937	0.509
9.17321	0.427
9.20704	0.354
9.24088	0.349
9.27471	0.357
9.30855	0.306
9.34238	0.255
9.37622	0.189
9.41005	0.144
9.44389	0.129
9.47772	0.12
9.51156	0.117
9.54539	0.114
9.57923	0.105
9.61306	0.086
9.6469	0.063
9.68073	0.028
9.71457	0.015
9.7484	0.018
9.78224	0.042
9.81607	0.109
9.84991	0.202
9.88374	0.258
9.91758	0.311
9.95141	0.32
9.98525	0.243
10.0191	0.129
10.0529	0.117
10.0868	0.151
10.1206	0.209
10.1544	0.252
10.1883	0.277
10.2221	0.296
10.2559	0.321
10.2898	0.359
10.3236	0.408
10.3574	0.463
10.3913	0.516
10.4251	0.545
10.4589	0.563
10.4928	0.57
10.5266	0.516
10.5604	0.395
10.5943	0.347
10.6281	0.316
10.662	0.332
10.6958	0.367
10.7296	0.395
10.7635	0.424
10.7973	0.461
10.8311	0.529
10.865	0.572
10.8988	0.601
10.9326	0.618
10.9665	0.633
11.0003	0.649
11.0341	0.655
11.068	0.652
11.1018	0.642
11.1356	0.62
11.1695	0.601
11.2033	0.575
11.2371	0.557
11.271	0.524
11.3048	0.497
11.3387	0.458
11.3725	0.449
11.4063	0.461
11.4402	0.495
11.474	0.558
11.5078	0.608
11.5417	0.637
11.5755	0.654
11.6093	0.666
11.6432	0.671
11.677	0.669
11.7108	0.662
11.7447	0.645
11.7785	0.614
11.8123	0.567
11.8462	0.526
11.88	0.526
11.9139	0.546
11.9477	0.568
11.9815	0.584
12.0154	0.594
12.0492	0.603
12.083	0.611
12.1169	0.618
12.1507	0.623
12.1845	0.633
12.2184	0.637
12.2522	0.638
12.286	0.64
12.3199	0.64
12.3537	0.637
12.3875	0.633
12.4214	0.626
12.4552	0.616
12.489	0.609
12.5229	0.604
12.5567	0.604
12.5906	0.604
12.6244	0.603
12.6582	0.601
12.6921	0.592
12.7259	0.592
12.7597	0.599
12.7936	0.604
12.8274	0.604
12.8612	0.606
12.8951	0.609
12.9289	0.611
12.9627	0.613
12.9966	0.614
13.0304	0.614
13.0642	0.613
13.0981	0.611
13.1319	0.611
13.1657	0.609
13.1996	0.609
13.2334	0.608
13.2673	0.604
13.3011	0.603
13.3349	0.599
13.3688	0.594
13.4026	0.589
13.4364	0.586
13.4703	0.584
13.5041	0.58
13.5379	0.577
13.5718	0.572
13.6056	0.568
13.6394	0.565
13.6733	0.562
13.7071	0.558
13.7409	0.555
13.7748	0.55
13.8086	0.545
13.8425	0.541
13.8763	0.536
13.9101	0.533
13.944	0.529
13.9778	0.524
14.0116	0.521
14.0455	0.514
14.0793	0.511
14.1131	0.505
14.147	0.5
14.1808	0.497
14.2146	0.49
14.2485	0.485
14.2823	0.482
14.3161	0.477
14.35	0.475
14.3838	0.471
14.4176	0.466
14.4515	0.463
14.4853	0.459
14.5192	0.454
14.553	0.451
14.5868	0.446
14.6207	0.436
14.6545	0.425
14.6883	0.417
14.7222	0.408
14.756	0.4
14.7898	0.391
14.8237	0.385
14.8575	0.386
14.8913	0.388
14.9252	0.393
14.959	0.4
14.9928	0.41
15.0267	0.422
15.0605	0.424
15.0944	0.422
15.1282	0.419
15.162	0.412
15.1959	0.4
15.2297	0.391
15.2635	0.379
15.2974	0.371
15.3312	0.362
15.365	0.359
15.3989	0.356
