Infrared Spectrum: N,N-DIETHYL DODECYL AMINE
Formula: C16 H35 N
CAS: 4271-27-6
Boiling point: 132-134 C AT 2 mmHg
Class: COBLENTZ
Instrument: Not specified, most likely a prism, grating, or hybrid spectrometer.
Sampling: TRANSMISSION
Resolution: 4
Origin: WYANDOTTE CHEMICALS CORP., WYANDOTTE, MICHIGAN, USA
MICROMETERS	TRANSMITTANCE
2.011	0.973
2.04977	0.975
2.08854	0.973
2.12732	0.972
2.16609	0.951
2.20486	0.905
2.24363	0.904
2.28241	0.918
2.32118	0.912
2.35995	0.917
2.39872	0.923
2.43749	0.931
2.47627	0.938
2.51504	0.946
2.55381	0.952
2.59258	0.954
2.63136	0.969
2.67013	0.964
2.7089	0.969
2.74767	0.969
2.78644	0.97
2.82522	0.973
2.86399	0.959
2.90276	0.959
2.94153	0.956
2.9803	0.954
3.01908	0.951
3.05785	0.943
3.09662	0.93
3.13539	0.915
3.17417	0.908
3.21294	0.894
3.25171	0.858
3.29048	0.769
3.32925	0.46
3.36803	0
3.4068	0.024
3.44557	0.035
3.48434	0.071
3.52312	0.154
3.56189	0.17
3.60066	0.217
3.63943	0.495
3.6782	0.586
3.71698	0.71
3.75575	0.752
3.79452	0.816
3.83329	0.853
3.87207	0.865
3.91084	0.879
3.94961	0.904
3.98838	0.917
4.02715	0.925
4.06593	0.931
4.1047	0.931
4.14347	0.93
4.18224	0.93
4.22102	0.93
4.25979	0.938
4.29856	0.954
4.33733	0.962
4.3761	0.951
4.41488	0.938
4.45365	0.938
4.49242	0.939
4.53119	0.944
4.56996	0.949
4.60874	0.946
4.64751	0.946
4.68628	0.943
4.72505	0.939
4.76383	0.943
4.8026	0.949
4.84137	0.951
4.88014	0.947
4.91891	0.947
4.95769	0.947
4.99646	0.936
5.03523	0.934
5.074	0.934
5.11278	0.938
5.15155	0.939
5.19032	0.939
5.22909	0.938
5.26786	0.943
5.30664	0.943
5.34541	0.938
5.38418	0.938
5.42295	0.939
5.46173	0.936
5.5005	0.934
5.53927	0.934
5.57804	0.939
5.61681	0.933
5.65559	0.938
5.69436	0.931
5.73313	0.93
5.7719	0.918
5.81068	0.91
5.84945	0.908
5.88822	0.902
5.92699	0.904
5.96576	0.917
6.00454	0.918
6.04331	0.917
6.08208	0.918
6.12085	0.92
6.15962	0.915
6.1984	0.918
6.23717	0.918
6.27594	0.918
6.31471	0.915
6.35349	0.915
6.39226	0.91
6.43103	0.908
6.4698	0.9
6.50857	0.897
6.54735	0.889
6.58612	0.878
6.62489	0.858
6.66366	0.824
6.70244	0.731
6.74121	0.547
6.77998	0.136
6.81875	0.196
6.85752	0.315
6.8963	0.426
6.93507	0.585
6.97384	0.733
7.01261	0.795
7.05139	0.803
7.09016	0.791
7.12893	0.747
7.1677	0.624
7.20647	0.352
7.24525	0.282
7.28402	0.343
7.32279	0.504
7.36156	0.575
7.40033	0.596
7.43911	0.614
7.47788	0.673
7.51665	0.723
7.55542	0.721
7.5942	0.676
7.63297	0.627
7.67174	0.57
7.71051	0.526
7.74928	0.538
7.78806	0.642
7.82683	0.707
7.8656	0.734
7.90437	0.767
7.94315	0.767
7.98192	0.762
8.02069	0.762
8.05946	0.769
8.09823	0.739
8.13701	0.71
8.17578	0.676
8.21455	0.606
8.25332	0.512
8.2921	0.391
8.33087	0.421
8.36964	0.59
8.40841	0.679
8.44718	0.721
8.48596	0.736
8.52473	0.743
8.5635	0.741
8.60227	0.738
8.64105	0.743
8.67982	0.747
8.71859	0.756
8.75736	0.738
8.79613	0.712
8.83491	0.718
8.87368	0.731
8.91245	0.704
8.95122	0.66
8.98999	0.627
9.02877	0.585
9.06754	0.547
9.10631	0.513
9.14508	0.476
9.18386	0.44
9.22263	0.435
9.2614	0.442
9.30017	0.417
9.33894	0.406
9.37772	0.471
9.41649	0.549
9.45526	0.622
9.49403	0.687
9.53281	0.728
9.57158	0.744
9.61035	0.756
9.64912	0.772
9.68789	0.783
9.72667	0.786
9.76544	0.8
9.80421	0.804
9.84298	0.808
9.88176	0.809
9.92053	0.806
9.9593	0.804
9.99807	0.8
10.0368	0.801
10.0756	0.808
10.1144	0.822
10.1532	0.824
10.1919	0.827
10.2307	0.832
10.2695	0.837
10.3082	0.847
10.347	0.848
10.3858	0.852
10.4246	0.85
10.4633	0.858
10.5021	0.865
10.5409	0.869
10.5797	0.876
10.6184	0.887
10.6572	0.892
10.696	0.897
10.7347	0.894
10.7735	0.889
10.8123	0.886
10.8511	0.879
10.8898	0.868
10.9286	0.868
10.9674	0.865
11.0061	0.868
11.0449	0.865
11.0837	0.863
11.1225	0.863
11.1612	0.866
11.2	0.869
11.2388	0.866
11.2776	0.865
11.3163	0.865
11.3551	0.874
11.3939	0.871
11.4326	0.871
11.4714	0.876
11.5102	0.876
11.549	0.874
11.5877	0.873
11.6265	0.873
11.6653	0.871
11.704	0.865
11.7428	0.871
11.7816	0.865
11.8204	0.866
11.8591	0.865
11.8979	0.863
11.9367	0.863
11.9755	0.865
12.0142	0.858
12.053	0.858
12.0918	0.858
12.1305	0.856
12.1693	0.852
12.2081	0.843
12.2469	0.83
12.2856	0.816
12.3244	0.811
12.3632	0.8
12.4019	0.785
12.4407	0.77
12.4795	0.769
12.5183	0.759
12.557	0.751
12.5958	0.744
12.6346	0.736
12.6734	0.731
12.7121	0.726
12.7509	0.734
12.7897	0.73
12.8284	0.72
12.8672	0.718
12.906	0.715
12.9448	0.717
12.9835	0.715
13.0223	0.712
13.0611	0.715
13.0998	0.718
13.1386	0.723
13.1774	0.734
13.2162	0.746
13.2549	0.76
13.2937	0.778
13.3325	0.782
13.3713	0.785
13.41	0.783
13.4488	0.783
13.4876	0.783
13.5263	0.777
13.5651	0.772
13.6039	0.767
13.6427	0.754
13.6814	0.743
13.7202	0.73
13.759	0.717
13.7977	0.682
13.8365	0.652
13.8753	0.626
13.9141	0.613
13.9528	0.624
13.9916	0.661
14.0304	0.691
14.0692	0.721
14.1079	0.756
14.1467	0.782
14.1855	0.809
14.2242	0.817
14.263	0.84
14.3018	0.85
14.3406	0.865
14.3793	0.866
14.4181	0.873
14.4569	0.879
14.4956	0.884
14.5344	0.889
14.5732	0.892
14.612	0.892
14.6507	0.892
14.6895	0.894
14.7283	0.892
14.7671	0.892
14.8058	0.892
14.8446	0.892
14.8834	0.892
14.9221	0.891
14.9609	0.889
14.9997	0.884
15.0385	0.871
15.0772	0.861
15.116	0.871
15.1548	0.878
15.1935	0.881
15.2323	0.876
15.2711	0.876
15.3099	0.874
15.3486	0.873
15.3874	0.868
15.4262	0.866
15.465	0.866
15.5037	0.855
15.5425	0.852
15.5813	0.853
15.62	0.852
15.6588	0.852
15.6976	0.848
15.7364	0.845
15.7751	0.837
15.8139	0.837
15.8527	0.835
15.8914	0.832
15.9302	0.83
15.969	0.83
