Infrared Spectrum: 4-Undecanol
Formula: C 11 H 24 O
CAS: 4272-06-4
State: gas
Instrument: HP-GC/MS/IRD
Origin: NIST Mass Spectrometry Data Center
1/CM	ABSORBANCE
550	0.00247
562	0.0003744
574	0.0001664
586	0.000156
598	0.0001716
610	0.0002288
622	0.0002184
634	0.0002808
646	0.0001664
658	0.0002028
670	0.0003796
682	0.0002912
694	0.0004004
706	0.0005096
718	0.000806
730	0.000832
742	0.0008736
754	0.0007852
766	0.0007332
778	0.0007384
790	0.0006188
802	0.0006812
814	0.0008424
826	0.0010192
838	0.0012948
850	0.001326
862	0.001222
874	0.0011752
886	0.0012844
898	0.0014196
910	0.0013884
922	0.0013052
934	0.0013416
946	0.0015704
958	0.0018564
970	0.0024804
982	0.0036452
994	0.00455
1006	0.0040664
1018	0.0035672
1030	0.003354
1042	0.0030576
1054	0.0030888
1066	0.0032032
1078	0.003094
1090	0.0030524
1102	0.0031772
1114	0.0034788
1126	0.003874
1138	0.0034008
1150	0.0023972
1162	0.0019916
1174	0.002106
1186	0.0022724
1198	0.0024856
1210	0.0027248
1222	0.002834
1234	0.0027872
1246	0.0028652
1258	0.0029432
1270	0.00286
1282	0.0026884
1294	0.0024648
1306	0.0023712
1318	0.0022672
1330	0.0024336
1342	0.0028444
1354	0.0033696
1366	0.0038844
1378	0.004368
1390	0.0038792
1402	0.002808
1414	0.002184
1426	0.00221
1438	0.0028964
1450	0.0043992
1462	0.0053872
1474	0.003822
1486	0.0020228
1498	0.0011908
1510	0.000702
1522	0.00052
1534	0.0006188
1546	0.0005408
1558	5.72e-05
1570	0.0005616
1582	0.000728
1594	0.000702
1606	0.0006708
1618	0.0004628
1630	0.0006032
1642	0.0005356
1654	0.0001144
1666	0.0005148
1678	0.0004576
1690	0.0004888
1702	0.0001976
1714	0.0003588
1726	0.0005772
1738	0.0003276
1750	0.0003536
1762	0.0004316
1774	0.0003276
1786	0.0004628
1798	0.0004368
1810	0.0004836
1822	0.000494
1834	0.0004472
1846	0.0003692
1858	0.0004784
1870	0.0003848
1882	0.0004732
1894	0.0004368
1906	0.000442
1918	0.0003692
1930	0.0004264
1942	0.0004004
1954	0.0004056
1966	0.00039
1978	0.0004004
1990	0.0003744
2002	0.0003848
2014	0.0003848
2026	0.00039
2038	0.00039
2050	0.0003744
2062	0.0003692
2074	0.0003536
2086	0.0003432
2098	0.0003224
2110	0.0003224
2122	0.0003172
2134	0.000286
2146	0.0002756
2158	0.000286
2170	0.000286
2182	0.000286
2194	0.0002756
2206	0.0002496
2218	0.0002392
2230	0.000234
2242	0.0002392
2254	0.000234
2266	0.0002444
2278	0.0002132
2290	0.000234
2302	0.0002184
2314	0.0002028
2326	0.0001872
2338	0.0001872
2350	0.0001924
2362	0.0001924
2374	0.0001768
2386	0.000182
2398	0.0001768
2410	0.0001508
2422	0.0001352
2434	0.0001352
2446	0.00013
2458	0.00013
2470	9.36e-05
2482	9.88e-05
2494	8.84e-05
2506	8.84e-05
2518	0.00013
2530	0.0001664
2542	0.000156
2554	0.0001768
2566	0.0002444
2578	0.0002652
2590	0.0003016
2602	0.0003328
2614	0.0003796
2626	0.0004524
2638	0.0004888
2650	0.0005304
2662	0.0006136
2674	0.0006812
2686	0.000702
2698	0.0006864
2710	0.0007384
2722	0.0007488
2734	0.000884
2746	0.0009672
2758	0.0010296
2770	0.0011128
2782	0.0013052
2794	0.0016224
2806	0.002028
2818	0.0027144
2830	0.0039468
2842	0.0067652
2854	0.0134056
2866	0.01976
2878	0.01976
2890	0.017498
2902	0.01859
2914	0.0278512
2926	0.0445172
2938	0.05096
2950	0.034814
2962	0.0298428
2974	0.0245752
2986	0.0100828
2998	0.005252
3010	0.00338
3022	0.0024076
3034	0.0018564
3046	0.001456
3058	0.0011856
3070	0.000988
3082	0.0008112
3094	0.0007228
3106	0.0006344
3118	0.0005512
3130	0.0005096
3142	0.0004472
3154	0.000442
3166	0.0004056
3178	0.0003744
3190	0.0003536
3202	0.0003328
3214	0.0002288
3226	0.0001976
3238	0.000208
3250	0.0001768
3262	0.0001404
3274	0.0001664
3286	0.0001248
3298	0.0001768
3310	0.0001404
3322	0.0001196
3334	0.0001196
3346	0.0001508
3358	0.0001404
3370	0.0001716
3382	0.0001508
3394	0.0002132
3406	0.0001716
3418	0.000208
3430	0.000208
3442	0.0002184
3454	0.0002028
3466	0.0001404
3478	0.0001508
3490	0.0001924
3502	0.00013
3514	0.0001248
3526	0.0001092
3538	0.0001456
3550	7.28e-05
3562	5.72e-05
3574	0.0001352
3586	4.68e-05
3598	0.0001716
3610	0.0001456
3622	0.0004264
3634	0.0007748
3646	0.0013052
3658	0.0017472
3670	0.0006604
3682	0.0004004
3694	0.0002236
3706	0.000156
3718	0.0001196
3730	2.08e-05
3742	1.04e-05
3754	1.04e-05
3766	0.0001144
3778	0.0001716
3790	0.0002132
3802	0
3814	4.68e-05
3826	0.0001196
3838	1.04e-05
