Infrared Spectrum: 1-Bromoeicosane
Formula: C 20 H 41 Br
CAS: 4276-49-7
State: gas
Origin: EPA-IR VAPOR PHASE LIBRARY
1/CM	ABSORBANCE
549.9	0.00120955
559.547	0.00282
569.193	0.00543
578.84	0.00318
588.486	0.001076
598.133	0.000563
607.779	0.000537
617.426	0.00085
627.072	0.0017612
636.719	0.00368
646.365	0.00661
656.012	0.00577
665.658	0.00245
675.305	0.0014497
684.951	0.0016141
694.598	0.00275
704.245	0.00518
713.891	0.0083
723.538	0.00909
733.184	0.00756
742.831	0.00621
752.477	0.00508
762.124	0.00419
771.77	0.00352
781.417	0.00295
791.063	0.00265
800.71	0.00252
810.356	0.00228
820.003	0.002085
829.649	0.0020102
839.296	0.0018727
848.943	0.0018915
858.589	0.0018601
868.236	0.0019496
877.882	0.0019743
887.529	0.0019364
897.175	0.0020009
906.822	0.0018018
916.468	0.0018253
926.115	0.0017068
935.761	0.0016616
945.408	0.0016045
955.054	0.0016445
964.701	0.0016031
974.347	0.0016087
983.994	0.0015245
993.64	0.0015245
1003.29	0.0015653
1012.93	0.0016717
1022.58	0.0017807
1032.23	0.0018348
1041.87	0.0018838
1051.52	0.0018757
1061.17	0.0019283
1070.81	0.001832
1080.46	0.0016412
1090.11	0.0013108
1099.75	0.001058
1109.4	0.000974
1119.05	0.000856
1128.69	0.000781
1138.34	0.000857
1147.99	0.000991
1157.63	0.0013419
1167.28	0.001609
1176.92	0.0019437
1186.57	0.00247
1196.22	0.00355
1205.86	0.00613
1215.51	0.00888
1225.16	0.01119
1234.8	0.01213
1244.45	0.01393
1254.1	0.01572
1263.74	0.01567
1273.39	0.0141
1283.04	0.01277
1292.68	0.01242
1302.33	0.01227
1311.98	0.01075
1321.62	0.00872
1331.27	0.00901
1340.92	0.01227
1350.56	0.01611
1360.21	0.01443
1369.86	0.01122
1379.5	0.00802
1389.15	0.00593
1398.79	0.00458
1408.44	0.0046
1418.09	0.0057
1427.73	0.00872
1437.38	0.01662
1447.03	0.0277
1456.67	0.03709
1466.32	0.03527
1475.97	0.01771
1485.61	0.00808
1495.26	0.00476
1504.91	0.00329
1514.55	0.00244
1524.2	0.0019097
1533.85	0.0016028
1543.49	0.0013585
1553.14	0.00122593
1562.79	0.0011185
1572.43	0.000983
1582.08	0.000894
1591.73	0.000892
1601.37	0.000812
1611.02	0.000761
1620.67	0.000769
1630.31	0.000772
1639.96	0.000705
1649.6	0.0007
1659.25	0.00069
1668.9	0.000694
1678.54	0.000622
1688.19	0.000624
1697.84	0.000589
1707.48	0.000562
1717.13	0.000545
1726.78	0.000477
1736.42	0.000489
1746.07	0.000495
1755.72	0.000488
1765.36	0.000496
1775.01	0.000467
1784.66	0.000448
1794.3	0.000451
1803.95	0.000422
1813.6	0.000391
1823.24	0.000486
1832.89	0.00041
1842.54	0.000437
1852.18	0.000436
1861.83	0.000391
1871.47	0.000356
1881.12	0.000405
1890.77	0.000408
1900.41	0.00041
1910.06	0.000445
1919.71	0.000425
1929.35	0.00037
1939	0.000419
1948.65	0.000394
1958.29	0.000464
1967.94	0.000444
1977.59	0.000524
1987.23	0.000515
1996.88	0.000571
2006.53	0.00072
2016.17	0.000795
2025.82	0.001005
2035.47	0.001062
2045.11	0.000976
2054.76	0.000876
2064.41	0.000823
2074.05	0.00077
2083.7	0.000684
2093.35	0.000667
2102.99	0.000657
2112.64	0.000646
2122.28	0.000642
2131.93	0.000679
2141.58	0.000709
2151.22	0.000765
2160.87	0.000802
2170.52	0.000806
2180.16	0.000812
2189.81	0.000821
2199.46	0.000794
2209.1	0.00083
2218.75	0.000801
2228.4	0.000819
2238.04	0.000858
2247.69	0.000834
2257.34	0.000841
2266.98	0.000826
2276.63	0.000904
2286.28	0.000881
2295.92	0.000891
2305.57	0.000918
2315.22	0.00094
2324.86	0.000968
2334.51	0.000886
2344.16	0.00093
2353.8	0.000922
2363.45	0.000942
2373.09	0.000958
2382.74	0.00093
2392.39	0.001004
2402.03	0.000953
2411.68	0.001016
2421.33	0.000905
2430.97	0.000981
2440.62	0.000979
2450.27	0.000976
2459.91	0.000997
2469.56	0.000971
2479.21	0.001012
2488.85	0.0011161
2498.5	0.0012251
2508.15	0.001302
2517.79	0.0014445
2527.44	0.0016013
2537.09	0.0017199
2546.73	0.0017444
2556.38	0.0017699
2566.03	0.001888
2575.67	0.0020768
2585.32	0.00221
2594.96	0.00245
2604.61	0.00267
2614.26	0.0029
2623.9	0.00324
2633.55	0.00354
2643.2	0.00382
2652.84	0.00425
2662.49	0.00469
2672.14	0.00513
2681.78	0.00543
2691.43	0.00542
2701.08	0.00495
2710.72	0.00463
2720.37	0.0046
2730.02	0.00474
2739.66	0.0052
2749.31	0.00547
2758.96	0.0059
2768.6	0.0065
2778.25	0.00758
2787.9	0.00925
2797.54	0.01142
2807.19	0.01424
2816.84	0.01839
2826.48	0.02463
2836.13	0.0358
2845.77	0.06531
2855.42	0.15414
2865.07	0.21094
2874.71	0.13335
2884.36	0.09927
2894.01	0.10089
2903.65	0.14109
2913.3	0.22004
2922.95	0.39726
2932.59	0.60516
2942.24	0.40661
2951.89	0.20081
2961.53	0.13109
2971.18	0.10561
2980.83	0.05804
2990.47	0.03412
3000.12	0.02445
3009.77	0.02216
3019.41	0.017
3029.06	0.01143
3038.71	0.00875
3048.35	0.00686
3058	0.00582
3067.64	0.00479
3077.29	0.0041
3086.94	0.0037
3096.58	0.00331
3106.23	0.00291
3115.88	0.00267
3125.52	0.00245
3135.17	0.00223
3144.82	0.00225
3154.46	0.0021663
3164.11	0.0019602
3173.76	0.0018301
3183.4	0.0016861
3193.05	0.0014753
3202.7	0.00126788
3212.34	0.001077
3221.99	0.0011295
3231.64	0.000864
3241.28	0.000936
3250.93	0.00084
3260.58	0.000786
3270.22	0.000624
3279.87	0.000529
3289.52	0.000684
3299.16	0.000576
3308.81	0.00064
3318.45	0.000588
3328.1	0.00067
3337.75	0.000517
3347.39	0.000546
3357.04	0.000723
3366.69	0.000582
3376.33	0.000621
3385.98	0.000479
3395.63	0.000641
3405.27	0.00045
3414.92	0.000526
3424.57	0.000524
3434.21	0.000473
3443.86	0.000386
3453.51	0.000402
3463.15	0.00015
3472.8	0.000266
3482.45	0.000222
3492.09	0.000186
3501.74	8e-05
3511.39	0.00014
3521.03	0.00015
3530.68	0.00017
3540.33	0.000271
3549.97	4e-05
3559.62	3e-05
3569.26	9e-05
3578.91	0.0001
3588.56	0.000416
3598.2	0.000474
3607.85	0.000501
3617.5	0.000668
3627.14	0.000569
3636.79	0.000641
3646.44	0.000717
3656.08	0.000692
3665.73	0.000674
3675.38	0.000525
3685.02	0.000559
3694.67	0.000495
3704.32	0.00058
3713.96	0.000623
3723.61	0.000645
3733.26	0.000592
3742.9	0.000728
3752.55	0.000607
3762.2	0.00063
3771.84	0.000615
3781.49	0.000645
3791.13	0.0006
3800.78	0.000706
3810.43	0.000584
3820.07	0.000582
3829.72	0.000683
3839.37	0.000621
3849.01	0.000681
3858.66	0.000642
3868.31	0.000672
3877.95	0.000709
3887.6	0.000752
3897.25	0.000751
3906.89	0.00082
3916.54	0.000778
3926.19	0.000806
3935.83	0.000819
3945.48	0.000768
3955.13	0.000879
3964.77	0.000868
3974.42	0.000957
3984.07	0.001039
3993.71	0.001051
