Infrared Spectrum: Pyrimidine, 5-amino-4-chloro-6-hydrazino-
Formula: C4 H6 Cl N5
CAS: 42786-59-4
State: SOLID (1 mg / 650 mg KBr DISC)
Class: COBLENTZ III
Instrument: PERKIN-ELMER 21 (GRATING)
Instrument parameters: FILTER CHANGE ABOUT 1025 CM^-^1
Sampling: TRANSMISSION
Resolution: 2
Origin: SOUTHERN RESEARCH INSTITUTE
1/CM	TRANSMITTANCE
602	0.7467
611	0.7475
620	0.7436
629	0.7563
638	0.7588
647	0.7571
656	0.7566
665	0.7579
674	0.7572
683	0.7577
692	0.7661
701	0.763
710	0.757
719	0.7456
728	0.7067
737	0.6908
746	0.704
755	0.6811
764	0.6525
773	0.7411
782	0.7422
791	0.7558
800	0.7521
809	0.7393
818	0.7119
827	0.6719
836	0.4497
845	0.5881
854	0.6515
863	0.6358
872	0.5646
881	0.472
890	0.5688
899	0.7322
908	0.7812
917	0.793
926	0.7915
935	0.7868
944	0.7526
953	0.7474
962	0.7675
971	0.7592
980	0.7676
989	0.7914
998	0.801
1007	0.8001
1016	0.8021
1025	0.8074
1034	0.8102
1043	0.813
1052	0.8106
1061	0.7975
1070	0.7881
1079	0.7722
1088	0.7497
1097	0.72
1106	0.7025
1115	0.6801
1124	0.669
1133	0.5437
1142	0.5183
1151	0.7239
1160	0.7623
1169	0.7601
1178	0.748
1187	0.729
1196	0.7948
1205	0.7945
1214	0.7846
1223	0.7562
1232	0.6914
1241	0.5722
1250	0.7273
1259	0.7955
1268	0.7991
1277	0.7892
1286	0.7633
1295	0.7212
1304	0.6565
1313	0.7533
1322	0.7399
1331	0.6697
1340	0.3838
1349	0.4117
1358	0.7532
1367	0.7701
1376	0.7625
1385	0.7505
1394	0.7385
1403	0.7073
1412	0.6206
1421	0.5485
1430	0.3399
1439	0.5142
1448	0.6391
1457	0.5387
1466	0.3564
1475	0.4496
1484	0.5468
1493	0.5089
1502	0.4111
1511	0.4919
1520	0.5956
1529	0.5753
1538	0.4878
1547	0.4279
1556	0.3301
1565	0.089
1574	0.0684
1583	0.1606
1592	0.3321
1601	0.5919
1610	0.6102
1619	0.5713
1628	0.5194
1637	0.4287
1646	0.5206
1655	0.6332
1664	0.7315
1673	0.7966
1682	0.8383
1691	0.8563
1700	0.8607
1709	0.8693
1718	0.8679
1727	0.8711
1736	0.8778
1745	0.88
1754	0.8805
1763	0.8814
1772	0.8831
1781	0.8848
1790	0.8856
1799	0.8847
1808	0.8811
1817	0.8787
1826	0.8785
1835	0.8814
1844	0.8795
1853	0.8749
1862	0.8708
1871	0.8668
1880	0.8591
1889	0.852
1898	0.8547
1907	0.8643
1916	0.8681
1925	0.8693
1934	0.87
1943	0.8697
1952	0.8691
1961	0.8685
1970	0.8678
1979	0.8672
1988	0.8668
1997	0.8664
2006	0.8651
2015	0.8635
2024	0.8604
2033	0.8601
2042	0.8622
2051	0.863
2060	0.8628
2069	0.8623
2078	0.8623
2087	0.8617
2096	0.8612
2105	0.8616
2114	0.8623
2123	0.8623
2132	0.8609
2141	0.8593
2150	0.8578
2159	0.8564
2168	0.8557
2177	0.8554
2186	0.856
2195	0.8567
2204	0.8572
2213	0.8575
2222	0.857
2231	0.8557
2240	0.8536
2249	0.8508
2258	0.8479
2267	0.8457
2276	0.8434
2285	0.8408
2294	0.838
2303	0.8348
2312	0.8333
2321	0.8356
2330	0.8374
2339	0.8362
2348	0.8363
2357	0.8404
2366	0.8433
2375	0.8424
2384	0.8383
2393	0.8334
2402	0.8296
2411	0.8271
2420	0.8261
2429	0.8257
2438	0.8241
2447	0.8224
2456	0.8205
2465	0.8183
2474	0.8159
2483	0.8124
2492	0.815
2501	0.8132
2510	0.8104
2519	0.8077
2528	0.8013
2537	0.7979
2546	0.8001
2555	0.8053
2564	0.8023
2573	0.7985
2582	0.7986
2591	0.7989
2600	0.7993
2609	0.7987
2618	0.797
2627	0.7955
2636	0.7938
2645	0.791
2654	0.7881
2663	0.7871
2672	0.7868
2681	0.7859
2690	0.7813
2699	0.7758
2708	0.7703
2717	0.7652
2726	0.7606
2735	0.7597
2744	0.7615
2753	0.7614
2762	0.7637
2771	0.7664
2780	0.7674
2789	0.7645
2798	0.7611
2807	0.7591
2816	0.7577
2825	0.748
2834	0.733
2843	0.7294
2852	0.7229
2861	0.7099
2870	0.6983
2879	0.6886
2888	0.6791
2897	0.6708
2906	0.6632
2915	0.6505
2924	0.6437
2933	0.6435
2942	0.6434
2951	0.6443
2960	0.6456
2969	0.6496
2978	0.6527
2987	0.6436
2996	0.63
3005	0.6187
3014	0.614
3023	0.6124
3032	0.6056
3041	0.6002
3050	0.5995
3059	0.609
3068	0.6101
3077	0.6056
3086	0.599
3095	0.5912
3104	0.5832
3113	0.5742
3122	0.565
3131	0.5547
3140	0.5422
3149	0.528
3158	0.513
3167	0.4937
3176	0.4737
3185	0.4515
3194	0.4256
3203	0.4036
3212	0.3832
3221	0.363
3230	0.3459
3239	0.3316
3248	0.3142
3257	0.3026
3266	0.2942
3275	0.2913
3284	0.2937
3293	0.2935
3302	0.2914
3311	0.2889
3320	0.2871
3329	0.2785
3338	0.2709
3347	0.2688
3356	0.2682
3365	0.2766
3374	0.3166
3383	0.3664
3392	0.4107
3401	0.4678
3410	0.4815
3419	0.4765
3428	0.4625
3437	0.4389
3446	0.398
3455	0.3582
3464	0.3795
3473	0.4683
3482	0.5577
3491	0.5866
3500	0.6093
3509	0.6214
3518	0.6315
3527	0.6409
3536	0.6475
3545	0.6528
3554	0.6607
3563	0.671
3572	0.6825
3581	0.6938
3590	0.7046
3599	0.7149
3608	0.7203
3617	0.7309
3626	0.7406
3635	0.7469
3644	0.7494
3653	0.7607
3662	0.7648
3671	0.766
3680	0.7638
3689	0.7633
3698	0.7634
3707	0.7633
3716	0.7646
3725	0.7675
3734	0.7677
3743	0.7689
3752	0.7704
3761	0.7708
3770	0.771
3779	0.7717
3788	0.7719
3797	0.7732
3806	0.7727
3815	0.7716
3824	0.7685
3833	0.7603
3842	0.7575
3851	0.752
3860	0.7532
3869	0.7554
3878	0.7545
3887	0.7541
3896	0.7543
3905	0.7548
3914	0.755
3923	0.7507
3932	0.7468
3941	0.7473
3950	0.7468
3959	0.7479
3968	0.7498
3977	0.7517
3986	0.7516
3995	0.7473
