Infrared Spectrum: 4-MethylPiperidine hydrochloride
Formula: C6 H14 Cl N
CAS: 42796-28-1
State: SOLID (KBr DISC, 0.9% WT.)
Class: COBLENTZ III
Instrument: PERKIN-ELMER 157
Sampling: TRANSMISSION
Resolution: 2
Origin: BRITISH PETROLEUM CO. LTD., ENGLAND
1/CM	TRANSMITTANCE
669	0.9411
678	0.9276
687	0.8963
696	0.8808
705	0.875
714	0.8692
723	0.8432
732	0.8494
741	0.8366
750	0.7905
759	0.7975
768	0.7997
777	0.7741
786	0.7999
795	0.7996
804	0.728
813	0.7898
822	0.7801
831	0.7722
840	0.7181
849	0.7279
858	0.7583
867	0.758
876	0.7408
885	0.7296
894	0.6786
903	0.3131
912	0.6549
921	0.7039
930	0.6679
939	0.6451
948	0.6183
957	0.1698
966	0.5638
975	0.1276
984	0.4051
993	0.699
1002	0.6988
1011	0.697
1020	0.6879
1029	0.6738
1038	0.629
1047	0.6381
1056	0.6052
1065	0.3522
1074	0.0373
1083	0.3836
1092	0.5583
1101	0.5065
1110	0.6372
1119	0.6543
1128	0.6295
1137	0.5594
1146	0.1178
1155	0.538
1164	0.6066
1173	0.6166
1182	0.614
1191	0.6179
1200	0.6688
1209	0.6667
1218	0.6346
1227	0.4898
1236	0.5766
1245	0.5947
1254	0.5849
1263	0.5796
1272	0.5034
1281	0.5617
1290	0.5654
1299	0.5628
1308	0.5379
1317	0.3284
1326	0.4923
1335	0.4736
1344	0.4517
1353	0.4072
1362	0.3516
1371	0.2745
1380	0.1934
1389	0.1706
1398	0.1086
1407	0.2833
1416	0.2358
1425	0.1613
1434	0.0571
1443	0.1619
1452	0.0393
1461	0.0364
1470	0.1267
1479	0.1568
1488	0.2196
1497	0.3761
1506	0.4176
1515	0.4965
1524	0.5339
1533	0.5389
1542	0.5399
1551	0.5404
1560	0.5394
1569	0.5247
1578	0.4981
1587	0.2132
1596	0.0561
1605	0.2863
1614	0.5037
1623	0.5031
1632	0.5104
1641	0.5468
1650	0.573
1659	0.6239
1668	0.6293
1677	0.6387
1686	0.6458
1695	0.6609
1704	0.696
1713	0.7025
1722	0.7041
1731	0.7052
1740	0.7085
1749	0.7011
1758	0.6944
1767	0.6881
1776	0.6764
1785	0.634
1794	0.5867
1803	0.5269
1812	0.5654
1821	0.6322
1830	0.6928
1839	0.7148
1848	0.7187
1857	0.7129
1866	0.6958
1875	0.6544
1884	0.6632
1893	0.6748
1902	0.6771
1911	0.6761
1920	0.6557
1929	0.6513
1938	0.557
1947	0.4424
1956	0.4577
1965	0.5906
1974	0.6889
1983	0.699
1992	0.6985
2001	0.6871
2010	0.6704
2019	0.6811
2028	0.6772
2037	0.6567
2046	0.6331
2055	0.6532
2064	0.6675
2073	0.6637
2082	0.6382
2091	0.6476
2100	0.6809
2109	0.6864
2118	0.6828
2127	0.6796
2136	0.6761
2145	0.6625
2154	0.6328
2163	0.4927
2172	0.3372
2181	0.3281
2190	0.4867
2199	0.6221
2208	0.6432
2217	0.6486
2226	0.6469
2235	0.6314
2244	0.6124
2253	0.597
2262	0.596
2271	0.5947
2280	0.5897
2289	0.5804
2298	0.5683
2307	0.5607
2316	0.5611
2325	0.559
2334	0.5242
2343	0.4883
2352	0.4529
2361	0.433
2370	0.4136
2379	0.4065
2388	0.4085
2397	0.4066
2406	0.3809
2415	0.3468
2424	0.3439
2433	0.3393
2442	0.3059
2451	0.2288
2460	0.1574
2469	0.0866
2478	0.0335
2487	0.049
2496	0.1295
2505	0.2096
2514	0.2702
2523	0.2461
2532	0.1858
2541	0.1259
2550	0.0706
2559	0.0648
2568	0.0774
2577	0.1234
2586	0.1483
2595	0.1504
2604	0.1453
2613	0.1196
2622	0.0939
2631	0.0685
2640	0.064
2649	0.0596
2658	0.0224
2667	0.0193
2676	0.0189
2685	0.0187
2694	0.0184
2703	0.0181
2712	0.0179
2721	0.0177
2730	0.0176
2739	0.0174
2748	0.0172
2757	0.017
2766	0.0169
2775	0.0168
2784	0.0167
2793	0.0167
2802	0.0166
2811	0.0165
2820	0.0164
2829	0.0164
2838	0.0164
2847	0.0164
2856	0.0165
2865	0.0165
2874	0.0165
2883	0.0166
2892	0.0166
2901	0.0166
2910	0.0167
2919	0.0169
2928	0.0171
2937	0.0173
2946	0.0175
2955	0.0176
2964	0.0182
2973	0.019
2982	0.0198
2991	0.0207
3000	0.0223
3009	0.024
3018	0.0276
3027	0.032
3036	0.0389
3045	0.0504
3054	0.0602
3063	0.0742
3072	0.1063
3081	0.1396
3090	0.1513
3099	0.1626
3108	0.1733
3117	0.181
3126	0.1848
3135	0.1874
3144	0.1881
3153	0.1885
3162	0.1909
3171	0.2105
3180	0.2323
3189	0.2539
3198	0.2754
3207	0.2968
3216	0.3201
3225	0.3322
3234	0.3358
3243	0.3383
3252	0.3403
3261	0.3418
3270	0.3432
3279	0.3441
3288	0.3446
3297	0.3451
3306	0.3456
3315	0.3451
3324	0.3443
3333	0.3432
3342	0.3421
3351	0.3411
3360	0.34
3369	0.3392
3378	0.3388
3387	0.3384
3396	0.3385
3405	0.3389
3414	0.3392
3423	0.3395
3432	0.3398
3441	0.3405
3450	0.3433
3459	0.3476
3468	0.352
3477	0.3558
3486	0.3586
3495	0.3618
3504	0.3667
3513	0.3721
3522	0.3784
3531	0.3879
3540	0.4066
3549	0.4124
3558	0.4175
3567	0.4249
3576	0.442
3585	0.4551
3594	0.4786
3603	0.4991
3612	0.5151
3621	0.5252
3630	0.5263
3639	0.5269
3648	0.5273
3657	0.5275
3666	0.5277
3675	0.5279
3684	0.5282
3693	0.5286
3702	0.5288
3711	0.5291
3720	0.5291
3729	0.5286
3738	0.5279
3747	0.5261
3756	0.5241
3765	0.5221
3774	0.5201
3783	0.5182
3792	0.5163
3801	0.5147
3810	0.5141
3819	0.5141
3828	0.5142
3837	0.5088
3846	0.5014
3855	0.4987
3864	0.4974
3873	0.497
3882	0.497
3891	0.4969
3900	0.4969
3909	0.4969
3918	0.4968
3927	0.4968
3936	0.4968
3945	0.4967
3954	0.4967
3963	0.4966
3972	0.4966
3981	0.4965
3990	0.4965
3999	0.4964
