Infrared Spectrum: 6-OCTEN-2-ONE, 7-METHYL-3-METHYLENE-
Formula: C10 H16 O
CAS: 42809-05-2
State: (NEAT)
Class: COBLENTZ III
Instrument: UNICAM SP-200
Sampling: TRANSMISSION
Resolution: 4
Origin: BUSH BOAKE ALLEN LTD. VIA SCIENTIFIC DOC. CENTRE LTD.
1/CM	TRANSMITTANCE
644.568	0.592
654.084	0.511
663.601	0.621
673.117	0.7
682.633	0.736
692.149	0.706
701.666	0.728
711.182	0.701
720.698	0.72
730.214	0.81
739.731	0.831
749.247	0.8
758.763	0.796
768.279	0.792
777.796	0.791
787.312	0.804
796.828	0.821
806.344	0.83
815.861	0.748
825.377	0.666
834.893	0.44
844.409	0.548
853.926	0.735
863.442	0.81
872.958	0.812
882.474	0.816
891.991	0.804
901.507	0.792
911.023	0.776
920.539	0.7101
930.056	0.341
939.572	0.148
949.088	0.198
958.604	0.379
968.121	0.3871
977.637	0.426
987.153	0.464
996.669	0.562
1006.19	0.653
1015.7	0.617
1025.22	0.485
1034.73	0.617
1044.25	0.68
1053.77	0.76
1063.28	0.779
1072.8	0.77
1082.32	0.738
1091.83	0.594
1101.35	0.408
1110.86	0.413
1120.38	0.161
1129.9	0.43
1139.41	0.589
1148.93	0.587
1158.45	0.2361
1167.96	0.342
1177.48	0.558
1186.99	0.648
1196.51	0.661
1206.03	0.648
1215.54	0.64
1225.06	0.608
1234.58	0.599
1244.09	0.48
1253.61	0.624
1263.12	0.662
1272.64	0.575
1282.16	0.417
1291.67	0.462
1301.19	0.326
1310.71	0.394
1320.22	0.428
1329.74	0.407
1339.25	0.338
1348.77	0.306
1358.29	0.121
1367.8	0.054
1377.32	0.073
1386.84	0.176
1396.35	0.258
1405.87	0.314
1415.38	0.333
1424.9	0.2
1434.42	0.108
1443.93	0.096
1453.45	0.119
1462.97	0.292
1472.48	0.484
1482	0.606
1491.51	0.673
1501.03	0.707
1510.55	0.731
1520.06	0.747
1529.58	0.757
1539.1	0.767
1548.61	0.775
1558.13	0.776
1567.64	0.772
1577.16	0.757
1586.68	0.731
1596.19	0.694
1605.71	0.62
1615.23	0.496
1624.74	0.272
1634.26	0.453
1643.77	0.435
1653.29	0.24
1662.81	0.054
1672.32	0.014
1681.84	0.061
1691.36	0.338
1700.87	0.468
1710.39	0.542
1719.9	0.608
1729.42	0.588
1738.94	0.69
1748.45	0.771
1757.97	0.806
1767.49	0.836
1777	0.846
1786.52	0.854
1796.03	0.856
1805.55	0.853
1815.07	0.858
1824.58	0.856
1834.1	0.845
1843.62	0.829
1853.13	0.807
1862.65	0.797
1872.16	0.794
1881.68	0.812
1891.2	0.83
1900.71	0.844
1910.23	0.85
1919.75	0.858
1929.26	0.857
1938.78	0.862
1948.29	0.858
1957.81	0.86
1967.33	0.857
1976.84	0.857
1986.36	0.866
1995.88	0.863
2005.39	0.864
2014.91	0.865
2024.42	0.865
2033.94	0.865
2043.46	0.8623
2052.97	0.8585
2062.49	0.8563
2072.01	0.8532
2081.52	0.853
2091.04	0.856
2100.55	0.858
2110.07	0.8626
2119.59	0.8668
2129.1	0.867
2138.62	0.867
2148.14	0.867
2157.65	0.8678
2167.17	0.8688
2176.69	0.87
2186.2	0.8672
2195.72	0.8662
2205.23	0.8651
2214.75	0.865
2224.27	0.865
2233.78	0.865
2243.3	0.866
2252.82	0.867
2262.33	0.8661
2271.85	0.8631
2281.36	0.863
2290.88	0.863
2300.4	0.863
2309.91	0.864
2319.43	0.865
2328.95	0.8679
2338.46	0.8709
2347.98	0.873
2357.49	0.875
2367.01	0.876
2376.53	0.874
2386.04	0.865
2395.56	0.851
2405.08	0.845
2414.59	0.845
2424.11	0.846
2433.62	0.846
2443.14	0.848
2452.66	0.8459
2462.17	0.844
2471.69	0.843
2481.21	0.842
2490.72	0.841
2500.24	0.841
2509.75	0.842
2519.27	0.8419
2528.79	0.841
2538.3	0.8409
2547.82	0.839
2557.34	0.8379
2566.85	0.837
2576.37	0.8359
2585.88	0.833
2595.4	0.832
2604.92	0.8309
2614.43	0.8298
2623.95	0.8278
2633.47	0.8267
2642.98	0.8238
2652.5	0.8196
2662.01	0.8106
2671.53	0.8078
2681.05	0.8056
2690.56	0.7986
2700.08	0.7828
2709.6	0.7334
2719.11	0.7202
2728.63	0.7362
2738.14	0.7488
2747.66	0.7575
2757.18	0.7633
2766.69	0.7587
2776.21	0.7351
2785.73	0.7079
2795.24	0.6614
2804.76	0.6044
2814.27	0.5178
2823.79	0.4054
2833.31	0.2723
2842.82	0.2051
2852.34	0.1737
2861.86	0.172
2871.37	0.169
2880.89	0.1609
2890.4	0.1308
2899.92	0.0915
2909.44	0.0656
2918.95	0.0624
2928.47	0.0726
2937.99	0.0958
2947.5	0.1086
2957.02	0.1009
2966.53	0.1005
2976.05	0.1404
2985.57	0.2161
2995.08	0.2931
3004.6	0.4096
3014.12	0.4562
3023.63	0.4933
3033.15	0.5191
3042.66	0.5578
3052.18	0.5809
3061.7	0.613
3071.21	0.621
3080.73	0.618
3090.25	0.5939
3099.76	0.6009
3109.28	0.6482
3118.79	0.6883
3128.31	0.7041
3137.83	0.7217
3147.34	0.7377
3156.86	0.7457
3166.38	0.7537
3175.89	0.7627
3185.41	0.7696
3194.92	0.771
3204.44	0.775
3213.96	0.776
3223.47	0.778
3232.99	0.78
3242.51	0.78
3252.02	0.78
3261.54	0.7796
3271.05	0.78
3280.57	0.782
3290.09	0.782
3299.6	0.7803
3309.12	0.7743
3318.64	0.7696
3328.15	0.7633
3337.67	0.744
3347.18	0.7286
3356.7	0.7243
3366.22	0.7207
3375.73	0.7476
3385.25	0.7599
3394.77	0.7709
3404.28	0.7803
3413.8	0.7838
3423.31	0.785
3432.83	0.786
3442.35	0.787
3451.86	0.786
3461.38	0.785
3470.9	0.7802
3480.41	0.7772
3489.93	0.7752
3499.44	0.7758
3508.96	0.777
3518.48	0.7788
3527.99	0.7818
3537.51	0.783
3547.03	0.785
3556.54	0.787
3566.06	0.787
3575.57	0.7861
3585.09	0.7869
3594.61	0.7879
3604.12	0.7899
3613.64	0.7929
3623.16	0.7958
3632.67	0.797
3642.19	0.7999
3651.7	0.8019
3661.22	0.8049
3670.74	0.806
3680.25	0.8031
3689.77	0.804
3699.29	0.805
3708.8	0.8041
3718.32	0.803
3727.83	0.802
3737.35	0.805
3746.87	0.804
3756.38	0.8
3765.9	0.798
3775.42	0.792
3784.93	0.7869
3794.45	0.785
3803.96	0.787
3813.48	0.7871
3823	0.7901
3832.51	0.7931
3842.03	0.7951
3851.55	0.794
3861.06	0.7908
3870.58	0.7859
3880.09	0.7818
3889.61	0.778
3899.13	0.7791
3908.64	0.78
3918.16	0.779
3927.68	0.7789
3937.19	0.7778
3946.71	0.775
3956.22	0.7738
3965.74	0.7708
3975.26	0.768
3984.77	0.768
3994.29	0.769
4003.81	0.771
4013.32	0.7722
4022.84	0.7732
4032.35	0.774
4041.87	0.7718
4051.39	0.7688
4060.9	0.7658
4070.42	0.764
4079.94	0.7617
4089.45	0.7597
4098.97	0.759
4108.48	0.758
4118	0.757
4127.52	0.759
4137.03	0.759
4146.55	0.7577
