Infrared Spectrum: N-PROPYNYL-PHENOTHIAZINE
Formula: C15 H11 N S
CAS: 4282-90-0
State: SOLUTION (10% CHCl3)
Class: COBLENTZ
Instrument: Not specified, most likely a grating spectrometer.
Sampling: TRANSMISSION
Path length: 0.010 CM CELL
Resolution: 4
Origin: ABBOTT LABORATORIES
MICROMETERS	TRANSMITTANCE
1.953	0.971
1.98001	0.971
2.00703	0.97
2.03404	0.971
2.06105	0.97
2.08806	0.968
2.11508	0.965
2.14209	0.963
2.1691	0.963
2.19612	0.96
2.22313	0.96
2.25014	0.96
2.27716	0.96
2.30417	0.955
2.33118	0.948
2.35819	0.953
2.38521	0.978
2.41222	0.951
2.43923	0.935
2.46625	0.938
2.49326	0.948
2.52027	0.941
2.54728	0.945
2.5743	0.946
2.60131	0.95
2.62832	0.943
2.65534	0.941
2.68235	0.958
2.70936	0.955
2.73637	0.945
2.76339	0.932
2.7904	0.956
2.81741	0.922
2.84443	0.92
2.87144	0.932
2.89845	0.94
2.92547	0.938
2.95248	0.933
2.97949	0.933
3.0065	0.933
3.03352	0.933
3.06053	0.928
3.08754	0.93
3.11456	0.932
3.14157	0.932
3.16858	0.932
3.19559	0.93
3.22261	0.927
3.24962	0.892
3.27663	0.824
3.30365	0.852
3.33066	0.849
3.35767	0.791
3.38468	0.83
3.4117	0.865
3.43871	0.8
3.46572	0.842
3.49274	0.887
3.51975	0.86
3.54676	0.88
3.57378	0.9
3.60079	0.9
3.6278	0.912
3.65481	0.905
3.68183	0.902
3.70884	0.912
3.73585	0.912
3.76287	0.91
3.78988	0.903
3.81689	0.898
3.8439	0.905
3.87092	0.903
3.89793	0.88
3.92494	0.88
3.95196	0.892
3.97897	0.9
4.00598	0.903
4.033	0.898
4.06001	0.895
4.08702	0.9
4.11403	0.903
4.14105	0.915
4.16806	0.925
4.19507	0.938
4.22209	0.917
4.2491	0.94
4.27611	0.963
4.30312	0.948
4.33014	0.932
4.35715	0.917
4.38416	0.89
4.41118	0.82
4.43819	0.676
4.4652	0.527
4.49221	0.59
4.51923	0.815
4.54624	0.855
4.57325	0.893
4.60027	0.9
4.62728	0.903
4.65429	0.915
4.68131	0.913
4.70832	0.913
4.73533	0.912
4.76234	0.912
4.78936	0.913
4.81637	0.917
4.84338	0.913
4.8704	0.912
4.89741	0.907
4.92442	0.902
4.95143	0.907
4.97845	0.908
5.00546	0.912
5.03247	0.915
5.05949	0.915
5.0865	0.908
5.11351	0.902
5.14053	0.907
5.16754	0.897
5.19455	0.868
5.22156	0.872
5.24858	0.888
5.27559	0.89
5.3026	0.857
5.32962	0.88
5.35663	0.895
5.38364	0.892
5.41065	0.887
5.43767	0.893
5.46468	0.9
5.49169	0.898
5.51871	0.89
5.54572	0.872
5.57273	0.898
5.59974	0.89
5.62676	0.862
5.65377	0.849
5.68078	0.88
5.7078	0.897
5.73481	0.898
5.76182	0.898
5.78884	0.898
5.81585	0.89
5.84286	0.885
5.86987	0.882
5.89689	0.87
5.9239	0.873
5.95091	0.865
5.97793	0.862
6.00494	0.855
6.03195	0.85
6.05896	0.855
6.08598	0.862
6.11299	0.873
6.14	0.868
6.16702	0.854
6.19403	0.845
6.22104	0.85
6.24805	0.819
6.27507	0.724
6.30208	0.328
6.32909	0.404
6.35611	0.683
6.38312	0.61
6.41013	0.542
6.43715	0.708
6.46416	0.809
6.49117	0.857
6.51818	0.877
6.5452	0.875
6.57221	0.868
6.59922	0.873
6.62624	0.842
6.65325	0.802
6.68026	0.774
6.70727	0.698
6.73429	0.597
6.7613	0.524
6.78831	0.313
6.81533	0.474
6.84234	0.323
6.86935	0.058
6.89637	0.008
6.92338	0.275
6.95039	0.339
6.9774	0.165
7.00442	0.265
7.03143	0.504
7.05844	0.703
7.08546	0.756
7.11247	0.782
7.13948	0.792
7.16649	0.789
7.19351	0.782
7.22052	0.8
7.24753	0.819
7.27455	0.802
7.30156	0.779
7.32857	0.796
7.35558	0.824
7.3826	0.827
7.40961	0.82
7.43662	0.825
7.46364	0.822
7.49065	0.796
7.51766	0.736
7.54468	0.615
7.57169	0.325
7.5987	0.215
7.62571	0.461
7.65273	0.562
7.67974	0.573
7.70675	0.504
7.73377	0.286
7.76078	0.139
7.78779	0.225
7.8148	0.268
7.84182	0.232
7.86883	0.464
7.89584	0.6
7.92286	0.615
7.94987	0.396
7.97688	0.212
8.00389	0.424
8.03091	0.563
8.05792	0.636
8.08493	0.63
8.11195	0.58
8.13896	0.452
8.16597	0.285
8.19299	0.306
8.22	0.338
8.24701	0.354
8.27402	0.369
8.30104	0.389
8.32805	0.402
8.35506	0.431
8.38208	0.55
8.40909	0.726
8.4361	0.854
8.46311	0.872
8.49013	0.873
8.51714	0.872
8.54415	0.862
8.57117	0.847
8.59818	0.849
8.62519	0.852
8.65221	0.852
8.67922	0.847
8.70623	0.844
8.73324	0.852
8.76026	0.859
8.78727	0.854
8.81428	0.849
8.8413	0.842
8.86831	0.81
8.89532	0.731
8.92233	0.56
8.94935	0.588
8.97636	0.759
9.00337	0.824
9.03039	0.852
9.0574	0.862
9.08441	0.872
9.11142	0.877
9.13844	0.882
9.16545	0.887
9.19246	0.892
9.21948	0.895
9.24649	0.897
9.2735	0.887
9.30052	0.774
9.32753	0.666
9.35454	0.799
9.38155	0.864
9.40857	0.878
9.43558	0.885
9.46259	0.893
9.48961	0.898
9.51662	0.897
9.54363	0.9
9.57064	0.903
9.59766	0.887
9.62467	0.817
9.65168	0.678
9.6787	0.517
9.70571	0.567
9.73272	0.713
9.75973	0.8
9.78675	0.84
9.81376	0.854
9.84077	0.868
9.86779	0.88
9.8948	0.89
9.92181	0.885
9.94883	0.887
9.97584	0.89
10.0029	0.893
10.0299	0.887
10.0569	0.887
10.0839	0.885
10.1109	0.885
10.1379	0.885
10.1649	0.883
10.1919	0.888
10.219	0.89
10.246	0.888
10.273	0.885
10.3	0.883
10.327	0.878
10.354	0.873
10.381	0.873
10.408	0.877
10.4351	0.878
10.4621	0.885
10.4891	0.885
10.5161	0.885
10.5431	0.887
10.5701	0.895
10.5971	0.9
10.6241	0.895
10.6512	0.895
10.6782	0.885
10.7052	0.852
10.7322	0.792
10.7592	0.767
10.7862	0.791
10.8132	0.847
10.8403	0.89
10.8673	0.9
10.8943	0.898
10.9213	0.892
10.9483	0.87
10.9753	0.82
11.0023	0.756
11.0293	0.782
11.0564	0.84
11.0834	0.859
11.1104	0.873
11.1374	0.88
11.1644	0.864
11.1914	0.839
11.2184	0.829
11.2454	0.859
11.2725	0.873
11.2995	0.892
11.3265	0.9
11.3535	0.9
11.3805	0.9
11.4075	0.908
11.4345	0.915
11.4615	0.915
11.4886	0.91
11.5156	0.905
11.5426	0.905
11.5696	0.907
11.5966	0.898
11.6236	0.895
11.6506	0.895
11.6777	0.89
11.7047	0.882
11.7317	0.887
11.7587	0.883
11.7857	0.887
11.8127	0.893
11.8397	0.898
11.8667	0.902
11.8938	0.905
11.9208	0.908
11.9478	0.907
11.9748	0.91
12.0018	0.915
12.0288	0.918
12.0558	0.918
12.0828	0.93
12.1099	0.93
12.1369	0.943
12.1639	0.943
12.1909	0.94
12.2179	0.945
12.2449	0.948
12.2719	0.945
12.2989	0.94
12.326	0.941
12.353	0.95
12.38	0.955
12.407	0.955
12.434	0.956
12.461	0.968
12.488	0.971
