Infrared Spectrum: CHLOROACETIC ACID, 1,2-PROPANEDIOL DIESTER
Formula: C7 H10 Cl2 O4
CAS: 42831-64-1
State: SOLUTION (10% CCl4 FOR 5000-1330, 10% CS2 FOR 1330-625 CM^-^1)
Class: COBLENTZ
Instrument: Not specified, most likely a prism, grating, or hybrid spectrometer.
Sampling: TRANSMISSION
Path length: 0.0116 CM, 0.0113 CM
Resolution: 4
Origin: DOW CHEMICAL COMPANY
MICROMETERS	TRANSMITTANCE
2.041	0.904
2.08197	0.906
2.12295	0.906
2.16392	0.904
2.2049	0.901
2.24587	0.882
2.28685	0.882
2.32782	0.885
2.36879	0.887
2.40977	0.887
2.45074	0.89
2.49172	0.901
2.53269	0.902
2.57367	0.904
2.61464	0.912
2.65561	0.912
2.69659	0.912
2.73756	0.912
2.77854	0.912
2.81951	0.909
2.86049	0.89
2.90146	0.887
2.94243	0.911
2.98341	0.912
3.02438	0.912
3.06536	0.912
3.10633	0.912
3.14731	0.912
3.18828	0.912
3.22925	0.912
3.27023	0.902
3.3112	0.86
3.35218	0.691
3.39315	0.619
3.43413	0.885
3.4751	0.887
3.51607	0.919
3.55705	0.924
3.59802	0.93
3.639	0.935
3.67997	0.931
3.72095	0.931
3.76192	0.931
3.80289	0.938
3.84387	0.938
3.88484	0.938
3.92582	0.938
3.96679	0.933
4.00777	0.931
4.04874	0.931
4.08971	0.933
4.13069	0.933
4.17166	0.926
4.21264	0.907
4.25361	0.907
4.29459	0.911
4.33556	0.916
4.37654	0.918
4.41751	0.918
4.45848	0.933
4.49946	0.938
4.54043	0.938
4.58141	0.938
4.62238	0.938
4.66336	0.936
4.70433	0.931
4.7453	0.931
4.78628	0.931
4.82725	0.931
4.86823	0.931
4.9092	0.924
4.95018	0.919
4.99115	0.918
5.03212	0.916
5.0731	0.916
5.11407	0.916
5.15505	0.914
5.19602	0.906
5.237	0.907
5.27797	0.907
5.31894	0.895
5.35992	0.882
5.40089	0.866
5.44187	0.839
5.48284	0.81
5.52382	0.757
5.56479	0.656
5.60576	0.366
5.64674	0.049
5.68771	0.017
5.72869	0.025
5.76966	0.046
5.81064	0.378
5.85161	0.66
5.89258	0.766
5.93356	0.834
5.97453	0.863
6.01551	0.88
6.05648	0.883
6.09746	0.889
6.13843	0.88
6.1794	0.873
6.22038	0.796
6.26135	0.726
6.30233	0.665
6.3433	0.639
6.38428	0.587
6.42525	0.518
6.46622	0.489
6.5072	0.581
6.54817	0.653
6.58915	0.697
6.63012	0.745
6.6711	0.8
6.71207	0.815
6.75304	0.81
6.79402	0.716
6.83499	0.595
6.87597	0.549
6.91694	0.627
6.95792	0.639
6.99889	0.573
7.03986	0.469
7.08084	0.368
7.12181	0.65
7.16279	0.621
7.20376	0.58
7.24474	0.59
7.28571	0.713
7.32668	0.708
7.36766	0.655
7.40863	0.66
7.44961	0.633
7.49058	0.525
7.53156	0.317
7.57253	0.179
7.6135	0.131
7.65448	0.093
7.69545	0.088
7.73643	0.083
7.7774	0.059
7.81838	0.075
7.85935	0.168
7.90032	0.255
7.9413	0.204
7.98227	0.189
8.02325	0.204
8.06422	0.269
8.1052	0.363
8.14617	0.436
8.18714	0.452
8.22812	0.423
8.26909	0.351
8.31007	0.257
8.35104	0.163
8.39202	0.085
8.43299	0.047
8.47396	0.03
8.51494	0.027
8.55591	0.025
8.59689	0.029
8.63786	0.034
8.67884	0.042
8.71981	0.066
8.76078	0.088
8.80176	0.109
8.84273	0.133
8.88371	0.203
8.92468	0.233
8.96566	0.23
9.00663	0.298
9.04761	0.511
9.08858	0.614
9.12955	0.641
9.17053	0.583
9.2115	0.44
9.25248	0.332
9.29345	0.269
9.33443	0.327
9.3754	0.474
9.41637	0.665
9.45735	0.764
9.49832	0.798
9.5393	0.812
9.58027	0.803
9.62125	0.744
9.66222	0.636
9.70319	0.51
9.74417	0.397
9.78514	0.349
9.82612	0.366
9.86709	0.469
9.90807	0.592
9.94904	0.646
9.99001	0.619
10.031	0.569
10.072	0.554
10.1129	0.593
10.1539	0.653
10.1949	0.689
10.2359	0.658
10.2768	0.571
10.3178	0.459
10.3588	0.36
10.3998	0.319
10.4407	0.37
10.4817	0.525
10.5227	0.633
10.5637	0.68
10.6046	0.689
10.6456	0.691
10.6866	0.682
10.7276	0.645
10.7685	0.598
10.8095	0.609
10.8505	0.665
10.8914	0.732
10.9324	0.752
10.9734	0.761
11.0144	0.749
11.0553	0.737
11.0963	0.747
11.1373	0.784
11.1783	0.8
11.2192	0.81
11.2602	0.81
11.3012	0.8
11.3422	0.779
11.3831	0.767
11.4241	0.755
11.4651	0.733
11.5061	0.72
11.547	0.709
11.588	0.692
11.629	0.67
11.67	0.648
11.7109	0.624
11.7519	0.605
11.7929	0.6
11.8339	0.634
11.8748	0.689
11.9158	0.733
11.9568	0.754
11.9978	0.774
12.0387	0.784
12.0797	0.798
12.1207	0.803
12.1617	0.808
12.2026	0.808
12.2436	0.805
12.2846	0.793
12.3255	0.781
12.3665	0.764
12.4075	0.725
12.4485	0.663
12.4894	0.587
12.5304	0.503
12.5714	0.441
12.6124	0.419
12.6533	0.419
12.6943	0.436
12.7353	0.465
12.7763	0.498
12.8172	0.527
12.8582	0.542
12.8992	0.563
12.9402	0.593
12.9811	0.639
13.0221	0.689
13.0631	0.709
13.1041	0.732
13.145	0.744
13.186	0.75
13.227	0.757
13.268	0.761
13.3089	0.766
13.3499	0.766
13.3909	0.766
13.4319	0.764
13.4728	0.759
13.5138	0.754
13.5548	0.745
13.5958	0.738
13.6367	0.73
13.6777	0.72
13.7187	0.708
13.7596	0.694
13.8006	0.684
13.8416	0.668
13.8826	0.651
13.9235	0.631
13.9645	0.61
14.0055	0.595
14.0465	0.569
14.0874	0.549
14.1284	0.534
14.1694	0.517
14.2104	0.501
14.2513	0.491
14.2923	0.486
14.3333	0.481
14.3743	0.477
14.4152	0.479
14.4562	0.484
14.4972	0.489
14.5382	0.493
14.5791	0.5
14.6201	0.505
14.6611	0.51
14.7021	0.513
14.743	0.515
14.784	0.515
14.825	0.513
14.866	0.511
14.9069	0.511
14.9479	0.51
14.9889	0.51
15.0299	0.505
15.0708	0.494
15.1118	0.488
15.1528	0.477
15.1937	0.47
15.2347	0.464
15.2757	0.46
15.3167	0.452
15.3576	0.45
15.3986	0.447
15.4396	0.443
15.4806	0.44
15.5215	0.436
15.5625	0.433
15.6035	0.43
15.6445	0.423
15.6854	0.419
15.7264	0.416
15.7674	0.418
15.8084	0.416
15.8493	0.416
15.8903	0.416
