Infrared Spectrum: 1-Methyl-2-propylcyclohexane
Formula: C 10 H 20
CAS: 4291-79-6
State: gas
Instrument: HP-GC/MS/IRD
Origin: NIST Mass Spectrometry Data Center
1/CM	ABSORBANCE
550	0.0001525
562	0.00017
574	0.0002925
586	2.25e-05
598	0.000125
610	0.0001275
622	6.25e-05
634	3.5e-05
646	0.0001
658	0.00018
670	0.000155
682	0.0001475
694	0.0001425
706	0.000335
718	0.0004975
730	0.000755
742	0.0006575
754	0.00071
766	0.0007075
778	0.00093
790	0.00086
802	0.00062
814	0.0005825
826	0.0006225
838	0.00065
850	0.000805
862	0.0009925
874	0.001055
886	0.0013375
898	0.00143
910	0.0010225
922	0.000525
934	0.0003825
946	0.0004075
958	0.000535
970	0.0005125
982	0.0004675
994	0.000695
1006	0.0018575
1018	0.0027775
1030	0.002145
1042	0.0010525
1054	0.000775
1066	0.00088
1078	0.000995
1090	0.00083
1102	0.0005325
1114	0.0003075
1126	0.0002325
1138	0.0001825
1150	0.00023
1162	0.00033
1174	0.00033
1186	0.0002925
1198	0.0002425
1210	0.0002975
1222	0.0003
1234	0.0004475
1246	0.0005225
1258	0.0006025
1270	0.0008225
1282	0.000805
1294	0.0007925
1306	0.0010275
1318	0.00105
1330	0.0008725
1342	0.000775
1354	0.00077
1366	0.0010275
1378	0.0016775
1390	0.00179
1402	0.0012825
1414	0.00101
1426	0.001265
1438	0.0023525
1450	0.0036725
1462	0.00412
1474	0.00305
1486	0.0017175
1498	0.000835
1510	0.0004825
1522	0.000365
1534	0.0002575
1546	0.000235
1558	0.0002475
1570	0.00022
1582	0.0002525
1594	0.00023
1606	0.0002075
1618	0.0002175
1630	0.0002175
1642	0.0002075
1654	0.00015
1666	0.0001675
1678	0.0001275
1690	0.0001125
1702	3.5e-05
1714	5e-05
1726	8e-05
1738	5.5e-05
1750	8.5e-05
1762	9.25e-05
1774	5.75e-05
1786	0.0001025
1798	9.25e-05
1810	0.000145
1822	0.0001
1834	0.000125
1846	7.75e-05
1858	0.000125
1870	0.0001225
1882	0.0001075
1894	9.5e-05
1906	0.0001025
1918	0.0001125
1930	0.000125
1942	0.0001025
1954	0.000125
1966	0.00012
1978	0.0001225
1990	8.75e-05
2002	0.0001275
2014	0.000145
2026	0.0002325
2038	0.0002725
2050	0.0001975
2062	0.00012
2074	0.0001
2086	9.75e-05
2098	0.0001025
2110	7.75e-05
2122	0.0001075
2134	0.0001
2146	0.0001
2158	9.5e-05
2170	9e-05
2182	0.0001025
2194	7.25e-05
2206	7e-05
2218	7e-05
2230	7e-05
2242	8.25e-05
2254	7.5e-05
2266	6.75e-05
2278	3.75e-05
2290	2.5e-05
2302	4.5e-05
2314	5e-06
2326	1.5e-05
2338	5e-06
2350	3e-05
2362	5.25e-05
2374	1.5e-05
2386	3.25e-05
2398	5.75e-05
2410	6.75e-05
2422	6.5e-05
2434	5.5e-05
2446	3.5e-05
2458	4.25e-05
2470	6.5e-05
2482	3.5e-05
2494	3.75e-05
2506	5.75e-05
2518	5.5e-05
2530	6.25e-05
2542	8.75e-05
2554	7.25e-05
2566	7.5e-05
2578	5e-05
2590	9.25e-05
2602	0.00011
2614	0.0001225
2626	0.00015
2638	0.00013
2650	0.00017
2662	0.0001925
2674	0.0002075
2686	0.000255
2698	0.000245
2710	0.000315
2722	0.00038
2734	0.0005625
2746	0.0007175
2758	0.00071
2770	0.0006825
2782	0.00079
2794	0.0009625
2806	0.0011025
2818	0.00161
2830	0.0025275
2842	0.004385
2854	0.0071575
2866	0.0106325
2878	0.0136825
2890	0.01391
2902	0.0144225
2914	0.0184325
2926	0.0222875
2938	0.02287
2950	0.023515
2962	0.025
2974	0.0202025
2986	0.01439
2998	0.01275
3010	0.011275
3022	0.0067075
3034	0.0036425
3046	0.0032275
3058	0.00475
3070	0.0052175
3082	0.003025
3094	0.0014525
3106	0.000895
3118	0.0007175
3130	0.0006175
3142	0.000575
3154	0.0004775
3166	0.000405
3178	0.000305
3190	0.00024
3202	0.000215
3214	0.0002
3226	0.0001675
3238	0.00013
3250	0.0001175
3262	0.0001225
3274	0.0001175
3286	9.25e-05
3298	0.0001175
3310	5.75e-05
3322	0.0001125
3334	7.5e-05
3346	7.75e-05
3358	6.5e-05
3370	8e-05
3382	8.25e-05
3394	5.75e-05
3406	2.5e-05
3418	8.75e-05
3430	7.75e-05
3442	0.00012
3454	5.75e-05
3466	5.75e-05
3478	4e-05
3490	9.75e-05
3502	0.0001
3514	5e-05
3526	5.75e-05
3538	9.5e-05
3550	7.5e-06
3562	6e-05
3574	7.5e-05
3586	2.25e-05
3598	2e-05
3610	7e-05
3622	7.75e-05
3634	8e-05
3646	4.5e-05
3658	3.75e-05
3670	4.5e-05
3682	9e-05
3694	0.0001025
3706	0.00017
3718	8e-05
3730	7e-05
3742	4.25e-05
3754	0.000115
3766	0.0001075
3778	0.000145
3790	0.000165
3802	0.000155
3814	0.0001325
3826	9.75e-05
3838	0.000145
