Infrared Spectrum: Hexylcyclohexane
Formula: C 12 H 24
CAS: 4292-75-5
State: gas
Instrument: HP-GC/MS/IRD
Origin: NIST Mass Spectrometry Data Center
1/CM	ABSORBANCE
550	0.000231
562	0.0001925
574	0.0001771
586	0.000154
598	0.0001309
610	0.0001463
622	6.16e-05
634	0.0001078
646	0.0001309
658	8.47e-05
670	8.47e-05
682	0.0001001
694	0.0001617
706	0.0002695
718	0.0004235
730	0.000385
742	0.0003388
754	0.0003157
766	0.000231
778	0.0002156
790	0.0001386
802	0.000154
814	0.000231
826	0.0003234
838	0.0004389
850	0.0003773
862	0.0003465
874	0.0004389
886	0.0006545
898	0.0005698
910	0.0003003
922	0.000231
934	0.0002079
946	0.0001925
958	0.0002695
970	0.0003773
982	0.0003465
994	0.0002387
1006	0.0001463
1018	0.0001848
1030	0.0002233
1042	0.0002079
1054	0.0001617
1066	0.0001925
1078	0.0002541
1090	0.0002464
1102	0.0001925
1114	0.0002079
1126	0.0001001
1138	9.24e-05
1150	0.0001232
1162	0.0001155
1174	0.0001771
1186	0.0002002
1198	0.0002541
1210	0.0002387
1222	0.000231
1234	0.0003003
1246	0.0003927
1258	0.0007546
1270	0.0008162
1282	0.0005929
1294	0.0005467
1306	0.000539
1318	0.0005698
1330	0.0007238
1342	0.0011088
1354	0.0011935
1366	0.001001
1378	0.0010164
1390	0.0007854
1402	0.0005698
1414	0.000616
1426	0.0008932
1438	0.0022253
1450	0.005005
1462	0.0048587
1474	0.0025256
1486	0.0010164
1498	0.0005082
1510	0.0003465
1522	0.0002387
1534	0.0002002
1546	0.0001232
1558	0.0001155
1570	9.24e-05
1582	8.47e-05
1594	5.39e-05
1606	3.85e-05
1618	6.16e-05
1630	4.62e-05
1642	3.85e-05
1654	6.16e-05
1666	7.7e-05
1678	4.62e-05
1690	5.39e-05
1702	6.16e-05
1714	3.85e-05
1726	1.54e-05
1738	2.31e-05
1750	3.85e-05
1762	3.08e-05
1774	2.31e-05
1786	1.54e-05
1798	7.7e-06
1810	7.7e-06
1822	7.7e-06
1834	1.54e-05
1846	2.31e-05
1858	1.54e-05
1870	3.85e-05
1882	1.54e-05
1894	3.08e-05
1906	1.54e-05
1918	0
1930	1.54e-05
1942	3.85e-05
1954	0
1966	1.54e-05
1978	0
1990	7.7e-06
2002	2.31e-05
2014	3.85e-05
2026	4.62e-05
2038	6.16e-05
2050	5.39e-05
2062	2.31e-05
2074	1.54e-05
2086	2.31e-05
2098	2.31e-05
2110	2.31e-05
2122	7.7e-06
2134	3.08e-05
2146	2.31e-05
2158	2.31e-05
2170	5.39e-05
2182	4.62e-05
2194	6.16e-05
2206	3.08e-05
2218	3.85e-05
2230	4.62e-05
2242	2.31e-05
2254	0
2266	1.54e-05
2278	3.85e-05
2290	1.54e-05
2302	3.08e-05
2314	2.31e-05
2326	3.85e-05
2338	6.16e-05
2350	6.16e-05
2362	0.0001001
2374	5.39e-05
2386	5.39e-05
2398	3.85e-05
2410	4.62e-05
2422	3.85e-05
2434	3.08e-05
2446	7.7e-06
2458	0
2470	7.7e-06
2482	3.08e-05
2494	4.62e-05
2506	2.31e-05
2518	8.47e-05
2530	6.16e-05
2542	9.24e-05
2554	0.0001001
2566	0.0001617
2578	0.0001848
2590	0.0002618
2602	0.0003157
2614	0.0003465
2626	0.0003619
2638	0.0004543
2650	0.0006314
2662	0.0007623
2674	0.0007546
2686	0.0006391
2698	0.0005698
2710	0.0005467
2722	0.0005313
2734	0.0005159
2746	0.0005621
2758	0.0006314
2770	0.0007469
2782	0.0010549
2794	0.0014399
2806	0.0018018
2818	0.0023947
2830	0.0038038
2842	0.0087241
2854	0.0214599
2866	0.0260876
2878	0.0168014
2890	0.0152691
2902	0.0213521
2914	0.037345
2926	0.0682605
2938	0.0697389
2950	0.0313082
2962	0.0176022
2974	0.0124509
2986	0.0052976
2998	0.0029029
3010	0.0019635
3022	0.0014553
3034	0.0010703
3046	0.0008547
3058	0.0007238
3070	0.0006006
3082	0.0004774
3094	0.0004466
3106	0.0003696
3118	0.000308
3130	0.0002926
3142	0.0003157
3154	0.0003157
3166	0.0002541
3178	0.0001925
3190	0.0001694
3202	0.0001463
3214	0.0001001
3226	0.0001309
3238	6.93e-05
3250	0.0001232
3262	7.7e-05
3274	9.24e-05
3286	0
3298	1.54e-05
3310	5.39e-05
3322	4.62e-05
3334	0.0001001
3346	6.16e-05
3358	7.7e-05
3370	0.0001078
3382	5.39e-05
3394	5.39e-05
3406	8.47e-05
3418	7.7e-05
3430	6.16e-05
3442	7.7e-05
3454	6.16e-05
3466	5.39e-05
3478	4.62e-05
3490	6.16e-05
3502	4.62e-05
3514	0
3526	3.85e-05
3538	1.54e-05
3550	1.54e-05
3562	3.85e-05
3574	2.31e-05
3586	3.85e-05
3598	4.62e-05
3610	9.24e-05
3622	5.39e-05
3634	9.24e-05
3646	8.47e-05
3658	0.0001309
3670	7.7e-05
3682	0.0001078
3694	6.93e-05
3706	0.0001386
3718	0.0001001
3730	0.0001386
3742	0.0001155
3754	0.0001078
3766	0.000154
3778	0.0001386
3790	0.0001232
3802	0.0001694
3814	0.0002002
3826	0.0002079
3838	0.000154
