Infrared Spectrum: 4-ETHYL-2-METHYL-Delta^2-THIAZOLINE
Formula: C6 H11 N S
CAS: 4293-61-2
State: LIQUID
Boiling point: 58-59 C AT 15 mmHg
Class: COBLENTZ
Instrument: Not specified, most likely a prism, grating, or hybrid spectrometer.
Sampling: TRANSMISSION
Resolution: 4
Origin: ARTHUR D. LITTLE, INC.
MICROMETERS	TRANSMITTANCE
2.536	0.978
2.57214	0.968
2.60829	0.947
2.64443	0.924
2.68058	0.898
2.71672	0.866
2.75287	0.843
2.78901	0.819
2.82516	0.801
2.8613	0.813
2.89745	0.832
2.93359	0.847
2.96974	0.824
3.00588	0.817
3.04203	0.854
3.07817	0.872
3.11432	0.868
3.15046	0.849
3.18661	0.818
3.22275	0.701
3.2589	0.501
3.29504	0.328
3.33119	0.168
3.36733	0.257
3.40348	0.293
3.43962	0.466
3.47577	0.74
3.51191	0.871
3.54806	0.891
3.5842	0.912
3.62035	0.914
3.65649	0.91
3.69264	0.92
3.72878	0.926
3.76493	0.929
3.80107	0.929
3.83721	0.931
3.87336	0.935
3.9095	0.942
3.94565	0.948
3.98179	0.95
4.01794	0.95
4.05408	0.949
4.09023	0.947
4.12637	0.951
4.16252	0.95
4.19866	0.949
4.23481	0.948
4.27095	0.947
4.3071	0.948
4.34324	0.948
4.37939	0.949
4.41553	0.95
4.45168	0.95
4.48782	0.95
4.52397	0.95
4.56011	0.95
4.59626	0.949
4.6324	0.948
4.66855	0.948
4.70469	0.945
4.74084	0.943
4.77698	0.944
4.81313	0.947
4.84927	0.947
4.88542	0.942
4.92156	0.941
4.95771	0.943
4.99385	0.947
5.03	0.949
5.06614	0.949
5.10228	0.949
5.13843	0.949
5.17457	0.948
5.21072	0.948
5.24686	0.948
5.28301	0.947
5.31915	0.947
5.3553	0.947
5.39144	0.948
5.42759	0.948
5.46373	0.948
5.49988	0.947
5.53602	0.943
5.57217	0.938
5.60831	0.935
5.64446	0.918
5.6806	0.904
5.71675	0.885
5.75289	0.861
5.78904	0.853
5.82518	0.8
5.86133	0.762
5.89747	0.736
5.93362	0.703
5.96976	0.614
6.00591	0.48
6.04205	0.193
6.0782	0.096
6.11434	0.193
6.15049	0.542
6.18663	0.671
6.22278	0.742
6.25892	0.776
6.29507	0.779
6.33121	0.784
6.36735	0.788
6.4035	0.79
6.43964	0.791
6.47579	0.793
6.51193	0.795
6.54808	0.8
6.58422	0.79
6.62037	0.782
6.65651	0.74
6.69266	0.696
6.7288	0.582
6.76495	0.385
6.80109	0.282
6.83724	0.262
6.87338	0.291
6.90953	0.237
6.94567	0.292
6.98182	0.376
7.01796	0.559
7.05411	0.636
7.09025	0.681
7.1264	0.691
7.16254	0.605
7.19869	0.4
7.23483	0.274
7.27098	0.361
7.30712	0.678
7.34327	0.691
7.37941	0.653
7.41556	0.661
7.4517	0.744
7.48785	0.63
7.52399	0.54
7.56014	0.584
7.59628	0.709
7.63242	0.716
7.66857	0.699
7.70471	0.657
7.74086	0.622
7.777	0.632
7.81315	0.703
7.84929	0.7
7.88544	0.679
7.92158	0.652
7.95773	0.637
7.99387	0.624
8.03002	0.602
8.06616	0.569
8.10231	0.531
8.13845	0.49
8.1746	0.513
8.21074	0.649
8.24689	0.69
8.28303	0.701
8.31918	0.693
8.35532	0.616
8.39147	0.513
8.42761	0.394
8.46376	0.245
8.4999	0.176
8.53605	0.126
8.57219	0.104
8.60834	0.095
8.64448	0.095
8.68063	0.134
8.71677	0.198
8.75292	0.268
8.78906	0.332
8.82521	0.406
8.86135	0.412
8.89749	0.394
8.93364	0.338
8.96978	0.336
9.00593	0.445
9.04207	0.453
9.07822	0.495
9.11436	0.576
9.15051	0.635
9.18665	0.665
9.2228	0.688
9.25894	0.702
9.29509	0.712
9.33123	0.722
9.36738	0.734
9.40352	0.73
9.43967	0.699
9.47581	0.683
9.51196	0.684
9.5481	0.694
9.58425	0.723
9.62039	0.728
9.65654	0.724
9.69268	0.712
9.72883	0.7
9.76497	0.694
9.80112	0.694
9.83726	0.706
9.87341	0.759
9.90955	0.782
9.9457	0.794
9.98184	0.8
10.018	0.8
10.0541	0.76
10.0903	0.723
10.1264	0.683
10.1626	0.643
10.1987	0.642
10.2349	0.659
10.271	0.67
10.3071	0.654
10.3433	0.56
10.3794	0.477
10.4156	0.374
10.4517	0.326
10.4879	0.306
10.524	0.29
10.5602	0.285
10.5963	0.288
10.6324	0.294
10.6686	0.354
10.7047	0.421
10.7409	0.453
10.777	0.486
10.8132	0.499
10.8493	0.499
10.8855	0.496
10.9216	0.5
10.9578	0.515
10.9939	0.542
11.03	0.566
11.0662	0.576
11.1023	0.577
11.1385	0.575
11.1746	0.571
11.2108	0.586
11.2469	0.648
11.2831	0.722
11.3192	0.761
11.3553	0.774
11.3915	0.788
11.4276	0.799
11.4638	0.803
11.4999	0.808
11.5361	0.806
11.5722	0.776
11.6084	0.734
11.6445	0.699
11.6806	0.661
11.7168	0.62
11.7529	0.584
11.7891	0.582
11.8252	0.598
11.8614	0.638
11.8975	0.683
11.9337	0.726
11.9698	0.749
12.006	0.767
12.0421	0.782
12.0782	0.795
12.1144	0.819
12.1505	0.829
12.1867	0.835
12.2228	0.839
12.259	0.841
12.2951	0.841
12.3313	0.841
12.3674	0.839
12.4035	0.837
12.4397	0.831
12.4758	0.819
12.512	0.805
12.5481	0.785
12.5843	0.755
12.6204	0.716
12.6566	0.687
12.6927	0.643
12.7288	0.624
12.765	0.619
12.8011	0.625
12.8373	0.683
12.8734	0.717
12.9096	0.741
12.9457	0.76
12.9819	0.776
13.018	0.782
13.0542	0.78
13.0903	0.758
13.1264	0.731
13.1626	0.714
13.1987	0.703
13.2349	0.695
13.271	0.685
13.3072	0.682
13.3433	0.694
13.3795	0.728
13.4156	0.77
13.4517	0.799
13.4879	0.813
13.524	0.827
13.5602	0.837
13.5963	0.843
13.6325	0.847
13.6686	0.844
13.7048	0.843
13.7409	0.842
13.7771	0.842
13.8132	0.841
13.8493	0.839
13.8855	0.838
13.9216	0.836
13.9578	0.832
13.9939	0.83
14.0301	0.826
14.0662	0.824
14.1024	0.823
14.1385	0.819
14.1746	0.813
14.2108	0.807
14.2469	0.801
14.2831	0.795
14.3192	0.789
14.3554	0.783
14.3915	0.778
14.4277	0.773
14.4638	0.767
14.4999	0.76
14.5361	0.753
14.5722	0.749
14.6084	0.743
14.6445	0.732
14.6807	0.712
14.7168	0.695
14.753	0.677
14.7891	0.666
14.8253	0.657
14.8614	0.651
14.8975	0.646
14.9337	0.642
14.9698	0.638
15.006	0.637
