Infrared Spectrum: N-1-(2-HYDROXYBUTYL) ACETAMIDE
Formula: C6 H13 N O2
CAS: 4293-58-7
Boiling point: 130-133 C AT 0.1 mmHg
Class: COBLENTZ
Instrument: Not specified, most likely a prism, grating, or hybrid spectrometer.
Sampling: TRANSMISSION
Path length: FILM
Resolution: 4
Origin: ARTHUR D. LITTLE, INC.
MICROMETERS	TRANSMITTANCE
2.005	0.879
2.03534	0.878
2.06569	0.876
2.09603	0.876
2.12637	0.875
2.15671	0.869
2.18706	0.869
2.2174	0.869
2.24774	0.87
2.27809	0.869
2.30843	0.854
2.33877	0.848
2.36911	0.851
2.39946	0.854
2.4298	0.858
2.46014	0.863
2.49048	0.864
2.52083	0.863
2.55117	0.863
2.58151	0.869
2.61186	0.878
2.6422	0.884
2.67254	0.884
2.70288	0.887
2.73323	0.879
2.76357	0.861
2.79391	0.776
2.82426	0.653
2.8546	0.51
2.88494	0.43
2.91528	0.317
2.94563	0.291
2.97597	0.235
3.00631	0.202
3.03665	0.191
3.067	0.206
3.09734	0.258
3.12768	0.322
3.15803	0.387
3.18837	0.439
3.21871	0.416
3.24905	0.424
3.2794	0.545
3.30974	0.585
3.34008	0.504
3.37043	0.348
3.40077	0.328
3.43111	0.319
3.46145	0.389
3.4918	0.392
3.52214	0.522
3.55248	0.618
3.58282	0.674
3.61317	0.731
3.64351	0.74
3.67385	0.747
3.7042	0.756
3.73454	0.765
3.76488	0.778
3.79522	0.793
3.82557	0.806
3.85591	0.816
3.88625	0.819
3.9166	0.822
3.94694	0.831
3.97728	0.843
4.00762	0.851
4.03797	0.857
4.06831	0.864
4.09865	0.876
4.12899	0.881
4.15934	0.879
4.18968	0.878
4.22002	0.879
4.25037	0.881
4.28071	0.884
4.31105	0.889
4.34139	0.902
4.37174	0.913
4.40208	0.914
4.43242	0.914
4.46277	0.914
4.49311	0.916
4.52345	0.916
4.55379	0.917
4.58414	0.92
4.61448	0.924
4.64482	0.924
4.67517	0.925
4.70551	0.931
4.73585	0.936
4.76619	0.937
4.79654	0.937
4.82688	0.939
4.85722	0.942
4.88756	0.943
4.91791	0.945
4.94825	0.945
4.97859	0.945
5.00894	0.946
5.03928	0.945
5.06962	0.943
5.09996	0.943
5.13031	0.943
5.16065	0.945
5.19099	0.946
5.22134	0.948
5.25168	0.949
5.28202	0.951
5.31236	0.952
5.34271	0.954
5.37305	0.957
5.40339	0.958
5.43373	0.958
5.46408	0.957
5.49442	0.955
5.52476	0.949
5.55511	0.94
5.58545	0.924
5.61579	0.911
5.64613	0.896
5.67648	0.841
5.70682	0.694
5.73716	0.667
5.76751	0.7
5.79785	0.694
5.82819	0.741
5.85853	0.749
5.88888	0.629
5.91922	0.472
5.94956	0.293
5.9799	0.177
6.01025	0.139
6.04059	0.144
6.07093	0.148
6.10128	0.159
6.13162	0.197
6.16196	0.296
6.1923	0.36
6.22265	0.392
6.25299	0.363
6.28333	0.306
6.31368	0.25
6.34402	0.203
6.37436	0.188
6.4047	0.183
6.43505	0.196
6.46539	0.214
6.49573	0.261
6.52607	0.31
6.55642	0.367
6.58676	0.402
6.6171	0.451
6.64745	0.484
6.67779	0.503
6.70813	0.501
6.73847	0.484
6.76882	0.39
6.79916	0.334
6.8295	0.335
6.85985	0.328
6.89019	0.31
6.92053	0.29
6.95087	0.294
6.98122	0.3
7.01156	0.32
7.0419	0.357
7.07225	0.376
7.10259	0.398
7.13293	0.407
7.16327	0.398
7.19362	0.349
7.22396	0.282
7.2543	0.256
7.28464	0.275
7.31499	0.351
7.34533	0.424
7.37567	0.458
7.40602	0.471
7.43636	0.477
7.4667	0.48
7.49704	0.48
7.52739	0.477
7.55773	0.46
7.58807	0.436
7.61842	0.401
7.64876	0.369
7.6791	0.343
7.70944	0.334
7.73979	0.34
7.77013	0.352
7.80047	0.372
7.83081	0.39
7.86116	0.401
7.8915	0.407
7.92184	0.41
7.95219	0.413
7.98253	0.413
8.01287	0.408
8.04321	0.404
8.07356	0.411
8.1039	0.466
8.13424	0.541
8.16459	0.61
8.19493	0.653
8.22527	0.7
8.25561	0.732
8.28596	0.753
8.3163	0.77
8.34664	0.779
8.37698	0.788
8.40733	0.797
8.43767	0.805
8.46801	0.81
8.49836	0.808
8.5287	0.805
8.55904	0.796
8.58938	0.787
8.61973	0.759
8.65007	0.72
8.68041	0.65
8.71076	0.524
8.7411	0.468
8.77144	0.413
8.80178	0.39
8.83213	0.372
8.86247	0.375
8.89281	0.384
8.92315	0.417
8.9535	0.44
8.98384	0.443
9.01418	0.439
9.04453	0.436
9.07487	0.439
9.10521	0.458
9.13555	0.466
9.1659	0.451
9.19624	0.437
9.22658	0.442
9.25693	0.458
9.28727	0.536
9.31761	0.598
9.34795	0.651
9.3783	0.68
9.40864	0.694
9.43898	0.677
9.46933	0.636
9.49967	0.613
9.53001	0.604
9.56035	0.592
9.5907	0.574
9.62104	0.548
9.65138	0.525
9.68172	0.516
9.71207	0.525
9.74241	0.544
9.77275	0.566
9.8031	0.585
9.83344	0.595
9.86378	0.588
9.89412	0.569
9.92447	0.545
9.95481	0.519
9.98515	0.496
10.0155	0.483
10.0458	0.477
10.0762	0.474
10.1065	0.477
10.1369	0.48
10.1672	0.487
10.1976	0.518
10.2279	0.541
10.2582	0.586
10.2886	0.63
10.3189	0.658
10.3493	0.696
10.3796	0.723
10.41	0.753
10.4403	0.768
10.4706	0.778
10.501	0.779
10.5313	0.772
10.5617	0.759
10.592	0.75
10.6224	0.74
10.6527	0.737
10.683	0.741
10.7134	0.752
10.7437	0.772
10.7741	0.808
10.8044	0.826
10.8348	0.843
10.8651	0.849
10.8954	0.852
10.9258	0.855
10.9561	0.857
10.9865	0.857
11.0168	0.857
11.0471	0.855
11.0775	0.855
11.1078	0.854
11.1382	0.851
11.1685	0.851
11.1989	0.851
11.2292	0.849
11.2595	0.849
11.2899	0.854
11.3202	0.857
11.3506	0.858
11.3809	0.86
11.4113	0.866
11.4416	0.869
11.4719	0.864
11.5023	0.86
11.5326	0.855
11.563	0.851
11.5933	0.843
11.6237	0.831
11.654	0.826
11.6843	0.823
11.7147	0.813
11.745	0.806
11.7754	0.8
11.8057	0.788
11.8361	0.781
11.8664	0.765
11.8967	0.75
11.9271	0.744
11.9574	0.747
11.9878	0.756
12.0181	0.775
12.0485	0.782
12.0788	0.8
12.1091	0.81
12.1395	0.819
12.1698	0.825
12.2002	0.829
12.2305	0.831
12.2609	0.831
12.2912	0.828
12.3215	0.825
12.3519	0.819
12.3822	0.814
12.4126	0.81
12.4429	0.803
12.4733	0.797
12.5036	0.791
12.5339	0.787
12.5643	0.778
12.5946	0.772
12.625	0.765
12.6553	0.744
12.6857	0.724
12.716	0.708
12.7463	0.693
12.7767	0.671
12.807	0.658
12.8374	0.645
12.8677	0.641
12.8981	0.636
12.9284	0.638
12.9587	0.641
12.9891	0.644
13.0194	0.645
13.0498	0.645
13.0801	0.648
13.1105	0.644
13.1408	0.641
13.1711	0.636
13.2015	0.635
13.2318	0.63
13.2622	0.627
13.2925	0.623
13.3229	0.618
13.3532	0.613
13.3835	0.607
13.4139	0.604
13.4442	0.601
13.4746	0.597
13.5049	0.591
13.5353	0.586
13.5656	0.582
13.5959	0.579
13.6263	0.577
13.6566	0.574
13.687	0.572
13.7173	0.568
13.7477	0.565
13.778	0.562
13.8083	0.557
13.8387	0.556
13.869	0.554
13.8994	0.554
13.9297	0.551
13.9601	0.548
13.9904	0.547
