Infrared Spectrum: 5-ETHYL-2-METHYL-Delta^2-THIAZOLINE
Formula: C6 H11 N S
CAS: 4293-62-3
Boiling point: 62-63 C AT 16 mmHg
Class: COBLENTZ
Instrument: Not specified, most likely a prism, grating, or hybrid spectrometer.
Sampling: TRANSMISSION
Path length: FILM
Resolution: 4
Origin: ARTHUR D. LITTLE, INC.
1/CM	TRANSMITTANCE
641.993	0.681
649.72	0.689
657.447	0.728
665.173	0.75
672.9	0.766
680.627	0.789
688.354	0.802
696.08	0.809
703.807	0.813
711.534	0.817
719.261	0.828
726.988	0.837
734.714	0.84
742.441	0.849
750.168	0.849
757.895	0.844
765.621	0.838
773.348	0.835
781.075	0.836
788.802	0.833
796.529	0.814
804.255	0.801
811.982	0.796
819.709	0.792
827.436	0.826
835.162	0.855
842.889	0.862
850.616	0.859
858.343	0.853
866.07	0.846
873.796	0.84
881.523	0.801
889.25	0.69
896.977	0.507
904.703	0.591
912.43	0.701
920.157	0.792
927.884	0.786
935.611	0.724
943.337	0.75
951.064	0.766
958.791	0.779
966.518	0.734
974.244	0.787
981.971	0.814
989.698	0.823
997.425	0.814
1005.15	0.796
1012.88	0.784
1020.61	0.778
1028.33	0.762
1036.06	0.739
1043.79	0.751
1051.51	0.766
1059.24	0.775
1066.97	0.78
1074.69	0.784
1082.42	0.786
1090.15	0.786
1097.87	0.774
1105.6	0.756
1113.33	0.715
1121.05	0.612
1128.78	0.438
1136.51	0.336
1144.23	0.53
1151.96	0.679
1159.69	0.725
1167.41	0.708
1175.14	0.724
1182.87	0.778
1190.59	0.784
1198.32	0.764
1206.05	0.751
1213.77	0.764
1221.5	0.793
1229.23	0.804
1236.95	0.813
1244.68	0.824
1252.41	0.824
1260.14	0.819
1267.86	0.815
1275.59	0.773
1283.32	0.801
1291.04	0.823
1298.77	0.832
1306.5	0.833
1314.22	0.823
1321.95	0.811
1329.68	0.815
1337.4	0.802
1345.13	0.721
1352.86	0.632
1360.58	0.695
1368.31	0.804
1376.04	0.8
1383.76	0.791
1391.49	0.774
1399.22	0.717
1406.94	0.661
1414.67	0.609
1422.4	0.627
1430.12	0.612
1437.85	0.634
1445.58	0.641
1453.3	0.631
1461.03	0.712
1468.76	0.802
1476.48	0.826
1484.21	0.829
1491.94	0.836
1499.67	0.837
1507.39	0.841
1515.12	0.837
1522.85	0.837
1530.57	0.837
1538.3	0.832
1546.03	0.832
1553.75	0.833
1561.48	0.826
1569.21	0.824
1576.93	0.818
1584.66	0.815
1592.39	0.804
1600.11	0.787
1607.84	0.775
1615.57	0.69
1623.29	0.52
1631.02	0.4
1638.75	0.395
1646.47	0.673
1654.2	0.78
1661.93	0.798
1669.65	0.809
1677.38	0.818
1685.11	0.826
1692.83	0.829
1700.56	0.829
1708.29	0.829
1716.01	0.826
1723.74	0.822
1731.47	0.826
1739.2	0.835
1746.92	0.842
1754.65	0.845
1762.38	0.846
1770.1	0.849
1777.83	0.85
1785.56	0.85
1793.28	0.847
1801.01	0.847
1808.74	0.847
1816.46	0.846
1824.19	0.846
1831.92	0.845
1839.64	0.845
1847.37	0.847
1855.1	0.849
1862.82	0.85
1870.55	0.851
1878.28	0.85
1886	0.85
1893.73	0.853
1901.46	0.85
1909.18	0.85
1916.91	0.85
1924.64	0.85
1932.36	0.847
1940.09	0.846
1947.82	0.845
1955.55	0.845
1963.27	0.846
1971	0.847
1978.73	0.847
1986.45	0.846
1994.18	0.845
2001.91	0.844
2009.63	0.845
2017.36	0.846
2025.09	0.846
2032.81	0.846
2040.54	0.846
2048.27	0.846
2055.99	0.846
2063.72	0.846
2071.45	0.846
2079.17	0.845
2086.9	0.845
2094.63	0.846
2102.35	0.844
2110.08	0.841
2117.81	0.841
2125.53	0.842
2133.26	0.845
2140.99	0.845
2148.71	0.844
2156.44	0.841
2164.17	0.841
2171.89	0.844
2179.62	0.845
2187.35	0.842
2195.08	0.837
2202.8	0.841
2210.53	0.842
2218.26	0.845
2225.98	0.845
2233.71	0.845
2241.44	0.842
2249.16	0.838
2256.89	0.838
2264.62	0.842
2272.34	0.841
2280.07	0.841
2287.8	0.841
2295.52	0.84
2303.25	0.838
2310.98	0.84
2318.7	0.838
2326.43	0.84
2334.16	0.838
2341.88	0.836
2349.61	0.835
2357.34	0.835
2365.06	0.837
2372.79	0.84
2380.52	0.841
2388.24	0.842
2395.97	0.844
2403.7	0.845
2411.42	0.842
2419.15	0.842
2426.88	0.842
2434.61	0.842
2442.33	0.842
2450.06	0.841
2457.79	0.841
2465.51	0.84
2473.24	0.84
2480.97	0.84
2488.69	0.84
2496.42	0.838
2504.15	0.838
2511.87	0.837
2519.6	0.837
2527.33	0.837
2535.05	0.837
2542.78	0.837
2550.51	0.837
2558.23	0.838
2565.96	0.841
2573.69	0.841
2581.41	0.84
2589.14	0.838
2596.87	0.837
2604.59	0.838
2612.32	0.838
2620.05	0.837
2627.77	0.836
2635.5	0.838
2643.23	0.841
2650.95	0.84
2658.68	0.84
2666.41	0.842
2674.14	0.842
2681.86	0.84
2689.59	0.838
2697.32	0.838
2705.04	0.84
2712.77	0.837
2720.5	0.833
2728.22	0.832
2735.95	0.832
2743.68	0.833
2751.4	0.833
2759.13	0.831
2766.86	0.826
2774.58	0.824
2782.31	0.823
2790.04	0.822
2797.76	0.82
2805.49	0.82
2813.22	0.813
2820.94	0.798
2828.67	0.795
2836.4	0.768
2844.12	0.72
2851.85	0.628
2859.58	0.594
2867.3	0.639
2875.03	0.631
2882.76	0.615
2890.48	0.634
2898.21	0.617
2905.94	0.59
2913.67	0.563
2921.39	0.515
2929.12	0.49
2936.85	0.462
2944.57	0.479
2952.3	0.516
2960.03	0.501
2967.75	0.443
2975.48	0.447
2983.21	0.613
2990.93	0.699
2998.66	0.744
3006.39	0.765
3014.11	0.789
3021.84	0.806
3029.57	0.809
3037.29	0.807
3045.02	0.809
3052.75	0.809
3060.47	0.809
3068.2	0.809
3075.93	0.817
3083.65	0.817
3091.38	0.817
3099.11	0.815
3106.83	0.819
3114.56	0.822
3122.29	0.819
3130.02	0.818
3137.74	0.815
3145.47	0.813
3153.2	0.81
3160.92	0.807
3168.65	0.807
3176.38	0.807
3184.1	0.806
3191.83	0.805
3199.56	0.801
3207.28	0.796
3215.01	0.795
3222.74	0.797
3230.46	0.791
3238.19	0.788
3245.92	0.791
3253.64	0.784
3261.37	0.784
3269.1	0.784
3276.82	0.784
3284.55	0.783
3292.28	0.789
3300	0.789
3307.73	0.788
3315.46	0.784
3323.18	0.791
3330.91	0.788
3338.64	0.788
3346.36	0.787
3354.09	0.787
3361.82	0.788
3369.55	0.786
3377.27	0.783
3385	0.783
3392.73	0.784
3400.45	0.779
