Infrared Spectrum: 4-Chloroquinaldine
Formula: C 10 H 8 Cl N
CAS: 4295-06-1
State: gas
Origin: EPA-IR VAPOR PHASE LIBRARY
1/CM	ABSORBANCE
549.8	0.00131483
559.445	0.000972
569.09	0.00247
578.734	0.00241
588.379	0.00130153
598.024	0.001005
607.669	0.0015517
617.313	0.00244
626.958	0.00825
636.603	0.01487
646.248	0.00806
655.893	0.00226
665.537	0.0020682
675.182	0.0015688
684.827	0.0014232
694.472	0.00125192
704.116	0.0018066
713.761	0.0019282
723.406	0.0017172
733.051	0.00486
742.695	0.01841
752.34	0.0492
761.985	0.0509
771.63	0.01912
781.275	0.00397
790.919	0.00363
800.564	0.0033
810.209	0.00388
819.854	0.00974
829.498	0.02246
839.143	0.02262
848.788	0.01625
858.433	0.02499
868.078	0.01179
877.722	0.00466
887.367	0.00411
897.012	0.00709
906.657	0.01904
916.301	0.0239
925.946	0.01166
935.591	0.00564
945.236	0.00419
954.88	0.00529
964.525	0.00674
974.17	0.00818
983.815	0.00536
993.46	0.00419
1003.1	0.0051
1012.75	0.00725
1022.39	0.00638
1032.04	0.00375
1041.68	0.0021757
1051.33	0.00284
1060.97	0.00132258
1070.62	0.0021158
1080.26	0.0018438
1089.91	0.0016825
1099.55	0.00332
1109.2	0.0031
1118.84	0.00354
1128.49	0.00404
1138.13	0.00648
1147.78	0.0086
1157.42	0.00529
1167.07	0.00717
1176.71	0.00941
1186.36	0.00641
1196	0.00336
1205.64	0.00511
1215.29	0.00657
1224.93	0.00594
1234.58	0.00318
1244.22	0.00323
1253.87	0.004
1263.51	0.00433
1273.16	0.00624
1282.8	0.01072
1292.45	0.01519
1302.09	0.01898
1311.74	0.02139
1321.38	0.01531
1331.03	0.00764
1340.67	0.00523
1350.32	0.00561
1359.96	0.00682
1369.61	0.01053
1379.25	0.01538
1388.9	0.02137
1398.54	0.03486
1408.18	0.03685
1417.83	0.01666
1427.47	0.00708
1437.12	0.00657
1446.76	0.00611
1456.41	0.00597
1466.05	0.00807
1475.7	0.01814
1485.34	0.03959
1494.99	0.046
1504.63	0.02817
1514.28	0.01414
1523.92	0.01035
1533.57	0.01286
1543.21	0.02392
1552.86	0.03265
1562.5	0.02681
1572.15	0.02811
1581.79	0.05338
1591.44	0.06782
1601.08	0.04248
1610.73	0.02879
1620.37	0.02528
1630.01	0.01396
1639.66	0.00687
1649.3	0.00491
1658.95	0.00346
1668.59	0.00293
1678.24	0.00244
1687.88	0.00261
1697.53	0.00359
1707.17	0.0058
1716.82	0.00548
1726.46	0.00328
1736.11	0.00238
1745.75	0.00246
1755.4	0.00257
1765.04	0.0018045
1774.69	0.0016379
1784.33	0.0015409
1793.98	0.001493
1803.62	0.0022284
1813.27	0.00317
1822.91	0.00294
1832.55	0.00288
1842.2	0.00298
1851.84	0.0019892
1861.49	0.0016612
1871.13	0.0015335
1880.78	0.0017259
1890.42	0.0019357
1900.07	0.0021171
1909.71	0.00236
1919.36	0.00272
1929	0.00305
1938.65	0.00246
1948.29	0.00301
1957.94	0.00283
1967.58	0.001804
1977.23	0.0014172
1986.87	0.001205
1996.52	0.00133667
2006.16	0.0011938
2015.81	0.00134501
2025.45	0.0012172
2035.1	0.00126088
2044.74	0.001546
2054.38	0.00147
2064.03	0.0011736
2073.67	0.0012088
2083.32	0.00130074
2092.96	0.0012319
2102.61	0.0012292
2112.25	0.00133888
2121.9	0.0015739
2131.54	0.0015157
2141.19	0.001115
2150.83	0.0013863
2160.48	0.0012221
2170.12	0.00131438
2179.77	0.001085
2189.41	0.001147
2199.06	0.001145
2208.7	0.0013672
2218.35	0.0012057
2227.99	0.00124703
2237.64	0.001148
2247.28	0.0013665
2256.92	0.0012393
2266.57	0.00126087
2276.21	0.0014391
2285.86	0.0013509
2295.5	0.0015935
2305.15	0.0015696
2314.79	0.00125612
2324.44	0.0014895
2334.08	0.0014477
2343.73	0.0015798
2353.37	0.0016695
2363.02	0.0017351
2372.66	0.0014439
2382.31	0.0016956
2391.95	0.00133229
2401.6	0.0013983
2411.24	0.0014607
2420.89	0.0014596
2430.53	0.0014159
2440.18	0.0014708
2449.82	0.001429
2459.47	0.0014165
2469.11	0.0014151
2478.75	0.0018062
2488.4	0.0013862
2498.04	0.0014686
2507.69	0.001424
2517.33	0.0013745
2526.98	0.0013541
2536.62	0.00133268
2546.27	0.0015116
2555.91	0.00129517
2565.56	0.00134779
2575.2	0.0011801
2584.85	0.0017485
2594.49	0.0015364
2604.14	0.0014451
2613.78	0.001222
2623.43	0.000967
2633.07	0.001038
2642.72	0.000991
2652.36	0.000915
2662.01	0.00126758
2671.65	0.0011898
2681.29	0.001022
2690.94	0.001385
2700.58	0.0015459
2710.23	0.0014079
2719.87	0.00126794
2729.52	0.0013667
2739.16	0.00124874
2748.81	0.0013903
2758.45	0.000884
2768.1	0.001022
2777.74	0.001071
2787.39	0.0014073
2797.03	0.0013983
2806.68	0.00133554
2816.32	0.0014363
2825.97	0.0015986
2835.61	0.0016722
2845.26	0.00276
2854.9	0.00335
2864.55	0.00403
2874.19	0.00365
2883.84	0.00375
2893.48	0.00366
2903.12	0.0046
2912.77	0.00557
2922.41	0.00891
2932.06	0.0138
2941.7	0.01132
2951.35	0.00733
2960.99	0.00618
2970.64	0.0046
2980.28	0.00326
2989.93	0.00326
2999.57	0.00343
3009.22	0.0046
3018.86	0.00588
3028.51	0.00652
3038.15	0.00718
3047.8	0.00831
3057.44	0.01189
3067.09	0.01943
3076.73	0.02041
3086.38	0.0134
3096.02	0.00873
3105.67	0.00546
3115.31	0.00343
3124.95	0.0020888
3134.6	0.0014635
3144.24	0.0012398
3153.89	0.0012197
3163.53	0.0014745
3173.18	0.0015319
3182.82	0.0015831
3192.47	0.00131743
3202.11	0.000761
3211.76	0.000621
3221.4	0.000779
3231.05	0.00130288
3240.69	0.000985
3250.34	0.000674
3259.98	0.0009
3269.63	0.000863
3279.27	0.000712
3288.92	0.000855
3298.56	0.000795
3308.21	0.000752
3317.85	0.0015257
3327.49	0.000929
3337.14	0.0013763
3346.78	0.000637
3356.43	0.000463
3366.07	0.00073
3375.72	0.00067
3385.36	0.000808
3395.01	0.000749
3404.65	0.000791
3414.3	0.000681
3423.94	0.00126382
3433.59	0.0015175
3443.23	0.001026
3452.88	0.000992
3462.52	0.00076
3472.17	0.000924
3481.81	0.00134703
3491.46	0.0012224
3501.1	0.001114
3510.75	0.000972
3520.39	0.000718
3530.04	0.000963
3539.68	0.001125
3549.32	0.000956
3558.97	0.000724
3568.61	0.001115
3578.26	0.000801
3587.9	0.00095
3597.55	0.00022
3607.19	0.00098
3616.84	0.0012236
3626.48	0.000705
3636.13	0.000575
3645.77	0.0011
3655.42	0.00130248
3665.06	0.00092
3674.71	0.000712
3684.35	0.000774
3694	0.000835
3703.64	0.0011552
3713.29	0.000875
3722.93	0.000647
3732.58	0.00113
3742.22	0.000563
3751.86	0.0012199
3761.51	0.000945
3771.15	0.000768
3780.8	0.0011787
3790.44	0.000881
3800.09	0.0015106
3809.73	0.001141
3819.38	0.0015797
3829.02	0.0011602
3838.67	0.0016463
3848.31	0.000968
3857.96	0.000812
3867.6	0.000547
3877.25	0.000596
3886.89	0.0012254
3896.54	0.00046
3906.18	0.000896
3915.83	0.000845
3925.47	0.00102
3935.12	0.000583
3944.76	0.0016756
3954.41	0.00048
3964.05	0.000949
3973.69	0.000911
3983.34	0.00132199
3992.98	0.0014258
