Infrared Spectrum: UREA, 1-ACETYL-1,3-DICYCLOHEXYL-
Formula: C15 H26 N2 O2
CAS: 42965-13-9
State: SOLID (1 mg / 650 mg KBr DISC)
Class: COBLENTZ III
Instrument: PERKIN-ELMER 521 (GRATING)
Instrument parameters: FILTERS AT 3150, 2500, 2000, 1150, 700, 410 CM ^-^1, GRATING CHANGES AT 2000, 630 CM^-^1
Sampling: TRANSMISSION
Resolution: 4
Origin: SOUTHERN RES. INSTITUTE
1/CM	TRANSMITTANCE
244.094	0.268
253.259	0.292
262.424	0.371
271.589	0.444
280.754	0.504
289.919	0.551
299.084	0.589
308.249	0.622
317.414	0.649
326.579	0.673
335.744	0.696
344.909	0.717
354.074	0.736
363.239	0.752
372.404	0.765
381.569	0.767
390.734	0.783
399.899	0.805
409.064	0.812
418.229	0.816
427.394	0.82
436.559	0.818
445.724	0.801
454.889	0.773
464.054	0.818
473.219	0.829
482.384	0.822
491.549	0.822
500.714	0.847
509.879	0.853
519.043	0.852
528.208	0.856
537.373	0.853
546.538	0.84
555.703	0.768
564.868	0.827
574.033	0.844
583.198	0.806
592.363	0.818
601.528	0.841
610.693	0.841
619.858	0.828
629.023	0.736
638.188	0.794
647.353	0.805
656.518	0.806
665.683	0.8
674.848	0.792
684.013	0.78
693.178	0.752
702.343	0.778
711.508	0.824
720.673	0.85
729.838	0.862
739.003	0.869
748.168	0.876
757.333	0.88
766.498	0.882
775.663	0.879
784.828	0.803
793.993	0.866
803.158	0.872
812.323	0.854
821.488	0.888
830.653	0.882
839.818	0.86
848.983	0.885
858.148	0.819
867.313	0.887
876.478	0.882
885.643	0.787
894.808	0.792
903.973	0.879
913.138	0.888
922.303	0.883
931.468	0.884
940.633	0.884
949.798	0.868
958.963	0.747
968.128	0.774
977.293	0.863
986.458	0.871
995.623	0.866
1004.79	0.847
1013.95	0.838
1023.12	0.8
1032.28	0.795
1041.45	0.787
1050.61	0.828
1059.78	0.834
1068.94	0.834
1078.11	0.77
1087.27	0.723
1096.44	0.826
1105.6	0.853
1114.77	0.86
1123.93	0.855
1133.1	0.849
1142.26	0.815
1151.43	0.816
1160.59	0.82
1169.76	0.77
1178.92	0.841
1188.09	0.83
1197.25	0.802
1206.42	0.84
1215.58	0.811
1224.75	0.718
1233.91	0.46
1243.08	0.62
1252.24	0.466
1261.41	0.697
1270.57	0.721
1279.74	0.637
1288.9	0.792
1298.07	0.763
1307.23	0.701
1316.4	0.736
1325.56	0.641
1334.73	0.652
1343.89	0.634
1353.06	0.581
1362.22	0.679
1371.39	0.503
1380.55	0.407
1389.72	0.454
1398.88	0.6
1408.05	0.72
1417.21	0.755
1426.38	0.756
1435.54	0.74
1444.71	0.672
1453.87	0.551
1463.04	0.733
1472.2	0.784
1481.37	0.798
1490.53	0.793
1499.7	0.773
1508.86	0.729
1518.03	0.655
1527.19	0.442
1536.36	0.285
1545.52	0.501
1554.69	0.685
1563.85	0.726
1573.02	0.742
1582.18	0.771
1591.35	0.774
1600.51	0.737
1609.68	0.679
1618.84	0.422
1628.01	0.213
1637.17	0.232
1646.34	0.54
1655.5	0.681
1664.67	0.73
1673.83	0.749
1683	0.705
1692.16	0.55
1701.33	0.188
1710.49	0.368
1719.66	0.65
1728.82	0.765
1737.99	0.798
1747.15	0.808
1756.32	0.832
1765.48	0.841
1774.65	0.849
1783.81	0.851
1792.98	0.857
1802.14	0.866
1811.31	0.869
1820.47	0.871
1829.64	0.873
1838.8	0.874
1847.97	0.876
1857.13	0.877
1866.3	0.878
1875.46	0.879
1884.63	0.879
1893.79	0.88
1902.96	0.881
1912.12	0.879
1921.29	0.879
1930.45	0.88
1939.62	0.881
1948.78	0.882
1957.95	0.883
1967.11	0.884
1976.28	0.884
1985.44	0.883
1994.61	0.882
2003.77	0.88
2012.94	0.88
2022.1	0.88
2031.27	0.88
2040.43	0.88
2049.6	0.88
2058.76	0.88
2067.93	0.88
2077.09	0.88
2086.26	0.88
2095.42	0.879
2104.59	0.876
2113.75	0.875
2122.92	0.877
2132.08	0.879
2141.25	0.879
2150.41	0.879
2159.58	0.878
2168.74	0.878
2177.91	0.878
2187.07	0.878
2196.24	0.877
2205.4	0.877
2214.57	0.876
2223.73	0.876
2232.9	0.876
2242.06	0.876
2251.23	0.876
2260.39	0.877
2269.56	0.877
2278.72	0.878
2287.89	0.877
2297.05	0.876
2306.22	0.873
2315.38	0.873
2324.55	0.873
2333.71	0.873
2342.88	0.873
2352.04	0.872
2361.21	0.872
2370.37	0.872
2379.54	0.872
2388.7	0.872
2397.87	0.872
2407.03	0.873
2416.2	0.873
2425.36	0.874
2434.52	0.874
2443.69	0.874
2452.85	0.873
2462.02	0.872
2471.18	0.871
2480.35	0.87
2489.51	0.869
2498.68	0.868
2507.84	0.868
2517.01	0.868
2526.17	0.868
2535.34	0.869
2544.5	0.869
2553.67	0.869
2562.83	0.869
2572	0.867
2581.16	0.866
2590.33	0.865
2599.49	0.865
2608.66	0.865
2617.82	0.864
2626.99	0.863
2636.15	0.862
2645.32	0.858
2654.48	0.853
2663.65	0.851
2672.81	0.856
2681.98	0.857
2691.14	0.86
2700.31	0.861
2709.47	0.862
2718.64	0.862
2727.8	0.861
2736.97	0.86
2746.13	0.857
2755.3	0.854
2764.46	0.844
2773.63	0.842
2782.79	0.841
2791.96	0.84
2801.12	0.838
2810.29	0.834
2819.45	0.825
2828.62	0.803
2837.78	0.717
2846.95	0.547
2856.11	0.47
2865.28	0.648
2874.44	0.749
2883.61	0.736
2892.77	0.679
2901.94	0.584
2911.1	0.476
2920.27	0.376
2929.43	0.31
2938.6	0.339
2947.76	0.492
2956.93	0.663
2966.09	0.746
2975.26	0.784
2984.42	0.801
2993.59	0.809
3002.75	0.811
3011.92	0.809
3021.08	0.807
3030.25	0.801
3039.41	0.785
3048.58	0.771
3057.74	0.777
3066.91	0.801
3076.07	0.815
3085.24	0.826
3094.4	0.831
3103.57	0.831
3112.73	0.831
3121.9	0.833
3131.06	0.832
3140.23	0.816
3149.39	0.809
3158.56	0.803
3167.72	0.8
3176.89	0.8
3186.05	0.8
3195.22	0.797
3204.38	0.787
3213.55	0.779
3222.71	0.77
3231.88	0.753
3241.04	0.72
3250.21	0.663
3259.37	0.574
3268.54	0.457
3277.7	0.384
3286.87	0.496
3296.03	0.582
3305.2	0.676
3314.36	0.699
3323.53	0.706
3332.69	0.719
3341.86	0.737
3351.02	0.752
3360.19	0.764
3369.35	0.768
3378.52	0.768
3387.68	0.769
3396.85	0.768
3406.01	0.769
3415.18	0.773
3424.34	0.775
3433.51	0.777
3442.67	0.78
3451.84	0.783
3461	0.786
3470.17	0.789
3479.33	0.791
3488.5	0.793
3497.66	0.796
3506.83	0.799
3515.99	0.803
3525.16	0.807
3534.32	0.81
3543.49	0.815
3552.65	0.819
3561.82	0.822
3570.98	0.826
3580.15	0.831
3589.31	0.837
3598.48	0.839
3607.64	0.842
3616.81	0.847
3625.97	0.85
3635.14	0.851
3644.3	0.853
3653.47	0.854
3662.63	0.853
3671.8	0.852
3680.96	0.853
3690.13	0.857
3699.29	0.859
3708.46	0.86
3717.62	0.859
3726.79	0.859
3735.95	0.86
3745.12	0.858
3754.28	0.859
3763.45	0.859
3772.61	0.859
