Infrared Spectrum: 2-Hydroxy-3-methoxyphenylacetonitrile
Formula: C 9 H 9 N O 2
CAS: 42973-56-8
State: gas
Origin: EPA-IR VAPOR PHASE LIBRARY
1/CM	ABSORBANCE
549.8	0.00457
559.445	0.0037
569.09	0.00227
578.734	0.0011082
588.379	0.00128
598.024	0.00126
607.669	0.00125
617.313	0.00145
626.958	0.00126
636.603	0.0011974
646.248	0.0010161
655.893	0.00151
665.537	0.00129
675.182	0.00169
684.827	0.00257
694.472	0.00433
704.116	0.00698
713.761	0.011
723.406	0.01924
733.051	0.02459
742.695	0.01692
752.34	0.01137
761.985	0.01152
771.63	0.01202
781.275	0.00926
790.919	0.00505
800.564	0.00304
810.209	0.00336
819.854	0.00599
829.498	0.00811
839.143	0.00711
848.788	0.00524
858.433	0.00526
868.078	0.00632
877.722	0.00721
887.367	0.00633
897.012	0.00517
906.657	0.00446
916.301	0.00456
925.946	0.0049
935.591	0.00604
945.236	0.00847
954.88	0.00861
964.525	0.00628
974.17	0.00401
983.815	0.00313
993.46	0.00315
1003.1	0.00358
1012.75	0.00462
1022.39	0.00609
1032.04	0.00912
1041.68	0.01407
1051.33	0.02244
1060.97	0.03196
1070.62	0.04314
1080.26	0.04541
1089.91	0.03091
1099.55	0.01397
1109.2	0.0078
1118.84	0.00481
1128.49	0.00416
1138.13	0.0035
1147.78	0.00398
1157.42	0.00677
1167.07	0.01051
1176.71	0.01131
1186.36	0.01184
1196	0.01591
1205.64	0.02706
1215.29	0.05303
1224.93	0.06765
1234.58	0.0465
1244.22	0.02692
1253.87	0.03387
1263.51	0.0683
1273.16	0.0942
1282.8	0.06515
1292.45	0.0263
1302.09	0.01259
1311.74	0.00908
1321.38	0.00879
1331.03	0.01085
1340.67	0.01811
1350.32	0.02797
1359.96	0.02244
1369.61	0.00919
1379.25	0.00489
1388.9	0.00367
1398.54	0.0037
1408.18	0.00495
1417.83	0.00833
1427.47	0.01201
1437.12	0.01814
1446.76	0.02739
1456.41	0.03011
1466.05	0.0437
1475.7	0.08012
1485.34	0.08506
1494.99	0.05114
1504.63	0.02566
1514.28	0.01152
1523.92	0.00563
1533.57	0.00355
1543.21	0.00286
1552.86	0.00268
1562.5	0.00291
1572.15	0.00363
1581.79	0.00628
1591.44	0.01065
1601.08	0.01186
1610.73	0.0111
1620.37	0.01217
1630.01	0.00894
1639.66	0.00447
1649.3	0.00241
1658.95	0.00164
1668.59	0.00127
1678.24	0.0011688
1687.88	0.0010503
1697.53	0.0009502
1707.17	0.0011925
1716.82	0.00123
1726.46	0.00121
1736.11	0.00121
1745.75	0.0010595
1755.4	0.0008851
1765.04	0.0008285
1774.69	0.0008886
1784.33	0.0009353
1793.98	0.0009376
1803.62	0.00123
1813.27	0.00143
1822.91	0.00145
1832.55	0.0011743
1842.2	0.0008758
1851.84	0.0007576
1861.49	0.0007774
1871.13	0.0009095
1880.78	0.00125
1890.42	0.00156
1900.07	0.00159
1909.71	0.00124
1919.36	0.0009671
1929	0.000815
1938.65	0.0008723
1948.29	0.0009257
1957.94	0.0008878
1967.58	0.0009001
1977.23	0.0009908
1986.87	0.0010658
1996.52	0.0010219
2006.16	0.0009874
2015.81	0.0009097
2025.45	0.0009212
2035.1	0.0010088
2044.74	0.0009888
2054.38	0.0009835
2064.03	0.0008465
2073.67	0.0008191
2083.32	0.0008552
2092.96	0.000982
2102.61	0.0009644
2112.25	0.0009162
2121.9	0.0009442
2131.54	0.0009679
2141.19	0.0010051
2150.83	0.0011311
2160.48	0.0010541
2170.12	0.0008519
2179.77	0.000764
2189.41	0.0007777
2199.06	0.0007259
2208.7	0.0006897
2218.35	0.0007161
2227.99	0.0007053
2237.64	0.00091
2247.28	0.00157
2256.92	0.00169
2266.57	0.0011014
2276.21	0.0007079
2285.86	0.0006368
2295.5	0.0007093
2305.15	0.0007739
2314.79	0.0007438
2324.44	0.0007593
2334.08	0.0007143
2343.73	0.0007641
2353.37	0.0006715
2363.02	0.0005925
2372.66	0.0006635
2382.31	0.0006709
2391.95	0.0006393
2401.6	0.0006654
2411.24	0.0008256
2420.89	0.0008501
2430.53	0.0008948
2440.18	0.0008576
2449.82	0.0007387
2459.47	0.0007144
2469.11	0.0007378
2478.75	0.0008363
2488.4	0.0010299
2498.04	0.0009948
2507.69	0.0010832
2517.33	0.0010248
2526.98	0.0009435
2536.62	0.0010245
2546.27	0.0011318
2555.91	0.0008911
2565.56	0.0008157
2575.2	0.0007972
2584.85	0.0006546
2594.49	0.0007692
2604.14	0.0007256
2613.78	0.000824
2623.43	0.0007026
2633.07	0.0007341
2642.72	0.0007068
2652.36	0.0006568
2662.01	0.0004985
2671.65	0.0005868
2681.29	0.0005814
2690.94	0.000624
2700.58	0.0006224
2710.23	0.0007992
2719.87	0.0006826
2729.52	0.000714
2739.16	0.0007665
2748.81	0.000759
2758.45	0.0006938
2768.1	0.0006907
2777.74	0.0007051
2787.39	0.000761
2797.03	0.0010138
2806.68	0.00143
2816.32	0.00205
2825.97	0.00252
2835.61	0.00404
2845.26	0.00801
2854.9	0.00917
2864.55	0.00526
2874.19	0.0037
2883.84	0.00345
2893.48	0.00367
2903.12	0.00498
2912.77	0.00702
2922.41	0.00795
2932.06	0.00881
2941.7	0.01305
2951.35	0.01817
2960.99	0.01544
2970.64	0.011
2980.28	0.00789
2989.93	0.00631
2999.57	0.00752
3009.22	0.01046
3018.86	0.00904
3028.51	0.0049
3038.15	0.0042
3047.8	0.00528
3057.44	0.00664
3067.09	0.00743
3076.73	0.00686
3086.38	0.00513
3096.02	0.00372
3105.67	0.00268
3115.31	0.00186
3124.95	0.00134
3134.6	0.0010741
3144.24	0.0009313
3153.89	0.0007188
3163.53	0.000676
3173.18	0.0007598
3182.82	0.00068
3192.47	0.0007211
3202.11	0.0007499
3211.76	0.0005524
3221.4	0.00065
3231.05	0.0006335
3240.69	0.0006275
3250.34	0.0006162
3259.98	0.0005469
3269.63	0.00029922
3279.27	0.0004625
3288.92	0.00021932
3298.56	0.0002778
3308.21	0.000542
3317.85	0.00029564
3327.49	0.00021826
3337.14	0.00028362
3346.78	0.00027762
3356.43	0.000392
3366.07	0.00026995
3375.72	0.0002788
3385.36	0.0004171
3395.01	0.00019152
3404.65	0.0003004
3414.3	0.00027785
3423.94	0.0003101
3433.59	0.0002659
3443.23	0.00022775
3452.88	0.0003291
3462.52	0.00027029
3472.17	0.0003257
3481.81	0.0004278
3491.46	0.0004805
3501.1	0.0005452
3510.75	0.0005672
3520.39	0.0007266
3530.04	0.00121
3539.68	0.00203
3549.32	0.00398
3558.97	0.0112
3568.61	0.03503
3578.26	0.05732
3587.9	0.0408
3597.55	0.01411
3607.19	0.00488
3616.84	0.00226
3626.48	0.00124
3636.13	0.0008652
3645.77	0.0006924
3655.42	0.0004731
3665.06	0.0002772
3674.71	0.00028509
3684.35	0.0004011
3694	0.00027821
3703.64	0.0003587
3713.29	0.0002694
3722.93	0.0001824
3732.58	0.0001771
3742.22	0.000204439
3751.86	0.00026309
3761.51	0.00019849
3771.15	6.1e-05
3780.8	0.0003268
3790.44	0.00026607
3800.09	0.00022118
3809.73	0.000208347
3819.38	0.000206788
3829.02	0.0004342
3838.67	0.0005275
3848.31	0.0006059
3857.96	0.0004038
3867.6	0.0007595
3877.25	0.0006494
3886.89	0.0005948
3896.54	0.0006249
3906.18	0.0005335
3915.83	0.0005976
3925.47	0.0004143
3935.12	0.0005452
3944.76	0.0005181
3954.41	0.0004338
3964.05	0.0003358
3973.69	0.0002954
3983.34	0.0003337
3992.98	0.0004904
