Infrared Spectrum: 2-Phenoxybenzhydrazide
Formula: C13 H12 N2 O2
CAS: 43038-37-5
State: gas
Origin: EPA-IR VAPOR PHASE LIBRARY
1/CM	ABSORBANCE
549.8	0.00747
559.445	0.00619
569.09	0.00625
578.734	0.00519
588.379	0.0046
598.024	0.00406
607.669	0.0037
617.313	0.00351
626.958	0.00314
636.603	0.00305
646.248	0.00399
655.893	0.00617
665.537	0.00658
675.182	0.00689
684.827	0.01454
694.472	0.01698
704.116	0.01005
713.761	0.00775
723.406	0.00766
733.051	0.01097
742.695	0.02878
752.34	0.04262
761.985	0.01882
771.63	0.01274
781.275	0.01275
790.919	0.01214
800.564	0.0104
810.209	0.00671
819.854	0.00517
829.498	0.00478
839.143	0.00722
848.788	0.01442
858.433	0.01596
868.078	0.01031
877.722	0.0103
887.367	0.01132
897.012	0.0092
906.657	0.00913
916.301	0.01281
925.946	0.0219
935.591	0.03335
945.236	0.03127
954.88	0.01552
964.525	0.00756
974.17	0.00516
983.815	0.00409
993.46	0.00334
1003.1	0.00321
1012.75	0.00432
1022.39	0.00688
1032.04	0.00536
1041.68	0.00405
1051.33	0.00295
1060.97	0.00412
1070.62	0.00646
1080.26	0.00773
1089.91	0.0119
1099.55	0.01085
1109.2	0.00597
1118.84	0.00368
1128.49	0.00328
1138.13	0.00417
1147.78	0.00661
1157.42	0.01587
1167.07	0.01688
1176.71	0.0114
1186.36	0.01367
1196	0.0213
1205.64	0.03879
1215.29	0.0884
1224.93	0.14072
1234.58	0.1126
1244.22	0.06057
1253.87	0.03256
1263.51	0.02091
1273.16	0.02018
1282.8	0.03117
1292.45	0.0449
1302.09	0.03237
1311.74	0.01628
1321.38	0.01083
1331.03	0.00863
1340.67	0.00679
1350.32	0.00531
1359.96	0.00482
1369.61	0.00454
1379.25	0.00454
1388.9	0.00463
1398.54	0.00507
1408.18	0.00619
1417.83	0.00883
1427.47	0.01511
1437.12	0.02922
1446.76	0.04949
1456.41	0.05541
1466.05	0.05894
1475.7	0.08352
1485.34	0.09702
1494.99	0.08132
1504.63	0.0375
1514.28	0.02339
1523.92	0.01593
1533.57	0.01091
1543.21	0.00833
1552.86	0.00844
1562.5	0.01322
1572.15	0.02554
1581.79	0.03171
1591.44	0.04448
1601.08	0.04141
1610.73	0.02546
1620.37	0.02155
1630.01	0.02552
1639.66	0.02393
1649.3	0.01833
1658.95	0.01816
1668.59	0.02544
1678.24	0.05071
1687.88	0.09282
1697.53	0.05974
1707.17	0.03016
1716.82	0.02117
1726.46	0.01392
1736.11	0.00787
1745.75	0.00476
1755.4	0.00364
1765.04	0.00323
1774.69	0.00294
1784.33	0.00226
1793.98	0.00199
1803.62	0.0019
1813.27	0.00206
1822.91	0.00214
1832.55	0.00204
1842.2	0.00212
1851.84	0.00211
1861.49	0.00172
1871.13	0.00152
1880.78	0.00132
1890.42	0.0013
1900.07	0.0015
1909.71	0.00192
1919.36	0.00242
1929	0.00308
1938.65	0.00247
1948.29	0.00238
1957.94	0.00202
1967.58	0.00157
1977.23	0.00143
1986.87	0.00136
1996.52	0.00119
2006.16	0.0013
2015.81	0.00178
2025.45	0.00194
2035.1	0.00161
2044.74	0.00131
2054.38	0.00109
2064.03	0.0008457
2073.67	0.0006116
2083.32	0.0006685
2092.96	0.0005361
2102.61	0.0003877
2112.25	0.0004082
2121.9	0.0004168
2131.54	0.0003784
2141.19	0.0003743
2150.83	0.0002878
2160.48	0.0002523
2170.12	0.0003133
2179.77	0.0002874
2189.41	0.0002506
2199.06	0.0002825
2208.7	0.0003188
2218.35	0.0003123
2227.99	0.0005062
2237.64	0.0004914
2247.28	0.0005227
2256.92	0.0005152
2266.57	0.0004039
2276.21	0.0005021
2285.86	0.0004961
2295.5	0.0004915
2305.15	0.0006438
2314.79	0.0009281
2324.44	0.000899
2334.08	0.0008589
2343.73	0.0008219
2353.37	0.0008423
2363.02	0.0007394
2372.66	0.0009514
2382.31	0.00116
2391.95	0.00137
2401.6	0.00136
2411.24	0.00133
2420.89	0.00128
2430.53	0.0009838
2440.18	0.0009573
2449.82	0.0007029
2459.47	0.0007584
2469.11	0.0005748
2478.75	0.0006399
2488.4	0.0005945
2498.04	0.0004264
2507.69	0.0004469
2517.33	0.0005642
2526.98	0.0005492
2536.62	0.0005174
2546.27	0.0006032
2555.91	0.0005486
2565.56	0.000653
2575.2	0.000527
2584.85	0.0005666
2594.49	0.0005003
2604.14	0.0004379
2613.78	0.0003733
2623.43	0.0003247
2633.07	0.0003838
2642.72	0.0003786
2652.36	0.0002239
2662.01	0.0002559
2671.65	0.0002446
2681.29	0.0004205
2690.94	0.0002026
2700.58	0.0002005
2710.23	0.0002651
2719.87	0.0002581
2729.52	0.0005223
2739.16	0.0004375
2748.81	0.0004858
2758.45	0.0003385
2768.1	0.0004088
2777.74	0.0004796
2787.39	0.0003974
2797.03	0.0003951
2806.68	0.0002508
2816.32	0.0004288
2825.97	0.0004761
2835.61	0.0004084
2845.26	0.0004021
2854.9	0.0005094
2864.55	0.0005611
2874.19	0.0004014
2883.84	0.0003046
2893.48	0.0003944
2903.12	0.0005442
2912.77	0.0004636
2922.41	0.0004971
2932.06	0.0004908
2941.7	0.0005792
2951.35	0.0004732
2960.99	0.0003231
2970.64	0.000524
2980.28	0.0005502
2989.93	0.0007854
2999.57	0.00112
3009.22	0.00142
3018.86	0.00265
3028.51	0.00509
3038.15	0.00753
3047.8	0.00843
3057.44	0.00828
3067.09	0.01179
3076.73	0.01822
3086.38	0.01615
3096.02	0.00754
3105.67	0.00401
3115.31	0.00179
3124.95	0.000989
3134.6	0.00097
3144.24	0.0009166
3153.89	0.0008642
3163.53	0.0006543
3173.18	0.0005883
3182.82	0.0009721
3192.47	0.00104
3202.11	0.00106
3211.76	0.00114
3221.4	0.0009229
3231.05	0.0005592
3240.69	0.0007599
3250.34	0.0006022
3259.98	0.0005415
3269.63	0.0007685
3279.27	0.0007695
3288.92	0.0006494
3298.56	0.0007709
3308.21	0.0006993
3317.85	0.0007476
3327.49	0.0007686
3337.14	0.00106
3346.78	0.00145
3356.43	0.00149
3366.07	0.00122
3375.72	0.00124
3385.36	0.0011
3395.01	0.00128
3404.65	0.00162
3414.3	0.00231
3423.94	0.00331
3433.59	0.00563
3443.23	0.01003
3452.88	0.02006
3462.52	0.03169
3472.17	0.0234
3481.81	0.01003
3491.46	0.00525
3501.1	0.00305
3510.75	0.00207
3520.39	0.00145
3530.04	0.00116
3539.68	0.0008093
3549.32	0.0005442
3558.97	0.0005651
3568.61	0.0005244
3578.26	0.0006331
3587.9	0.0006937
3597.55	0.0007177
3607.19	0.000893
3616.84	0.0007185
3626.48	0.0006342
3636.13	0.0004727
3645.77	0.0004323
3655.42	0.0002359
3665.06	0.0004645
3674.71	0.000503
3684.35	0.0003257
3694	0.000177
3703.64	0.0002947
3713.29	0.0003258
3722.93	0.0003141
3732.58	0.0003033
3742.22	0.0003419
3751.86	0.0002039
3761.51	0.00015
3771.15	0.0001835
3780.8	0.0002151
3790.44	0.0003105
3800.09	0.0004052
3809.73	0.0002957
3819.38	0.0004464
3829.02	0.0003333
3838.67	0.0002957
3848.31	0.0003517
3857.96	0.0003923
3867.6	0.0001951
3877.25	0.0002616
3886.89	0.0003315
3896.54	0.0005022
3906.18	0.0004335
3915.83	9.598e-05
3925.47	0.0002336
3935.12	0.000332
3944.76	0.0003944
3954.41	0.0006482
3964.05	0.0005504
3973.69	0.000398
3983.34	0.0004592
3992.98	0.0002904
