Infrared Spectrum: SULFIDE, T-BUTYL-2-CHLOROETHYL
Formula: C6 H13 Cl S
CAS: 4303-44-0
Class: COBLENTZ
Instrument: Not specified, most likely a prism, grating, or hybrid spectrometer.
Sampling: TRANSMISSION
Path length: SMEAR
Resolution: 4
Origin: TENNESSEE EASTMAN COMPANY, RESEARCH LABORATORIES
MICROMETERS	TRANSMITTANCE
2.027	0.95
2.0669	0.95
2.10679	0.95
2.14669	0.95
2.18659	0.95
2.22649	0.948
2.26638	0.936
2.30628	0.933
2.34618	0.933
2.38607	0.931
2.42597	0.931
2.46587	0.933
2.50576	0.938
2.54566	0.941
2.58556	0.945
2.62546	0.946
2.66535	0.95
2.70525	0.946
2.74515	0.945
2.78504	0.943
2.82494	0.941
2.86484	0.94
2.90473	0.94
2.94463	0.938
2.98453	0.936
3.02443	0.938
3.06432	0.935
3.10422	0.931
3.14412	0.926
3.18401	0.926
3.22391	0.933
3.26381	0.931
3.3037	0.921
3.3436	0.77
3.3835	0.335
3.4234	0.596
3.46329	0.661
3.50319	0.768
3.54309	0.88
3.58298	0.916
3.62288	0.926
3.66278	0.93
3.70267	0.923
3.74257	0.931
3.78247	0.933
3.82237	0.933
3.86226	0.933
3.90216	0.935
3.94206	0.94
3.98195	0.94
4.02185	0.943
4.06175	0.941
4.10164	0.943
4.14154	0.943
4.18144	0.943
4.22134	0.943
4.26123	0.97
4.30113	0.971
4.34103	0.963
4.38092	0.946
4.42082	0.946
4.46072	0.946
4.50061	0.95
4.54051	0.948
4.58041	0.943
4.62031	0.941
4.6602	0.941
4.7001	0.946
4.74	0.946
4.77989	0.946
4.81979	0.945
4.85969	0.943
4.89958	0.943
4.93948	0.943
4.97938	0.943
5.01928	0.943
5.05917	0.943
5.09907	0.945
5.13897	0.945
5.17886	0.945
5.21876	0.945
5.25866	0.946
5.29855	0.946
5.33845	0.946
5.37835	0.946
5.41825	0.948
5.45814	0.951
5.49804	0.946
5.53794	0.943
5.57783	0.943
5.61773	0.943
5.65763	0.943
5.69752	0.943
5.73742	0.94
5.77732	0.93
5.81722	0.936
5.85711	0.933
5.89701	0.94
5.93691	0.941
5.9768	0.933
6.0167	0.933
6.0566	0.94
6.09649	0.933
6.13639	0.933
6.17629	0.935
6.21619	0.933
6.25608	0.938
6.29598	0.935
6.33588	0.94
6.37577	0.94
6.41567	0.941
6.45557	0.945
6.49546	0.936
6.53536	0.933
6.57526	0.921
6.61516	0.91
6.65505	0.905
6.69495	0.895
6.73485	0.83
6.77474	0.705
6.81464	0.613
6.85454	0.613
6.89443	0.678
6.93433	0.723
6.97423	0.793
7.01413	0.811
7.05402	0.841
7.09392	0.866
7.13382	0.865
7.17371	0.833
7.21361	0.85
7.25351	0.863
7.2934	0.755
7.3333	0.468
7.3732	0.778
7.4131	0.878
7.45299	0.908
7.49289	0.915
7.53279	0.918
7.57268	0.921
7.61258	0.916
7.65248	0.886
7.69237	0.843
7.73227	0.796
7.77217	0.781
7.81207	0.811
7.85196	0.795
7.89186	0.856
7.93176	0.89
7.97165	0.905
8.01155	0.913
8.05145	0.915
8.09134	0.911
8.13124	0.883
8.17114	0.803
8.21104	0.718
8.25093	0.693
8.29083	0.72
8.33073	0.785
8.37062	0.776
8.41052	0.733
8.45042	0.658
8.49031	0.623
8.53021	0.595
8.57011	0.571
8.61001	0.53
8.6499	0.588
8.6898	0.705
8.7297	0.803
8.76959	0.841
8.80949	0.863
8.84939	0.873
8.88928	0.868
8.92918	0.856
8.96908	0.876
9.00898	0.898
9.04887	0.908
9.08877	0.916
9.12867	0.92
9.16856	0.921
9.20846	0.925
9.24836	0.925
9.28825	0.925
9.32815	0.923
9.36805	0.923
9.40795	0.925
9.44784	0.921
9.48774	0.918
9.52764	0.903
9.56753	0.883
9.60743	0.853
9.64733	0.853
9.68722	0.871
9.72712	0.873
9.76702	0.87
9.80692	0.873
9.84681	0.891
9.88671	0.905
9.92661	0.918
9.9665	0.926
10.0064	0.93
10.0463	0.933
10.0862	0.938
10.1261	0.938
10.166	0.938
10.2059	0.938
10.2458	0.938
10.2857	0.938
10.3256	0.936
10.3655	0.936
10.4054	0.933
10.4453	0.925
10.4852	0.925
10.5251	0.923
10.565	0.931
10.6049	0.928
10.6448	0.925
10.6846	0.921
10.7245	0.908
10.7644	0.905
10.8043	0.911
10.8442	0.916
10.8841	0.928
10.924	0.933
10.9639	0.938
11.0038	0.941
11.0437	0.943
11.0836	0.943
11.1235	0.945
11.1634	0.945
11.2033	0.945
11.2432	0.945
11.2831	0.943
11.323	0.941
11.3629	0.936
11.4028	0.923
11.4427	0.91
11.4826	0.903
11.5225	0.9
11.5624	0.898
11.6023	0.896
11.6422	0.896
11.6821	0.896
11.722	0.896
11.7619	0.903
11.8018	0.91
11.8417	0.918
11.8816	0.925
11.9215	0.93
11.9614	0.931
12.0013	0.931
12.0411	0.933
12.081	0.933
12.1209	0.933
12.1608	0.933
12.2007	0.93
12.2406	0.915
12.2805	0.903
12.3204	0.903
12.3603	0.905
12.4002	0.911
12.4401	0.913
12.48	0.911
12.5199	0.913
12.5598	0.913
12.5997	0.913
12.6396	0.913
12.6795	0.906
12.7194	0.905
12.7593	0.896
12.7992	0.893
12.8391	0.885
12.879	0.88
12.9189	0.875
12.9588	0.87
12.9987	0.86
13.0386	0.851
13.0785	0.846
13.1184	0.841
13.1583	0.84
13.1982	0.84
13.2381	0.838
13.278	0.838
13.3179	0.838
13.3577	0.838
13.3976	0.838
13.4375	0.836
13.4774	0.831
13.5173	0.825
13.5572	0.818
13.5971	0.813
13.637	0.811
13.6769	0.81
13.7168	0.808
13.7567	0.806
13.7966	0.806
13.8365	0.803
13.8764	0.79
13.9163	0.763
13.9562	0.728
13.9961	0.688
14.036	0.635
14.0759	0.59
14.1158	0.53
14.1557	0.5
14.1956	0.453
14.2355	0.408
14.2754	0.398
14.3153	0.38
14.3552	0.378
14.3951	0.385
14.435	0.411
14.4749	0.453
14.5148	0.495
14.5547	0.533
14.5946	0.583
14.6345	0.618
14.6744	0.641
14.7142	0.656
14.7541	0.676
14.794	0.685
14.8339	0.691
14.8738	0.696
14.9137	0.701
14.9536	0.703
14.9935	0.705
15.0334	0.71
15.0733	0.706
15.1132	0.691
15.1531	0.678
15.193	0.671
15.2329	0.666
15.2728	0.665
15.3127	0.665
15.3526	0.663
15.3925	0.665
15.4324	0.666
15.4723	0.668
15.5122	0.668
15.5521	0.67
15.592	0.675
15.6319	0.676
15.6718	0.673
15.7117	0.673
15.7516	0.676
15.7915	0.676
15.8314	0.678
15.8713	0.681
15.9112	0.681
15.9511	0.683
15.991	0.683
