Infrared Spectrum: 1-Naphthhydrazide
Formula: C 11 H 10 N 2 O
CAS: 43038-45-5
State: gas
Origin: EPA-IR VAPOR PHASE LIBRARY
1/CM	ABSORBANCE
549.8	0.002304
559.445	0.002434
569.09	0.003394
578.734	0.001834
588.379	0.0013054
598.024	0.001734
607.669	0.001574
617.313	0.001346
626.958	0.001784
636.603	0.001904
646.248	0.001864
655.893	0.003034
665.537	0.002494
675.182	0.001534
684.827	0.0013616
694.472	0.001524
704.116	0.001414
713.761	0.001534
723.406	0.001524
733.051	0.0013744
742.695	0.001954
752.34	0.002294
761.985	0.005764
771.63	0.012684
781.275	0.013064
790.919	0.010654
800.564	0.008604
810.209	0.004274
819.854	0.002264
829.498	0.002254
839.143	0.002254
848.788	0.002454
858.433	0.003314
868.078	0.002854
877.722	0.002464
887.367	0.002184
897.012	0.003404
906.657	0.005724
916.301	0.007854
925.946	0.011694
935.591	0.009794
945.236	0.005434
954.88	0.003194
964.525	0.002174
974.17	0.001664
983.815	0.001554
993.46	0.0013197
1003.1	0.001454
1012.75	0.002014
1022.39	0.002254
1032.04	0.002344
1041.68	0.001744
1051.33	0.0009297
1060.97	0.0009403
1070.62	0.0011472
1080.26	0.0013257
1089.91	0.0012141
1099.55	0.001774
1109.2	0.0010184
1118.84	0.001424
1128.49	0.0008442
1138.13	0.0009344
1147.78	0.0009096
1157.42	0.001434
1167.07	0.002044
1176.71	0.001894
1186.36	0.001934
1196	0.002824
1205.64	0.004414
1215.29	0.004894
1224.93	0.003374
1234.58	0.002704
1244.22	0.005574
1253.87	0.008784
1263.51	0.005684
1273.16	0.005794
1282.8	0.009454
1292.45	0.007164
1302.09	0.003514
1311.74	0.002614
1321.38	0.002334
1331.03	0.002464
1340.67	0.002744
1350.32	0.002404
1359.96	0.002124
1369.61	0.002124
1379.25	0.002204
1388.9	0.003214
1398.54	0.003354
1408.18	0.003464
1417.83	0.005694
1427.47	0.009914
1437.12	0.013044
1446.76	0.012214
1456.41	0.010144
1466.05	0.009614
1475.7	0.008474
1485.34	0.006514
1494.99	0.005594
1504.63	0.006844
1514.28	0.005844
1523.92	0.002974
1533.57	0.002104
1543.21	0.001864
1552.86	0.001664
1562.5	0.001784
1572.15	0.002054
1581.79	0.002654
1591.44	0.003164
1601.08	0.003344
1610.73	0.004014
1620.37	0.005504
1630.01	0.007644
1639.66	0.007664
1649.3	0.005134
1658.95	0.004404
1668.59	0.005104
1678.24	0.007134
1687.88	0.015834
1697.53	0.029494
1707.17	0.020254
1716.82	0.008124
1726.46	0.004624
1736.11	0.003064
1745.75	0.002414
1755.4	0.001884
1765.04	0.001644
1774.69	0.001534
1784.33	0.001345
1793.98	0.0010717
1803.62	0.0013206
1813.27	0.001394
1822.91	0.0012239
1832.55	0.0010625
1842.2	0.0009691
1851.84	0.0009464
1861.49	0.0010197
1871.13	0.0011474
1880.78	0.0008996
1890.42	0.0008518
1900.07	0.0008588
1909.71	0.0009821
1919.36	0.0013064
1929	0.0012383
1938.65	0.0011153
1948.29	0.000938
1957.94	0.0007957
1967.58	0.0006569
1977.23	0.0005481
1986.87	0.0006243
1996.52	0.0005115
2006.16	0.0005294
2015.81	0.0006098
2025.45	0.0005236
2035.1	0.0005485
2044.74	0.0005361
2054.38	0.000544
2064.03	0.0005941
2073.67	0.00043661
2083.32	0.0005185
2092.96	0.0005167
2102.61	0.000541
2112.25	0.0005121
2121.9	0.0006071
2131.54	0.00047704
2141.19	0.000549
2150.83	0.00045815
2160.48	0.00041524
2170.12	0.00045015
2179.77	0.0005328
2189.41	0.000492
2199.06	0.0004231
2208.7	0.0005321
2218.35	0.00042983
2227.99	0.0005523
2237.64	0.00047106
2247.28	0.00044492
2256.92	0.0006506
2266.57	0.0005293
2276.21	0.0005464
2285.86	0.0006659
2295.5	0.0006164
2305.15	0.0005178
2314.79	0.0005249
2324.44	0.00047486
2334.08	0.0006635
2343.73	0.0005388
2353.37	0.00045618
2363.02	0.0005418
2372.66	0.0005311
2382.31	0.0005653
2391.95	0.000612
2401.6	0.00046803
2411.24	0.0005052
2420.89	0.0005234
2430.53	0.0005147
2440.18	0.00057
2449.82	0.0005523
2459.47	0.0005557
2469.11	0.0005384
2478.75	0.0004928
2488.4	0.0004958
2498.04	0.0005122
2507.69	0.00047734
2517.33	0.00042735
2526.98	0.0005369
2536.62	0.0005617
2546.27	0.000609
2555.91	0.00044505
2565.56	0.0005314
2575.2	0.0005966
2584.85	0.00040677
2594.49	0.0006069
2604.14	0.0005084
2613.78	0.00042619
2623.43	0.0005063
2633.07	0.00043204
2642.72	0.00046054
2652.36	0.0005312
2662.01	0.00048378
2671.65	0.0005795
2681.29	0.0005181
2690.94	0.000554
2700.58	0.000341
2710.23	0.0005838
2719.87	0.00047516
2729.52	0.0005986
2739.16	0.0005061
2748.81	0.0005331
2758.45	0.0005247
2768.1	0.00040908
2777.74	0.000341
2787.39	0.00045852
2797.03	0.00048098
2806.68	0.00042018
2816.32	0.0005278
2825.97	0.0005214
2835.61	0.0004651
2845.26	0.0005438
2854.9	0.0005617
2864.55	0.0005532
2874.19	0.000652
2883.84	0.0005242
2893.48	0.0005085
2903.12	0.0006223
2912.77	0.0005576
2922.41	0.000608
2932.06	0.0007059
2941.7	0.0007279
2951.35	0.0007527
2960.99	0.0008114
2970.64	0.0008575
2980.28	0.0008108
2989.93	0.0006338
2999.57	0.0010207
3009.22	0.0010927
3018.86	0.0012732
3028.51	0.001484
3038.15	0.002624
3047.8	0.004904
3057.44	0.007754
3067.09	0.007444
3076.73	0.004644
3086.38	0.003394
3096.02	0.002604
3105.67	0.001614
3115.31	0.0008215
3124.95	0.0008344
3134.6	0.0005096
3144.24	0.0005463
3153.89	0.00047473
3163.53	0.0007119
3173.18	0.0005712
3182.82	0.0007287
3192.47	0.000806
3202.11	0.0007975
3211.76	0.0007926
3221.4	0.0007782
3231.05	0.0006219
3240.69	0.0006545
3250.34	0.0005525
3259.98	0.0003737
3269.63	0.0005066
3279.27	0.0005185
3288.92	0.0007223
3298.56	0.00051
3308.21	0.0005941
3317.85	0.00047401
3327.49	0.00039645
3337.14	0.000745
3346.78	0.0007913
3356.43	0.0005724
3366.07	0.0006662
3375.72	0.0007098
3385.36	0.0008663
3395.01	0.0007007
3404.65	0.0006654
3414.3	0.0007422
3423.94	0.0007901
3433.59	0.0011952
3443.23	0.001814
3452.88	0.003234
3462.52	0.004734
3472.17	0.004254
3481.81	0.002424
3491.46	0.001464
3501.1	0.0009681
3510.75	0.000717
3520.39	0.0006752
3530.04	0.000387033
3539.68	0.00045405
3549.32	0.0005198
3558.97	0.00044955
3568.61	0.00040793
3578.26	0.0005396
3587.9	0.0006262
3597.55	0.000572
3607.19	0.000209
3616.84	0.00047268
3626.48	0.000249
3636.13	0.000281
3645.77	0.00045688
3655.42	0.0005498
3665.06	0.0002
3674.71	0.000282
3684.35	0.00045309
3694	0.00045333
3703.64	0.0005039
3713.29	0.000208
3722.93	0.0003101
3732.58	0.000144
3742.22	0.000144
3751.86	0.0002985
3761.51	0.000317
3771.15	0.000133
3780.8	0.000166
3790.44	0.0005464
3800.09	0.0003386
3809.73	0.000261
3819.38	0.0002975
3829.02	0.000266
3838.67	0.000222
3848.31	0.0003784
3857.96	0.0002871
3867.6	0.000393929
3877.25	0.0005085
3886.89	0.00045581
3896.54	0.000265
3906.18	0.00040494
3915.83	0.0003028
3925.47	0.00048195
3935.12	0.000281
3944.76	0.000275
3954.41	0.00045964
3964.05	0.000205
3973.69	0.00039569
3983.34	9.8e-05
3992.98	0.000206
