Infrared Spectrum: 1-(4-Methoxyphenyl)-1-cyclopentanecarboxylic acid
Formula: C 13 H 16 O 3
CAS: 43050-28-8
State: gas
Origin: EPA-IR VAPOR PHASE LIBRARY
1/CM	ABSORBANCE
549.9	0.00848
559.547	0.00927
569.193	0.01128
578.84	0.01427
588.486	0.01452
598.133	0.01115
607.779	0.00818
617.426	0.00655
627.072	0.00547
636.719	0.00498
646.365	0.00482
656.012	0.00526
665.658	0.00581
675.305	0.00504
684.951	0.00386
694.598	0.00344
704.245	0.00352
713.891	0.00343
723.538	0.00342
733.184	0.00293
742.831	0.00248
752.477	0.00261
762.124	0.00271
771.77	0.00297
781.417	0.00399
791.063	0.00665
800.71	0.00641
810.356	0.00529
820.003	0.00732
829.649	0.00998
839.296	0.00683
848.943	0.00386
858.589	0.00298
868.236	0.00252
877.882	0.00219
887.529	0.0020083
897.175	0.00218
906.822	0.0019476
916.468	0.0017648
926.115	0.0018821
935.761	0.00237
945.408	0.00307
955.054	0.00337
964.701	0.00321
974.347	0.00347
983.994	0.00423
993.64	0.00477
1003.29	0.00475
1012.93	0.00583
1022.58	0.00821
1032.23	0.01415
1041.87	0.01779
1051.52	0.01314
1061.17	0.00954
1070.81	0.01128
1080.46	0.01592
1090.11	0.01715
1099.75	0.0147
1109.4	0.01653
1119.05	0.02057
1128.69	0.02348
1138.34	0.02518
1147.99	0.02176
1157.63	0.01606
1167.28	0.0151
1176.92	0.0258
1186.57	0.02526
1196.22	0.01167
1205.86	0.00934
1215.51	0.00997
1225.16	0.01341
1234.8	0.02232
1244.45	0.04106
1254.1	0.04625
1263.74	0.02657
1273.39	0.01941
1283.04	0.02022
1292.68	0.01943
1302.33	0.01359
1311.98	0.00975
1321.62	0.00767
1331.27	0.00642
1340.92	0.00537
1350.56	0.00437
1360.21	0.00367
1369.86	0.00303
1379.5	0.00266
1389.15	0.00233
1398.79	0.00229
1408.44	0.0026
1418.09	0.0029
1427.73	0.00336
1437.38	0.00522
1447.03	0.00828
1456.67	0.00932
1466.32	0.01082
1475.97	0.00958
1485.61	0.00866
1495.26	0.0124
1504.91	0.03085
1514.55	0.04487
1524.2	0.01584
1533.85	0.00592
1543.49	0.00398
1553.14	0.00353
1562.79	0.00349
1572.43	0.00418
1582.08	0.00502
1591.73	0.00572
1601.37	0.00911
1611.02	0.01138
1620.67	0.00701
1630.31	0.00344
1639.96	0.00249
1649.6	0.00212
1659.25	0.0018906
1668.9	0.001766
1678.54	0.0017469
1688.19	0.0019862
1697.84	0.00259
1707.48	0.00407
1717.13	0.00622
1726.78	0.00734
1736.42	0.00989
1746.07	0.02088
1755.72	0.0511
1765.36	0.05176
1775.01	0.02018
1784.66	0.01217
1794.3	0.00819
1803.95	0.0054
1813.6	0.00337
1823.24	0.00238
1832.89	0.0020433
1842.54	0.0018396
1852.18	0.0018356
1861.83	0.0017963
1871.47	0.0018601
1881.12	0.0018378
1890.77	0.0015552
1900.41	0.0014116
1910.06	0.0012722
1919.71	0.0012591
1929.35	0.0012184
1939	0.0012138
1948.65	0.00115785
1958.29	0.0012269
1967.94	0.0012393
1977.59	0.0012689
1987.23	0.0011428
1996.88	0.00111722
2006.53	0.0012457
2016.17	0.0012531
2025.82	0.0014128
2035.47	0.0015819
2045.11	0.0017435
2054.76	0.001654
2064.41	0.00169
2074.05	0.0017136
2083.7	0.0015453
2093.35	0.0012871
2102.99	0.00116108
2112.64	0.0010689
2122.28	0.001007
2131.93	0.000912
2141.58	0.000843
2151.22	0.000896
2160.87	0.000852
2170.52	0.000896
2180.16	0.000958
2189.81	0.000951
2199.46	0.000932
2209.1	0.000958
2218.75	0.00096
2228.4	0.00096
2238.04	0.000908
2247.69	0.000982
2257.34	0.000985
2266.98	0.000994
2276.63	0.0010729
2286.28	0.00112484
2295.92	0.0012168
2305.57	0.00120501
2315.22	0.0012914
2324.86	0.0013191
2334.51	0.001284
2344.16	0.0011877
2353.8	0.0012525
2363.45	0.0014192
2373.09	0.0012635
2382.74	0.0010456
2392.39	0.000912
2402.03	0.000987
2411.68	0.000952
2421.33	0.000964
2430.97	0.000936
2440.62	0.000917
2450.27	0.000903
2459.91	0.00087
2469.56	0.000845
2479.21	0.000875
2488.85	0.000885
2498.5	0.000943
2508.15	0.0009
2517.79	0.000906
2527.44	0.000944
2537.09	0.0010219
2546.73	0.001
2556.38	0.000863
2566.03	0.000789
2575.67	0.000764
2585.32	0.000806
2594.96	0.000701
2604.61	0.00069
2614.26	0.000669
2623.9	0.00068
2633.55	0.000708
2643.2	0.000632
2652.84	0.000694
2662.49	0.000664
2672.14	0.000457
2681.78	0.000604
2691.43	0.000549
2701.08	0.000554
2710.72	0.000633
2720.37	0.000647
2730.02	0.000635
2739.66	0.000722
2749.31	0.000693
2758.96	0.000756
2768.6	0.000978
2778.25	0.000892
2787.9	0.0010361
2797.54	0.00113797
2807.19	0.0014303
2816.84	0.0018883
2826.48	0.00269
2836.13	0.00464
2845.77	0.00742
2855.42	0.00503
2865.07	0.0049
2874.71	0.00772
2884.36	0.01177
2894.01	0.01012
2903.65	0.00828
2913.3	0.00977
2922.95	0.01166
2932.59	0.01389
2942.24	0.01843
2951.89	0.02255
2961.53	0.02778
2971.18	0.02702
2980.83	0.02094
2990.47	0.01441
3000.12	0.01088
3009.77	0.00999
3019.41	0.00521
3029.06	0.00381
3038.71	0.00439
3048.35	0.00446
3058	0.00355
3067.64	0.00358
3077.29	0.00308
3086.94	0.00259
3096.58	0.00243
3106.23	0.0018132
3115.88	0.0013792
3125.52	0.000953
3135.17	0.000757
3144.82	0.000722
3154.46	0.000587
3164.11	0.000356
3173.76	0.000199
3183.4	0.000359
3193.05	0.000225
3202.7	0.000204
3212.34	0.000235
3221.99	0.000166
3231.64	0.00034
3241.28	0.000301
3250.93	0.000292
3260.58	0.000363
3270.22	0.000203
3279.87	0.000172
3289.52	0.000158
3299.16	0.000124
3308.81	0.000265
3318.45	0.000225
3328.1	0.0001
3337.75	3e-05
3347.39	0.000275
3357.04	0.000199
3366.69	0.000202
3376.33	0.000288
3385.98	0.00016
3395.63	0.00017
3405.27	3e-05
3414.92	0.000264
3424.57	0.000408
3434.21	0.000192
3443.86	0.000667
3453.51	0.000432
3463.15	0.000437
3472.8	0.000601
3482.45	0.000815
3492.09	0.000843
3501.74	0.000932
3511.39	0.00089
3521.03	0.0010593
3530.68	0.00120868
3540.33	0.0014621
3549.97	0.0020232
3559.62	0.00683
3569.26	0.02046
3578.91	0.01591
3588.56	0.00364
3598.2	0.0013591
3607.85	0.000998
3617.5	0.000877
3627.14	0.00071
3636.79	0.00061
3646.44	0.000526
3656.08	0.000581
3665.73	0.000543
3675.38	0.00055
3685.02	0.000837
3694.67	0.00059
3704.32	0.0005
3713.96	0.000472
3723.61	0.000319
3733.26	0.000627
3742.9	0.00056
3752.55	0.000545
3762.2	0.000509
3771.84	0.000611
3781.49	0.000561
3791.13	0.000559
3800.78	0.000419
3810.43	0.000596
3820.07	0.000508
3829.72	0.000606
3839.37	0.000648
3849.01	0.0006
3858.66	0.000524
3868.31	0.000657
3877.95	0.000578
3887.6	0.00064
3897.25	0.000549
3906.89	0.000618
3916.54	0.000591
3926.19	0.000488
3935.83	0.000551
3945.48	0.000538
3955.13	0.000552
3964.77	0.000511
3974.42	0.000486
3984.07	0.000579
3993.71	0.000557
