Infrared Spectrum: N-(p-Chlorophenyl)-4-cyclohexene-1,2-dicarboximide
Formula: C 14 H 12 Cl N O 2
CAS: 43069-64-3
State: gas
Origin: EPA-IR VAPOR PHASE LIBRARY
1/CM	ABSORBANCE
549.8	0.002481
559.445	0.003421
569.09	0.007311
578.734	0.010291
588.379	0.005841
598.024	0.003391
607.669	0.003041
617.313	0.003441
626.958	0.003691
636.603	0.003561
646.248	0.003921
655.893	0.005391
665.537	0.009201
675.182	0.020651
684.827	0.014751
694.472	0.008161
704.116	0.007251
713.761	0.009951
723.406	0.012751
733.051	0.004901
742.695	0.004321
752.34	0.005401
761.985	0.005841
771.63	0.004801
781.275	0.005141
790.919	0.007621
800.564	0.011081
810.209	0.016241
819.854	0.023001
829.498	0.013791
839.143	0.007881
848.788	0.006431
858.433	0.004681
868.078	0.004541
877.722	0.008151
887.367	0.011621
897.012	0.007351
906.657	0.003521
916.301	0.003101
925.946	0.004221
935.591	0.005201
945.236	0.003411
954.88	0.002461
964.525	0.002301
974.17	0.003441
983.815	0.005231
993.46	0.002181
1003.1	0.003051
1012.75	0.015291
1022.39	0.013831
1032.04	0.002951
1041.68	0.002651
1051.33	0.003801
1060.97	0.005081
1070.62	0.009701
1080.26	0.015161
1089.91	0.048121
1099.55	0.040501
1109.2	0.013081
1118.84	0.011541
1128.49	0.014711
1138.13	0.021851
1147.78	0.035441
1157.42	0.049931
1167.07	0.061691
1176.71	0.055181
1186.36	0.037201
1196	0.026761
1205.64	0.018061
1215.29	0.013161
1224.93	0.011351
1234.58	0.008201
1244.22	0.006741
1253.87	0.007411
1263.51	0.008841
1273.16	0.007491
1282.8	0.006591
1292.45	0.008211
1302.09	0.012711
1311.74	0.016351
1321.38	0.015591
1331.03	0.018321
1340.67	0.028501
1350.32	0.046251
1359.96	0.092681
1369.61	0.152801
1379.25	0.099881
1388.9	0.036001
1398.54	0.020201
1408.18	0.014881
1417.83	0.010511
1427.47	0.009701
1437.12	0.014931
1446.76	0.017531
1456.41	0.012691
1466.05	0.007731
1475.7	0.012581
1485.34	0.052531
1494.99	0.147741
1504.63	0.031721
1514.28	0.011891
1523.92	0.007631
1533.57	0.005271
1543.21	0.003521
1552.86	0.003221
1562.5	0.003191
1572.15	0.003521
1581.79	0.003741
1591.44	0.004041
1601.08	0.003971
1610.73	0.003841
1620.37	0.004641
1630.01	0.005801
1639.66	0.005521
1649.3	0.005001
1658.95	0.004741
1668.59	0.005271
1678.24	0.006821
1687.88	0.009601
1697.53	0.015461
1707.17	0.026381
1716.82	0.053101
1726.46	0.163861
1736.11	0.279461
1745.75	0.139761
1755.4	0.046671
1765.04	0.025941
1774.69	0.019161
1784.33	0.015341
1793.98	0.013911
1803.62	0.009541
1813.27	0.005511
1822.91	0.004151
1832.55	0.003871
1842.2	0.003161
1851.84	0.002481
1861.49	0.002291
1871.13	0.002811
1880.78	0.003611
1890.42	0.002611
1900.07	0.001791
1909.71	0.001561
1919.36	0.001561
1929	0.001531
1938.65	0.001361
1948.29	0.001401
1957.94	0.001371
1967.58	0.001221
1977.23	0.0010581
1986.87	0.0010777
1996.52	0.0010207
2006.16	0.0009648
2015.81	0.0007849
2025.45	0.000732
2035.1	0.0007456
2044.74	0.0007554
2054.38	0.0007678
2064.03	0.0008291
2073.67	0.000708
2083.32	0.000747
2092.96	0.0006287
2102.61	0.0006059
2112.25	0.0006146
2121.9	0.0006766
2131.54	0.0006945
2141.19	0.0006782
2150.83	0.0006464
2160.48	0.0006842
2170.12	0.0007792
2179.77	0.0006243
2189.41	0.0007183
2199.06	0.0006723
2208.7	0.0007838
2218.35	0.0007138
2227.99	0.0008247
2237.64	0.000812
2247.28	0.0008558
2256.92	0.0008683
2266.57	0.0008073
2276.21	0.0007384
2285.86	0.000815
2295.5	0.0007576
2305.15	0.0007078
2314.79	0.0006744
2324.44	0.0007704
2334.08	0.0007946
2343.73	0.0009955
2353.37	0.0011096
2363.02	0.0009967
2372.66	0.0009162
2382.31	0.0009045
2391.95	0.0008732
2401.6	0.0008179
2411.24	0.0008272
2420.89	0.0006986
2430.53	0.0007319
2440.18	0.0006993
2449.82	0.0007246
2459.47	0.0006904
2469.11	0.0006788
2478.75	0.0006787
2488.4	0.0007902
2498.04	0.0008557
2507.69	0.0008399
2517.33	0.0009851
2526.98	0.0010614
2536.62	0.0010867
2546.27	0.0009624
2555.91	0.0008604
2565.56	0.000857
2575.2	0.0007732
2584.85	0.0007685
2594.49	0.0005878
2604.14	0.0005031
2613.78	0.0005157
2623.43	0.0004401
2633.07	0.0004341
2642.72	0.0004465
2652.36	0.0005094
2662.01	0.0005107
2671.65	0.0005023
2681.29	0.0005237
2690.94	0.0005686
2700.58	0.0003683
2710.23	0.0005716
2719.87	0.0005204
2729.52	0.0005159
2739.16	0.0005539
2748.81	0.0005519
2758.45	0.0007258
2768.1	0.0005636
2777.74	0.0004932
2787.39	0.0005589
2797.03	0.000741
2806.68	0.0008187
2816.32	0.001201
2825.97	0.001801
2835.61	0.002551
2845.26	0.003871
2854.9	0.009231
2864.55	0.012711
2874.19	0.006721
2883.84	0.006671
2893.48	0.008481
2903.12	0.010521
2912.77	0.011441
2922.41	0.007341
2932.06	0.009301
2941.7	0.011631
2951.35	0.008481
2960.99	0.008941
2970.64	0.010021
2980.28	0.007211
2989.93	0.004501
2999.57	0.002511
3009.22	0.001921
3018.86	0.002111
3028.51	0.002721
3038.15	0.006201
3047.8	0.016801
3057.44	0.013401
3067.09	0.004901
3076.73	0.002781
3086.38	0.002161
3096.02	0.002571
3105.67	0.002221
3115.31	0.001151
3124.95	0.0005211
3134.6	0.0006896
3144.24	0.0005922
3153.89	0.000531
3163.53	0.0006098
3173.18	0.0004455
3182.82	0.0006256
3192.47	0.0004303
3202.11	0.0004762
3211.76	0.0002487
3221.4	0.0003508
3231.05	0.0004377
3240.69	0.0005882
3250.34	0.000243
3259.98	0.0004156
3269.63	0.0002668
3279.27	0.0003575
3288.92	0.0002645
3298.56	0.0002545
3308.21	0.0002122
3317.85	0.0002425
3327.49	0.00020826
3337.14	0.0002555
3346.78	0.0002222
3356.43	0.000278
3366.07	0.00010817
3375.72	0.0003266
3385.36	0.0002907
3395.01	0.0002687
3404.65	0.0003931
3414.3	0.0004599
3423.94	0.0004161
3433.59	0.0004462
3443.23	0.0004067
3452.88	0.0005725
3462.52	0.0008537
3472.17	0.0009923
3481.81	0.0009763
3491.46	0.001391
3501.1	0.001711
3510.75	0.002391
3520.39	0.002301
3530.04	0.001381
3539.68	0.0008182
3549.32	0.0007654
3558.97	0.0004748
3568.61	0.0003993
3578.26	0.0002166
3587.9	0.0003794
3597.55	0.0003579
3607.19	0.000319
3616.84	0.0004201
3626.48	7.54e-05
3636.13	0.0003694
3645.77	0.0002931
3655.42	0.00015867
3665.06	0.0003621
3674.71	0.0002629
3684.35	0.0004535
3694	0.0003209
3703.64	0.0004436
3713.29	0.0003051
3722.93	0.000361
3732.58	0.0003795
3742.22	0.0003077
3751.86	0.0004459
3761.51	0.0003943
3771.15	0.0003441
3780.8	0.0004895
3790.44	0.0004187
3800.09	0.0004425
3809.73	0.0002841
3819.38	0.0004942
3829.02	0.000597
3838.67	0.00016361
3848.31	0.0004483
3857.96	0.0002896
3867.6	0.0002593
3877.25	0.00017413
3886.89	0.0002575
3896.54	0.0003953
3906.18	0.0003809
3915.83	0.0004025
3925.47	0.0003546
3935.12	0.0005092
3944.76	0.0004798
3954.41	0.0004413
3964.05	0.0003292
3973.69	0.00020468
3983.34	0.0004924
3992.98	0.0003989
