Infrared Spectrum: .gamma.-Chloro-2-butyrothienone
Formula: C 8 H 9 Cl O S
CAS: 43076-59-1
State: gas
Origin: EPA-IR VAPOR PHASE LIBRARY
1/CM	ABSORBANCE
549.8	0.002157
559.445	0.003587
569.09	0.004897
578.735	0.005957
588.38	0.006457
598.025	0.005947
607.67	0.005007
617.315	0.004097
626.96	0.004317
636.605	0.005257
646.251	0.007107
655.896	0.009857
665.541	0.009497
675.186	0.007337
684.831	0.007527
694.476	0.013887
704.121	0.038227
713.766	0.072027
723.411	0.047277
733.056	0.019877
742.701	0.013397
752.346	0.011337
761.991	0.008797
771.636	0.007997
781.281	0.010107
790.926	0.012497
800.571	0.013917
810.216	0.013547
819.861	0.012177
829.507	0.012957
839.152	0.014297
848.797	0.017857
858.442	0.020097
868.087	0.011867
877.732	0.006377
887.377	0.004237
897.022	0.004287
906.667	0.006057
916.312	0.008647
925.957	0.012617
935.602	0.013887
945.247	0.013207
954.892	0.011177
964.537	0.009747
974.182	0.009737
983.827	0.009517
993.472	0.007937
1003.12	0.007317
1012.76	0.007317
1022.41	0.009117
1032.05	0.014427
1041.7	0.017197
1051.34	0.018407
1060.99	0.015047
1070.63	0.008337
1080.28	0.010357
1089.92	0.006777
1099.57	0.002717
1109.21	0.002617
1118.86	0.003427
1128.5	0.005457
1138.15	0.008257
1147.79	0.010637
1157.44	0.011157
1167.08	0.012097
1176.73	0.013737
1186.37	0.016147
1196.02	0.019767
1205.66	0.023317
1215.31	0.029587
1224.95	0.045007
1234.6	0.072267
1244.24	0.055477
1253.89	0.031557
1263.53	0.023917
1273.18	0.020267
1282.82	0.019337
1292.47	0.023687
1302.11	0.026637
1311.76	0.024407
1321.4	0.018437
1331.05	0.012907
1340.69	0.014257
1350.34	0.025137
1359.98	0.032327
1369.63	0.024727
1379.27	0.014717
1388.92	0.011667
1398.56	0.018017
1408.21	0.048057
1417.85	0.074137
1427.5	0.036947
1437.14	0.019697
1446.79	0.016227
1456.43	0.012727
1466.08	0.006917
1475.73	0.004507
1485.37	0.004317
1495.02	0.006907
1504.66	0.016777
1514.31	0.034007
1523.95	0.019697
1533.6	0.006987
1543.24	0.006447
1552.89	0.005927
1562.53	0.004117
1572.18	0.003067
1581.82	0.002707
1591.47	0.002677
1601.11	0.002867
1610.76	0.003567
1620.4	0.004187
1630.05	0.004797
1639.69	0.006537
1649.34	0.009667
1658.98	0.016567
1668.63	0.036457
1678.27	0.080777
1687.92	0.116367
1697.56	0.083227
1707.21	0.030987
1716.85	0.011547
1726.5	0.007027
1736.14	0.005377
1745.79	0.004147
1755.43	0.003477
1765.08	0.002797
1774.72	0.002267
1784.37	0.002267
1794.01	0.002487
1803.66	0.002567
1813.3	0.002207
1822.95	0.002087
1832.59	0.001717
1842.24	0.0014018
1851.88	0.0012181
1861.53	0.0012182
1871.17	0.0011449
1880.82	0.0010335
1890.46	0.0011305
1900.11	0.001052
1909.75	0.0009645
1919.4	0.0009377
1929.04	0.0009205
1938.69	0.0008953
1948.33	0.0008447
1957.98	0.0008161
1967.62	0.0007949
1977.27	0.0007659
1986.91	0.000681
1996.56	0.0006581
2006.2	0.0006712
2015.85	0.0006894
2025.49	0.0007314
2035.14	0.0006535
2044.78	0.0006949
2054.43	0.0006586
2064.07	0.0007707
2073.72	0.0008168
2083.36	0.0008511
2093.01	0.0009484
2102.65	0.0009317
2112.3	0.0008111
2121.94	0.0006889
2131.59	0.0006897
2141.23	0.0006847
2150.88	0.000829
2160.52	0.0009525
2170.17	0.0009899
2179.81	0.0007684
2189.46	0.0006671
2199.1	0.0006956
2208.75	0.0007395
2218.39	0.0007177
2228.04	0.0007095
2237.68	0.0006872
2247.33	0.0007512
2256.97	0.0007979
2266.62	0.0009074
2276.26	0.0008803
2285.91	0.0007979
2295.55	0.0006633
2305.2	0.0007302
2314.84	0.0007285
2324.49	0.0007481
2334.13	0.0007088
2343.78	0.0007274
2353.42	0.0006483
2363.07	0.0006243
2372.72	0.0007139
2382.36	0.0007184
2392.01	0.0008057
2401.65	0.0007805
2411.3	0.0008269
2420.94	0.0008498
2430.59	0.0009126
2440.23	0.0009887
2449.88	0.0008989
2459.52	0.0010198
2469.17	0.0009366
2478.81	0.0007702
2488.46	0.0007101
2498.1	0.0007044
2507.75	0.0006856
2517.39	0.0006454
2527.04	0.00058346
2536.68	0.00048146
2546.33	0.00055311
2555.97	0.00053246
2565.62	0.0006119
2575.26	0.0006925
2584.91	0.0007776
2594.55	0.0006818
2604.2	0.0007253
2613.84	0.0007979
2623.49	0.0007501
2633.13	0.0007401
2642.78	0.0007845
2652.42	0.000878
2662.07	0.0006728
2671.71	0.0006309
2681.36	0.0007269
2691	0.000764
2700.65	0.0008702
2710.29	0.0007592
2719.94	0.0008277
2729.58	0.0008344
2739.23	0.000864
2748.87	0.0008354
2758.52	0.0007123
2768.16	0.0008746
2777.81	0.0008035
2787.45	0.0009969
2797.1	0.0011966
2806.74	0.0012896
2816.39	0.001857
2826.03	0.001847
2835.68	0.001897
2845.32	0.002527
2854.97	0.003227
2864.61	0.004457
2874.26	0.005117
2883.9	0.005737
2893.55	0.006267
2903.19	0.008467
2912.84	0.010547
2922.48	0.012407
2932.13	0.014017
2941.77	0.013927
2951.42	0.015797
2961.06	0.018797
2970.71	0.018927
2980.35	0.015017
2990	0.010817
2999.64	0.009577
3009.29	0.006647
3018.93	0.003947
3028.58	0.002007
3038.22	0.0013487
3047.87	0.0011182
3057.51	0.0010403
3067.16	0.0013565
3076.8	0.003197
3086.45	0.005657
3096.09	0.003857
3105.74	0.002517
3115.38	0.001927
3125.03	0.0008827
3134.67	0.000278
3144.32	0.000347
3153.96	0.0004101
3163.61	0.000368
3173.25	0.0004206
3182.9	2.3e-05
3192.54	0.000274
3202.19	0.000307
3211.83	0.000325
3221.48	0.000144
3231.12	0.000306
3240.77	0.000266
3250.41	5e-05
3260.06	0.000346
3269.7	0.0004389
3279.35	0.000252
3289	0.000296
3298.64	0.00051184
3308.29	0.00052133
3317.93	0.0004091
3327.58	0.0006928
3337.22	0.0011194
3346.87	0.001537
3356.51	0.001697
3366.16	0.001567
3375.8	0.0010462
3385.45	0.0006201
3395.09	0.000235
3404.74	0.0004428
3414.38	0.000283
3424.03	0.000295
3433.67	0.000488573
3443.32	0.00050514
3452.96	0.0004036
3462.61	0.000174
3472.25	0.00026
3481.9	0.000323
3491.54	0.000323
3501.19	0.000186
3510.83	0.000386
3520.48	0.000319
3530.12	0.0004549
3539.77	0.000345
3549.41	0.00049762
3559.06	0.000305
3568.7	0.000319
3578.35	0.000255
3587.99	0.0004639
3597.64	0.000335
3607.28	0.000324
3616.93	0.000408
3626.57	0.0004007
3636.22	0.0004378
3645.86	0.000297
3655.51	0.0004448
3665.15	0.0005023
3674.8	0.0003959
3684.44	0.000235
3694.09	0.000329
3703.73	0.00054422
3713.38	0.000202
3723.02	0.00052013
3732.67	0.0007224
3742.31	0.00053157
3751.96	0.0003
3761.6	0.0005946
3771.25	0.00048433
3780.89	0.00056075
3790.54	0.0004436
3800.18	0.00048343
3809.83	0.0006402
3819.47	0.00057944
3829.12	0.0007553
3838.76	0.0008112
3848.41	0.0006171
3858.05	0.00050924
3867.7	0.0005889
3877.34	0.000445
3886.99	0.000489616
3896.63	0.0004338
3906.28	0.000632
3915.92	0.0005923
3925.57	0.00058577
3935.21	0.0005929
3944.86	0.0009292
3954.5	0.0008898
3964.15	0.0009043
3973.79	0.0005954
3983.44	0.00048141
3993.08	0.00052727
