Infrared Spectrum: 2-Acetyl-7-methoxybenzofuran
Formula: C 11 H 10 O 3
CAS: 43071-52-9
State: gas
Origin: EPA-IR VAPOR PHASE LIBRARY
1/CM	ABSORBANCE
551.7	0.00346
563.274	0.0031
574.848	0.00447
586.421	0.00587
597.995	0.00691
609.569	0.00832
621.143	0.00707
632.717	0.00647
644.291	0.00475
655.864	0.00496
667.438	0.00376
679.012	0.0028
690.586	0.00321
702.16	0.00696
713.734	0.01448
725.307	0.0321
736.881	0.02701
748.455	0.00704
760.029	0.0043
771.603	0.00729
783.177	0.00688
794.75	0.00365
806.324	0.00462
817.898	0.01174
829.472	0.01908
841.046	0.0219
852.619	0.01857
864.193	0.01107
875.767	0.00437
887.341	0.0041
898.915	0.01163
910.489	0.02405
922.062	0.01293
933.636	0.00743
945.21	0.00804
956.784	0.015
968.358	0.02229
979.932	0.02316
991.505	0.01386
1003.08	0.00824
1014.65	0.00893
1026.23	0.01104
1037.8	0.01365
1049.37	0.01709
1060.95	0.01696
1072.52	0.02788
1084.1	0.03638
1095.67	0.0306
1107.24	0.02526
1118.82	0.01166
1130.39	0.00777
1141.97	0.00934
1153.54	0.02019
1165.11	0.05507
1176.69	0.09055
1188.26	0.06885
1199.83	0.03053
1211.41	0.0302
1222.98	0.03535
1234.56	0.01906
1246.13	0.02042
1257.7	0.06171
1269.28	0.11844
1280.85	0.07718
1292.42	0.04534
1304	0.03485
1315.57	0.04182
1327.15	0.03749
1338.72	0.02101
1350.29	0.02424
1361.87	0.041
1373.44	0.02835
1385.02	0.01165
1396.59	0.00812
1408.16	0.00999
1419.74	0.01858
1431.31	0.02107
1442.88	0.01554
1454.46	0.01481
1466.03	0.01802
1477.61	0.03127
1489.18	0.05907
1500.75	0.03077
1512.33	0.01161
1523.9	0.00946
1535.48	0.01288
1547.05	0.02743
1558.62	0.07109
1570.2	0.08492
1581.77	0.05325
1593.34	0.05833
1604.92	0.03426
1616.49	0.02207
1628.07	0.01334
1639.64	0.0082
1651.21	0.00828
1662.79	0.01025
1674.36	0.01243
1685.93	0.02031
1697.51	0.07766
1709.08	0.1454
1720.66	0.03856
1732.23	0.01035
1743.8	0.00692
1755.38	0.00737
1766.95	0.0057
1778.53	0.00366
1790.1	0.00323
1801.67	0.00348
1813.25	0.0038
1824.82	0.00385
1836.39	0.00275
1847.97	0.00204
1859.54	0.00201
1871.12	0.00233
1882.69	0.00299
1894.26	0.0039
1905.84	0.00334
1917.41	0.00217
1928.99	0.00194
1940.56	0.00196
1952.13	0.0021
1963.71	0.00227
1975.28	0.00235
1986.85	0.00207
1998.43	0.00171
2010	0.00162
2021.58	0.00179
2033.15	0.00201
2044.72	0.00197
2056.3	0.00213
2067.87	0.0023
2079.44	0.00207
2091.02	0.00159
2102.59	0.00129
2114.17	0.00127
2125.74	0.00126
2137.31	0.0012
2148.89	0.00116
2160.46	0.00115
2172.04	0.00126
2183.61	0.00135
2195.18	0.00143
2206.76	0.00147
2218.33	0.00127
2229.9	0.00119
2241.48	0.00137
2253.05	0.00152
2264.63	0.00145
2276.2	0.00134
2287.77	0.00125
2299.35	0.00127
2310.92	0.00123
2322.5	0.00126
2334.07	0.00134
2345.64	0.00128
2357.22	0.00117
2368.79	0.00117
2380.36	0.00123
2391.94	0.00118
2403.51	0.00112
2415.09	0.00111
2426.66	0.00111
2438.23	0.00117
2449.81	0.00134
2461.38	0.00145
2472.96	0.0015
2484.53	0.00145
2496.1	0.00134
2507.68	0.00135
2519.25	0.00152
2530.82	0.00179
2542.4	0.0017
2553.97	0.00138
2565.55	0.0013
2577.12	0.00139
2588.69	0.0014
2600.27	0.00134
2611.84	0.00138
2623.41	0.00153
2634.99	0.00157
2646.56	0.00155
2658.14	0.00148
2669.71	0.00156
2681.28	0.00163
2692.86	0.00159
2704.43	0.00139
2716.01	0.00125
2727.58	0.0012
2739.15	0.0013
2750.73	0.00143
2762.3	0.00146
2773.87	0.00164
2785.45	0.00192
2797.02	0.00217
2808.6	0.0027
2820.17	0.00362
2831.74	0.00552
2843.32	0.01076
2854.89	0.01106
2866.47	0.00619
2878.04	0.0053
2889.61	0.00581
2901.19	0.00758
2912.76	0.00971
2924.33	0.0108
2935.91	0.01409
2947.48	0.02004
2959.06	0.01727
2970.63	0.01386
2982.2	0.01104
2993.78	0.01026
3005.35	0.01398
3016.92	0.01566
3028.5	0.0097
3040.07	0.0078
3051.65	0.00861
3063.22	0.01066
3074.79	0.01588
3086.37	0.01209
3097.94	0.00546
3109.52	0.00313
3121.09	0.0023
3132.66	0.00209
3144.24	0.00183
3155.81	0.00145
3167.38	0.00123
3178.96	0.00114
3190.53	0.00112
3202.11	0.0009668
3213.68	0.000928
3225.25	0.0009128
3236.83	0.0007877
3248.4	0.0008156
3259.98	0.0007987
3271.55	0.0008192
3283.12	0.0007144
3294.7	0.000795
3306.27	0.000785
3317.84	0.0008173
3329.42	0.0008162
3340.99	0.0008887
3352.57	0.0008833
3364.14	0.00115
3375.71	0.00164
3387.29	0.0029
3398.86	0.00323
3410.43	0.00177
3422.01	0.00111
3433.58	0.0009302
3445.16	0.0008431
3456.73	0.0008953
3468.3	0.0008223
3479.88	0.0008821
3491.45	0.0008316
3503.03	0.0008378
3514.6	0.0007706
3526.17	0.0007297
3537.75	0.0006935
3549.32	0.0006752
3560.89	0.0007049
3572.47	0.0006609
3584.04	0.0006895
3595.62	0.0007384
3607.19	0.0006919
3618.76	0.0007538
3630.34	0.0008406
3641.91	0.0006874
3653.49	0.0007936
3665.06	0.0008592
3676.63	0.000816
3688.21	0.0008586
3699.78	0.0007781
3711.35	0.0007255
3722.93	0.0007938
3734.5	0.0007599
3746.08	0.0008306
3757.65	0.0007742
3769.22	0.0007323
3780.8	0.0007406
3792.37	0.0008067
3803.94	0.0007204
3815.52	0.0007346
3827.09	0.0007383
3838.67	0.0007601
3850.24	0.000816
3861.81	0.0008589
3873.39	0.0009405
3884.96	0.0009464
3896.54	0.00101
3908.11	0.0011
3919.68	0.00114
3931.26	0.00114
3942.83	0.00107
3954.4	0.00107
3965.98	0.00102
3977.55	0.0009419
3989.13	0.0009083
4000.7	0.000915
