Infrared Spectrum: Ethyl 2-amino-4-methylthiophene-3-carboxylate
Formula: C 8 H 11 N O 2 S
CAS: 43088-42-2
State: gas
Origin: EPA-IR VAPOR PHASE LIBRARY
1/CM	ABSORBANCE
549.8	0.01733
559.445	0.01601
569.09	0.01535
578.734	0.01555
588.379	0.01465
598.024	0.01088
607.669	0.00821
617.313	0.00849
626.958	0.00915
636.603	0.00885
646.248	0.00877
655.893	0.00909
665.537	0.00965
675.182	0.01138
684.827	0.02073
694.472	0.03699
704.116	0.03305
713.761	0.0175
723.406	0.01223
733.051	0.01232
742.695	0.01401
752.34	0.01545
761.985	0.01511
771.63	0.01527
781.275	0.01796
790.919	0.0179
800.564	0.0139
810.209	0.01064
819.854	0.0094
829.498	0.00992
839.143	0.01529
848.788	0.01673
858.433	0.0108
868.078	0.0098
877.722	0.00951
887.367	0.01079
897.012	0.01071
906.657	0.00852
916.301	0.00718
925.946	0.00625
935.591	0.00638
945.236	0.00635
954.88	0.00658
964.525	0.00695
974.17	0.00699
983.815	0.00865
993.46	0.01258
1003.1	0.01644
1012.75	0.01939
1022.39	0.02415
1032.04	0.02592
1041.68	0.0364
1051.33	0.06963
1060.97	0.0856
1070.62	0.04128
1080.26	0.02368
1089.91	0.0306
1099.55	0.05344
1109.2	0.09958
1118.84	0.13633
1128.49	0.09775
1138.13	0.04459
1147.78	0.02658
1157.42	0.02306
1167.07	0.02433
1176.71	0.02427
1186.36	0.01948
1196	0.01809
1205.64	0.02256
1215.29	0.03137
1224.93	0.03512
1234.58	0.03386
1244.22	0.04797
1253.87	0.08963
1263.51	0.14777
1273.16	0.14832
1282.8	0.11825
1292.45	0.12191
1302.09	0.10137
1311.74	0.04607
1321.38	0.02131
1331.03	0.01703
1340.67	0.01406
1350.32	0.01323
1359.96	0.017
1369.61	0.02836
1379.25	0.05601
1388.9	0.06708
1398.54	0.05673
1408.18	0.06564
1417.83	0.05715
1427.47	0.03344
1437.12	0.02856
1446.76	0.03397
1456.41	0.03608
1466.05	0.0465
1475.7	0.08637
1485.34	0.08759
1494.99	0.03971
1504.63	0.0217
1514.28	0.01951
1523.92	0.02974
1533.57	0.05291
1543.21	0.05671
1552.86	0.03729
1562.5	0.03592
1572.15	0.0576
1581.79	0.09836
1591.44	0.10649
1601.08	0.06817
1610.73	0.03502
1620.37	0.02038
1630.01	0.01598
1639.66	0.01577
1649.3	0.01726
1658.95	0.02001
1668.59	0.03378
1678.24	0.08229
1687.88	0.13081
1697.53	0.10144
1707.17	0.05247
1716.82	0.05412
1726.46	0.06909
1736.11	0.04452
1745.75	0.01701
1755.4	0.00962
1765.04	0.00722
1774.69	0.00574
1784.33	0.00472
1793.98	0.00411
1803.62	0.00334
1813.27	0.00313
1822.91	0.00282
1832.55	0.00249
1842.2	0.00227
1851.84	0.00225
1861.49	0.00213
1871.13	0.00214
1880.78	0.002
1890.42	0.00205
1900.07	0.00241
1909.71	0.0024
1919.36	0.0022
1929	0.00201
1938.65	0.002
1948.29	0.00198
1957.94	0.00229
1967.58	0.00242
1977.23	0.00244
1986.87	0.00242
1996.52	0.00217
2006.16	0.00241
2015.81	0.0023
2025.45	0.00182
2035.1	0.00179
2044.74	0.00156
2054.38	0.00157
2064.03	0.00185
2073.67	0.00197
2083.32	0.00201
2092.96	0.00162
2102.61	0.0016
2112.25	0.00163
2121.9	0.00157
2131.54	0.00172
2141.19	0.0017
2150.83	0.00145
2160.48	0.00115
2170.12	0.00112
2179.77	0.00103
2189.41	0.0008282
2199.06	0.0007564
2208.7	0.000781
2218.35	0.00102
2227.99	0.0009141
2237.64	0.000949
2247.28	0.0009277
2256.92	0.0008931
2266.57	0.0008766
2276.21	0.00113
2285.86	0.00102
2295.5	0.0007961
2305.15	0.0009243
2314.79	0.0009547
2324.44	0.00107
2334.08	0.0009237
2343.73	0.0008808
2353.37	0.0007569
2363.02	0.0006972
2372.66	0.0008076
2382.31	0.000877
2391.95	0.0008978
2401.6	0.0009302
2411.24	0.00102
2420.89	0.00103
2430.53	0.0009545
2440.18	0.000727
2449.82	0.0008223
2459.47	0.0006136
2469.11	0.0008679
2478.75	0.0006028
2488.4	0.0005757
2498.04	0.0006356
2507.69	0.0006725
2517.33	0.0007883
2526.98	0.0009235
2536.62	0.00108
2546.27	0.00116
2555.91	0.0006883
2565.56	0.0006828
2575.2	0.0008134
2584.85	0.000846
2594.49	0.0007097
2604.14	0.00107
2613.78	0.0006405
2623.43	0.0007173
2633.07	0.0008602
2642.72	0.00113
2652.36	0.0008531
2662.01	0.0007463
2671.65	0.00106
2681.29	0.00101
2690.94	0.00121
2700.58	0.00119
2710.23	0.00124
2719.87	0.00129
2729.52	0.00122
2739.16	0.00162
2748.81	0.00238
2758.45	0.00167
2768.1	0.00169
2777.74	0.00188
2787.39	0.00183
2797.03	0.00192
2806.68	0.00206
2816.32	0.00247
2825.97	0.00272
2835.61	0.00275
2845.26	0.00325
2854.9	0.00468
2864.55	0.00729
2874.19	0.00898
2883.84	0.01013
2893.48	0.01009
2903.12	0.01042
2912.77	0.01323
2922.41	0.0179
2932.06	0.02907
2941.7	0.03412
2951.35	0.02559
2960.99	0.0244
2970.64	0.035
2980.28	0.04919
2989.93	0.04211
2999.57	0.02322
3009.22	0.01351
3018.86	0.00842
3028.51	0.0055
3038.15	0.00394
3047.8	0.00307
3057.44	0.00322
3067.09	0.00275
3076.73	0.00235
3086.38	0.00232
3096.02	0.00207
3105.67	0.00284
3115.31	0.00252
3124.95	0.00173
3134.6	0.00168
3144.24	0.00194
3153.89	0.00185
3163.53	0.00181
3173.18	0.00158
3182.82	0.00165
3192.47	0.00117
3202.11	0.00146
3211.76	0.00159
3221.4	0.00145
3231.05	0.00122
3240.69	0.00154
3250.34	0.00205
3259.98	0.00269
3269.63	0.00239
3279.27	0.00265
3288.92	0.00248
3298.56	0.00255
3308.21	0.00331
3317.85	0.00544
3327.49	0.01087
3337.14	0.02216
3346.78	0.02908
3356.43	0.02261
3366.07	0.0136
3375.72	0.00748
3385.36	0.00665
3395.01	0.00959
3404.65	0.00958
3414.3	0.00475
3423.94	0.00272
3433.59	0.00234
3443.23	0.00289
3452.88	0.0034
3462.52	0.00498
3472.17	0.00899
3481.81	0.01637
3491.46	0.02532
3501.1	0.02621
3510.75	0.01648
3520.39	0.00783
3530.04	0.0039
3539.68	0.00243
3549.32	0.0017
3558.97	0.00115
3568.61	0.0009932
3578.26	0.0008565
3587.9	0.000908
3597.55	0.0009818
3607.19	0.0006332
3616.84	0.00124
3626.48	0.0006796
3636.13	0.0006926
3645.77	0.0005494
3655.42	0.000739
3665.06	0.0005003
3674.71	0.0005381
3684.35	0.0005497
3694	0.0007271
3703.64	0.0005516
3713.29	0.0009298
3722.93	0.0008109
3732.58	0.0005947
3742.22	0.0005248
3751.86	0.0008178
3761.51	0.0006782
3771.15	0.0004172
3780.8	0.0003333
3790.44	0.0005368
3800.09	0.0005308
3809.73	0.0006544
3819.38	0.0003588
3829.02	0.000788
3838.67	0.0008778
3848.31	0.0003455
3857.96	0.0004705
3867.6	0.000214
3877.25	0.0003981
3886.89	0.0005096
3896.54	0.0005621
3906.18	0.0007265
3915.83	0.0005855
3925.47	0.00078
3935.12	0.000893
3944.76	0.0004828
3954.41	0.0007436
3964.05	0.000393
3973.69	0.0009752
3983.34	0.0005776
3992.98	0.00101
