Infrared Spectrum: 1,2-DICHLORO-3,3,3-TRIFLUORO PROPENE-1
Formula: C3 H Cl2 F3
CAS: 431-27-6
State: SOLUTION (10% CCl4 FOR 5000-1330, 10% CS2 FOR 1330-625 CM^-^1)
Class: COBLENTZ
Instrument: Not specified, most likely a prism, grating, or hybrid spectrometer.
Sampling: TRANSMISSION
Path length: 0.0110 CM, 0.0111 CM
Resolution: 4
Origin: DOW CHEMICAL COMPANY
MICROMETERS	TRANSMITTANCE
2.055	0.909
2.09606	0.904
2.13711	0.905
2.17817	0.909
2.21922	0.909
2.26028	0.905
2.30133	0.91
2.34239	0.91
2.38344	0.912
2.4245	0.91
2.46555	0.91
2.50661	0.912
2.54767	0.914
2.58872	0.922
2.62978	0.929
2.67083	0.926
2.71189	0.926
2.75294	0.928
2.794	0.928
2.83505	0.924
2.87611	0.921
2.91716	0.898
2.95822	0.897
2.99928	0.907
3.04033	0.909
3.08139	0.907
3.12244	0.905
3.1635	0.902
3.20455	0.779
3.24561	0.799
3.28666	0.917
3.32772	0.928
3.36877	0.928
3.40983	0.924
3.45089	0.922
3.49194	0.929
3.533	0.929
3.57405	0.931
3.61511	0.936
3.65616	0.936
3.69722	0.936
3.73827	0.938
3.77933	0.94
3.82038	0.94
3.86144	0.938
3.9025	0.936
3.94355	0.936
3.98461	0.936
4.02566	0.933
4.06672	0.934
4.10777	0.938
4.14883	0.938
4.18988	0.938
4.23094	0.938
4.27199	0.938
4.31305	0.922
4.3541	0.922
4.39516	0.928
4.43622	0.928
4.47727	0.934
4.51833	0.946
4.55938	0.95
4.60044	0.948
4.64149	0.94
4.68255	0.88
4.7236	0.969
4.76466	0.96
4.80571	0.958
4.84677	0.957
4.88783	0.948
4.92888	0.945
4.96994	0.94
5.01099	0.94
5.05205	0.945
5.0931	0.95
5.13416	0.948
5.17521	0.946
5.21627	0.946
5.25732	0.946
5.29838	0.943
5.33944	0.943
5.38049	0.943
5.42155	0.941
5.4626	0.941
5.50366	0.941
5.54471	0.941
5.58577	0.941
5.62682	0.941
5.66788	0.941
5.70893	0.941
5.74999	0.938
5.79105	0.928
5.8321	0.912
5.87316	0.907
5.91421	0.926
5.95527	0.922
5.99632	0.878
6.03738	0.806
6.07843	0.744
6.11949	0.534
6.16054	0.208
6.2016	0.592
6.24266	0.695
6.28371	0.647
6.32477	0.635
6.36582	0.601
6.40688	0.542
6.44793	0.51
6.48899	0.565
6.53004	0.638
6.5711	0.69
6.61215	0.763
6.65321	0.815
6.69427	0.844
6.73532	0.873
6.77638	0.886
6.81743	0.898
6.85849	0.9
6.89954	0.885
6.9406	0.881
6.98165	0.904
7.02271	0.91
7.06376	0.905
7.10482	0.907
7.14588	0.9
7.18693	0.885
7.22799	0.897
7.26904	0.909
7.3101	0.904
7.35115	0.856
7.39221	0.806
7.43326	0.792
7.47432	0.809
7.51537	0.768
7.55643	0.64
7.59749	0.45
7.63854	0.085
7.6796	0.025
7.72065	0.068
7.76171	0.087
7.80276	0.092
7.84382	0.154
7.88487	0.219
7.92593	0.123
7.96698	0.304
8.00804	0.556
8.0491	0.655
8.09015	0.717
8.13121	0.705
8.17226	0.654
8.21332	0.565
8.25437	0.412
8.29543	0.27
8.33648	0.102
8.37754	0.02
8.41859	0.013
8.45965	0.017
8.5007	0.029
8.54176	0.032
8.58282	0.025
8.62387	0.011
8.66493	0.015
8.70598	0.049
8.74704	0.159
8.78809	0.345
8.82915	0.46
8.8702	0.53
8.91126	0.59
8.95231	0.65
8.99337	0.738
9.03443	0.78
9.07548	0.791
9.11654	0.797
9.15759	0.787
9.19865	0.761
9.2397	0.775
9.28076	0.835
9.32181	0.861
9.36287	0.871
9.40392	0.88
9.44498	0.881
9.48604	0.883
9.52709	0.886
9.56815	0.886
9.6092	0.885
9.65026	0.876
9.69131	0.866
9.73237	0.851
9.77342	0.83
9.81448	0.82
9.85553	0.816
9.89659	0.799
9.93765	0.782
9.9787	0.787
10.0198	0.791
10.0608	0.729
10.1019	0.642
10.1429	0.539
10.184	0.424
10.225	0.232
10.2661	0.075
10.3071	0.075
10.3482	0.236
10.3893	0.494
10.4303	0.647
10.4714	0.724
10.5124	0.77
10.5535	0.811
10.5945	0.833
10.6356	0.854
10.6766	0.875
10.7177	0.878
10.7588	0.878
10.7998	0.869
10.8409	0.861
10.8819	0.859
10.923	0.859
10.964	0.859
11.0051	0.861
11.0461	0.861
11.0872	0.856
11.1283	0.835
11.1693	0.791
11.2104	0.743
11.2514	0.741
11.2925	0.741
11.3335	0.739
11.3746	0.739
11.4156	0.714
11.4567	0.674
11.4978	0.633
11.5388	0.565
11.5799	0.419
11.6209	0.195
11.662	0.041
11.703	0.041
11.7441	0.125
11.7851	0.328
11.8262	0.566
11.8673	0.635
11.9083	0.666
11.9494	0.672
11.9904	0.66
12.0315	0.539
12.0725	0.344
12.1136	0.155
12.1546	0.125
12.1957	0.251
12.2368	0.491
12.2778	0.633
12.3189	0.729
12.3599	0.765
12.401	0.796
12.442	0.813
12.4831	0.825
12.5241	0.832
12.5652	0.835
12.6062	0.839
12.6473	0.839
12.6884	0.839
12.7294	0.847
12.7705	0.851
12.8115	0.851
12.8526	0.854
12.8936	0.857
12.9347	0.857
12.9757	0.857
13.0168	0.854
13.0579	0.849
13.0989	0.842
13.14	0.84
13.181	0.837
13.2221	0.832
13.2631	0.827
13.3042	0.816
13.3452	0.808
13.3863	0.801
13.4274	0.799
13.4684	0.799
13.5095	0.796
13.5505	0.791
13.5916	0.779
13.6326	0.761
13.6737	0.739
13.7147	0.696
13.7558	0.647
13.7969	0.52
13.8379	0.323
13.879	0.152
13.92	0.123
13.9611	0.202
14.0021	0.417
14.0432	0.575
14.0842	0.642
14.1253	0.674
14.1664	0.69
14.2074	0.696
14.2485	0.698
14.2895	0.698
14.3306	0.696
14.3716	0.693
14.4127	0.688
14.4537	0.683
14.4948	0.676
14.5359	0.671
14.5769	0.667
14.618	0.659
14.659	0.654
14.7001	0.643
14.7411	0.636
14.7822	0.628
14.8232	0.619
14.8643	0.614
14.9054	0.614
14.9464	0.611
14.9875	0.601
15.0285	0.589
15.0696	0.571
15.1106	0.563
15.1517	0.554
15.1927	0.542
15.2338	0.537
15.2749	0.53
15.3159	0.523
15.357	0.511
15.398	0.505
15.4391	0.498
15.4801	0.486
15.5212	0.472
15.5622	0.46
15.6033	0.448
15.6444	0.433
15.6854	0.414
15.7265	0.397
15.7675	0.385
15.8086	0.378
15.8496	0.375
