Infrared Spectrum: 2,3-Butadione
Formula: C 4 H 6 O 2
CAS: 431-03-8
State: gas
Instrument: HP-GC/MS/IRD
Origin: NIST Mass Spectrometry Data Center
1/CM	ABSORBANCE
550	0.0059013
562	0.0033022
574	0.0015958
586	0.0010507
598	0.0008374
610	0.000711
622	0.0004582
634	0.0002607
646	7.9e-05
658	0.0001817
670	7.9e-05
682	5.53e-05
694	7.11e-05
706	5.53e-05
718	7.9e-05
730	3.16e-05
742	7.9e-05
754	0.0001264
766	0.0001264
778	0.0001975
790	0.0002765
802	0.0002528
814	0.0003318
826	0.0003792
838	0.0004187
850	0.0005135
862	0.0006794
874	0.0012087
886	0.0030573
898	0.0058539
910	0.007426
922	0.0072917
934	0.0051824
946	0.0044793
958	0.0037525
970	0.0027966
982	0.0018881
994	0.0013904
1006	0.0011771
1018	0.0013351
1030	0.0017459
1042	0.0024174
1054	0.0029704
1066	0.0034997
1078	0.0048822
1090	0.0127269
1102	0.0284716
1114	0.0336935
1126	0.02765
1138	0.0085636
1150	0.0025675
1162	0.0012403
1174	0.000869
1186	0.0007347
1198	0.0007663
1210	0.0008374
1222	0.0008927
1234	0.000869
1246	0.0009164
1258	0.0010033
1270	0.001106
1282	0.001343
1294	0.0016195
1306	0.0022515
1318	0.0035708
1330	0.0068809
1342	0.0161002
1354	0.0236684
1366	0.0247349
1378	0.0133194
1390	0.0067466
1402	0.0069757
1414	0.0084846
1426	0.0088954
1438	0.007426
1450	0.0053562
1462	0.0037683
1474	0.0030336
1486	0.0027413
1498	0.0026702
1510	0.0027966
1522	0.0028835
1534	0.0027492
1546	0.0025675
1558	0.0023226
1570	0.0021646
1582	0.0019513
1594	0.0017538
1606	0.0015642
1618	0.0014062
1630	0.0014694
1642	0.0017538
1654	0.0025991
1666	0.0041633
1678	0.0074339
1690	0.0129797
1702	0.0331326
1714	0.0691092
1726	0.0702863
1738	0.0683192
1750	0.0253274
1762	0.0094247
1774	0.0066755
1786	0.004266
1798	0.0027966
1810	0.001817
1822	0.0010981
1834	0.0005846
1846	0.0004661
1858	0.0003792
1870	0.0003476
1882	0.0003555
1894	0.0003634
1906	0.0003239
1918	0.0003239
1930	0.0003081
1942	0.0003476
1954	0.0004503
1966	0.0004661
1978	0.0004266
1990	0.0003555
2002	0.0002686
2014	0.0002844
2026	0.0003713
2038	0.0003634
2050	0.0002449
2062	0.0002054
2074	0.0001896
2086	0.000237
2098	0.0001896
2110	0.0001422
2122	0.0001264
2134	0.0001027
2146	0.0001264
2158	0.0001185
2170	0.0001106
2182	0.0001343
2194	7.9e-05
2206	6.32e-05
2218	7.9e-05
2230	0.0001027
2242	0.0001738
2254	0.000316
2266	0.0004108
2278	0.0004424
2290	0.0003476
2302	0.0002765
2314	0.0002765
2326	0.000237
2338	0.0002607
2350	0.0002607
2362	0.000316
2374	0.000316
2386	0.0003239
2398	0.000316
2410	0.0002528
2422	0.0001975
2434	0.0001422
2446	0.0001422
2458	0.0002133
2470	0.0002686
2482	0.0002212
2494	0.0001738
2506	3.95e-05
2518	6.32e-05
2530	3.95e-05
2542	0
2554	7.9e-06
2566	2.37e-05
2578	2.37e-05
2590	7.11e-05
2602	0.0001027
2614	0.0001817
2626	0.0002449
2638	0.0002291
2650	0.0001027
2662	0.0001185
2674	8.69e-05
2686	0.0001185
2698	7.9e-05
2710	0.000158
2722	0.0001975
2734	0.0001501
2746	0.0001896
2758	0.000158
2770	0.0001501
2782	0.0001817
2794	0.0001659
2806	0.0002449
2818	0.0002449
2830	0.0003871
2842	0.0003713
2854	0.0004503
2866	0.0004424
2878	0.0004582
2890	0.0005372
2902	0.0006794
2914	0.000948
2926	0.0013825
2938	0.0017459
2950	0.0019671
2962	0.0019513
2974	0.0021409
2986	0.0022673
2998	0.0024885
3010	0.0028914
3022	0.0027808
3034	0.002133
3046	0.0012087
3058	0.0009954
3070	0.0010428
3082	0.0011297
3094	0.0010033
3106	0.0008769
3118	0.0006004
3130	0.0004266
3142	0.0004029
3154	0.0004187
3166	0.0002923
3178	0.0002449
3190	0.0001896
3202	0.0001896
3214	0.0001817
3226	0.0002449
3238	0.0001659
3250	0.0001422
3262	0.0001106
3274	7.11e-05
3286	0.0001343
3298	0
3310	6.32e-05
3322	0.0001185
3334	0.0001185
3346	0.0001738
3358	0.0002291
3370	0.0002449
3382	0.0003555
3394	0.0005451
3406	0.0010191
3418	0.0018644
3430	0.0022989
3442	0.0023147
3454	0.0013035
3466	0.0007189
3478	0.0005688
3490	0.0004187
3502	0.0002607
3514	0.0003239
3526	0.0002054
3538	0.0001343
3550	0.0001975
3562	0.0001975
3574	0.0001501
3586	0.0001659
3598	0.0002054
3610	0.0001817
3622	0.000237
3634	0.0001501
3646	0.0001659
3658	8.69e-05
3670	0.0001896
3682	0.0001185
3694	0.0001501
3706	0.0001501
3718	6.32e-05
3730	0.0001185
3742	0.0001975
3754	0.0001817
3766	0.0001185
3778	0.0002054
3790	0.0001106
3802	0.0001501
3814	0.0002133
3826	0.0002291
3838	0.0001896
