Infrared Spectrum: Methyl trifluoroacetate
Formula: C 3 H 3 F 3 O 2
CAS: 431-47-0
State: gas
Origin: EPA-IR VAPOR PHASE LIBRARY
1/CM	ABSORBANCE
549.8	0.00594
559.445	0.00401
569.09	0.00346
578.734	0.00558
588.379	0.00606
598.024	0.00545
607.669	0.00373
617.313	0.00369
626.958	0.00189
636.603	0.00276
646.248	0.00417
655.893	0.00427
665.537	0.00375
675.182	0.00368
684.827	0.0035
694.472	0.00312
704.116	0.00659
713.761	0.02521
723.406	0.09869
733.051	0.14871
742.695	0.13074
752.34	0.0481
761.985	0.03927
771.63	0.05724
781.275	0.07315
790.919	0.05595
800.564	0.04267
810.209	0.03572
819.854	0.05655
829.498	0.09179
839.143	0.09411
848.788	0.06245
858.433	0.02348
868.078	0.01083
877.722	0.00588
887.367	0.00458
897.012	0.00445
906.657	0.00537
916.301	0.00565
925.946	0.00777
935.591	0.01104
945.236	0.01626
954.88	0.02371
964.525	0.02885
974.17	0.02809
983.815	0.01998
993.46	0.01124
1003.1	0.0101814
1012.75	0.0104679
1022.39	0.01145
1032.04	0.01432
1041.68	0.01677
1051.33	0.02175
1060.97	0.02615
1070.62	0.03288
1080.26	0.04691
1089.91	0.07403
1099.55	0.12088
1109.2	0.20762
1118.84	0.40228
1128.49	0.78094
1138.13	1.10474
1147.78	1.21877
1157.42	1.12888
1167.07	1.0945
1176.71	1.2751
1186.36	1.31357
1196	1.22491
1205.64	1.08116
1215.29	1.10298
1224.93	1.16637
1234.58	0.99536
1244.22	0.69447
1253.87	0.32988
1263.51	0.14471
1273.16	0.0806
1282.8	0.05698
1292.45	0.05142
1302.09	0.05875
1311.74	0.07761
1321.38	0.1064
1331.03	0.15382
1340.67	0.22499
1350.32	0.28529
1359.96	0.28606
1369.61	0.24172
1379.25	0.13833
1388.9	0.06856
1398.54	0.03682
1408.18	0.02663
1417.83	0.02865
1427.47	0.03691
1437.12	0.0604
1446.76	0.08036
1456.41	0.07572
1466.05	0.04405
1475.7	0.03829
1485.34	0.03028
1494.99	0.02291
1504.63	0.01868
1514.28	0.01648
1523.92	0.01605
1533.57	0.01799
1543.21	0.02335
1552.86	0.02584
1562.5	0.02553
1572.15	0.01972
1581.79	0.01452
1591.44	0.01184
1601.08	0.0101771
1610.73	0.009154
1620.37	0.00766
1630.01	0.00658
1639.66	0.00609
1649.3	0.00607
1658.95	0.00677
1668.59	0.00788
1678.24	0.009336
1687.88	0.01134
1697.53	0.01435
1707.17	0.01771
1716.82	0.02211
1726.46	0.02505
1736.11	0.02934
1745.75	0.03851
1755.4	0.06419
1765.04	0.12624
1774.69	0.24431
1784.33	0.45133
1793.98	0.69322
1803.62	0.79257
1813.27	0.76613
1822.91	0.45919
1832.55	0.19266
1842.2	0.06896
1851.84	0.02487
1861.49	0.01306
1871.13	0.009069
1880.78	0.00734
1890.42	0.00703
1900.07	0.00764
1909.71	0.009028
1919.36	0.0102823
1929	0.01073
1938.65	0.0108
1948.29	0.0106
1957.94	0.0098296
1967.58	0.010119
1977.23	0.0103419
1986.87	0.00954843
1996.52	0.008
2006.16	0.00708
2015.81	0.00712
2025.45	0.00761
2035.1	0.00761
2044.74	0.00713
2054.38	0.00661
2064.03	0.00589
2073.67	0.00526
2083.32	0.00491
2092.96	0.00473
2102.61	0.00436
2112.25	0.00442
2121.9	0.00442
2131.54	0.00439
2141.19	0.00436
2150.83	0.00376
2160.48	0.00389
2170.12	0.00413
2179.77	0.00447
2189.41	0.00442
2199.06	0.00424
2208.7	0.0037
2218.35	0.00249
2227.99	0.00232
2237.64	0.00196
2247.28	0.00231
2256.92	0.0029
2266.57	0.00341
2276.21	0.00445
2285.86	0.00561
2295.5	0.00646
2305.15	0.00736
2314.79	0.008888
2324.44	0.009355
2334.08	0.009114
2343.73	0.00819
2353.37	0.00719
2363.02	0.00676
2372.66	0.00612
2382.31	0.00587
2391.95	0.00609
2401.6	0.0069
2411.24	0.00703
2420.89	0.0065
2430.53	0.00541
2440.18	0.00471
2449.82	0.00477
2459.47	0.00501
2469.11	0.00501
2478.75	0.00503
2488.4	0.0053
2498.04	0.00503
2507.69	0.00457
2517.33	0.00418
2526.98	0.00388
2536.62	0.00469
2546.27	0.00522
2555.91	0.00557
2565.56	0.00524
2575.2	0.00539
2584.85	0.00473
2594.49	0.00413
2604.14	0.00379
2613.78	0.0036
2623.43	0.00374
2633.07	0.00361
2642.72	0.00378
2652.36	0.00324
2662.01	0.00225
2671.65	0.00215
2681.29	0.00183
2690.94	0.00161
2700.58	0.00168
2710.23	0.0013
2719.87	0.00123
2729.52	0.00104
2739.16	0.00064
2748.81	0.00097
2758.45	0.00084
2768.1	0.00107
2777.74	0.00124
2787.39	0.00124
2797.03	0.00096
2806.68	0.00136
2816.32	0.00173
2825.97	0.00234
2835.61	0.00369
2845.26	0.00758
2854.9	0.01503
2864.55	0.02055
2874.19	0.01941
2883.84	0.01095
2893.48	0.008708
2903.12	0.01114
2912.77	0.01318
2922.41	0.01276
2932.06	0.01287
2941.7	0.016
2951.35	0.03664
2960.99	0.09258
2970.64	0.10697
2980.28	0.08014
2989.93	0.03116
2999.57	0.02683
3009.22	0.02921
3018.86	0.03201
3028.51	0.02939
3038.15	0.02723
3047.8	0.02315
3057.44	0.01985
3067.09	0.01503
3076.73	0.01146
3086.38	0.0098141
3096.02	0.009254
3105.67	0.00829
3115.31	0.00727
3124.95	0.00713
3134.6	0.00677
3144.24	0.00576
3153.89	0.00503
3163.53	0.00414
3173.18	0.00337
3182.82	0.00258
3192.47	0.00183
3202.11	0.00137
3211.76	0.00141
3221.4	0.00134
3231.05	0.00202
3240.69	0.00228
3250.34	0.00169
3259.98	0.00188
3269.63	0.00104
3279.27	0.00057
3288.92	0.00031
3298.56	0.001
3308.21	0.00067
3317.85	0.00023
3327.49	0.00101
3337.14	0.00066
3346.78	0.00101
3356.43	0.00138
3366.07	0.00064
3375.72	0.00052
3385.36	0.00123
3395.01	0.00078
3404.65	0.00087
3414.3	0.00092
3423.94	0.00085
3433.59	0.00077
3443.23	0.00107
3452.88	0.00086
3462.52	0.00116
3472.17	0.00215
3481.81	0.0012
3491.46	0.0014
3501.1	0.00143
3510.75	0.00233
3520.39	0.00207
3530.04	0.00232
3539.68	0.00253
3549.32	0.00387
3558.97	0.00531
3568.61	0.0082
3578.26	0.009258
3587.9	0.01133
3597.55	0.0100384
3607.19	0.00704
3616.84	0.00468
3626.48	0.0036
3636.13	0.00244
3645.77	0.00252
3655.42	0.00139
3665.06	0.00162
3674.71	0.00231
3684.35	0.00178
3694	0.00154
3703.64	0.00117
3713.29	0.00117
3722.93	0.0015
3732.58	0.00125
3742.22	0.00208
3751.86	0.00179
3761.51	0.00056
3771.15	0.00113
3780.8	0.00096
3790.44	0.00103
3800.09	0.00163
3809.73	0.00103
3819.38	0.00113
3829.02	0.00114
3838.67	0.00186
3848.31	0.00093
3857.96	0.00104
3867.6	0.00228
3877.25	0.00135
3886.89	0.0018
3896.54	0.00179
3906.18	0.00124
3915.83	0.00156
3925.47	0.0018
3935.12	0.00246
3944.76	0.0026
3954.41	0.00161
3964.05	0.00179
3973.69	0.00132
3983.34	0.00163
3992.98	0.00178
