Infrared Spectrum: Propane, 2,3,3-trichloro-1,1,1-trifluoro-
Formula: C3 H2 Cl3 F3
CAS: 431-51-6
State: GAS (50 mmHg, N2 ADDED, TOTAL PRESSURE 600 mmHg)
Class: COBLENTZ
Instrument: DOW KBr FOREPRISM-GRATING
Instrument parameters: GRATING CHANGED AT 5.0, 7.5, 15.0 MICRON
Sampling: TRANSMISSION
Path length: 10 CM
Resolution: 2
Origin: DOW CHEMICAL COMPANY
1/CM	TRANSMITTANCE
382	0.7254
391	0.7303
400	0.7366
409	0.744
418	0.7539
427	0.7677
436	0.7832
445	0.7986
454	0.8122
463	0.8248
472	0.8336
481	0.8322
490	0.8314
499	0.828
508	0.7957
517	0.7497
526	0.7805
535	0.8015
544	0.7876
553	0.6327
562	0.5701
571	0.7909
580	0.8115
589	0.8369
598	0.8331
607	0.8287
616	0.832
625	0.8275
634	0.8187
643	0.8194
652	0.8322
661	0.8446
670	0.8439
679	0.8074
688	0.5028
697	0.0089
706	0.0884
715	0.8048
724	0.8375
733	0.8394
742	0.8359
751	0.8523
760	0.8399
769	0.817
778	0.7933
787	0.7398
796	0.6876
805	0.558
814	0.0936
823	0.0251
832	0.1809
841	0.5353
850	0.7237
859	0.7641
868	0.7519
877	0.7083
886	0.5955
895	0.2554
904	0.0096
913	0.0122
922	0.0271
931	0.3201
940	0.6509
949	0.7755
958	0.7779
967	0.7652
976	0.7324
985	0.659
994	0.7424
1003	0.6477
1012	0.3985
1021	0.418
1030	0.652
1039	0.5646
1048	0.5878
1057	0.7482
1066	0.7925
1075	0.7873
1084	0.7482
1093	0.6696
1102	0.5983
1111	0.4614
1120	0.5466
1129	0.6088
1138	0.4602
1147	0.4865
1156	0.0634
1165	0.0114
1174	0.0133
1183	0.0254
1192	0.0392
1201	0.0096
1210	0.0116
1219	0.0196
1228	0.1989
1237	0.1845
1246	0.1775
1255	0.0856
1264	0.0103
1273	0.01
1282	0.0116
1291	0.035
1300	0.2747
1309	0.349
1318	0.6234
1327	0.6204
1336	0.6718
1345	0.7501
1354	0.7572
1363	0.7557
1372	0.7437
1381	0.7461
1390	0.7726
1399	0.7851
1408	0.7844
1417	0.7605
1426	0.7234
1435	0.7248
1444	0.783
1453	0.7761
1462	0.7721
1471	0.7828
1480	0.7942
1489	0.7972
1498	0.7998
1507	0.8006
1516	0.7973
1525	0.8037
1534	0.7914
1543	0.7742
1552	0.7151
1561	0.6339
1570	0.4515
1579	0.1781
1588	0.0106
1597	0.0204
1606	0.4253
1615	0.572
1624	0.768
1633	0.7768
1642	0.766
1651	0.7612
1660	0.7956
1669	0.7989
1678	0.7882
1687	0.778
1696	0.7779
1705	0.7907
1714	0.7884
1723	0.7842
1732	0.7908
1741	0.8026
1750	0.8055
1759	0.8059
1768	0.8135
1777	0.8121
1786	0.8038
1795	0.7986
1804	0.7995
1813	0.8045
1822	0.8143
1831	0.8164
1840	0.8167
1849	0.8191
1858	0.8169
1867	0.8186
1876	0.8308
1885	0.8343
1894	0.828
1903	0.8227
1912	0.821
1921	0.8216
1930	0.8254
1939	0.8322
1948	0.8284
1957	0.8201
1966	0.8198
1975	0.815
1984	0.7989
1993	0.7959
2002	0.7952
2011	0.7948
2020	0.7941
2029	0.7974
2038	0.8167
2047	0.8253
2056	0.8244
2065	0.8229
2074	0.8184
2083	0.7974
2092	0.7837
2101	0.7879
2110	0.823
2119	0.8306
2128	0.8336
2137	0.8349
2146	0.8347
2155	0.8319
2164	0.8273
2173	0.819
2182	0.7978
2191	0.7898
2200	0.8144
2209	0.8208
2218	0.8217
2227	0.828
2236	0.8304
2245	0.8282
2254	0.8267
2263	0.822
2272	0.8097
2281	0.797
2290	0.7903
2299	0.8115
2308	0.8148
2317	0.8121
2326	0.8026
2335	0.7991
2344	0.8011
2353	0.8003
2362	0.7919
2371	0.7877
2380	0.7863
2389	0.7887
2398	0.7896
2407	0.7773
2416	0.7735
2425	0.7871
2434	0.7959
2443	0.7938
2452	0.7967
2461	0.7996
2470	0.7863
2479	0.7779
2488	0.7812
2497	0.7986
2506	0.8103
2515	0.8123
2524	0.8114
2533	0.8111
2542	0.8119
2551	0.8166
2560	0.8219
2569	0.8233
2578	0.8234
2587	0.823
2596	0.8234
2605	0.826
2614	0.8289
2623	0.8293
2632	0.8298
2641	0.8311
2650	0.8326
2659	0.8349
2668	0.8362
2677	0.8364
2686	0.8353
2695	0.8352
2704	0.8365
2713	0.8381
2722	0.8396
2731	0.8396
2740	0.8395
2749	0.8392
2758	0.8389
2767	0.8388
2776	0.8388
2785	0.837
2794	0.8346
2803	0.8321
2812	0.8291
2821	0.8261
2830	0.8208
2839	0.8141
2848	0.8053
2857	0.795
2866	0.7997
2875	0.8125
2884	0.8226
2893	0.8221
2902	0.8204
2911	0.8179
2920	0.8187
2929	0.8225
2938	0.8262
2947	0.8291
2956	0.8312
2965	0.8326
2974	0.8354
2983	0.8399
2992	0.8456
3001	0.849
3010	0.8509
3019	0.8518
3028	0.852
3037	0.8522
3046	0.8531
3055	0.8537
3064	0.8537
3073	0.853
3082	0.8518
3091	0.8524
3100	0.8532
3109	0.8547
3118	0.8551
3127	0.8535
3136	0.8502
3145	0.8469
3154	0.8462
3163	0.8503
3172	0.8546
3181	0.8578
3190	0.8587
3199	0.8576
3208	0.8576
3217	0.8582
3226	0.859
3235	0.8598
3244	0.8606
3253	0.8593
3262	0.8585
3271	0.858
3280	0.8588
3289	0.8598
3298	0.8607
3307	0.8616
3316	0.862
3325	0.8623
3334	0.863
3343	0.8638
3352	0.8648
3361	0.8641
3370	0.8633
3379	0.8628
3388	0.8626
3397	0.8646
3406	0.8664
3415	0.8673
3424	0.865
3433	0.8623
3442	0.8594
3451	0.8598
3460	0.8608
3469	0.8616
3478	0.8606
3487	0.8596
3496	0.8586
3505	0.8591
3514	0.8604
3523	0.8614
3532	0.8614
3541	0.8604
3550	0.858
3559	0.8573
3568	0.8584
3577	0.8614
3586	0.8632
3595	0.8629
3604	0.8612
3613	0.8605
3622	0.8626
3631	0.8648
3640	0.8662
3649	0.8658
3658	0.8645
3667	0.8621
3676	0.8614
3685	0.8626
3694	0.8658
3703	0.8681
3712	0.8689
3721	0.8702
3730	0.8717
3739	0.8735
3748	0.8759
3757	0.8763
3766	0.8758
3775	0.8758
3784	0.883
3793	0.8915
