Infrared Spectrum: 1,2-DICHLORO-1,3,3,3-TETRAFLUOROPROPENE-1
Formula: C3 Cl2 F4
CAS: 431-53-8
State: SOLUTION (10% CCl4 FOR 2-7.5, 10% CS2 FOR 7.5-15.9 MICRON)
Class: COBLENTZ III
Instrument: BAIRD (PRISM)
Instrument parameters: NaCl PRISM
Sampling: TRANSMISSION
Path length: 0.011 CM, 0.011 CM
Resolution: 2
Origin: DOW CHEMICAL COMPANY
MICROMETERS	TRANSMITTANCE
1.985	0.899
2.02403	0.905
2.06305	0.908
2.10208	0.906
2.1411	0.908
2.18013	0.908
2.21915	0.908
2.25818	0.91
2.2972	0.911
2.33623	0.91
2.37525	0.911
2.41428	0.916
2.4533	0.92
2.49233	0.926
2.53135	0.929
2.57038	0.929
2.60941	0.927
2.64843	0.929
2.68746	0.929
2.72648	0.929
2.76551	0.929
2.80453	0.927
2.84356	0.926
2.88258	0.922
2.92161	0.909
2.96063	0.91
2.99966	0.913
3.03868	0.914
3.07771	0.922
3.11673	0.927
3.15576	0.929
3.19479	0.929
3.23381	0.929
3.27284	0.929
3.31186	0.929
3.35089	0.927
3.38991	0.929
3.42894	0.931
3.46796	0.931
3.50699	0.927
3.54601	0.931
3.58504	0.937
3.62406	0.942
3.66309	0.946
3.70212	0.947
3.74114	0.947
3.78017	0.948
3.81919	0.943
3.85822	0.942
3.89724	0.946
3.93627	0.947
3.97529	0.944
4.01432	0.943
4.05334	0.941
4.09237	0.941
4.13139	0.941
4.17042	0.942
4.20944	0.943
4.24847	0.942
4.2875	0.909
4.32652	0.905
4.36555	0.932
4.40457	0.938
4.4436	0.948
4.48262	0.951
4.52165	0.951
4.56067	0.947
4.5997	0.931
4.63872	0.931
4.67775	0.942
4.71677	0.954
4.7558	0.958
4.79482	0.958
4.83385	0.951
4.87288	0.947
4.9119	0.936
4.95093	0.932
4.98995	0.941
5.02898	0.949
5.068	0.949
5.10703	0.949
5.14605	0.949
5.18508	0.951
5.2241	0.951
5.26313	0.948
5.30215	0.947
5.34118	0.937
5.3802	0.931
5.41923	0.937
5.45826	0.938
5.49728	0.938
5.53631	0.938
5.57533	0.941
5.61436	0.942
5.65338	0.942
5.69241	0.941
5.73143	0.926
5.77046	0.925
5.80948	0.921
5.84851	0.922
5.88753	0.91
5.92656	0.85
5.96558	0.548
6.00461	0.221
6.04364	0.101
6.08266	0.623
6.12169	0.767
6.16071	0.816
6.19974	0.813
6.23876	0.729
6.27779	0.669
6.31681	0.643
6.35584	0.602
6.39486	0.55
6.43389	0.512
6.47291	0.542
6.51194	0.623
6.55097	0.667
6.58999	0.703
6.62902	0.769
6.66804	0.828
6.70707	0.861
6.74609	0.888
6.78512	0.899
6.82414	0.908
6.86317	0.909
6.90219	0.908
6.94122	0.902
6.98024	0.902
7.01927	0.905
7.05829	0.908
7.09732	0.911
7.13635	0.913
7.17537	0.913
7.2144	0.899
7.25342	0.883
7.29245	0.873
7.33147	0.859
7.3705	0.822
7.40952	0.802
7.44855	0.79
7.48757	0.69
7.5266	0.522
7.56562	0.351
7.60465	0.149
7.64367	0.046
7.6827	0.017
7.72173	0.015
7.76075	0.099
7.79978	0.305
7.8388	0.43
7.87783	0.588
7.91685	0.67
7.95588	0.72
7.9949	0.729
8.03393	0.69
8.07295	0.58
8.11198	0.411
8.151	0.152
8.19003	0.048
8.22905	0.042
8.26808	0.03
8.30711	0.023
8.34613	0.051
8.38516	0.16
8.42418	0.249
8.46321	0.252
8.50223	0.179
8.54126	0.1
8.58028	0.039
8.61931	0.018
8.65833	0.011
8.69736	0.014
8.73638	0.082
8.77541	0.272
8.81443	0.422
8.85346	0.539
8.89249	0.599
8.93151	0.662
8.97054	0.74
9.00956	0.795
9.04859	0.813
9.08761	0.831
9.12664	0.842
9.16566	0.851
9.20469	0.859
9.24371	0.858
9.28274	0.851
9.32176	0.843
9.36079	0.839
9.39982	0.84
9.43884	0.839
9.47787	0.832
9.51689	0.821
9.55592	0.81
9.59494	0.782
9.63397	0.728
9.67299	0.619
9.71202	0.419
9.75104	0.221
9.79007	0.19
9.82909	0.204
9.86812	0.176
9.90714	0.197
9.94617	0.359
9.9852	0.542
10.0242	0.594
10.0632	0.47
10.1023	0.201
10.1413	0.156
10.1803	0.466
10.2193	0.709
10.2584	0.79
10.2974	0.816
10.3364	0.828
10.3754	0.838
10.4145	0.85
10.4535	0.864
10.4925	0.878
10.5315	0.891
10.5706	0.899
10.6096	0.904
10.6486	0.906
10.6877	0.908
10.7267	0.905
10.7657	0.902
10.8047	0.9
10.8438	0.899
10.8828	0.898
10.9218	0.898
10.9608	0.898
10.9999	0.898
11.0389	0.888
11.0779	0.875
11.1169	0.86
11.156	0.839
11.195	0.804
11.234	0.753
11.273	0.63
11.3121	0.452
11.3511	0.205
11.3901	0.089
11.4291	0.072
11.4682	0.062
11.5072	0.064
11.5462	0.119
11.5852	0.238
11.6243	0.342
11.6633	0.428
11.7023	0.517
11.7413	0.592
11.7804	0.665
11.8194	0.73
11.8584	0.773
11.8974	0.807
11.9365	0.828
11.9755	0.842
12.0145	0.859
12.0535	0.871
12.0926	0.878
12.1316	0.882
12.1706	0.884
12.2096	0.887
12.2487	0.887
12.2877	0.888
12.3267	0.889
12.3657	0.889
12.4048	0.889
12.4438	0.889
12.4828	0.889
12.5218	0.888
12.5609	0.887
12.5999	0.882
12.6389	0.878
12.6779	0.877
12.717	0.877
12.756	0.878
12.795	0.877
12.834	0.877
12.8731	0.877
12.9121	0.872
12.9511	0.871
12.9901	0.869
13.0292	0.864
13.0682	0.858
13.1072	0.855
13.1462	0.851
13.1853	0.848
13.2243	0.844
13.2633	0.84
13.3023	0.835
13.3414	0.829
13.3804	0.822
13.4194	0.813
13.4585	0.8
13.4975	0.778
13.5365	0.719
13.5755	0.586
13.6146	0.435
13.6536	0.445
13.6926	0.591
13.7316	0.689
13.7707	0.722
13.8097	0.729
13.8487	0.728
13.8877	0.712
13.9268	0.689
13.9658	0.649
14.0048	0.578
14.0438	0.461
14.0829	0.274
14.1219	0.157
14.1609	0.152
14.1999	0.321
14.239	0.428
14.278	0.554
14.317	0.611
14.356	0.641
14.3951	0.657
14.4341	0.663
14.4731	0.667
14.5121	0.667
14.5512	0.667
14.5902	0.662
14.6292	0.657
14.6682	0.651
14.7073	0.643
14.7463	0.636
14.7853	0.631
14.8243	0.623
14.8634	0.623
14.9024	0.62
14.9414	0.62
14.9804	0.609
15.0195	0.591
15.0585	0.576
15.0975	0.57
15.1365	0.561
15.1756	0.556
15.2146	0.552
15.2536	0.547
15.2926	0.541
15.3317	0.536
15.3707	0.529
15.4097	0.522
15.4487	0.515
15.4878	0.505
15.5268	0.496
15.5658	0.489
15.6048	0.484
15.6439	0.481
15.6829	0.481
15.7219	0.482
15.7609	0.482
15.8	0.482
15.839	0.482
15.878	0.482
