Infrared Spectrum: 4-t-Butylbenzhydrazide
Formula: C 11 H 16 N 2 O
CAS: 43100-38-5
State: gas
Origin: EPA-IR VAPOR PHASE LIBRARY
1/CM	ABSORBANCE
549.8	0.008179
559.445	0.009109
569.09	0.006789
578.734	0.005009
588.379	0.004399
598.024	0.004089
607.669	0.003699
617.313	0.003709
626.958	0.003449
636.603	0.003349
646.248	0.003329
655.893	0.002979
665.537	0.002929
675.182	0.003229
684.827	0.003599
694.472	0.005019
704.116	0.006769
713.761	0.006809
723.406	0.006529
733.051	0.004319
742.695	0.003239
752.34	0.003349
761.985	0.004779
771.63	0.005459
781.275	0.004169
790.919	0.003799
800.564	0.003729
810.209	0.004309
819.854	0.005709
829.498	0.007889
839.143	0.010449
848.788	0.011539
858.433	0.007459
868.078	0.004159
877.722	0.003299
887.367	0.003759
897.012	0.005629
906.657	0.008479
916.301	0.014359
925.946	0.024489
935.591	0.034989
945.236	0.026629
954.88	0.012619
964.525	0.006909
974.17	0.004669
983.815	0.003359
993.46	0.002739
1003.1	0.002719
1012.75	0.005149
1022.39	0.005399
1032.04	0.002239
1041.68	0.001439
1051.33	0.001679
1060.97	0.001749
1070.62	0.002009
1080.26	0.002139
1089.91	0.002599
1099.55	0.005659
1109.2	0.009369
1118.84	0.005649
1128.49	0.003259
1138.13	0.002469
1147.78	0.002069
1157.42	0.002369
1167.07	0.002539
1176.71	0.003369
1186.36	0.003689
1196	0.006389
1205.64	0.006409
1215.29	0.004879
1224.93	0.005859
1234.58	0.005649
1244.22	0.007289
1253.87	0.012239
1263.51	0.023609
1273.16	0.036219
1282.8	0.037159
1292.45	0.035359
1302.09	0.017739
1311.74	0.008279
1321.38	0.005599
1331.03	0.004659
1340.67	0.004569
1350.32	0.005549
1359.96	0.008389
1369.61	0.011069
1379.25	0.009529
1388.9	0.008099
1398.54	0.010219
1408.18	0.010699
1417.83	0.013739
1427.47	0.023659
1437.12	0.044039
1446.76	0.059649
1456.41	0.047739
1466.05	0.032469
1475.7	0.026819
1485.34	0.021839
1494.99	0.014399
1504.63	0.010609
1514.28	0.008269
1523.92	0.006729
1533.57	0.005529
1543.21	0.004899
1552.86	0.005189
1562.5	0.005749
1572.15	0.005059
1581.79	0.004749
1591.44	0.006649
1601.08	0.012309
1610.73	0.019309
1620.37	0.017529
1630.01	0.018349
1639.66	0.018209
1649.3	0.013159
1658.95	0.010559
1668.59	0.012269
1678.24	0.019069
1687.88	0.038389
1697.53	0.072979
1707.17	0.062409
1716.82	0.026209
1726.46	0.012399
1736.11	0.007339
1745.75	0.004639
1755.4	0.003339
1765.04	0.002779
1774.69	0.002459
1784.33	0.002239
1793.98	0.002169
1803.62	0.001709
1813.27	0.001429
1822.91	0.001299
1832.55	0.0009435
1842.2	0.0008657
1851.84	0.0008581
1861.49	0.0007784
1871.13	0.0008546
1880.78	0.000948
1890.42	0.0010637
1900.07	0.001121
1909.71	0.001229
1919.36	0.001229
1929	0.0010846
1938.65	0.0009172
1948.29	0.0008143
1957.94	0.000534
1967.58	0.0004305
1977.23	0.0004561
1986.87	0.0003758
1996.52	0.0003697
2006.16	0.0003595
2015.81	0.000392
2025.45	0.0003943
2035.1	0.0003917
2044.74	0.0003158
2054.38	0.0003179
2064.03	0.0002923
2073.67	0.0003168
2083.32	0.00026313
2092.96	0.00025831
2102.61	0.0002469
2112.25	0.00023745
2121.9	0.00025584
2131.54	0.0002296
2141.19	0.00023249
2150.83	0.0003234
2160.48	0.000185057
2170.12	0.0002873
2179.77	0.0003158
2189.41	0.0002492
2199.06	0.00027677
2208.7	0.0003839
2218.35	0.0003301
2227.99	0.00022092
2237.64	0.00020149
2247.28	0.00026031
2256.92	0.00017257
2266.57	0.00022619
2276.21	0.0003126
2285.86	0.0002809
2295.5	0.00025627
2305.15	0.0002847
2314.79	0.0003018
2324.44	0.00021668
2334.08	0.0003516
2343.73	0.000188107
2353.37	0.0003519
2363.02	0.0002973
2372.66	0.00026706
2382.31	0.0003095
2391.95	0.0003616
2401.6	0.0003032
2411.24	0.000366
2420.89	0.000333
2430.53	0.00022855
2440.18	0.00025001
2449.82	0.0003806
2459.47	0.0003583
2469.11	0.0003643
2478.75	0.0003
2488.4	0.0004493
2498.04	0.0004381
2507.69	0.0004667
2517.33	0.0004068
2526.98	0.0003994
2536.62	0.0004024
2546.27	0.0005461
2555.91	0.0006774
2565.56	0.000737
2575.2	0.0007187
2584.85	0.0004767
2594.49	0.0004443
2604.14	0.0003896
2613.78	0.0002906
2623.43	0.0003988
2633.07	0.000399
2642.72	0.0004315
2652.36	0.0003208
2662.01	0.0004827
2671.65	0.0004374
2681.29	0.0003714
2690.94	0.000487
2700.58	0.0005741
2710.23	0.0006762
2719.87	0.0008305
2729.52	0.0008342
2739.16	0.0008364
2748.81	0.0007007
2758.45	0.0007138
2768.1	0.0007299
2777.74	0.0007861
2787.39	0.0009653
2797.03	0.0010531
2806.68	0.0011699
2816.32	0.0011697
2825.97	0.001239
2835.61	0.001499
2845.26	0.001859
2854.9	0.003109
2864.55	0.006249
2874.19	0.010659
2883.84	0.012189
2893.48	0.011239
2903.12	0.011979
2912.77	0.015519
2922.41	0.015209
2932.06	0.013959
2941.7	0.015799
2951.35	0.024589
2960.99	0.045359
2970.64	0.066249
2980.28	0.037009
2989.93	0.014099
2999.57	0.006179
3009.22	0.003659
3018.86	0.002949
3028.51	0.004139
3038.15	0.006259
3047.8	0.004419
3057.44	0.003479
3067.09	0.003949
3076.73	0.004439
3086.38	0.004489
3096.02	0.004299
3105.67	0.003059
3115.31	0.001979
3124.95	0.001599
3134.6	0.001359
3144.24	0.000953
3153.89	0.0010075
3163.53	0.0010145
3173.18	0.0011678
3182.82	0.001189
3192.47	0.001499
3202.11	0.001499
3211.76	0.001209
3221.4	0.001179
3231.05	0.0010619
3240.69	0.00092
3250.34	0.0008851
3259.98	0.0007113
3269.63	0.0007613
3279.27	0.000806
3288.92	0.0009398
3298.56	0.0010464
3308.21	0.0009045
3317.85	0.0009607
3327.49	0.0009897
3337.14	0.0011593
3346.78	0.001209
3356.43	0.0009847
3366.07	0.0011161
3375.72	0.001289
3385.36	0.001419
3395.01	0.0011724
3404.65	0.0009747
3414.3	0.0010711
3423.94	0.001459
3433.59	0.001899
3443.23	0.002729
3452.88	0.004679
3462.52	0.007369
3472.17	0.009329
3481.81	0.007429
3491.46	0.004219
3501.1	0.002179
3510.75	0.001359
3520.39	0.0009987
3530.04	0.0007076
3539.68	0.0004872
3549.32	0.0007002
3558.97	0.0004844
3568.61	0.0004293
3578.26	0.0003592
3587.9	0.0004114
3597.55	0.0002904
3607.19	0.0004876
3616.84	0.0003664
3626.48	0.0004656
3636.13	0.00019627
3645.77	0.0001946
3655.42	0.0003516
3665.06	0.0003189
3674.71	0.0003104
3684.35	0.00017413
3694	0.0003772
3703.64	0.0003015
3713.29	0.00021328
3722.93	9.96e-05
3732.58	0.000561
3742.22	7.2e-05
3751.86	0.0003365
3761.51	0.0003205
3771.15	0.0003454
3780.8	0.0001575
3790.44	0.0003448
3800.09	0.0003918
3809.73	0.0003804
3819.38	0.0003791
3829.02	0.0004059
3838.67	0.0004437
3848.31	0.0002271
3857.96	0.00023122
3867.6	0.0003555
3877.25	0.00019311
3886.89	0.0003501
3896.54	0.0004794
3906.18	0.0003829
3915.83	0.00023364
3925.47	0.0003162
3935.12	0.0003192
3944.76	0.0002907
3954.41	0.0004276
3964.05	0.0003471
3973.69	0.0003635
3983.34	0.0003206
3992.98	0.0004831
