Infrared Spectrum: 3-Chlorophenoxyacetonitrile
Formula: C 8 H 6 Cl N O
CAS: 43111-32-6
State: gas
Origin: EPA-IR VAPOR PHASE LIBRARY
1/CM	ABSORBANCE
549.8	0.0013741
559.445	0.00049
569.09	0.0012784
578.734	0.0014396
588.379	0.0018506
598.024	0.0012391
607.669	0.00279
617.313	0.00239
626.958	0.00244
636.603	0.00272
646.248	0.0022253
655.893	0.00369
665.537	0.00792
675.182	0.01674
684.827	0.01565
694.472	0.01023
704.116	0.00582
713.761	0.00354
723.406	0.0014412
733.051	0.0021951
742.695	0.00365
752.34	0.0075
761.985	0.01567
771.63	0.02157
781.275	0.01644
790.919	0.00862
800.564	0.00425
810.209	0.00356
819.854	0.00617
829.498	0.00913
839.143	0.01922
848.788	0.03203
858.433	0.03458
868.078	0.02356
877.722	0.0172
887.367	0.01374
897.012	0.01159
906.657	0.01111
916.301	0.00918
925.946	0.0053
935.591	0.00458
945.236	0.00403
954.88	0.00448
964.525	0.00424
974.17	0.00313
983.815	0.00449
993.46	0.00641
1003.1	0.00946
1012.75	0.011
1022.39	0.01861
1032.04	0.03343
1041.68	0.05229
1051.33	0.05742
1060.97	0.04759
1070.62	0.03658
1080.26	0.03133
1089.91	0.02937
1099.55	0.02387
1109.2	0.01198
1118.84	0.0061
1128.49	0.00397
1138.13	0.00274
1147.78	0.00135169
1157.42	0.0033
1167.07	0.00334
1176.71	0.00236
1186.36	0.00618
1196	0.01803
1205.64	0.04282
1215.29	0.06322
1224.93	0.05462
1234.58	0.0331
1244.22	0.02192
1253.87	0.01793
1263.51	0.01777
1273.16	0.02207
1282.8	0.03031
1292.45	0.0294
1302.09	0.0185
1311.74	0.01046
1321.38	0.00764
1331.03	0.00671
1340.67	0.0063
1350.32	0.007
1359.96	0.00913
1369.61	0.01127
1379.25	0.00981
1388.9	0.00679
1398.54	0.00624
1408.18	0.00682
1417.83	0.00987
1427.47	0.01522
1437.12	0.01724
1446.76	0.01851
1456.41	0.02495
1466.05	0.04252
1475.7	0.06729
1485.34	0.05168
1494.99	0.01643
1504.63	0.00728
1514.28	0.00604
1523.92	0.00611
1533.57	0.00676
1543.21	0.00686
1552.86	0.00996
1562.5	0.01686
1572.15	0.03425
1581.79	0.07385
1591.44	0.10292
1601.08	0.05473
1610.73	0.01628
1620.37	0.00792
1630.01	0.00535
1639.66	0.00443
1649.3	0.00366
1658.95	0.00337
1668.59	0.0027
1678.24	0.00284
1687.88	0.00235
1697.53	0.0023188
1707.17	0.00255
1716.82	0.00282
1726.46	0.00286
1736.11	0.00265
1745.75	0.00265
1755.4	0.0022726
1765.04	0.002227
1774.69	0.0022067
1784.33	0.0019693
1793.98	0.0019962
1803.62	0.001836
1813.27	0.0019522
1822.91	0.0022518
1832.55	0.00241
1842.2	0.0025
1851.84	0.00237
1861.49	0.0020934
1871.13	0.0018732
1880.78	0.0020116
1890.42	0.0022747
1900.07	0.00251
1909.71	0.00266
1919.36	0.00293
1929	0.00261
1938.65	0.00236
1948.29	0.0021676
1957.94	0.0019541
1967.58	0.0019965
1977.23	0.0021115
1986.87	0.0020812
1996.52	0.002008
2006.16	0.0022332
2015.81	0.00246
2025.45	0.00235
2035.1	0.00249
2044.74	0.00324
2054.38	0.00374
2064.03	0.00385
2073.67	0.00349
2083.32	0.0032
2092.96	0.00336
2102.61	0.00322
2112.25	0.00326
2121.9	0.00303
2131.54	0.00299
2141.19	0.00295
2150.83	0.00253
2160.48	0.0022219
2170.12	0.0022809
2179.77	0.00233
2189.41	0.0023266
2199.06	0.0022569
2208.7	0.0019435
2218.35	0.00237
2227.99	0.00259
2237.64	0.0037
2247.28	0.00408
2256.92	0.00428
2266.57	0.00311
2276.21	0.00275
2285.86	0.00307
2295.5	0.00248
2305.15	0.00237
2314.79	0.002124
2324.44	0.00312
2334.08	0.00254
2343.73	0.00291
2353.37	0.00245
2363.02	0.00248
2372.66	0.00248
2382.31	0.00234
2391.95	0.00253
2401.6	0.00247
2411.24	0.00244
2420.89	0.00263
2430.53	0.00292
2440.18	0.00272
2449.82	0.00253
2459.47	0.00269
2469.11	0.00297
2478.75	0.00302
2488.4	0.0027
2498.04	0.00275
2507.69	0.00244
2517.33	0.00261
2526.98	0.002328
2536.62	0.00255
2546.27	0.0023134
2555.91	0.0021219
2565.56	0.00236
2575.2	0.00266
2584.85	0.00274
2594.49	0.00287
2604.14	0.0023088
2613.78	0.0026
2623.43	0.0022407
2633.07	0.00244
2642.72	0.00257
2652.36	0.00273
2662.01	0.00264
2671.65	0.0022606
2681.29	0.0031
2690.94	0.00251
2700.58	0.0023119
2710.23	0.00252
2719.87	0.00265
2729.52	0.00246
2739.16	0.00257
2748.81	0.00269
2758.45	0.0021058
2768.1	0.00242
2777.74	0.00282
2787.39	0.0020799
2797.03	0.00291
2806.68	0.00248
2816.32	0.00287
2825.97	0.00287
2835.61	0.00294
2845.26	0.00267
2854.9	0.00322
2864.55	0.00383
2874.19	0.00412
2883.84	0.00409
2893.48	0.00413
2903.12	0.0041
2912.77	0.00461
2922.41	0.00643
2932.06	0.00927
2941.7	0.00908
2951.35	0.00653
2960.99	0.00446
2970.64	0.0043
2980.28	0.00481
2989.93	0.005
2999.57	0.00313
3009.22	0.0029
3018.86	0.00359
3028.51	0.00364
3038.15	0.00345
3047.8	0.00357
3057.44	0.00419
3067.09	0.00503
3076.73	0.00687
3086.38	0.00709
3096.02	0.0062
3105.67	0.00322
3115.31	0.0020785
3124.95	0.0016277
3134.6	0.00243
3144.24	0.002276
3153.89	0.00264
3163.53	0.00274
3173.18	0.0021066
3182.82	0.00319
3192.47	0.00133281
3202.11	0.00235
3211.76	0.0022203
3221.4	0.0022469
3231.05	0.0019516
3240.69	0.0022677
3250.34	0.00318
3259.98	0.0020917
3269.63	0.00235
3279.27	0.0017855
3288.92	0.002222
3298.56	0.0016871
3308.21	0.0020912
3317.85	0.0022061
3327.49	0.001735
3337.14	0.001851
3346.78	0.00135502
3356.43	0.0016281
3366.07	0.0025
3375.72	0.0015683
3385.36	0.0020858
3395.01	0.0015562
3404.65	0.0019401
3414.3	0.0012459
3423.94	0.0019537
3433.59	0.0022329
3443.23	0.0018228
3452.88	0.0022534
3462.52	0.0015176
3472.17	0.0022973
3481.81	0.0020786
3491.46	0.0017155
3501.1	0.001858
3510.75	0.0018265
3520.39	0.0021333
3530.04	0.0015858
3539.68	0.0012337
3549.32	0.0013459
3558.97	0.0018619
3568.61	0.002043
3578.26	0.0014617
3587.9	0.0017267
3597.55	0.001657
3607.19	0.0021951
3616.84	0.00140625
3626.48	0.0020431
3636.13	0.0024
3645.77	0.0020184
3655.42	0.0015323
3665.06	0.0017919
3674.71	0.00235
3684.35	0.0017176
3694	0.001068
3703.64	0.0020261
3713.29	0.0017203
3722.93	0.00133465
3732.58	0.0017284
3742.22	0.0019454
3751.86	0.00132896
3761.51	0.0015993
3771.15	0.0015906
3780.8	0.0015006
3790.44	0.00241
3800.09	0.0021276
3809.73	0.0023095
3819.38	0.0014813
3829.02	0.0024
3838.67	0.0015487
3848.31	0.0014856
3857.96	0.0016836
3867.6	0.002186
3877.25	0.00254
3886.89	0.0022796
3896.54	0.00241
3906.18	0.0019301
3915.83	0.0021247
3925.47	0.00233
3935.12	0.00252
3944.76	0.0023283
3954.41	0.00265
3964.05	0.00249
3973.69	0.00282
3983.34	0.00279
3992.98	0.00252
