Infrared Spectrum: 2-Chlorophenoxyacetonitrile
Formula: C 8 H 6 Cl N O
CAS: 43111-31-5
State: gas
Origin: EPA-IR VAPOR PHASE LIBRARY
1/CM	ABSORBANCE
549.8	0.00518
559.445	0.00564
569.09	0.00302
578.734	0.00473
588.379	0.00295
598.024	0.00399
607.669	0.00462
617.313	0.00421
626.958	0.00367
636.603	0.00282
646.248	0.00298
655.893	0.00438
665.537	0.00933
675.182	0.02102
684.827	0.02343
694.472	0.01544
704.116	0.01057
713.761	0.01573
723.406	0.02289
733.051	0.03065
742.695	0.05612
752.34	0.07279
761.985	0.0483
771.63	0.01867
781.275	0.0089
790.919	0.0109
800.564	0.01223
810.209	0.0095
819.854	0.00745
829.498	0.00631
839.143	0.00553
848.788	0.00484
858.433	0.00437
868.078	0.0046
877.722	0.00605
887.367	0.00816
897.012	0.01182
906.657	0.01431
916.301	0.0121
925.946	0.00965
935.591	0.00899
945.236	0.00764
954.88	0.00641
964.525	0.00605
974.17	0.00578
983.815	0.00679
993.46	0.01055
1003.1	0.01974
1012.75	0.04291
1022.39	0.07116
1032.04	0.08748
1041.68	0.08149
1051.33	0.06077
1060.97	0.0821
1070.62	0.09133
1080.26	0.05535
1089.91	0.0269
1099.55	0.01341
1109.2	0.00929
1118.84	0.01132
1128.49	0.01712
1138.13	0.01565
1147.78	0.00714
1157.42	0.0077
1167.07	0.00641
1176.71	0.00527
1186.36	0.00705
1196	0.01302
1205.64	0.03613
1215.29	0.10569
1224.93	0.147
1234.58	0.10645
1244.22	0.05898
1253.87	0.04636
1263.51	0.05458
1273.16	0.06248
1282.8	0.05363
1292.45	0.0433
1302.09	0.0297
1311.74	0.01479
1321.38	0.00891
1331.03	0.00815
1340.67	0.00859
1350.32	0.01032
1359.96	0.01341
1369.61	0.01635
1379.25	0.01355
1388.9	0.0079
1398.54	0.0059
1408.18	0.00645
1417.83	0.00782
1427.47	0.01144
1437.12	0.02548
1446.76	0.04101
1456.41	0.04107
1466.05	0.06914
1475.7	0.14551
1485.34	0.13298
1494.99	0.04831
1504.63	0.01992
1514.28	0.01104
1523.92	0.00661
1533.57	0.0052
1543.21	0.00494
1552.86	0.0063
1562.5	0.01083
1572.15	0.02187
1581.79	0.0339
1591.44	0.02798
1601.08	0.01231
1610.73	0.00559
1620.37	0.00386
1630.01	0.00337
1639.66	0.00285
1649.3	0.00247
1658.95	0.00266
1668.59	0.00309
1678.24	0.00339
1687.88	0.00344
1697.53	0.00328
1707.17	0.00269
1716.82	0.00251
1726.46	0.00248
1736.11	0.0021976
1745.75	0.0023
1755.4	0.00273
1765.04	0.00311
1774.69	0.00337
1784.33	0.00367
1793.98	0.00354
1803.62	0.00295
1813.27	0.00266
1822.91	0.00297
1832.55	0.00266
1842.2	0.00247
1851.84	0.00231
1861.49	0.00282
1871.13	0.00284
1880.78	0.00304
1890.42	0.00366
1900.07	0.00417
1909.71	0.00383
1919.36	0.00328
1929	0.00344
1938.65	0.00362
1948.29	0.00273
1957.94	0.0018489
1967.58	0.0017795
1977.23	0.0017503
1986.87	0.0021208
1996.52	0.0021383
2006.16	0.00273
2015.81	0.00361
2025.45	0.00416
2035.1	0.00427
2044.74	0.00401
2054.38	0.00367
2064.03	0.00408
2073.67	0.00396
2083.32	0.0035
2092.96	0.00289
2102.61	0.00275
2112.25	0.00242
2121.9	0.002151
2131.54	0.001923
2141.19	0.0016499
2150.83	0.0017986
2160.48	0.0019134
2170.12	0.0017936
2179.77	0.0014323
2189.41	0.0014564
2199.06	0.0014064
2208.7	0.0014475
2218.35	0.0019852
2227.99	0.00256
2237.64	0.00411
2247.28	0.00522
2256.92	0.00443
2266.57	0.00363
2276.21	0.0029
2285.86	0.00252
2295.5	0.002146
2305.15	0.0020928
2314.79	0.0020411
2324.44	0.0018928
2334.08	0.0017392
2343.73	0.0018428
2353.37	0.0014839
2363.02	0.0015596
2372.66	0.001739
2382.31	0.0020405
2391.95	0.0015774
2401.6	0.0015713
2411.24	0.001664
2420.89	0.0018951
2430.53	0.0017223
2440.18	0.0016913
2449.82	0.0024
2459.47	0.0018829
2469.11	0.0019429
2478.75	0.0019472
2488.4	0.0021402
2498.04	0.0018467
2507.69	0.0020683
2517.33	0.0018125
2526.98	0.00242
2536.62	0.00232
2546.27	0.001961
2555.91	0.0022013
2565.56	0.0018917
2575.2	0.0017509
2584.85	0.0017274
2594.49	0.0015375
2604.14	0.0015468
2613.78	0.000815
2623.43	0.0015496
2633.07	0.0013612
2642.72	0.001059
2652.36	0.0013735
2662.01	0.001016
2671.65	0.001066
2681.29	0.0012092
2690.94	0.00125667
2700.58	0.001462
2710.23	0.00133999
2719.87	0.00127948
2729.52	0.0015351
2739.16	0.0014483
2748.81	0.001503
2758.45	0.0012163
2768.1	0.0015203
2777.74	0.00133079
2787.39	0.0013381
2797.03	0.00126861
2806.68	0.0018812
2816.32	0.0016731
2825.97	0.0017309
2835.61	0.0017319
2845.26	0.0018421
2854.9	0.00232
2864.55	0.00343
2874.19	0.00502
2883.84	0.0047
2893.48	0.00433
2903.12	0.00346
2912.77	0.00468
2922.41	0.00683
2932.06	0.01244
2941.7	0.01642
2951.35	0.0114
2960.99	0.00617
2970.64	0.00534
2980.28	0.00639
2989.93	0.00611
2999.57	0.00393
3009.22	0.0031
3018.86	0.00353
3028.51	0.00458
3038.15	0.00446
3047.8	0.00454
3057.44	0.00688
3067.09	0.01273
3076.73	0.02163
3086.38	0.01844
3096.02	0.00851
3105.67	0.0039
3115.31	0.0017664
3124.95	0.0013988
3134.6	0.0014205
3144.24	0.0015014
3153.89	0.0015762
3163.53	0.0016596
3173.18	0.0014265
3182.82	0.0016984
3192.47	0.0011766
3202.11	0.000903
3211.76	0.001033
3221.4	0.00130206
3231.05	0.001104
3240.69	0.0015483
3250.34	0.0014331
3259.98	0.000679
3269.63	0.001045
3279.27	0.0012296
3288.92	0.000866
3298.56	0.000397
3308.21	0.0012034
3317.85	0.00091
3327.49	0.000906
3337.14	0.001115
3346.78	0.000969
3356.43	0.0011444
3366.07	0.000352
3375.72	0.000687
3385.36	0.00102
3395.01	0.0013515
3404.65	0.00128648
3414.3	0.000963
3423.94	0.001069
3433.59	0.000866
3443.23	0.001126
3452.88	0.000477
3462.52	0.0011646
3472.17	0.000544
3481.81	0.000737
3491.46	0.000913
3501.1	0.0014774
3510.75	0.001093
3520.39	0.001053
3530.04	0.000719
3539.68	0.000688
3549.32	0.0011829
3558.97	0.000397
3568.61	0.000648
3578.26	0.0015156
3587.9	0.001059
3597.55	0.000844
3607.19	0.000871
3616.84	0.000889
3626.48	0.001114
3636.13	0.000916
3645.77	0.000733
3655.42	0.000621
3665.06	0.0011593
3674.71	0.001117
3684.35	0.0018151
3694	0.001099
3703.64	0.001002
3713.29	0.000801
3722.93	0.001134
3732.58	0.0011699
3742.22	0.001112
3751.86	0.0014365
3761.51	0.0013888
3771.15	0.001091
3780.8	0.0012231
3790.44	0.0013472
3800.09	0.0014311
3809.73	0.0014633
3819.38	0.000978
3829.02	0.000368
3838.67	0.000692
3848.31	0.000831
3857.96	0.000721
3867.6	0.0013419
3877.25	0.0012036
3886.89	0.00125465
3896.54	0.001094
3906.18	0.001001
3915.83	0.0014618
3925.47	0.000718
3935.12	0.0017419
3944.76	0.000907
3954.41	0.001287
3964.05	0.0016601
3973.69	0.000651
3983.34	0.0017544
3992.98	0.001038
