Infrared Spectrum: Amiral
Formula: C 14 H 16 Cl N 3 O 2
CAS: 43121-43-3
State: gas
Instrument: HP-GC/MS/IRD
Origin: NIST Mass Spectrometry Data Center
1/CM	ABSORBANCE
550	0.00062
562	0.00016
574	0.00025
586	0.001155
598	0.00044
610	0.00033
622	0.00084
634	0.00286
646	0.006185
658	0.002165
670	0.00691
682	0.002235
694	0.00138
706	0.001365
718	0.001435
730	0.001495
742	0.001605
754	0.002065
766	0.004645
778	0.00491
790	0.002115
802	0.00244
814	0.00546
826	0.013335
838	0.006815
850	0.004345
862	0.004565
874	0.00279
886	0.00419
898	0.004555
910	0.00483
922	0.00283
934	0.00294
946	0.004865
958	0.00419
970	0.00566
982	0.01005
994	0.01202
1006	0.01309
1018	0.01039
1030	0.00828
1042	0.012275
1054	0.01348
1066	0.011845
1078	0.009845
1090	0.010995
1102	0.01102
1114	0.004885
1126	0.00686
1138	0.0071
1150	0.00289
1162	0.00634
1174	0.01085
1186	0.01814
1198	0.02272
1210	0.02043
1222	0.03546
1234	0.015195
1246	0.00606
1258	0.00569
1270	0.010935
1282	0.009465
1294	0.003015
1306	0.00212
1318	0.002355
1330	0.00379
1342	0.00538
1354	0.0045
1366	0.005555
1378	0.004695
1390	0.00304
1402	0.004715
1414	0.004135
1426	0.00492
1438	0.003145
1450	0.00337
1462	0.00541
1474	0.013685
1486	0.04432
1498	0.029295
1510	0.00959
1522	0.003945
1534	0.002675
1546	0.00131
1558	0.00103
1570	0.00129
1582	0.00285
1594	0.002915
1606	0.00112
1618	0.00069
1630	0.00068
1642	0.000535
1654	0.000455
1666	0.000465
1678	0.000575
1690	0.00091
1702	0.001725
1714	0.00347
1726	0.007255
1738	0.01411
1750	0.006675
1762	0.00302
1774	0.001575
1786	0.000575
1798	0.000345
1810	0.000285
1822	0.0002
1834	0.000195
1846	0.00028
1858	0.00034
1870	0.000505
1882	0.00044
1894	0.000195
1906	0.000105
1918	5e-05
1930	3.5e-05
1942	3.5e-05
1954	7.5e-05
1966	8e-05
1978	9e-05
1990	0.000105
2002	0.000105
2014	0.000135
2026	0.000205
2038	0.000245
2050	0.000235
2062	0.000195
2074	0.00018
2086	0.000145
2098	0.00014
2110	0.00015
2122	0.00013
2134	0.00012
2146	0.000105
2158	5e-05
2170	2.5e-05
2182	2e-05
2194	4.5e-05
2206	2.5e-05
2218	3.5e-05
2230	5.5e-05
2242	5e-05
2254	5.5e-05
2266	4.5e-05
2278	5.5e-05
2290	0.000105
2302	0.00012
2314	0.000155
2326	0.00017
2338	0.00013
2350	7.5e-05
2362	0.00013
2374	0.00019
2386	0.00021
2398	0.00028
2410	0.000225
2422	0.000245
2434	0.000225
2446	0.000165
2458	0.00016
2470	0.000165
2482	0.000105
2494	0.000145
2506	0.00011
2518	0.00013
2530	0.00015
2542	0.00021
2554	0.00026
2566	0.000215
2578	0.000265
2590	0.000265
2602	0.000245
2614	0.00032
2626	0.0003
2638	0.000275
2650	0.000245
2662	0.000185
2674	0.000215
2686	0.00028
2698	0.00029
2710	0.000315
2722	0.00027
2734	0.000295
2746	0.000285
2758	0.000285
2770	0.00027
2782	0.00032
2794	0.000425
2806	0.000455
2818	0.00053
2830	0.00061
2842	0.00081
2854	0.00101
2866	0.00159
2878	0.002815
2890	0.003065
2902	0.00297
2914	0.003735
2926	0.004225
2938	0.00536
2950	0.006425
2962	0.009415
2974	0.013455
2986	0.01016
2998	0.00471
3010	0.00201
3022	0.00112
3034	0.00089
3046	0.000965
3058	0.00068
3070	0.00071
3082	0.000785
3094	0.000855
3106	0.000745
3118	0.000615
3130	0.000805
3142	0.00091
3154	0.00076
3166	0.000425
3178	0.00039
3190	0.000375
3202	0.00033
3214	0.000295
3226	0.00026
3238	0.000225
3250	0.000135
3262	0.00019
3274	0.0002
3286	0.000105
3298	0.000155
3310	0.000145
3322	0.0001
3334	0.00014
3346	0.000245
3358	0.00014
3370	0.000165
3382	0.00012
3394	0.00015
3406	0.0001
3418	0.00013
3430	0.00017
3442	0.000275
3454	0.000385
3466	0.00032
3478	0.00022
3490	0.00019
3502	0.000165
3514	0.0001
3526	0.000105
3538	0.00011
3550	0
3562	8.5e-05
3574	0.0002
3586	9e-05
3598	0.00014
3610	0.000135
3622	0.00022
3634	0.000155
3646	0.000135
3658	0.000125
3670	0.000185
3682	0.000165
3694	9.5e-05
3706	0.000105
3718	0.000205
3730	0.00023
3742	0.000185
3754	0.0002
3766	0.000165
3778	0.000135
3790	0.000225
3802	0.000255
3814	0.000205
3826	0.000285
3838	0.00017
