Infrared Spectrum: Hexanehydroxamic acid
Formula: C 6 H 13 N O 2
CAS: 4312-93-0
State: gas
Origin: EPA-IR VAPOR PHASE LIBRARY
1/CM	ABSORBANCE
549.8	0.0027
559.445	0.00248
569.09	0.00277
578.734	0.0027
588.379	0.00263
598.024	0.00304
607.669	0.00299
617.313	0.00311
626.958	0.00295
636.603	0.00267
646.248	0.00264
655.893	0.00276
665.537	0.00225
675.182	0.00224
684.827	0.00213
694.472	0.00224
704.116	0.00219
713.761	0.00209
723.406	0.00226
733.051	0.00241
742.695	0.00225
752.34	0.00221
761.985	0.00189
771.63	0.00162
781.275	0.00156
790.919	0.00132
800.564	0.00137
810.209	0.00113
819.854	0.00117
829.498	0.00112
839.143	0.00134
848.788	0.00113
858.433	0.00127
868.078	0.00104
877.722	0.00108
887.367	0.0013
897.012	0.00153
906.657	0.00158
916.301	0.00154
925.946	0.00166
935.591	0.00168
945.236	0.00186
954.88	0.00201
964.525	0.00233
974.17	0.00256
983.815	0.00267
993.46	0.00275
1003.1	0.00332
1012.75	0.0036
1022.39	0.00421
1032.04	0.00466
1041.68	0.00473
1051.33	0.00292
1060.97	0.00186
1070.62	0.00165
1080.26	0.00157
1089.91	0.0022
1099.55	0.00132
1109.2	0.00181
1118.84	0.0011
1128.49	0.00129
1138.13	0.00109
1147.78	0.00113
1157.42	0.00118
1167.07	0.00145
1176.71	0.00158
1186.36	0.00209
1196	0.00176
1205.64	0.00198
1215.29	0.00232
1224.93	0.00255
1234.58	0.00232
1244.22	0.00224
1253.87	0.00201
1263.51	0.00209
1273.16	0.00223
1282.8	0.00241
1292.45	0.00253
1302.09	0.00253
1311.74	0.00276
1321.38	0.00323
1331.03	0.0042
1340.67	0.00517
1350.32	0.00618
1359.96	0.00786
1369.61	0.01067
1379.25	0.01548
1388.9	0.01948
1398.54	0.01635
1408.18	0.00931
1417.83	0.00558
1427.47	0.00439
1437.12	0.00433
1446.76	0.00424
1456.41	0.00464
1466.05	0.00457
1475.7	0.00417
1485.34	0.00383
1494.99	0.00375
1504.63	0.00357
1514.28	0.00293
1523.92	0.00213
1533.57	0.00163
1543.21	0.00136
1552.86	0.0011
1562.5	0.0009483
1572.15	0.0009418
1581.79	0.0009699
1591.44	0.0009972
1601.08	0.001
1610.73	0.00103
1620.37	0.0012
1630.01	0.00153
1639.66	0.002
1649.3	0.00281
1658.95	0.00415
1668.59	0.00611
1678.24	0.00911
1687.88	0.01264
1697.53	0.01515
1707.17	0.0148
1716.82	0.01248
1726.46	0.00942
1736.11	0.00666
1745.75	0.00418
1755.4	0.00262
1765.04	0.0019
1774.69	0.00152
1784.33	0.00125
1793.98	0.0009772
1803.62	0.0008123
1813.27	0.0006358
1822.91	0.0005625
1832.55	0.00055
1842.2	0.0005399
1851.84	0.0004599
1861.49	0.0004152
1871.13	0.0003376
1880.78	0.0003747
1890.42	0.0004022
1900.07	0.0003224
1909.71	0.0004127
1919.36	0.0003612
1929	0.0003084
1938.65	0.000298
1948.29	0.0003573
1957.94	0.0003474
1967.58	0.0003943
1977.23	0.0003875
1986.87	0.000328
1996.52	0.0003157
2006.16	0.0003925
2015.81	0.0003253
2025.45	0.0003454
2035.1	0.0003365
2044.74	0.0002929
2054.38	0.0003553
2064.03	0.0003261
2073.67	0.0003434
2083.32	0.0003684
2092.96	0.00039
2102.61	0.0003813
2112.25	0.0003791
2121.9	0.0004065
2131.54	0.0004357
2141.19	0.0004501
2150.83	0.0005455
2160.48	0.0005196
2170.12	0.0006352
2179.77	0.0007049
2189.41	0.0008564
2199.06	0.00104
2208.7	0.00136
2218.35	0.00179
2227.99	0.00247
2237.64	0.00349
2247.28	0.00502
2256.92	0.0071
2266.57	0.00877
2276.21	0.00883
2285.86	0.00759
2295.5	0.00543
2305.15	0.00356
2314.79	0.0025
2324.44	0.00192
2334.08	0.0016
2343.73	0.00138
2353.37	0.00124
2363.02	0.00129
2372.66	0.00105
2382.31	0.0008098
2391.95	0.0005693
2401.6	0.0005883
2411.24	0.0005195
2420.89	0.0004526
2430.53	0.0004665
2440.18	0.0003913
2449.82	0.0004022
2459.47	0.0003378
2469.11	0.0003817
2478.75	0.0003512
2488.4	0.0004216
2498.04	0.0003229
2507.69	0.000278
2517.33	0.0002358
2526.98	0.000299
2536.62	0.0003028
2546.27	0.0003835
2555.91	0.0004297
2565.56	0.0003317
2575.2	0.0004058
2584.85	0.0004138
2594.49	0.0003606
2604.14	0.0003788
2613.78	0.0003854
2623.43	0.0003403
2633.07	0.0004537
2642.72	0.0004191
2652.36	0.0004976
2662.01	0.0005225
2671.65	0.0004954
2681.29	0.0005431
2690.94	0.0004945
2700.58	0.0005523
2710.23	0.0004257
2719.87	0.0004795
2729.52	0.0006091
2739.16	0.0007415
2748.81	0.0006898
2758.45	0.0005987
2768.1	0.0006719
2777.74	0.0006714
2787.39	0.0007163
2797.03	0.0008264
2806.68	0.000912
2816.32	0.00119
2825.97	0.0015
2835.61	0.00197
2845.26	0.00291
2854.9	0.00451
2864.55	0.0065
2874.19	0.00783
2883.84	0.00798
2893.48	0.0073
2903.12	0.0072
2912.77	0.00927
2922.41	0.01279
2932.06	0.01674
2941.7	0.01835
2951.35	0.01731
2960.99	0.01645
2970.64	0.01545
2980.28	0.01023
2989.93	0.00517
2999.57	0.00295
3009.22	0.00197
3018.86	0.00155
3028.51	0.00132
3038.15	0.00118
3047.8	0.0009925
3057.44	0.0009439
3067.09	0.0009136
3076.73	0.0007279
3086.38	0.0007078
3096.02	0.0007662
3105.67	0.0007619
3115.31	0.0007285
3124.95	0.0007002
3134.6	0.0006823
3144.24	0.0006878
3153.89	0.0006299
3163.53	0.0005868
3173.18	0.0006472
3182.82	0.0007018
3192.47	0.0004465
3202.11	0.000591
3211.76	0.0005239
3221.4	0.0004895
3231.05	0.0004949
3240.69	0.0005498
3250.34	0.0005868
3259.98	0.0003726
3269.63	0.0006423
3279.27	0.0004586
3288.92	0.0005967
3298.56	0.00075
3308.21	0.0009228
3317.85	0.00113
3327.49	0.00174
3337.14	0.002
3346.78	0.0021
3356.43	0.00202
3366.07	0.00202
3375.72	0.00179
3385.36	0.00195
3395.01	0.00201
3404.65	0.00174
3414.3	0.00195
3423.94	0.00268
3433.59	0.00355
3443.23	0.00411
3452.88	0.00413
3462.52	0.00323
3472.17	0.00224
3481.81	0.00169
3491.46	0.00132
3501.1	0.00142
3510.75	0.00143
3520.39	0.0012
3530.04	0.0009212
3539.68	0.0007211
3549.32	0.0005414
3558.97	0.0005712
3568.61	0.0006795
3578.26	0.0005297
3587.9	0.0007676
3597.55	0.0009232
3607.19	0.0007356
3616.84	0.0007028
3626.48	0.0004175
3636.13	0.0008797
3645.77	0.0008938
3655.42	0.00118
3665.06	0.00144
3674.71	0.00132
3684.35	0.0009017
3694	0.0005956
3703.64	0.0004539
3713.29	0.0004206
3722.93	0.0004841
3732.58	0.0004438
3742.22	0.0006365
3751.86	0.0005363
3761.51	0.0003756
3771.15	0.0002368
3780.8	0.0003137
3790.44	0.0005075
3800.09	0.0003975
3809.73	0.0003177
3819.38	0.0004331
3829.02	0.000342
3838.67	0.0003541
3848.31	0.0004135
3857.96	0.0004642
3867.6	0.0004617
3877.25	0.0003951
3886.89	0.0004925
3896.54	0.0003433
3906.18	0.0002406
3915.83	0.0003425
3925.47	0.0004013
3935.12	0.0002609
3944.76	0.0002795
3954.41	0.0003567
3964.05	0.0003749
3973.69	0.0003636
3983.34	0.0003293
3992.98	0.0002616
