Infrared Spectrum: Pyrimidine, 4,5-diamino-6-chloro-
Formula: C4 H5 Cl N4
CAS: 4316-98-7
State: SOLID (0.8 mg / 650 mg KBr DISC)
Class: COBLENTZ III
Instrument: PERKIN-ELMER 21 (GRATING)
Instrument parameters: FILTER CHANGE ABOUT 1070 CM^-^1
Resolution: 2
Origin: SOUTHERN RESEARCH INSTITUTE
1/CM	TRANSMITTANCE
636.488	0.6615
644.517	0.6491
652.546	0.6359
660.575	0.6044
668.604	0.5359
676.634	0.4931
684.663	0.4777
692.692	0.5641
700.721	0.6144
708.75	0.625
716.779	0.6787
724.808	0.7182
732.837	0.7346
740.866	0.7383
748.896	0.7295
756.925	0.7037
764.954	0.568
772.983	0.7565
781.012	0.7598
789.041	0.7545
797.07	0.7442
805.099	0.7269
813.128	0.7035
821.157	0.6593
829.187	0.5097
837.216	0.4752
845.245	0.6346
853.274	0.7056
861.303	0.7297
869.332	0.7322
877.361	0.7288
885.39	0.722
893.419	0.7101
901.449	0.6853
909.478	0.6454
917.507	0.553
925.536	0.4432
933.565	0.436
941.594	0.5939
949.623	0.7242
957.652	0.7741
965.681	0.7812
973.711	0.7793
981.74	0.7743
989.769	0.7685
997.798	0.7625
1005.83	0.7563
1013.86	0.7481
1021.89	0.7397
1029.91	0.7313
1037.94	0.7209
1045.97	0.7092
1054	0.6959
1062.03	0.6817
1070.06	0.6811
1078.09	0.6813
1086.12	0.6797
1094.15	0.6738
1102.18	0.6644
1110.21	0.6449
1118.23	0.6089
1126.26	0.5564
1134.29	0.4946
1142.32	0.5022
1150.35	0.6029
1158.38	0.6653
1166.41	0.6783
1174.44	0.6776
1182.47	0.6648
1190.5	0.6281
1198.53	0.5847
1206.55	0.5426
1214.58	0.6346
1222.61	0.7148
1230.64	0.7062
1238.67	0.6932
1246.7	0.6806
1254.73	0.6649
1262.76	0.6295
1270.79	0.5887
1278.82	0.5619
1286.85	0.5624
1294.87	0.49
1302.9	0.4001
1310.93	0.6387
1318.96	0.6381
1326.99	0.5838
1335.02	0.4617
1343.05	0.3456
1351.08	0.6788
1359.11	0.6612
1367.14	0.6346
1375.17	0.5944
1383.19	0.546
1391.22	0.5558
1399.25	0.5376
1407.28	0.4753
1415.31	0.298
1423.34	0.2537
1431.37	0.4212
1439.4	0.6205
1447.43	0.6111
1455.46	0.564
1463.49	0.5247
1471.52	0.4678
1479.54	0.4186
1487.57	0.3586
1495.6	0.3026
1503.63	0.2977
1511.66	0.4494
1519.69	0.4401
1527.72	0.314
1535.75	0.1441
1543.78	0.1153
1551.81	0.3081
1559.84	0.2593
1567.86	0.1662
1575.89	0.283
1583.92	0.6118
1591.95	0.7156
1599.98	0.6881
1608.01	0.5719
1616.04	0.3907
1624.07	0.3001
1632.1	0.3267
1640.13	0.3981
1648.16	0.3657
1656.18	0.275
1664.21	0.2222
1672.24	0.3647
1680.27	0.58
1688.3	0.6922
1696.33	0.8228
1704.36	0.8842
1712.39	0.9202
1720.42	0.9311
1728.45	0.935
1736.48	0.936
1744.5	0.9346
1752.53	0.9309
1760.56	0.9296
1768.59	0.9288
1776.62	0.923
1784.65	0.9148
1792.68	0.9073
1800.71	0.9001
1808.74	0.8918
1816.77	0.8826
1824.8	0.8719
1832.83	0.8602
1840.85	0.8436
1848.88	0.8486
1856.91	0.8662
1864.94	0.8691
1872.97	0.8656
1881	0.8615
1889.03	0.859
1897.06	0.8562
1905.09	0.8527
1913.12	0.8488
1921.15	0.8448
1929.17	0.8406
1937.2	0.8367
1945.23	0.8331
1953.26	0.8296
1961.29	0.8264
1969.32	0.8232
1977.35	0.82
1985.38	0.8168
1993.41	0.8134
2001.44	0.81
2009.47	0.8068
2017.49	0.8035
2025.52	0.8002
2033.55	0.7971
2041.58	0.794
2049.61	0.7909
2057.64	0.7878
2065.67	0.7848
2073.7	0.7817
2081.73	0.7795
2089.76	0.7773
2097.79	0.7751
2105.81	0.7722
2113.84	0.7689
2121.87	0.7643
2129.9	0.7673
2137.93	0.7689
2145.96	0.7673
2153.99	0.7647
2162.02	0.7623
2170.05	0.7602
2178.08	0.7583
2186.11	0.7563
2194.13	0.7545
2202.16	0.7524
2210.19	0.7503
2218.22	0.749
2226.25	0.7472
2234.28	0.7453
2242.31	0.7434
2250.34	0.7416
2258.37	0.7399
2266.4	0.7382
2274.43	0.7365
2282.46	0.7297
2290.48	0.7237
2298.51	0.7197
2306.54	0.7157
2314.57	0.7127
2322.6	0.7103
2330.63	0.7096
2338.66	0.7095
2346.69	0.7102
2354.72	0.711
2362.75	0.7119
2370.78	0.7119
2378.8	0.7099
2386.83	0.7071
2394.86	0.7047
2402.89	0.7022
2410.92	0.6988
2418.95	0.6953
2426.98	0.692
2435.01	0.6892
2443.04	0.6864
2451.07	0.6835
2459.1	0.6818
2467.12	0.6809
2475.15	0.68
2483.18	0.679
2491.21	0.678
2499.24	0.6769
2507.27	0.6732
2515.3	0.6693
2523.33	0.6651
2531.36	0.6612
2539.39	0.6576
2547.42	0.6542
2555.44	0.651
2563.47	0.6485
2571.5	0.6465
2579.53	0.6449
2587.56	0.6436
2595.59	0.6407
2603.62	0.6372
2611.65	0.6326
2619.68	0.6267
2627.71	0.6202
2635.74	0.6138
2643.76	0.6075
2651.79	0.6013
2659.82	0.5952
2667.85	0.5894
2675.88	0.5841
2683.91	0.5793
2691.94	0.5778
2699.97	0.5784
2708	0.5815
2716.03	0.5904
2724.06	0.5984
2732.09	0.6008
2740.11	0.5975
2748.14	0.5933
2756.17	0.5881
2764.2	0.5833
2772.23	0.5783
2780.26	0.573
2788.29	0.5677
2796.32	0.5619
2804.35	0.5561
2812.38	0.5504
2820.41	0.545
2828.43	0.5396
2836.46	0.5339
2844.49	0.5276
2852.52	0.5214
2860.55	0.5129
2868.58	0.5041
2876.61	0.4951
2884.64	0.4859
2892.67	0.4755
2900.7	0.4648
2908.73	0.4595
2916.75	0.4587
2924.78	0.4598
2932.81	0.4593
2940.84	0.4561
2948.87	0.4468
2956.9	0.4358
2964.93	0.4238
2972.96	0.4118
2980.99	0.4011
2989.02	0.3919
2997.05	0.3851
3005.07	0.3794
3013.1	0.3711
3021.13	0.3606
3029.16	0.3517
3037.19	0.3417
3045.22	0.3289
3053.25	0.3118
3061.28	0.2822
3069.31	0.2417
3077.34	0.2142
3085.37	0.1932
3093.39	0.1805
3101.42	0.1799
3109.45	0.192
3117.48	0.2329
3125.51	0.2703
3133.54	0.2956
3141.57	0.314
3149.6	0.3226
3157.63	0.3252
3165.66	0.3266
3173.69	0.3307
3181.72	0.3434
3189.74	0.3532
3197.77	0.3532
3205.8	0.3485
3213.83	0.34
3221.86	0.3243
3229.89	0.3055
3237.92	0.2953
3245.95	0.2929
3253.98	0.2914
3262.01	0.2841
3270.04	0.2722
3278.06	0.265
3286.09	0.2654
3294.12	0.2695
3302.15	0.2763
3310.18	0.2848
3318.21	0.2896
3326.24	0.2887
3334.27	0.2885
3342.3	0.2908
3350.33	0.2994
3358.36	0.3019
3366.38	0.3049
3374.41	0.3106
3382.44	0.3237
3390.47	0.3644
3398.5	0.4598
3406.53	0.5152
3414.56	0.5565
3422.59	0.6004
3430.62	0.6241
3438.65	0.6382
3446.68	0.6498
3454.7	0.6576
3462.73	0.6638
3470.76	0.6688
3478.79	0.6726
3486.82	0.6762
3494.85	0.6797
3502.88	0.6824
3510.91	0.685
3518.94	0.6878
3526.97	0.6905
3535	0.6933
3543.02	0.696
3551.05	0.6988
3559.08	0.7015
3567.11	0.7063
3575.14	0.7129
3583.17	0.714
3591.2	0.7144
3599.23	0.7134
3607.26	0.712
3615.29	0.7104
3623.32	0.7088
3631.35	0.7069
3639.37	0.7051
3647.4	0.7035
3655.43	0.7021
3663.46	0.7009
3671.49	0.6995
3679.52	0.6973
3687.55	0.6952
3695.58	0.6931
3703.61	0.691
3711.64	0.6898
3719.67	0.6887
3727.69	0.688
3735.72	0.6879
3743.75	0.6861
3751.78	0.6832
3759.81	0.6798
3767.84	0.675
3775.87	0.6722
3783.9	0.6708
3791.93	0.6699
3799.96	0.6679
3807.99	0.6666
