Infrared Spectrum: Pyrimidine, 4-amino-6-chloro-5-nitro-,
Formula: C4 H3 Cl N4 O2
CAS: 4316-94-3
State: SOLID (0.8 mg / 650 mg KBr DISC)
Class: COBLENTZ III
Instrument: PERKIN-ELMER 21 (GRATING)
Instrument parameters: FILTER CHANGE ABOUT 1020 CM^-^1
Resolution: 2
Origin: SOUTHERN RESEARCH INSTITUTE
1/CM	TRANSMITTANCE
603.668	0.4778
611.692	0.4887
619.716	0.4964
627.74	0.5013
635.764	0.5048
643.788	0.5239
651.811	0.5568
659.835	0.5749
667.859	0.5878
675.883	0.5988
683.907	0.6015
691.931	0.6047
699.955	0.6093
707.979	0.613
716.003	0.6202
724.027	0.6304
732.051	0.6236
740.075	0.596
748.098	0.5795
756.122	0.5733
764.146	0.5686
772.17	0.5284
780.194	0.4334
788.218	0.4324
796.242	0.6227
804.266	0.7111
812.29	0.7008
820.314	0.6841
828.338	0.6657
836.361	0.6442
844.385	0.5881
852.409	0.4508
860.433	0.2646
868.457	0.3172
876.481	0.6805
884.505	0.7712
892.529	0.7693
900.553	0.764
908.577	0.7509
916.601	0.7241
924.624	0.6908
932.648	0.6658
940.672	0.6319
948.696	0.5761
956.72	0.4639
964.744	0.3884
972.768	0.5345
980.792	0.6451
988.816	0.6987
996.84	0.6983
1004.86	0.6686
1012.89	0.6175
1020.91	0.563
1028.94	0.5084
1036.96	0.4537
1044.98	0.4369
1053.01	0.681
1061.03	0.7104
1069.05	0.7009
1077.08	0.6742
1085.1	0.657
1093.13	0.6405
1101.15	0.6232
1109.17	0.607
1117.2	0.5908
1125.22	0.574
1133.25	0.5588
1141.27	0.5455
1149.29	0.5321
1157.32	0.5153
1165.34	0.4888
1173.37	0.4608
1181.39	0.4328
1189.41	0.402
1197.44	0.3907
1205.46	0.3747
1213.49	0.3325
1221.51	0.277
1229.53	0.229
1237.56	0.2129
1245.58	0.2632
1253.6	0.4093
1261.63	0.4869
1269.65	0.5187
1277.68	0.5233
1285.7	0.5157
1293.72	0.5004
1301.75	0.4796
1309.77	0.4262
1317.8	0.3672
1325.82	0.3081
1333.84	0.2493
1341.87	0.222
1349.89	0.2744
1357.92	0.4355
1365.94	0.5457
1373.96	0.5289
1381.99	0.434
1390.01	0.3392
1398.04	0.3113
1406.06	0.4599
1414.08	0.5582
1422.11	0.5498
1430.13	0.5222
1438.15	0.4876
1446.18	0.4538
1454.2	0.4102
1462.23	0.3634
1470.25	0.3061
1478.27	0.249
1486.3	0.2255
1494.32	0.2573
1502.35	0.2279
1510.37	0.1807
1518.39	0.1313
1526.42	0.1267
1534.44	0.2358
1542.47	0.3198
1550.49	0.323
1558.51	0.3058
1566.54	0.2403
1574.56	0.1083
1582.59	0.1057
1590.61	0.1883
1598.63	0.3104
1606.66	0.3364
1614.68	0.308
1622.7	0.256
1630.73	0.2042
1638.75	0.1824
1646.78	0.2058
1654.8	0.2812
1662.82	0.4005
1670.85	0.5245
1678.87	0.584
1686.9	0.6586
1694.92	0.6972
1702.94	0.7252
1710.97	0.766
1718.99	0.8022
1727.02	0.829
1735.04	0.861
1743.06	0.8739
1751.09	0.8872
1759.11	0.8933
1767.14	0.9035
1775.16	0.9064
1783.18	0.9071
1791.21	0.9066
1799.23	0.9055
1807.25	0.9045
1815.28	0.9055
1823.3	0.9077
1831.33	0.9094
1839.35	0.9081
1847.37	0.9046
1855.4	0.9006
1863.42	0.8993
1871.45	0.899
1879.47	0.8932
1887.49	0.8899
1895.52	0.8865
1903.54	0.8837
1911.57	0.881
1919.59	0.8784
1927.61	0.8751
1935.64	0.8715
1943.66	0.8667
1951.69	0.8594
1959.71	0.8518
1967.73	0.8511
1975.76	0.8507
1983.78	0.8511
1991.8	0.8518
1999.83	0.8506
2007.85	0.8446
2015.88	0.8386
2023.9	0.8387
2031.92	0.8399
2039.95	0.8364
2047.97	0.8276
2056	0.8196
2064.02	0.8138
2072.04	0.81
2080.07	0.8065
2088.09	0.804
2096.12	0.8016
2104.14	0.7995
2112.16	0.7973
2120.19	0.795
2128.21	0.7928
2136.24	0.7907
2144.26	0.7875
2152.28	0.7851
2160.31	0.7844
2168.33	0.7838
2176.35	0.7834
2184.38	0.7834
2192.4	0.78
2200.43	0.7761
2208.45	0.7716
2216.47	0.7682
2224.5	0.7655
2232.52	0.7633
2240.55	0.7618
2248.57	0.7614
2256.59	0.7621
2264.62	0.7626
2272.64	0.7629
2280.67	0.7622
2288.69	0.7592
2296.71	0.7554
2304.74	0.7521
2312.76	0.7494
2320.79	0.7469
2328.81	0.7445
2336.83	0.7421
2344.86	0.7398
2352.88	0.7375
2360.9	0.7347
2368.93	0.7289
2376.95	0.7218
2384.98	0.7149
2393	0.7082
2401.02	0.7019
2409.05	0.6958
2417.07	0.6893
2425.1	0.686
2433.12	0.6859
2441.14	0.6868
2449.17	0.6892
2457.19	0.6949
2465.22	0.6991
2473.24	0.6958
2481.26	0.6907
2489.29	0.6864
2497.31	0.6826
2505.34	0.6793
2513.36	0.6761
2521.38	0.6733
2529.41	0.6705
2537.43	0.6678
2545.45	0.6654
2553.48	0.663
2561.5	0.6617
2569.53	0.6604
2577.55	0.6581
2585.57	0.6552
2593.6	0.6507
2601.62	0.6453
2609.65	0.6431
2617.67	0.6422
2625.69	0.6392
2633.72	0.6314
2641.74	0.6229
2649.77	0.614
2657.79	0.6069
2665.81	0.6041
2673.84	0.6046
2681.86	0.6061
2689.89	0.6078
2697.91	0.6081
2705.93	0.6036
2713.96	0.5993
2721.98	0.5952
2730	0.5912
2738.03	0.5895
2746.05	0.5889
2754.08	0.59
2762.1	0.5928
2770.12	0.5948
2778.15	0.5963
2786.17	0.5942
2794.2	0.587
2802.22	0.5782
2810.24	0.5676
2818.27	0.5614
2826.29	0.5553
2834.32	0.5449
2842.34	0.5407
2850.36	0.5386
2858.39	0.5363
2866.41	0.5335
2874.44	0.5303
2882.46	0.5259
2890.48	0.5191
2898.51	0.5125
2906.53	0.5055
2914.55	0.4992
2922.58	0.4935
2930.6	0.4893
2938.63	0.485
2946.65	0.477
2954.67	0.4671
2962.7	0.4564
2970.72	0.4469
2978.75	0.438
2986.77	0.4326
2994.79	0.4328
3002.82	0.4173
3010.84	0.4114
3018.87	0.4025
3026.89	0.3933
3034.91	0.3839
3042.94	0.3742
3050.96	0.3647
3058.99	0.3554
3067.01	0.345
3075.03	0.3352
3083.06	0.3272
3091.08	0.3189
3099.1	0.3089
3107.13	0.2993
3115.15	0.2911
3123.18	0.2819
3131.2	0.2696
3139.22	0.2555
3147.25	0.2513
3155.27	0.2512
3163.3	0.2583
3171.32	0.2711
3179.34	0.2909
3187.37	0.3147
3195.39	0.3338
3203.42	0.3527
3211.44	0.3623
3219.46	0.3699
3227.49	0.3748
3235.51	0.3771
3243.54	0.3777
3251.56	0.3745
3259.58	0.3681
3267.61	0.3563
3275.63	0.3391
3283.65	0.3192
3291.68	0.3052
3299.7	0.2989
3307.73	0.3
3315.75	0.3024
3323.77	0.3093
3331.8	0.3183
3339.82	0.3226
3347.85	0.3241
3355.87	0.325
3363.89	0.3284
3371.92	0.3339
3379.94	0.3463
3387.97	0.3726
3395.99	0.3973
3404.01	0.4097
3412.04	0.426
3420.06	0.4522
3428.09	0.474
3436.11	0.4909
3444.13	0.5047
3452.16	0.5173
3460.18	0.5266
3468.2	0.5354
3476.23	0.5434
3484.25	0.5517
3492.28	0.5607
3500.3	0.5683
3508.32	0.5769
3516.35	0.5847
3524.37	0.5895
3532.4	0.5937
3540.42	0.5989
3548.44	0.6076
3556.47	0.6119
3564.49	0.6166
3572.52	0.6245
3580.54	0.6312
3588.56	0.6353
3596.59	0.643
3604.61	0.6483
3612.64	0.6535
3620.66	0.6634
3628.68	0.6659
3636.71	0.6724
3644.73	0.679
3652.75	0.6808
3660.78	0.6811
3668.8	0.6814
3676.83	0.6813
3684.85	0.681
3692.87	0.6806
3700.9	0.68
3708.92	0.6793
3716.95	0.6782
3724.97	0.6764
3732.99	0.6746
3741.02	0.6741
3749.04	0.6752
3757.07	0.675
3765.09	0.6739
3773.11	0.673
3781.14	0.6722
3789.16	0.6758
3797.19	0.6739
3805.21	0.6719
