Infrared Spectrum: 3,3,5-Trimethyl-1-hexene
Formula: C 9 H 18
CAS: 4316-65-8
State: gas
Instrument: HP-GC/MS/IRD
Origin: NIST Mass Spectrometry Data Center
1/CM	ABSORBANCE
550	0.0003794
562	3.29e-05
574	8.05e-05
586	0.000168
598	0.0003241
610	0.0001932
622	0.0002485
634	0.0002968
646	0.0003661
658	0.0002646
670	0.0005299
682	0.0004774
694	0.0003402
706	0.0003157
718	0.0003136
730	0.0003213
742	0.0004074
754	0.0002877
766	0.0003752
778	0.0003556
790	0.000343
802	0.0003129
814	0.0003402
826	0.0002478
838	0.0003374
850	0.0003696
862	0.0004277
874	0.0004781
886	0.0005579
898	0.0009422
910	0.0014742
922	0.0012047
934	0.0007441
946	0.0006069
958	0.0006104
970	0.0005831
982	0.0007448
994	0.0009303
1006	0.0007756
1018	0.0005222
1030	0.00049
1042	0.0004333
1054	0.0003955
1066	0.0003857
1078	0.0003262
1090	0.0003521
1102	0.0003444
1114	0.0003948
1126	0.00035
1138	0.0003815
1150	0.0003115
1162	0.0002674
1174	0.0002905
1186	0.0003815
1198	0.0004536
1210	0.0004116
1222	0.0003997
1234	0.0004452
1246	0.0005159
1258	0.0004116
1270	0.0003794
1282	0.0003689
1294	0.0003444
1306	0.0003234
1318	0.0003157
1330	0.0003465
1342	0.0004459
1354	0.0006489
1366	0.0010451
1378	0.0009947
1390	0.0007308
1402	0.0006258
1414	0.0005397
1426	0.0004991
1438	0.000511
1450	0.0006776
1462	0.0009793
1474	0.0010969
1486	0.0007952
1498	0.0004543
1510	0.0002744
1522	0.0002807
1534	0.0002394
1546	0.0002219
1558	0.0002555
1570	0.0002709
1582	0.0002247
1594	0.0002625
1606	0.0002408
1618	0.0003409
1630	0.0004858
1642	0.0005411
1654	0.0003829
1666	0.0002555
1678	0.0002135
1690	0.0001876
1702	0.000217
1714	0.0001645
1726	0.0001498
1738	0.0001575
1750	0.0001155
1762	0.0001274
1774	0.0001379
1786	0.0001386
1798	0.0001624
1810	0.000175
1822	0.0002156
1834	0.0001806
1846	0.0001484
1858	0.0001491
1870	0.0001344
1882	0.0001113
1894	0.0001057
1906	0.0001379
1918	0.0001246
1930	0.0001393
1942	0.0001134
1954	0.0001022
1966	0.0001309
1978	0.0001099
1990	0.0001008
2002	9.87e-05
2014	7e-05
2026	8.33e-05
2038	6.09e-05
2050	7.49e-05
2062	7.28e-05
2074	4.97e-05
2086	4.06e-05
2098	6.3e-05
2110	7.42e-05
2122	5.53e-05
2134	4.27e-05
2146	6.72e-05
2158	8.12e-05
2170	6.02e-05
2182	3.36e-05
2194	0
2206	5.46e-05
2218	4.2e-05
2230	1.61e-05
2242	4.55e-05
2254	4.97e-05
2266	5.95e-05
2278	4.9e-05
2290	6.65e-05
2302	4.62e-05
2314	5.6e-05
2326	2.1e-05
2338	5.46e-05
2350	5.88e-05
2362	6.65e-05
2374	4.27e-05
2386	7.14e-05
2398	8.33e-05
2410	7.35e-05
2422	8.05e-05
2434	0.0001071
2446	8.61e-05
2458	7.91e-05
2470	7.49e-05
2482	7e-05
2494	4.55e-05
2506	9.52e-05
2518	7.56e-05
2530	0.0001204
2542	0.0001141
2554	9.94e-05
2566	0.0001239
2578	0.0001099
2590	0.0001141
2602	0.0001358
2614	0.00014
2626	0.0001232
2638	0.0001407
2650	0.0001463
2662	0.0001204
2674	0.000161
2686	0.0001624
2698	0.0001603
2710	0.000203
2722	0.0002128
2734	0.0002331
2746	0.0002331
2758	0.0002289
2770	0.0002289
2782	0.0002128
2794	0.000266
2806	0.0003528
2818	0.0003857
2830	0.0005075
2842	0.0007035
2854	0.0010283
2866	0.001624
2878	0.0021532
2890	0.0024059
2902	0.0029029
2914	0.0032291
2926	0.0030345
2938	0.0034622
2950	0.0051702
2962	0.007
2974	0.0052983
2986	0.0024822
2998	0.0012894
3010	0.0007938
3022	0.0005404
3034	0.0003871
3046	0.0003927
3058	0.0004298
3070	0.0005922
3082	0.0007917
3094	0.0006195
3106	0.0003591
3118	0.0002394
3130	0.0002065
3142	0.0002177
3154	0.0002492
3166	0.0002184
3178	0.000238
3190	0.000231
3202	0.0002345
3214	0.0002121
3226	0.0001491
3238	0.0002002
3250	0.0002058
3262	0.0001393
3274	0.0001932
3286	0.0001967
3298	0.0001631
3310	0.0001743
3322	0.0001743
3334	0.0001533
3346	0.0001323
3358	0.0001729
3370	0.0001652
3382	0.0001288
3394	0.0001456
3406	0.0001449
3418	0.0001029
3430	0.0001218
3442	0.0001071
3454	0.0001337
3466	0.0001183
3478	4.76e-05
3490	0.0001064
3502	9.24e-05
3514	5.46e-05
3526	0.0001379
3538	0.0001099
3550	8.68e-05
3562	8.26e-05
3574	7.91e-05
3586	2.1e-05
3598	0.0001015
3610	4.62e-05
3622	3.5e-05
3634	7.49e-05
3646	6.58e-05
3658	0.0001337
3670	0.0001484
3682	5.74e-05
3694	9.52e-05
3706	8.33e-05
3718	7e-05
3730	0.0001288
3742	0.0001085
3754	0.0001309
3766	7.35e-05
3778	0.0001274
3790	9.1e-05
3802	9.94e-05
3814	0.0001253
3826	0.0001631
3838	0.0001456
