Infrared Spectrum: N-METHYL HOMOPIPERAZINE
Formula: C6 H14 N2
CAS: 4318-37-0
State: LIQUID
Class: COBLENTZ
Instrument: PERKIN-ELMER
Sampling: TRANSMISSION
Path length: CAPILLARY
Resolution: 4
Origin: ABBOTT LABORATORIES - WASHBURN
MICROMETERS	TRANSMITTANCE
2.019	0.907
2.05317	0.9069
2.08734	0.9088
2.1215	0.907
2.15567	0.912
2.18984	0.9135
2.22401	0.912
2.25817	0.8957
2.29234	0.882
2.32651	0.885
2.36068	0.883
2.39485	0.8843
2.42901	0.8877
2.46318	0.894
2.49735	0.892
2.53152	0.89
2.56568	0.8931
2.59985	0.897
2.63402	0.901
2.66819	0.8995
2.70236	0.8921
2.73652	0.8756
2.77069	0.8544
2.80486	0.833
2.83903	0.8076
2.87319	0.7821
2.90736	0.7516
2.94153	0.6803
2.9757	0.5643
3.00987	0.4992
3.04403	0.5817
3.0782	0.6914
3.11237	0.749
3.14654	0.7797
3.1807	0.7962
3.21487	0.8061
3.24904	0.801
3.28321	0.7612
3.31738	0.4285
3.35154	0.2
3.38571	0.1051
3.41988	0.0995
3.45405	0.1341
3.48821	0.1352
3.52238	0.131
3.55655	0.1193
3.59072	0.1715
3.62489	0.2938
3.65905	0.4646
3.69322	0.5159
3.72739	0.6251
3.76156	0.7437
3.79572	0.7964
3.82989	0.8251
3.86406	0.8393
3.89823	0.851
3.9324	0.857
3.96656	0.868
4.00073	0.873
4.0349	0.8769
4.06907	0.882
4.10323	0.887
4.1374	0.887
4.17157	0.8826
4.20574	0.8754
4.23991	0.8837
4.27407	0.8873
4.30824	0.8895
4.34241	0.8816
4.37658	0.876
4.41074	0.875
4.44491	0.873
4.47908	0.868
4.51325	0.87
4.54742	0.871
4.58158	0.873
4.61575	0.876
4.64992	0.8748
4.68409	0.87
4.71825	0.8748
4.75242	0.875
4.78659	0.876
4.82076	0.8731
4.85493	0.873
4.88909	0.873
4.92326	0.868
4.95743	0.867
4.9916	0.866
5.02576	0.868
5.05993	0.871
5.0941	0.871
5.12827	0.873
5.16243	0.873
5.1966	0.873
5.23077	0.873
5.26494	0.873
5.29911	0.8726
5.33327	0.871
5.36744	0.866
5.40161	0.8646
5.43578	0.8708
5.46994	0.871
5.50411	0.871
5.53828	0.871
5.57245	0.8736
5.60662	0.8766
5.64078	0.8735
5.67495	0.871
5.70912	0.8714
5.74329	0.8726
5.77745	0.871
5.81162	0.8646
5.84579	0.8565
5.87996	0.8422
5.91413	0.8212
5.94829	0.813
5.98246	0.815
6.01663	0.818
6.0508	0.8215
6.08496	0.8265
6.11913	0.835
6.1533	0.8406
6.18747	0.842
6.22164	0.841
6.2558	0.8418
6.28997	0.842
6.32414	0.842
6.35831	0.842
6.39247	0.839
6.42664	0.83
6.46081	0.832
6.49498	0.834
6.52915	0.8274
6.56331	0.8179
6.59748	0.8035
6.63165	0.7719
6.66582	0.7416
6.69998	0.6911
6.73415	0.5997
6.76832	0.4203
6.80249	0.2681
6.83666	0.213
6.87082	0.2317
6.90499	0.3261
6.93916	0.4095
6.97333	0.5189
7.00749	0.6108
7.04166	0.6952
7.07583	0.738
7.11	0.75
7.14417	0.7409
7.17833	0.6738
7.2125	0.4691
7.24667	0.4251
7.28084	0.5043
7.315	0.4562
7.34917	0.4818
7.38334	0.5466
7.41751	0.5703
7.45168	0.5189
7.48584	0.5435
7.52001	0.5894
7.55418	0.5985
7.58835	0.5617
7.62251	0.5061
7.65668	0.4489
7.69085	0.4839
7.72502	0.5435
7.75919	0.5793
7.79335	0.5823
7.82752	0.5661
7.86169	0.5629
7.89586	0.577
7.93002	0.5677
7.96419	0.5753
7.99836	0.5795
8.03253	0.5434
8.0667	0.5407
8.10086	0.5314
8.13503	0.5097
8.1692	0.5265
8.20337	0.5698
8.23753	0.5775
8.2717	0.5434
8.30587	0.5736
8.34004	0.6557
8.37421	0.6844
8.40837	0.6686
8.44254	0.6172
8.47671	0.5064
8.51088	0.373
8.54504	0.3319
8.57921	0.4475
8.61338	0.5612
8.64755	0.6289
8.68172	0.6564
8.71588	0.6549
8.75005	0.6062
8.78422	0.5225
8.81839	0.3568
8.85255	0.2513
8.88672	0.1827
8.92089	0.1391
8.95506	0.1439
8.98923	0.1944
9.02339	0.2833
9.05756	0.3653
9.09173	0.4832
9.1259	0.5519
9.16006	0.5865
9.19423	0.6065
9.2284	0.6324
9.26257	0.647
9.29674	0.6261
9.3309	0.5794
9.36507	0.6027
9.39924	0.6531
9.43341	0.6744
9.46757	0.6765
9.50174	0.6915
9.53591	0.7086
9.57008	0.7094
9.60425	0.7028
9.63841	0.6536
9.67258	0.4942
9.70675	0.4285
9.74092	0.4931
9.77508	0.5186
9.80925	0.5176
9.84342	0.5251
9.87759	0.539
9.91176	0.5864
9.94592	0.6419
9.98009	0.6672
10.0143	0.6947
10.0484	0.6886
10.0826	0.6823
10.1168	0.6685
10.1509	0.6564
10.1851	0.6685
10.2193	0.6899
10.2534	0.7078
10.2876	0.712
10.3218	0.716
10.3559	0.7094
10.3901	0.6935
10.4243	0.6605
10.4584	0.6326
10.4926	0.6307
10.5268	0.6517
10.5609	0.656
10.5951	0.647
10.6293	0.6188
10.6634	0.5933
10.6976	0.5932
10.7318	0.6075
10.7659	0.6174
10.8001	0.6314
10.8343	0.6364
10.8685	0.6511
10.9026	0.6695
10.9368	0.6805
10.971	0.6948
11.0051	0.705
11.0393	0.7104
11.0735	0.711
11.1076	0.7113
11.1418	0.7043
11.176	0.6986
11.2101	0.707
11.2443	0.7134
11.2785	0.7218
11.3126	0.729
11.3468	0.7295
11.381	0.7326
11.4151	0.733
11.4493	0.7283
11.4835	0.728
11.5176	0.7175
11.5518	0.7113
11.586	0.7086
11.6201	0.707
11.6543	0.6993
11.6885	0.6898
11.7226	0.673
11.7568	0.67
11.791	0.664
11.8252	0.6664
11.8593	0.664
11.8935	0.663
11.9277	0.6638
11.9618	0.663
11.996	0.6594
12.0302	0.654
12.0643	0.652
12.0985	0.6496
12.1327	0.6425
12.1668	0.634
12.201	0.6188
12.2352	0.611
12.2693	0.608
12.3035	0.606
12.3377	0.6052
12.3718	0.6015
12.406	0.598
12.4402	0.589
12.4743	0.5819
12.5085	0.5763
12.5427	0.5677
12.5768	0.5642
12.611	0.5554
12.6452	0.547
12.6793	0.538
12.7135	0.5246
12.7477	0.5145
12.7818	0.5075
12.816	0.5
12.8502	0.494
12.8844	0.488
12.9185	0.487
12.9527	0.485
12.9869	0.482
13.021	0.4828
13.0552	0.4764
13.0894	0.475
13.1235	0.4766
13.1577	0.47
13.1919	0.466
13.226	0.464
13.2602	0.459
13.2944	0.4566
13.3285	0.4513
13.3627	0.446
13.3969	0.4412
13.431	0.439
13.4652	0.435
13.4994	0.432
13.5335	0.429
13.5677	0.4207
13.6019	0.4107
13.636	0.3984
13.6702	0.393
13.7044	0.3869
13.7385	0.382
13.7727	0.3762
13.8069	0.379
13.841	0.3836
13.8752	0.3922
13.9094	0.3989
13.9436	0.4024
13.9777	0.411
14.0119	0.4165
14.0461	0.4227
14.0802	0.4243
14.1144	0.429
14.1486	0.432
14.1827	0.439
14.2169	0.446
14.2511	0.446
14.2852	0.4533
14.3194	0.456
14.3536	0.456
14.3877	0.4625
14.4219	0.468
14.4561	0.466
14.4902	0.4673
14.5244	0.475
14.5586	0.4774
14.5927	0.4795
14.6269	0.482
14.6611	0.483
14.6952	0.4863
14.7294	0.4894
14.7636	0.49
14.7977	0.495
14.8319	0.497
14.8661	0.4997
14.9002	0.5
14.9344	0.5034
14.9686	0.511
15.0028	0.511
15.0369	0.507
15.0711	0.511
15.1053	0.514
15.1394	0.514
15.1736	0.516
15.2078	0.521
15.2419	0.524
15.2761	0.526
15.3103	0.524
15.3444	0.526
15.3786	0.526
15.4128	0.528
