Infrared Spectrum: 3,4-PYRIDINEDIAMINE, 5-NITRO-
Formula: C5 H6 N4 O2
CAS: 4318-68-7
State: SOLID (1 mg / 650 mg KBr DISC)
Class: COBLENTZ III
Instrument: PERKIN-ELMER 521 (GRATING)
Sampling: TRANSMISSION
Resolution: 4
Origin: SOUTHERN RESEARCH INSTITUTE
1/CM	TRANSMITTANCE
251.761	0.47
262.315	0.5289
272.869	0.5978
283.423	0.6519
293.977	0.7049
304.531	0.718
315.086	0.723
325.64	0.7269
336.194	0.73
346.748	0.732
357.302	0.733
367.856	0.7332
378.41	0.6994
388.964	0.6309
399.518	0.6467
410.072	0.636
420.626	0.6019
431.18	0.5531
441.735	0.551
452.289	0.5375
462.843	0.4923
473.397	0.5379
483.951	0.5835
494.505	0.598
505.059	0.597
515.613	0.6048
526.167	0.606
536.721	0.6002
547.275	0.597
557.829	0.591
568.384	0.5968
578.938	0.6017
589.492	0.4632
600.046	0.6057
610.6	0.6565
621.154	0.6755
631.708	0.6922
642.262	0.7001
652.816	0.6559
663.37	0.6985
673.924	0.7197
684.478	0.7286
695.033	0.739
705.587	0.74
716.141	0.739
726.695	0.7357
737.249	0.7433
747.803	0.7147
758.357	0.5513
768.911	0.7193
779.465	0.6958
790.019	0.6138
800.573	0.7434
811.127	0.739
821.682	0.7288
832.236	0.7108
842.79	0.6744
853.344	0.478
863.898	0.3696
874.452	0.5992
885.006	0.7345
895.56	0.7719
906.114	0.7686
916.668	0.7311
927.222	0.7383
937.776	0.7792
948.331	0.782
958.885	0.78
969.439	0.775
979.993	0.763
990.547	0.7565
1001.1	0.742
1011.66	0.713
1022.21	0.708
1032.76	0.699
1043.32	0.6906
1053.87	0.6632
1064.43	0.6298
1074.98	0.5812
1085.53	0.5813
1096.09	0.588
1106.64	0.5941
1117.2	0.6068
1127.75	0.6028
1138.3	0.573
1148.86	0.4937
1159.41	0.3976
1169.97	0.4501
1180.52	0.5401
1191.07	0.6062
1201.63	0.5982
1212.18	0.5321
1222.74	0.4321
1233.29	0.3315
1243.84	0.2296
1254.4	0.1517
1264.95	0.1553
1275.51	0.2056
1286.06	0.5229
1296.62	0.5902
1307.17	0.4835
1317.72	0.4736
1328.28	0.6701
1338.83	0.5728
1349.39	0.2313
1359.94	0.2191
1370.49	0.5897
1381.05	0.6203
1391.6	0.809
1402.16	0.7607
1412.71	0.571
1423.26	0.5595
1433.82	0.7195
1444.37	0.5365
1454.93	0.4914
1465.48	0.6194
1476.03	0.6744
1486.59	0.6498
1497.14	0.5738
1507.7	0.4658
1518.25	0.2849
1528.81	0.1324
1539.36	0.1484
1549.91	0.2158
1560.47	0.6002
1571.02	0.6562
1581.58	0.4164
1592.13	0.5276
1602.68	0.5905
1613.24	0.4167
1623.79	0.2508
1634.35	0.2275
1644.9	0.4136
1655.45	0.5181
1666.01	0.3969
1676.56	0.516
1687.12	0.7117
1697.67	0.8384
1708.22	0.9121
1718.78	0.9411
1729.33	0.963
1739.89	0.967
1750.44	0.968
1760.99	0.956
1771.55	0.934
1782.1	0.9499
1792.66	0.952
1803.21	0.951
1813.77	0.948
1824.32	0.956
1834.87	0.951
1845.43	0.948
1855.98	0.946
1866.54	0.9442
1877.09	0.9392
1887.64	0.935
1898.2	0.9312
1908.75	0.926
1919.31	0.9232
1929.86	0.9171
1940.41	0.9121
1950.97	0.909
1961.52	0.906
1972.08	0.903
1982.63	0.9
1993.18	0.896
2003.74	0.8912
2014.29	0.884
2024.85	0.8782
2035.4	0.876
2045.96	0.874
2056.51	0.8702
2067.06	0.867
2077.62	0.866
2088.17	0.8582
2098.73	0.8542
2109.28	0.853
2119.83	0.851
2130.39	0.8473
2140.94	0.8375
2151.5	0.834
2162.05	0.832
2172.6	0.8252
2183.16	0.8173
2193.71	0.816
2204.27	0.815
2214.82	0.8128
2225.37	0.8158
2235.93	0.82
2246.48	0.811
2257.04	0.808
2267.59	0.8062
2278.15	0.7963
2288.7	0.794
2299.25	0.7883
2309.81	0.778
2320.36	0.7742
2330.92	0.773
2341.47	0.77
2352.02	0.77
2362.58	0.7682
2373.13	0.765
2383.69	0.7658
2394.24	0.764
2404.79	0.762
2415.35	0.758
2425.9	0.7482
2436.46	0.7478
2447.01	0.747
2457.56	0.745
2468.12	0.741
2478.67	0.7392
2489.23	0.7362
2499.78	0.732
2510.33	0.7272
2520.89	0.7232
2531.44	0.7182
2542	0.715
2552.55	0.71
2563.11	0.709
2573.66	0.709
2584.21	0.7052
2594.77	0.6972
2605.32	0.692
2615.88	0.6802
2626.43	0.678
2636.98	0.677
2647.54	0.673
2658.09	0.669
2668.65	0.659
2679.2	0.65
2689.75	0.6462
2700.31	0.64
2710.86	0.636
2721.42	0.6292
2731.97	0.622
2742.52	0.621
2753.08	0.614
2763.63	0.6063
2774.19	0.602
2784.74	0.598
2795.3	0.597
2805.85	0.597
2816.4	0.597
2826.96	0.5882
2837.51	0.5762
2848.07	0.572
2858.62	0.571
2869.17	0.5592
2879.73	0.5492
2890.28	0.5363
2900.84	0.529
2911.39	0.5223
2921.94	0.512
2932.5	0.504
2943.05	0.4982
2953.61	0.4872
2964.16	0.4792
2974.71	0.474
2985.27	0.4652
2995.82	0.4497
3006.38	0.4352
3016.93	0.4192
3027.49	0.414
3038.04	0.4039
3048.59	0.3972
3059.15	0.378
3069.7	0.3652
3080.26	0.361
3090.81	0.357
3101.36	0.3493
3111.92	0.3462
3122.47	0.3392
3133.03	0.336
3143.58	0.3222
3154.13	0.325
3164.69	0.34
3175.24	0.3478
3185.8	0.349
3196.35	0.352
3206.9	0.3482
3217.46	0.3365
3228.01	0.3137
3238.57	0.293
3249.12	0.2932
3259.67	0.2842
3270.23	0.2547
3280.78	0.2498
3291.34	0.2615
3301.89	0.299
3312.45	0.3413
3323	0.359
3333.55	0.3493
3344.11	0.3312
3354.66	0.2862
3365.22	0.2523
3375.77	0.2665
3386.32	0.3367
3396.88	0.3533
3407.43	0.3087
3417.99	0.2295
3428.54	0.1798
3439.09	0.2338
3449.65	0.3021
3460.2	0.4788
3470.76	0.5891
3481.31	0.6433
3491.86	0.6675
3502.42	0.6768
3512.97	0.6925
3523.53	0.7047
3534.08	0.707
3544.64	0.71
3555.19	0.71
3565.74	0.712
3576.3	0.712
3586.85	0.712
3597.41	0.712
3607.96	0.712
3618.51	0.712
3629.07	0.711
3639.62	0.71
3650.18	0.709
3660.73	0.706
3671.28	0.701
3681.84	0.698
3692.39	0.6953
3702.95	0.693
3713.5	0.692
3724.05	0.69
3734.61	0.684
3745.16	0.68
3755.72	0.676
3766.27	0.677
3776.82	0.672
3787.38	0.671
3797.93	0.665
3808.49	0.664
3819.04	0.66
3829.6	0.6573
3840.15	0.655
3850.7	0.653
3861.26	0.651
3871.81	0.648
3882.37	0.646
3892.92	0.642
3903.47	0.642
3914.03	0.639
3924.58	0.638
3935.14	0.6352
3945.69	0.6342
3956.24	0.633
3966.8	0.63
3977.35	0.6262
3987.91	0.626
3998.46	0.626
