Infrared Spectrum: 3,5-Dihydroxy-4-methoxybenzoic acid
Formula: C 8 H 8 O 5
CAS: 4319-02-2
State: gas
Origin: EPA-IR VAPOR PHASE LIBRARY
1/CM	ABSORBANCE
501.5	0.001624
513.074	0.002384
524.648	0.002684
536.222	0.002764
547.796	0.002104
559.37	0.001374
570.944	0.001724
582.518	0.001884
594.092	0.002144
605.666	0.002424
617.24	0.002274
628.814	0.002204
640.388	0.001614
651.962	0.002714
663.536	0.007704
675.11	0.002754
686.684	0.0010464
698.258	0.0008001
709.832	0.0011323
721.406	0.0012496
732.98	0.0012595
744.554	0.001384
756.128	0.002454
767.702	0.003494
779.276	0.002504
790.85	0.001259
802.423	0.0010399
813.997	0.0010168
825.571	0.0009487
837.145	0.0008807
848.719	0.0009386
860.293	0.0013115
871.867	0.001804
883.441	0.001744
895.015	0.0011035
906.589	0.0009796
918.163	0.0013206
929.737	0.002424
941.311	0.002154
952.885	0.0012942
964.459	0.0011797
976.033	0.001524
987.607	0.002914
999.181	0.003924
1010.76	0.003134
1022.33	0.002744
1033.9	0.005354
1045.48	0.008564
1057.05	0.006724
1068.63	0.003964
1080.2	0.003224
1091.77	0.002824
1103.35	0.002634
1114.92	0.003624
1126.49	0.006124
1138.07	0.013214
1149.64	0.019554
1161.22	0.013264
1172.79	0.011054
1184.36	0.009644
1195.94	0.008484
1207.51	0.005934
1219.09	0.003774
1230.66	0.003104
1242.23	0.003584
1253.81	0.005894
1265.38	0.007504
1276.96	0.004934
1288.53	0.003694
1300.1	0.003384
1311.68	0.004044
1323.25	0.004644
1334.83	0.005174
1346.4	0.005204
1357.97	0.006254
1369.55	0.010074
1381.12	0.013894
1392.7	0.011354
1404.27	0.004244
1415.84	0.002944
1427.42	0.003064
1438.99	0.004084
1450.57	0.003834
1462.14	0.003484
1473.71	0.002904
1485.29	0.002494
1496.86	0.003194
1508.44	0.004954
1520.01	0.004554
1531.58	0.002374
1543.16	0.001654
1554.73	0.001664
1566.31	0.001864
1577.88	0.003204
1589.45	0.005534
1601.03	0.005724
1612.6	0.003134
1624.18	0.001874
1635.75	0.001564
1647.32	0.001404
1658.9	0.0012056
1670.47	0.0012394
1682.05	0.001364
1693.62	0.001484
1705.19	0.002074
1716.77	0.002714
1728.34	0.003044
1739.92	0.006414
1751.49	0.016394
1763.06	0.019804
1774.64	0.006274
1786.21	0.003044
1797.79	0.002334
1809.36	0.001884
1820.93	0.0012124
1832.51	0.0007575
1844.08	0.0007274
1855.66	0.0005665
1867.23	0.0005802
1878.8	0.00045215
1890.38	0.00045873
1901.95	0.00041125
1913.53	0.00045876
1925.1	0.0004948
1936.67	0.00042902
1948.25	0.00038717
1959.82	0.00040083
1971.4	0.00045118
1982.97	0.00045606
1994.54	0.00044063
2006.12	0.00040094
2017.69	0.00041269
2029.27	0.0003602
2040.84	0.000363066
2052.41	0.000372396
2063.99	0.00037484
2075.56	0.00037453
2087.14	0.00041128
2098.71	0.00035835
2110.28	0.0003126
2121.86	0.0003158
2133.43	0.0003035
2145.01	0.0002715
2156.58	0.0002699
2168.15	0.0002851
2179.73	0.000235
2191.3	0.0002977
2202.88	0.0002912
2214.45	0.000304
2226.02	0.0003187
2237.6	0.0003285
2249.17	0.0003266
2260.74	0.0003165
2272.32	0.00035659
2283.89	0.00038697
2295.47	0.00042444
2307.04	0.0004847
2318.61	0.0005717
2330.19	0.0006189
2341.76	0.0006128
2353.34	0.0006048
2364.91	0.0007595
2376.48	0.0005528
2388.06	0.000373624
2399.63	0.0003048
2411.21	0.000312
2422.78	0.000363536
2434.35	0.00036162
2445.93	0.000369076
2457.5	0.00035573
2469.08	0.0003346
2480.65	0.0003106
2492.22	0.0003239
2503.8	0.0003539
2515.37	0.0003278
2526.95	0.0003522
2538.52	0.00040059
2550.09	0.0003299
2561.67	0.0003239
2573.24	0.0003142
2584.82	0.0002726
2596.39	0.000299
2607.96	0.0003118
2619.54	0.0002827
2631.11	0.0002935
2642.69	0.00027
2654.26	0.0003082
2665.83	0.0003279
2677.41	0.0002857
2688.98	0.000323
2700.56	0.00035862
2712.13	0.0003052
2723.7	0.0002912
2735.28	0.0003037
2746.85	0.000312
2758.43	0.0003135
2770	0.0003258
2781.57	0.0003241
2793.15	0.0003456
2804.72	0.0003447
2816.3	0.00042785
2827.87	0.0005144
2839.44	0.0008265
2851.02	0.0011863
2862.59	0.0007685
2874.17	0.0005649
2885.74	0.0005721
2897.31	0.0006572
2908.89	0.0008
2920.46	0.0008818
2932.04	0.0010698
2943.61	0.001624
2955.18	0.001924
2966.76	0.001454
2978.33	0.0011448
2989.91	0.001125
3001.48	0.001071
3013.05	0.0011077
3024.63	0.0008141
3036.2	0.0006239
3047.78	0.0005891
3059.35	0.0006095
3070.92	0.0006029
3082.5	0.0006647
3094.07	0.000553
3105.65	0.0004718
3117.22	0.00039258
3128.79	0.0003918
3140.37	0.00039905
3151.94	0.00038363
3163.52	0.0003366
3175.09	0.00040462
3186.66	0.00037122
3198.24	0.0002865
3209.81	0.0003442
3221.39	0.00041838
3232.96	0.00040497
3244.53	0.00041397
3256.11	0.00035653
3267.68	0.000353
3279.26	0.0003886
3290.83	0.0003467
3302.4	0.00039103
3313.98	0.000339
3325.55	0.00038251
3337.13	0.00039548
3348.7	0.0003182
3360.27	0.0002942
3371.85	0.0003314
3383.42	0.0003493
3395	0.000331
3406.57	0.000258
3418.14	0.0003138
3429.72	0.0003165
3441.29	0.0002744
3452.86	0.0002867
3464.44	0.000285
3476.01	0.0003378
3487.59	0.00041104
3499.16	0.0005317
3510.73	0.0005915
3522.31	0.0005106
3533.88	0.0006445
3545.46	0.0008595
3557.03	0.001974
3568.6	0.004684
3580.18	0.008944
3591.75	0.008424
3603.33	0.003774
3614.9	0.001794
3626.47	0.0010287
3638.05	0.001544
3649.62	0.002604
3661.2	0.0009994
3672.77	0.0005214
3684.34	0.000241
3695.92	0.000205
3707.49	0.000234
3719.07	0.0002895
3730.64	0.0003121
3742.21	0.00045131
3753.79	0.0002875
3765.36	0.00013
3776.94	8e-05
3788.51	6.1e-05
3800.08	0.000222
3811.66	0.000122
3823.23	0.000125
3834.81	0.000185
3846.38	0.000132
3857.95	0.000244
3869.53	0.00026
3881.1	0.0003369
3892.68	0.000116
3904.25	0.0003341
3915.82	0.000129
3927.4	0.000111
3938.97	6.4e-05
3950.55	0.000129
3962.12	0.000132
3973.69	0
3985.27	8.1e-05
3996.84	0.00011
