Infrared Spectrum: 3-Chloro-3-methylhexane
Formula: C 7 H 15 Cl
CAS: 43197-78-0
State: gas
Instrument: HP-GC/MS/IRD
Origin: NIST Mass Spectrometry Data Center
1/CM	ABSORBANCE
550	0.0009075
562	0.00114
574	0.0013375
586	0.000815
598	0.000625
610	0.0010275
622	0.001295
634	0.000755
646	0.000185
658	8.75e-05
670	0.00011
682	0.000125
694	7.5e-05
706	0.0001
718	0.0002075
730	0.00035
742	0.0005175
754	0.0006075
766	0.00068
778	0.00094
790	0.0014975
802	0.002075
814	0.0020175
826	0.0012
838	0.0005525
850	0.0003775
862	0.0005575
874	0.00077
886	0.00072
898	0.000485
910	0.00025
922	0.0002075
934	0.000315
946	0.00029
958	0.00026
970	0.0004275
982	0.000925
994	0.001215
1006	0.0010875
1018	0.000755
1030	0.0005575
1042	0.00055
1054	0.000565
1066	0.0006175
1078	0.0006275
1090	0.000735
1102	0.00111
1114	0.0021425
1126	0.00341
1138	0.0034
1150	0.0027825
1162	0.002265
1174	0.001455
1186	0.001075
1198	0.0008
1210	0.0005275
1222	0.00036
1234	0.0003925
1246	0.0006125
1258	0.0007
1270	0.0007325
1282	0.0010025
1294	0.0011875
1306	0.0009675
1318	0.00077
1330	0.0007225
1342	0.000795
1354	0.00107
1366	0.0018475
1378	0.0034625
1390	0.00344
1402	0.001465
1414	0.0007925
1426	0.0011425
1438	0.0022225
1450	0.0039625
1462	0.0049275
1474	0.00363
1486	0.00166
1498	0.000775
1510	0.000495
1522	0.0004075
1534	0.00036
1546	0.0003225
1558	0.00033
1570	0.00027
1582	0.0002375
1594	0.000185
1606	0.000145
1618	0.00016
1630	0.0001225
1642	0.0001225
1654	0.0001425
1666	6.75e-05
1678	9.5e-05
1690	8.75e-05
1702	8.25e-05
1714	5.75e-05
1726	4.5e-05
1738	3.5e-05
1750	3.5e-05
1762	3.25e-05
1774	4.25e-05
1786	5e-05
1798	2.25e-05
1810	4e-05
1822	4.75e-05
1834	4.75e-05
1846	5.75e-05
1858	5.25e-05
1870	4.5e-05
1882	1.75e-05
1894	2.25e-05
1906	2e-05
1918	4.5e-05
1930	3e-05
1942	3.25e-05
1954	2.25e-05
1966	3e-05
1978	2.25e-05
1990	1.75e-05
2002	3.25e-05
2014	2.25e-05
2026	1.5e-05
2038	3.5e-05
2050	3e-05
2062	6e-05
2074	3.25e-05
2086	2.5e-05
2098	2.25e-05
2110	3.5e-05
2122	4.5e-05
2134	1.75e-05
2146	3e-05
2158	3.25e-05
2170	4.25e-05
2182	4.5e-05
2194	4e-05
2206	4.5e-05
2218	2.5e-06
2230	2.75e-05
2242	1.5e-05
2254	1.25e-05
2266	3.75e-05
2278	3.75e-05
2290	2e-05
2302	6.25e-05
2314	5.25e-05
2326	7.25e-05
2338	8.5e-05
2350	8.75e-05
2362	8.75e-05
2374	7.5e-05
2386	8.25e-05
2398	8.75e-05
2410	0.0001
2422	7.75e-05
2434	8.25e-05
2446	7.75e-05
2458	7.25e-05
2470	6e-05
2482	7.5e-05
2494	5.5e-05
2506	8.5e-05
2518	5e-05
2530	8.5e-05
2542	0.0001275
2554	0.000125
2566	0.0001125
2578	0.000115
2590	0.0001225
2602	0.000145
2614	0.000185
2626	0.0001825
2638	0.000185
2650	0.000215
2662	0.00023
2674	0.000225
2686	0.00022
2698	0.00024
2710	0.00028
2722	0.0003375
2734	0.0004625
2746	0.00057
2758	0.0005575
2770	0.0005025
2782	0.000555
2794	0.0006675
2806	0.000825
2818	0.0011175
2830	0.0015425
2842	0.0024025
2854	0.003435
2866	0.004785
2878	0.0080675
2890	0.01046
2902	0.010095
2914	0.01045
2926	0.012785
2938	0.017125
2950	0.0183825
2962	0.0205275
2974	0.025
2986	0.01882
2998	0.0099275
3010	0.0044725
3022	0.0021675
3034	0.00158
3046	0.001245
3058	0.00104
3070	0.0009625
3082	0.000915
3094	0.000815
3106	0.000705
3118	0.000575
3130	0.000495
3142	0.0004575
3154	0.0004125
3166	0.0004
3178	0.00038
3190	0.0003325
3202	0.000345
3214	0.000275
3226	0.000245
3238	0.000215
3250	0.00018
3262	0.0001575
3274	0.0001425
3286	0.0001375
3298	9.25e-05
3310	0.0001175
3322	0.0001275
3334	0.0001075
3346	0.0001
3358	0.0001225
3370	7e-05
3382	7.5e-05
3394	2.75e-05
3406	6.25e-05
3418	7.25e-05
3430	2.5e-05
3442	7.5e-05
3454	6.75e-05
3466	2.25e-05
3478	4e-05
3490	2.5e-05
3502	5e-05
3514	5e-06
3526	5.25e-05
3538	3e-05
3550	9.5e-05
3562	6.5e-05
3574	0.000115
3586	6.5e-05
3598	0.000105
3610	2.5e-05
3622	5.5e-05
3634	8.25e-05
3646	4.25e-05
3658	0.0001025
3670	4.25e-05
3682	0.000105
3694	7e-05
3706	6.75e-05
3718	8.25e-05
3730	8.75e-05
3742	0.0001075
3754	9.75e-05
3766	7.25e-05
3778	9.75e-05
3790	5e-05
3802	7.25e-05
3814	8.25e-05
3826	7.5e-05
3838	0.0001225
