Infrared Spectrum: 2-Chloro-2-methylpentane
Formula: C 6 H 13 Cl
CAS: 4325-48-8
State: gas
Instrument: HP-GC/MS/IRD
Origin: NIST Mass Spectrometry Data Center
1/CM	ABSORBANCE
550	0.0010032
562	0.0020544
574	0.0031512
586	0.0025728
598	0.00114
610	0.0006264
622	0.0009024
634	0.0011496
646	0.0006504
658	0.0001992
670	0.0001056
682	8.16e-05
694	9.6e-05
706	5.76e-05
718	0.0001728
730	0.000564
742	0.000744
754	0.0006504
766	0.0003744
778	0.0004368
790	0.0007416
802	0.000996
814	0.0011928
826	0.0010776
838	0.0005688
850	0.0002472
862	0.0002568
874	0.0002208
886	0.0003432
898	0.000492
910	0.0004416
922	0.0002136
934	0.0001488
946	0.000336
958	0.000564
970	0.000456
982	0.0002616
994	0.0001248
1006	0.0001464
1018	0.0002016
1030	0.0002712
1042	0.0003144
1054	0.0005064
1066	0.0006624
1078	0.0009648
1090	0.0010224
1102	0.0012408
1114	0.0025344
1126	0.0046224
1138	0.0053856
1150	0.004608
1162	0.0037632
1174	0.0029208
1186	0.0018912
1198	0.0013536
1210	0.0018672
1222	0.0021432
1234	0.0014856
1246	0.0011088
1258	0.0010656
1270	0.0008616
1282	0.0006576
1294	0.0006936
1306	0.0005928
1318	0.0004824
1330	0.0003888
1342	0.0006384
1354	0.0016344
1366	0.0034224
1378	0.0047208
1390	0.0039432
1402	0.0020544
1414	0.0009912
1426	0.0011472
1438	0.0021048
1450	0.003636
1462	0.0043968
1474	0.0036144
1486	0.0019632
1498	0.0007968
1510	0.000468
1522	0.000372
1534	0.000324
1546	0.0002544
1558	0.000264
1570	0.0001728
1582	0.0001656
1594	0.000156
1606	0.0001224
1618	0.0001296
1630	0.00012
1642	0.0001512
1654	0.000108
1666	0.0001128
1678	8.64e-05
1690	6.96e-05
1702	8.4e-05
1714	6e-05
1726	5.28e-05
1738	2.4e-05
1750	6.48e-05
1762	6.72e-05
1774	4.56e-05
1786	7.2e-05
1798	8.16e-05
1810	5.28e-05
1822	3.12e-05
1834	5.28e-05
1846	5.28e-05
1858	5.28e-05
1870	3.6e-05
1882	6.72e-05
1894	5.28e-05
1906	7.44e-05
1918	5.04e-05
1930	5.04e-05
1942	6.72e-05
1954	4.56e-05
1966	4.32e-05
1978	5.04e-05
1990	9.6e-06
2002	6.72e-05
2014	1.68e-05
2026	4.8e-05
2038	5.76e-05
2050	6.48e-05
2062	3.6e-05
2074	4.56e-05
2086	4.08e-05
2098	1.2e-05
2110	1.68e-05
2122	3.6e-05
2134	3.36e-05
2146	6.96e-05
2158	5.52e-05
2170	6.48e-05
2182	6.72e-05
2194	5.28e-05
2206	5.28e-05
2218	4.32e-05
2230	9.6e-06
2242	3.36e-05
2254	2.4e-05
2266	2.4e-05
2278	7.2e-05
2290	3.36e-05
2302	4.32e-05
2314	7.92e-05
2326	7.68e-05
2338	6.72e-05
2350	7.2e-05
2362	0.0001056
2374	0.0001056
2386	8.64e-05
2398	5.28e-05
2410	6.96e-05
2422	6.96e-05
2434	7.44e-05
2446	6.72e-05
2458	3.6e-05
2470	5.76e-05
2482	3.12e-05
2494	5.04e-05
2506	8.64e-05
2518	8.64e-05
2530	8.16e-05
2542	0.000132
2554	0.0001368
2566	0.0001368
2578	0.0001848
2590	0.0001488
2602	0.0001344
2614	0.0001752
2626	0.000168
2638	0.000192
2650	0.0002016
2662	0.0002136
2674	0.000192
2686	0.0002136
2698	0.000252
2710	0.0003096
2722	0.0004008
2734	0.0004872
2746	0.0005136
2758	0.0005136
2770	0.0004896
2782	0.0004776
2794	0.0005832
2806	0.0008328
2818	0.0011016
2830	0.0015864
2842	0.0023184
2854	0.003156
2866	0.0046464
2878	0.0078864
2890	0.0096816
2902	0.009168
2914	0.009876
2926	0.0128112
2938	0.0160392
2950	0.0164784
2962	0.0190632
2974	0.024
2986	0.0203232
2998	0.0114144
3010	0.0048576
3022	0.0019656
3034	0.0013632
3046	0.0010392
3058	0.0007848
3070	0.0007392
3082	0.0006696
3094	0.0005712
3106	0.0004368
3118	0.0004416
3130	0.0003432
3142	0.0003984
3154	0.0003744
3166	0.000336
3178	0.0003744
3190	0.0003552
3202	0.0003096
3214	0.0003048
3226	0.0003264
3238	0.0003144
3250	0.0003168
3262	0.0001944
3274	0.0002136
3286	0.00018
3298	0.0001992
3310	0.0001104
3322	0.0001464
3334	0.0001248
3346	0.0001032
3358	0.0001128
3370	0.0001152
3382	0.0001224
3394	0.0001008
3406	5.04e-05
3418	9.6e-05
3430	6.72e-05
3442	3.36e-05
3454	3.6e-05
3466	3.12e-05
3478	6e-05
3490	6.72e-05
3502	8.16e-05
3514	1.44e-05
3526	5.76e-05
3538	2.4e-05
3550	6e-05
3562	7.2e-05
3574	4.08e-05
3586	5.28e-05
3598	5.52e-05
3610	0.0001032
3622	9.84e-05
3634	8.16e-05
3646	0.0001056
3658	0.0001176
3670	0.0001176
3682	8.16e-05
3694	0.000144
3706	7.44e-05
3718	0.0001032
3730	0.0001272
3742	0.0001224
3754	0.0001608
3766	9.36e-05
3778	3.84e-05
3790	6.24e-05
3802	0.0001896
3814	0.0001776
3826	0.000156
3838	0.000192
