Infrared Spectrum: 1,2'-Binaphthyl
Formula: C 20 H 14
CAS: 4325-74-0
State: gas
Instrument: HP-GC/MS/IRD
Origin: NIST Mass Spectrometry Data Center
1/CM	ABSORBANCE
550	0.000416
562	0.0008203
574	0.0005421
586	9.23e-05
598	0.0002418
610	0.0003016
622	0.0005369
634	0.0002223
646	0.0003185
658	0.0007085
670	0.0009906
682	0.0002535
694	0.0002899
706	0.0004329
718	0.0008008
730	0.0021034
742	0.0055692
754	0.0021021
766	0.0053885
778	0.0088426
790	0.0069784
802	0.0044629
814	0.0036894
826	0.0016835
838	0.0010023
850	0.0022984
862	0.0018668
874	0.0008801
886	0.0008554
898	0.0014196
910	0.0006838
922	0.0005057
934	0.001157
946	0.0012792
958	0.0006786
970	0.0004953
982	0.000351
994	0.0003835
1006	0.0006747
1018	0.0015119
1030	0.0006006
1042	0.0003237
1054	0.000416
1066	0.0002028
1078	9.1e-05
1090	0.0001391
1102	0.0004121
1114	0.0002678
1126	0.0004953
1138	0.0007111
1150	0.000299
1162	0.0004628
1174	3.64e-05
1186	5.2e-06
1198	0.0002197
1210	0.0001157
1222	0.0001118
1234	0.0003055
1246	0.0003341
1258	0.0004134
1270	0.0004277
1282	0.0001417
1294	0.0001729
1306	0.0001911
1318	0.0003159
1330	0.0004394
1342	0.0005135
1354	0.0006097
1366	0.0006695
1378	0.0007566
1390	0.0021307
1402	0.0017901
1414	0.0006877
1426	0.0006994
1438	0.0006825
1450	0.0004602
1462	0.0004056
1474	0.0004966
1486	0.0007579
1498	0.002158
1510	0.0017368
1522	0.0007306
1534	0.0004875
1546	0.0004212
1558	0.0005824
1570	0.0008762
1582	0.0014976
1594	0.0017524
1606	0.0008359
1618	0.0006331
1630	0.0009243
1642	0.0005668
1654	0.0003835
1666	0.0004069
1678	0.0005863
1690	0.0006552
1702	0.000507
1714	0.0004043
1726	0.0004537
1738	0.0004264
1750	0.000481
1762	0.000572
1774	0.0005356
1786	0.0005252
1798	0.0006695
1810	0.0006838
1822	0.0005512
1834	0.0004264
1846	0.000312
1858	0.0003718
1870	0.0003562
1882	0.0002587
1894	0.0004277
1906	0.0006643
1918	0.0009048
1930	0.0007371
1942	0.0007072
1954	0.0002795
1966	0.0001339
1978	0.0001027
1990	0.000104
2002	0.0001183
2014	0.0001157
2026	0.0001131
2038	0.0001053
2050	0.0001235
2062	0.0001131
2074	0.0001066
2086	8.84e-05
2098	9.62e-05
2110	8.58e-05
2122	9.49e-05
2134	9.23e-05
2146	8.32e-05
2158	5.85e-05
2170	6.5e-05
2182	8.32e-05
2194	9.36e-05
2206	0.0001053
2218	0.0001027
2230	0.0001066
2242	0.0001222
2254	0.0001274
2266	0.0001144
2278	0.0001573
2290	0.0002132
2302	0.0001612
2314	0.0001664
2326	0.0001378
2338	0.0001365
2350	0.0001664
2362	0.0001508
2374	0.000156
2386	0.0001248
2398	0.0001651
2410	0.0001456
2422	0.0001417
2434	0.0001534
2446	0.0001378
2458	0.0001469
2470	0.0001352
2482	0.0001222
2494	0.0001794
2506	0.0001989
2518	0.0001365
2530	0.000156
2542	0.0001482
2554	0.0001703
2566	0.0001495
2578	0.0001495
2590	0.0001521
2602	0.0001677
2614	0.0001716
2626	0.0001443
2638	0.000156
2650	0.0001443
2662	0.0001352
2674	0.0001677
2686	0.0001963
2698	0.0001794
2710	0.0001677
2722	0.0002314
2734	0.0002015
2746	0.0001729
2758	0.0001742
2770	0.0001703
2782	0.0001898
2794	0.0002262
2806	0.0002249
2818	0.0001898
2830	0.0002535
2842	0.0002314
2854	0.0002496
2866	0.0002301
2878	0.0002496
2890	0.0002665
2902	0.0003198
2914	0.0003406
2926	0.000403
2938	0.0005057
2950	0.0005941
2962	0.0006409
2974	0.0006474
2986	0.0007891
2998	0.0010946
3010	0.0017836
3022	0.0025233
3034	0.0029692
3046	0.0061867
3058	0.0119834
3070	0.0092534
3082	0.0048425
3094	0.0025116
3106	0.0012233
3118	0.0005954
3130	0.0003809
3142	0.0002912
3154	0.0003328
3166	0.0002457
3178	0.0002418
3190	0.0002301
3202	0.0001989
3214	0.0002808
3226	0.0002483
3238	0.0001846
3250	0.0002145
3262	0.0002041
3274	0.000195
3286	0.0001404
3298	0.0001638
3310	0.0001703
3322	0.0001443
3334	0.0001651
3346	0.0001599
3358	0.0002028
3370	0.0001417
3382	0.0001339
3394	0.0001001
3406	0.0001599
3418	0.0001092
3430	0.0001352
3442	0.0001703
3454	0.0001235
3466	0.0001664
3478	0.000143
3490	0.0001729
3502	0.0001378
3514	0.0002067
3526	0.0001547
3538	0.0001768
3550	0.0001872
3562	0.0001885
3574	8.32e-05
3586	0.0002015
3598	0.0002119
3610	0.0001872
3622	0.0002314
3634	0.0001976
3646	0.0001976
3658	0.0002093
3670	0.0001833
3682	0.0002665
3694	0.0002626
3706	0.0001859
3718	0.0002184
3730	0.0002054
3742	0.00026
3754	0.0001846
3766	0.0002509
3778	0.0002522
3790	0.0001781
3802	0.0001911
3814	0.0002561
3826	0.0002496
3838	0.0003029
