Infrared Spectrum: TRIS(TRIMETHYLSILOXY)BORANE
Formula: C9 H27 B O3 Si3
CAS: 4325-85-3
State: SOLUTION (10% IN CCl4 FOR 3800-1500, 2% IN CS2 FOR 1500-650, AND 10% IN CCl4 FOR 650-250 CM^-^1) VS. SOLVENT
Boiling point: 184.5 C
Class: COBLENTZ II
Instrument: PERKIN-ELMER 521 (GRATING)
Instrument parameters: FILTERS AT 3150, 2500, 2000, 1150, 700, 410. GRATING CHANGES: 2000, 630 CM^-^1
Sampling: TRANSMISSION
Path length: 0.012 CM, 0.012 CM, AND 0.010 CM
Resolution: 2
Origin: DOW CORNING CORP.
1/CM	TRANSMITTANCE
251.938	0.66
261.192	0.661
270.446	0.651
279.7	0.56
288.954	0.4
298.208	0.702
307.462	0.785
316.715	0.813
325.969	0.838
335.223	0.843
344.477	0.851
353.731	0.848
362.985	0.841
372.239	0.841
381.493	0.826
390.747	0.824
400.001	0.811
409.255	0.803
418.509	0.773
427.763	0.688
437.016	0.531
446.27	0.332
455.524	0.287
464.778	0.521
474.032	0.691
483.286	0.75
492.54	0.779
501.794	0.795
511.048	0.792
520.302	0.784
529.556	0.784
538.81	0.801
548.064	0.815
557.317	0.821
566.571	0.824
575.825	0.823
585.079	0.82
594.333	0.814
603.587	0.778
612.841	0.4589
622.095	0.704
631.349	0.752
640.603	0.768
649.857	0.778
659.111	0.783
668.365	0.779
677.618	0.674
686.872	0.754
696.126	0.787
705.38	0.814
714.634	0.835
723.888	0.836
733.142	0.816
742.396	0.764
751.65	0.5149
760.904	0.4151
770.158	0.668
779.412	0.745
788.666	0.686
797.919	0.643
807.173	0.704
816.427	0.667
825.681	0.535
834.935	0.2169
844.189	0.023
853.443	0.143
862.697	0.298
871.951	0.217
881.205	0.067
890.459	0.2521
899.713	0.544
908.967	0.706
918.22	0.808
927.474	0.851
936.728	0.869
945.982	0.885
955.236	0.892
964.49	0.892
973.744	0.892
982.998	0.892
992.252	0.887
1001.51	0.882
1010.76	0.876
1020.01	0.866
1029.27	0.859
1038.52	0.853
1047.78	0.849
1057.03	0.849
1066.28	0.851
1075.54	0.853
1084.79	0.851
1094.05	0.855
1103.3	0.859
1112.55	0.861
1121.81	0.87
1131.06	0.885
1140.31	0.897
1149.57	0.907
1158.82	0.909
1168.08	0.907
1177.33	0.91
1186.58	0.901
1195.84	0.897
1205.09	0.895
1214.35	0.87
1223.6	0.841
1232.85	0.7109
1242.11	0.2657
1251.36	0.2653
1260.62	0.6031
1269.87	0.77
1279.12	0.755
1288.38	0.684
1297.63	0.566
1306.89	0.4449
1316.14	0.1649
1325.39	0.08
1334.65	0.102
1343.9	0.2041
1353.15	0.404
1362.41	0.387
1371.66	0.373
1380.92	0.4711
1390.17	0.646
1399.42	0.666
1408.68	0.636
1417.93	0.7161
1427.19	0.814
1436.44	0.849
1445.69	0.859
1454.95	0.869
1464.2	0.902
1473.46	0.91
1482.71	0.911
1491.96	0.91
1501.22	0.8498
1510.47	0.779
1519.73	0.779
1528.98	0.779
1538.23	0.772
1547.49	0.755
1556.74	0.734
1566	0.74
1575.25	0.773
1584.5	0.816
1593.76	0.845
1603.01	0.865
1612.26	0.876
1621.52	0.884
1630.77	0.89
1640.03	0.894
1649.28	0.894
1658.53	0.896
1667.79	0.891
1677.04	0.892
1686.3	0.9
1695.55	0.907
1704.8	0.909
1714.06	0.909
1723.31	0.909
1732.57	0.905
1741.82	0.901
1751.07	0.901
1760.33	0.896
1769.58	0.896
1778.84	0.901
1788.09	0.907
1797.34	0.91
1806.6	0.909
1815.85	0.901
1825.1	0.894
1834.36	0.881
1843.61	0.866
1852.87	0.85
1862.12	0.83
1871.37	0.83
1880.63	0.871
1889.88	0.871
1899.14	0.874
1908.39	0.875
1917.64	0.874
1926.9	0.867
1936.15	0.845
1945.41	0.872
1954.66	0.885
1963.91	0.89
1973.17	0.892
1982.42	0.891
1991.68	0.89
2000.93	0.891
2010.18	0.894
2019.44	0.8967
2028.69	0.9043
2037.95	0.9137
2047.2	0.915
2056.45	0.915
2065.71	0.915
2074.96	0.914
2084.21	0.9097
2093.47	0.902
2102.72	0.8966
2111.98	0.8915
2121.23	0.8956
2130.48	0.901
2139.74	0.902
2148.99	0.904
2158.25	0.904
2167.5	0.904
2176.75	0.91
2186.01	0.91
2195.26	0.91
2204.52	0.91
2213.77	0.9114
2223.02	0.9151
2232.28	0.916
2241.53	0.916
2250.79	0.916
2260.04	0.9209
2269.29	0.925
2278.55	0.925
2287.8	0.9222
2297.06	0.927
2306.31	0.929
2315.56	0.93
2324.82	0.931
2334.07	0.931
2343.32	0.9294
2352.58	0.9276
2361.83	0.926
2371.09	0.9201
2380.34	0.919
2389.59	0.915
2398.85	0.914
2408.1	0.912
2417.36	0.9057
2426.61	0.8966
2435.86	0.893
2445.12	0.894
2454.37	0.896
2463.63	0.897
2472.88	0.8962
2482.13	0.894
2491.39	0.892
2500.64	0.8963
2509.9	0.906
2519.15	0.905
2528.4	0.9113
2537.66	0.912
2546.91	0.912
2556.16	0.912
2565.42	0.911
2574.67	0.907
2583.93	0.906
2593.18	0.905
2602.43	0.904
2611.69	0.8999
2620.94	0.8935
2630.2	0.8807
2639.45	0.8673
2648.7	0.8497
2657.96	0.835
2667.21	0.8428
2676.47	0.858
2685.72	0.8748
2694.97	0.8798
2704.23	0.882
2713.48	0.882
2722.74	0.881
2731.99	0.8786
2741.24	0.8717
2750.5	0.865
2759.75	0.863
2769.01	0.8555
2778.26	0.8374
2787.51	0.811
2796.77	0.815
2806.02	0.81
2815.27	0.81
2824.53	0.8029
2833.78	0.7949
2843.04	0.7888
2852.29	0.78
2861.54	0.7694
2870.8	0.74
2880.05	0.6707
2889.31	0.5173
2898.56	0.4607
2907.81	0.6014
2917.07	0.656
2926.32	0.6028
2935.58	0.4125
2944.83	0.1755
2954.08	0.0372
2963.34	0.1209
2972.59	0.3616
2981.85	0.5731
2991.1	0.7108
3000.35	0.7663
3009.61	0.785
3018.86	0.7988
3028.12	0.8
3037.37	0.803
3046.62	0.8091
3055.88	0.8181
3065.13	0.8265
3074.38	0.8316
3083.64	0.835
3092.89	0.836
3102.15	0.839
3111.4	0.844
3120.65	0.8479
3129.91	0.8626
3139.16	0.8688
3148.42	0.871
3157.67	0.872
3166.92	0.875
3176.18	0.877
3185.43	0.8827
3194.69	0.8894
3203.94	0.896
3213.19	0.897
3222.45	0.899
3231.7	0.8997
3240.96	0.904
3250.21	0.9059
3259.46	0.911
3268.72	0.915
3277.97	0.916
3287.22	0.916
3296.48	0.917
3305.73	0.919
3314.99	0.92
3324.24	0.92
3333.49	0.92
3342.75	0.919
3352	0.919
3361.26	0.919
3370.51	0.919
3379.76	0.919
3389.02	0.919
3398.27	0.919
3407.53	0.919
3416.78	0.92
3426.03	0.921
3435.29	0.921
3444.54	0.92
3453.8	0.9192
3463.05	0.919
3472.3	0.919
3481.56	0.919
3490.81	0.919
3500.07	0.919
3509.32	0.919
3518.57	0.9183
3527.83	0.916
3537.08	0.915
3546.33	0.9128
3555.59	0.9093
3564.84	0.907
3574.1	0.9161
3583.35	0.906
3592.6	0.906
3601.86	0.9087
3611.11	0.9008
3620.37	0.8947
3629.62	0.8812
3638.87	0.8632
3648.13	0.8424
3657.38	0.8486
3666.64	0.8796
3675.89	0.8778
3685.14	0.8652
3694.4	0.871
3703.65	0.8801
3712.91	0.8849
3722.16	0.8783
3731.41	0.875
3740.67	0.8794
3749.92	0.8885
3759.17	0.8966
3768.43	0.9
3777.68	0.8963
3786.94	0.8912
3796.19	0.89
3805.44	0.892
