Infrared Spectrum: 2-Chloro-2-methylnonane
Formula: C 10 H 21 Cl
CAS: 4325-50-2
State: gas
Instrument: HP-GC/MS/IRD
Origin: NIST Mass Spectrometry Data Center
1/CM	ABSORBANCE
550	0.001075
562	0.0013416
574	0.0026789
586	0.0024768
598	0.0011653
610	0.000602
622	0.0009288
634	0.0012857
646	0.0005676
658	0.0001634
670	4.3e-05
682	0.0001548
694	0.0001892
706	0.0004429
718	0.0008901
730	0.0008858
742	0.000817
754	0.000731
766	0.000731
778	0.0007353
790	0.0007783
802	0.0008944
814	0.0009976
826	0.0009675
838	0.0009159
850	0.0006751
862	0.0005375
874	0.0005074
886	0.0006407
898	0.0006106
910	0.0004515
922	0.0003741
934	0.0004171
946	0.0004257
958	0.00043
970	0.0004214
982	0.0002623
994	0.0001978
1006	0.0001892
1018	0.0001419
1030	0.0001634
1042	0.0002451
1054	0.0004042
1066	0.0006149
1078	0.0011094
1090	0.001634
1102	0.0021887
1114	0.0026187
1126	0.0038141
1138	0.0035518
1150	0.0026402
1162	0.0019909
1174	0.0016727
1186	0.0019092
1198	0.0023091
1210	0.0025499
1222	0.0025886
1234	0.0016985
1246	0.0011266
1258	0.0010621
1270	0.0009589
1282	0.0009589
1294	0.0011137
1306	0.0011782
1318	0.0011051
1330	0.0010664
1342	0.0014362
1354	0.0020984
1366	0.003827
1378	0.0049192
1390	0.0041151
1402	0.0017071
1414	0.0010793
1426	0.0013201
1438	0.0023263
1450	0.0045236
1462	0.0058996
1474	0.0042269
1486	0.0017802
1498	0.0007783
1510	0.0004386
1522	0.0002881
1534	0.0001806
1546	0.0001677
1558	8.6e-05
1570	7.31e-05
1582	0.0001161
1594	0.0001075
1606	0.0001419
1618	0.0001376
1630	0.0001978
1642	0.0002107
1654	0.0002451
1666	0.0002021
1678	0.0001849
1690	0.0001505
1702	0.0001548
1714	0.0001505
1726	0.0001419
1738	0.0001634
1750	0.000129
1762	0.000129
1774	0.0001677
1786	0.0001161
1798	9.46e-05
1810	0.0001075
1822	7.74e-05
1834	4.73e-05
1846	7.31e-05
1858	4.73e-05
1870	7.74e-05
1882	7.31e-05
1894	3.01e-05
1906	4.3e-05
1918	3.44e-05
1930	3.87e-05
1942	2.15e-05
1954	4.3e-05
1966	4.3e-05
1978	8.6e-06
1990	1.29e-05
2002	2.15e-05
2014	7.31e-05
2026	6.02e-05
2038	0.0001032
2050	7.74e-05
2062	6.02e-05
2074	5.59e-05
2086	4.73e-05
2098	5.16e-05
2110	2.58e-05
2122	4.73e-05
2134	4.73e-05
2146	4.73e-05
2158	3.87e-05
2170	6.02e-05
2182	5.59e-05
2194	6.88e-05
2206	6.02e-05
2218	7.74e-05
2230	6.02e-05
2242	4.73e-05
2254	6.45e-05
2266	5.59e-05
2278	6.88e-05
2290	4.3e-05
2302	5.59e-05
2314	8.6e-05
2326	9.89e-05
2338	4.73e-05
2350	4.3e-05
2362	6.88e-05
2374	6.02e-05
2386	7.74e-05
2398	8.17e-05
2410	6.88e-05
2422	5.16e-05
2434	7.74e-05
2446	4.73e-05
2458	6.88e-05
2470	6.45e-05
2482	7.31e-05
2494	9.46e-05
2506	0.0001032
2518	8.6e-05
2530	0.0001419
2542	0.0001548
2554	0.000215
2566	0.0001935
2578	0.0002021
2590	0.000258
2602	0.0002623
2614	0.0002752
2626	0.0003268
2638	0.0003569
2650	0.0003741
2662	0.0004171
2674	0.0005289
2686	0.0005246
2698	0.0005203
2710	0.0005031
2722	0.0005977
2734	0.0007095
2746	0.0007654
2758	0.0007224
2770	0.0008041
2782	0.0009546
2794	0.0011825
2806	0.0015824
2818	0.0022059
2830	0.0031175
2842	0.0053019
2854	0.0105307
2866	0.0160132
2878	0.0155101
2890	0.014147
2902	0.0156004
2914	0.0224847
2926	0.0363737
2938	0.043
2950	0.033669
2962	0.0256882
2974	0.0244799
2986	0.0182578
2998	0.01118
3010	0.0042828
3022	0.0023779
3034	0.0016684
3046	0.001333
3058	0.0010965
3070	0.0010363
3082	0.0009632
3094	0.0007353
3106	0.0006665
3118	0.0005461
3130	0.0005031
3142	0.0004429
3154	0.0004386
3166	0.0003784
3178	0.0004171
3190	0.0003698
3202	0.0003612
3214	0.0003182
3226	0.0002967
3238	0.0003096
3250	0.000258
3262	0.0002107
3274	0.000172
3286	0.0001892
3298	0.0001419
3310	9.46e-05
3322	0.0001204
3334	0.0001032
3346	0.0001419
3358	0.0001032
3370	0.0001075
3382	0.0001247
3394	0.0001204
3406	8.6e-05
3418	8.6e-05
3430	6.45e-05
3442	8.17e-05
3454	6.88e-05
3466	0.0001333
3478	7.31e-05
3490	6.45e-05
3502	3.01e-05
3514	6.02e-05
3526	3.01e-05
3538	3.87e-05
3550	3.44e-05
3562	7.74e-05
3574	3.01e-05
3586	1.72e-05
3598	9.89e-05
3610	6.88e-05
3622	8.6e-05
3634	0.0001075
3646	0.0001075
3658	5.16e-05
3670	1.29e-05
3682	6.88e-05
3694	6.02e-05
3706	4.3e-05
3718	0.0001204
3730	6.88e-05
3742	9.89e-05
3754	4.73e-05
3766	0.0001204
3778	7.74e-05
3790	0.000129
3802	2.58e-05
3814	7.74e-05
3826	8.17e-05
3838	8.17e-05
