Infrared Spectrum: o-Nitrobenzenesulfonyl fluoride
Formula: C 6 H 4 F N O 4 S
CAS: 433-98-7
State: gas
Origin: EPA-IR VAPOR PHASE LIBRARY
1/CM	ABSORBANCE
549.8	0.0052
559.445	0.00072
569.09	0.0032
578.734	0.01153
588.379	0.09676
598.024	0.13365
607.669	0.03105
617.313	0.00568
626.958	0.00384
636.603	0.00465
646.248	0.01412
655.893	0.0219
665.537	0.01087
675.182	0.00508
684.827	0.00548
694.472	0.00684
704.116	0.0089189
713.761	0.01459
723.406	0.03235
733.051	0.05557
742.695	0.0519
752.34	0.0307
761.985	0.03198
771.63	0.05765
781.275	0.07272
790.919	0.06625
800.564	0.09527
810.209	0.16102
819.854	0.11493
829.498	0.03296
839.143	0.02382
848.788	0.04058
858.433	0.02768
868.078	0.00765
877.722	0.00526
887.367	0.00414
897.012	0.00355
906.657	0.00347
916.301	0.00281
925.946	0.0026
935.591	0.00243
945.236	0.00254
954.88	0.00343
964.525	0.00303
974.17	0.00245
983.815	0.00218
993.46	0.00233
1003.1	0.00198
1012.75	0.00213
1022.39	0.00266
1032.04	0.00264
1041.68	0.00322
1051.33	0.00651
1060.97	0.008345
1070.62	0.00684
1080.26	0.00446
1089.91	0.00493
1099.55	0.00474
1109.2	0.00596
1118.84	0.0103
1128.49	0.01568
1138.13	0.01203
1147.78	0.0063
1157.42	0.00536
1167.07	0.00483
1176.71	0.00505
1186.36	0.007992
1196	0.0114
1205.64	0.0258
1215.29	0.10348
1224.93	0.20233
1234.58	0.1059
1244.22	0.02108
1253.87	0.01297
1263.51	0.01183
1273.16	0.0125
1282.8	0.01505
1292.45	0.01657
1302.09	0.01246
1311.74	0.01091
1321.38	0.01253
1331.03	0.01929
1340.67	0.04168
1350.32	0.07824
1359.96	0.07863
1369.61	0.03235
1379.25	0.01238
1388.9	0.0098765
1398.54	0.01115
1408.18	0.0177
1417.83	0.03735
1427.47	0.08732
1437.12	0.14166
1446.76	0.16553
1456.41	0.11328
1466.05	0.03711
1475.7	0.01816
1485.34	0.01157
1494.99	0.01071
1504.63	0.01212
1514.28	0.01437
1523.92	0.01881
1533.57	0.02825
1543.21	0.05299
1552.86	0.11445
1562.5	0.18059
1572.15	0.13574
1581.79	0.06842
1591.44	0.0421
1601.08	0.02589
1610.73	0.0156
1620.37	0.0105
1630.01	0.0079
1639.66	0.00606
1649.3	0.00513
1658.95	0.00419
1668.59	0.00319
1678.24	0.00255
1687.88	0.00269
1697.53	0.00258
1707.17	0.0027
1716.82	0.0029
1726.46	0.00273
1736.11	0.00253
1745.75	0.0021
1755.4	0.00198
1765.04	0.00194
1774.69	0.00166
1784.33	0.00164
1793.98	0.00166
1803.62	0.00167
1813.27	0.00195
1822.91	0.00273
1832.55	0.0032
1842.2	0.00268
1851.84	0.0022
1861.49	0.00224
1871.13	0.0021
1880.78	0.0017
1890.42	0.00141
1900.07	0.00146
1909.71	0.00161
1919.36	0.00179
1929	0.00203
1938.65	0.00301
1948.29	0.00335
1957.94	0.00246
1967.58	0.00248
1977.23	0.00257
1986.87	0.00187
1996.52	0.00127
2006.16	0.00121
2015.81	0.00134
2025.45	0.00131
2035.1	0.00133
2044.74	0.00123
2054.38	0.0011
2064.03	0.00115
2073.67	0.00113
2083.32	0.0012
2092.96	0.00104
2102.61	0.00113
2112.25	0.00122
2121.9	0.00129
2131.54	0.00121
2141.19	0.00122
2150.83	0.00116
2160.48	0.0012
2170.12	0.00122
2179.77	0.0013
2189.41	0.00125
2199.06	0.00122
2208.7	0.00114
2218.35	0.00118
2227.99	0.00107
2237.64	0.00118
2247.28	0.00111
2256.92	0.00112
2266.57	0.00115
2276.21	0.00115
2285.86	0.00109
2295.5	0.00134
2305.15	0.00135
2314.79	0.00131
2324.44	0.00144
2334.08	0.00154
2343.73	0.00168
2353.37	0.00116
2363.02	0.00113
2372.66	0.00105
2382.31	0.0011
2391.95	0.0015
2401.6	0.00167
2411.24	0.0017
2420.89	0.00146
2430.53	0.00135
2440.18	0.00138
2449.82	0.00124
2459.47	0.00098
2469.11	0.00095
2478.75	0.00113
2488.4	0.00096
2498.04	0.00095
2507.69	0.00098
2517.33	0.00087
2526.98	0.00089
2536.62	0.00094
2546.27	0.0009
2555.91	0.0011
2565.56	0.00101
2575.2	0.00118
2584.85	0.00109
2594.49	0.00113
2604.14	0.00131
2613.78	0.00129
2623.43	0.00152
2633.07	0.0019
2642.72	0.00238
2652.36	0.00282
2662.01	0.00221
2671.65	0.00203
2681.29	0.0018
2690.94	0.00191
2700.58	0.00207
2710.23	0.00213
2719.87	0.00166
2729.52	0.00135
2739.16	0.00133
2748.81	0.00115
2758.45	0.00091
2768.1	0.00079
2777.74	0.00098
2787.39	0.00092
2797.03	0.00111
2806.68	0.00093
2816.32	0.00094
2825.97	0.00099
2835.61	0.00105
2845.26	0.00119
2854.9	0.0014
2864.55	0.00175
2874.19	0.00188
2883.84	0.00226
2893.48	0.00287
2903.12	0.00375
2912.77	0.00389
2922.41	0.0028
2932.06	0.00236
2941.7	0.0016
2951.35	0.00145
2960.99	0.00109
2970.64	0.00102
2980.28	0.00102
2989.93	0.00121
2999.57	0.00114
3009.22	0.00146
3018.86	0.00148
3028.51	0.00163
3038.15	0.00197
3047.8	0.00168
3057.44	0.0017
3067.09	0.00197
3076.73	0.00427
3086.38	0.00704
3096.02	0.00511
3105.67	0.00297
3115.31	0.00169
3124.95	0.00117
3134.6	0.00101
3144.24	0.00113
3153.89	0.00121
3163.53	0.00121
3173.18	0.00104
3182.82	0.00088
3192.47	0.00081
3202.11	0.00048
3211.76	0.00074
3221.4	0.00041
3231.05	0.00039
3240.69	0.00053
3250.34	0.0004
3259.98	0.00041
3269.63	0.00077
3279.27	0.00057
3288.92	0.00046
3298.56	0.00046
3308.21	0.00073
3317.85	0.00043
3327.49	0.00057
3337.14	0.00043
3346.78	0.00054
3356.43	0.00036
3366.07	0.00054
3375.72	0.00061
3385.36	0.00031
3395.01	0.00052
3404.65	0.00065
3414.3	0.00044
3423.94	0.00069
3433.59	0.00027
3443.23	0.00049
3452.88	0.00044
3462.52	0.00033
3472.17	0.00053
3481.81	0.00036
3491.46	0.00033
3501.1	0.00057
3510.75	0.00033
3520.39	0.00067
3530.04	0.0006
3539.68	0.00055
3549.32	0.0006
3558.97	0.00042
3568.61	0.00067
3578.26	0.00043
3587.9	0.00046
3597.55	0.00043
3607.19	0.00048
3616.84	0.00056
3626.48	0.0007
3636.13	0.00062
3645.77	0.00045
3655.42	0.00097
3665.06	0.00058
3674.71	0.00089
3684.35	0.00091
3694	0.00073
3703.64	0.00084
3713.29	0.00054
3722.93	0.00082
3732.58	0.0009
3742.22	0.00079
3751.86	0.00066
3761.51	0.00069
3771.15	0.00058
3780.8	0.00068
3790.44	0.00071
3800.09	0.00073
3809.73	0.00049
3819.38	0.00104
3829.02	0.00037
3838.67	0.00049
3848.31	0.00031
3857.96	0.00066
3867.6	0.00084
3877.25	0.00094
3886.89	0.0004
3896.54	0.00072
3906.18	4e-05
3915.83	0.00047
3925.47	0.00061
3935.12	0.00057
3944.76	0.00107
3954.41	0.00048
3964.05	0.00082
3973.69	0.00068
3983.34	0.00075
3992.98	0.00068
