Infrared Spectrum: Benzyl 2-chloroethyl sulphide
Formula: C 9 H 11 Cl S
CAS: 4332-51-8
State: gas
Origin: EPA-IR VAPOR PHASE LIBRARY
1/CM	ABSORBANCE
549.8	0.0015116
559.445	0.003035
569.09	0.0017167
578.734	0.002695
588.379	0.001905
598.024	0.0011716
607.669	0.00084175
617.313	0.0009963
626.958	0.0017096
636.603	0.002715
646.248	0.003605
655.893	0.004655
665.537	0.005955
675.182	0.009195
684.827	0.014285
694.472	0.027065
704.116	0.038975
713.761	0.037275
723.406	0.016325
733.051	0.007405
742.695	0.006035
752.34	0.006745
761.985	0.007165
771.63	0.005455
781.275	0.003825
790.919	0.002885
800.564	0.001905
810.209	0.002075
819.854	0.002735
829.498	0.002965
839.143	0.002975
848.788	0.002875
858.433	0.0017116
868.078	0.002685
877.722	0.002635
887.367	0.002615
897.012	0.002925
906.657	0.002205
916.301	0.001935
925.946	0.002255
935.591	0.0016927
945.236	0.0017934
954.88	0.0015797
964.525	0.0010685
974.17	0.0010565
983.815	0.0014872
993.46	0.0015959
1003.1	0.002045
1012.75	0.002855
1022.39	0.003595
1032.04	0.004905
1041.68	0.002145
1051.33	0.0016712
1060.97	0.003335
1070.62	0.0014559
1080.26	0.003925
1089.91	0.0016023
1099.55	0.0015197
1109.2	0.0016765
1118.84	0.001835
1128.49	0.002515
1138.13	0.002325
1147.78	0.0012423
1157.42	0.0011631
1167.07	0.002065
1176.71	0.002805
1186.36	0.003305
1196	0.004535
1205.64	0.005685
1215.29	0.008205
1224.93	0.006175
1234.58	0.006485
1244.22	0.007135
1253.87	0.003505
1263.51	0.003645
1273.16	0.005475
1282.8	0.006705
1292.45	0.006025
1302.09	0.004725
1311.74	0.003355
1321.38	0.002615
1331.03	0.001885
1340.67	0.0016865
1350.32	0.00142
1359.96	0.0015359
1369.61	0.0013108
1379.25	0.0017103
1388.9	0.001625
1398.54	0.002245
1408.18	0.003085
1417.83	0.004565
1427.47	0.005715
1437.12	0.006285
1446.76	0.008065
1456.41	0.007125
1466.05	0.004215
1475.7	0.002785
1485.34	0.004925
1494.99	0.008845
1504.63	0.004575
1514.28	0.001985
1523.92	0.0014479
1533.57	0.0015007
1543.21	0.0014612
1552.86	0.001915
1562.5	0.001895
1572.15	0.0017081
1581.79	0.002325
1591.44	0.003205
1601.08	0.003755
1610.73	0.003115
1620.37	0.0015804
1630.01	0.001042
1639.66	0.00085806
1649.3	0.0011204
1658.95	0.00083761
1668.59	0.0012611
1678.24	0.0011434
1687.88	0.000648
1697.53	0.0011508
1707.17	0.0007253
1716.82	0.0008045
1726.46	0.00085915
1736.11	0.00087655
1745.75	0.0012629
1755.4	0.001214
1765.04	0.0011406
1774.69	0.0010749
1784.33	0.0015601
1793.98	0.002055
1803.62	0.0016515
1813.27	0.0012871
1822.91	0.001245
1832.55	0.0011075
1842.2	0.0009682
1851.84	0.0013323
1861.49	0.0015273
1871.13	0.0015013
1880.78	0.0015967
1890.42	0.0014412
1900.07	0.0012911
1909.71	0.0009736
1919.36	0.0011082
1929	0.0015791
1938.65	0.001855
1948.29	0.001677
1957.94	0.0018066
1967.58	0.0012134
1977.23	0.00084407
1986.87	0.0011454
1996.52	0.0009565
2006.16	0.0010095
2015.81	0.0010907
2025.45	0.000691
2035.1	0.00080906
2044.74	0.0009183
2054.38	0.0009246
2064.03	0.0011628
2073.67	0.000821598
2083.32	0.00090166
2092.96	0.0007815
2102.61	0.0008808
2112.25	0.0009897
2121.9	0.00081056
2131.54	0.0011505
2141.19	0.00088748
2150.83	0.00087915
2160.48	0.0011133
2170.12	0.001191
2179.77	0.00088972
2189.41	0.0009808
2199.06	0.0007898
2208.7	0.00087321
2218.35	0.001013
2227.99	0.0010616
2237.64	0.0010797
2247.28	0.0007987
2256.92	0.0010691
2266.57	0.0010564
2276.21	0.00083215
2285.86	0.0012196
2295.5	0.0010193
2305.15	0.0009455
2314.79	0.0010355
2324.44	0.0011561
2334.08	0.001038
2343.73	0.0011798
2353.37	0.0012246
2363.02	0.0007936
2372.66	0.00087153
2382.31	0.00084555
2391.95	0.000475
2401.6	0.0010802
2411.24	0.0011368
2420.89	0.0010119
2430.53	0.0011488
2440.18	0.0008682
2449.82	0.000638
2459.47	0.00090436
2469.11	0.0012701
2478.75	0.00084291
2488.4	0.00080595
2498.04	0.000988
2507.69	0.0011625
2517.33	0.0011604
2526.98	0.0008907
2536.62	0.0010948
2546.27	0.0012323
2555.91	0.0007229
2565.56	0.00083415
2575.2	0.0009344
2584.85	0.00088119
2594.49	0.0015763
2604.14	0.00086846
2613.78	0.0012348
2623.43	0.0009514
2633.07	0.00088169
2642.72	0.0009374
2652.36	0.0010548
2662.01	0.0011456
2671.65	0.000925
2681.29	0.0009503
2690.94	0.0009535
2700.58	0.000715
2710.23	0.0014806
2719.87	0.0013079
2729.52	0.0011709
2739.16	0.0010046
2748.81	0.0011109
2758.45	0.0009403
2768.1	0.0014707
2777.74	0.0016875
2787.39	0.0011173
2797.03	0.0013464
2806.68	0.0017976
2816.32	0.0014439
2825.97	0.002415
2835.61	0.002385
2845.26	0.002205
2854.9	0.002345
2864.55	0.002835
2874.19	0.002735
2883.84	0.002105
2893.48	0.003055
2903.12	0.004245
2912.77	0.006755
2922.41	0.009405
2932.06	0.008385
2941.7	0.007845
2951.35	0.008375
2960.99	0.008535
2970.64	0.006585
2980.28	0.005455
2989.93	0.004195
2999.57	0.003775
3009.22	0.005125
3018.86	0.007085
3028.51	0.010955
3038.15	0.011645
3047.8	0.006845
3057.44	0.007665
3067.09	0.012785
3076.73	0.013495
3086.38	0.008425
3096.02	0.006415
3105.67	0.003995
3115.31	0.003115
3124.95	0.001543
3134.6	0.0018093
3144.24	0.0013076
3153.89	0.00091327
3163.53	0.0012914
3173.18	0.0013897
3182.82	0.001708
3192.47	0.0011984
3202.11	0.000615
3211.76	0.001189
3221.4	0.000466
3231.05	0.001031
3240.69	0.0009826
3250.34	0.000278
3259.98	0.0007612
3269.63	0.000535
3279.27	0.0010856
3288.92	0.0011066
3298.56	0.0010581
3308.21	0.0014471
3317.85	0.00057
3327.49	0.00090081
3337.14	0.000613
3346.78	0.0009196
3356.43	0.00083884
3366.07	0.0010564
3375.72	0.0014253
3385.36	0.001678
3395.01	0.00058
3404.65	0.0011616
3414.3	0.000662
3423.94	0.0007976
3433.59	0.0013843
3443.23	0.000675
3452.88	0.001845
3462.52	0.000708
3472.17	0.001004
3481.81	0.0013017
3491.46	0.000576
3501.1	0.000595
3510.75	0.0010537
3520.39	0.0011245
3530.04	0.000303
3539.68	0.0010347
3549.32	0.000959
3558.97	0.0010097
3568.61	0.0016187
3578.26	0.00042
3587.9	0.001354
3597.55	0.0010871
3607.19	0.000738
3616.84	0.00087914
3626.48	0.00088863
3636.13	0.0012893
3645.77	0.0010951
3655.42	0.001815
3665.06	0.0009322
3674.71	0.000982
3684.35	0.0011777
3694	0.0014986
3703.64	0.0015088
3713.29	0.0011522
3722.93	0.0017456
3732.58	0.0016995
3742.22	0.001278
3751.86	0.0011853
3761.51	0.0014007
3771.15	0.0011168
3780.8	0.0010982
3790.44	0.0007762
3800.09	0.000584
3809.73	0.000926
3819.38	0.001845
3829.02	0.0011496
3838.67	9.6e-05
3848.31	0.0017073
3857.96	0.0007801
3867.6	0.0013671
3877.25	0.0011007
3886.89	0.0016831
3896.54	0.0012533
3906.18	0.000523
3915.83	0.000575
3925.47	0.000628
3935.12	0.001855
3944.76	0.0013761
3954.41	0.0009462
3964.05	0.0010458
3973.69	0.002115
3983.34	0.0014891
3992.98	0.0009364
