Infrared Spectrum: 3-Benzylidine-2,4-pentanedione
Formula: C 12 H 12 O 2
CAS: 4335-90-4
State: gas
Instrument: HP-GC/MS/IRD
Origin: NIST Mass Spectrometry Data Center
1/CM	ABSORBANCE
550	0.0109554
562	0.0077562
574	0.0033852
586	0.0053382
598	0.0070122
610	0.0038502
622	0.008091
634	0.0096906
646	0.0046686
658	0.0078306
670	0.015531
682	0.0265422
694	0.0453096
706	0.032457
718	0.0121086
730	0.0078864
742	0.0139686
754	0.0299274
766	0.0191766
778	0.0037386
790	0.0007254
802	0.0001488
814	0.0003534
826	0.000651
838	0.0005208
850	0.000837
862	0.0025668
874	0.0067518
886	0.0095232
898	0.0080166
910	0.0070122
922	0.0105834
934	0.0141174
946	0.0143964
958	0.0159402
970	0.0218178
982	0.0160146
994	0.0120714
1006	0.0120342
1018	0.0114018
1030	0.0137082
1042	0.0097278
1054	0.0084258
1066	0.0096906
1078	0.009579
1090	0.0071052
1102	0.0070308
1114	0.0070308
1126	0.0089094
1138	0.0153822
1150	0.0381672
1162	0.088536
1174	0.07905
1186	0.0687642
1198	0.082956
1210	0.0722982
1222	0.0973524
1234	0.115543
1246	0.0653604
1258	0.022413
1270	0.0153078
1282	0.0138198
1294	0.0153822
1306	0.0201066
1318	0.0217992
1330	0.0223944
1342	0.0349308
1354	0.0664764
1366	0.0840534
1378	0.0588504
1390	0.0364746
1402	0.0214458
1414	0.0194742
1426	0.0217062
1438	0.021948
1450	0.0201996
1462	0.0116436
1474	0.0097278
1486	0.0170562
1498	0.019716
1510	0.0095976
1522	0.0084258
1534	0.008463
1546	0.0093186
1558	0.01209
1570	0.0193068
1582	0.0245148
1594	0.0397668
1606	0.0547398
1618	0.0447516
1630	0.0230268
1642	0.0203856
1654	0.0259656
1666	0.0440262
1678	0.110317
1690	0.160016
1702	0.174747
1714	0.170971
1726	0.107452
1738	0.0468162
1750	0.0224502
1762	0.0146754
1774	0.0107322
1786	0.0082398
1798	0.0070494
1810	0.005208
1822	0.0035154
1834	0.0030318
1846	0.0030876
1858	0.0031806
1870	0.0030876
1882	0.0030504
1894	0.0029574
1906	0.0024924
1918	0.0019902
1930	0.0020274
1942	0.0027714
1954	0.0032364
1966	0.002325
1978	0.000837
1990	0.0005208
2002	0.0003906
2014	0.000372
2026	0.000372
2038	0.0004464
2050	0.0005022
2062	0.0004278
2074	0.0003162
2086	0.0001674
2098	0.0001302
2110	9.3e-05
2122	9.3e-05
2134	9.3e-05
2146	5.58e-05
2158	5.58e-05
2170	9.3e-05
2182	0.0001116
2194	0.0001116
2206	0.0001302
2218	0.000186
2230	0.0003162
2242	0.0003906
2254	0.0003348
2266	0.0002418
2278	0.000186
2290	0.0002232
2302	0.0003162
2314	0.0006882
2326	0.0006138
2338	0.0004836
2350	0.0005394
2362	0.0003534
2374	0.0002604
2386	0.0002418
2398	0.0001674
2410	7.44e-05
2422	7.44e-05
2434	1.86e-05
2446	0
2458	5.58e-05
2470	5.58e-05
2482	3.72e-05
2494	0.0001302
2506	0.000279
2518	0.000372
2530	0.0002976
2542	0.0002046
2554	0.0001674
2566	0.0001674
2578	0.0001488
2590	0.0002604
2602	0.0002232
2614	0.0001302
2626	7.44e-05
2638	9.3e-05
2650	9.3e-05
2662	0.0001302
2674	0.0002232
2686	0.0002232
2698	0.0002232
2710	7.44e-05
2722	7.44e-05
2734	0.0001302
2746	0.0001674
2758	0.0004092
2770	0.0005952
2782	0.0006696
2794	0.000651
2806	0.0007254
2818	0.0009672
2830	0.0012462
2842	0.0015066
2854	0.0015624
2866	0.0017112
2878	0.0018972
2890	0.0024552
2902	0.0029202
2914	0.0040734
2926	0.006417
2938	0.0068448
2950	0.00558
2962	0.0060264
2974	0.007719
2986	0.0082956
2998	0.0102114
3010	0.0159402
3022	0.020925
3034	0.0244218
3046	0.0172794
3058	0.0212784
3070	0.0368466
3082	0.0250356
3094	0.0169632
3106	0.0102114
3118	0.0052452
3130	0.002883
3142	0.0023064
3154	0.0018042
3166	0.0010416
3178	0.0007626
3190	0.0006882
3202	0.0005766
3214	0.0005766
3226	0.0005208
3238	0.000372
3250	0.0003348
3262	0.0003534
3274	0.0003162
3286	0.0004278
3298	0.0004836
3310	0.0006696
3322	0.0008928
3334	0.0014508
3346	0.0022134
3358	0.0021576
3370	0.0019902
3382	0.0024738
3394	0.0031992
3406	0.0030318
3418	0.002232
3430	0.0018228
3442	0.0013392
3454	0.0007068
3466	0.0004836
3478	0.0003348
3490	0.000279
3502	0.0001674
3514	9.3e-05
3526	9.3e-05
3538	9.3e-05
3550	9.3e-05
3562	9.3e-05
3574	9.3e-05
3586	9.3e-05
3598	9.3e-05
3610	0.0001116
3622	0.0001674
3634	0.0002046
3646	0.000372
3658	0.0002418
3670	0.0002418
3682	0.000186
3694	0.000279
3706	0.0002976
3718	0.0002046
3730	0.0002604
3742	0.0001488
3754	7.44e-05
3766	9.3e-05
3778	7.44e-05
3790	7.44e-05
3802	0.0001674
3814	0.0001674
3826	0.0002232
3838	0.0002232
