Infrared Spectrum: 2,2,4-TRIMETHYL-3-OXOVALERIC ACID, ISOPROPYL ESTER
Formula: C11 H20 O3
CAS: 4337-62-6
Boiling point: 113-116 C AT 36 mmHg
Class: COBLENTZ
Instrument: Not specified, most likely a prism, grating, or hybrid spectrometer.
Sampling: TRANSMISSION
Path length: SMEAR
Resolution: 4
Origin: TENNESSEE EASTMAN COMPANY, RESEARCH LABORATORIES
MICROMETERS	TRANSMITTANCE
2.048	0.926
2.08889	0.926
2.12979	0.93
2.17068	0.931
2.21158	0.923
2.25247	0.906
2.29336	0.904
2.33426	0.912
2.37515	0.914
2.41605	0.912
2.45694	0.916
2.49783	0.926
2.53873	0.928
2.57962	0.928
2.62052	0.931
2.66141	0.935
2.70231	0.935
2.7432	0.935
2.78409	0.936
2.82499	0.936
2.86588	0.931
2.90678	0.894
2.94767	0.918
2.98856	0.924
3.02946	0.926
3.07035	0.924
3.11125	0.914
3.15214	0.907
3.19303	0.914
3.23393	0.916
3.27482	0.894
3.31572	0.568
3.35661	0.421
3.3975	0.494
3.4384	0.595
3.47929	0.848
3.52019	0.872
3.56108	0.907
3.60198	0.919
3.64287	0.921
3.68376	0.928
3.72466	0.933
3.76555	0.936
3.80645	0.94
3.84734	0.941
3.88823	0.943
3.92913	0.941
3.97002	0.941
4.01092	0.941
4.05181	0.943
4.0927	0.945
4.1336	0.94
4.17449	0.94
4.21539	0.948
4.25628	0.97
4.29717	0.96
4.33807	0.945
4.37896	0.945
4.41986	0.952
4.46075	0.955
4.50165	0.953
4.54254	0.955
4.58343	0.959
4.62433	0.957
4.66522	0.955
4.70612	0.952
4.74701	0.955
4.7879	0.959
4.8288	0.962
4.86969	0.953
4.91059	0.953
4.95148	0.953
4.99237	0.959
5.03327	0.957
5.07416	0.957
5.11506	0.96
5.15595	0.957
5.19684	0.953
5.23774	0.953
5.27863	0.955
5.31953	0.953
5.36042	0.952
5.40132	0.941
5.44221	0.933
5.4831	0.924
5.524	0.902
5.56489	0.877
5.60579	0.827
5.64668	0.742
5.68757	0.539
5.72847	0.242
5.76936	0.228
5.81026	0.127
5.85115	0.216
5.89204	0.491
5.93294	0.627
5.97383	0.716
6.01473	0.802
6.05562	0.834
6.09651	0.856
6.13741	0.88
6.1783	0.897
6.2192	0.912
6.26009	0.921
6.30099	0.924
6.34188	0.921
6.38277	0.912
6.42367	0.901
6.46456	0.877
6.50546	0.892
6.54635	0.873
6.58724	0.86
6.62814	0.843
6.66903	0.807
6.70993	0.687
6.75082	0.412
6.79171	0.344
6.83261	0.416
6.8735	0.52
6.9144	0.631
6.95529	0.752
6.99618	0.8
7.03708	0.807
7.07797	0.803
7.11887	0.745
7.15976	0.515
7.20066	0.312
7.24155	0.37
7.28244	0.467
7.32334	0.539
7.36423	0.686
7.40513	0.663
7.44602	0.66
7.48691	0.706
7.52781	0.778
7.5687	0.805
7.6096	0.805
7.65049	0.767
7.69138	0.709
7.73228	0.636
7.77317	0.52
7.81407	0.351
7.85496	0.273
7.89585	0.232
7.93675	0.221
7.97764	0.288
8.01854	0.441
8.05943	0.556
8.10033	0.622
8.14122	0.634
8.18211	0.622
8.22301	0.616
8.2639	0.612
8.3048	0.627
8.34569	0.597
8.38658	0.515
8.42748	0.38
8.46837	0.344
8.50927	0.327
8.55016	0.262
8.59105	0.187
8.63195	0.177
8.67284	0.257
8.71374	0.331
8.75463	0.455
8.79552	0.518
8.83642	0.535
8.87731	0.496
8.91821	0.385
8.9591	0.237
9	0.16
9.04089	0.196
9.08178	0.308
9.12268	0.375
9.16357	0.511
9.20447	0.619
9.24536	0.679
9.28625	0.709
9.32715	0.73
9.36804	0.732
9.40894	0.73
9.44983	0.703
9.49072	0.648
9.53162	0.529
9.57251	0.329
9.61341	0.24
9.6543	0.302
9.69519	0.443
9.73609	0.544
9.77698	0.587
9.81788	0.626
9.85877	0.629
9.89967	0.537
9.94056	0.397
9.98145	0.431
10.0223	0.612
10.0632	0.718
10.1041	0.779
10.145	0.81
10.1859	0.822
10.2268	0.831
10.2677	0.831
10.3086	0.819
10.3495	0.798
10.3904	0.781
10.4313	0.752
10.4722	0.697
10.5131	0.648
10.554	0.641
10.5949	0.687
10.6358	0.73
10.6767	0.755
10.7175	0.767
10.7584	0.759
10.7993	0.767
10.8402	0.754
10.8811	0.732
10.922	0.721
10.9629	0.674
11.0038	0.627
11.0447	0.721
11.0856	0.817
11.1265	0.853
11.1674	0.87
11.2083	0.866
11.2492	0.825
11.2901	0.74
11.331	0.598
11.3719	0.59
11.4127	0.706
11.4536	0.822
11.4945	0.861
11.5354	0.873
11.5763	0.87
11.6172	0.841
11.6581	0.796
11.699	0.752
11.7399	0.791
11.7808	0.841
11.8217	0.872
11.8626	0.89
11.9035	0.894
11.9444	0.883
11.9853	0.844
12.0262	0.79
12.0671	0.778
12.1079	0.755
12.1488	0.713
12.1897	0.708
12.2306	0.757
12.2715	0.82
12.3124	0.849
12.3533	0.87
12.3942	0.883
12.4351	0.89
12.476	0.894
12.5169	0.895
12.5578	0.899
12.5987	0.899
12.6396	0.899
12.6805	0.892
12.7214	0.883
12.7623	0.866
12.8031	0.844
12.844	0.829
12.8849	0.829
12.9258	0.831
12.9667	0.831
13.0076	0.822
13.0485	0.812
13.0894	0.822
13.1303	0.841
13.1712	0.853
13.2121	0.86
13.253	0.86
13.2939	0.861
13.3348	0.861
13.3757	0.86
13.4166	0.858
13.4575	0.851
13.4983	0.849
13.5392	0.843
13.5801	0.843
13.621	0.843
13.6619	0.839
13.7028	0.839
13.7437	0.839
13.7846	0.839
13.8255	0.837
13.8664	0.836
13.9073	0.832
13.9482	0.832
13.9891	0.827
14.03	0.824
14.0709	0.822
14.1118	0.817
14.1527	0.813
14.1935	0.81
14.2344	0.807
14.2753	0.802
14.3162	0.798
14.3571	0.795
14.398	0.791
14.4389	0.784
14.4798	0.779
14.5207	0.774
14.5616	0.767
14.6025	0.759
14.6434	0.752
14.6843	0.747
14.7252	0.733
14.7661	0.721
14.807	0.706
14.8478	0.689
14.8887	0.674
14.9296	0.665
14.9705	0.655
15.0114	0.653
15.0523	0.658
15.0932	0.662
15.1341	0.662
15.175	0.662
15.2159	0.656
15.2568	0.651
15.2977	0.65
15.3386	0.643
15.3795	0.641
15.4204	0.641
15.4613	0.639
15.5022	0.639
15.543	0.639
15.5839	0.639
15.6248	0.638
15.6657	0.638
15.7066	0.638
15.7475	0.636
15.7884	0.634
15.8293	0.634
15.8702	0.634
15.9111	0.631
15.952	0.631
15.9929	0.631
