Infrared Spectrum: 3-Methyl-1-hexyn-3-ol
Formula: C 7 H 12 O
CAS: 4339-05-3
State: gas
Instrument: HP-GC/MS/IRD
Origin: NIST Mass Spectrometry Data Center
1/CM	ABSORBANCE
550	0.0014388
562	0.0014784
574	0.0010764
586	0.00075
598	0.0009492
610	0.0013092
622	0.004476
634	0.0092496
646	0.0084204
658	0.00651
670	0.00246
682	0.0004752
694	0.0001644
706	0.0002448
718	0.0002292
730	0.0002172
742	0.0003372
754	0.000264
766	0.0001284
778	0.0001644
790	0.0001464
802	8.04e-05
814	7.08e-05
826	4.56e-05
838	0.0001452
850	0.0004092
862	0.0007152
874	0.0008076
886	0.0010128
898	0.0013008
910	0.0018384
922	0.0025632
934	0.002844
946	0.0023316
958	0.0013584
970	0.0006456
982	0.0004716
994	0.0008208
1006	0.0017856
1018	0.0026436
1030	0.0025896
1042	0.0022068
1054	0.0019212
1066	0.0016644
1078	0.0015744
1090	0.0017028
1102	0.0021924
1114	0.0031212
1126	0.0045348
1138	0.005418
1150	0.0052452
1162	0.004878
1174	0.0039156
1186	0.0029232
1198	0.0022752
1210	0.0019248
1222	0.001908
1234	0.0022416
1246	0.0036984
1258	0.0046836
1270	0.0041412
1282	0.0033768
1294	0.0031308
1306	0.0033516
1318	0.0036744
1330	0.0036648
1342	0.0034236
1354	0.00312
1366	0.0031428
1378	0.0030156
1390	0.0020664
1402	0.0010608
1414	0.0007596
1426	0.0008712
1438	0.0013404
1450	0.0018432
1462	0.0018984
1474	0.001428
1486	0.000756
1498	0.0003444
1510	0.000216
1522	0.0001644
1534	0.0001032
1546	9.48e-05
1558	7.32e-05
1570	7.68e-05
1582	1.56e-05
1594	3.48e-05
1606	2.28e-05
1618	6.72e-05
1630	6.48e-05
1642	1.68e-05
1654	6.36e-05
1666	1.44e-05
1678	4.32e-05
1690	2.64e-05
1702	6.24e-05
1714	5.64e-05
1726	4.2e-05
1738	3.96e-05
1750	2.52e-05
1762	3.6e-05
1774	3.12e-05
1786	3.84e-05
1798	7.2e-05
1810	3.84e-05
1822	4.2e-05
1834	3.96e-05
1846	2.76e-05
1858	3.96e-05
1870	4.68e-05
1882	3.96e-05
1894	4.8e-06
1906	6e-06
1918	2.76e-05
1930	4.56e-05
1942	5.16e-05
1954	5.28e-05
1966	4.44e-05
1978	1.92e-05
1990	7.2e-06
2002	8.4e-06
2014	2.52e-05
2026	2.52e-05
2038	3e-05
2050	3.96e-05
2062	8.16e-05
2074	5.4e-05
2086	5.16e-05
2098	5.52e-05
2110	7.56e-05
2122	3.84e-05
2134	4.32e-05
2146	3.84e-05
2158	2.04e-05
2170	6e-06
2182	4.2e-05
2194	3.84e-05
2206	6.36e-05
2218	2.16e-05
2230	4.2e-05
2242	3.6e-05
2254	6.36e-05
2266	5.76e-05
2278	4.08e-05
2290	6.48e-05
2302	6.36e-05
2314	3.48e-05
2326	4.2e-05
2338	5.16e-05
2350	6.24e-05
2362	4.92e-05
2374	4.2e-05
2386	8.4e-05
2398	9.36e-05
2410	8.52e-05
2422	6.36e-05
2434	7.92e-05
2446	8.28e-05
2458	6e-05
2470	3.72e-05
2482	6e-05
2494	4.92e-05
2506	7.2e-05
2518	8.28e-05
2530	9.48e-05
2542	5.4e-05
2554	4.44e-05
2566	8.04e-05
2578	8.16e-05
2590	0.0001188
2602	0.000108
2614	0.0001092
2626	0.0001344
2638	0.0001356
2650	0.0001476
2662	0.0001176
2674	0.0001884
2686	0.0001776
2698	0.0001968
2710	0.0001764
2722	0.0002448
2734	0.000276
2746	0.0002832
2758	0.0003144
2770	0.000282
2782	0.0002844
2794	0.0003408
2806	0.0004296
2818	0.0005964
2830	0.0007788
2842	0.00114
2854	0.001614
2866	0.0025392
2878	0.0042828
2890	0.0047484
2902	0.004224
2914	0.0049908
2926	0.006948
2938	0.0092616
2950	0.01008
2962	0.0110532
2974	0.0118788
2986	0.0095328
2998	0.0059328
3010	0.002484
3022	0.0011688
3034	0.0008256
3046	0.0006396
3058	0.000504
3070	0.0004236
3082	0.0003528
3094	0.0003156
3106	0.000306
3118	0.0002424
3130	0.0002424
3142	0.0002208
3154	0.0002052
3166	0.0002004
3178	0.0001908
3190	0.0002016
3202	0.0001536
3214	0.0001416
3226	0.0001452
3238	0.0001848
3250	0.0002052
3262	0.0002808
3274	0.000594
3286	0.0011484
3298	0.0022452
3310	0.0041136
3322	0.0058248
3334	0.0047136
3346	0.0011904
3358	0.0004428
3370	0.0002364
3382	0.0001248
3394	0.000114
3406	0.0001116
3418	4.92e-05
3430	7.08e-05
3442	7.8e-05
3454	6.12e-05
3466	0.0001008
3478	4.56e-05
3490	0.0001008
3502	0.0001452
3514	8.28e-05
3526	6.36e-05
3538	9.24e-05
3550	8.16e-05
3562	5.4e-05
3574	2.04e-05
3586	2.4e-05
3598	8.04e-05
3610	0.0001872
3622	0.0007164
3634	0.0019812
3646	0.002406
3658	0.001104
3670	0.000318
3682	9.72e-05
3694	7.2e-05
3706	1.2e-06
3718	3.84e-05
3730	4.8e-06
3742	5.04e-05
3754	3.96e-05
3766	5.64e-05
3778	3.84e-05
3790	9.36e-05
3802	8.4e-05
3814	8.64e-05
3826	4.8e-06
3838	2.76e-05
