Infrared Spectrum: 2-Amino-6-fluorobenzoic acid
Formula: C 7 H 6 F N O 2
CAS: 434-76-4
State: gas
Origin: EPA-IR VAPOR PHASE LIBRARY
1/CM	ABSORBANCE
549.8	0.01429
559.445	0.01533
569.09	0.01666
578.734	0.01912
588.379	0.0167
598.024	0.01156
607.669	0.00847
617.313	0.00746
626.958	0.00693
636.603	0.00631
646.248	0.00558
655.893	0.00646
665.537	0.00695
675.182	0.00781
684.827	0.01048
694.472	0.01708
704.116	0.02149
713.761	0.01332
723.406	0.0076
733.051	0.00646
742.695	0.00597
752.34	0.00745
761.985	0.00953
771.63	0.00732
781.275	0.00622
790.919	0.00968
800.564	0.01413
810.209	0.01583
819.854	0.0101
829.498	0.00529
839.143	0.00459
848.788	0.00465
858.433	0.0048
868.078	0.00494
877.722	0.00518
887.367	0.00411
897.012	0.00396
906.657	0.00384
916.301	0.00418
925.946	0.00428
935.591	0.00388
945.236	0.00414
954.88	0.00407
964.525	0.00439
974.17	0.00499
983.815	0.00609
993.46	0.00982
1003.1	0.01054
1012.75	0.00863
1022.39	0.00648
1032.04	0.00805
1041.68	0.01019
1051.33	0.0114
1060.97	0.01192
1070.62	0.01215
1080.26	0.01762
1089.91	0.02744
1099.55	0.02406
1109.2	0.01478
1118.84	0.01183
1128.49	0.01546
1138.13	0.01502
1147.78	0.01281
1157.42	0.01276
1167.07	0.01556
1176.71	0.02173
1186.36	0.02634
1196	0.02043
1205.64	0.01034
1215.29	0.00698
1224.93	0.00776
1234.58	0.00671
1244.22	0.00795
1253.87	0.0126
1263.51	0.01619
1273.16	0.01824
1282.8	0.01735
1292.45	0.01394
1302.09	0.01146
1311.74	0.01111
1321.38	0.01664
1331.03	0.02648
1340.67	0.03248
1350.32	0.02895
1359.96	0.023
1369.61	0.01983
1379.25	0.0144
1388.9	0.01088
1398.54	0.00876
1408.18	0.00593
1417.83	0.00415
1427.47	0.00386
1437.12	0.00428
1446.76	0.00701
1456.41	0.01783
1466.05	0.03489
1475.7	0.0324
1485.34	0.01263
1494.99	0.00568
1504.63	0.00481
1514.28	0.00481
1523.92	0.00539
1533.57	0.00656
1543.21	0.0088
1552.86	0.01244
1562.5	0.01583
1572.15	0.01818
1581.79	0.02429
1591.44	0.03721
1601.08	0.04502
1610.73	0.04454
1620.37	0.05001
1630.01	0.04564
1639.66	0.02449
1649.3	0.0111
1658.95	0.0069
1668.59	0.00569
1678.24	0.00648
1687.88	0.0083
1697.53	0.01177
1707.17	0.02525
1716.82	0.04628
1726.46	0.05187
1736.11	0.03886
1745.75	0.02961
1755.4	0.02315
1765.04	0.01733
1774.69	0.01328
1784.33	0.00793
1793.98	0.00526
1803.62	0.00458
1813.27	0.00367
1822.91	0.00275
1832.55	0.00274
1842.2	0.00246
1851.84	0.00227
1861.49	0.00227
1871.13	0.00218
1880.78	0.00229
1890.42	0.0024
1900.07	0.00226
1909.71	0.00265
1919.36	0.00252
1929	0.0020539
1938.65	0.0020829
1948.29	0.0017954
1957.94	0.0018324
1967.58	0.0020924
1977.23	0.0018285
1986.87	0.0018961
1996.52	0.0020469
2006.16	0.0018214
2015.81	0.0015731
2025.45	0.0017971
2035.1	0.0015666
2044.74	0.0019676
2054.38	0.0020171
2064.03	0.0019127
2073.67	0.0015123
2083.32	0.0016798
2092.96	0.0016838
2102.61	0.0017585
2112.25	0.0018185
2121.9	0.0017976
2131.54	0.0018786
2141.19	0.0017395
2150.83	0.0018527
2160.48	0.002053
2170.12	0.0017898
2179.77	0.00218
2189.41	0.0017908
2199.06	0.001591
2208.7	0.0016448
2218.35	0.0019344
2227.99	0.0019314
2237.64	0.0017334
2247.28	0.0016447
2256.92	0.0014491
2266.57	0.001685
2276.21	0.0016778
2285.86	0.00222
2295.5	0.0019682
2305.15	0.0021551
2314.79	0.0019221
2324.44	0.0020325
2334.08	0.0020698
2343.73	0.002054
2353.37	0.00231
2363.02	0.0021759
2372.66	0.0022
2382.31	0.0021761
2391.95	0.0020303
2401.6	0.0018591
2411.24	0.0017539
2420.89	0.0019465
2430.53	0.0017008
2440.18	0.001697
2449.82	0.0017113
2459.47	0.0014552
2469.11	0.0013284
2478.75	0.0016062
2488.4	0.0016045
2498.04	0.0012922
2507.69	0.0016206
2517.33	0.0015192
2526.98	0.0015658
2536.62	0.00126341
2546.27	0.0013663
2555.91	0.0017644
2565.56	0.00121851
2575.2	0.0017095
2584.85	0.0016503
2594.49	0.0016016
2604.14	0.0016457
2613.78	0.0016326
2623.43	0.0014336
2633.07	0.001592
2642.72	0.0016644
2652.36	0.0017311
2662.01	0.0013148
2671.65	0.00120648
2681.29	0.0017288
2690.94	0.0014949
2700.58	0.0014256
2710.23	0.0012833
2719.87	0.0015508
2729.52	0.0020873
2739.16	0.001328
2748.81	0.001648
2758.45	0.0017462
2768.1	0.0018509
2777.74	0.0018218
2787.39	0.0014997
2797.03	0.001642
2806.68	0.0019761
2816.32	0.0017191
2825.97	0.0013511
2835.61	0.0013156
2845.26	0.0015542
2854.9	0.001728
2864.55	0.0013018
2874.19	0.0018184
2883.84	0.001603
2893.48	0.0015238
2903.12	0.0016961
2912.77	0.0013247
2922.41	0.0014611
2932.06	0.0014996
2941.7	0.0014366
2951.35	0.0012885
2960.99	0.0017601
2970.64	0.0015773
2980.28	0.0016198
2989.93	0.0013393
2999.57	0.0018609
3009.22	0.0021561
3018.86	0.0016975
3028.51	0.00237
3038.15	0.00321
3047.8	0.0035
3057.44	0.00377
3067.09	0.00402
3076.73	0.00342
3086.38	0.00255
3096.02	0.00267
3105.67	0.00221
3115.31	0.0016777
3124.95	0.0017623
3134.6	0.0013317
3144.24	0.0014907
3153.89	0.0014578
3163.53	0.000858
3173.18	0.0016672
3182.82	0.0016824
3192.47	0.0018382
3202.11	0.0011295
3211.76	0.0017087
3221.4	0.0013747
3231.05	0.0018408
3240.69	0.0018405
3250.34	0.0013886
3259.98	0.0015883
3269.63	0.000793
3279.27	0.0017783
3288.92	0.0019609
3298.56	0.0019879
3308.21	0.00276
3317.85	0.00305
3327.49	0.00332
3337.14	0.00323
3346.78	0.00394
3356.43	0.00532
3366.07	0.00794
3375.72	0.01033
3385.36	0.01242
3395.01	0.01068
3404.65	0.00709
3414.3	0.00392
3423.94	0.00328
3433.59	0.00331
3443.23	0.0022
3452.88	0.00235
3462.52	0.0020079
3472.17	0.00331
3481.81	0.00309
3491.46	0.00384
3501.1	0.00598
3510.75	0.00926
3520.39	0.01155
3530.04	0.00887
3539.68	0.00463
3549.32	0.00351
3558.97	0.009
3568.61	0.02028
3578.26	0.01905
3587.9	0.0099
3597.55	0.00912
3607.19	0.00692
3616.84	0.00331
3626.48	0.0017036
3636.13	0.0017736
3645.77	0.0014663
3655.42	0.0015985
3665.06	0.000946
3674.71	0.001019
3684.35	0.00122158
3694	0.000739
3703.64	0.001043
3713.29	0.0011859
3722.93	0.0010804
3732.58	0.0016275
3742.22	0.0011783
3751.86	0.001035
3761.51	0.000758
3771.15	0.0010845
3780.8	0.0011173
3790.44	0.000989
3800.09	0.001042
3809.73	0.0014098
3819.38	0.00121363
3829.02	0.0016246
3838.67	0.000927
3848.31	0.001314
3857.96	0.00064
3867.6	0.001051
3877.25	0.0013066
3886.89	0.0011192
3896.54	0.00121431
3906.18	0.0014135
3915.83	0.00123756
3925.47	0.000859
3935.12	0.0015279
3944.76	0.0015733
3954.41	0.001038
3964.05	0.0016171
3973.69	0.000847
3983.34	0.0011313
3992.98	0
