Infrared Spectrum: 2-Chloro-6-fluorobenzoic acid
Formula: C 7 H 4 Cl F O 2
CAS: 434-75-3
State: gas
Origin: EPA-IR VAPOR PHASE LIBRARY
1/CM	ABSORBANCE
549.8	0.04224
559.445	0.03384
569.09	0.03787
578.735	0.03565
588.38	0.02241
598.025	0.01118
607.67	0.00785
617.315	0.00598
626.96	0.00586
636.605	0.00596
646.251	0.0099
655.896	0.02721
665.541	0.03192
675.186	0.01311
684.831	0.00707
694.476	0.00941
704.121	0.01241
713.766	0.01534
723.411	0.01854
733.056	0.02079
742.701	0.02047
752.346	0.01629
761.991	0.01954
771.636	0.03018
781.281	0.03697
790.926	0.03376
800.571	0.01663
810.216	0.00756
819.861	0.00524
829.507	0.0038
839.152	0.00265
848.797	0.0025
858.442	0.00268
868.087	0.00338
877.732	0.00537
887.377	0.01211
897.022	0.03969
906.667	0.07932
916.312	0.0637
925.957	0.01435
935.602	0.00624
945.247	0.00484
954.892	0.00426
964.537	0.00454
974.182	0.00331
983.827	0.00251
993.472	0.0028
1003.12	0.00364
1012.76	0.00413
1022.41	0.00465
1032.05	0.00723
1041.7	0.0205
1051.34	0.03635
1060.99	0.02498
1070.63	0.01611
1080.28	0.04078
1089.92	0.0831
1099.57	0.06759
1109.21	0.03565
1118.86	0.02491
1128.5	0.01939
1138.15	0.01649
1147.79	0.01964
1157.44	0.03188
1167.08	0.06964
1176.73	0.09641
1186.37	0.07256
1196.02	0.0529
1205.66	0.03172
1215.31	0.01707
1224.95	0.01309
1234.6	0.01436
1244.24	0.02794
1253.89	0.05316
1263.53	0.05293
1273.18	0.03256
1282.82	0.03229
1292.47	0.03866
1302.11	0.04219
1311.76	0.03522
1321.4	0.02812
1331.05	0.02578
1340.69	0.02296
1350.34	0.02176
1359.98	0.02554
1369.63	0.02211
1379.27	0.01071
1388.92	0.00504
1398.56	0.00386
1408.21	0.00419
1417.85	0.00526
1427.5	0.00926
1437.14	0.02581
1446.79	0.06975
1456.43	0.09342
1466.08	0.05167
1475.73	0.01959
1485.37	0.01029
1495.02	0.00724
1504.66	0.00581
1514.31	0.00646
1523.95	0.00669
1533.6	0.00572
1543.24	0.00543
1552.89	0.00824
1562.53	0.02094
1572.18	0.04941
1581.82	0.06186
1591.47	0.04597
1601.11	0.05021
1610.76	0.0401
1620.4	0.0179
1630.05	0.00675
1639.69	0.0041
1649.34	0.00321
1658.98	0.00315
1668.63	0.00335
1678.27	0.00388
1687.92	0.00472
1697.56	0.00472
1707.21	0.00472
1716.85	0.00684
1726.5	0.01464
1736.14	0.02564
1745.79	0.02898
1755.43	0.03814
1765.08	0.0985
1774.72	0.20687
1784.37	0.18871
1794.01	0.07688
1803.66	0.03819
1813.3	0.02883
1822.95	0.01363
1832.59	0.00817
1842.24	0.00713
1851.88	0.00597
1861.53	0.00491
1871.17	0.00368
1880.82	0.00248
1890.46	0.0019288
1900.11	0.0017748
1909.75	0.0019335
1919.4	0.00311
1929.04	0.00338
1938.69	0.0023
1948.33	0.0017836
1957.98	0.0018994
1967.62	0.0016111
1977.27	0.0013524
1986.91	0.0012289
1996.56	0.00120234
2006.2	0.00111552
2015.85	0.001007
2025.49	0.000918
2035.14	0.000911
2044.78	0.000901
2054.43	0.00085
2064.07	0.000831
2073.72	0.000834
2083.36	0.000823
2093.01	0.000948
2102.65	0.0010305
2112.3	0.00110672
2121.94	0.0012189
2131.59	0.0013184
2141.23	0.0015541
2150.88	0.0016174
2160.52	0.0017345
2170.17	0.0017443
2179.81	0.0016224
2189.46	0.0014057
2199.1	0.00115603
2208.75	0.0010668
2218.39	0.0010616
2228.04	0.0010681
2237.68	0.0010206
2247.33	0.0010377
2256.97	0.0010852
2266.62	0.00116734
2276.26	0.0010832
2285.91	0.0010672
2295.55	0.0012453
2305.2	0.0014326
2314.84	0.0014486
2324.49	0.0014886
2334.13	0.0014773
2343.78	0.0015967
2353.42	0.0018475
2363.07	0.00222
2372.72	0.002022
2382.36	0.0014764
2392.01	0.00116951
2401.65	0.0010451
2411.3	0.0010587
2420.94	0.0010148
2430.59	0.0010769
2440.23	0.00110366
2449.88	0.00110086
2459.52	0.0010918
2469.17	0.0010339
2478.81	0.0010501
2488.46	0.0010772
2498.1	0.0013306
2507.75	0.0015101
2517.39	0.0013548
2527.04	0.00115321
2536.68	0.0010259
2546.33	0.000871
2555.97	0.000727
2565.62	0.000666
2575.26	0.000608
2584.91	0.000578
2594.55	0.000612
2604.2	0.000715
2613.84	0.000576
2623.49	0.000558
2633.13	0.000567
2642.78	0.000567
2652.42	0.000479
2662.07	0.000381
2671.71	0.00041
2681.36	0.000487
2691	0.000546
2700.65	0.000676
2710.29	0.000868
2719.94	0.000773
2729.58	0.000654
2739.23	0.000656
2748.87	0.000485
2758.52	0.000427
2768.16	0.000424
2777.81	0.000376
2787.45	0.000305
2797.1	0.000342
2806.74	0.000373
2816.39	0.000317
2826.03	0.000409
2835.68	0.000445
2845.32	0.00047
2854.97	0.000593
2864.61	0.000743
2874.26	0.000704
2883.9	0.000499
2893.55	0.000406
2903.19	0.00044
2912.84	0.000282
2922.48	0.000196
2932.13	0.000237
2941.77	0.000244
2951.42	0.000349
2961.06	0.000434
2970.71	0.000561
2980.35	0.000526
2990	0.000651
2999.64	0.000884
3009.29	0.0012394
3018.93	0.0012148
3028.58	0.000789
3038.22	0.000554
3047.87	0.000616
3057.51	0.000795
3067.16	0.0019717
3076.8	0.00336
3086.45	0.00353
3096.09	0.00232
3105.74	0.000884
3115.38	0.000414
3125.03	0.000328
3134.67	0.000357
3144.32	0.000401
3153.96	0.000391
3163.61	0.00028
3173.25	0.0003
3182.9	0.000128
3192.54	0.000278
3202.19	0.000335
3211.83	0.000209
3221.48	0.000295
3231.12	0.00011
3240.77	0.00017
3250.41	1e-05
3260.06	0.000147
3269.7	9e-05
3279.35	0.000134
3289	0.000237
3298.64	0.00011
3308.29	0.00017
3317.93	0.0001
3327.58	0.000159
3337.22	0.000313
3346.87	0.000138
3356.51	0.000194
3366.16	0.000251
3375.8	0.000342
3385.45	0.000338
3395.09	0.000333
3404.74	0.000402
3414.38	0.000514
3424.03	0.000568
3433.67	0.000272
3443.32	0.000336
3452.96	0.000422
3462.61	0.000413
3472.25	0.000563
3481.9	0.000839
3491.54	0.000933
3501.19	0.0010549
3510.83	0.00117873
3520.48	0.0019177
3530.12	0.00317
3539.77	0.00487
3549.41	0.01397
3559.06	0.05997
3568.7	0.07664
3578.35	0.03251
3587.99	0.00564
3597.64	0.00298
3607.28	0.00259
3616.93	0.00253
3626.57	0.0019062
3636.22	0.0016161
3645.86	0.00120999
3655.51	0.0010214
3665.15	0.000843
3674.8	0.000746
3684.44	0.000707
3694.09	0.000872
3703.73	0.0007
3713.38	0.000666
3723.02	0.000691
3732.67	0.000654
3742.31	0.000612
3751.96	0.000551
3761.6	0.000572
3771.25	0.000588
3780.89	0.000477
3790.54	0.000614
3800.18	0.000481
3809.83	0.000401
3819.47	0.000602
3829.12	0.000527
3838.76	0.0005
3848.41	0.000868
3858.05	0.000577
3867.7	0.000425
3877.34	0.000553
3886.99	0.000355
3896.63	0.000574
3906.28	0.000599
3915.92	0.000465
3925.57	0.000538
3935.21	0.000404
3944.86	0.00053
3954.5	0.000551
3964.15	0.000609
3973.79	0.000517
3983.44	0.000745
3993.08	0.000846
