Infrared Spectrum: Ethyl 2-butynoate
Formula: C 6 H 8 O 2
CAS: 4341-76-8
State: gas
Instrument: HP-GC/MS/IRD
Origin: NIST Mass Spectrometry Data Center
1/CM	ABSORBANCE
550	0.000174
562	0.0004437
574	0.0004611
586	1.74e-05
598	7.83e-05
610	3.48e-05
622	1.74e-05
634	0.0001218
646	0.0001653
658	0.000261
670	0.0002088
682	0.0002436
694	0.0002175
706	0.0001827
718	0.0002697
730	0.0007656
742	0.0018096
754	0.0028971
766	0.002523
778	0.001653
790	0.0010962
802	0.0009048
814	0.0009918
826	0.0012093
838	0.0013311
850	0.0010962
862	0.0009222
874	0.0006699
886	0.0004176
898	0.0003132
910	0.0003915
922	0.0003915
934	0.0003393
946	0.0002871
958	0.0003915
970	0.0004959
982	0.0007308
994	0.0010701
1006	0.0013398
1018	0.001479
1030	0.001827
1042	0.0035496
1054	0.0105531
1066	0.0231594
1078	0.0228027
1090	0.0110403
1102	0.0064728
1114	0.0028797
1126	0.0017226
1138	0.0015573
1150	0.0018444
1162	0.0022011
1174	0.0025665
1186	0.0027492
1198	0.0037149
1210	0.0068991
1222	0.0161646
1234	0.0429345
1246	0.0832242
1258	0.0710529
1270	0.0225069
1282	0.0081519
1294	0.0052896
1306	0.0042804
1318	0.0032625
1330	0.0025143
1342	0.0020184
1354	0.0023838
1366	0.0041151
1378	0.0035409
1390	0.0021054
1402	0.0020793
1414	0.0020619
1426	0.00174
1438	0.0017835
1450	0.0021315
1462	0.0027318
1474	0.0026883
1486	0.0019053
1498	0.0014703
1510	0.001131
1522	0.0009048
1534	0.0007569
1546	0.0006351
1558	0.0006438
1570	0.0005829
1582	0.0005046
1594	0.0004524
1606	0.0004872
1618	0.0005655
1630	0.0006873
1642	0.0008265
1654	0.0009483
1666	0.0010266
1678	0.0015138
1690	0.0028188
1702	0.0062292
1714	0.0151641
1726	0.0308328
1738	0.0344085
1750	0.0229419
1762	0.008613
1774	0.0025839
1786	0.001131
1798	0.000783
1810	0.0006264
1822	0.0005307
1834	0.0004089
1846	0.0003393
1858	0.000261
1870	0.0002349
1882	0.0002001
1894	0.0002175
1906	0.0002523
1918	0.0003219
1930	0.000435
1942	0.0003915
1954	0.0002523
1966	0.000174
1978	0.0001305
1990	0.0001305
2002	0.0001218
2014	0.0001653
2026	0.0002349
2038	0.0002784
2050	0.0003567
2062	0.0003741
2074	0.0004002
2086	0.0003654
2098	0.0003915
2110	0.0003045
2122	0.0003219
2134	0.0003132
2146	0.0003045
2158	0.0003045
2170	0.0003915
2182	0.0006873
2194	0.0013485
2206	0.0027753
2218	0.0054549
2230	0.0086391
2242	0.0094134
2254	0.0072297
2266	0.0046719
2278	0.0024447
2290	0.0015486
2302	0.0016878
2314	0.001914
2326	0.0015747
2338	0.0008352
2350	0.0003828
2362	0.0003132
2374	0.0002871
2386	0.0002523
2398	0.0001914
2410	0.000174
2422	0.0001566
2434	0.0001653
2446	0.0001827
2458	0.0001914
2470	0.0001827
2482	0.0001827
2494	0.0001566
2506	0.0001218
2518	6.96e-05
2530	4.35e-05
2542	3.48e-05
2554	5.22e-05
2566	4.35e-05
2578	5.22e-05
2590	8.7e-06
2602	6.09e-05
2614	3.48e-05
2626	3.48e-05
2638	1.74e-05
2650	2.61e-05
2662	2.61e-05
2674	2.61e-05
2686	5.22e-05
2698	8.7e-05
2710	8.7e-05
2722	0.0001218
2734	0.0002088
2746	0.0002349
2758	0.000174
2770	0.0002088
2782	0.0001914
2794	0.0002175
2806	0.0002697
2818	0.0003132
2830	0.0003654
2842	0.0004524
2854	0.0007047
2866	0.0010788
2878	0.0014268
2890	0.0016008
2902	0.0017226
2914	0.0020271
2926	0.0029928
2938	0.0046023
2950	0.0042543
2962	0.00348
2974	0.004698
2986	0.0066381
2998	0.0056028
3010	0.0033321
3022	0.0019575
3034	0.0011049
3046	0.0008178
3058	0.0005481
3070	0.0005046
3082	0.000435
3094	0.000348
3106	0.0002523
3118	0.0002088
3130	0.0001392
3142	0.0001305
3154	0.0001566
3166	7.83e-05
3178	8.7e-05
3190	0.0001131
3202	7.83e-05
3214	8.7e-05
3226	6.09e-05
3238	5.22e-05
3250	5.22e-05
3262	6.09e-05
3274	3.48e-05
3286	4.35e-05
3298	5.22e-05
3310	5.22e-05
3322	6.96e-05
3334	6.09e-05
3346	4.35e-05
3358	4.35e-05
3370	2.61e-05
3382	8.7e-05
3394	6.96e-05
3406	8.7e-05
3418	0.0001914
3430	0.0003219
3442	0.0004611
3454	0.0005046
3466	0.0003915
3478	0.0002262
3490	0.0001566
3502	9.57e-05
3514	0.0001131
3526	8.7e-05
3538	4.35e-05
3550	5.22e-05
3562	1.74e-05
3574	2.61e-05
3586	8.7e-06
3598	1.74e-05
3610	5.22e-05
3622	4.35e-05
3634	2.61e-05
3646	3.48e-05
3658	5.22e-05
3670	6.96e-05
3682	5.22e-05
3694	6.96e-05
3706	5.22e-05
3718	6.09e-05
3730	9.57e-05
3742	6.96e-05
3754	6.09e-05
3766	5.22e-05
3778	8.7e-05
3790	4.35e-05
3802	7.83e-05
3814	9.57e-05
3826	0.0001305
3838	0.0001044
