Infrared Spectrum: 5-(3',3'-Dibutyl-1'-Triazeno)-1,2,3-Triazole-4-Carboxamide
Formula: C11 H21 N7 O
CAS: 4342-10-3
State: SOLID (1 mg / 650 mg KBr DISC)
Class: COBLENTZ III
Instrument: PERKIN-ELMER 221 (GRATING)
Instrument parameters: FILTER AT2490, 980 CM^-^1. GRATING 4000-1428 CM^-^1, NaCl PRISM 1428-650 CM^-^1
Sampling: TRANSMISSION
Resolution: 2
Origin: SOUTHERN RESEARCH INSTITUTE
1/CM	TRANSMITTANCE
637	0.4774
646	0.6821
655	0.8695
664	0.8749
673	0.8668
682	0.835
691	0.7868
700	0.8112
709	0.7433
718	0.8569
727	0.8107
736	0.7996
745	0.7769
754	0.8097
763	0.7501
772	0.7009
781	0.738
790	0.6906
799	0.5004
808	0.7247
817	0.7512
826	0.7308
835	0.7378
844	0.7476
853	0.7154
862	0.6701
871	0.6286
880	0.6313
889	0.6736
898	0.6798
907	0.6604
916	0.7526
925	0.752
934	0.7574
943	0.7467
952	0.6995
961	0.6968
970	0.5671
979	0.2242
988	0.5783
997	0.8486
1006	0.8298
1015	0.8191
1024	0.809
1033	0.7918
1042	0.7686
1051	0.7397
1060	0.6968
1069	0.689
1078	0.6167
1087	0.4821
1096	0.4042
1105	0.2794
1114	0.2683
1123	0.5283
1132	0.6685
1141	0.6016
1150	0.6767
1159	0.6266
1168	0.4674
1177	0.6594
1186	0.6496
1195	0.5676
1204	0.4854
1213	0.6329
1222	0.6603
1231	0.6595
1240	0.6081
1249	0.5502
1258	0.5133
1267	0.45
1276	0.4497
1285	0.4917
1294	0.3968
1303	0.303
1312	0.3503
1321	0.2987
1330	0.1979
1339	0.1979
1348	0.1356
1357	0.2038
1366	0.3605
1375	0.3983
1384	0.3309
1393	0.1867
1402	0.2274
1411	0.4299
1420	0.3411
1429	0.3691
1438	0.3544
1447	0.2615
1456	0.1834
1465	0.2955
1474	0.5307
1483	0.5561
1492	0.5125
1501	0.327
1510	0.295
1519	0.3979
1528	0.5868
1537	0.6897
1546	0.6865
1555	0.6668
1564	0.656
1573	0.6125
1582	0.5332
1591	0.4033
1600	0.2552
1609	0.2884
1618	0.419
1627	0.4499
1636	0.3719
1645	0.2383
1654	0.0993
1663	0.0449
1672	0.159
1681	0.3145
1690	0.47
1699	0.629
1708	0.6945
1717	0.7563
1726	0.783
1735	0.8041
1744	0.8186
1753	0.8299
1762	0.8385
1771	0.8427
1780	0.8457
1789	0.8493
1798	0.8723
1807	0.8788
1816	0.8829
1825	0.8857
1834	0.8878
1843	0.8895
1852	0.8906
1861	0.8911
1870	0.8922
1879	0.8928
1888	0.8928
1897	0.8924
1906	0.8914
1915	0.89
1924	0.8886
1933	0.8872
1942	0.8857
1951	0.8842
1960	0.8826
1969	0.881
1978	0.8794
1987	0.8778
1996	0.8762
2005	0.8744
2014	0.8725
2023	0.8706
2032	0.8686
2041	0.8667
2050	0.8648
2059	0.8629
2068	0.861
2077	0.8579
2086	0.8548
2095	0.8517
2104	0.8486
2113	0.8456
2122	0.8435
2131	0.8415
2140	0.8396
2149	0.8376
2158	0.8354
2167	0.833
2176	0.8307
2185	0.8277
2194	0.8239
2203	0.8201
2212	0.8163
2221	0.811
2230	0.8056
2239	0.8003
2248	0.7949
2257	0.7895
2266	0.7857
2275	0.782
2284	0.7783
2293	0.775
2302	0.7723
2311	0.7697
2320	0.767
2329	0.7635
2338	0.7597
2347	0.7559
2356	0.7522
2365	0.7495
2374	0.7476
2383	0.7447
2392	0.7381
2401	0.7323
2410	0.7267
2419	0.7215
2428	0.7162
2437	0.7109
2446	0.7055
2455	0.7005
2464	0.6955
2473	0.6905
2482	0.6851
2491	0.6793
2500	0.6736
2509	0.6665
2518	0.6593
2527	0.6514
2536	0.643
2545	0.6336
2554	0.6237
2563	0.6143
2572	0.6055
2581	0.5961
2590	0.5853
2599	0.5744
2608	0.5633
2617	0.552
2626	0.5414
2635	0.5312
2644	0.5214
2653	0.5094
2662	0.4973
2671	0.4847
2680	0.4737
2689	0.4652
2698	0.4541
2707	0.4404
2716	0.426
2725	0.4116
2734	0.3973
2743	0.3838
2752	0.3703
2761	0.3571
2770	0.3445
2779	0.3326
2788	0.3207
2797	0.3108
2806	0.3012
2815	0.2847
2824	0.2605
2833	0.2357
2842	0.2167
2851	0.2039
2860	0.2136
2869	0.2287
2878	0.232
2887	0.2233
2896	0.2138
2905	0.2022
2914	0.1764
2923	0.1781
2932	0.2073
2941	0.2139
2950	0.1997
2959	0.2419
2968	0.2642
2977	0.3303
2986	0.3501
2995	0.3486
3004	0.3461
3013	0.3431
3022	0.3387
3031	0.3331
3040	0.321
3049	0.3036
3058	0.292
3067	0.2884
3076	0.2877
3085	0.2873
3094	0.2867
3103	0.2861
3112	0.2855
3121	0.2851
3130	0.2848
3139	0.2846
3148	0.2848
3157	0.2867
3166	0.2906
3175	0.2973
3184	0.3072
3193	0.3233
3202	0.3452
3211	0.3848
3220	0.4385
3229	0.4836
3238	0.4817
3247	0.4775
3256	0.4692
3265	0.4652
3274	0.4792
3283	0.5203
3292	0.5325
3301	0.5133
3310	0.4699
3319	0.4325
3328	0.3999
3337	0.3561
3346	0.2809
3355	0.2366
3364	0.2427
3373	0.2682
3382	0.3364
3391	0.3982
3400	0.4559
3409	0.4922
3418	0.5292
3427	0.5655
3436	0.5993
3445	0.6243
3454	0.6491
3463	0.6707
3472	0.6865
3481	0.6967
3490	0.7059
3499	0.7125
3508	0.7181
3517	0.7232
3526	0.7274
3535	0.7315
3544	0.735
3553	0.7384
3562	0.7409
3571	0.7505
3580	0.7588
3589	0.7616
3598	0.7632
3607	0.7642
3616	0.7654
3625	0.7667
3634	0.7682
3643	0.7699
3652	0.7717
3661	0.7732
3670	0.7745
3679	0.7745
3688	0.7735
3697	0.7711
3706	0.7688
3715	0.7666
3724	0.7645
3733	0.7629
3742	0.7614
3751	0.761
3760	0.7608
3769	0.7605
3778	0.7595
3787	0.7585
3796	0.7575
3805	0.756
3814	0.7543
3823	0.7526
3832	0.751
3841	0.7498
3850	0.7485
3859	0.7473
3868	0.7468
3877	0.7463
3886	0.7458
3895	0.7453
3904	0.7449
3913	0.7445
3922	0.7439
3931	0.7431
3940	0.7423
3949	0.7418
3958	0.7415
3967	0.7412
3976	0.7416
3985	0.7424
3994	0.7433
