Infrared Spectrum: (1H)-1,2,3-Triazole-4-carboxamide,5-amino-1-benzyl-
Formula: C10 H11 N5 O
CAS: 4342-08-9
State: SOLID (0.8 mg / 650 mg KBr DISC)
Class: COBLENTZ III
Instrument: PERKIN-ELMER 21 (GRATING)
Instrument parameters: FILTER CHANGE ABOUT 1090 CM^-^1
Sampling: TRANSMISSION
Resolution: 2
Origin: SOUTHERN RESEARCH INSTITUTE
1/CM	TRANSMITTANCE
598	0.4838
607.045	0.4805
616.09	0.4793
625.135	0.4807
634.18	0.4864
643.225	0.4834
652.27	0.4689
661.315	0.4477
670.36	0.4577
679.405	0.4392
688.45	0.3974
697.495	0.3213
706.54	0.4801
715.585	0.476
724.63	0.4303
733.675	0.2478
742.72	0.2971
751.765	0.4435
760.81	0.4674
769.855	0.5477
778.9	0.5336
787.945	0.4216
796.99	0.4666
806.035	0.417
815.08	0.5342
824.125	0.5603
833.17	0.6094
842.215	0.603
851.26	0.6003
860.305	0.6145
869.35	0.6082
878.395	0.6043
887.44	0.6034
896.485	0.5778
905.53	0.5844
914.575	0.6026
923.62	0.6043
932.665	0.5925
941.71	0.5531
950.755	0.5758
959.8	0.5909
968.845	0.5807
977.89	0.5781
986.935	0.5503
995.98	0.5332
1005.02	0.4829
1014.07	0.4765
1023.12	0.4944
1032.16	0.5102
1041.2	0.5465
1050.25	0.5381
1059.3	0.5107
1068.34	0.4637
1077.38	0.4813
1086.43	0.4518
1095.47	0.4888
1104.52	0.5114
1113.57	0.5221
1122.61	0.5177
1131.65	0.5185
1140.7	0.5236
1149.74	0.5178
1158.79	0.5035
1167.84	0.4971
1176.88	0.493
1185.92	0.5013
1194.97	0.5004
1204.01	0.4736
1213.06	0.4687
1222.11	0.4427
1231.15	0.3893
1240.19	0.3262
1249.24	0.2737
1258.28	0.3891
1267.33	0.4011
1276.38	0.4796
1285.42	0.4981
1294.46	0.4512
1303.51	0.5083
1312.55	0.529
1321.6	0.5089
1330.64	0.5075
1339.69	0.5582
1348.73	0.5604
1357.78	0.5254
1366.82	0.512
1375.87	0.5371
1384.91	0.5181
1393.96	0.4971
1403	0.4741
1412.05	0.4368
1421.09	0.3803
1430.14	0.3781
1439.18	0.3966
1448.23	0.4475
1457.27	0.423
1466.32	0.5333
1475.36	0.5206
1484.41	0.4914
1493.45	0.4302
1502.5	0.384
1511.55	0.3673
1520.59	0.3025
1529.63	0.3651
1538.68	0.408
1547.72	0.3838
1556.77	0.3361
1565.82	0.2414
1574.86	0.2519
1583.9	0.2483
1592.95	0.2106
1601.99	0.2102
1611.04	0.2141
1620.09	0.1813
1629.13	0.1445
1638.17	0.1466
1647.22	0.2025
1656.26	0.1364
1665.31	0.1755
1674.35	0.2849
1683.4	0.3997
1692.44	0.4748
1701.49	0.5497
1710.53	0.5752
1719.58	0.6076
1728.62	0.6387
1737.67	0.6637
1746.71	0.6824
1755.76	0.7126
1764.8	0.7357
1773.85	0.7529
1782.89	0.7604
1791.94	0.7639
1800.98	0.7658
1810.03	0.7683
1819.07	0.7689
1828.12	0.7682
1837.16	0.7674
1846.21	0.7651
1855.25	0.761
1864.3	0.7532
1873.34	0.7601
1882.39	0.7597
1891.43	0.7548
1900.48	0.7527
1909.52	0.7519
1918.57	0.7508
1927.61	0.7496
1936.66	0.7473
1945.7	0.7418
1954.75	0.7341
1963.79	0.7329
1972.84	0.7371
1981.88	0.735
1990.93	0.7341
1999.97	0.7379
2009.02	0.7421
2018.06	0.7359
2027.11	0.7301
2036.15	0.7258
2045.2	0.7236
2054.24	0.7234
2063.29	0.7238
2072.34	0.7222
2081.38	0.7214
2090.43	0.7216
2099.47	0.7216
2108.51	0.721
2117.56	0.7206
2126.6	0.7198
2135.65	0.7183
2144.69	0.715
2153.74	0.7119
2162.78	0.7081
2171.83	0.7064
2180.88	0.705
2189.92	0.7036
2198.97	0.7019
2208.01	0.7001
2217.05	0.6982
2226.1	0.6957
2235.14	0.6929
2244.19	0.692
2253.23	0.6921
2262.28	0.6925
2271.32	0.6852
2280.37	0.6872
2289.41	0.6825
2298.46	0.6703
2307.51	0.6649
2316.55	0.6614
2325.59	0.6631
2334.64	0.6664
2343.68	0.6667
2352.73	0.6664
2361.77	0.6658
2370.82	0.6656
2379.86	0.6659
2388.91	0.6668
2397.95	0.6684
2407	0.6694
2416.05	0.6699
2425.09	0.6661
2434.13	0.6624
2443.18	0.6607
2452.22	0.662
2461.27	0.6618
2470.31	0.6595
2479.36	0.6547
2488.4	0.6473
2497.45	0.6419
2506.49	0.6406
2515.54	0.6421
2524.59	0.6444
2533.63	0.647
2542.67	0.646
2551.72	0.6381
2560.76	0.6325
2569.81	0.6312
2578.85	0.6304
2587.9	0.6304
2596.94	0.6316
2605.99	0.633
2615.03	0.6309
2624.08	0.6264
2633.12	0.6208
2642.17	0.618
2651.21	0.6165
2660.26	0.614
2669.3	0.6115
2678.35	0.6067
2687.39	0.6039
2696.44	0.6033
2705.48	0.6031
2714.53	0.6037
2723.57	0.6037
2732.62	0.6038
2741.66	0.6039
2750.71	0.6024
2759.75	0.5954
2768.8	0.5822
2777.84	0.5769
2786.89	0.5785
2795.93	0.5793
2804.98	0.5737
2814.02	0.5735
2823.07	0.5682
2832.11	0.5602
2841.16	0.5583
2850.2	0.5582
2859.25	0.5588
2868.29	0.5594
2877.34	0.5598
2886.38	0.5598
2895.43	0.551
2904.47	0.5373
2913.52	0.5276
2922.56	0.5217
2931.61	0.5178
2940.65	0.5155
2949.7	0.5144
2958.74	0.5143
2967.79	0.5143
2976.83	0.5126
2985.88	0.5087
2994.92	0.4991
3003.97	0.4887
3013.01	0.4803
3022.06	0.4732
3031.1	0.467
3040.15	0.4654
3049.19	0.4622
3058.24	0.4569
3067.28	0.4505
3076.33	0.4432
3085.37	0.4316
3094.42	0.4205
3103.46	0.4107
3112.51	0.3977
3121.55	0.3805
3130.6	0.3588
3139.64	0.3399
3148.69	0.3256
3157.73	0.3272
3166.78	0.3303
3175.82	0.3281
3184.87	0.3237
3193.91	0.3244
3202.96	0.3219
3212	0.3305
3221.05	0.3302
3230.09	0.3241
3239.14	0.3153
3248.18	0.3057
3257.23	0.295
3266.27	0.2828
3275.32	0.2653
3284.36	0.2607
3293.41	0.2583
3302.45	0.2588
3311.5	0.2735
3320.54	0.2996
3329.59	0.3225
3338.63	0.3487
3347.68	0.3703
3356.72	0.3777
3365.77	0.3743
3374.81	0.362
3383.86	0.344
3392.9	0.3223
3401.95	0.2911
3410.99	0.2613
3420.04	0.2422
3429.08	0.2462
3438.13	0.2842
3447.17	0.3387
3456.22	0.4208
3465.26	0.4575
3474.31	0.4827
3483.35	0.5083
3492.4	0.5191
3501.44	0.5288
3510.49	0.5366
3519.53	0.5496
3528.58	0.5576
3537.62	0.5647
3546.67	0.5687
3555.71	0.5751
3564.76	0.5856
3573.8	0.5943
3582.85	0.6012
3591.89	0.6069
3600.94	0.6109
3609.98	0.6153
3619.03	0.6206
3628.07	0.6267
3637.12	0.6324
3646.16	0.6387
3655.21	0.6465
3664.25	0.6481
3673.3	0.6478
3682.34	0.647
3691.39	0.6463
3700.43	0.645
3709.48	0.6436
3718.52	0.6425
3727.57	0.6414
3736.61	0.641
3745.66	0.6402
3754.7	0.6391
3763.75	0.638
3772.79	0.6369
3781.84	0.6358
3790.88	0.6344
3799.93	0.633
3808.97	0.6313
3818.02	0.6264
3827.06	0.6247
3836.11	0.6237
3845.15	0.6192
3854.2	0.6163
3863.24	0.6157
3872.29	0.6157
3881.33	0.6161
3890.38	0.6171
3899.42	0.6183
3908.47	0.6203
3917.51	0.6213
3926.56	0.6212
3935.6	0.6206
3944.65	0.6185
3953.69	0.619
3962.74	0.6194
3971.78	0.6134
3980.83	0.613
3989.87	0.6188
3998.92	0.6115
4007.96	0.6126
