Infrared Spectrum: Disilane, 1,2-dichloro-1,1,2,2-tetramethyl-,
Formula: C4 H12 Cl2 Si2
CAS: 4342-61-4
State: SOLUTION (10% CCl4 FOR 3800-1300, 3% CS2 FOR 1300-600, AND 10% CCl4 FOR 600-240)
Class: COBLENTZ III
Instrument: PERKIN-ELMER 521 (GRATING)
Instrument parameters: FILTERS AT 3150, 2500, 2000, 1150, 700, 410. GRATING CHANGES: 2000, 630
Path length: 0.011 CM, 0.011 CM, AND 0.020 CM
Resolution: 2
Origin: DOW CORNING CORP.
1/CM	TRANSMITTANCE
236	0.8991
245	0.8984
254	0.8945
263	0.8895
272	0.8838
281	0.8754
290	0.8705
299	0.8687
308	0.8606
317	0.8561
326	0.8476
335	0.8303
344	0.816
353	0.7993
362	0.7892
371	0.7743
380	0.732
389	0.5785
398	0.7065
407	0.7347
416	0.7302
425	0.7159
434	0.6868
443	0.6432
452	0.4652
461	0.0791
470	0.0262
479	0.0578
488	0.356
497	0.4818
506	0.3731
515	0.2164
524	0.2901
533	0.4984
542	0.5137
551	0.6343
560	0.6694
569	0.6754
578	0.6729
587	0.6701
596	0.7179
605	0.9563
614	0.9525
623	0.9204
632	0.8784
641	0.8554
650	0.7983
659	0.4901
668	0.6706
677	0.7599
686	0.8006
695	0.7968
704	0.8312
713	0.8277
722	0.8198
731	0.8349
740	0.8254
749	0.8094
758	0.7454
767	0.3898
776	0.1509
785	0.2222
794	0.6086
803	0.6114
812	0.6548
821	0.6199
830	0.2818
839	0.6546
848	0.795
857	0.837
866	0.8586
875	0.8708
884	0.8765
893	0.8822
902	0.8876
911	0.89
920	0.8916
929	0.8934
938	0.8955
947	0.8949
956	0.8939
965	0.8933
974	0.8925
983	0.8913
992	0.8879
1001	0.8834
1010	0.8774
1019	0.8697
1028	0.8611
1037	0.8553
1046	0.8523
1055	0.857
1064	0.8681
1073	0.8788
1082	0.8903
1091	0.9024
1100	0.9092
1109	0.9153
1118	0.9216
1127	0.9303
1136	0.9406
1145	0.9417
1154	0.9371
1163	0.932
1172	0.9278
1181	0.9241
1190	0.9202
1199	0.9148
1208	0.9051
1217	0.893
1226	0.8735
1235	0.8188
1244	0.5704
1253	0.5641
1262	0.8448
1271	0.8953
1280	0.9076
1289	0.9106
1298	0.9064
1307	0.8838
1316	0.8824
1325	0.8748
1334	0.8689
1343	0.8651
1352	0.8601
1361	0.8411
1370	0.815
1379	0.7677
1388	0.5035
1397	0.3969
1406	0.6703
1415	0.7899
1424	0.8061
1433	0.8153
1442	0.818
1451	0.8473
1460	0.8616
1469	0.8688
1478	0.8761
1487	0.8841
1496	0.8926
1505	0.9022
1514	0.9116
1523	0.9217
1532	0.932
1541	0.9309
1550	0.9246
1559	0.917
1568	0.9106
1577	0.9061
1586	0.904
1595	0.9004
1604	0.8974
1613	0.8964
1622	0.8959
1631	0.8952
1640	0.8951
1649	0.899
1658	0.9031
1667	0.903
1676	0.9032
1685	0.9033
1694	0.9033
1703	0.9035
1712	0.9038
1721	0.9041
1730	0.9043
1739	0.9044
1748	0.9048
1757	0.9051
1766	0.9055
1775	0.9057
1784	0.9056
1793	0.9056
1802	0.9059
1811	0.9064
1820	0.907
1829	0.9069
1838	0.9066
1847	0.9065
1856	0.9063
1865	0.9064
1874	0.9048
1883	0.9011
1892	0.8931
1901	0.8822
1910	0.8605
1919	0.8685
1928	0.8717
1937	0.8818
1946	0.8855
1955	0.8971
1964	0.9003
1973	0.9014
1982	0.9019
1991	0.9036
2000	0.906
2009	0.8978
2018	0.8946
2027	0.904
2036	0.9147
2045	0.9153
2054	0.9161
2063	0.9167
2072	0.9174
2081	0.9181
2090	0.9187
2099	0.9191
2108	0.9197
2117	0.9198
2126	0.9199
2135	0.92
2144	0.9202
2153	0.9205
2162	0.9208
2171	0.9211
2180	0.9215
2189	0.922
2198	0.9226
2207	0.9232
2216	0.9238
2225	0.9243
2234	0.9249
2243	0.9255
2252	0.9262
2261	0.927
2270	0.9276
2279	0.9286
2288	0.9305
2297	0.9324
2306	0.9335
2315	0.933
2324	0.9323
2333	0.9304
2342	0.9282
2351	0.9257
2360	0.9232
2369	0.9215
2378	0.9199
2387	0.9183
2396	0.9172
2405	0.9161
2414	0.915
2423	0.9139
2432	0.9127
2441	0.9116
2450	0.9104
2459	0.9092
2468	0.908
2477	0.9068
2486	0.9083
2495	0.9116
2504	0.9123
2513	0.9116
2522	0.911
2531	0.9104
2540	0.9099
2549	0.9094
2558	0.9089
2567	0.9083
2576	0.9077
2585	0.9071
2594	0.9065
2603	0.9053
2612	0.9042
2621	0.9029
2630	0.9002
2639	0.8989
2648	0.8999
2657	0.9006
2666	0.9003
2675	0.8999
2684	0.8988
2693	0.8973
2702	0.8961
2711	0.895
2720	0.8947
2729	0.8939
2738	0.8921
2747	0.8884
2756	0.88
2765	0.87
2774	0.8559
2783	0.8523
2792	0.8626
2801	0.8679
2810	0.8673
2819	0.8641
2828	0.8591
2837	0.8528
2846	0.8462
2855	0.8365
2864	0.8265
2873	0.8135
2882	0.7877
2891	0.7303
2900	0.7643
2909	0.7995
2918	0.7982
2927	0.7905
2936	0.7709
2945	0.6989
2954	0.5016
2963	0.4446
2972	0.5995
2981	0.794
2990	0.8289
2999	0.8509
3008	0.8537
3017	0.8543
3026	0.8547
3035	0.855
3044	0.8553
3053	0.8545
3062	0.8545
3071	0.855
3080	0.8555
3089	0.8563
3098	0.8571
3107	0.858
3116	0.8594
3125	0.8607
3134	0.8621
3143	0.8633
3152	0.8646
3161	0.8658
3170	0.867
3179	0.8678
3188	0.8687
3197	0.8697
3206	0.8711
3215	0.8725
3224	0.8761
3233	0.8801
3242	0.8841
3251	0.8853
3260	0.886
3269	0.8864
3278	0.8868
3287	0.8872
3296	0.8877
3305	0.8882
3314	0.8887
3323	0.8888
3332	0.8885
3341	0.8882
3350	0.888
3359	0.8877
3368	0.8878
3377	0.8881
3386	0.8885
3395	0.8887
3404	0.8891
3413	0.8894
3422	0.8897
3431	0.8899
3440	0.8901
3449	0.8903
3458	0.8905
3467	0.8907
3476	0.8909
3485	0.8911
3494	0.8913
3503	0.8933
3512	0.8936
3521	0.8936
3530	0.8938
3539	0.8914
3548	0.8888
3557	0.8876
3566	0.8865
3575	0.8859
3584	0.8855
3593	0.8852
3602	0.8851
3611	0.8849
3620	0.8842
3629	0.8832
3638	0.8784
3647	0.8798
3656	0.8756
3665	0.8724
3674	0.8718
3683	0.8715
3692	0.8714
3701	0.8721
3710	0.8734
3719	0.8748
3728	0.8763
3737	0.8788
3746	0.8855
3755	0.8897
3764	0.8879
3773	0.8846
3782	0.8831
3791	0.8837
3800	0.8869
