Infrared Spectrum: IMIDAZOLE-4-CARBOXAMIDE, 5-(3,3-DIMETHYL-1-TRIAZENO)-
Formula: C6 H10 N6 O
CAS: 4342-03-4
State: SOLID (1 mg / 500 mg KBr DISC)
Class: COBLENTZ III
Instrument: PERKIN-ELMER 521 (GRATING)
Sampling: TRANSMISSION
Resolution: 4
Origin: SOUTHERN RESEARCH INSTITUTE
1/CM	TRANSMITTANCE
252.197	0.307
262.742	0.4029
273.287	0.4869
283.832	0.57
294.376	0.662
304.921	0.726
315.466	0.743
326.011	0.73
336.556	0.713
347.101	0.766
357.646	0.867
368.19	0.902
378.735	0.913
389.28	0.908
399.825	0.886
410.37	0.879
420.915	0.867
431.46	0.877
442.004	0.868
452.549	0.83
463.094	0.865
473.639	0.867
484.184	0.855
494.729	0.833
505.274	0.797
515.818	0.75
526.363	0.708
536.908	0.679
547.453	0.679
557.998	0.703
568.543	0.783
579.088	0.826
589.632	0.851
600.177	0.847
610.722	0.835
621.267	0.81
631.812	0.595
642.357	0.7708
652.902	0.85
663.446	0.931
673.991	0.913
684.536	0.858
695.081	0.879
705.626	0.931
716.171	0.985
726.716	0.99
737.261	0.99
747.805	0.984
758.35	0.978
768.895	0.975
779.44	0.909
789.985	0.8372
800.53	0.877
811.075	0.947
821.619	0.95
832.164	0.944
842.709	0.931
853.254	0.905
863.799	0.839
874.344	0.856
884.889	0.818
895.433	0.808
905.978	0.8039
916.523	0.868
927.068	0.868
937.613	0.843
948.158	0.813
958.703	0.741
969.247	0.831
979.792	0.848
990.337	0.85
1000.88	0.858
1011.43	0.851
1021.97	0.837
1032.52	0.814
1043.06	0.747
1053.61	0.721
1064.15	0.5831
1074.7	0.398
1085.24	0.664
1095.79	0.737
1106.33	0.717
1116.88	0.783
1127.42	0.808
1137.97	0.796
1148.51	0.787
1159.05	0.784
1169.6	0.773
1180.14	0.738
1190.69	0.781
1201.23	0.779
1211.78	0.729
1222.32	0.657
1232.87	0.664
1243.41	0.737
1253.96	0.716
1264.5	0.72
1275.05	0.735
1285.59	0.695
1296.14	0.603
1306.68	0.59
1317.23	0.546
1327.77	0.419
1338.32	0.304
1348.86	0.312
1359.41	0.4
1369.95	0.388
1380.5	0.307
1391.04	0.562
1401.59	0.314
1412.13	0.507
1422.68	0.467
1433.22	0.423
1443.77	0.434
1454.31	0.572
1464.86	0.4789
1475.4	0.337
1485.95	0.429
1496.49	0.542
1507.04	0.519
1517.58	0.6881
1528.12	0.805
1538.67	0.76
1549.21	0.739
1559.76	0.741
1570.3	0.737
1580.85	0.6261
1591.39	0.478
1601.94	0.304
1612.48	0.3831
1623.03	0.503
1633.57	0.3701
1644.12	0.183
1654.66	0.111
1665.21	0.3181
1675.75	0.6511
1686.3	0.852
1696.84	0.931
1707.39	0.968
1717.93	0.978
1728.48	0.976
1739.02	0.977
1749.57	0.969
1760.11	0.975
1770.66	0.978
1781.2	0.977
1791.75	0.963
1802.29	0.959
1812.84	0.954
1823.38	0.944
1833.93	0.936
1844.47	0.921
1855.02	0.919
1865.56	0.918
1876.11	0.914
1886.65	0.901
1897.19	0.893
1907.74	0.896
1918.28	0.902
1928.83	0.911
1939.37	0.917
1949.92	0.927
1960.46	0.932
1971.01	0.936
1981.55	0.936
1992.1	0.935
2002.64	0.935
2013.19	0.935
2023.73	0.938
2034.28	0.938
2044.82	0.939
2055.37	0.939
2065.91	0.939
2076.46	0.938
2087	0.938
2097.55	0.936
2108.09	0.936
2118.64	0.935
2129.18	0.934
2139.73	0.932
2150.27	0.9272
2160.82	0.9211
2171.36	0.918
2181.91	0.915
2192.45	0.913
2203	0.908
2213.54	0.9023
2224.09	0.8961
2234.63	0.8863
2245.18	0.8813
2255.72	0.8773
2266.27	0.873
2276.81	0.8632
2287.35	0.8542
2297.9	0.8472
2308.44	0.8372
2318.99	0.8262
2329.53	0.8096
2340.08	0.7987
2350.62	0.7879
2361.17	0.78
2371.71	0.7775
2382.26	0.7735
2392.8	0.7685
2403.35	0.767
2413.89	0.7633
2424.44	0.7503
2434.98	0.75
2445.53	0.75
2456.07	0.743
2466.62	0.7316
2477.16	0.724
2487.71	0.7123
2498.25	0.7017
2508.8	0.6897
2519.34	0.6843
2529.89	0.675
2540.43	0.67
2550.98	0.6641
2561.52	0.663
2572.07	0.6634
2582.61	0.6636
2593.16	0.659
2603.7	0.658
2614.25	0.6586
2624.79	0.6676
2635.34	0.675
2645.88	0.681
2656.42	0.6876
2666.97	0.6966
2677.51	0.7
2688.06	0.6959
2698.6	0.6839
2709.15	0.6755
2719.69	0.6644
2730.24	0.6535
2740.78	0.647
2751.33	0.6425
2761.87	0.65
2772.42	0.6505
2782.96	0.6415
2793.51	0.6509
2804.05	0.6699
2814.6	0.679
2825.14	0.6859
2835.69	0.692
2846.23	0.691
2856.78	0.681
2867.32	0.6786
2877.87	0.671
2888.41	0.6636
2898.96	0.6624
2909.5	0.6674
2920.05	0.672
2930.59	0.668
2941.14	0.667
2951.68	0.667
2962.23	0.6727
2972.77	0.681
2983.32	0.688
2993.86	0.683
3004.41	0.6913
3014.95	0.695
3025.49	0.699
3036.04	0.699
3046.58	0.699
3057.13	0.6951
3067.67	0.685
3078.22	0.6787
3088.76	0.6707
3099.31	0.6545
3109.85	0.6352
3120.4	0.616
3130.94	0.5798
3141.49	0.5608
3152.03	0.5523
3162.58	0.5298
3173.12	0.5322
3183.67	0.5474
3194.21	0.5554
3204.76	0.5704
3215.3	0.5952
3225.85	0.6364
3236.39	0.6406
3246.94	0.6283
3257.48	0.603
3268.03	0.6095
3278.57	0.624
3289.12	0.6219
3299.66	0.6087
3310.21	0.6033
3320.75	0.613
3331.3	0.6048
3341.84	0.5624
3352.39	0.5059
3362.93	0.4311
3373.48	0.3706
3384.02	0.3672
3394.56	0.4021
3405.11	0.4464
3415.65	0.4953
3426.2	0.5342
3436.74	0.5754
3447.29	0.6111
3457.83	0.6391
3468.38	0.6591
3478.92	0.683
3489.47	0.704
3500.01	0.718
3510.56	0.739
3521.1	0.755
3531.65	0.775
3542.19	0.791
3552.74	0.8119
3563.28	0.8229
3573.83	0.8459
3584.37	0.855
3594.92	0.8729
3605.46	0.8919
3616.01	0.911
3626.55	0.9229
3637.1	0.9319
3647.64	0.9341
3658.19	0.934
3668.73	0.934
3679.28	0.9398
3689.82	0.9498
3700.37	0.951
3710.91	0.952
3721.46	0.952
3732	0.9501
3742.55	0.95
3753.09	0.95
3763.63	0.948
3774.18	0.9462
3784.72	0.94
3795.27	0.938
3805.81	0.936
3816.36	0.935
3826.9	0.9342
3837.45	0.934
3847.99	0.932
3858.54	0.932
3869.08	0.932
3879.63	0.93
3890.17	0.929
3900.72	0.927
3911.26	0.9263
3921.81	0.925
3932.35	0.926
3942.9	0.9284
3953.44	0.9256
3963.99	0.922
3974.53	0.922
3985.08	0.922
3995.62	0.922
