Infrared Spectrum: Indoxylbutyrate
Formula: C 12 H 13 N O 2
CAS: 4346-15-0
State: gas
Origin: EPA-IR VAPOR PHASE LIBRARY
1/CM	ABSORBANCE
549.8	0.002448
559.445	0.002528
569.09	0.003608
578.734	0.002318
588.379	0.0011088
598.024	0.0013855
607.669	0.0015733
617.313	0.00092195
626.958	0.0015414
636.603	0.0011782
646.248	0.0012632
655.893	0.0017194
665.537	0.001634
675.182	0.0015422
684.827	0.002398
694.472	0.003088
704.116	0.003968
713.761	0.005278
723.406	0.015298
733.051	0.036118
742.695	0.025328
752.34	0.011268
761.985	0.009038
771.63	0.007538
781.275	0.008068
790.919	0.008928
800.564	0.007588
810.209	0.007028
819.854	0.006608
829.498	0.003928
839.143	0.003388
848.788	0.003488
858.433	0.003348
868.078	0.003258
877.722	0.004478
887.367	0.006238
897.012	0.005068
906.657	0.005548
916.301	0.006188
925.946	0.004838
935.591	0.002358
945.236	0.002208
954.88	0.002128
964.525	0.002368
974.17	0.002038
983.815	0.0016465
993.46	0.002828
1003.1	0.004258
1012.75	0.005158
1022.39	0.004228
1032.04	0.004158
1041.68	0.005188
1051.33	0.005918
1060.97	0.008378
1070.62	0.011088
1080.26	0.019518
1089.91	0.025988
1099.55	0.022368
1109.2	0.019148
1118.84	0.019218
1128.49	0.031828
1138.13	0.035288
1147.78	0.044718
1157.42	0.052178
1167.07	0.054648
1176.71	0.046168
1186.36	0.038668
1196	0.032098
1205.64	0.026188
1215.29	0.041088
1224.93	0.043248
1234.58	0.024288
1244.22	0.019958
1253.87	0.015748
1263.51	0.010698
1273.16	0.008268
1282.8	0.012258
1292.45	0.019358
1302.09	0.012788
1311.74	0.009228
1321.38	0.009408
1331.03	0.012868
1340.67	0.021808
1350.32	0.024838
1359.96	0.012878
1369.61	0.008488
1379.25	0.006588
1388.9	0.004738
1398.54	0.004418
1408.18	0.004688
1417.83	0.005328
1427.47	0.005318
1437.12	0.005698
1446.76	0.009518
1456.41	0.014708
1466.05	0.009728
1475.7	0.005468
1485.34	0.004708
1494.99	0.005058
1504.63	0.003688
1514.28	0.002828
1523.92	0.003178
1533.57	0.004038
1543.21	0.006658
1552.86	0.011228
1562.5	0.011008
1572.15	0.006828
1581.79	0.005398
1591.44	0.005538
1601.08	0.003328
1610.73	0.003768
1620.37	0.004748
1630.01	0.003098
1639.66	0.002378
1649.3	0.002178
1658.95	0.002258
1668.59	0.0017739
1678.24	0.0015641
1687.88	0.0018125
1697.53	0.001918
1707.17	0.002588
1716.82	0.003768
1726.46	0.004598
1736.11	0.006868
1745.75	0.011738
1755.4	0.022688
1765.04	0.036128
1774.69	0.034808
1784.33	0.026218
1793.98	0.017738
1803.62	0.009538
1813.27	0.005548
1822.91	0.003458
1832.55	0.002838
1842.2	0.002508
1851.84	0.002028
1861.49	0.001958
1871.13	0.002308
1880.78	0.002228
1890.42	0.0017505
1900.07	0.0016308
1909.71	0.0016166
1919.36	0.0017223
1929	0.0014142
1938.65	0.0013128
1948.29	0.0014371
1957.94	0.0011411
1967.58	0.0012097
1977.23	0.001277
1986.87	0.0013392
1996.52	0.0010441
2006.16	0.0012354
2015.81	0.0013134
2025.45	0.0010239
2035.1	0.0013148
2044.74	0.0012738
2054.38	0.00121
2064.03	0.0013469
2073.67	0.0010674
2083.32	0.0013901
2092.96	0.0012331
2102.61	0.0012423
2112.25	0.0009817
2121.9	0.0013048
2131.54	0.0011424
2141.19	0.0011756
2150.83	0.0012617
2160.48	0.0013169
2170.12	0.0010758
2179.77	0.00086758
2189.41	0.001052
2199.06	0.001027
2208.7	0.001158
2218.35	0.0011043
2227.99	0.0010934
2237.64	0.001338
2247.28	0.0011538
2256.92	0.0011466
2266.57	0.0012167
2276.21	0.0013478
2285.86	0.0013638
2295.5	0.0010656
2305.15	0.0013091
2314.79	0.000863692
2324.44	0.00093695
2334.08	0.0012217
2343.73	0.001437
2353.37	0.00084868
2363.02	0.0011923
2372.66	0.0012544
2382.31	0.0015161
2391.95	0.0009702
2401.6	0.0010435
2411.24	0.0011704
2420.89	0.000753
2430.53	0.00085408
2440.18	0.00094381
2449.82	0.0013418
2459.47	0.0010515
2469.11	0.0010318
2478.75	0.0013046
2488.4	0.0009597
2498.04	0.0010841
2507.69	0.0010572
2517.33	0.0010055
2526.98	0.000731
2536.62	0.00094972
2546.27	0.0007771
2555.91	0.001265
2565.56	0.0015046
2575.2	0.0010618
2584.85	0.0013231
2594.49	0.0015094
2604.14	0.001078
2613.78	0.0013092
2623.43	0.001608
2633.07	0.0015893
2642.72	0.0013892
2652.36	0.001478
2662.01	0.0012814
2671.65	0.0013823
2681.29	0.0016092
2690.94	0.0011505
2700.58	0.0014015
2710.23	0.0012497
2719.87	0.0011252
2729.52	0.0013624
2739.16	0.001072
2748.81	0.00086715
2758.45	0.0014678
2768.1	0.0013377
2777.74	0.0014132
2787.39	0.0015378
2797.03	0.0013428
2806.68	0.001908
2816.32	0.001868
2825.97	0.002058
2835.61	0.001928
2845.26	0.0015928
2854.9	0.002488
2864.55	0.003118
2874.19	0.004938
2883.84	0.007278
2893.48	0.006998
2903.12	0.005368
2912.77	0.005528
2922.41	0.006558
2932.06	0.009098
2941.7	0.012098
2951.35	0.012948
2960.99	0.012548
2970.64	0.016288
2980.28	0.016608
2989.93	0.010238
2999.57	0.006148
3009.22	0.004288
3018.86	0.003808
3028.51	0.004038
3038.15	0.005438
3047.8	0.007088
3057.44	0.007478
3067.09	0.010368
3076.73	0.008668
3086.38	0.006088
3096.02	0.004628
3105.67	0.002508
3115.31	0.0018357
3124.95	0.0017658
3134.6	0.0016996
3144.24	0.0007796
3153.89	0.0015423
3163.53	0.0014687
3173.18	0.0012267
3182.82	0.0014929
3192.47	0.0015852
3202.11	0.0014275
3211.76	0.0007668
3221.4	0.001311
3231.05	0.000113
3240.69	0.0011877
3250.34	0.0017526
3259.98	0.0008278
3269.63	0.000744
3279.27	0.000132
3288.92	0.000491
3298.56	0.00078
3308.21	0.0010859
3317.85	0.0010285
3327.49	0.0009882
3337.14	0.0012053
3346.78	0.000599
3356.43	0.0012767
3366.07	0.000636
3375.72	0.0009703
3385.36	0.0010697
3395.01	5e-05
3404.65	0.0009699
3414.3	0.001028
3423.94	0.0009864
3433.59	0.001244
3443.23	0.0013922
3452.88	0.002178
3462.52	0.001868
3472.17	0.002338
3481.81	0.004278
3491.46	0.006948
3501.1	0.010158
3510.75	0.014628
3520.39	0.013318
3530.04	0.005888
3539.68	0.003008
3549.32	0.0017019
3558.97	0.0013408
3568.61	0.0008221
3578.26	0.001196
3587.9	0.000714
3597.55	0.000634
3607.19	0.0008018
3616.84	0.000496
3626.48	0.00090483
3636.13	0.000715
3645.77	0.0012745
3655.42	0.001182
3665.06	0.000506
3674.71	0.0012444
3684.35	0.000678
3694	0.00049
3703.64	0.0007824
3713.29	8.2e-05
3722.93	0.0010318
3732.58	0.000754
3742.22	0.0012077
3751.86	0.001114
3761.51	0.001175
3771.15	0.000682
3780.8	0.0013579
3790.44	0.000263
3800.09	0.000754
3809.73	0.000646
3819.38	0.0009921
3829.02	0.001325
3838.67	0.0011717
3848.31	0.0012139
3857.96	0.0010768
3867.6	0.0016257
3877.25	0.000643
3886.89	0.000455
3896.54	0.0011223
3906.18	0.0007777
3915.83	0.0009769
3925.47	0.000859405
3935.12	0.001938
3944.76	0.0011414
3954.41	0.000366
3964.05	0.0013762
3973.69	0.0010877
3983.34	0.0011199
3992.98	0.000743
