Infrared Spectrum: Aniline, N-ethyl-, hydrochloride
Formula: C8 H12 Cl N
CAS: 4348-19-0
State: SOLID (SPLIT MULL), FLUOROLUBE FOR 3800-1330 CM^-^1, NUJOL FOR 1330-460 CM^-^1
Class: COBLENTZ II
Instrument: DOW KBr FOREPRISM-GRATING
Instrument parameters: BLAZED AT 3.5, 12.0, 20.0 MICRON AND CHANGED AT 5.0, 7.5, 14.9 MICRON
Sampling: TRANSMISSION
Resolution: 2
Origin: DOW CHEMICAL COMPANY
1/CM	TRANSMITTANCE
3818	0.6542
3809	0.6534
3800	0.6541
3791	0.6558
3782	0.6576
3773	0.6597
3764	0.6622
3755	0.6644
3746	0.6665
3737	0.6675
3728	0.6686
3719	0.6697
3710	0.6708
3701	0.6721
3692	0.6736
3683	0.675
3674	0.6768
3665	0.679
3656	0.6815
3647	0.6845
3638	0.6871
3629	0.6891
3620	0.6911
3611	0.6928
3602	0.6937
3593	0.6946
3584	0.6954
3575	0.6961
3566	0.6971
3557	0.698
3548	0.6989
3539	0.6998
3530	0.7008
3521	0.7024
3512	0.704
3503	0.7055
3494	0.7069
3485	0.7087
3476	0.7105
3467	0.7121
3458	0.714
3449	0.7158
3440	0.7175
3431	0.7195
3422	0.7215
3413	0.7237
3404	0.7258
3395	0.7278
3386	0.73
3377	0.7321
3368	0.734
3359	0.7356
3350	0.7371
3341	0.7388
3332	0.7405
3323	0.7419
3314	0.7438
3305	0.7456
3296	0.7474
3287	0.7492
3278	0.7512
3269	0.7535
3260	0.7558
3251	0.7581
3242	0.7601
3233	0.7619
3224	0.7638
3215	0.7654
3206	0.7662
3197	0.7671
3188	0.7678
3179	0.7687
3170	0.768
3161	0.7512
3152	0.759
3143	0.7712
3134	0.7741
3125	0.7756
3116	0.7768
3107	0.7778
3098	0.7778
3089	0.7775
3080	0.7767
3071	0.7725
3062	0.7494
3053	0.7347
3044	0.7485
3035	0.7606
3026	0.761
3017	0.7597
3008	0.7555
2999	0.7449
2990	0.7243
2981	0.691
2972	0.6389
2963	0.5212
2954	0.5809
2945	0.5746
2936	0.4643
2927	0.3406
2918	0.3234
2909	0.3218
2900	0.3695
2891	0.4399
2882	0.4637
2873	0.4509
2864	0.405
2855	0.3142
2846	0.294
2837	0.3407
2828	0.4176
2819	0.4932
2810	0.4809
2801	0.3647
2792	0.3262
2783	0.3146
2774	0.239
2765	0.2179
2756	0.186
2747	0.1826
2738	0.2028
2729	0.2279
2720	0.1715
2711	0.1096
2702	0.113
2693	0.1734
2684	0.1733
2675	0.1262
2666	0.0786
2657	0.0618
2648	0.0818
2639	0.0946
2630	0.1394
2621	0.1774
2612	0.2126
2603	0.2778
2594	0.3336
2585	0.348
2576	0.3302
2567	0.3924
2558	0.4577
2549	0.5015
2540	0.5149
2531	0.4922
2522	0.5166
2513	0.5612
2504	0.5907
2495	0.5605
2486	0.3178
2477	0.0679
2468	0.1142
2459	0.2018
2450	0.2847
2441	0.3764
2432	0.4583
2423	0.488
2414	0.5158
2405	0.5435
2396	0.5704
2387	0.5472
2378	0.3921
2369	0.3944
2360	0.4383
2351	0.463
2342	0.4962
2333	0.5578
2324	0.5733
2315	0.5877
2306	0.618
2297	0.6461
2288	0.6498
2279	0.654
2270	0.661
2261	0.676
2252	0.6807
2243	0.6861
2234	0.6958
2225	0.7075
2216	0.7201
2207	0.7312
2198	0.7331
2189	0.7351
2180	0.7406
2171	0.7478
2162	0.7518
2153	0.7549
2144	0.7578
2135	0.7612
2126	0.7648
2117	0.7678
2108	0.7706
2099	0.7731
2090	0.7745
2081	0.7747
2072	0.774
2063	0.778
2054	0.7854
2045	0.7918
2036	0.7946
2027	0.7958
2018	0.7961
2009	0.7958
2000	0.7939
1991	0.7049
1982	0.749
1973	0.771
1964	0.7819
1955	0.7972
1946	0.8025
1937	0.8076
1928	0.8128
1919	0.82
1910	0.8186
1901	0.8191
1892	0.8158
1883	0.8071
1874	0.8083
1865	0.7815
1856	0.8028
1847	0.8171
1838	0.823
1829	0.8271
1820	0.8306
1811	0.8305
1802	0.8264
1793	0.829
1784	0.8375
1775	0.8394
1766	0.8421
1757	0.8418
1748	0.8373
1739	0.8251
1730	0.8158
1721	0.8171
1712	0.7968
1703	0.8094
1694	0.8156
1685	0.8175
1676	0.8221
1667	0.8298
1658	0.8393
1649	0.8445
1640	0.8482
1631	0.8541
1622	0.8575
1613	0.8577
1604	0.8236
1595	0.6891
1586	0.7704
1577	0.6231
1568	0.811
1559	0.8212
1550	0.8274
1541	0.8293
1532	0.8288
1523	0.8225
1514	0.8197
1505	0.7998
1496	0.6608
1487	0.4612
1478	0.6101
1469	0.6287
1460	0.7546
1451	0.7576
1442	0.5035
1433	0.4622
1424	0.7342
1415	0.7568
1406	0.7804
1397	0.7988
1388	0.7708
1379	0.7981
1370	0.8058
1361	0.7974
1352	0.7204
1343	0.696
1334	0.6864
1325	0.7211
1316	0.7341
1307	0.7318
1298	0.7156
1289	0.7294
1280	0.7476
1271	0.7562
1262	0.7568
1253	0.7565
1244	0.7607
1235	0.7683
1226	0.7751
1217	0.7764
1208	0.7672
1199	0.7503
1190	0.7419
1181	0.7701
1172	0.7665
1163	0.7503
1154	0.7695
1145	0.7397
1136	0.7584
1127	0.7651
1118	0.7625
1109	0.7367
1100	0.367
1091	0.7107
1082	0.7515
1073	0.7528
1064	0.7199
1055	0.7442
1046	0.7661
1037	0.7721
1028	0.7324
1019	0.6636
1010	0.491
1001	0.6899
992	0.7683
983	0.8017
974	0.8076
965	0.8051
956	0.808
947	0.8161
938	0.8236
929	0.806
920	0.8139
911	0.7815
902	0.8284
893	0.8308
884	0.8308
875	0.7772
866	0.8292
857	0.8445
848	0.8485
839	0.8515
830	0.8533
821	0.8431
812	0.8481
803	0.7957
794	0.7908
785	0.8457
776	0.8496
767	0.8461
758	0.8271
749	0.2135
740	0.7642
731	0.7847
722	0.7808
713	0.7638
704	0.8524
695	0.8545
686	0.2006
677	0.7832
668	0.8766
659	0.8854
650	0.8827
641	0.8852
632	0.8882
623	0.8883
614	0.8736
605	0.8718
596	0.869
587	0.517
578	0.8301
569	0.8585
560	0.8621
551	0.8638
542	0.8628
533	0.8612
524	0.8564
515	0.8511
506	0.8451
497	0.4951
488	0.5928
479	0.8187
470	0.8271
461	0.8285
452	0.8239
443	0.8201
434	0.8175
425	0.8121
416	0.7575
407	0.4612
398	0.5146
389	0.5615
