Infrared Spectrum: 2-(4-Chlorobenzyl)pyridine
Formula: C 12 H 10 Cl N
CAS: 4350-41-8
State: gas
Origin: EPA-IR VAPOR PHASE LIBRARY
1/CM	ABSORBANCE
549.9	0.0011574
559.547	0.001078
569.193	0.0015775
578.84	0.002528
588.486	0.005698
598.133	0.007898
607.779	0.005388
617.426	0.002928
627.072	0.002378
636.719	0.002268
646.365	0.002118
656.012	0.002848
665.658	0.002248
675.305	0.0015577
684.951	0.0014809
694.598	0.0015814
704.245	0.002438
713.891	0.003448
723.538	0.005208
733.184	0.009898
742.831	0.018668
752.477	0.025508
762.124	0.022318
771.77	0.010318
781.417	0.009268
791.063	0.013748
800.71	0.014458
810.356	0.009468
820.003	0.005778
829.649	0.006028
839.296	0.006578
848.943	0.005918
858.589	0.003278
868.236	0.001948
877.882	0.0016607
887.529	0.0015905
897.175	0.0014494
906.822	0.0014721
916.468	0.0015009
926.115	0.0012833
935.761	0.0011483
945.408	0.0010453
955.054	0.001171
964.701	0.0012972
974.347	0.0015994
983.994	0.002318
993.64	0.003748
1003.29	0.003998
1012.93	0.019218
1022.58	0.012928
1032.23	0.002338
1041.87	0.003548
1051.52	0.003978
1061.17	0.003508
1070.81	0.005188
1080.46	0.012528
1090.11	0.028308
1099.75	0.028648
1109.4	0.009768
1119.05	0.004148
1128.69	0.003228
1138.34	0.004218
1147.99	0.004008
1157.63	0.002468
1167.28	0.002078
1176.92	0.002348
1186.57	0.003148
1196.22	0.003208
1205.86	0.003058
1215.51	0.004828
1225.16	0.004768
1234.8	0.003348
1244.45	0.002328
1254.1	0.001718
1263.74	0.001581
1273.39	0.0014824
1283.04	0.0016356
1292.68	0.0016765
1302.33	0.001998
1311.98	0.002048
1321.62	0.0015585
1331.27	0.0010756
1340.92	0.0009897
1350.56	0.0009261
1360.21	0.0011136
1369.86	0.0013092
1379.5	0.001613
1389.15	0.002328
1398.79	0.003858
1408.44	0.005778
1418.09	0.009288
1427.73	0.019978
1437.38	0.023578
1447.03	0.009378
1456.67	0.008918
1466.32	0.019218
1475.97	0.027428
1485.61	0.035818
1495.26	0.041648
1504.91	0.012578
1514.55	0.004438
1524.2	0.002448
1533.85	0.002258
1543.49	0.003038
1553.14	0.005018
1562.79	0.010398
1572.43	0.019378
1582.08	0.028638
1591.73	0.029158
1601.37	0.016138
1611.02	0.005828
1620.67	0.003238
1630.31	0.002178
1639.96	0.0016385
1649.6	0.001293
1659.25	0.0010662
1668.9	0.0010965
1678.54	0.0009074
1688.19	0.00077953
1697.84	0.0009148
1707.48	0.0008499
1717.13	0.0008661
1726.78	0.0008311
1736.42	0.0011034
1746.07	0.001093
1755.72	0.001147
1765.36	0.0014468
1775.01	0.0016064
1784.66	0.0008384
1794.3	0.0006343
1803.95	0.000505
1813.6	0.000565
1823.24	0.00073236
1832.89	0.0009268
1842.54	0.001023
1852.18	0.0010268
1861.83	0.0013115
1871.47	0.0013375
1881.12	0.0015679
1890.77	0.001798
1900.41	0.0016619
1910.06	0.0014098
1919.71	0.001194
1929.35	0.0009904
1939	0.0011243
1948.65	0.001029
1958.29	0.0009651
1967.94	0.0011169
1977.59	0.00075519
1987.23	0.000462
1996.88	0.000356
2006.53	0.000335
2016.17	0.00032
2025.82	0.000333
2035.47	0.000371
2045.11	0.000429
2054.76	0.000422
2064.41	0.00042
2074.05	0.000392
2083.7	0.000432
2093.35	0.000409
2102.99	0.000422
2112.64	0.00029
2122.28	0.000335
2131.93	0.000347
2141.58	0.000334
2151.22	0.000346
2160.87	0.000343
2170.52	0.000302
2180.16	0.000415
2189.81	0.000433
2199.46	0.000365
2209.1	0.00039
2218.75	0.000419
2228.4	0.000376
2238.04	0.000351
2247.69	0.000379
2257.34	0.0005
2266.98	0.000551
2276.63	0.0006097
2286.28	0.000697211
2295.92	0.000693589
2305.57	0.000563
2315.22	0.000568
2324.86	0.000544
2334.51	0.000584
2344.16	0.00057
2353.8	0.000516
2363.45	0.000463
2373.09	0.000368
2382.74	0.000366
2392.39	0.000358
2402.03	0.00035
2411.68	0.000365
2421.33	0.000378
2430.97	0.000361
2440.62	0.000328
2450.27	0.000326
2459.91	0.000372
2469.56	0.000315
2479.21	0.000393
2488.85	0.000316
2498.5	0.000381
2508.15	0.000322
2517.79	0.000337
2527.44	0.000361
2537.09	0.000347
2546.73	0.00041
2556.38	0.000381
2566.03	0.000351
2575.67	0.000434
2585.32	0.000481
2594.96	0.000381
2604.61	0.000452
2614.26	0.000499
2623.9	0.000409
2633.55	0.000355
2643.2	0.000314
2652.84	0.000354
2662.49	0.00037
2672.14	0.000462
2681.78	0.000406
2691.43	0.000346
2701.08	0.000442
2710.72	0.000329
2720.37	0.000342
2730.02	0.000332
2739.66	0.000433
2749.31	0.000492
2758.96	0.000414
2768.6	0.000438
2778.25	0.000473
2787.9	0.000345
2797.54	0.000349
2807.19	0.0004
2816.84	0.0006069
2826.48	0.0008114
2836.13	0.0010171
2845.77	0.001718
2855.42	0.0016137
2865.07	0.0013032
2874.71	0.0009237
2884.36	0.0010547
2894.01	0.0014641
2903.65	0.002668
2913.3	0.004438
2922.95	0.006238
2932.59	0.006648
2942.24	0.005408
2951.89	0.003868
2961.53	0.002768
2971.18	0.002298
2980.83	0.002388
2990.47	0.002818
3000.12	0.004718
3009.77	0.008698
3019.41	0.010558
3029.06	0.009768
3038.71	0.009178
3048.35	0.009208
3058	0.010488
3067.64	0.014188
3077.29	0.018698
3086.94	0.013458
3096.58	0.007228
3106.23	0.003588
3115.88	0.001728
3125.52	0.0012418
3135.17	0.0010719
3144.82	0.0008977
3154.46	0.000507
3164.11	0.000443
3173.76	0.0006415
3183.4	0.000299
3193.05	0.000201
3202.7	0.000114
3212.34	0.000168
3221.99	0.000269
3231.64	0.000171
3241.28	0.000163
3250.93	0.000163
3260.58	0.000235
3270.22	0.000268
3279.87	0.000238
3289.52	0.000212
3299.16	0.000203
3308.81	0.000165
3318.45	6.5e-05
3328.1	0.000179
3337.75	0.000215
3347.39	0.000195
3357.04	0.000333
3366.69	0.000314
3376.33	0.000143
3385.98	0.000209
3395.63	0.000315
3405.27	0.000434
3414.92	0.000297
3424.57	0.000346
3434.21	0.000344
3443.86	0.000116
3453.51	0.000481
3463.15	0.000362
3472.8	0.000327
3482.45	0.000425
3492.09	0.000546
3501.74	0.000345
3511.39	0.000278
3521.03	0.00033
3530.68	0.000463
3540.33	0.000481
3549.97	0.000452
3559.62	0.00031
3569.26	0.000323
3578.91	0.000363
3588.56	0.00036
3598.2	0.00044
3607.85	0.000461
3617.5	0.000407
3627.14	0.000526
3636.79	0.000464
3646.44	0.000436
3656.08	0.0006607
3665.73	0.0005957
3675.38	0.000586
3685.02	0.000524
3694.67	0.000646
3704.32	0.0006537
3713.96	0.000496
3723.61	0.000529
3733.26	0.0005898
3742.9	0.0006519
3752.55	0.000549
3762.2	0.000493
3771.84	0.0006205
3781.49	0.000505
3791.13	0.000565
3800.78	0.000568
3810.43	0.000512
3820.07	0.000502
3829.72	0.0005951
3839.37	0.0006084
3849.01	0.000504
3858.66	0.0005966
3868.31	0.0006387
3877.95	0.000551
3887.6	0.0006057
3897.25	0.000562
3906.89	0.00070032
3916.54	0.0006358
3926.19	0.000531
3935.83	0.000442
3945.48	0.000439
3955.13	0.000573
3964.77	0.000503
3974.42	0.000542
3984.07	0.000476
3993.71	0.000427
