Infrared Spectrum: Phosgard C-22R (Monsanto)
Formula: C14 H28 Cl5 O9 P3
CAS: 4351-70-6
State: LIQUID (NEAT)
Class: COBLENTZ III
Instrument: DOW KBr FOREPRISM-GRATING
Instrument parameters: BLAZED AT 3.5, 12.0, 20.0 MICRON AND CHANGED AT 5.0, 7.5, 14.9 MICRON
Sampling: TRANSMISSION
Path length: CAPILLARY
Resolution: 2
Origin: DOW CHEMICAL COMPANY
1/CM	TRANSMITTANCE
3794	0.8705
3785	0.8708
3776	0.8713
3767	0.8717
3758	0.8723
3749	0.8732
3740	0.874
3731	0.8748
3722	0.8753
3713	0.8755
3704	0.8743
3695	0.8736
3686	0.8732
3677	0.8733
3668	0.8738
3659	0.8742
3650	0.8744
3641	0.8745
3632	0.8748
3623	0.8751
3614	0.8754
3605	0.8757
3596	0.8761
3587	0.8765
3578	0.8768
3569	0.8774
3560	0.8778
3551	0.8782
3542	0.8785
3533	0.8788
3524	0.879
3515	0.879
3506	0.879
3497	0.879
3488	0.8791
3479	0.8792
3470	0.8793
3461	0.8794
3452	0.8796
3443	0.8798
3434	0.88
3425	0.88
3416	0.8798
3407	0.8796
3398	0.8795
3389	0.8791
3380	0.8788
3371	0.8784
3362	0.8782
3353	0.8781
3344	0.8784
3335	0.8786
3326	0.8789
3317	0.8792
3308	0.8797
3299	0.8802
3290	0.8807
3281	0.881
3272	0.8813
3263	0.8817
3254	0.8821
3245	0.8825
3236	0.8831
3227	0.8835
3218	0.8835
3209	0.8835
3200	0.8835
3191	0.8833
3182	0.8831
3173	0.8828
3164	0.8828
3155	0.8812
3146	0.8797
3137	0.8793
3128	0.8789
3119	0.8778
3110	0.8765
3101	0.8748
3092	0.874
3083	0.8728
3074	0.8703
3065	0.8675
3056	0.8635
3047	0.858
3038	0.8507
3029	0.841
3020	0.8274
3011	0.8085
3002	0.7887
2993	0.7549
2984	0.7098
2975	0.6921
2966	0.6787
2957	0.6661
2948	0.666
2939	0.6817
2930	0.7014
2921	0.7204
2912	0.7434
2903	0.761
2894	0.7755
2885	0.7828
2876	0.7875
2867	0.8061
2858	0.8287
2849	0.8437
2840	0.8488
2831	0.8516
2822	0.8548
2813	0.8581
2804	0.8614
2795	0.8651
2786	0.8682
2777	0.8691
2768	0.8675
2759	0.8655
2750	0.8633
2741	0.8605
2732	0.8612
2723	0.863
2714	0.8659
2705	0.8682
2696	0.8702
2687	0.8718
2678	0.8728
2669	0.8727
2660	0.8724
2651	0.8718
2642	0.8718
2633	0.8716
2624	0.8714
2615	0.8711
2606	0.8709
2597	0.8706
2588	0.8706
2579	0.8707
2570	0.8708
2561	0.8708
2552	0.8709
2543	0.8707
2534	0.8706
2525	0.8704
2516	0.8702
2507	0.8701
2498	0.8701
2489	0.87
2480	0.8699
2471	0.8698
2462	0.8698
2453	0.8697
2444	0.8697
2435	0.8701
2426	0.8706
2417	0.8711
2408	0.8717
2399	0.8725
2390	0.8733
2381	0.8741
2372	0.8749
2363	0.8758
2354	0.8767
2345	0.8773
2336	0.8781
2327	0.8783
2318	0.873
2309	0.8664
2300	0.8655
2291	0.8664
2282	0.8674
2273	0.8683
2264	0.8692
2255	0.8701
2246	0.871
2237	0.8716
2228	0.8716
2219	0.8727
2210	0.8759
2201	0.8783
2192	0.8787
2183	0.8798
2174	0.8868
2165	0.882
2156	0.8788
2147	0.8791
2138	0.8794
2129	0.88
2120	0.8809
2111	0.8808
2102	0.8806
2093	0.8802
2084	0.8797
2075	0.8793
2066	0.879
2057	0.8783
2048	0.8771
2039	0.8739
2030	0.8692
2021	0.8703
2012	0.8712
2003	0.8718
1994	0.873
1985	0.8725
1976	0.8715
1967	0.871
1958	0.8692
1949	0.8291
1940	0.8635
1931	0.8646
1922	0.8668
1913	0.8668
1904	0.8659
1895	0.8638
1886	0.86
1877	0.8557
1868	0.8542
1859	0.8531
1850	0.8518
1841	0.8504
1832	0.8511
1823	0.8516
1814	0.8516
1805	0.8511
1796	0.8512
1787	0.8527
1778	0.8552
1769	0.8568
1760	0.857
1751	0.8558
1742	0.854
1733	0.8477
1724	0.8407
1715	0.8437
1706	0.8552
1697	0.8571
1688	0.8562
1679	0.8558
1670	0.8557
1661	0.8566
1652	0.8568
1643	0.8571
1634	0.8565
1625	0.8566
1616	0.8582
1607	0.8565
1598	0.8543
1589	0.8537
1580	0.8532
1571	0.8518
1562	0.8501
1553	0.8478
1544	0.8468
1535	0.8464
1526	0.8456
1517	0.8443
1508	0.8416
1499	0.8387
1490	0.8311
1481	0.8122
1472	0.7761
1463	0.7206
1454	0.6215
1445	0.6066
1436	0.6589
1427	0.6333
1418	0.7521
1409	0.7761
1400	0.7731
1391	0.748
1382	0.7082
1373	0.6911
1364	0.7704
1355	0.7914
1346	0.7874
1337	0.7665
1328	0.7518
1319	0.5871
1310	0.447
1301	0.411
1292	0.3906
1283	0.3778
1274	0.35
1265	0.2343
1256	0.1851
1247	0.1503
1238	0.1594
1229	0.4282
1220	0.5662
1211	0.5992
1202	0.6045
1193	0.5889
1184	0.6698
1175	0.7407
1166	0.7594
1157	0.7611
1148	0.7546
1139	0.7378
1130	0.6651
1121	0.4737
1112	0.4218
1103	0.3646
1094	0.1949
1085	0.1535
1076	0.1376
1067	0.1404
1058	0.1907
1049	0.249
1040	0.1714
1031	0.1346
1022	0.1113
1013	0.0992
1004	0.1072
995	0.1895
986	0.2902
977	0.2576
968	0.1713
959	0.1428
950	0.1894
941	0.2754
932	0.385
923	0.408
914	0.4368
905	0.5078
896	0.6068
887	0.7025
878	0.7228
869	0.7078
860	0.6643
851	0.6197
842	0.5834
833	0.5483
824	0.4669
815	0.385
806	0.3727
797	0.4347
788	0.459
779	0.4918
770	0.5421
761	0.581
752	0.6126
743	0.6725
734	0.7017
725	0.7104
716	0.7044
707	0.686
698	0.6789
689	0.7068
680	0.7224
671	0.5458
662	0.4595
653	0.5679
644	0.7003
635	0.7597
626	0.7843
617	0.7972
608	0.8034
599	0.8038
590	0.8012
581	0.7793
572	0.7348
563	0.6638
554	0.6247
545	0.6144
536	0.6027
527	0.5634
518	0.553
509	0.5626
500	0.5567
491	0.5448
482	0.546
473	0.558
464	0.5768
455	0.5985
446	0.621
437	0.6401
428	0.6555
419	0.6644
410	0.6701
401	0.6743
392	0.6765
