Infrared Spectrum: Formic acid, cyclohexyl ester (purified)
Formula: C7 H12 O2
CAS: 4351-54-6
State: SOLUTION (CCl4 FOR 2.0-7.6, CS2 FOR 7.6-16.0 MICRON) VS SOLVENT
Class: COBLENTZ III
Instrument: BAIRD (GRATING)
Instrument parameters: NaCl PRISM
Sampling: TRANSMISSION
Path length: 0.012 CM, AND 0.011 CM
Resolution: 2
Origin: DOW CHEMICAL COMPANY
1/CM	TRANSMITTANCE
4000	0.9321
3991	0.934
3982	0.9357
3973	0.9371
3964	0.9375
3955	0.9375
3946	0.9377
3937	0.9382
3928	0.9385
3919	0.9389
3910	0.94
3901	0.9416
3892	0.9431
3883	0.9448
3874	0.9464
3865	0.948
3856	0.9483
3847	0.9485
3838	0.9487
3829	0.9489
3820	0.9462
3811	0.9433
3802	0.9417
3793	0.9403
3784	0.942
3775	0.9428
3766	0.9433
3757	0.9435
3748	0.943
3739	0.9425
3730	0.9421
3721	0.9415
3712	0.9409
3703	0.9402
3694	0.9397
3685	0.9392
3676	0.9387
3667	0.9383
3658	0.938
3649	0.9378
3640	0.9375
3631	0.9371
3622	0.9362
3613	0.9351
3604	0.9325
3595	0.9298
3586	0.9273
3577	0.9268
3568	0.9268
3559	0.9268
3550	0.9268
3541	0.9267
3532	0.9259
3523	0.9252
3514	0.9197
3505	0.9092
3496	0.8968
3487	0.8911
3478	0.8895
3469	0.8884
3460	0.8881
3451	0.8878
3442	0.8885
3433	0.8921
3424	0.8966
3415	0.9013
3406	0.9063
3397	0.9121
3388	0.9165
3379	0.9173
3370	0.918
3361	0.9193
3352	0.9206
3343	0.9214
3334	0.9216
3325	0.9195
3316	0.9121
3307	0.9115
3298	0.9131
3289	0.9145
3280	0.9152
3271	0.9155
3262	0.9145
3253	0.9131
3244	0.9118
3235	0.9103
3226	0.9085
3217	0.9068
3208	0.9052
3199	0.9055
3190	0.906
3181	0.9064
3172	0.9066
3163	0.9047
3154	0.9025
3145	0.9001
3136	0.8981
3127	0.8971
3118	0.8966
3109	0.8973
3100	0.8977
3091	0.8978
3082	0.8962
3073	0.8936
3064	0.8897
3055	0.884
3046	0.8728
3037	0.8512
3028	0.8245
3019	0.8055
3010	0.7571
3001	0.65
2992	0.5426
2983	0.4346
2974	0.3259
2965	0.2166
2956	0.1066
2947	0.0506
2938	0.0526
2929	0.0627
2920	0.1386
2911	0.2359
2902	0.3005
2893	0.3078
2884	0.3109
2875	0.3149
2866	0.389
2857	0.5491
2848	0.7101
2839	0.8193
2830	0.8398
2821	0.8521
2812	0.8637
2803	0.8754
2794	0.8867
2785	0.8944
2776	0.8982
2767	0.8986
2758	0.8982
2749	0.8921
2740	0.8878
2731	0.8881
2722	0.8901
2713	0.8923
2704	0.8936
2695	0.8933
2686	0.8899
2677	0.8875
2668	0.8883
2659	0.8958
2650	0.911
2641	0.9148
2632	0.9171
2623	0.9183
2614	0.9195
2605	0.9207
2596	0.923
2587	0.9256
2578	0.929
2569	0.9339
2560	0.9345
2551	0.9348
2542	0.9351
2533	0.9355
2524	0.9361
2515	0.9367
2506	0.9373
2497	0.9378
2488	0.9381
2479	0.9384
2470	0.9388
2461	0.9388
2452	0.9387
2443	0.9374
2434	0.9343
2425	0.9277
2416	0.9138
2407	0.9018
2398	0.8966
2389	0.8934
2380	0.892
2371	0.8903
2362	0.8895
2353	0.8964
2344	0.9068
2335	0.9103
2326	0.9108
2317	0.9102
2308	0.9086
2299	0.9078
2290	0.9087
2281	0.9118
2272	0.9161
2263	0.9193
2254	0.922
2245	0.9248
2236	0.9275
2227	0.9295
2218	0.9299
2209	0.9304
2200	0.931
2191	0.9318
2182	0.9345
2173	0.9377
2164	0.9401
2155	0.9423
2146	0.9418
2137	0.9413
2128	0.9382
2119	0.9228
2110	0.9199
2101	0.9173
2092	0.9148
2083	0.9164
2074	0.9248
2065	0.928
2056	0.9285
2047	0.9288
2038	0.9287
2029	0.9277
2020	0.9171
2011	0.9045
2002	0.9033
1993	0.9105
1984	0.9171
1975	0.9216
1966	0.9228
1957	0.9231
1948	0.923
1939	0.9236
1930	0.926
1921	0.9293
1912	0.9333
1903	0.9363
1894	0.9384
1885	0.9354
1876	0.9253
1867	0.9117
1858	0.8968
1849	0.8973
1840	0.89
1831	0.8804
1822	0.8735
1813	0.8654
1804	0.8568
1795	0.8446
1786	0.8165
1777	0.755
1768	0.5738
1759	0.4985
1750	0.3684
1741	0.1684
1732	0.0233
1723	0.0083
1714	0.0788
1705	0.3013
1696	0.5472
1687	0.6488
1678	0.7378
1669	0.7915
1660	0.8188
1651	0.8452
1642	0.864
1633	0.8901
1624	0.9056
1615	0.9049
1606	0.9113
1597	0.915
1588	0.921
1579	0.9218
1570	0.923
1561	0.9247
1552	0.9264
1543	0.9271
1534	0.9291
1525	0.9312
1516	0.9289
1507	0.9148
1498	0.894
1489	0.8774
1480	0.8054
1471	0.6179
1462	0.3299
1453	0.38
1444	0.6824
1435	0.7994
1426	0.8291
1417	0.8457
1408	0.8593
1399	0.8457
1390	0.779
1381	0.631
1372	0.5353
1363	0.7415
1354	0.7941
1345	0.7941
1336	0.7558
1327	0.7868
1318	0.7669
1309	0.8169
1300	0.8207
1291	0.8349
1282	0.8191
1273	0.7542
1264	0.6832
1255	0.628
1246	0.6822
1237	0.7011
1228	0.6092
1219	0.4833
1210	0.3194
1201	0.0563
1192	0.0144
1183	0.0029
1174	0.0131
1165	0.1794
1156	0.2105
1147	0.4291
1138	0.5605
1129	0.545
1120	0.38
1111	0.7347
1102	0.8071
1093	0.7622
1084	0.841
1075	0.8156
1066	0.8309
1057	0.8295
1048	0.7732
1039	0.5848
1030	0.6345
1021	0.5762
1012	0.2832
1003	0.6265
994	0.9325
985	0.9777
976	0.9643
967	0.9251
958	0.945
949	0.9581
940	0.9357
931	0.7592
922	0.3872
913	0.53
904	0.3916
895	0.5098
886	0.8384
877	0.9389
868	0.9028
859	0.949
850	0.9853
841	0.7487
832	0.9704
823	0.7848
814	0.7503
805	0.9384
796	0.9884
787	0.992
778	0.9928
769	0.9951
760	0.9254
751	0.9871
742	0.991
733	1.0014
724	0.9894
715	0.9911
706	0.9746
697	0.9689
688	0.962
679	0.9743
670	0.9489
661	0.9206
652	0.8816
643	0.86
634	0.8635
