Infrared Spectrum: 1-Cyclohexyl-2-propen-1-ol
Formula: C 9 H 16 O
CAS: 4352-44-7
State: gas
Instrument: HP-GC/MS/IRD
Origin: NIST Mass Spectrometry Data Center
1/CM	ABSORBANCE
550	0.0005358
562	0.0001034
574	0.000141
586	0.0002773
598	0.0002679
610	0.0003666
622	0.0003854
634	0.0002538
646	0.0002679
658	0.0002444
670	0.0003619
682	0.0004982
694	0.0006862
706	0.0007003
718	0.0009118
730	0.0005828
742	0.0002444
754	0.0001363
766	0.0001739
778	0.0001786
790	0.0002162
802	0.000188
814	0.0001927
826	0.0003196
838	0.0006298
850	0.0006956
862	0.0008084
874	0.0010246
886	0.001692
898	0.002162
910	0.0033558
922	0.0066975
934	0.0050619
946	0.002162
958	0.0025897
970	0.0043334
982	0.0059361
994	0.0071158
1006	0.0067163
1018	0.0068573
1030	0.0056682
1042	0.0034686
1054	0.0025803
1066	0.0026085
1078	0.0028623
1090	0.0030785
1102	0.0031114
1114	0.0029469
1126	0.0024816
1138	0.0020586
1150	0.0016685
1162	0.0013583
1174	0.0013442
1186	0.0014476
1198	0.0016591
1210	0.0020492
1222	0.0022983
1234	0.0023594
1246	0.0025239
1258	0.0026978
1270	0.0025615
1282	0.002209
1294	0.002021
1306	0.0019458
1318	0.0018753
1330	0.0018565
1342	0.0019834
1354	0.0019458
1366	0.0016262
1378	0.0014335
1390	0.0011609
1402	0.0012784
1414	0.0020022
1426	0.0024581
1438	0.0027166
1450	0.0040984
1462	0.0032101
1474	0.0012032
1486	0.0004747
1498	0.0002914
1510	0.0002162
1522	0.0001833
1534	0.0001175
1546	0.0001363
1558	0.0001222
1570	8.93e-05
1582	7.99e-05
1594	9.4e-05
1606	0.0001645
1618	0.0002491
1630	0.0004559
1642	0.000611
1654	0.0003854
1666	0.0001222
1678	9.4e-05
1690	6.11e-05
1702	6.58e-05
1714	5.64e-05
1726	2.82e-05
1738	3.76e-05
1750	6.58e-05
1762	0.0001034
1774	0.000141
1786	0.0001034
1798	6.11e-05
1810	7.52e-05
1822	9.4e-05
1834	0.0002444
1846	0.0005358
1858	0.000517
1870	0.0002397
1882	7.99e-05
1894	6.58e-05
1906	9.87e-05
1918	5.64e-05
1930	7.05e-05
1942	5.17e-05
1954	7.52e-05
1966	0.0001081
1978	0.0001175
1990	9.87e-05
2002	9.4e-05
2014	8.46e-05
2026	0.0001128
2038	7.99e-05
2050	9.87e-05
2062	5.17e-05
2074	5.64e-05
2086	6.11e-05
2098	6.11e-05
2110	7.52e-05
2122	5.17e-05
2134	4.7e-05
2146	7.52e-05
2158	6.58e-05
2170	8.46e-05
2182	7.99e-05
2194	8.93e-05
2206	6.11e-05
2218	7.99e-05
2230	9.87e-05
2242	0.0001034
2254	7.05e-05
2266	5.64e-05
2278	4.7e-05
2290	5.17e-05
2302	5.17e-05
2314	7.99e-05
2326	7.52e-05
2338	0.0001081
2350	0.0001034
2362	0.000141
2374	0.0001128
2386	9.87e-05
2398	0.0001175
2410	0.0001034
2422	9.87e-05
2434	0.0001269
2446	9.4e-05
2458	9.4e-05
2470	0.0001034
2482	0.0001269
2494	0.0001363
2506	9.4e-05
2518	0.0001081
2530	0.0001128
2542	0.0001316
2554	0.0001316
2566	0.0001645
2578	0.0002256
2590	0.0002632
2602	0.0003102
2614	0.0003431
2626	0.0003572
2638	0.0004089
2650	0.0004982
2662	0.0006486
2674	0.000658
2686	0.0005452
2698	0.0004418
2710	0.0004465
2722	0.0003666
2734	0.0003431
2746	0.0003478
2758	0.0004183
2770	0.0004465
2782	0.0006533
2794	0.0009541
2806	0.0011092
2818	0.0014476
2830	0.002256
2842	0.0051042
2854	0.0137475
2866	0.0189974
2878	0.0124785
2890	0.0083331
2902	0.0100298
2914	0.0181091
2926	0.0361712
2938	0.0457874
2950	0.0244494
2962	0.0070265
2974	0.0031725
2986	0.0025521
2998	0.0021338
3010	0.0017343
3022	0.0014617
3034	0.0010716
3046	0.0008272
3058	0.000846
3070	0.00141
3082	0.0024628
3094	0.002303
3106	0.0008742
3118	0.0003478
3130	0.0002256
3142	0.0002303
3154	0.0002209
3166	0.0001739
3178	0.0001316
3190	0.0001645
3202	0.0001081
3214	0.0001034
3226	0.0001128
3238	0.0001034
3250	8.93e-05
3262	4.7e-05
3274	0.0001222
3286	0.0001363
3298	8.46e-05
3310	8.46e-05
3322	8.93e-05
3334	0.0001034
3346	0.000141
3358	0.000141
3370	0.0001645
3382	0.000141
3394	0.0001927
3406	0.0001551
3418	0.0001692
3430	0.0002538
3442	0.0002256
3454	0.0001786
3466	0.0001833
3478	0.0001739
3490	0.0001316
3502	0.0001363
3514	8.93e-05
3526	0.000141
3538	7.05e-05
3550	0.0001598
3562	0.0001598
3574	0.0001974
3586	0.0001833
3598	0.0001974
3610	0.0002679
3622	0.0005358
3634	0.0011609
3646	0.0024816
3658	0.0020586
3670	0.0008554
3682	0.0003807
3694	0.0002867
3706	0.0002303
3718	0.0002115
3730	0.0001598
3742	0.0002303
3754	0.0002303
3766	0.0002397
3778	0.0002068
3790	0.0002021
3802	0.0002303
3814	0.0002021
3826	0.0002209
3838	0.0002585
