Infrared Spectrum: 2-Oxa-5Beta-androstan-3-one, 4Beta,5-epoxy-17Beta-hydroxy-,
Formula: C18 H26 O4
CAS: 4354-23-8
State: SOLID (KBr DISC)
Class: COBLENTZ III
Instrument: PERKIN-ELMER 21 (GRATING)
Resolution: 2
Origin: THE SQUIBB INSTITUTE FOR MEDICAL RESEARCH
1/CM	TRANSMITTANCE
668	0.781
677	0.7652
686	0.7793
695	0.8143
704	0.7799
713	0.6709
722	0.6213
731	0.7669
740	0.6931
749	0.8335
758	0.8302
767	0.8307
776	0.8226
785	0.7977
794	0.7219
803	0.6949
812	0.5086
821	0.4913
830	0.6562
839	0.6424
848	0.4352
857	0.5216
866	0.5805
875	0.7199
884	0.731
893	0.657
902	0.6364
911	0.6479
920	0.7498
929	0.7376
938	0.6569
947	0.5663
956	0.67
965	0.7346
974	0.7023
983	0.6258
992	0.6038
1001	0.5393
1010	0.4305
1019	0.3622
1028	0.318
1037	0.2972
1046	0.1733
1055	0.2821
1064	0.3652
1073	0.5504
1082	0.5831
1091	0.6698
1100	0.679
1109	0.6621
1118	0.6102
1127	0.526
1136	0.5025
1145	0.6999
1154	0.6956
1163	0.6829
1172	0.6848
1181	0.6561
1190	0.6348
1199	0.6017
1208	0.5931
1217	0.5886
1226	0.5017
1235	0.3768
1244	0.3595
1253	0.3703
1262	0.3685
1271	0.3963
1280	0.3727
1289	0.2289
1298	0.2568
1307	0.3522
1316	0.5224
1325	0.5304
1334	0.4627
1343	0.4927
1352	0.611
1361	0.6008
1370	0.5387
1379	0.4724
1388	0.4935
1397	0.5114
1406	0.5558
1415	0.5242
1424	0.4761
1433	0.4421
1442	0.426
1451	0.4285
1460	0.4604
1469	0.4971
1478	0.7168
1487	0.7683
1496	0.7784
1505	0.7809
1514	0.78
1523	0.7778
1532	0.7755
1541	0.7729
1550	0.7692
1559	0.7647
1568	0.76
1577	0.7538
1586	0.7464
1595	0.7376
1604	0.726
1613	0.7155
1622	0.7026
1631	0.6866
1640	0.668
1649	0.6404
1658	0.6091
1667	0.5486
1676	0.4589
1685	0.3662
1694	0.2899
1703	0.157
1712	0.1075
1721	0.1108
1730	0.1637
1739	0.336
1748	0.5108
1757	0.6604
1766	0.7272
1775	0.7535
1784	0.7713
1793	0.7881
1802	0.8011
1811	0.8078
1820	0.8113
1829	0.8134
1838	0.814
1847	0.8143
1856	0.8143
1865	0.8141
1874	0.8149
1883	0.8158
1892	0.8168
1901	0.8179
1910	0.8192
1919	0.8215
1928	0.8225
1937	0.8231
1946	0.8238
1955	0.8245
1964	0.8251
1973	0.8254
1982	0.8258
1991	0.826
2000	0.826
2009	0.8259
2018	0.8258
2027	0.8256
2036	0.8252
2045	0.8249
2054	0.8245
2063	0.8241
2072	0.8239
2081	0.8238
2090	0.8236
2099	0.8234
2108	0.8232
2117	0.8231
2126	0.8229
2135	0.8227
2144	0.8225
2153	0.8219
2162	0.8214
2171	0.8208
2180	0.8202
2189	0.8198
2198	0.8192
2207	0.8186
2216	0.8182
2225	0.8176
2234	0.8171
2243	0.8166
2252	0.8161
2261	0.8155
2270	0.815
2279	0.8144
2288	0.8139
2297	0.8134
2306	0.8129
2315	0.8124
2324	0.8122
2333	0.8119
2342	0.8116
2351	0.8113
2360	0.811
2369	0.8107
2378	0.8103
2387	0.8099
2396	0.8095
2405	0.8089
2414	0.8075
2423	0.8062
2432	0.8048
2441	0.8035
2450	0.8022
2459	0.8004
2468	0.7985
2477	0.7968
2486	0.7948
2495	0.792
2504	0.7892
2513	0.7865
2522	0.7838
2531	0.7811
2540	0.7784
2549	0.7757
2558	0.7729
2567	0.7703
2576	0.7674
2585	0.7645
2594	0.7615
2603	0.7586
2612	0.7554
2621	0.752
2630	0.7487
2639	0.7446
2648	0.7403
2657	0.7352
2666	0.7292
2675	0.7231
2684	0.7154
2693	0.7076
2702	0.6995
2711	0.6906
2720	0.6817
2729	0.6716
2738	0.6587
2747	0.6458
2756	0.632
2765	0.6181
2774	0.6008
2783	0.5827
2792	0.5628
2801	0.5303
2810	0.4861
2819	0.4519
2828	0.4234
2837	0.4233
2846	0.4304
2855	0.4423
2864	0.4514
2873	0.4578
2882	0.459
2891	0.4602
2900	0.4633
2909	0.4679
2918	0.4747
2927	0.483
2936	0.502
2945	0.5638
2954	0.6262
2963	0.6664
2972	0.7203
2981	0.7985
2990	0.8305
2999	0.8424
3008	0.8477
3017	0.8505
3026	0.8518
3035	0.8527
3044	0.8533
3053	0.8536
3062	0.8536
3071	0.8531
3080	0.8524
3089	0.8517
3098	0.8509
3107	0.8501
3116	0.8493
3125	0.8481
3134	0.8467
3143	0.8452
3152	0.8428
3161	0.8404
3170	0.8378
3179	0.8351
3188	0.8315
3197	0.8271
3206	0.8227
3215	0.8172
3224	0.8115
3233	0.8054
3242	0.7983
3251	0.791
3260	0.7832
3269	0.7734
3278	0.7638
3287	0.7542
3296	0.7447
3305	0.7352
3314	0.7243
3323	0.7129
3332	0.7008
3341	0.6868
3350	0.672
3359	0.6549
3368	0.636
3377	0.6159
3386	0.6011
3395	0.5846
3404	0.5666
3413	0.5544
3422	0.5438
3431	0.535
3440	0.5273
3449	0.5202
3458	0.5159
3467	0.5135
3476	0.5125
3485	0.5125
3494	0.5131
3503	0.5396
3512	0.5843
3521	0.6289
3530	0.6732
3539	0.7173
3548	0.7612
3557	0.8048
3566	0.8482
3575	0.895
3584	0.9572
3593	0.9756
3602	0.9901
3611	1.0035
3620	1.0095
3629	1.0144
3638	1.018
3647	1.0209
3656	1.0235
3665	1.0259
3674	1.0276
3683	1.0289
3692	1.0289
3701	1.029
3710	1.029
3719	1.029
3728	1.029
3737	1.0291
3746	1.0291
3755	1.0291
3764	1.0291
3773	1.0291
3782	1.0292
3791	1.0292
3800	1.0292
3809	1.0292
3818	1.0292
3827	1.0293
3836	1.0293
3845	1.0293
3854	1.0293
3863	1.0293
3872	1.0294
3881	1.0294
3890	1.0294
3899	1.0294
3908	1.0295
3917	1.0295
3926	1.0295
3935	1.0295
3944	1.0295
3953	1.0295
3962	1.0296
3971	1.0296
3980	1.0296
3989	1.0296
3998	1.0296
