Infrared Spectrum: DL-Mandelamide
Formula: C 8 H 9 N O 2
CAS: 4358-86-5
State: gas
Origin: EPA-IR VAPOR PHASE LIBRARY
1/CM	ABSORBANCE
549.9	0.003754
559.547	0.003484
569.193	0.004364
578.84	0.005534
588.486	0.005764
598.133	0.005604
607.779	0.005194
617.426	0.004284
627.072	0.003374
636.719	0.002894
646.365	0.002614
656.012	0.002734
665.658	0.003144
675.305	0.003924
684.951	0.006324
694.598	0.010084
704.245	0.010234
713.891	0.007554
723.538	0.005604
733.184	0.005644
742.831	0.007104
752.477	0.007674
762.124	0.006164
771.77	0.004434
781.417	0.003744
791.063	0.003684
800.71	0.003694
810.356	0.003754
820.003	0.003774
829.649	0.003824
839.296	0.004084
848.943	0.004244
858.589	0.004144
868.236	0.004004
877.882	0.003804
887.529	0.003484
897.175	0.003214
906.822	0.003314
916.468	0.003354
926.115	0.003174
935.761	0.002744
945.408	0.002594
955.054	0.002534
964.701	0.002524
974.347	0.002454
983.994	0.002444
993.64	0.002664
1003.29	0.003284
1012.93	0.004434
1022.58	0.006464
1032.23	0.007104
1041.87	0.007044
1051.52	0.007354
1061.17	0.007644
1070.81	0.007404
1080.46	0.006914
1090.11	0.006684
1099.75	0.006134
1109.4	0.005244
1119.05	0.004094
1128.69	0.002684
1138.34	0.002274
1147.99	0.002274
1157.63	0.002514
1167.28	0.003354
1176.92	0.005124
1186.57	0.007124
1196.22	0.007924
1205.86	0.006764
1215.51	0.005674
1225.16	0.004784
1234.8	0.004494
1244.45	0.004284
1254.1	0.005024
1263.74	0.006174
1273.39	0.007044
1283.04	0.007994
1292.68	0.009294
1302.33	0.011154
1311.98	0.013194
1321.62	0.014234
1331.27	0.013514
1340.92	0.011474
1350.56	0.009024
1360.21	0.006774
1369.86	0.005354
1379.5	0.004374
1389.15	0.003624
1398.79	0.003124
1408.44	0.002744
1418.09	0.002304
1427.73	0.001964
1437.38	0.002064
1447.03	0.002684
1456.67	0.002884
1466.32	0.002084
1475.97	0.001624
1485.61	0.002334
1495.26	0.003134
1504.91	0.002174
1514.55	0.0013015
1524.2	0.0013971
1533.85	0.001754
1543.49	0.002454
1553.14	0.004284
1562.79	0.008424
1572.43	0.012474
1582.08	0.013924
1591.73	0.012784
1601.37	0.008364
1611.02	0.004344
1620.67	0.002674
1630.31	0.002274
1639.96	0.002114
1649.6	0.002224
1659.25	0.002634
1668.9	0.003684
1678.54	0.005434
1688.19	0.007114
1697.84	0.009124
1707.48	0.015024
1717.13	0.028874
1726.78	0.042994
1736.42	0.040234
1746.07	0.024604
1755.72	0.012854
1765.36	0.007804
1775.01	0.005264
1784.66	0.003774
1794.3	0.002724
1803.95	0.001894
1813.6	0.001312
1823.24	0.0010006
1832.89	0.0008118
1842.54	0.0007783
1852.18	0.0007019
1861.83	0.0006631
1871.47	0.0006816
1881.12	0.000767
1890.77	0.000759
1900.41	0.0007115
1910.06	0.0006244
1919.71	0.0005719
1929.35	0.0006524
1939	0.0008225
1948.65	0.0008769
1958.29	0.0008643
1967.94	0.0007256
1977.59	0.00054069
1987.23	0.00045652
1996.88	0.0004256
2006.53	0.0004361
2016.17	0.0004283
2025.82	0.0003856
2035.47	0.0003691
2045.11	0.0003957
2054.76	0.000349
2064.41	0.0004071
2074.05	0.0004161
2083.7	0.000355
2093.35	0.000366
2102.99	0.000254
2112.64	0.00033
2122.28	0.000318
2131.93	0.0003697
2141.58	0.000334
2151.22	0.000332
2160.87	0.0003681
2170.52	0.000333
2180.16	0.000363
2189.81	0.000336
2199.46	0.000358
2209.1	0.000353
2218.75	0.0003845
2228.4	0.0003682
2238.04	0.000327
2247.69	0.0003995
2257.34	0.0003935
2266.98	0.0003652
2276.63	0.0004031
2286.28	0.000342
2295.92	0.000311
2305.57	0.000352
2315.22	0.000358
2324.86	0.0003739
2334.51	0.0003849
2344.16	0.000359
2353.8	0.0003738
2363.45	0.000326
2373.09	0.000315
2382.74	0.000328
2392.39	0.000329
2402.03	0.000339
2411.68	0.000386
2421.33	0.000334
2430.97	0.000354
2440.62	0.000354
2450.27	0.0003852
2459.91	0.000344
2469.56	0.000317
2479.21	0.0003792
2488.85	0.000309
2498.5	0.000297
2508.15	0.00026
2517.79	0.000295
2527.44	0.000314
2537.09	0.000286
2546.73	0.000265
2556.38	0.00029
2566.03	0.000306
2575.67	0.000294
2585.32	0.000306
2594.96	0.000299
2604.61	0.000335
2614.26	0.000297
2623.9	0.000314
2633.55	0.000301
2643.2	0.00026
2652.84	0.000285
2662.49	0.000263
2672.14	0.000224
2681.78	0.00025
2691.43	0.000265
2701.08	0.000281
2710.72	0.000177
2720.37	0.000192
2730.02	0.000213
2739.66	0.000206
2749.31	0.00027
2758.96	0.000313
2768.6	0.000318
2778.25	0.000306
2787.9	0.00045449
2797.54	0.00052099
2807.19	0.00051467
2816.84	0.0006004
2826.48	0.0006836
2836.13	0.0006449
2845.77	0.0009113
2855.42	0.0012607
2865.07	0.001854
2874.71	0.002194
2884.36	0.001924
2894.01	0.001554
2903.65	0.001534
2913.3	0.001634
2922.95	0.001432
2932.59	0.000998
2942.24	0.0007048
2951.89	0.00055664
2961.53	0.00044
2971.18	0.0004023
2980.83	0.0004216
2990.47	0.000329
3000.12	0.00055709
3009.77	0.0011802
3019.41	0.001984
3029.06	0.003414
3038.71	0.004094
3048.35	0.003354
3058	0.003164
3067.64	0.005084
3077.29	0.005444
3086.94	0.003884
3096.58	0.002494
3106.23	0.001704
3115.88	0.0009626
3125.52	0.00051069
3135.17	0.000231
3144.82	0.000259
3154.46	0.000206
3164.11	0.000331
3173.76	0.000287
3183.4	0.000181
3193.05	0.000269
3202.7	0.000239
3212.34	0.000222
3221.99	0.000219
3231.64	0.000193
3241.28	0.000194
3250.93	0.000262
3260.58	0.000273
3270.22	0.000127
3279.87	7.3e-05
3289.52	0.000219
3299.16	0.000237
3308.81	0.000311
3318.45	0.000277
3328.1	0.000191
3337.75	0.000276
3347.39	0.000248
3357.04	0.000234
3366.69	0.00050208
3376.33	0.00053189
3385.98	0.0009069
3395.63	0.001364
3405.27	0.002254
3414.92	0.003974
3424.57	0.005694
3434.21	0.005304
3443.86	0.003314
3453.51	0.002074
3463.15	0.002324
3472.8	0.003464
3482.45	0.005204
3492.09	0.005954
3501.74	0.006114
3511.39	0.006224
3521.03	0.006694
3530.68	0.007934
3540.33	0.009874
3549.97	0.009424
3559.62	0.005494
3569.26	0.002544
3578.91	0.001504
3588.56	0.0013203
3598.2	0.0009305
3607.85	0.0007784
3617.5	0.0006944
3627.14	0.0008697
3636.79	0.0012676
3646.44	0.001874
3656.08	0.001824
3665.73	0.0012017
3675.38	0.0008025
3685.02	0.00047571
3694.67	0.000471732
3704.32	0.0004449
3713.96	0.0003853
3723.61	0.0003969
3733.26	0.0003697
3742.9	0.000249
3752.55	0.0004415
3762.2	0.0003655
3771.84	0.0003709
3781.49	0.000358
3791.13	0.0004336
3800.78	0.000436
3810.43	0.000315
3820.07	0.000322
3829.72	0.0003901
3839.37	0.000311
3849.01	0.0004309
3858.66	0.0003762
3868.31	0.0004013
3877.95	0.0003837
3887.6	0.0003927
3897.25	0.000261
3906.89	0.0004106
3916.54	0.0003985
3926.19	0.00022
3935.83	0.0003845
3945.48	0.000278
3955.13	0.0004417
3964.77	0.0003848
3974.42	0.000363
3984.07	0.000286
3993.71	0.000304
