Infrared Spectrum: Beta-CYANOSTYRENE
Formula: C9 H7 N
CAS: 4360-47-8
State: SOLUTION (10% CCl4 FOR 5000-1330, 10% CS2 FOR 1330-625 CM^-^1)
Class: COBLENTZ
Instrument: Not specified, most likely a prism, grating, or hybrid spectrometer.
Sampling: TRANSMISSION
Path length: 0.0117 CM, 0.0118 CM
Resolution: 4
Origin: DOW CHEMICAL COMPANY
MICROMETERS	TRANSMITTANCE
2.014	0.872
2.05522	0.874
2.09643	0.869
2.13765	0.865
2.17886	0.872
2.22008	0.87
2.26129	0.869
2.30251	0.862
2.34373	0.87
2.38494	0.872
2.42616	0.867
2.46737	0.869
2.50859	0.889
2.5498	0.9
2.59102	0.891
2.63224	0.882
2.67345	0.901
2.71467	0.881
2.75588	0.874
2.7971	0.858
2.83831	0.841
2.87953	0.851
2.92075	0.86
2.96196	0.87
3.00318	0.881
3.04439	0.886
3.08561	0.877
3.12682	0.874
3.16804	0.879
3.20926	0.812
3.25047	0.697
3.29169	0.628
3.3329	0.784
3.37412	0.851
3.41533	0.872
3.45655	0.872
3.49777	0.895
3.53898	0.9
3.5802	0.901
3.62141	0.91
3.66263	0.912
3.70384	0.92
3.74506	0.92
3.78628	0.91
3.82749	0.908
3.86871	0.908
3.90992	0.922
3.95114	0.917
3.99235	0.924
4.03357	0.925
4.07479	0.934
4.116	0.938
4.15722	0.944
4.19843	0.969
4.23965	0.939
4.28086	0.905
4.32208	0.889
4.3633	0.898
4.40451	0.898
4.44573	0.833
4.48694	0.504
4.52816	0.59
4.56938	0.912
4.61059	0.92
4.65181	0.934
4.69302	0.948
4.73424	0.939
4.77545	0.941
4.81667	0.941
4.85789	0.941
4.8991	0.941
4.94032	0.943
4.98153	0.936
5.02275	0.908
5.06396	0.889
5.10518	0.874
5.1464	0.876
5.18761	0.91
5.22883	0.91
5.27004	0.888
5.31126	0.888
5.35247	0.895
5.39369	0.919
5.43491	0.917
5.47612	0.898
5.51734	0.876
5.55855	0.85
5.59977	0.881
5.64098	0.901
5.6822	0.891
5.72342	0.886
5.76463	0.87
5.80585	0.869
5.84706	0.772
5.88828	0.762
5.92949	0.798
5.97071	0.802
6.01193	0.826
6.05314	0.817
6.09436	0.8
6.13557	0.574
6.17679	0.27
6.218	0.636
6.25922	0.609
6.30044	0.514
6.34165	0.459
6.38287	0.542
6.42408	0.475
6.4653	0.481
6.50651	0.567
6.54773	0.621
6.58895	0.655
6.63016	0.697
6.67138	0.567
6.71259	0.652
6.75381	0.85
6.79502	0.836
6.83624	0.741
6.87746	0.461
6.91867	0.669
6.95989	0.841
7.0011	0.848
7.04232	0.843
7.08353	0.848
7.12475	0.839
7.16597	0.826
7.20718	0.819
7.2484	0.846
7.28961	0.846
7.33083	0.857
7.37204	0.857
7.41326	0.833
7.45448	0.764
7.49569	0.776
7.53691	0.753
7.57812	0.764
7.61934	0.819
7.66055	0.786
7.70177	0.791
7.74299	0.86
7.7842	0.862
7.82542	0.781
7.86663	0.716
7.90785	0.79
7.94906	0.86
7.99028	0.898
8.0315	0.889
8.07271	0.864
8.11393	0.841
8.15514	0.839
8.19636	0.831
8.23757	0.731
8.27879	0.597
8.32001	0.709
8.36122	0.817
8.40244	0.803
8.44365	0.75
8.48487	0.769
8.52608	0.838
8.5673	0.848
8.60852	0.829
8.64973	0.845
8.69095	0.893
8.73216	0.91
8.77338	0.925
8.81459	0.929
8.85581	0.917
8.89703	0.901
8.93824	0.9
8.97946	0.893
9.02067	0.879
9.06189	0.845
9.10311	0.817
9.14432	0.829
9.18554	0.851
9.22675	0.851
9.26797	0.812
9.30918	0.734
9.3504	0.731
9.39162	0.786
9.43283	0.807
9.47405	0.833
9.51526	0.848
9.55648	0.845
9.59769	0.841
9.63891	0.833
9.68013	0.774
9.72134	0.719
9.76256	0.805
9.80377	0.841
9.84499	0.85
9.8862	0.864
9.92742	0.862
9.96864	0.81
10.0099	0.772
10.0511	0.805
10.0923	0.796
10.1335	0.733
10.1747	0.69
10.2159	0.702
10.2571	0.636
10.2984	0.488
10.3396	0.278
10.3808	0.111
10.422	0.075
10.4632	0.339
10.5044	0.657
10.5457	0.759
10.5869	0.784
10.6281	0.802
10.6693	0.834
10.7105	0.848
10.7517	0.848
10.7929	0.85
10.8342	0.839
10.8754	0.808
10.9166	0.779
10.9578	0.798
10.999	0.831
11.0402	0.846
11.0815	0.86
11.1227	0.867
11.1639	0.867
11.2051	0.857
11.2463	0.841
11.2875	0.824
11.3288	0.81
11.37	0.788
11.4112	0.777
11.4524	0.769
11.4936	0.76
11.5348	0.743
11.576	0.731
11.6173	0.721
11.6585	0.707
11.6997	0.7
11.7409	0.7
11.7821	0.705
11.8233	0.698
11.8646	0.697
11.9058	0.75
11.947	0.772
11.9882	0.783
12.0294	0.788
12.0706	0.776
12.1119	0.734
12.1531	0.716
12.1943	0.76
12.2355	0.815
12.2767	0.831
12.3179	0.833
12.3591	0.822
12.4004	0.807
12.4416	0.79
12.4828	0.771
12.524	0.75
12.5652	0.728
12.6064	0.707
12.6477	0.688
12.6889	0.671
12.7301	0.633
12.7713	0.588
12.8125	0.535
12.8537	0.492
12.895	0.468
12.9362	0.471
12.9774	0.526
13.0186	0.607
13.0598	0.654
13.101	0.664
13.1422	0.64
13.1835	0.59
13.2247	0.519
13.2659	0.425
13.3071	0.297
13.3483	0.146
13.3895	0.044
13.4308	0
13.472	0.032
13.5132	0.16
13.5544	0.363
13.5956	0.499
13.6368	0.562
13.6781	0.598
13.7193	0.629
13.7605	0.648
13.8017	0.659
13.8429	0.659
13.8841	0.648
13.9253	0.628
13.9666	0.602
14.0078	0.586
14.049	0.567
14.0902	0.545
14.1314	0.519
14.1726	0.476
14.2139	0.437
14.2551	0.385
14.2963	0.339
14.3375	0.301
14.3787	0.273
14.4199	0.23
14.4611	0.172
14.5024	0.101
14.5436	0.06
14.5848	0.061
14.626	0.153
14.6672	0.28
14.7084	0.366
14.7497	0.437
14.7909	0.462
14.8321	0.485
14.8733	0.495
14.9145	0.504
14.9557	0.521
14.997	0.538
15.0382	0.55
15.0794	0.55
15.1206	0.55
15.1618	0.549
15.203	0.545
15.2442	0.535
15.2855	0.528
15.3267	0.521
15.3679	0.512
15.4091	0.511
15.4503	0.511
15.4915	0.506
15.5328	0.504
15.574	0.504
15.6152	0.502
15.6564	0.499
15.6976	0.497
15.7388	0.495
15.7801	0.492
15.8213	0.487
15.8625	0.485
15.9037	0.483
