Infrared Spectrum: 4-(2,2,6-Trimethylcyclohexyl)-2-butanol
Formula: C 13 H 26 O
CAS: 4361-23-3
State: gas
Instrument: HP-GC/MS/IRD
Origin: NIST Mass Spectrometry Data Center
1/CM	ABSORBANCE
550	0.0004997
562	0.0005624
574	0.0004351
586	0.000437
598	0.0004142
610	0.0004104
622	0.0001748
634	0.0001634
646	0.0001596
658	0.0001235
670	2.09e-05
682	0.000133
694	0.0002337
706	0.0001748
718	0.0002242
730	0.0003287
742	0.0004104
754	0.0005415
766	0.0005852
778	0.0007562
790	0.0009025
802	0.0011419
814	0.0015219
826	0.0019095
838	0.0016568
850	0.0011552
862	0.0009614
874	0.0009177
886	0.0009994
898	0.001102
910	0.0013034
922	0.0015561
934	0.0020596
946	0.0030628
958	0.004256
970	0.005567
982	0.0074822
994	0.0095532
1006	0.0098819
1018	0.0075829
1030	0.0053998
1042	0.0038969
1054	0.0028348
1066	0.0022344
1078	0.0021356
1090	0.0024168
1102	0.002603
1114	0.0023104
1126	0.0016131
1138	0.0013395
1150	0.0013509
1162	0.0015162
1174	0.0016929
1186	0.0020064
1198	0.0022819
1210	0.0024377
1222	0.0025802
1234	0.0023959
1246	0.0020159
1258	0.0017233
1270	0.0016549
1282	0.0015067
1294	0.0015143
1306	0.0015808
1318	0.0017936
1330	0.0021964
1342	0.002603
1354	0.0030457
1366	0.0040242
1378	0.0061199
1390	0.0065398
1402	0.0042085
1414	0.0028177
1426	0.0027075
1438	0.0034295
1450	0.0036917
1462	0.0029127
1474	0.0020862
1486	0.0014231
1498	0.0009652
1510	0.0008113
1522	0.0007524
1534	0.0006821
1546	0.0006878
1558	0.0006555
1570	0.0006099
1582	0.0005377
1594	0.0005149
1606	0.0005092
1618	0.0005377
1630	0.0006593
1642	0.0009139
1654	0.0015314
1666	0.0019893
1678	0.0009804
1690	0.0004617
1702	0.0003382
1714	0.0002242
1726	0.0001672
1738	0.0001368
1750	0.0001938
1762	0.0002755
1774	0.0002052
1786	0.0001653
1798	0.0001406
1810	0.0001064
1822	0.0001216
1834	7.6e-05
1846	0.0001102
1858	4.94e-05
1870	4.75e-05
1882	5.7e-05
1894	4.56e-05
1906	5.89e-05
1918	5.13e-05
1930	6.46e-05
1942	6.08e-05
1954	8.17e-05
1966	0.000133
1978	0.0001558
1990	9.31e-05
2002	0.0001083
2014	0.000114
2026	0.000114
2038	0.0001026
2050	8.36e-05
2062	6.84e-05
2074	5.51e-05
2086	6.27e-05
2098	5.7e-05
2110	2.66e-05
2122	5.51e-05
2134	3.23e-05
2146	7.98e-05
2158	5.89e-05
2170	7.6e-05
2182	4.18e-05
2194	5.51e-05
2206	6.84e-05
2218	2.85e-05
2230	1.9e-05
2242	4.94e-05
2254	3.8e-06
2266	5.13e-05
2278	5.7e-05
2290	4.75e-05
2302	6.08e-05
2314	5.7e-05
2326	7.79e-05
2338	7.03e-05
2350	7.6e-05
2362	6.46e-05
2374	0.0001045
2386	7.22e-05
2398	0.0001273
2410	0.0001026
2422	0.0001026
2434	0.0001292
2446	0.0001387
2458	8.93e-05
2470	0.0001387
2482	8.17e-05
2494	0.0001026
2506	0.0001064
2518	7.79e-05
2530	0.000114
2542	0.0001539
2554	0.0001102
2566	0.0001634
2578	0.0001463
2590	0.0001691
2602	0.0001406
2614	0.0001387
2626	0.0001729
2638	0.000228
2650	0.000247
2662	0.0002584
2674	0.000285
2686	0.0002926
2698	0.0003344
2710	0.0004028
2722	0.0005795
2734	0.0008303
2746	0.0008949
2758	0.0007961
2770	0.0008037
2782	0.0009329
2794	0.0011324
2806	0.0015124
2818	0.0019912
2830	0.002945
2842	0.0048412
2854	0.0079895
2866	0.0108794
2878	0.011685
2890	0.0124507
2902	0.0137446
2914	0.016359
2926	0.019
2938	0.0171266
2950	0.0132886
2962	0.0113354
2974	0.0112423
2986	0.0100187
2998	0.0076988
3010	0.0055328
3022	0.0044194
3034	0.0035815
3046	0.0028424
3058	0.0022363
3070	0.001653
3082	0.0011951
3094	0.0009101
3106	0.0007315
3118	0.0005776
3130	0.0003819
3142	0.000304
3154	0.000228
3166	0.0001919
3178	0.0001634
3190	0.0001197
3202	0.0001121
3214	6.84e-05
3226	9.31e-05
3238	0.0001444
3250	5.13e-05
3262	2.85e-05
3274	9.12e-05
3286	1.9e-05
3298	5.13e-05
3310	3.8e-05
3322	4.56e-05
3334	7.6e-05
3346	0.0001026
3358	7.03e-05
3370	8.36e-05
3382	4.37e-05
3394	6.46e-05
3406	0.0001026
3418	8.55e-05
3430	0.0001045
3442	8.74e-05
3454	0.0001387
3466	9.31e-05
3478	3.99e-05
3490	7.22e-05
3502	4.56e-05
3514	5.32e-05
3526	5.32e-05
3538	1.71e-05
3550	4.37e-05
3562	0
3574	7.98e-05
3586	6.65e-05
3598	0.0001729
3610	0.0002413
3622	0.0004047
3634	0.0007334
3646	0.0012426
3658	0.0016093
3670	0.0012008
3682	0.0006688
3694	0.0003325
3706	0.000209
3718	0.0001577
3730	0.0001216
3742	7.98e-05
3754	0.0001121
3766	0.0001273
3778	0.0001254
3790	0.0001235
3802	6.65e-05
3814	0.0001026
3826	4.56e-05
3838	0.0001368
