Infrared Spectrum: 4,4'-BIS[2,2'-(4,4'-QUINOLINE CARBOXYLIC ACID)]BIPHENYL
Formula: C32 H20 N2 O4
CAS: 4363-97-7
State: SOLID (NUJOL MULL)
Class: COBLENTZ
Instrument: Not specified, most likely a prism, grating, or hybrid spectrometer.
Sampling: TRANSMISSION
Resolution: 4
Origin: TENNESSEE EASTMAN COMPANY, RESEARCH LABORATORIES
MICROMETERS	TRANSMITTANCE
2.02	0.102
2.0609	0.102
2.10179	0.1
2.14269	0.105
2.18359	0.11
2.22448	0.114
2.26538	0.117
2.30628	0.127
2.34717	0.134
2.38807	0.133
2.42897	0.141
2.46986	0.146
2.51076	0.155
2.55165	0.172
2.59255	0.172
2.63345	0.175
2.67434	0.184
2.71524	0.191
2.75614	0.199
2.79703	0.208
2.83793	0.211
2.87883	0.201
2.91972	0.203
2.96062	0.22
3.00152	0.22
3.04241	0.221
3.08331	0.221
3.12421	0.221
3.1651	0.221
3.206	0.201
3.2469	0.174
3.28779	0.163
3.32869	0.112
3.36959	0.051
3.41048	0.032
3.45138	0.029
3.49228	0.042
3.53317	0.184
3.57407	0.218
3.61496	0.25
3.65586	0.257
3.69676	0.254
3.73765	0.254
3.77855	0.255
3.81945	0.247
3.86034	0.247
3.90124	0.255
3.94214	0.264
3.98303	0.283
4.02393	0.296
4.06483	0.307
4.10572	0.325
4.14662	0.349
4.18752	0.358
4.22841	0.37
4.26931	0.372
4.31021	0.378
4.3511	0.399
4.392	0.426
4.4329	0.438
4.47379	0.448
4.51469	0.452
4.55559	0.465
4.59648	0.479
4.63738	0.482
4.67827	0.489
4.71917	0.503
4.76007	0.501
4.80096	0.5
4.84186	0.5
4.88276	0.5
4.92365	0.494
4.96455	0.494
5.00545	0.503
5.04634	0.5
5.08724	0.51
5.12814	0.511
5.16903	0.515
5.20993	0.52
5.25083	0.546
5.29172	0.563
5.33262	0.564
5.37352	0.569
5.41441	0.578
5.45531	0.578
5.49621	0.583
5.5371	0.581
5.578	0.592
5.6189	0.593
5.65979	0.598
5.70069	0.605
5.74158	0.602
5.78248	0.508
5.82338	0.39
5.86427	0.191
5.90517	0.158
5.94607	0.167
5.98696	0.332
6.02786	0.431
6.06876	0.447
6.10965	0.52
6.15055	0.59
6.19145	0.569
6.23234	0.491
6.27324	0.215
6.31414	0.332
6.35503	0.46
6.39593	0.522
6.43683	0.511
6.47772	0.368
6.51862	0.518
6.55952	0.498
6.60041	0.462
6.64131	0.45
6.68221	0.467
6.7231	0.505
6.764	0.368
6.80489	0.221
6.84579	0.218
6.88669	0.302
6.92758	0.348
6.96848	0.385
7.00938	0.467
7.05027	0.344
7.09117	0.315
7.13207	0.418
7.17296	0.44
7.21386	0.366
7.25476	0.298
7.29565	0.395
7.33655	0.399
7.37745	0.411
7.41834	0.389
7.45924	0.307
7.50014	0.389
7.54103	0.511
7.58193	0.508
7.62283	0.43
7.66372	0.385
7.70462	0.443
7.74552	0.3
7.78641	0.174
7.82731	0.18
7.8682	0.273
7.9091	0.221
7.95	0.197
7.99089	0.211
8.03179	0.313
8.07269	0.221
8.11358	0.313
8.15448	0.39
8.19538	0.438
8.23627	0.457
8.27717	0.47
8.31807	0.527
8.35896	0.534
8.39986	0.498
8.44076	0.564
8.48165	0.598
8.52255	0.598
8.56345	0.539
8.60434	0.438
8.64524	0.43
8.68614	0.522
8.72703	0.551
8.76793	0.563
8.80883	0.6
8.84972	0.621
8.89062	0.626
8.93151	0.636
8.97241	0.653
9.01331	0.658
9.0542	0.65
9.0951	0.639
9.136	0.629
9.17689	0.617
9.21779	0.568
9.25869	0.532
9.29958	0.482
9.34048	0.435
9.38138	0.535
9.42227	0.552
9.46317	0.558
9.50407	0.581
9.54496	0.59
9.58586	0.592
9.62676	0.58
9.66765	0.527
9.70855	0.511
9.74945	0.547
9.79034	0.578
9.83124	0.619
9.87214	0.633
9.91303	0.564
9.95393	0.517
9.99482	0.605
10.0357	0.627
10.0766	0.638
10.1175	0.638
10.1584	0.638
10.1993	0.622
10.2402	0.605
10.2811	0.59
10.322	0.587
10.3629	0.576
10.4038	0.556
10.4447	0.554
10.4856	0.542
10.5265	0.535
10.5674	0.522
10.6083	0.511
10.6492	0.511
10.6901	0.52
10.731	0.529
10.7719	0.58
10.8128	0.598
10.8537	0.627
10.8945	0.653
10.9354	0.662
10.9763	0.648
11.0172	0.638
11.0581	0.564
11.099	0.648
11.1399	0.668
11.1808	0.675
11.2217	0.679
11.2626	0.68
11.3035	0.697
11.3444	0.716
11.3853	0.716
11.4262	0.708
11.4671	0.711
11.508	0.718
11.5489	0.696
11.5898	0.677
11.6307	0.691
11.6716	0.703
11.7125	0.709
11.7534	0.708
11.7943	0.697
11.8352	0.612
11.8761	0.481
11.917	0.373
11.9579	0.392
11.9988	0.558
12.0397	0.575
12.0805	0.518
12.1214	0.44
12.1623	0.464
12.2032	0.576
12.2441	0.624
12.285	0.656
12.3259	0.668
12.3668	0.665
12.4077	0.645
12.4486	0.554
12.4895	0.3
12.5304	0.332
12.5713	0.566
12.6122	0.598
12.6531	0.556
12.694	0.47
12.7349	0.423
12.7758	0.378
12.8167	0.233
12.8576	0.332
12.8985	0.525
12.9394	0.571
12.9803	0.576
13.0212	0.542
13.0621	0.511
13.103	0.561
13.1439	0.604
13.1848	0.609
13.2257	0.588
13.2665	0.587
13.3074	0.6
13.3483	0.633
13.3892	0.643
13.4301	0.646
13.471	0.643
13.5119	0.638
13.5528	0.631
13.5937	0.626
13.6346	0.605
13.6755	0.58
13.7164	0.576
13.7573	0.575
13.7982	0.532
13.8391	0.482
13.88	0.477
13.9209	0.467
13.9618	0.424
14.0027	0.465
14.0436	0.518
14.0845	0.537
14.1254	0.537
14.1663	0.501
14.2072	0.481
14.2481	0.486
14.289	0.52
14.3299	0.539
14.3708	0.542
14.4117	0.544
14.4525	0.532
14.4934	0.522
14.5343	0.513
14.5752	0.51
14.6161	0.501
14.657	0.488
14.6979	0.476
14.7388	0.47
14.7797	0.459
14.8206	0.436
14.8615	0.416
14.9024	0.414
14.9433	0.394
14.9842	0.353
15.0251	0.385
15.066	0.401
15.1069	0.39
15.1478	0.38
15.1887	0.37
15.2296	0.358
15.2705	0.337
15.3114	0.307
15.3523	0.276
15.3932	0.276
15.4341	0.291
15.475	0.293
15.5159	0.293
15.5568	0.298
15.5977	0.296
15.6385	0.296
15.6794	0.295
15.7203	0.293
15.7612	0.286
15.8021	0.283
15.843	0.281
15.8839	0.279
15.9248	0.279
15.9657	0.278
