Infrared Spectrum: CINNAMIC ALDEHYDE, DIMETHYL ACETAL
Formula: C11 H14 O2
CAS: 4364-06-1
State: LIQUID
Class: COBLENTZ
Instrument: Not specified, most likely a prism, grating, or hybrid spectrometer.
Sampling: TRANSMISSION
Path length: 0.0025 CM
Resolution: 4
Origin: INFRACORD
MICROMETERS	TRANSMITTANCE
2.524	0.887
2.55944	0.889
2.59489	0.896
2.63033	0.896
2.66578	0.893
2.70122	0.876
2.73666	0.869
2.77211	0.867
2.80755	0.859
2.84299	0.835
2.87844	0.844
2.91388	0.864
2.94933	0.862
2.98477	0.815
3.02021	0.844
3.05566	0.861
3.0911	0.86
3.12654	0.855
3.16199	0.84
3.19743	0.805
3.23288	0.701
3.26832	0.61
3.30376	0.591
3.33921	0.573
3.37465	0.558
3.4101	0.466
3.44554	0.528
3.48098	0.613
3.51643	0.635
3.55187	0.447
3.58731	0.678
3.62276	0.761
3.6582	0.656
3.69365	0.71
3.72909	0.777
3.76453	0.836
3.79998	0.855
3.83542	0.861
3.87087	0.864
3.90631	0.866
3.94175	0.876
3.9772	0.875
4.01264	0.873
4.04808	0.875
4.08353	0.883
4.11897	0.88
4.15442	0.874
4.18986	0.877
4.2253	0.881
4.26075	0.887
4.29619	0.888
4.33163	0.886
4.36708	0.876
4.40252	0.868
4.43797	0.834
4.47341	0.813
4.50885	0.85
4.5443	0.868
4.57974	0.875
4.61519	0.874
4.65063	0.873
4.68607	0.875
4.72152	0.872
4.75696	0.873
4.7924	0.868
4.82785	0.867
4.86329	0.868
4.89874	0.868
4.93418	0.866
4.96962	0.862
5.00507	0.847
5.04051	0.824
5.07595	0.802
5.1114	0.8
5.14684	0.811
5.18229	0.842
5.21773	0.863
5.25317	0.845
5.28862	0.831
5.32406	0.828
5.35951	0.849
5.39495	0.866
5.43039	0.857
5.46584	0.848
5.50128	0.825
5.53672	0.804
5.57217	0.815
5.60761	0.835
5.64306	0.835
5.6785	0.816
5.71394	0.796
5.74939	0.789
5.78483	0.729
5.82027	0.619
5.85572	0.605
5.89116	0.507
5.92661	0.345
5.96205	0.09
5.99749	0.022
6.03294	0.056
6.06838	0.453
6.10383	0.599
6.13927	0.517
6.17471	0.172
6.21016	0.313
6.2456	0.511
6.28104	0.507
6.31649	0.694
6.35193	0.686
6.38738	0.612
6.42282	0.796
6.45826	0.823
6.49371	0.823
6.52915	0.824
6.5646	0.827
6.60004	0.829
6.63548	0.824
6.67093	0.795
6.70637	0.644
6.74181	0.563
6.77726	0.68
6.8127	0.721
6.84815	0.658
6.88359	0.599
6.91903	0.417
6.95448	0.329
6.98992	0.54
7.02536	0.739
7.06081	0.77
7.09625	0.791
7.1317	0.795
7.16714	0.757
7.20258	0.669
7.23803	0.599
7.27347	0.606
7.30892	0.606
7.34436	0.597
7.3798	0.606
7.41525	0.611
7.45069	0.614
7.48613	0.649
7.52158	0.65
7.55702	0.633
7.59247	0.65
7.62791	0.689
7.66335	0.675
7.6988	0.612
7.73424	0.626
7.76968	0.498
7.80513	0.643
7.84057	0.738
7.87602	0.764
7.91146	0.759
7.9469	0.738
7.98235	0.701
8.01779	0.61
8.05324	0.624
8.08868	0.625
8.12412	0.663
8.15957	0.718
8.19501	0.744
8.23045	0.718
8.2659	0.65
8.30134	0.573
8.33679	0.523
8.37223	0.502
8.40767	0.457
8.44312	0.438
8.47856	0.478
8.51401	0.49
8.54945	0.509
8.58489	0.561
8.62034	0.528
8.65578	0.462
8.69122	0.478
8.72667	0.492
8.76211	0.421
8.79756	0.306
8.833	0.161
8.86844	0.075
8.90389	0.031
8.93933	0.031
8.97477	0.042
9.01022	0.132
9.04566	0.215
9.08111	0.248
9.11655	0.266
9.15199	0.296
9.18744	0.292
9.22288	0.29
9.25833	0.305
9.29377	0.304
9.32921	0.239
9.36466	0.208
9.4001	0.229
9.43554	0.252
9.47099	0.239
9.50643	0.236
9.54188	0.244
9.57732	0.259
9.61276	0.325
9.64821	0.433
9.68365	0.521
9.71909	0.546
9.75454	0.514
9.78998	0.533
9.82543	0.552
9.86087	0.536
9.89631	0.49
9.93176	0.463
9.9672	0.451
10.0026	0.484
10.0381	0.548
10.0735	0.549
10.109	0.501
10.1444	0.415
10.1799	0.368
10.2153	0.271
10.2508	0.175
10.2862	0.14
10.3216	0.148
10.3571	0.2
10.3925	0.287
10.428	0.402
10.4634	0.479
10.4989	0.565
10.5343	0.605
10.5697	0.651
10.6052	0.676
10.6406	0.702
10.6761	0.71
10.7115	0.712
10.747	0.706
10.7824	0.712
10.8179	0.725
10.8533	0.721
10.8887	0.706
10.9242	0.681
10.9596	0.668
10.9951	0.658
11.0305	0.661
11.066	0.681
11.1014	0.715
11.1368	0.755
11.1723	0.763
11.2077	0.776
11.2432	0.785
11.2786	0.786
11.3141	0.792
11.3495	0.797
11.385	0.799
11.4204	0.808
11.4558	0.804
11.4913	0.804
11.5267	0.799
11.5622	0.798
11.5976	0.797
11.6331	0.789
11.6685	0.766
11.7039	0.738
11.7394	0.699
11.7748	0.667
11.8103	0.638
11.8457	0.63
11.8812	0.622
11.9166	0.638
11.9521	0.652
11.9875	0.689
12.0229	0.731
12.0584	0.745
12.0938	0.753
12.1293	0.758
12.1647	0.771
12.2002	0.787
12.2356	0.793
12.271	0.797
12.3065	0.797
12.3419	0.796
12.3774	0.796
12.4128	0.798
12.4483	0.8
12.4837	0.8
12.5192	0.796
12.5546	0.793
12.59	0.789
12.6255	0.78
12.6609	0.754
12.6964	0.746
12.7318	0.725
12.7673	0.727
12.8027	0.725
12.8382	0.721
12.8736	0.712
12.909	0.7
12.9445	0.691
12.9799	0.657
13.0154	0.612
13.0508	0.561
13.0863	0.502
13.1217	0.428
13.1571	0.369
13.1926	0.297
13.228	0.207
13.2635	0.148
13.2989	0.106
13.3344	0.095
13.3698	0.078
13.4053	0.094
13.4407	0.158
13.4761	0.25
13.5116	0.36
13.547	0.509
13.5825	0.585
13.6179	0.642
13.6534	0.663
13.6888	0.687
13.7242	0.706
13.7597	0.71
13.7951	0.712
13.8306	0.71
13.866	0.707
13.9015	0.691
13.9369	0.687
13.9724	0.661
14.0078	0.649
14.0432	0.616
14.0787	0.572
14.1141	0.509
14.1496	0.421
14.185	0.361
14.2205	0.302
14.2559	0.28
14.2913	0.284
14.3268	0.311
14.3622	0.312
14.3977	0.276
14.4331	0.235
14.4686	0.193
14.504	0.162
14.5395	0.148
14.5749	0.172
14.6103	0.247
14.6458	0.304
