Infrared Spectrum: 1-Benzyl-1,2,3-triazole
Formula: C 9 H 9 N 3
CAS: 4368-68-7
State: gas
Origin: EPA-IR VAPOR PHASE LIBRARY
1/CM	ABSORBANCE
549.8	0.0004368
559.445	0.0011101
569.09	0.002139
578.734	0.002849
588.379	0.001729
598.024	0.0008991
607.669	0.0005598
617.313	0.0008207
626.958	0.0009677
636.603	0.001599
646.248	0.001259
655.893	0.0010868
665.537	0.001849
675.182	0.002969
684.827	0.006739
694.472	0.011649
704.116	0.017989
713.761	0.023099
723.406	0.017279
733.051	0.009449
742.695	0.007059
752.34	0.010639
761.985	0.017559
771.63	0.013239
781.275	0.005859
790.919	0.003009
800.564	0.002309
810.209	0.002429
819.854	0.002059
829.498	0.001979
839.143	0.001459
848.788	0.001839
858.433	0.001459
868.078	0.0009973
877.722	0.0007721
887.367	0.0008857
897.012	0.0011147
906.657	0.001359
916.301	0.001279
925.946	0.001199
935.591	0.0010396
945.236	0.001449
954.88	0.002109
964.525	0.001799
974.17	0.001569
983.815	0.001509
993.46	0.002579
1003.1	0.005389
1012.75	0.014149
1022.39	0.015279
1032.04	0.005669
1041.68	0.002999
1051.33	0.007869
1060.97	0.017039
1070.62	0.011909
1080.26	0.003729
1089.91	0.002109
1099.55	0.002199
1109.2	0.001809
1118.84	0.001469
1128.49	0.0010905
1138.13	0.001959
1147.78	0.001779
1157.42	0.0009034
1167.07	0.001319
1176.71	0.0011013
1186.36	0.001389
1196	0.002859
1205.64	0.003849
1215.29	0.007179
1224.93	0.010119
1234.58	0.006229
1244.22	0.002439
1253.87	0.002729
1263.51	0.003449
1273.16	0.005889
1282.8	0.006979
1292.45	0.005209
1302.09	0.003429
1311.74	0.002339
1321.38	0.002179
1331.03	0.003339
1340.67	0.004659
1350.32	0.007249
1359.96	0.005939
1369.61	0.002459
1379.25	0.001379
1388.9	0.0011422
1398.54	0.0011636
1408.18	0.001229
1417.83	0.001719
1427.47	0.003459
1437.12	0.006639
1446.76	0.007499
1456.41	0.007519
1466.05	0.007249
1475.7	0.004909
1485.34	0.004729
1494.99	0.006529
1504.63	0.004399
1514.28	0.002069
1523.92	0.001819
1533.57	0.001569
1543.21	0.001249
1552.86	0.0011265
1562.5	0.0010332
1572.15	0.0010367
1581.79	0.0011615
1591.44	0.001329
1601.08	0.002489
1610.73	0.003229
1620.37	0.001939
1630.01	0.0009825
1639.66	0.0007522
1649.3	0.0005787
1658.95	0.0006023
1668.59	0.0006115
1678.24	0.0007025
1687.88	0.001179
1697.53	0.001509
1707.17	0.0011374
1716.82	0.0006362
1726.46	0.0005921
1736.11	0.0005472
1745.75	0.0006311
1755.4	0.0006232
1765.04	0.0006356
1774.69	0.000696
1784.33	0.0007963
1793.98	0.0011232
1803.62	0.0011572
1813.27	0.0007936
1822.91	0.0005577
1832.55	0.0005571
1842.2	0.0005601
1851.84	0.0006114
1861.49	0.0007609
1871.13	0.0008121
1880.78	0.0007914
1890.42	0.0006493
1900.07	0.0007108
1909.71	0.0005938
1919.36	0.0006201
1929	0.0007528
1938.65	0.0008614
1948.29	0.0009795
1957.94	0.0010551
1967.58	0.0008392
1977.23	0.0004983
1986.87	0.0005205
1996.52	0.0004327
2006.16	0.0004322
2015.81	0.0004736
2025.45	0.0004094
2035.1	0.0003904
2044.74	0.0003526
2054.38	0.0003184
2064.03	0.0003617
2073.67	0.0004858
2083.32	0.0003966
2092.96	0.0003738
2102.61	0.0004164
2112.25	0.0004012
2121.9	0.0004664
2131.54	0.000511
2141.19	0.0004385
2150.83	0.0004725
2160.48	0.0004326
2170.12	0.0004959
2179.77	0.0004429
2189.41	0.0004588
2199.06	0.0004817
2208.7	0.0004601
2218.35	0.0005734
2227.99	0.0005518
2237.64	0.0007132
2247.28	0.0006865
2256.92	0.0007314
2266.57	0.0007556
2276.21	0.000813
2285.86	0.0009
2295.5	0.0005992
2305.15	0.000481
2314.79	0.0005064
2324.44	0.0006008
2334.08	0.0005454
2343.73	0.0004607
2353.37	0.0005381
2363.02	0.0006554
2372.66	0.0005483
2382.31	0.0005557
2391.95	0.0006125
2401.6	0.0004667
2411.24	0.0005849
2420.89	0.0005925
2430.53	0.0007423
2440.18	0.0006888
2449.82	0.0006354
2459.47	0.0003884
2469.11	0.0004819
2478.75	0.0003331
2488.4	0.0003567
2498.04	0.0003962
2507.69	0.000415
2517.33	0.000488
2526.98	0.000359
2536.62	0.0005326
2546.27	0.0004615
2555.91	0.0004325
2565.56	0.000597
2575.2	0.0005484
2584.85	0.0004915
2594.49	0.000563
2604.14	0.0006616
2613.78	0.0005757
2623.43	0.0004924
2633.07	0.0005216
2642.72	0.0005551
2652.36	0.0005387
2662.01	0.0004675
2671.65	0.0004965
2681.29	0.0004849
2690.94	0.0003746
2700.58	0.0005348
2710.23	0.0005146
2719.87	0.0003714
2729.52	0.0003998
2739.16	0.0004755
2748.81	0.0003595
2758.45	0.0003742
2768.1	0.0004603
2777.74	0.0003944
2787.39	0.0005137
2797.03	0.0004733
2806.68	0.0006194
2816.32	0.0004921
2825.97	0.0006279
2835.61	0.0005766
2845.26	0.0007529
2854.9	0.0009678
2864.55	0.0009543
2874.19	0.000989
2883.84	0.0010813
2893.48	0.0008726
2903.12	0.001123
2912.77	0.001399
2922.41	0.001809
2932.06	0.002879
2941.7	0.004069
2951.35	0.004629
2960.99	0.003619
2970.64	0.002679
2980.28	0.002029
2989.93	0.001579
2999.57	0.001339
3009.22	0.001909
3018.86	0.003049
3028.51	0.005479
3038.15	0.007089
3047.8	0.005779
3057.44	0.004599
3067.09	0.006909
3076.73	0.008019
3086.38	0.005399
3096.02	0.003859
3105.67	0.002809
3115.31	0.001959
3124.95	0.001309
3134.6	0.0010125
3144.24	0.0008984
3153.89	0.0008908
3163.53	0.0008345
3173.18	0.0004238
3182.82	0.0004317
3192.47	0.0005271
3202.11	0.0003889
3211.76	0.0003867
3221.4	0.0003728
3231.05	0.00022986
3240.69	0.00024128
3250.34	0.00022394
3259.98	0.0003849
3269.63	0.0003071
3279.27	0.0004715
3288.92	0.0003709
3298.56	0.0004824
3308.21	0.000461
3317.85	0.0003191
3327.49	0.0003404
3337.14	0.00025966
3346.78	0.0001202
3356.43	0.000314
3366.07	0.0001517
3375.72	0.0001358
3385.36	0.0003935
3395.01	0.0003544
3404.65	0.0004061
3414.3	0.000156
3423.94	0.0002812
3433.59	0.0003253
3443.23	0.0003455
3452.88	0.00023667
3462.52	0.00022894
3472.17	0.0004066
3481.81	0.0004181
3491.46	0.0003303
3501.1	0.0004173
3510.75	0.00016334
3520.39	0.00023225
3530.04	0.0004548
3539.68	0.000171477
3549.32	0.00025923
3558.97	0.0002841
3568.61	0.0003582
3578.26	0.00023426
3587.9	0.00018581
3597.55	0.0004147
3607.19	0.000133
3616.84	0.0002994
3626.48	5e-05
3636.13	0.0001195
3645.77	0.0002987
3655.42	0.00020743
3665.06	0.0003513
3674.71	0.0004534
3684.35	0.0006124
3694	0.0003855
3703.64	0.0003518
3713.29	0.00026084
3722.93	0.000170922
3732.58	0.00020526
3742.22	0.0003032
3751.86	0.00016311
3761.51	0.00018093
3771.15	0.0003751
3780.8	0.00025418
3790.44	0.0002974
3800.09	0.0002343
3809.73	0.0003211
3819.38	0.0003389
3829.02	0.00018945
3838.67	0.0003394
3848.31	0.00022645
3857.96	0.0003159
3867.6	0.00020014
3877.25	0.0004587
3886.89	0.00023379
3896.54	0.0003085
3906.18	0.0003025
3915.83	0.0005133
3925.47	0.000456
3935.12	0.0003734
3944.76	0.0002796
3954.41	0.0004776
3964.05	0.0003036
3973.69	0.0003579
3983.34	0.000329
3992.98	0.00019709
