Infrared Spectrum: 2-METHYL-2-PHENYL-3-HYDROXYPROPANOIC ACID
Formula: C10 H12 O3
CAS: 4370-81-4
State: SOLUTION (7% IN CHCl3)
Class: COBLENTZ
Instrument: PERKIN-ELMER
Sampling: TRANSMISSION
Path length: 0.010 CM
Resolution: 4
Origin: ABBOTT LABORATORIES - WASHBURN
MICROMETERS	TRANSMITTANCE
2.029	0.962
2.06315	0.958
2.09731	0.96
2.13146	0.958
2.16562	0.9548
2.19977	0.9521
2.23393	0.955
2.26808	0.953
2.30224	0.948
2.33639	0.941
2.37055	0.938
2.4047	0.9381
2.43886	0.943
2.47301	0.9311
2.50717	0.9331
2.54132	0.935
2.57548	0.9401
2.60963	0.9399
2.64379	0.933
2.67794	0.931
2.7121	0.912
2.74625	0.8919
2.78041	0.7618
2.81456	0.687
2.84872	0.6691
2.88287	0.6417
2.91703	0.634
2.95118	0.63
2.98534	0.6268
3.01949	0.6129
3.05365	0.5976
3.0878	0.5598
3.12196	0.5241
3.15611	0.4783
3.19027	0.4589
3.22442	0.4148
3.25858	0.3788
3.29273	0.3687
3.32689	0.35
3.36104	0.3398
3.3952	0.3531
3.42935	0.3931
3.46351	0.411
3.49766	0.4602
3.53182	0.5178
3.56597	0.5553
3.60013	0.5791
3.63428	0.608
3.66844	0.6303
3.70259	0.6388
3.73675	0.6248
3.7709	0.6125
3.80505	0.606
3.83921	0.617
3.87336	0.6342
3.90752	0.641
3.94167	0.6511
3.97583	0.6732
4.00998	0.699
4.04414	0.7279
4.07829	0.747
4.11245	0.758
4.1466	0.7774
4.18076	0.7942
4.21491	0.811
4.24907	0.8206
4.28322	0.8321
4.31738	0.837
4.35153	0.841
4.38569	0.847
4.41984	0.8511
4.454	0.852
4.48815	0.854
4.52231	0.859
4.55646	0.861
4.59062	0.863
4.62477	0.863
4.65893	0.861
4.69308	0.861
4.72724	0.863
4.76139	0.861
4.79555	0.859
4.8297	0.852
4.86386	0.852
4.89801	0.849
4.93217	0.851
4.96632	0.8509
5.00048	0.8509
5.03463	0.841
5.06879	0.83
5.10294	0.8208
5.1371	0.8285
5.17125	0.837
5.20541	0.8345
5.23956	0.83
5.27372	0.822
5.30787	0.8144
5.34203	0.8176
5.37618	0.827
5.41034	0.8231
5.44449	0.8176
5.47864	0.8074
5.5128	0.7869
5.54695	0.7886
5.58111	0.7851
5.61526	0.7563
5.64942	0.6781
5.68357	0.5858
5.71773	0.4451
5.75188	0.3038
5.78604	0.1992
5.82019	0.0854
5.85435	0.0866
5.8885	0.1193
5.92266	0.3007
5.95681	0.473
5.99097	0.5805
6.02512	0.6461
6.05928	0.7024
6.09343	0.7269
6.12759	0.753
6.16174	0.7637
6.1959	0.7469
6.23005	0.654
6.26421	0.7585
6.29836	0.7669
6.33252	0.7986
6.36667	0.8238
6.40083	0.83
6.43498	0.8333
6.46914	0.829
6.50329	0.8322
6.53745	0.8271
6.5716	0.822
6.60576	0.8069
6.63991	0.7495
6.67407	0.5468
6.70822	0.6316
6.74238	0.7103
6.77653	0.6508
6.81069	0.5145
6.84484	0.4831
6.879	0.586
6.91315	0.5263
6.94731	0.6179
6.98146	0.6793
7.01562	0.6599
7.04977	0.6211
7.08393	0.5485
7.11808	0.5134
7.15224	0.512
7.18639	0.516
7.22054	0.5228
7.2547	0.529
7.28885	0.5258
7.32301	0.6055
7.35716	0.6359
7.39132	0.6466
7.42547	0.6607
7.45963	0.676
7.49378	0.676
7.52794	0.6715
7.56209	0.6534
7.59625	0.6227
7.6304	0.5692
7.66456	0.52
7.69871	0.4438
7.73287	0.3754
7.76702	0.3797
7.80118	0.3814
7.83533	0.3476
7.86949	0.345
7.90364	0.3589
7.9378	0.3814
7.97195	0.405
8.00611	0.415
8.04026	0.406
8.07442	0.3851
8.10857	0.3796
8.14273	0.3765
8.17688	0.3958
8.21104	0.4502
8.24519	0.4911
8.27935	0.52
8.3135	0.545
8.34766	0.5352
8.38181	0.524
8.41597	0.5373
8.45012	0.553
8.48428	0.5712
8.51843	0.585
8.55259	0.584
8.58674	0.5612
8.6209	0.5386
8.65505	0.5156
8.68921	0.5171
8.72336	0.5378
8.75752	0.5636
8.79167	0.5835
8.82583	0.5869
8.85998	0.5786
8.89414	0.5559
8.92829	0.5235
8.96244	0.5268
8.9966	0.5633
9.03075	0.6004
9.06491	0.606
9.09906	0.6312
9.13322	0.6657
9.16737	0.6824
9.20153	0.6823
9.23568	0.6363
9.26984	0.5853
9.30399	0.5574
9.33815	0.5389
9.3723	0.6047
9.40646	0.6414
9.44061	0.6511
9.47477	0.5884
9.50892	0.5068
9.54308	0.4059
9.57723	0.2887
9.61139	0.2179
9.64554	0.2005
9.6797	0.2346
9.71385	0.2367
9.74801	0.1738
9.78216	0.2069
9.81632	0.336
9.85047	0.4632
9.88463	0.5814
9.91878	0.6485
9.95294	0.6856
9.98709	0.704
10.0212	0.7198
10.0554	0.7411
10.0896	0.7395
10.1237	0.733
10.1579	0.729
10.192	0.7209
10.2262	0.7142
10.2603	0.7186
10.2945	0.7238
10.3286	0.7176
10.3628	0.7179
10.397	0.7031
10.4311	0.6905
10.4653	0.6649
10.4994	0.639
10.5336	0.6177
10.5677	0.613
10.6019	0.6335
10.636	0.641
10.6702	0.6412
10.7043	0.6301
10.7385	0.6064
10.7727	0.5971
10.8068	0.5876
10.841	0.5886
10.8751	0.6132
10.9093	0.6446
10.9434	0.6699
10.9776	0.671
11.0117	0.67
11.0459	0.6725
11.08	0.678
11.1142	0.69
11.1484	0.695
11.1825	0.7
11.2167	0.705
11.2508	0.702
11.285	0.712
11.3191	0.7111
11.3533	0.7041
11.3874	0.7004
11.4216	0.695
11.4558	0.6932
11.4899	0.6994
11.5241	0.7077
11.5582	0.717
11.5924	0.714
11.6265	0.7108
11.6607	0.704
11.6948	0.699
11.729	0.6972
11.7631	0.679
11.7973	0.6893
11.8315	0.694
11.8656	0.6978
11.8998	0.699
11.9339	0.7014
11.9681	0.699
12.0022	0.7039
12.0364	0.7091
12.0705	0.709
12.1047	0.7223
12.1389	0.733
12.173	0.7424
12.2072	0.745
12.2413	0.756
12.2755	0.7592
12.3096	0.762
12.3438	0.758
12.3779	0.7588
12.4121	0.77
12.4462	0.7769
12.4804	0.7824
12.5146	0.7751
12.5487	0.7804
12.5829	0.784
12.617	0.788
12.6512	0.789
12.6853	0.789
12.7195	0.7963
12.7536	0.8001
12.7878	0.818
12.8219	0.8296
12.8561	0.8418
12.8903	0.849
12.9244	0.8574
12.9586	0.861
12.9927	0.8704
13.0269	0.8766
13.061	0.8876
13.0952	0.8954
13.1293	0.895
13.1635	0.8969
13.1977	0.9067
13.2318	0.9277
13.266	0.936
13.3001	0.94
13.3343	0.941
13.3684	0.945
13.4026	0.9445
13.4367	0.936
13.4709	0.9413
13.505	0.947
13.5392	0.945
13.5734	0.94
13.6075	0.9447
13.6417	0.947
13.6758	0.9476
13.71	0.9524
13.7441	0.9493
13.7783	0.952
13.8124	0.952
13.8466	0.9422
13.8808	0.917
13.9149	0.883
13.9491	0.8526
13.9832	0.8207
14.0174	0.7907
14.0515	0.7589
14.0857	0.7301
14.1198	0.7058
14.154	0.6808
14.1881	0.6328
14.2223	0.5381
14.2565	0.3872
14.2906	0.2415
14.3248	0.1885
14.3589	0.2039
14.3931	0.2855
14.4272	0.3899
14.4614	0.4538
14.4955	0.5516
14.5297	0.6071
14.5638	0.6623
14.598	0.7041
14.6322	0.7263
14.6663	0.7429
14.7005	0.7612
14.7346	0.7626
14.7688	0.757
14.8029	0.762
14.8371	0.762
14.8712	0.758
14.9054	0.7596
14.9396	0.7635
14.9737	0.7498
15.0079	0.7481
15.042	0.7548
15.0762	0.7522
15.1103	0.7378
15.1445	0.7099
15.1786	0.7212
15.2128	0.7511
15.2469	0.77
15.2811	0.7796
15.3153	0.7858
15.3494	0.784
15.3836	0.782
15.4177	0.7793
15.4519	0.7612
