Infrared Spectrum: 2,5-Dibromo-3,6-dihydroxy-p-benzoquinone
Formula: C6 H2 Br2 O4
CAS: 4370-59-6
State: SOLID (SPLIT MULL)
Class: COBLENTZ III
Instrument: DOW KBr FOREPRISM-GRATING
Instrument parameters: BLAZED AT 3.5, 12.0, 20.0 MICRON AND CHANGED AT 5.0, 7.5, 14.9 MICRON
Sampling: TRANSMISSION
Resolution: 2
Origin: DOW CHEMICAL COMPANY
1/CM	TRANSMITTANCE
466	1.0491
475	1.0486
484	1.0478
493	1.0471
502	1.045
511	1.0351
520	1.0312
529	1.0371
538	1.0018
547	0.8893
556	0.5408
565	1.0306
574	1.0443
583	1.0414
592	1.0458
601	1.0389
610	1.0308
619	1.0303
628	1.0225
637	1.006
646	0.9838
655	0.955
664	0.9168
673	0.8721
682	0.8128
691	0.7548
700	0.8261
709	0.9246
718	0.9668
727	1.0027
736	1.0206
745	0.9943
754	0.5872
763	0.9759
772	1.0061
781	0.9954
790	0.9735
799	0.9013
808	0.5838
817	0.8106
826	0.9016
835	1.0033
844	1.0184
853	1.0255
862	1.029
871	1.0249
880	1.0197
889	1.0139
898	1.0106
907	1.0124
916	1.0141
925	1.0125
934	1.0002
943	0.9786
952	0.9203
961	0.5541
970	0.7181
979	0.9703
988	1.0003
997	1.0023
1006	1.0113
1015	1.014
1024	1.0109
1033	1.0044
1042	1.0045
1051	1.0031
1060	1.0021
1069	1.0024
1078	1.0036
1087	1.0066
1096	0.994
1105	0.9783
1114	0.9571
1123	0.9352
1132	0.9083
1141	0.8691
1150	0.8069
1159	0.7432
1168	0.8058
1177	0.8194
1186	0.7896
1195	0.7875
1204	0.8025
1213	0.745
1222	0.6582
1231	0.4864
1240	0.3121
1249	0.1946
1258	0.1227
1267	0.0881
1276	0.0727
1285	0.1641
1294	0.4312
1303	0.6221
1312	0.7158
1321	0.7331
1330	0.6487
1339	0.4958
1348	0.3449
1357	0.1096
1366	0.4109
1375	0.6036
1384	0.7243
1393	0.8028
1402	0.8574
1411	0.8909
1420	0.9134
1429	0.9328
1438	0.9484
1447	0.9599
1456	0.9663
1465	0.9706
1474	0.9789
1483	0.9831
1492	0.9843
1501	0.9828
1510	0.9797
1519	0.9746
1528	0.9583
1537	0.9203
1546	0.9459
1555	0.9456
1564	0.9336
1573	0.9143
1582	0.8907
1591	0.8477
1600	0.7268
1609	0.5297
1618	0.2284
1627	0.0471
1636	0.389
1645	0.6801
1654	0.1159
1663	0.25
1672	0.7115
1681	0.8856
1690	0.9251
1699	0.9328
1708	0.9415
1717	0.9824
1726	0.9896
1735	0.999
1744	1.0047
1753	1.0053
1762	1.0045
1771	1.0071
1780	1.0087
1789	1.0087
1798	1.0084
1807	0.9986
1816	0.9924
1825	1.016
1834	1.017
1843	1.0167
1852	1.0146
1861	1.0131
1870	1.0131
1879	1.0134
1888	1.0131
1897	1.0115
1906	1.0099
1915	1.0084
1924	1.0068
1933	1.0054
1942	1.004
1951	1.004
1960	0.9994
1969	0.9955
1978	0.9949
1987	0.9949
1996	0.9946
2005	0.9948
2014	0.9949
2023	0.9944
2032	0.9938
2041	0.9931
2050	0.9924
2059	0.9917
2068	0.9909
2077	0.9898
2086	0.9888
2095	0.9868
2104	0.9837
2113	0.9803
2122	0.9771
2131	0.9737
2140	0.9705
2149	0.9689
2158	0.9701
2167	0.9731
2176	0.9663
2185	0.9625
2194	0.9606
2203	0.9581
2212	0.9559
2221	0.9541
2230	0.9525
2239	0.9504
2248	0.9482
2257	0.9455
2266	0.9425
2275	0.9386
2284	0.9347
2293	0.9306
2302	0.9265
2311	0.9221
2320	0.9175
2329	0.9132
2338	0.9106
2347	0.9098
2356	0.9094
2365	0.9093
2374	0.909
2383	0.9087
2392	0.9083
2401	0.9077
2410	0.9065
2419	0.904
2428	0.9016
2437	0.8991
2446	0.8966
2455	0.8941
2464	0.8916
2473	0.8895
2482	0.8874
2491	0.8857
2500	0.8845
2509	0.8833
2518	0.8821
2527	0.8807
2536	0.8791
2545	0.8774
2554	0.8768
2563	0.8763
2572	0.8764
2581	0.8768
2590	0.877
2599	0.8775
2608	0.8785
2617	0.8782
2626	0.8771
2635	0.8761
2644	0.875
2653	0.8737
2662	0.8725
2671	0.8708
2680	0.8691
2689	0.8673
2698	0.8657
2707	0.8641
2716	0.8625
2725	0.861
2734	0.8589
2743	0.8566
2752	0.8544
2761	0.852
2770	0.8493
2779	0.8451
2788	0.8409
2797	0.8366
2806	0.8327
2815	0.829
2824	0.8251
2833	0.8209
2842	0.8158
2851	0.8101
2860	0.8045
2869	0.7984
2878	0.7914
2887	0.7843
2896	0.7771
2905	0.77
2914	0.7634
2923	0.7578
2932	0.7528
2941	0.7485
2950	0.7428
2959	0.7381
2968	0.7383
2977	0.7434
2986	0.7418
2995	0.7382
3004	0.7297
3013	0.7194
3022	0.7104
3031	0.7046
3040	0.6985
3049	0.6858
3058	0.67
3067	0.6543
3076	0.6349
3085	0.6114
3094	0.5832
3103	0.5576
3112	0.5345
3121	0.512
3130	0.4864
3139	0.46
3148	0.4309
3157	0.3984
3166	0.3648
3175	0.3353
3184	0.3059
3193	0.278
3202	0.2503
3211	0.2184
3220	0.1854
3229	0.1641
3238	0.1594
3247	0.1734
3256	0.1934
3265	0.2168
3274	0.2385
3283	0.2623
3292	0.2711
3301	0.2866
3310	0.3256
3319	0.5
3328	0.6195
3337	0.6762
3346	0.7219
3355	0.7639
3364	0.7939
3373	0.8151
3382	0.8328
3391	0.8483
3400	0.8595
3409	0.8664
3418	0.8701
3427	0.8724
3436	0.8738
3445	0.8745
3454	0.8738
3463	0.8725
3472	0.8705
3481	0.8687
3490	0.8671
3499	0.8645
3508	0.8618
3517	0.8596
3526	0.8574
3535	0.8565
3544	0.8558
3553	0.8552
3562	0.8501
3571	0.8443
3580	0.8424
3589	0.8421
3598	0.8424
3607	0.8433
3616	0.8428
3625	0.8383
3634	0.8349
3643	0.8341
3652	0.8337
3661	0.8335
3670	0.8331
3679	0.8321
3688	0.8313
3697	0.8301
3706	0.8289
3715	0.8277
3724	0.8262
3733	0.8247
3742	0.8233
3751	0.8218
3760	0.8191
3769	0.8164
3778	0.8147
3787	0.8138
3796	0.8128
