Infrared Spectrum: n-Hexadecylmalonic acid
Formula: C 19 H 36 O 4
CAS: 4371-64-6
State: gas
Origin: EPA-IR VAPOR PHASE LIBRARY
1/CM	ABSORBANCE
549.9	0.003766
559.547	0.004406
569.193	0.004286
578.84	0.004326
588.486	0.004646
598.133	0.004566
607.779	0.004746
617.426	0.004536
627.072	0.004236
636.719	0.003556
646.365	0.002776
656.012	0.002286
665.658	0.001986
675.305	0.001766
684.951	0.001776
694.598	0.001816
704.245	0.002146
713.891	0.002476
723.538	0.002456
733.184	0.002166
742.831	0.001826
752.477	0.001556
762.124	0.001436
771.77	0.0011823
781.417	0.0009487
791.063	0.0008266
800.71	0.0007972
810.356	0.0007792
820.003	0.0007025
829.649	0.0007743
839.296	0.0008075
848.943	0.0007478
858.589	0.0008112
868.236	0.0008611
877.882	0.0008135
887.529	0.0008738
897.175	0.0008234
906.822	0.0008223
916.468	0.000832
926.115	0.0007953
935.761	0.0007974
945.408	0.0007654
955.054	0.000875
964.701	0.0009055
974.347	0.0009926
983.994	0.0010149
993.64	0.0011975
1003.29	0.0014087
1012.93	0.001656
1022.58	0.001806
1032.23	0.002216
1041.87	0.002706
1051.52	0.003416
1061.17	0.004286
1070.81	0.005586
1080.46	0.007236
1090.11	0.008876
1099.75	0.010646
1109.4	0.012116
1119.05	0.012246
1128.69	0.012256
1138.34	0.010916
1147.99	0.008956
1157.63	0.007486
1167.28	0.006606
1176.92	0.005756
1186.57	0.004876
1196.22	0.004276
1205.86	0.003656
1215.51	0.003156
1225.16	0.002946
1234.8	0.002586
1244.45	0.002656
1254.1	0.002766
1263.74	0.002796
1273.39	0.002796
1283.04	0.002836
1292.68	0.002896
1302.33	0.003026
1311.98	0.002906
1321.62	0.002816
1331.27	0.003086
1340.92	0.003886
1350.56	0.004776
1360.21	0.004866
1369.86	0.004946
1379.5	0.004786
1389.15	0.003956
1398.79	0.002796
1408.44	0.002216
1418.09	0.002076
1427.73	0.002466
1437.38	0.003086
1447.03	0.004426
1456.67	0.006046
1466.32	0.005936
1475.97	0.003346
1485.61	0.001786
1495.26	0.0011087
1504.91	0.0008543
1514.55	0.0006013
1524.2	0.0005604
1533.85	0.00047139
1543.49	0.0004028
1553.14	0.00043738
1562.79	0.00050928
1572.43	0.00042828
1582.08	0.00044096
1591.73	0.00050763
1601.37	0.0006034
1611.02	0.0006335
1620.67	0.0006705
1630.31	0.0005631
1639.96	0.0005226
1649.6	0.00045443
1659.25	0.0005193
1668.9	0.0005005
1678.54	0.0005875
1688.19	0.0007294
1697.84	0.0009169
1707.48	0.0013478
1717.13	0.001926
1726.78	0.003366
1736.42	0.005036
1746.07	0.007806
1755.72	0.012016
1765.36	0.018266
1775.01	0.025236
1784.66	0.020886
1794.3	0.013116
1803.95	0.007906
1813.6	0.004206
1823.24	0.002216
1832.89	0.0013384
1842.54	0.000881
1852.18	0.0007207
1861.83	0.000588
1871.47	0.0005264
1881.12	0.00047395
1890.77	0.00046058
1900.41	0.00048956
1910.06	0.00046452
1919.71	0.00045358
1929.35	0.0004034
1939	0.00040852
1948.65	0.0003793
1958.29	0.0003964
1967.94	0.0003787
1977.59	0.0003904
1987.23	0.00041203
1996.88	0.00040936
2006.53	0.000416355
2016.17	0.0004543
2025.82	0.00044699
2035.47	0.00047494
2045.11	0.00043343
2054.76	0.00043372
2064.41	0.00041347
2074.05	0.00042774
2083.7	0.0003981
2093.35	0.00041352
2102.99	0.0003919
2112.64	0.0003906
2122.28	0.0004102
2131.93	0.0004031
2141.58	0.00041125
2151.22	0.0003932
2160.87	0.00044371
2170.52	0.00040981
2180.16	0.00044544
2189.81	0.00044873
2199.46	0.00045503
2209.1	0.00046061
2218.75	0.00046508
2228.4	0.00045015
2238.04	0.00043203
2247.69	0.00047142
2257.34	0.00043526
2266.98	0.00046365
2276.63	0.00043524
2286.28	0.00040649
2295.92	0.0004054
2305.57	0.000422947
2315.22	0.00047058
2324.86	0.000421685
2334.51	0.000413
2344.16	0.00041364
2353.8	0.0003543
2363.45	0.0003705
2373.09	0.0003594
2382.74	0.00042773
2392.39	0.00047706
2402.03	0.00044889
2411.68	0.00040682
2421.33	0.0004017
2430.97	0.000417402
2440.62	0.000422125
2450.27	0.00045665
2459.91	0.000421959
2469.56	0.00041432
2479.21	0.00043884
2488.85	0.00043707
2498.5	0.00047247
2508.15	0.00051004
2517.79	0.00049331
2527.44	0.0005164
2537.09	0.0005305
2546.73	0.0005404
2556.38	0.00047574
2566.03	0.0005765
2575.67	0.0005514
2585.32	0.0005491
2594.96	0.000529
2604.61	0.0006377
2614.26	0.0006996
2623.9	0.0007066
2633.55	0.0007438
2643.2	0.0008174
2652.84	0.0009279
2662.49	0.0009058
2672.14	0.0009076
2681.78	0.0010486
2691.43	0.0010117
2701.08	0.0010074
2710.72	0.0009651
2720.37	0.0009452
2730.02	0.000949
2739.66	0.0009785
2749.31	0.0010581
2758.96	0.0009926
2768.6	0.00116
2778.25	0.0013238
2787.9	0.001596
2797.54	0.001846
2807.19	0.002346
2816.84	0.002866
2826.48	0.003836
2836.13	0.005486
2845.77	0.009636
2855.42	0.022396
2865.07	0.030926
2874.71	0.020816
2884.36	0.015746
2894.01	0.015266
2903.65	0.021226
2913.3	0.033286
2922.95	0.058976
2932.59	0.086066
2942.24	0.060966
2951.89	0.033386
2961.53	0.022486
2971.18	0.017246
2980.83	0.009566
2990.47	0.005956
3000.12	0.004046
3009.77	0.003006
3019.41	0.002146
3029.06	0.001836
3038.71	0.001496
3048.35	0.0012367
3058	0.0011587
3067.64	0.0009717
3077.29	0.0007851
3086.94	0.0006368
3096.58	0.0008036
3106.23	0.0006695
3115.88	0.0005473
3125.52	0.000316
3135.17	0.00046117
3144.82	0.000416123
3154.46	0.0004005
3164.11	0.00042652
3173.76	0.000309
3183.4	0.000315
3193.05	0.000313
3202.7	0.0003334
3212.34	0.000281
3221.99	0.000182
3231.64	0.000227
3241.28	0.000253
3250.93	0.000201
3260.58	0.000166
3270.22	0.000239
3279.87	0.000123
3289.52	0.000215
3299.16	0.000166
3308.81	0.000138
3318.45	0.0003206
3328.1	0.000292
3337.75	5.2e-05
3347.39	0.000311
3357.04	0.000203
3366.69	0.000139
3376.33	0.0003414
3385.98	0.000276
3395.63	0.0003583
3405.27	0.000189
3414.92	0.00029
3424.57	0.000306
3434.21	0.00018
3443.86	0.000193
3453.51	0.000244
3463.15	0.000122
3472.8	8.4e-05
3482.45	0.00018
3492.09	0.0003688
3501.74	0.000228
3511.39	0.0003509
3521.03	0.0005264
3530.68	0.0005741
3540.33	0.0008164
3549.97	0.0013445
3559.62	0.002616
3569.26	0.007616
3578.91	0.009176
3588.56	0.002816
3598.2	0.0011873
3607.85	0.0005807
3617.5	0.0005594
3627.14	0.000399
3636.79	0.000284
3646.44	0.0003313
3656.08	0.000261
3665.73	0.0003501
3675.38	0.000212
3685.02	0.000296
3694.67	0.0004039
3704.32	0.0003355
3713.96	0.000208
3723.61	0.000181
3733.26	0.000292
3742.9	0.000296
3752.55	0.00011
3762.2	0.0003661
3771.84	0.000315
3781.49	0.000283
3791.13	0.000228
3800.78	0.0003564
3810.43	0.0003193
3820.07	0.000246
3829.72	0.0003605
3839.37	0.000214
3849.01	0.0003
3858.66	0.0003713
3868.31	0.0003789
3877.95	0.000293
3887.6	0.0003172
3897.25	0.0003485
3906.89	0.000214
3916.54	0.0003371
3926.19	0.000271
3935.83	0.0003493
3945.48	0.000311
3955.13	0.0003404
3964.77	0.0004042
3974.42	0.00031
3984.07	0.000297
3993.71	0.0003534
