Infrared Spectrum: Methyl hydrogen phthalate
Formula: C 9 H 8 O 4
CAS: 4376-18-5
State: gas
Origin: EPA-IR VAPOR PHASE LIBRARY
1/CM	ABSORBANCE
549.8	0.0047165
559.445	0.0055165
569.09	0.0053965
578.734	0.0038165
588.379	0.0021765
598.024	0.0014365
607.669	0.001018
617.313	0.0024265
626.958	0.0064265
636.603	0.0063865
646.248	0.0023465
655.893	0.0019665
665.537	0.0036465
675.182	0.0032365
684.827	0.0021965
694.472	0.0032665
704.116	0.0050865
713.761	0.0068165
723.406	0.0080665
733.051	0.0084365
742.695	0.0092065
752.34	0.0078065
761.985	0.0068165
771.63	0.0056065
781.275	0.0045065
790.919	0.0029865
800.564	0.0019265
810.209	0.0017065
819.854	0.0018565
829.498	0.0024165
839.143	0.0016765
848.788	0.0013165
858.433	0.0014265
868.078	0.0015065
877.722	0.0026365
887.367	0.0046865
897.012	0.0080065
906.657	0.0098965
916.301	0.0081665
925.946	0.0036565
935.591	0.0014565
945.236	0.0015165
954.88	0.0023665
964.525	0.0030365
974.17	0.0025765
983.815	0.0019965
993.46	0.0019665
1003.1	0.0025565
1012.75	0.0026665
1022.39	0.0033965
1032.04	0.0073465
1041.68	0.0085065
1051.33	0.0137265
1060.97	0.0176765
1070.62	0.0129965
1080.26	0.0089565
1089.91	0.0108965
1099.55	0.0186365
1109.2	0.0213465
1118.84	0.0193065
1128.49	0.0196165
1138.13	0.0163565
1147.78	0.0089265
1157.42	0.0073265
1167.07	0.0093165
1176.71	0.0151665
1186.36	0.0167265
1196	0.0114265
1205.64	0.0071465
1215.29	0.0055365
1224.93	0.0065165
1234.58	0.0098565
1244.22	0.0162165
1253.87	0.0269465
1263.51	0.0361765
1273.16	0.0353765
1282.8	0.0336665
1292.45	0.0312265
1302.09	0.0207465
1311.74	0.0120665
1321.38	0.0092865
1331.03	0.0090465
1340.67	0.0096065
1350.32	0.0092165
1359.96	0.0077165
1369.61	0.0064765
1379.25	0.0047865
1388.9	0.0032665
1398.54	0.0025365
1408.18	0.0022365
1417.83	0.0022565
1427.47	0.0039865
1437.12	0.0068865
1446.76	0.0050965
1456.41	0.0032365
1466.05	0.0027665
1475.7	0.0025865
1485.34	0.0024565
1494.99	0.0020165
1504.63	0.0014865
1514.28	0.0013365
1523.92	0.0011865
1533.57	0.0009981
1543.21	0.0010765
1552.86	0.0012065
1562.5	0.0016365
1572.15	0.0024565
1581.79	0.0027265
1591.44	0.0024765
1601.08	0.0025265
1610.73	0.0019665
1620.37	0.0012765
1630.01	0.0011965
1639.66	0.0011265
1649.3	0.0011865
1658.95	0.0014365
1668.59	0.0014365
1678.24	0.0017565
1687.88	0.0022065
1697.53	0.0029665
1707.17	0.0044265
1716.82	0.0059065
1726.46	0.0087265
1736.11	0.0168965
1745.75	0.0330365
1755.4	0.0523365
1765.04	0.0587865
1774.69	0.0424865
1784.33	0.0243965
1793.98	0.0219065
1803.62	0.0230965
1813.27	0.0178665
1822.91	0.0094365
1832.55	0.0044265
1842.2	0.0033765
1851.84	0.0040665
1861.49	0.0060665
1871.13	0.0059565
1880.78	0.0035865
1890.42	0.0022665
1900.07	0.0014565
1909.71	0.0010657
1919.36	0.0010428
1929	0.0011665
1938.65	0.0011965
1948.29	0.0009479
1957.94	0.0009622
1967.58	0.0008704
1977.23	0.0007742
1986.87	0.0006784
1996.52	0.0006334
2006.16	0.0007231
2015.81	0.0006118
2025.45	0.000535
2035.1	0.0004441
2044.74	0.0004209
2054.38	0.0005374
2064.03	0.0004442
2073.67	0.0005704
2083.32	0.0005699
2092.96	0.0004996
2102.61	0.0005649
2112.25	0.0005629
2121.9	0.0004606
2131.54	0.0004399
2141.19	0.00035
2150.83	0.0004013
2160.48	0.000404
2170.12	0.0005142
2179.77	0.0004084
2189.41	0.0002864
2199.06	0.0002914
2208.7	0.0002999
2218.35	0.0003182
2227.99	0.0003238
2237.64	0.0002875
2247.28	0.0003323
2256.92	0.0003465
2266.57	0.0003349
2276.21	0.0002851
2285.86	0.0003496
2295.5	0.0003629
2305.15	0.0003845
2314.79	0.0003523
2324.44	0.000379
2334.08	0.0003544
2343.73	0.0003823
2353.37	0.0002985
2363.02	0.0003424
2372.66	0.0003421
2382.31	0.0004044
2391.95	0.0003509
2401.6	0.0003154
2411.24	0.0003067
2420.89	0.0002592
2430.53	0.0002252
2440.18	0.0002771
2449.82	0.0001942
2459.47	0.0001867
2469.11	0.0002425
2478.75	0.0001746
2488.4	0.00012209
2498.04	0.0002125
2507.69	0.00016111
2517.33	0.0002511
2526.98	0.0002353
2536.62	0.0002276
2546.27	0.0002882
2555.91	0.0002121
2565.56	0.0002282
2575.2	0.0002405
2584.85	0.00018
2594.49	0.0002843
2604.14	0.00013822
2613.78	0.000167
2623.43	0.0001784
2633.07	0.0002257
2642.72	0.000288
2652.36	0.0002544
2662.01	0.0002456
2671.65	0.0001994
2681.29	0.0002443
2690.94	0.0002206
2700.58	0.0001123
2710.23	0.0002405
2719.87	0.0002023
2729.52	0.0002544
2739.16	0.0002383
2748.81	0.0001698
2758.45	0.0003025
2768.1	0.0004448
2777.74	0.0004225
2787.39	0.0004762
2797.03	0.0004716
2806.68	0.0005897
2816.32	0.0007834
2825.97	0.0008202
2835.61	0.0009715
2845.26	0.0016665
2854.9	0.0014065
2864.55	0.0012465
2874.19	0.0011365
2883.84	0.0014465
2893.48	0.0014465
2903.12	0.0016865
2912.77	0.0017765
2922.41	0.0018565
2932.06	0.0019665
2941.7	0.0023465
2951.35	0.0047065
2960.99	0.0067465
2970.64	0.0044665
2980.28	0.0024965
2989.93	0.0021865
2999.57	0.0021465
3009.22	0.0023665
3018.86	0.0020965
3028.51	0.0021565
3038.15	0.0019965
3047.8	0.0018065
3057.44	0.0019065
3067.09	0.0025365
3076.73	0.0037565
3086.38	0.0031565
3096.02	0.0018665
3105.67	0.0012065
3115.31	0.0010092
3124.95	0.0006245
3134.6	0.0008846
3144.24	0.0007508
3153.89	0.0007579
3163.53	0.0007562
3173.18	0.0005215
3182.82	0.0006479
3192.47	0.0005941
3202.11	0.0005345
3211.76	0.0005998
3221.4	0.0007
3231.05	0.0005664
3240.69	0.0006402
3250.34	0.0005857
3259.98	0.0005547
3269.63	0.0006597
3279.27	0.0005827
3288.92	0.0005164
3298.56	0.0006297
3308.21	0.0005126
3317.85	0.000338
3327.49	0.0003319
3337.14	0.00054
3346.78	0.0002552
3356.43	0.0005374
3366.07	0.0004998
3375.72	0.0004582
3385.36	0.0004667
3395.01	0.0004257
3404.65	0.0003751
3414.3	0.0004294
3423.94	0.0003845
3433.59	0.0002288
3443.23	0.0006082
3452.88	0.0003079
3462.52	0.0006482
3472.17	0.0006215
3481.81	0.0007044
3491.46	0.0008947
3501.1	0.000665
3510.75	0.0008685
3520.39	0.0007291
3530.04	0.0007145
3539.68	0.0007987
3549.32	0.0010865
3558.97	0.0026965
3568.61	0.0099565
3578.26	0.0127765
3587.9	0.0055265
3597.55	0.0016465
3607.19	0.0008778
3616.84	0.0008939
3626.48	0.000783
3636.13	0.000719
3645.77	0.0009673
3655.42	0.000903
3665.06	0.0008034
3674.71	0.0005784
3684.35	0.0006975
3694	0.0006687
3703.64	0.00041
3713.29	0.0004838
3722.93	0.0007128
3732.58	0.0004428
3742.22	0.0005289
3751.86	0.000326
3761.51	0.0005797
3771.15	0.0003001
3780.8	0.0003529
3790.44	0.00012862
3800.09	0.0001905
3809.73	0.000347
3819.38	0.0003436
3829.02	0.0003439
3838.67	0.0002647
3848.31	0.0002133
3857.96	0.0003323
3867.6	6.13e-05
3877.25	0.0004086
3886.89	0.0003634
3896.54	0.0001571
3906.18	0.0004412
3915.83	0.0002856
3925.47	0.0004732
3935.12	0.0003792
3944.76	0.0003171
3954.41	0.0002533
3964.05	0.0002461
3973.69	0.0002836
3983.34	0.000316
3992.98	0.0003503
