Infrared Spectrum: 2-(TRICHLOROMETHYL)PYRIDINE
Formula: C6 H4 Cl3 N
CAS: 4377-37-1
State: SOLUTION (10% CCl4 FOR 5000-1330, 10% CS2 FOR 1330-625 CM^-^1)
Class: COBLENTZ
Instrument: Not specified, most likely a prism, grating, or hybrid spectrometer.
Sampling: TRANSMISSION
Path length: 0.0125 CM, 0.0120 CM
Resolution: 4
Origin: DOW CHEMICAL COMPANY
MICROMETERS	TRANSMITTANCE
2.014	0.9
2.05508	0.897
2.09615	0.893
2.13723	0.892
2.17831	0.892
2.21938	0.89
2.26046	0.89
2.30153	0.89
2.34261	0.89
2.38369	0.89
2.42476	0.892
2.46584	0.893
2.50692	0.893
2.54799	0.893
2.58907	0.898
2.63014	0.909
2.67122	0.895
2.7123	0.897
2.75337	0.898
2.79445	0.893
2.83553	0.88
2.8766	0.875
2.91768	0.871
2.95876	0.873
2.99983	0.873
3.04091	0.875
3.08198	0.878
3.12306	0.878
3.16414	0.875
3.20521	0.864
3.24629	0.799
3.28737	0.789
3.32844	0.854
3.36952	0.881
3.4106	0.895
3.45167	0.898
3.49275	0.9
3.53382	0.902
3.5749	0.897
3.61598	0.893
3.65705	0.897
3.69813	0.898
3.73921	0.898
3.78028	0.895
3.82136	0.9
3.86243	0.904
3.90351	0.904
3.94459	0.904
3.98566	0.904
4.02674	0.904
4.06782	0.902
4.10889	0.9
4.14997	0.897
4.19105	0.886
4.23212	0.89
4.2732	0.898
4.31427	0.902
4.35535	0.892
4.39643	0.9
4.4375	0.905
4.47858	0.907
4.51966	0.909
4.56073	0.912
4.60181	0.917
4.64289	0.916
4.68396	0.916
4.72504	0.916
4.76611	0.916
4.80719	0.909
4.84827	0.912
4.88934	0.914
4.93042	0.912
4.9715	0.91
5.01257	0.893
5.05365	0.892
5.09472	0.892
5.1358	0.893
5.17688	0.904
5.21795	0.905
5.25903	0.914
5.30011	0.892
5.34118	0.893
5.38226	0.885
5.42334	0.895
5.46441	0.91
5.50549	0.912
5.54656	0.912
5.58764	0.91
5.62872	0.9
5.66979	0.902
5.71087	0.881
5.75195	0.864
5.79302	0.888
5.8341	0.895
5.87518	0.892
5.91625	0.909
5.95733	0.909
5.9984	0.897
6.03948	0.883
6.08056	0.868
6.12163	0.839
6.16271	0.828
6.20379	0.765
6.24486	0.667
6.28594	0.417
6.32701	0.25
6.36809	0.458
6.40917	0.479
6.45024	0.462
6.49132	0.518
6.5324	0.589
6.57347	0.633
6.61455	0.698
6.65563	0.758
6.6967	0.811
6.73778	0.828
6.77885	0.703
6.81993	0.484
6.86101	0.635
6.90208	0.779
6.94316	0.486
6.98424	0.446
7.02531	0.765
7.06639	0.844
7.10747	0.767
7.14854	0.806
7.18962	0.868
7.23069	0.875
7.27177	0.837
7.31285	0.852
7.35392	0.885
7.395	0.895
7.43608	0.895
7.47715	0.845
7.51823	0.84
7.5593	0.869
7.60038	0.888
7.64146	0.873
7.68253	0.806
7.72361	0.797
7.76469	0.873
7.80576	0.893
7.84684	0.897
7.88792	0.897
7.92899	0.895
7.97007	0.888
8.01114	0.892
8.05222	0.898
8.0933	0.898
8.13437	0.895
8.17545	0.878
8.21653	0.809
8.2576	0.789
8.29868	0.789
8.33976	0.833
8.38083	0.869
8.42191	0.893
8.46298	0.897
8.50406	0.897
8.54514	0.888
8.58621	0.886
8.62729	0.828
8.66837	0.773
8.70944	0.835
8.75052	0.873
8.79159	0.878
8.83267	0.88
8.87375	0.883
8.91482	0.861
8.9559	0.821
8.99698	0.782
9.03805	0.77
9.07913	0.808
9.12021	0.767
9.16128	0.861
9.20236	0.893
9.24343	0.895
9.28451	0.886
9.32559	0.895
9.36666	0.897
9.40774	0.88
9.44882	0.832
9.48989	0.746
9.53097	0.789
9.57204	0.871
9.61312	0.881
9.6542	0.883
9.69527	0.883
9.73635	0.881
9.77743	0.881
9.8185	0.868
9.85958	0.804
9.90066	0.851
9.94173	0.883
9.98281	0.876
10.0239	0.784
10.065	0.587
10.106	0.702
10.1471	0.869
10.1882	0.878
10.2293	0.892
10.2703	0.895
10.3114	0.895
10.3525	0.895
10.3936	0.892
10.4346	0.89
10.4757	0.895
10.5168	0.897
10.5579	0.902
10.599	0.907
10.64	0.907
10.6811	0.907
10.7222	0.904
10.7633	0.893
10.8043	0.878
10.8454	0.875
10.8865	0.875
10.9276	0.875
10.9686	0.868
11.0097	0.861
11.0508	0.857
11.0919	0.842
11.1329	0.799
11.174	0.741
11.2151	0.594
11.2562	0.39
11.2973	0.148
11.3383	0.292
11.3794	0.559
11.4205	0.643
11.4616	0.669
11.5026	0.674
11.5437	0.666
11.5848	0.647
11.6259	0.642
11.6669	0.645
11.708	0.65
11.7491	0.655
11.7902	0.666
11.8312	0.674
11.8723	0.669
11.9134	0.631
11.9545	0.561
11.9955	0.513
12.0366	0.419
12.0777	0.294
12.1188	0.178
12.1599	0.092
12.2009	0.047
12.242	0.03
12.2831	0.035
12.3242	0.053
12.3652	0.104
12.4063	0.22
12.4474	0.363
12.4885	0.467
12.5295	0.525
12.5706	0.554
12.6117	0.575
12.6528	0.58
12.6938	0.573
12.7349	0.539
12.776	0.472
12.8171	0.436
12.8582	0.436
12.8992	0.452
12.9403	0.482
12.9814	0.52
13.0225	0.554
13.0635	0.57
13.1046	0.577
13.1457	0.568
13.1868	0.541
13.2278	0.498
13.2689	0.441
13.31	0.368
13.3511	0.248
13.3921	0.142
13.4332	0.047
13.4743	0.003
13.5154	0.001
13.5564	0.027
13.5975	0.077
13.6386	0.087
13.6797	0.046
13.7208	0.02
13.7618	0.032
13.8029	0.071
13.844	0.128
13.8851	0.198
13.9261	0.25
13.9672	0.275
14.0083	0.284
14.0494	0.291
14.0904	0.296
14.1315	0.315
14.1726	0.359
14.2137	0.405
14.2547	0.453
14.2958	0.498
14.3369	0.53
14.378	0.556
14.4191	0.571
14.4601	0.587
14.5012	0.592
14.5423	0.599
14.5834	0.601
14.6244	0.602
14.6655	0.602
14.7066	0.604
14.7477	0.604
14.7887	0.601
14.8298	0.589
14.8709	0.582
14.912	0.575
14.953	0.565
14.9941	0.539
15.0352	0.479
15.0763	0.409
15.1173	0.34
15.1584	0.279
15.1995	0.265
15.2406	0.304
15.2817	0.363
15.3227	0.414
15.3638	0.441
15.4049	0.458
15.446	0.467
15.487	0.472
15.5281	0.472
15.5692	0.472
15.6103	0.472
15.6513	0.472
15.6924	0.472
15.7335	0.472
15.7746	0.472
15.8156	0.472
15.8567	0.472
15.8978	0.472
