Infrared Spectrum: 5-Methoxyindole-2-carboxylic acid
Formula: C 10 H 9 N O 3
CAS: 4382-54-1
State: gas
Origin: EPA-IR VAPOR PHASE LIBRARY
1/CM	ABSORBANCE
549.8	0.000726
559.445	3.6e-05
569.09	0.0011659
578.734	0.0013873
588.379	0.00201
598.024	0.00167
607.669	0.00163
617.313	0.0012001
626.958	0.0009977
636.603	0.0011247
646.248	0.0009204
655.893	0.0007098
665.537	0.0009794
675.182	0.0010986
684.827	0.00182
694.472	0.00425
704.116	0.00878
713.761	0.01469
723.406	0.0122
733.051	0.00994
742.695	0.00735
752.34	0.0065
761.985	0.00512
771.63	0.00587
781.275	0.00838
790.919	0.01044
800.564	0.00962
810.209	0.00676
819.854	0.0055
829.498	0.00585
839.143	0.00505
848.788	0.0052
858.433	0.00474
868.078	0.00354
877.722	0.00235
887.367	0.00224
897.012	0.00513
906.657	0.00519
916.301	0.00251
925.946	0.00223
935.591	0.00273
945.236	0.0021
954.88	0.00154
964.525	0.00171
974.17	0.00181
983.815	0.00194
993.46	0.00193
1003.1	0.00228
1012.75	0.00359
1022.39	0.00638
1032.04	0.00867
1041.68	0.0073
1051.33	0.00479
1060.97	0.00432
1070.62	0.00375
1080.26	0.00307
1089.91	0.00232
1099.55	0.00261
1109.2	0.00376
1118.84	0.0072
1128.49	0.00914
1138.13	0.01233
1147.78	0.02167
1157.42	0.0199
1167.07	0.00803
1176.71	0.00361
1186.36	0.00318
1196	0.00304
1205.64	0.00539
1215.29	0.01757
1224.93	0.02257
1234.58	0.01303
1244.22	0.00747
1253.87	0.00477
1263.51	0.00531
1273.16	0.01391
1282.8	0.01591
1292.45	0.00685
1302.09	0.00449
1311.74	0.00558
1321.38	0.00532
1331.03	0.004
1340.67	0.00306
1350.32	0.00228
1359.96	0.00162
1369.61	0.0013008
1379.25	0.00148
1388.9	0.00201
1398.54	0.00287
1408.18	0.00335
1417.83	0.00366
1427.47	0.00533
1437.12	0.01085
1446.76	0.01479
1456.41	0.01396
1466.05	0.01627
1475.7	0.02507
1485.34	0.02014
1494.99	0.00668
1504.63	0.00435
1514.28	0.00622
1523.92	0.0056
1533.57	0.00328
1543.21	0.00369
1552.86	0.00474
1562.5	0.00489
1572.15	0.00541
1581.79	0.00651
1591.44	0.00502
1601.08	0.0029
1610.73	0.00321
1620.37	0.00515
1630.01	0.00502
1639.66	0.00269
1649.3	0.00171
1658.95	0.00148
1668.59	0.00173
1678.24	0.00203
1687.88	0.00199
1697.53	0.00164
1707.17	0.00149
1716.82	0.0012049
1726.46	0.0009449
1736.11	0.0008391
1745.75	0.0006776
1755.4	0.0006172
1765.04	0.0006342
1774.69	0.0006357
1784.33	0.0006318
1793.98	0.0006025
1803.62	0.0006936
1813.27	0.0007752
1822.91	0.0008992
1832.55	0.0010369
1842.2	0.0009998
1851.84	0.0009735
1861.49	0.0007606
1871.13	0.0007367
1880.78	0.0007771
1890.42	0.0007861
1900.07	0.0006645
1909.71	0.0006295
1919.36	0.0007129
1929	0.0006883
1938.65	0.0007083
1948.29	0.0007728
1957.94	0.0007807
1967.58	0.0007589
1977.23	0.0007274
1986.87	0.0007495
1996.52	0.0007276
2006.16	0.0007829
2015.81	0.000816
2025.45	0.0008014
2035.1	0.0008527
2044.74	0.000947
2054.38	0.0009553
2064.03	0.0010009
2073.67	0.0009231
2083.32	0.0008433
2092.96	0.0006916
2102.61	0.0007172
2112.25	0.0006827
2121.9	0.0007031
2131.54	0.0007269
2141.19	0.0008147
2150.83	0.0007748
2160.48	0.00082
2170.12	0.0008544
2179.77	0.000892
2189.41	0.0009024
2199.06	0.0008501
2208.7	0.0007776
2218.35	0.0007442
2227.99	0.0006596
2237.64	0.0007598
2247.28	0.0007236
2256.92	0.0007624
2266.57	0.0007362
2276.21	0.000691
2285.86	0.000783
2295.5	0.000727
2305.15	0.0007665
2314.79	0.0008173
2324.44	0.0006227
2334.08	0.0007127
2343.73	0.0007524
2353.37	0.0007572
2363.02	0.0007387
2372.66	0.0008202
2382.31	0.0007193
2391.95	0.0007406
2401.6	0.0008538
2411.24	0.0007105
2420.89	0.0007756
2430.53	0.0007905
2440.18	0.0008062
2449.82	0.0008361
2459.47	0.0008155
2469.11	0.000859
2478.75	0.0007665
2488.4	0.0008581
2498.04	0.0008744
2507.69	0.0008022
2517.33	0.0007758
2526.98	0.0008426
2536.62	0.0008142
2546.27	0.0009002
2555.91	0.0008461
2565.56	0.000797
2575.2	0.000868
2584.85	0.0008597
2594.49	0.0008533
2604.14	0.0009301
2613.78	0.0008053
2623.43	0.0009227
2633.07	0.000945
2642.72	0.0009313
2652.36	0.0007231
2662.01	0.0008722
2671.65	0.0007126
2681.29	0.0008381
2690.94	0.000731
2700.58	0.0006959
2710.23	0.0007831
2719.87	0.0005898
2729.52	0.0007083
2739.16	0.0007574
2748.81	0.0008542
2758.45	0.0007249
2768.1	0.000814
2777.74	0.0010281
2787.39	0.0011345
2797.03	0.00147
2806.68	0.0015
2816.32	0.00193
2825.97	0.00309
2835.61	0.00481
2845.26	0.00486
2854.9	0.00321
2864.55	0.00244
2874.19	0.00241
2883.84	0.00294
2893.48	0.00343
2903.12	0.00431
2912.77	0.00479
2922.41	0.00495
2932.06	0.00603
2941.7	0.00746
2951.35	0.00728
2960.99	0.00522
2970.64	0.00403
2980.28	0.00372
2989.93	0.00496
2999.57	0.00705
3009.22	0.0055
3018.86	0.00328
3028.51	0.00346
3038.15	0.00363
3047.8	0.00299
3057.44	0.00262
3067.09	0.00295
3076.73	0.00284
3086.38	0.00261
3096.02	0.00212
3105.67	0.00188
3115.31	0.00183
3124.95	0.00175
3134.6	0.00201
3144.24	0.00177
3153.89	0.0008876
3163.53	0.0006478
3173.18	0.0006782
3182.82	0.0008373
3192.47	0.0007288
3202.11	0.0006206
3211.76	0.00048745
3221.4	0.0006374
3231.05	0.0005997
3240.69	0.0005891
3250.34	0.0007617
3259.98	0.0005089
3269.63	0.00048106
3279.27	0.0005984
3288.92	0.000467351
3298.56	0.00054848
3308.21	0.000321
3317.85	0.0004468
3327.49	0.0006051
3337.14	0.0006508
3346.78	0.0004027
3356.43	0.0005914
3366.07	0.0004104
3375.72	0.000460301
3385.36	0.0004005
3395.01	0.0006289
3404.65	0.00054366
3414.3	0.00052477
3423.94	0.000424
3433.59	0.0006246
3443.23	0.0008155
3452.88	0.0010955
3462.52	0.0011085
3472.17	0.00151
3481.81	0.00246
3491.46	0.00415
3501.1	0.00507
3510.75	0.00692
3520.39	0.00986
3530.04	0.00783
3539.68	0.00261
3549.32	0.0009826
3558.97	0.0006248
3568.61	0.00047691
3578.26	0.0006849
3587.9	0.000347
3597.55	0.0004072
3607.19	0.00053393
3616.84	0.0004276
3626.48	0.00049587
3636.13	0.00047591
3645.77	0.000436
3655.42	0.00047982
3665.06	0.0005709
3674.71	0.000249
3684.35	0.00032
3694	0.0003964
3703.64	0.000319
3713.29	0.00050034
3722.93	0.0006076
3732.58	0.0004284
3742.22	0.0003771
3751.86	0.000465877
3761.51	0.000465406
3771.15	0.0005998
3780.8	0.0003844
3790.44	0.00045085
3800.09	0.000322
3809.73	0.000224
3819.38	0.00054734
3829.02	0.0005211
3838.67	0.00029
3848.31	0.00051985
3857.96	0.0006755
3867.6	0.000674
3877.25	0.00049387
3886.89	0.0003936
3896.54	0.0006252
3906.18	0.0004491
3915.83	0.0007561
3925.47	0.000349
3935.12	0.0006353
3944.76	0.000344
3954.41	0.000314
3964.05	0.0004095
3973.69	0.00050671
3983.34	0.00031
3992.98	0.00052595
