Infrared Spectrum: 2-Methyl-1-phenyl-2-propen-1-ol
Formula: C 10 H 12 O
CAS: 4383-08-8
State: gas
Instrument: HP-GC/MS/IRD
Origin: NIST Mass Spectrometry Data Center
1/CM	ABSORBANCE
550	0.0018176
562	0.0008096
574	0.000872
586	0.0002472
598	4.24e-05
610	0.0002464
622	0.000652
634	0.0013384
646	0.0009696
658	0.000724
670	0.0010496
682	0.0026368
694	0.0064424
706	0.0059976
718	0.0032832
730	0.0035472
742	0.0042352
754	0.0037936
766	0.0022928
778	0.0007536
790	0.0004968
802	0.0004248
814	0.000536
826	0.000996
838	0.001344
850	0.001296
862	0.0012312
874	0.0009816
886	0.0019072
898	0.0058184
910	0.0060048
922	0.0021448
934	0.000932
946	0.0012032
958	0.0018136
970	0.0018568
982	0.002036
994	0.0030024
1006	0.0043992
1018	0.0067112
1030	0.0079952
1042	0.0072784
1054	0.0053384
1066	0.0032176
1078	0.0019664
1090	0.0012288
1102	0.0009048
1114	0.0007224
1126	0.0005784
1138	0.0006456
1150	0.0010088
1162	0.0019568
1174	0.002984
1186	0.002964
1198	0.0027464
1210	0.0027856
1222	0.0027496
1234	0.0025456
1246	0.002224
1258	0.0020136
1270	0.0021968
1282	0.0023176
1294	0.002276
1306	0.0023336
1318	0.0022936
1330	0.002244
1342	0.0022432
1354	0.00236
1366	0.0027352
1378	0.0028672
1390	0.0019824
1402	0.0013808
1414	0.001364
1426	0.0016392
1438	0.0025048
1450	0.0035448
1462	0.0027304
1474	0.0015632
1486	0.0020192
1498	0.0019336
1510	0.000716
1522	0.0004672
1534	0.0003824
1546	0.0003672
1558	0.0003656
1570	0.0004032
1582	0.0004864
1594	0.0009072
1606	0.0009968
1618	0.0006768
1630	0.0007872
1642	0.0013416
1654	0.0014992
1666	0.0007624
1678	0.0003112
1690	0.000136
1702	0.0001504
1714	0.0001304
1726	0.0001208
1738	0.0001736
1750	0.000156
1762	0.0001488
1774	0.0001464
1786	0.0002984
1798	0.0006744
1810	0.0007688
1822	0.0005048
1834	0.0002264
1846	0.00012
1858	0.0001424
1870	0.000268
1882	0.0003416
1894	0.0002904
1906	0.000108
1918	8.96e-05
1930	0.0002
1942	0.0003864
1954	0.00038
1966	0.000212
1978	6.96e-05
1990	8.24e-05
2002	5.76e-05
2014	5.76e-05
2026	2.96e-05
2038	6.32e-05
2050	9.04e-05
2062	7.52e-05
2074	8.56e-05
2086	5.68e-05
2098	6.32e-05
2110	5.12e-05
2122	5.36e-05
2134	6.32e-05
2146	4.88e-05
2158	5.52e-05
2170	7.36e-05
2182	6.72e-05
2194	6.32e-05
2206	5.44e-05
2218	3.2e-05
2230	6.48e-05
2242	5.68e-05
2254	5.76e-05
2266	9.84e-05
2278	9.68e-05
2290	7.04e-05
2302	9.76e-05
2314	0.0001192
2326	0.000128
2338	0.0001064
2350	8.96e-05
2362	7.76e-05
2374	0.0001
2386	9.44e-05
2398	5.92e-05
2410	8.96e-05
2422	5.84e-05
2434	7.6e-05
2446	7.52e-05
2458	4.56e-05
2470	6.32e-05
2482	6.32e-05
2494	7.76e-05
2506	5.76e-05
2518	7.28e-05
2530	0.0001232
2542	0.0001056
2554	8.88e-05
2566	7.68e-05
2578	0.0001336
2590	0.00012
2602	0.0001512
2614	8.56e-05
2626	0.0001064
2638	8.56e-05
2650	8.8e-05
2662	0.0001056
2674	0.0001128
2686	0.0001176
2698	0.0001216
2710	0.0001504
2722	0.0001608
2734	0.0002016
2746	0.0001936
2758	0.0001504
2770	0.0001928
2782	0.0002192
2794	0.000288
2806	0.0003496
2818	0.0004432
2830	0.0006872
2842	0.0011272
2854	0.0019736
2866	0.0029224
2878	0.0032528
2890	0.0029416
2902	0.0024432
2914	0.002388
2926	0.0026856
2938	0.0024184
2950	0.002184
2962	0.0023104
2974	0.0031168
2986	0.0036312
2998	0.0027104
3010	0.0022144
3022	0.002928
3034	0.0043016
3046	0.00362
3058	0.0038728
3070	0.0062336
3082	0.00592
3094	0.0039256
3106	0.0019768
3118	0.0008456
3130	0.0004056
3142	0.0002272
3154	0.0002352
3166	0.0001256
3178	0.0001792
3190	0.000104
3202	5.52e-05
3214	0.0001152
3226	8.24e-05
3238	5.84e-05
3250	4.88e-05
3262	2.64e-05
3274	9.6e-06
3286	7.28e-05
3298	4.56e-05
3310	4.08e-05
3322	3.12e-05
3334	6.56e-05
3346	0.0001016
3358	6.4e-05
3370	9.76e-05
3382	9.6e-05
3394	0.0001168
3406	0.0001216
3418	7.12e-05
3430	8.64e-05
3442	0.0001504
3454	0.0001272
3466	0.0001232
3478	0.0001152
3490	9.92e-05
3502	0.000112
3514	9.92e-05
3526	0.000112
3538	0.0001112
3550	0.0001248
3562	0.0001216
3574	4.72e-05
3586	5.76e-05
3598	0.0002176
3610	0.0003848
3622	0.0004816
3634	0.0015936
3646	0.0028448
3658	0.0020024
3670	0.0006584
3682	0.0002912
3694	0.000176
3706	0.0002424
3718	8.64e-05
3730	0.000128
3742	0.0001808
3754	0.0001816
3766	7.68e-05
3778	0.000136
3790	0.0001752
3802	0.00016
3814	0.0001056
3826	0.0001128
3838	0.0001504
