Infrared Spectrum: 3-Hydroxy-4-methoxybenzyl alcohol
Formula: C 8 H 10 O 3
CAS: 4383-06-6
State: gas
Origin: EPA-IR VAPOR PHASE LIBRARY
1/CM	ABSORBANCE
549.8	0.003282
559.445	0.003512
569.09	0.003542
578.735	0.003442
588.38	0.004172
598.025	0.003572
607.67	0.003492
617.315	0.003972
626.96	0.004682
636.605	0.004702
646.251	0.003802
655.896	0.002852
665.541	0.002332
675.186	0.002262
684.831	0.002532
694.476	0.002472
704.121	0.002942
713.766	0.003192
723.411	0.003952
733.056	0.005352
742.701	0.008922
752.346	0.016102
761.991	0.017482
771.636	0.010812
781.281	0.009362
790.926	0.013012
800.571	0.016552
810.216	0.013272
819.861	0.007742
829.507	0.004902
839.152	0.004292
848.797	0.005052
858.442	0.007852
868.087	0.011602
877.732	0.009932
887.377	0.006632
897.022	0.004912
906.667	0.005112
916.312	0.006432
925.957	0.009742
935.602	0.014442
945.247	0.015262
954.892	0.012962
964.537	0.013222
974.182	0.014452
983.827	0.015292
993.472	0.017982
1003.12	0.024242
1012.76	0.034522
1022.41	0.043082
1032.05	0.040202
1041.7	0.029262
1051.34	0.019922
1060.99	0.013972
1070.63	0.009822
1080.28	0.007562
1089.92	0.007182
1099.57	0.009072
1109.21	0.016152
1118.86	0.031612
1128.5	0.037502
1138.15	0.029012
1147.79	0.024542
1157.44	0.021042
1167.08	0.019522
1176.73	0.022352
1186.37	0.023192
1196.02	0.027862
1205.66	0.038862
1215.31	0.041282
1224.95	0.044232
1234.6	0.056972
1244.24	0.056112
1253.89	0.048552
1263.53	0.066642
1273.18	0.108902
1282.82	0.104892
1292.47	0.050692
1302.11	0.026282
1311.76	0.019022
1321.4	0.017882
1331.05	0.018362
1340.69	0.018802
1350.34	0.018282
1359.98	0.017362
1369.63	0.017352
1379.27	0.018792
1388.92	0.017932
1398.56	0.013922
1408.21	0.010772
1417.85	0.009832
1427.5	0.011282
1437.14	0.017682
1446.79	0.025572
1456.43	0.028162
1466.08	0.024822
1475.73	0.019212
1485.37	0.018502
1495.02	0.035012
1504.66	0.067212
1514.31	0.070602
1523.95	0.037022
1533.6	0.015222
1543.24	0.007972
1552.89	0.006082
1562.53	0.006212
1572.18	0.009062
1581.82	0.014962
1591.47	0.018972
1601.11	0.015412
1610.76	0.009362
1620.4	0.007242
1630.05	0.005512
1639.69	0.003162
1649.34	0.002002
1658.98	0.0016031
1668.63	0.001318
1678.27	0.001218
1687.92	0.0012884
1697.56	0.0014885
1707.21	0.002672
1716.85	0.003262
1726.5	0.002632
1736.14	0.001932
1745.79	0.0015128
1755.43	0.0010597
1765.08	0.0009914
1774.72	0.0010536
1784.37	0.0011331
1794.01	0.0010964
1803.66	0.0009563
1813.3	0.0008816
1822.95	0.0011094
1832.59	0.0012096
1842.24	0.0012228
1851.88	0.0011475
1861.53	0.0010198
1871.17	0.0008216
1880.82	0.000774
1890.46	0.00068148
1900.11	0.000619285
1909.75	0.0005578
1919.4	0.000559
1929.04	0.00066299
1938.69	0.00062864
1948.33	0.0007767
1957.98	0.0008421
1967.62	0.0009985
1977.27	0.0010475
1986.91	0.0012152
1996.56	0.001286
2006.2	0.0014091
2015.85	0.0014663
2025.49	0.001632
2035.14	0.001642
2044.78	0.0014896
2054.43	0.0012698
2064.07	0.0011291
2073.72	0.0010394
2083.36	0.0008157
2093.01	0.000617363
2102.65	0.000483
2112.3	0.000444
2121.94	0.0004
2131.59	0.000307
2141.23	0.000446
2150.88	0.000405
2160.52	0.000423
2170.17	0.000438
2179.81	0.000401
2189.46	0.000345
2199.1	0.000439
2208.75	0.000502
2218.39	0.0005727
2228.04	0.000495
2237.68	0.000591
2247.33	0.00068881
2256.97	0.0008429
2266.62	0.0007626
2276.26	0.0006452
2285.91	0.0005403
2295.55	0.00042
2305.2	0.000401
2314.84	0.000428
2324.49	0.00039
2334.13	0.000386
2343.78	0.000395
2353.42	0.000487
2363.07	0.000463
2372.72	0.000472
2382.36	0.0005789
2392.01	0.0005216
2401.65	0.00065577
2411.3	0.00070702
2420.94	0.0007281
2430.59	0.0007222
2440.23	0.0007364
2449.88	0.0005438
2459.52	0.0005191
2469.17	0.000425
2478.81	0.000496
2488.46	0.0005243
2498.1	0.00064049
2507.75	0.0007834
2517.39	0.0009876
2527.04	0.0010681
2536.68	0.0010978
2546.33	0.001055
2555.97	0.0008765
2565.62	0.0007861
2575.26	0.0005849
2584.91	0.0005828
2594.55	0.000513
2604.2	0.0005512
2613.84	0.0005249
2623.49	0.000485
2633.13	0.000436
2642.78	0.0005382
2652.42	0.0005503
2662.07	0.000412
2671.71	0.000454
2681.36	0.0005449
2691	0.0006007
2700.65	0.00068209
2710.29	0.0009356
2719.94	0.0011193
2729.58	0.0011821
2739.23	0.0013016
2748.87	0.0013965
2758.52	0.0012345
2768.16	0.0013357
2777.81	0.0015232
2787.45	0.001752
2797.1	0.002262
2806.74	0.002902
2816.39	0.003652
2826.03	0.004852
2835.68	0.007902
2845.32	0.012842
2854.97	0.013522
2864.61	0.011582
2874.26	0.013092
2883.9	0.014852
2893.55	0.014052
2903.19	0.013432
2912.84	0.014632
2922.48	0.016182
2932.13	0.017142
2941.77	0.020832
2951.42	0.022992
2961.06	0.020022
2970.71	0.014162
2980.35	0.009512
2990	0.008012
2999.64	0.010382
3009.29	0.012852
3018.93	0.009472
3028.58	0.006582
3038.22	0.007362
3047.87	0.007132
3057.51	0.005842
3067.16	0.004752
3076.8	0.004042
3086.45	0.003222
3096.09	0.002352
3105.74	0.001852
3115.38	0.0013187
3125.03	0.0010587
3134.67	0.00095
3144.32	0.00070357
3153.96	0.0005781
3163.61	0.000441
3173.25	0.000332
3182.9	0.000439
3192.54	0.000344
3202.19	0.000209
3211.83	0.00024
3221.48	0.000164
3231.12	0.000413
3240.77	0
3250.41	0.000203
3260.06	0.000335
3269.7	0.000167
3279.35	0.000312
3289	0.000278
3298.64	0.000472
3308.29	0.000365
3317.93	0.000303
3327.58	0.00029
3337.22	0.000145
3346.87	0.000245
3356.51	0.000146
3366.16	0.000192
3375.8	0.000262
3385.45	0.000275
3395.09	0.000275
3404.74	0.000339
3414.38	0.000331
3424.03	0.000403
3433.67	0.000254
3443.32	0.0005401
3452.96	0.000376
3462.61	0.000466
3472.25	0.000437
3481.9	0.000312
3491.54	0.000412
3501.19	0.000432
3510.83	0.000417
3520.48	0.0005823
3530.12	0.0007666
3539.77	0.0011
3549.41	0.001792
3559.06	0.003572
3568.7	0.011382
3578.35	0.036602
3587.99	0.050152
3597.64	0.026532
3607.28	0.007292
3616.93	0.003342
3626.57	0.003222
3636.22	0.004582
3645.86	0.006972
3655.51	0.006862
3665.15	0.005012
3674.8	0.003362
3684.44	0.002282
3694.09	0.001712
3703.73	0.0010058
3713.38	0.00070815
3723.02	0.00063827
3732.67	0.0005377
3742.31	0.000357
3751.96	0.000192
3761.6	0.000302
3771.25	0.000383
3780.89	0.000473
3790.54	0.0005149
3800.18	0.0005439
3809.83	0.000472
3819.47	0.000493
3829.12	0.00071121
3838.76	0.0005427
3848.41	0.0005826
3858.05	0.00067691
3867.7	0.00063908
3877.34	0.0008969
3886.99	0.0007139
3896.63	0.0007456
3906.28	0.0005739
3915.92	0.0005599
3925.57	0.000471
3935.21	0.00048
3944.86	0.000427
3954.5	0.00033
3964.15	0.000464
3973.79	0.000315
3983.44	0.000351
3993.08	0.000496
