Infrared Spectrum: 2-Hydroxy-3-methoxybenzyl alcohol
Formula: C 8 H 10 O 3
CAS: 4383-05-5
State: gas
Origin: EPA-IR VAPOR PHASE LIBRARY
1/CM	ABSORBANCE
549.8	0.00819
559.445	0.00653
569.09	0.00594
578.734	0.00458
588.379	0.00429
598.024	0.00372
607.669	0.00442
617.313	0.00395
626.958	0.00455
636.603	0.00394
646.248	0.00318
655.893	0.00389
665.537	0.00429
675.182	0.00555
684.827	0.00886
694.472	0.01472
704.116	0.01749
713.761	0.0188
723.406	0.03014
733.051	0.04379
742.695	0.02809
752.34	0.01606
761.985	0.01532
771.63	0.01985
781.275	0.01877
790.919	0.0124
800.564	0.00708
810.209	0.00646
819.854	0.01007
829.498	0.01395
839.143	0.01247
848.788	0.00915
858.433	0.00888
868.078	0.01024
877.722	0.01282
887.367	0.01511
897.012	0.01653
906.657	0.01675
916.301	0.0151
925.946	0.01251
935.591	0.01137
945.236	0.01369
954.88	0.01569
964.525	0.01666
974.17	0.01709
983.815	0.02162
993.46	0.02965
1003.1	0.04335
1012.75	0.06156
1022.39	0.0792
1032.04	0.07814
1041.68	0.05843
1051.33	0.04191
1060.97	0.03897
1070.62	0.04529
1080.26	0.04924
1089.91	0.04371
1099.55	0.02772
1109.2	0.0168
1118.84	0.01258
1128.49	0.01144
1138.13	0.00977
1147.78	0.01276
1157.42	0.01774
1167.07	0.02367
1176.71	0.02887
1186.36	0.03534
1196	0.04371
1205.64	0.06643
1215.29	0.10331
1224.93	0.10875
1234.58	0.07603
1244.22	0.06381
1253.87	0.09559
1263.51	0.14286
1273.16	0.13658
1282.8	0.07855
1292.45	0.04096
1302.09	0.0244
1311.74	0.01973
1321.38	0.02073
1331.03	0.02715
1340.67	0.0408
1350.32	0.05056
1359.96	0.04256
1369.61	0.0304
1379.25	0.02897
1388.9	0.03024
1398.54	0.02669
1408.18	0.0196
1417.83	0.01644
1427.47	0.01848
1437.12	0.03095
1446.76	0.04571
1456.41	0.05812
1466.05	0.08508
1475.7	0.12979
1485.34	0.1236
1494.99	0.06328
1504.63	0.02748
1514.28	0.01297
1523.92	0.00809
1533.57	0.00621
1543.21	0.00587
1552.86	0.00547
1562.5	0.00587
1572.15	0.00769
1581.79	0.01353
1591.44	0.01963
1601.08	0.01792
1610.73	0.01494
1620.37	0.01566
1630.01	0.01211
1639.66	0.00608
1649.3	0.00409
1658.95	0.00339
1668.59	0.00366
1678.24	0.00325
1687.88	0.00277
1697.53	0.00252
1707.17	0.00195
1716.82	0.00238
1726.46	0.00201
1736.11	0.0023
1745.75	0.00196
1755.4	0.00185
1765.04	0.00169
1774.69	0.00172
1784.33	0.00154
1793.98	0.00169
1803.62	0.0021
1813.27	0.00242
1822.91	0.00235
1832.55	0.00191
1842.2	0.00159
1851.84	0.00123
1861.49	0.00136
1871.13	0.00167
1880.78	0.00234
1890.42	0.00304
1900.07	0.00251
1909.71	0.00195
1919.36	0.00172
1929	0.00149
1938.65	0.00162
1948.29	0.00189
1957.94	0.00214
1967.58	0.00236
1977.23	0.00237
1986.87	0.00229
1996.52	0.002
2006.16	0.0018
2015.81	0.00175
2025.45	0.00171
2035.1	0.00198
2044.74	0.00221
2054.38	0.00218
2064.03	0.00187
2073.67	0.00155
2083.32	0.0015
2092.96	0.00144
2102.61	0.00162
2112.25	0.00153
2121.9	0.00137
2131.54	0.00146
2141.19	0.0015
2150.83	0.00153
2160.48	0.0018
2170.12	0.00187
2179.77	0.00172
2189.41	0.00141
2199.06	0.00104
2208.7	0.00101
2218.35	0.0009706
2227.99	0.0009581
2237.64	0.0008442
2247.28	0.0009336
2256.92	0.0008398
2266.57	0.0008406
2276.21	0.0009495
2285.86	0.0007447
2295.5	0.0012
2305.15	0.00123
2314.79	0.00106
2324.44	0.00127
2334.08	0.0011
2343.73	0.00105
2353.37	0.0009852
2363.02	0.00119
2372.66	0.00118
2382.31	0.00106
2391.95	0.000987
2401.6	0.00116
2411.24	0.00139
2420.89	0.0013
2430.53	0.0015
2440.18	0.00153
2449.82	0.00139
2459.47	0.0016
2469.11	0.00138
2478.75	0.0018
2488.4	0.00202
2498.04	0.00216
2507.69	0.00199
2517.33	0.0018
2526.98	0.00191
2536.62	0.00143
2546.27	0.00155
2555.91	0.00132
2565.56	0.00126
2575.2	0.00106
2584.85	0.00107
2594.49	0.00111
2604.14	0.00117
2613.78	0.00116
2623.43	0.00126
2633.07	0.00118
2642.72	0.00119
2652.36	0.00109
2662.01	0.00131
2671.65	0.00139
2681.29	0.00147
2690.94	0.00161
2700.58	0.00161
2710.23	0.00146
2719.87	0.00157
2729.52	0.00143
2739.16	0.00153
2748.81	0.0018
2758.45	0.00189
2768.1	0.00185
2777.74	0.00208
2787.39	0.00243
2797.03	0.00306
2806.68	0.00394
2816.32	0.00538
2825.97	0.00675
2835.61	0.01143
2845.26	0.01948
2854.9	0.02028
2864.55	0.01733
2874.19	0.01856
2883.84	0.02071
2893.48	0.02009
2903.12	0.01926
2912.77	0.02025
2922.41	0.02211
2932.06	0.02431
2941.7	0.03263
2951.35	0.03963
2960.99	0.03528
2970.64	0.02716
2980.28	0.01955
2989.93	0.01527
2999.57	0.01818
3009.22	0.01938
3018.86	0.01478
3028.51	0.00945
3038.15	0.01003
3047.8	0.01324
3057.44	0.01568
3067.09	0.01618
3076.73	0.01364
3086.38	0.01034
3096.02	0.00725
3105.67	0.00454
3115.31	0.00304
3124.95	0.00189
3134.6	0.00173
3144.24	0.00133
3153.89	0.00127
3163.53	0.0009763
3173.18	0.00109
3182.82	0.000962
3192.47	0.0004404
3202.11	0.0007879
3211.76	0.0005405
3221.4	0.0008614
3231.05	0.00104
3240.69	0.0009789
3250.34	0.00108
3259.98	0.00115
3269.63	0.0007218
3279.27	0.0007242
3288.92	0.0005205
3298.56	0.0006831
3308.21	0.0008059
3317.85	0.0005105
3327.49	0.0008893
3337.14	0.0005087
3346.78	0.0008165
3356.43	0.0007816
3366.07	0.00106
3375.72	0.0007548
3385.36	0.00103
3395.01	0.00129
3404.65	0.00171
3414.3	0.00137
3423.94	0.00199
3433.59	0.00211
3443.23	0.00189
3452.88	0.00227
3462.52	0.00319
3472.17	0.00378
3481.81	0.00524
3491.46	0.0065
3501.1	0.00679
3510.75	0.00664
3520.39	0.00552
3530.04	0.00503
3539.68	0.00567
3549.32	0.0086
3558.97	0.02065
3568.61	0.054
3578.26	0.0775
3587.9	0.05606
3597.55	0.02182
3607.19	0.00815
3616.84	0.00648
3626.48	0.00806
3636.13	0.01149
3645.77	0.01176
3655.42	0.00905
3665.06	0.00712
3674.71	0.00639
3684.35	0.00472
3694	0.0034
3703.64	0.00214
3713.29	0.00194
3722.93	0.00124
3732.58	0.00121
3742.22	0.00115
3751.86	0.0009564
3761.51	0.00106
3771.15	0.0002613
3780.8	0.0004849
3790.44	0.000722
3800.09	0.0006675
3809.73	0.0009052
3819.38	0.0009784
3829.02	0.00101
3838.67	0.001
3848.31	0.0008512
3857.96	0.0009462
3867.6	0.00149
3877.25	0.00124
3886.89	0.00141
3896.54	0.00127
3906.18	0.00117
3915.83	0.00111
3925.47	0.00113
3935.12	0.0008765
3944.76	0.0009618
3954.41	0.0008096
3964.05	0.0006512
3973.69	0.0008203
3983.34	0.0006191
3992.98	0.0007643
