Infrared Spectrum: N-ALLYLBENZYLAMINE
Formula: C10 H13 N
CAS: 4383-22-6
Class: COBLENTZ
Instrument: PERKIN-ELMER
Sampling: TRANSMISSION
Path length: CAPILLARY
Resolution: 4
Origin: ABBOTT LABORATORIES - WASHBURN
MICROMETERS	TRANSMITTANCE
2.013	0.889
2.053	0.889
2.093	0.8939
2.13301	0.891
2.17301	0.884
2.21301	0.887
2.25301	0.891
2.29301	0.887
2.33302	0.891
2.37302	0.884
2.41302	0.889
2.45302	0.887
2.49302	0.872
2.53302	0.8889
2.57303	0.8958
2.61303	0.897
2.65303	0.892
2.69303	0.9012
2.73303	0.8812
2.77304	0.8758
2.81304	0.865
2.85304	0.859
2.89304	0.8441
2.93304	0.8291
2.97305	0.8022
3.01305	0.775
3.05305	0.782
3.09305	0.8169
3.13305	0.829
3.17305	0.834
3.21306	0.8268
3.25306	0.5792
3.29306	0.5758
3.33306	0.6039
3.37306	0.6753
3.41307	0.5987
3.45307	0.547
3.49307	0.546
3.53307	0.4758
3.57307	0.3732
3.61308	0.5393
3.65308	0.728
3.69308	0.7868
3.73308	0.8147
3.77308	0.8513
3.81308	0.8761
3.85309	0.882
3.89309	0.8959
3.93309	0.899
3.97309	0.904
4.01309	0.904
4.0531	0.902
4.0931	0.9009
4.1331	0.8971
4.1731	0.897
4.2131	0.897
4.25311	0.901
4.29311	0.891
4.33311	0.891
4.37311	0.8861
4.41311	0.886
4.45311	0.889
4.49312	0.884
4.53312	0.8791
4.57312	0.879
4.61312	0.879
4.65312	0.881
4.69313	0.877
4.73313	0.872
4.77313	0.8742
4.81313	0.874
4.85313	0.871
4.89314	0.872
4.93314	0.871
4.97314	0.869
5.01314	0.864
5.05314	0.8491
5.09314	0.8391
5.13315	0.8191
5.17315	0.832
5.21315	0.8498
5.25315	0.852
5.29315	0.8427
5.33316	0.8211
5.37316	0.815
5.41316	0.8107
5.45316	0.8051
5.49316	0.8096
5.53317	0.8096
5.57317	0.8275
5.61317	0.849
5.65317	0.85
5.69317	0.8445
5.73317	0.845
5.77318	0.8478
5.81318	0.84
5.85318	0.839
5.89318	0.834
5.93318	0.824
5.97319	0.8025
6.01319	0.7909
6.05319	0.777
6.09319	0.5513
6.13319	0.6911
6.1732	0.7705
6.2132	0.7611
6.2532	0.6864
6.2932	0.73
6.3332	0.7419
6.37321	0.7847
6.41321	0.8017
6.45321	0.8072
6.49321	0.807
6.53321	0.81
6.57321	0.817
6.61322	0.817
6.65322	0.8143
6.69322	0.4645
6.73322	0.6032
6.77322	0.7257
6.81323	0.6882
6.85323	0.5188
6.89323	0.2579
6.93323	0.3661
6.97323	0.4837
7.01324	0.5896
7.05324	0.6103
7.09324	0.5454
7.13324	0.6724
7.17324	0.7125
7.21324	0.7387
7.25325	0.725
7.29325	0.6939
7.33325	0.5998
7.37325	0.5836
7.41325	0.5967
7.45326	0.6554
7.49326	0.6625
7.53326	0.6335
7.57326	0.6367
7.61326	0.6832
7.65327	0.695
7.69327	0.695
7.73327	0.6999
7.77327	0.7097
7.81327	0.7159
7.85327	0.731
7.89328	0.7263
7.93328	0.7024
7.97328	0.6545
8.01328	0.6487
8.05328	0.6766
8.09329	0.7137
8.13329	0.7427
8.17329	0.757
8.21329	0.768
8.25329	0.77
8.2933	0.7566
8.3333	0.724
8.3733	0.712
8.4133	0.7336
8.4533	0.7568
8.4933	0.7676
8.53331	0.7556
8.57331	0.7357
8.61331	0.7121
8.65331	0.678
8.69331	0.6198
8.73332	0.5749
8.77332	0.5468
8.81332	0.5568
8.85332	0.5776
8.89332	0.5838
8.93333	0.5363
8.97333	0.4689
9.01333	0.442
9.05333	0.432
9.09333	0.4565
9.13333	0.5132
9.17334	0.5654
9.21334	0.6043
9.25334	0.6238
9.29334	0.6044
9.33334	0.554
9.37335	0.5249
9.41335	0.5688
9.45335	0.6117
9.49335	0.6473
9.53335	0.6706
9.57336	0.6792
9.61336	0.685
9.65336	0.6839
9.69336	0.677
9.73336	0.5751
9.77336	0.4907
9.81337	0.6084
9.85337	0.6568
9.89337	0.6773
9.93337	0.6607
9.97337	0.5931
10.0134	0.4449
10.0534	0.3356
10.0934	0.32
10.1334	0.3668
10.1734	0.4257
10.2134	0.4846
10.2534	0.5177
10.2934	0.5442
10.3334	0.556
10.3734	0.559
10.4134	0.5769
10.4534	0.5909
10.4934	0.6107
10.5334	0.6358
10.5734	0.6427
10.6134	0.6414
10.6534	0.614
10.6934	0.5679
10.7334	0.4768
10.7734	0.368
10.8134	0.2642
10.8534	0.2018
10.8934	0.1597
10.9334	0.14
10.9734	0.1679
11.0134	0.2652
11.0534	0.342
11.0934	0.435
11.1334	0.5186
11.1734	0.5969
11.2134	0.6417
11.2534	0.6737
11.2934	0.6966
11.3334	0.7103
11.3734	0.72
11.4134	0.7215
11.4534	0.723
11.4934	0.715
11.5334	0.7094
11.5734	0.6959
11.6135	0.6909
11.6535	0.6952
11.6935	0.696
11.7335	0.69
11.7735	0.68
11.8135	0.675
11.8535	0.673
11.8935	0.671
11.9335	0.683
11.9735	0.683
12.0135	0.6721
12.0535	0.6645
12.0935	0.6545
12.1335	0.6361
12.1735	0.604
12.2135	0.5964
12.2535	0.6022
12.2935	0.6222
12.3335	0.6301
12.3735	0.631
12.4135	0.631
12.4535	0.633
12.4935	0.639
12.5335	0.6484
12.5735	0.6648
12.6135	0.671
12.6535	0.6667
12.6935	0.668
12.7335	0.6633
12.7735	0.6575
12.8135	0.6538
12.8535	0.6355
12.8935	0.6239
12.9335	0.614
12.9735	0.6053
13.0135	0.5986
13.0535	0.5815
13.0935	0.5657
13.1335	0.5584
13.1735	0.5318
13.2135	0.4984
13.2535	0.4496
13.2935	0.3861
13.3335	0.3182
13.3735	0.2466
13.4135	0.2127
13.4535	0.1746
13.4935	0.1506
13.5335	0.1392
13.5735	0.134
13.6135	0.135
13.6535	0.1442
13.6935	0.1705
13.7336	0.2107
13.7736	0.2565
13.8136	0.3109
13.8536	0.3439
13.8936	0.3732
13.9336	0.399
13.9736	0.424
14.0136	0.4364
14.0536	0.443
14.0936	0.4426
14.1336	0.4293
14.1736	0.3969
14.2136	0.3286
14.2536	0.2392
14.2936	0.1555
14.3336	0.1189
14.3736	0.102
14.4136	0.1341
14.4536	0.2384
14.4936	0.3546
14.5336	0.4334
14.5736	0.4822
14.6136	0.5171
14.6536	0.5439
14.6936	0.557
14.7336	0.564
14.7736	0.571
14.8136	0.574
14.8536	0.576
14.8936	0.5762
14.9336	0.576
14.9736	0.5785
15.0136	0.5817
15.0536	0.5832
15.0936	0.582
15.1336	0.5821
15.1736	0.5766
15.2136	0.5729
15.2536	0.5765
15.2936	0.573
15.3336	0.568
15.3736	0.562
15.4136	0.561
15.4536	0.561
