Infrared Spectrum: 2-Phenyl-2-pentanol
Formula: C 11 H 16 O
CAS: 4383-18-0
State: gas
Instrument: HP-GC/MS/IRD
Origin: NIST Mass Spectrometry Data Center
1/CM	ABSORBANCE
550	0.0023368
562	0.0018469
574	0.0015065
586	0.0020493
598	0.0012512
610	0.0003542
622	0.000414
634	0.0001196
646	8.97e-05
658	0.0005267
670	0.0012167
682	0.0030153
694	0.0098785
706	0.0089654
718	0.0028727
730	0.0016376
742	0.0022632
754	0.0050577
766	0.0051681
778	0.0014743
790	0.0003772
802	0.0001771
814	3.22e-05
826	0.0002277
838	0.0006969
850	0.001311
862	0.000989
874	0.0009269
886	0.0012811
898	0.002162
910	0.0025116
922	0.0018906
934	0.0020838
946	0.0024196
958	0.0013317
970	0.0005497
982	0.0005566
994	0.0009867
1006	0.0019918
1018	0.0037513
1030	0.0051474
1042	0.0035995
1054	0.0035328
1066	0.0032292
1078	0.0028428
1090	0.0030636
1102	0.0038663
1114	0.0041262
1126	0.0036708
1138	0.0041101
1150	0.0050577
1162	0.0056189
1174	0.0043539
1186	0.002898
1198	0.0023989
1210	0.0027048
1222	0.0029601
1234	0.0028221
1246	0.0027784
1258	0.0031234
1270	0.0039054
1282	0.0042021
1294	0.0042918
1306	0.0047518
1318	0.004738
1330	0.0039422
1342	0.0032545
1354	0.0033189
1366	0.0042987
1378	0.0051612
1390	0.0031326
1402	0.0015548
1414	0.0013156
1426	0.0016882
1438	0.003473
1450	0.0050462
1462	0.0040319
1474	0.0028359
1486	0.002875
1498	0.0029946
1510	0.0009407
1522	0.0004761
1534	0.0004508
1546	0.0003105
1558	0.0001909
1570	0.0002116
1582	0.0004485
1594	0.0011477
1606	0.0011132
1618	0.0002967
1630	8.74e-05
1642	2.99e-05
1654	7.59e-05
1666	0.0001311
1678	0.0001495
1690	5.29e-05
1702	6.9e-06
1714	2.99e-05
1726	0.000115
1738	0.0001932
1750	0.0001955
1762	0.0001104
1774	0.0001449
1786	0.0002944
1798	0.0005359
1810	0.0003496
1822	0.0001265
1834	4.83e-05
1846	7.13e-05
1858	0.0001771
1870	0.0003611
1882	0.0003979
1894	0.0002898
1906	0.0001426
1918	0.0001127
1930	0.0003036
1942	0.000552
1954	0.000483
1966	0.0002001
1978	3.68e-05
1990	4.14e-05
2002	2.3e-05
2014	1.84e-05
2026	2.3e-06
2038	2.07e-05
2050	2.76e-05
2062	5.06e-05
2074	2.53e-05
2086	3.91e-05
2098	2.99e-05
2110	5.06e-05
2122	2.99e-05
2134	5.75e-05
2146	6.21e-05
2158	4.83e-05
2170	4.37e-05
2182	5.06e-05
2194	6.21e-05
2206	6.44e-05
2218	5.29e-05
2230	5.29e-05
2242	4.37e-05
2254	4.37e-05
2266	5.06e-05
2278	5.29e-05
2290	9.89e-05
2302	0.0001127
2314	0.0001771
2326	0.0001725
2338	0.0001472
2350	0.0001472
2362	0.0001449
2374	0.0001242
2386	0.0001242
2398	0.0001196
2410	0.0001242
2422	0.0001081
2434	8.28e-05
2446	8.05e-05
2458	5.29e-05
2470	5.52e-05
2482	7.59e-05
2494	7.13e-05
2506	6.67e-05
2518	8.05e-05
2530	7.82e-05
2542	8.74e-05
2554	6.44e-05
2566	0.000115
2578	0.0001334
2590	0.0001426
2602	0.0001725
2614	0.0001357
2626	0.0001863
2638	0.0002001
2650	0.0001587
2662	0.0001702
2674	0.0001794
2686	0.0001932
2698	0.0001886
2710	0.0002024
2722	0.0002576
2734	0.0003887
2746	0.0004416
2758	0.0004117
2770	0.0003979
2782	0.0004554
2794	0.0005405
2806	0.0007567
2818	0.0009959
2830	0.0013593
2842	0.002116
2854	0.003289
2866	0.0046276
2878	0.0080155
2890	0.0086457
2902	0.0074083
2914	0.0093196
2926	0.0122705
2938	0.0154974
2950	0.014559
2962	0.0189336
2974	0.0222387
2986	0.0137793
2998	0.0060996
3010	0.0034224
3022	0.004117
3034	0.005658
3046	0.0050692
3058	0.0057086
3070	0.007636
3082	0.0056074
3094	0.0041078
3106	0.0023322
3118	0.001196
3130	0.0006624
3142	0.0004991
3154	0.0004324
3166	0.0003726
3178	0.0003634
3190	0.0002967
3202	0.0002162
3214	0.0002185
3226	0.0001748
3238	0.0001771
3250	0.0001472
3262	0.0001081
3274	8.74e-05
3286	0.0001288
3298	8.97e-05
3310	0.0001104
3322	5.98e-05
3334	9.66e-05
3346	9.66e-05
3358	7.36e-05
3370	9.66e-05
3382	7.82e-05
3394	0.0001058
3406	0.0001242
3418	0.0001219
3430	0.0001012
3442	8.51e-05
3454	0.0001035
3466	7.82e-05
3478	9.66e-05
3490	7.36e-05
3502	6.9e-05
3514	3.91e-05
3526	5.06e-05
3538	7.36e-05
3550	5.06e-05
3562	7.82e-05
3574	0.0001104
3586	9.66e-05
3598	0.0001863
3610	0.0003381
3622	0.0009844
3634	0.0022908
3646	0.0021367
3658	0.0009407
3670	0.0003703
3682	0.0002208
3694	0.0001334
3706	7.59e-05
3718	0.0001472
3730	9.89e-05
3742	7.82e-05
3754	9.43e-05
3766	6.9e-05
3778	0.0001242
3790	9.2e-05
3802	9.2e-05
3814	5.52e-05
3826	0.0001058
3838	0.0001219
