Infrared Spectrum: 2-AMINO-8-NAPHTHOL
Formula: C10 H9 N O
CAS: 4384-92-3
State: SOLID (1.0% IN KBr PELLET)
Class: COBLENTZ
Instrument: Not specified, most likely a prism, grating, or hybrid spectrometer.
Sampling: TRANSMISSION
Path length: 0.0355 CM THICK
Resolution: 4
Origin: ANDERSON PHYSICAL LABORATORY
1/CM	TRANSMITTANCE
670.922	0.717
679.328	0.709
687.734	0.672
696.14	0.634
704.546	0.587
712.952	0.593
721.358	0.581
729.764	0.566
738.17	0.409
746.576	0.491
754.982	0.53
763.388	0.506
771.794	0.3781
780.2	0.3359
788.606	0.56
797.012	0.539
805.418	0.476
813.824	0.1901
822.23	0.287
830.636	0.281
839.042	0.24
847.448	0.2
855.854	0.181
864.26	0.215
872.666	0.236
881.071	0.308
889.477	0.35
897.883	0.452
906.289	0.547
914.695	0.622
923.101	0.583
931.507	0.6029
939.913	0.684
948.319	0.634
956.725	0.7299
965.131	0.803
973.537	0.837
981.943	0.852
990.349	0.866
998.755	0.879
1007.16	0.882
1015.57	0.882
1023.97	0.876
1032.38	0.827
1040.79	0.678
1049.19	0.609
1057.6	0.787
1066	0.812
1074.41	0.7
1082.82	0.723
1091.22	0.777
1099.63	0.751
1108.03	0.717
1116.44	0.688
1124.84	0.667
1133.25	0.678
1141.66	0.667
1150.06	0.603
1158.47	0.627
1166.87	0.618
1175.28	0.612
1183.69	0.562
1192.09	0.529
1200.5	0.4601
1208.9	0.321
1217.31	0.428
1225.72	0.317
1234.12	0.616
1242.53	0.684
1250.93	0.666
1259.34	0.47
1267.75	0.491
1276.15	0.3091
1284.56	0.2339
1292.96	0.6129
1301.37	0.589
1309.78	0.497
1318.18	0.595
1326.59	0.72
1334.99	0.795
1343.4	0.806
1351.81	0.801
1360.21	0.75
1368.62	0.654
1377.02	0.563
1385.43	0.421
1393.84	0.335
1402.24	0.569
1410.65	0.565
1419.05	0.553
1427.46	0.687
1435.87	0.711
1444.27	0.672
1452.68	0.4612
1461.08	0.4869
1469.49	0.688
1477.9	0.655
1486.3	0.603
1494.71	0.482
1503.11	0.681
1511.52	0.663
1519.93	0.557
1528.33	0.5
1536.74	0.5979
1545.14	0.712
1553.55	0.709
1561.96	0.63
1570.36	0.572
1578.77	0.407
1587.17	0.406
1595.58	0.38
1603.99	0.243
1612.39	0.2419
1620.8	0.427
1629.2	0.38
1637.61	0.366
1646.02	0.493
1654.42	0.696
1662.83	0.75
1671.23	0.81
1679.64	0.834
1688.05	0.845
1696.45	0.852
1704.86	0.861
1713.26	0.861
1721.67	0.858
1730.08	0.86
1738.48	0.872
1746.89	0.876
1755.29	0.879
1763.7	0.882
1772.11	0.888
1780.51	0.887
1788.92	0.882
1797.32	0.878
1805.73	0.869
1814.14	0.872
1822.54	0.876
1830.95	0.879
1839.35	0.881
1847.76	0.884
1856.17	0.876
1864.57	0.873
1872.98	0.87
1881.38	0.854
1889.79	0.833
1898.2	0.839
1906.6	0.851
1915.01	0.857
1923.41	0.857
1931.82	0.857
1940.22	0.855
1948.63	0.86
1957.04	0.86
1965.44	0.855
1973.85	0.849
1982.25	0.848
1990.66	0.846
1999.07	0.843
2007.47	0.842
2015.88	0.8415
2024.28	0.839
2032.69	0.836
2041.1	0.836
2049.5	0.8337
2057.91	0.832
2066.31	0.8257
2074.72	0.8239
2083.13	0.8217
2091.53	0.8164
2099.94	0.8105
2108.34	0.806
2116.75	0.8037
2125.16	0.8005
2133.56	0.7984
2141.97	0.7949
2150.37	0.7927
2158.78	0.7874
2167.19	0.781
2175.59	0.7779
2184	0.7701
2192.4	0.7608
2200.81	0.7574
2209.22	0.7528
2217.62	0.7422
2226.03	0.7354
2234.43	0.7334
2242.84	0.7319
2251.25	0.7284
2259.65	0.7248
2268.06	0.7213
2276.46	0.7179
2284.87	0.7147
2293.28	0.7114
2301.68	0.7093
2310.09	0.7078
2318.49	0.705
2326.9	0.705
2335.31	0.705
2343.71	0.705
2352.12	0.705
2360.52	0.705
2368.93	0.705
2377.34	0.7029
2385.74	0.7009
2394.15	0.6929
2402.55	0.6871
2410.96	0.685
2419.37	0.6797
2427.77	0.6724
2436.18	0.6691
2444.58	0.6632
2452.99	0.6546
2461.4	0.6451
2469.8	0.6372
2478.21	0.6356
2486.61	0.63
2495.02	0.6273
2503.43	0.6241
2511.83	0.6158
2520.24	0.6126
2528.64	0.6026
2537.05	0.5982
2545.46	0.5887
2553.86	0.5805
2562.27	0.5723
2570.67	0.5652
2579.08	0.5598
2587.49	0.5566
2595.89	0.5533
2604.3	0.55
2612.7	0.5458
2621.11	0.5323
2629.52	0.5212
2637.92	0.514
2646.33	0.5044
2654.73	0.4976
2663.14	0.4916
2671.55	0.491
2679.95	0.4944
2688.36	0.497
2696.76	0.4984
2705.17	0.4971
2713.58	0.4859
2721.98	0.468
2730.39	0.4601
2738.79	0.4491
2747.2	0.4413
2755.6	0.4325
2764.01	0.4285
2772.42	0.427
2780.82	0.4248
2789.23	0.4195
2797.63	0.4137
2806.04	0.403
2814.45	0.3935
2822.85	0.3834
2831.26	0.3731
2839.66	0.3629
2848.07	0.3524
2856.48	0.342
2864.88	0.3364
2873.29	0.335
2881.69	0.3344
2890.1	0.3325
2898.51	0.33
2906.91	0.327
2915.32	0.3237
2923.72	0.3219
2932.13	0.3202
2940.54	0.318
2948.94	0.3164
2957.35	0.3123
2965.75	0.3034
2974.16	0.2999
2982.57	0.2984
2990.97	0.2953
2999.38	0.2905
3007.78	0.2868
3016.19	0.282
3024.6	0.276
3033	0.276
3041.41	0.2781
3049.81	0.281
3058.22	0.2816
3066.63	0.282
3075.03	0.282
3083.44	0.282
3091.84	0.281
3100.25	0.2793
3108.66	0.2778
3117.06	0.276
3125.47	0.276
3133.87	0.2789
3142.28	0.2811
3150.69	0.2857
3159.09	0.288
3167.5	0.29
3175.9	0.2931
3184.31	0.2948
3192.72	0.299
3201.12	0.3047
3209.53	0.3174
3217.93	0.3204
3226.34	0.321
3234.75	0.323
3243.15	0.3208
3251.56	0.3158
3259.96	0.304
3268.37	0.2915
3276.78	0.2753
3285.18	0.2671
3293.59	0.26
3301.99	0.2638
3310.4	0.278
3318.81	0.299
3327.21	0.3104
3335.62	0.3091
3344.02	0.2982
3352.43	0.2675
3360.84	0.2423
3369.24	0.2419
3377.65	0.2626
3386.05	0.3505
3394.46	0.4139
3402.87	0.4269
3411.27	0.4316
3419.68	0.4379
3428.08	0.4397
3436.49	0.4419
3444.9	0.4427
3453.3	0.45
3461.71	0.4651
3470.11	0.4779
3478.52	0.4894
3486.93	0.5088
3495.33	0.5335
3503.74	0.557
3512.14	0.572
3520.55	0.5825
3528.96	0.5915
3537.36	0.6011
3545.77	0.609
3554.17	0.614
3562.58	0.6263
3570.99	0.6421
3579.39	0.6521
3587.8	0.6697
3596.2	0.6811
3604.61	0.6881
3613.01	0.6963
3621.42	0.6995
3629.83	0.7016
3638.23	0.705
3646.64	0.706
3655.04	0.7039
3663.45	0.702
3671.86	0.702
3680.26	0.7014
3688.67	0.699
3697.07	0.6944
3705.48	0.693
3713.89	0.693
3722.29	0.691
3730.7	0.691
3739.1	0.69
3747.51	0.6894
3755.92	0.685
3764.32	0.684
3772.73	0.682
3781.13	0.6817
3789.54	0.6798
3797.95	0.679
3806.35	0.675
3814.76	0.673
3823.16	0.672
3831.57	0.672
3839.98	0.6718
3848.38	0.67
3856.79	0.6678
3865.19	0.667
3873.6	0.6656
3882.01	0.6589
3890.41	0.655
3898.82	0.654
3907.22	0.654
3915.63	0.652
3924.04	0.6484
3932.44	0.6451
3940.85	0.643
3949.25	0.643
3957.66	0.643
3966.07	0.645
3974.47	0.645
3982.88	0.645
3991.28	0.646
3999.69	0.646
