Infrared Spectrum: N,N-Dimethylhexylamine
Formula: C 8 H 19 N
CAS: 4385-04-0
State: gas
Origin: EPA-IR VAPOR PHASE LIBRARY
1/CM	ABSORBANCE
501.5	0.0007589
513.074	0.0010377
524.648	0.0010498
536.222	0.0007453
547.796	0.0005979
559.37	0.00050142
570.944	0.000257
582.518	1e-06
594.092	6.3e-05
605.666	0.000141
617.24	9.2e-05
628.814	6e-05
640.388	0.00017
651.962	0.000165
663.536	0.0003717
675.11	0.000522
686.684	0.0008097
698.258	0.0013475
709.832	0.00259
721.406	0.00392
732.98	0.00405
744.554	0.00373
756.128	0.00377
767.702	0.00363
779.276	0.00361
790.85	0.00434
802.423	0.00439
813.997	0.00476
825.571	0.00581
837.145	0.00741
848.719	0.00727
860.293	0.00585
871.867	0.00464
883.441	0.00395
895.015	0.00316
906.589	0.00262
918.163	0.00245
929.737	0.00275
941.311	0.00367
952.885	0.00548
964.459	0.00634
976.033	0.00618
987.607	0.00693
999.181	0.00994
1010.76	0.01609
1022.33	0.02322
1033.9	0.02747
1045.48	0.03059
1057.05	0.02798
1068.63	0.02062
1080.2	0.01503
1091.77	0.01268
1103.35	0.01323
1114.92	0.01179
1126.49	0.00827
1138.07	0.00882
1149.64	0.01342
1161.22	0.01554
1172.79	0.01271
1184.36	0.00913
1195.94	0.00721
1207.51	0.00782
1219.09	0.0093
1230.66	0.01026
1242.23	0.01171
1253.81	0.01581
1265.38	0.01973
1276.96	0.0182
1288.53	0.01507
1300.1	0.01321
1311.68	0.01131
1323.25	0.00919
1334.83	0.00928
1346.4	0.01104
1357.97	0.01305
1369.55	0.01696
1381.12	0.01787
1392.7	0.01116
1404.27	0.00764
1415.84	0.00782
1427.42	0.01174
1438.99	0.02172
1450.57	0.03598
1462.14	0.04581
1473.71	0.03422
1485.29	0.01741
1496.86	0.00903
1508.44	0.00562
1520.01	0.00404
1531.58	0.00307
1543.16	0.00246
1554.73	0.00208
1566.31	0.00184
1577.88	0.0017
1589.45	0.0016
1601.03	0.00152
1612.6	0.00146
1624.18	0.0014373
1635.75	0.001395
1647.32	0.00144
1658.9	0.0013869
1670.47	0.0013378
1682.05	0.0012572
1693.62	0.0011579
1705.19	0.0010616
1716.77	0.0009889
1728.34	0.0008943
1739.92	0.0008541
1751.49	0.0008301
1763.06	0.0007974
1774.64	0.000817
1786.21	0.0008264
1797.79	0.0008446
1809.36	0.0008765
1820.93	0.0008703
1832.51	0.0008829
1844.08	0.0009047
1855.66	0.0009268
1867.23	0.0009223
1878.8	0.0009104
1890.38	0.000862
1901.95	0.0008248
1913.53	0.0007703
1925.1	0.0007351
1936.67	0.000709
1948.25	0.0007308
1959.82	0.0007379
1971.4	0.0007881
1982.97	0.0008553
1994.54	0.0009167
2006.12	0.0010003
2017.69	0.0010973
2029.27	0.0011456
2040.84	0.0011825
2052.41	0.0011951
2063.99	0.0011835
2075.56	0.001201
2087.14	0.0012214
2098.71	0.0011738
2110.28	0.0010768
2121.86	0.0009931
2133.43	0.0009429
2145.01	0.00091
2156.58	0.0009003
2168.15	0.0008862
2179.73	0.0009127
2191.3	0.0009044
2202.88	0.0009091
2214.45	0.0009024
2226.02	0.0009125
2237.6	0.0009197
2249.17	0.0009878
2260.74	0.0010259
2272.32	0.0010179
2283.89	0.0009962
2295.47	0.0010179
2307.04	0.0010499
2318.61	0.0011042
2330.19	0.0011701
2341.76	0.0011755
2353.34	0.0011943
2364.91	0.0011555
2376.48	0.0011853
2388.06	0.0012891
2399.63	0.0013501
2411.21	0.00145
2422.78	0.00146
2434.35	0.00148
2445.93	0.00146
2457.5	0.00154
2469.08	0.0017
2480.65	0.00192
2492.22	0.00225
2503.8	0.00242
2515.37	0.00247
2526.95	0.00257
2538.52	0.00264
2550.09	0.00276
2561.67	0.00287
2573.24	0.00311
2584.82	0.00329
2596.39	0.0036
2607.96	0.00391
2619.54	0.00429
2631.11	0.00482
2642.69	0.0057
2654.26	0.00682
2665.83	0.00812
2677.41	0.00951
2688.98	0.01131
2700.56	0.0145
2712.13	0.01958
2723.7	0.02556
2735.28	0.03155
2746.85	0.0413
2758.43	0.06702
2770	0.10771
2781.57	0.11317
2793.15	0.09571
2804.72	0.07576
2816.3	0.07614
2827.87	0.0719
2839.44	0.05837
2851.02	0.07051
2862.59	0.09514
2874.17	0.10006
2885.74	0.0922
2897.31	0.0888
2908.89	0.10902
2920.46	0.15633
2932.04	0.21635
2943.61	0.23054
2955.18	0.19256
2966.76	0.1714
2978.33	0.1304
2989.91	0.06659
3001.48	0.03037
3013.05	0.01853
3024.63	0.01342
3036.2	0.01037
3047.78	0.00834
3059.35	0.00712
3070.92	0.00624
3082.5	0.00559
3094.07	0.00494
3105.65	0.0044
3117.22	0.00394
3128.79	0.0036
3140.37	0.00333
3151.94	0.00313
3163.52	0.00303
3175.09	0.00293
3186.66	0.00275
3198.24	0.00245
3209.81	0.00211
3221.39	0.00177
3232.96	0.00145
3244.53	0.0012237
3256.11	0.0010548
3267.68	0.0009312
3279.26	0.0008964
3290.83	0.0008372
3302.4	0.0007727
3313.98	0.0007993
3325.55	0.0007702
3337.13	0.0007344
3348.7	0.000759
3360.27	0.0007722
3371.85	0.0007806
3383.42	0.0007081
3395	0.0007321
3406.57	0.0007487
3418.14	0.0006986
3429.72	0.0005418
3441.29	0.00051293
3452.86	0.0005594
3464.44	0.000441818
3476.01	0.0004165
3487.59	0.0004176
3499.16	0.0004298
3510.73	0.0003583
3522.31	0.0003837
3533.88	0.000334
3545.46	0.0003425
3557.03	0.0004129
3568.6	0.000449999
3580.18	0.00049575
3591.75	0.00051298
3603.33	0.00052694
3614.9	0.0006217
3626.47	0.0006526
3638.05	0.0007045
3649.62	0.0007469
3661.2	0.0007301
3672.77	0.0007637
3684.34	0.0007415
3695.92	0.0007388
3707.49	0.0006756
3719.07	0.0007195
3730.64	0.0006272
3742.21	0.000809
3753.79	0.000802
3765.36	0.0007656
3776.94	0.0008413
3788.51	0.0008716
3800.08	0.0010189
3811.66	0.0011292
3823.23	0.001061
3834.81	0.0010272
3846.38	0.0009283
3857.95	0.0009697
3869.53	0.0010499
3881.1	0.0010856
3892.68	0.0010278
3904.25	0.0009913
3915.82	0.0010453
3927.4	0.0011227
3938.97	0.0011505
3950.55	0.0012377
3962.12	0.001343
3973.69	0.0013786
3985.27	0.0013853
3996.84	0.0013424
