Infrared Spectrum: 3,5-Dimethoxy-4-hydroxyphenylacetic acid
Formula: C 10 H 12 O 5
CAS: 4385-56-2
State: gas
Origin: EPA-IR VAPOR PHASE LIBRARY
1/CM	ABSORBANCE
549.8	0.001893
559.445	0.002363
569.09	0.003233
578.734	0.004273
588.379	0.006803
598.024	0.008083
607.669	0.006783
617.313	0.006013
626.958	0.005153
636.603	0.004383
646.248	0.003703
655.893	0.002983
665.537	0.002233
675.182	0.001543
684.827	0.001553
694.472	0.0011975
704.116	0.0012326
713.761	0.0010657
723.406	0.0011073
733.051	0.0011469
742.695	0.0013156
752.34	0.0012809
761.985	0.0012594
771.63	0.0008036
781.275	0.0010015
790.919	0.001613
800.564	0.002503
810.209	0.002553
819.854	0.002323
829.498	0.002193
839.143	0.001763
848.788	0.001393
858.433	0.001403
868.078	0.001503
877.722	0.001673
887.367	0.0013462
897.012	0.001903
906.657	0.002293
916.301	0.002343
925.946	0.001843
935.591	0.001773
945.236	0.001883
954.88	0.001763
964.525	0.001833
974.17	0.001533
983.815	0.001453
993.46	0.001553
1003.1	0.001503
1012.75	0.001533
1022.39	0.002283
1032.04	0.002963
1041.68	0.003943
1051.33	0.003383
1060.97	0.003843
1070.62	0.005883
1080.26	0.009893
1089.91	0.016073
1099.55	0.024333
1109.2	0.033253
1118.84	0.029463
1128.49	0.018353
1138.13	0.011623
1147.78	0.007853
1157.42	0.005543
1167.07	0.004553
1176.71	0.005083
1186.36	0.006363
1196	0.008753
1205.64	0.014713
1215.29	0.025303
1224.93	0.022113
1234.58	0.012073
1244.22	0.010083
1253.87	0.007083
1263.51	0.005403
1273.16	0.005033
1282.8	0.005793
1292.45	0.007253
1302.09	0.009593
1311.74	0.014753
1321.38	0.018193
1331.03	0.012393
1340.67	0.007573
1350.32	0.006353
1359.96	0.006533
1369.61	0.005683
1379.25	0.003693
1388.9	0.002603
1398.54	0.002443
1408.18	0.002963
1417.83	0.004563
1427.47	0.007723
1437.12	0.007243
1446.76	0.005813
1456.41	0.008223
1466.05	0.008833
1475.7	0.006283
1485.34	0.005283
1494.99	0.008733
1504.63	0.015463
1514.28	0.013513
1523.92	0.005943
1533.57	0.002543
1543.21	0.001753
1552.86	0.001593
1562.5	0.001773
1572.15	0.002183
1581.79	0.003223
1591.44	0.005153
1601.08	0.008383
1610.73	0.009653
1620.37	0.006113
1630.01	0.003183
1639.66	0.001953
1649.3	0.001563
1658.95	0.0012731
1668.59	0.0012124
1678.24	0.0011598
1687.88	0.0011769
1697.53	0.0011961
1707.17	0.001443
1716.82	0.001613
1726.46	0.002353
1736.11	0.003593
1745.75	0.005813
1755.4	0.008723
1765.04	0.012563
1774.69	0.016123
1784.33	0.014983
1793.98	0.011583
1803.62	0.007563
1813.27	0.003933
1822.91	0.002143
1832.55	0.001423
1842.2	0.0009887
1851.84	0.0008653
1861.49	0.0006894
1871.13	0.0006486
1880.78	0.0006584
1890.42	0.0006039
1900.07	0.00046141
1909.71	0.0005773
1919.36	0.0005584
1929	0.0006237
1938.65	0.0006597
1948.29	0.0007258
1957.94	0.0006803
1967.58	0.000699
1977.23	0.0006533
1986.87	0.0006904
1996.52	0.0006544
2006.16	0.0006588
2015.81	0.0006812
2025.45	0.0006192
2035.1	0.0007039
2044.74	0.0006491
2054.38	0.0005931
2064.03	0.0006743
2073.67	0.0006141
2083.32	0.0006519
2092.96	0.0005678
2102.61	0.0006026
2112.25	0.0006157
2121.9	0.0006595
2131.54	0.0006063
2141.19	0.0005741
2150.83	0.0006269
2160.48	0.0006546
2170.12	0.0005059
2179.77	0.000634
2189.41	0.0005894
2199.06	0.0006781
2208.7	0.0006433
2218.35	0.0006459
2227.99	0.0006706
2237.64	0.0005748
2247.28	0.000533
2256.92	0.00046594
2266.57	0.000509
2276.21	0.0005682
2285.86	0.0005563
2295.5	0.0005385
2305.15	0.0006371
2314.79	0.0007733
2324.44	0.0007592
2334.08	0.0007249
2343.73	0.0005626
2353.37	0.0007555
2363.02	0.0006689
2372.66	0.0007768
2382.31	0.0005626
2391.95	0.0005608
2401.6	0.0005451
2411.24	0.0005016
2420.89	0.0005069
2430.53	0.0005746
2440.18	0.0005325
2449.82	0.0005501
2459.47	0.0004847
2469.11	0.00043188
2478.75	0.00046883
2488.4	0.0005309
2498.04	0.0005972
2507.69	0.0005408
2517.33	0.0005546
2526.98	0.0005641
2536.62	0.0006193
2546.27	0.0005058
2555.91	0.0007078
2565.56	0.0005445
2575.2	0.0005192
2584.85	0.0005477
2594.49	0.00049226
2604.14	0.00046877
2613.78	0.00048182
2623.43	0.0006334
2633.07	0.0006543
2642.72	0.0005999
2652.36	0.0006726
2662.01	0.00049105
2671.65	0.0005924
2681.29	0.0006149
2690.94	0.0005793
2700.58	0.0005202
2710.23	0.00048749
2719.87	0.000565
2729.52	0.0005706
2739.16	0.0005106
2748.81	0.0005824
2758.45	0.00047553
2768.1	0.0005932
2777.74	0.0006422
2787.39	0.000556
2797.03	0.0007778
2806.68	0.0007996
2816.32	0.0010601
2825.97	0.001523
2835.61	0.002263
2845.26	0.003563
2854.9	0.003553
2864.55	0.002333
2874.19	0.002143
2883.84	0.002103
2893.48	0.002143
2903.12	0.002473
2912.77	0.002843
2922.41	0.003603
2932.06	0.004313
2941.7	0.006133
2951.35	0.006993
2960.99	0.005363
2970.64	0.004423
2980.28	0.003583
2989.93	0.003483
2999.57	0.004063
3009.22	0.004603
3018.86	0.002983
3028.51	0.001603
3038.15	0.001483
3047.8	0.0012185
3057.44	0.0012898
3067.09	0.0012748
3076.73	0.0010211
3086.38	0.0008874
3096.02	0.0007959
3105.67	0.0006285
3115.31	0.0005171
3124.95	0.0006257
3134.6	0.0004227
3144.24	0.0005363
3153.89	0.000401911
3163.53	0.00047779
3173.18	0.0003369
3182.82	0.0002983
3192.47	0.00040927
3202.11	0.000519
3211.76	0.00041855
3221.4	0.00044989
3231.05	0.0004967
3240.69	0.0005505
3250.34	0.00038586
3259.98	0.000277
3269.63	0.0005517
3279.27	0.0003207
3288.92	0.0003063
3298.56	0.000289
3308.21	7.2e-05
3317.85	0.0003026
3327.49	0.0004931
3337.14	0.00014
3346.78	0.000251
3356.43	0.0003136
3366.07	0.0003172
3375.72	6.5e-05
3385.36	0.000144
3395.01	0.0003654
3404.65	0.0003383
3414.3	0.00013
3423.94	0.000294
3433.59	0.000271
3443.23	0.000252
3452.88	0.000263
3462.52	0.0003728
3472.17	0.000274
3481.81	0.0003502
3491.46	0.0003562
3501.1	0.000708
3510.75	0.0005148
3520.39	0.0005076
3530.04	0.0008513
3539.68	0.0011443
3549.32	0.001953
3558.97	0.003883
3568.61	0.011953
3578.26	0.016093
3587.9	0.008753
3597.55	0.003603
3607.19	0.0012806
3616.84	0.0007168
3626.48	0.000264
3636.13	0.00047091
3645.77	0.000229
3655.42	0.000347
3665.06	0.000245
3674.71	0.000113
3684.35	0.00039062
3694	0.00044575
3703.64	0.000157
3713.29	0.00041259
3722.93	0.000181
3732.58	0.000155
3742.22	5.9e-05
3751.86	0.0003213
3761.51	0.0003742
3771.15	0.00039694
3780.8	9.7e-05
3790.44	0.000265
3800.09	0.000148
3809.73	0.000398809
3819.38	0.000228
3829.02	0.0003127
3838.67	0.000145
3848.31	0.000352
3857.96	0.00041406
3867.6	0.0003142
3877.25	0.00014
3886.89	0.0003064
3896.54	0.0003145
3906.18	0.000281
3915.83	0.000131
3925.47	0.000199
3935.12	0.000288
3944.76	0.000182
3954.41	0.000285
3964.05	0.000326
3973.69	0.0003485
3983.34	0.00042367
3992.98	0.000212
