Infrared Spectrum: 2-Amino-3-methylbenzoic acid
Formula: C 8 H 9 N O 2
CAS: 4389-45-1
State: gas
Instrument: HP-GC/MS/IRD
Origin: NIST Mass Spectrometry Data Center
1/CM	ABSORBANCE
550	0.0023331
562	0.0043491
574	0.0044457
586	0.0025914
598	0.0015624
610	0.0018606
622	0.0031521
634	0.0024612
646	0.0011739
658	0.0009555
670	0.0012348
682	0.0026166
694	0.0041076
706	0.0017829
718	0.0009723
730	0.0017388
742	0.0048258
754	0.0067221
766	0.0026649
778	0.0008358
790	0.0005103
802	0.0005733
814	0.0006216
826	0.0005964
838	0.000672
850	0.0004179
862	0.0002436
874	0.0001911
886	0.0001365
898	0.0001197
910	0.000147
922	6.93e-05
934	7.35e-05
946	0.0001113
958	9.87e-05
970	0.0001701
982	0.0002793
994	0.0005439
1006	0.0007644
1018	0.000798
1030	0.0010353
1042	0.0017409
1054	0.0041181
1066	0.0089145
1078	0.0123228
1090	0.0098994
1102	0.005733
1114	0.0042084
1126	0.0035028
1138	0.0041517
1150	0.0077805
1162	0.009471
1174	0.0084441
1186	0.0052458
1198	0.0044394
1210	0.0049119
1222	0.0022722
1234	0.0015183
1246	0.0020685
1258	0.0026691
1270	0.0025179
1282	0.0026943
1294	0.0030639
1306	0.0026397
1318	0.0027741
1330	0.0024087
1342	0.002625
1354	0.0039123
1366	0.0029652
1378	0.0018942
1390	0.0018522
1402	0.000819
1414	0.0005901
1426	0.001491
1438	0.003696
1450	0.0045738
1462	0.0042714
1474	0.0034188
1486	0.0015729
1498	0.0007434
1510	0.0004452
1522	0.0003948
1534	0.0005292
1546	0.0008148
1558	0.0018837
1570	0.0041391
1582	0.0049728
1594	0.0052437
1606	0.0077847
1618	0.0097986
1630	0.0069153
1642	0.0028518
1654	0.0016338
1666	0.0014217
1678	0.0014133
1690	0.0020223
1702	0.0050421
1714	0.0151137
1726	0.021
1738	0.0116403
1750	0.005418
1762	0.0023142
1774	0.0009849
1786	0.0009744
1798	0.0007266
1810	0.0004116
1822	0.0003003
1834	0.0002688
1846	0.0001911
1858	0.0002331
1870	0.000294
1882	0.0001554
1894	7.56e-05
1906	0.0001554
1918	0.0001491
1930	5.88e-05
1942	4.83e-05
1954	5.25e-05
1966	2.73e-05
1978	2.31e-05
1990	0
2002	8.4e-06
2014	2.1e-06
2026	2.1e-05
2038	3.36e-05
2050	2.31e-05
2062	2.31e-05
2074	5.25e-05
2086	4.83e-05
2098	6.09e-05
2110	3.36e-05
2122	6.72e-05
2134	9.24e-05
2146	9.87e-05
2158	7.56e-05
2170	6.09e-05
2182	8.19e-05
2194	6.09e-05
2206	0.0001134
2218	7.98e-05
2230	5.46e-05
2242	9.03e-05
2254	5.46e-05
2266	9.66e-05
2278	0.000105
2290	0.0001113
2302	0.0001092
2314	0.0001365
2326	0.0001596
2338	0.0001575
2350	0.0001386
2362	0.0001533
2374	0.0001218
2386	8.19e-05
2398	7.35e-05
2410	0.0001071
2422	0.0001071
2434	0.0001134
2446	0.0001113
2458	0.0001155
2470	0.0001176
2482	8.61e-05
2494	8.4e-05
2506	6.3e-05
2518	9.66e-05
2530	8.61e-05
2542	8.82e-05
2554	7.56e-05
2566	9.24e-05
2578	8.82e-05
2590	0.0001176
2602	0.0001029
2614	9.45e-05
2626	0.0001029
2638	0.0001386
2650	0.0001281
2662	8.19e-05
2674	7.77e-05
2686	8.19e-05
2698	8.82e-05
2710	0.000105
2722	0.0001029
2734	0.0001722
2746	0.0002079
2758	0.0002289
2770	0.0001596
2782	0.0001575
2794	0.0001449
2806	0.0001575
2818	0.0001806
2830	0.0002079
2842	0.0002814
2854	0.0004599
2866	0.0009177
2878	0.0011508
2890	0.0010143
2902	0.000987
2914	0.0012264
2926	0.0014595
2938	0.0013629
2950	0.0010227
2962	0.0007266
2974	0.0009324
2986	0.0009996
2998	0.0006636
3010	0.0008211
3022	0.0009828
3034	0.0008631
3046	0.0009933
3058	0.0008337
3070	0.0007581
3082	0.0011214
3094	0.0009261
3106	0.0003843
3118	0.0001554
3130	0.0001512
3142	0.0001365
3154	0.0001323
3166	0.0001428
3178	0.0002121
3190	0.0001869
3202	0.0001701
3214	0.0001449
3226	9.24e-05
3238	8.19e-05
3250	9.45e-05
3262	0.0001197
3274	0.0001428
3286	0.0001638
3298	0.0002436
3310	0.0003024
3322	0.00042
3334	0.0005943
3346	0.000693
3358	0.0009723
3370	0.0025641
3382	0.0041895
3394	0.0027678
3406	0.0010689
3418	0.0006678
3430	0.0006468
3442	0.0005775
3454	0.00042
3466	0.0003822
3478	0.0005145
3490	0.0008547
3502	0.0015372
3514	0.0026313
3526	0.002646
3538	0.001533
3550	0.0007644
3562	0.0011487
3574	0.004746
3586	0.00798
3598	0.0026502
3610	0.0003255
3622	0.0001785
3634	0.000168
3646	6.3e-05
3658	8.4e-05
3670	9.24e-05
3682	6.93e-05
3694	5.46e-05
3706	7.14e-05
3718	2.52e-05
3730	8.4e-05
3742	7.98e-05
3754	3.99e-05
3766	4.2e-05
3778	3.78e-05
3790	2.31e-05
3802	5.25e-05
3814	5.46e-05
3826	5.25e-05
3838	2.73e-05
