Infrared Spectrum: Diazepam
Formula: C 16 H 13 Cl N 2 O
CAS: 439-14-5
State: gas
Instrument: HP-GC/MS/IRD
Origin: NIST Mass Spectrometry Data Center
1/CM	ABSORBANCE
550	0.0008308
562	0.0001674
574	0.0006355
586	0.0006417
598	1.24e-05
610	0.000124
622	0.0003503
634	0.0004309
646	0.0003937
658	0.0008711
670	0.0004154
682	0.0006572
694	0.0033294
706	0.0010447
718	0.0004185
730	0.0009951
742	0.0018662
754	0.000372
766	0.000527
778	0.0011377
790	0.0006572
802	0.0018011
814	0.0048453
826	0.0019623
838	0.0003844
850	0.0002511
862	0.0002201
874	0.000279
886	0.0008339
898	0.001488
910	0.0011904
922	0.0005983
934	0.000682
946	0.0010013
958	0.0004092
970	0.0004247
982	0.0008432
994	0.0004185
1006	0.0006727
1018	0.0010757
1030	0.0008773
1042	0.0003658
1054	0.000465
1066	0.0013485
1078	0.0011563
1090	0.0008525
1102	0.0014694
1114	0.001674
1126	0.0027435
1138	0.001953
1150	0.0009207
1162	0.0011594
1174	0.0012524
1186	0.0018786
1198	0.0013981
1210	0.0005797
1222	0.0005301
1234	0.0008587
1246	0.0016616
1258	0.0021111
1270	0.0012617
1282	0.0014322
1294	0.0027776
1306	0.0054095
1318	0.0078802
1330	0.0065007
1342	0.0028086
1354	0.0012524
1366	0.0009145
1378	0.0009362
1390	0.002666
1402	0.0032302
1414	0.0013547
1426	0.0012214
1438	0.001426
1450	0.0024304
1462	0.0026505
1474	0.0054467
1486	0.006293
1498	0.0022289
1510	0.0009114
1522	0.0006076
1534	0.0005394
1546	0.0006758
1558	0.0013144
1570	0.0012059
1582	0.0009672
1594	0.0008308
1606	0.002139
1618	0.0031713
1630	0.0011036
1642	0.0008866
1654	0.000899
1666	0.0010633
1678	0.0018414
1690	0.0028923
1702	0.0080662
1714	0.0295554
1726	0.0124589
1738	0.0021328
1750	0.0009982
1762	0.0006727
1774	0.0005766
1786	0.0005208
1798	0.0004092
1810	0.0003937
1822	0.0002821
1834	0.0002077
1846	0.0001736
1858	0.0001395
1870	0.0001829
1882	0.0002945
1894	0.0002852
1906	0.0001643
1918	9.3e-05
1930	9.61e-05
1942	0.0001674
1954	0.0001953
1966	0.0001612
1978	0.0001085
1990	9.61e-05
2002	9.61e-05
2014	0.0001209
2026	0.0001178
2038	8.06e-05
2050	7.44e-05
2062	5.27e-05
2074	4.96e-05
2086	4.65e-05
2098	5.58e-05
2110	3.41e-05
2122	4.03e-05
2134	3.1e-05
2146	5.27e-05
2158	4.03e-05
2170	3.72e-05
2182	3.41e-05
2194	4.03e-05
2206	5.89e-05
2218	3.41e-05
2230	4.65e-05
2242	3.72e-05
2254	4.96e-05
2266	3.41e-05
2278	5.58e-05
2290	3.72e-05
2302	3.72e-05
2314	5.89e-05
2326	4.03e-05
2338	5.58e-05
2350	3.41e-05
2362	5.58e-05
2374	1.55e-05
2386	2.17e-05
2398	2.79e-05
2410	3.41e-05
2422	3.41e-05
2434	2.79e-05
2446	1.55e-05
2458	4.96e-05
2470	9.3e-06
2482	3.1e-06
2494	2.48e-05
2506	3.1e-06
2518	0
2530	3.1e-06
2542	9.3e-06
2554	6.2e-06
2566	3.72e-05
2578	4.96e-05
2590	6.82e-05
2602	6.2e-05
2614	4.65e-05
2626	7.75e-05
2638	5.27e-05
2650	6.2e-05
2662	2.48e-05
2674	6.2e-06
2686	1.55e-05
2698	2.48e-05
2710	1.86e-05
2722	6.2e-06
2734	3.72e-05
2746	3.72e-05
2758	4.96e-05
2770	4.34e-05
2782	4.65e-05
2794	5.58e-05
2806	0.0001023
2818	0.0001612
2830	0.0002015
2842	0.0003379
2854	0.0011563
2866	0.0005549
2878	0.0003782
2890	0.0004805
2902	0.000558
2914	0.0007192
2926	0.0008742
2938	0.0006944
2950	0.0007347
2962	0.0007068
2974	0.0006634
2986	0.0006262
2998	0.0008339
3010	0.0009641
3022	0.0007533
3034	0.0008804
3046	0.0006448
3058	0.0008432
3070	0.001612
3082	0.0011873
3094	0.0007874
3106	0.0003813
3118	0.0002108
3130	0.0001271
3142	9.61e-05
3154	7.75e-05
3166	6.82e-05
3178	4.96e-05
3190	4.96e-05
3202	1.86e-05
3214	5.89e-05
3226	3.1e-05
3238	1.86e-05
3250	1.24e-05
3262	0
3274	1.24e-05
3286	2.17e-05
3298	4.34e-05
3310	4.65e-05
3322	5.89e-05
3334	7.44e-05
3346	4.34e-05
3358	5.58e-05
3370	6.2e-05
3382	0.0001085
3394	0.0001488
3406	0.000279
3418	0.0003224
3430	0.0001736
3442	0.0001426
3454	9.3e-05
3466	5.89e-05
3478	4.96e-05
3490	7.44e-05
3502	5.58e-05
3514	6.82e-05
3526	4.03e-05
3538	5.89e-05
3550	5.58e-05
3562	4.34e-05
3574	4.65e-05
3586	4.96e-05
3598	5.58e-05
3610	0.0001116
3622	0.0001085
3634	9.92e-05
3646	9.3e-05
3658	0.0001116
3670	0.0001054
3682	9.3e-05
3694	8.68e-05
3706	8.68e-05
3718	9.61e-05
3730	0.0001426
3742	0.0001643
3754	0.0001302
3766	7.75e-05
3778	7.75e-05
3790	8.37e-05
3802	0.0001147
3814	9.3e-05
3826	6.2e-05
3838	0.0001116
