Infrared Spectrum: Alpha-OXOBUTYRONITRILE
Formula: C4 H5 N O
CAS: 4390-78-7
State: SOLUTION (10% CCl4 FOR 5000-1330, 10% CS2 FOR 1330-625 CM^-^1)
Class: COBLENTZ
Instrument: Not specified, most likely a prism, grating, or hybrid spectrometer.
Sampling: TRANSMISSION
Path length: 0.0107 CM, 0.0101 CM
Resolution: 4
Origin: DOW CHEMICAL COMPANY
MICROMETERS	TRANSMITTANCE
2.014	0.876
2.05514	0.876
2.09627	0.876
2.13741	0.876
2.17854	0.871
2.21968	0.866
2.26081	0.868
2.30195	0.873
2.34309	0.873
2.38422	0.873
2.42536	0.871
2.46649	0.875
2.50763	0.878
2.54876	0.881
2.5899	0.883
2.63104	0.88
2.67217	0.881
2.71331	0.878
2.75444	0.873
2.79558	0.863
2.83671	0.833
2.87785	0.792
2.91898	0.827
2.96012	0.832
3.00126	0.808
3.04239	0.787
3.08353	0.789
3.12466	0.791
3.1658	0.785
3.20693	0.777
3.24807	0.763
3.28921	0.683
3.33034	0.535
3.37148	0.563
3.41261	0.59
3.45375	0.715
3.49488	0.792
3.53602	0.808
3.57716	0.811
3.61829	0.818
3.65943	0.83
3.70056	0.832
3.7417	0.837
3.78283	0.845
3.82397	0.851
3.86511	0.851
3.90624	0.856
3.94738	0.864
3.98851	0.864
4.02965	0.864
4.07078	0.869
4.11192	0.866
4.15305	0.859
4.19419	0.849
4.23533	0.871
4.27646	0.866
4.3176	0.863
4.35873	0.856
4.39987	0.83
4.441	0.683
4.48214	0.476
4.52328	0.743
4.56441	0.845
4.60555	0.863
4.64668	0.863
4.68782	0.866
4.72895	0.875
4.77009	0.868
4.81123	0.878
4.85236	0.876
4.8935	0.88
4.93463	0.878
4.97577	0.878
5.0169	0.878
5.05804	0.88
5.09918	0.88
5.14031	0.88
5.18145	0.88
5.22258	0.876
5.26372	0.871
5.30485	0.868
5.34599	0.871
5.38712	0.864
5.42826	0.861
5.4694	0.84
5.51053	0.833
5.55167	0.813
5.5928	0.785
5.63394	0.719
5.67507	0.621
5.71621	0.404
5.75735	0.095
5.79848	0.034
5.83962	0.125
5.88075	0.422
5.92189	0.618
5.96302	0.748
6.00416	0.78
6.0453	0.794
6.08643	0.796
6.12757	0.789
6.1687	0.765
6.20984	0.731
6.25097	0.674
6.29211	0.638
6.33325	0.611
6.37438	0.565
6.41552	0.517
6.45665	0.515
6.49779	0.594
6.53892	0.642
6.58006	0.672
6.62119	0.717
6.66233	0.746
6.70347	0.748
6.7446	0.705
6.78574	0.554
6.82687	0.392
6.86801	0.544
6.90914	0.645
6.95028	0.654
6.99142	0.607
7.03255	0.535
7.07369	0.41
7.11482	0.279
7.15596	0.58
7.19709	0.498
7.23823	0.611
7.27937	0.664
7.3205	0.503
7.36164	0.46
7.40277	0.625
7.44391	0.679
7.48504	0.693
7.52618	0.71
7.56732	0.741
7.60845	0.744
7.64959	0.746
7.69072	0.753
7.73186	0.753
7.77299	0.753
7.81413	0.758
7.85526	0.731
7.8964	0.684
7.93754	0.657
7.97867	0.657
8.01981	0.645
8.06094	0.638
8.10208	0.693
8.14321	0.741
8.18435	0.772
8.22549	0.789
8.26662	0.789
8.30776	0.78
8.34889	0.763
8.39003	0.736
8.43116	0.69
8.4723	0.599
8.51344	0.455
8.55457	0.318
8.59571	0.398
8.63684	0.53
8.67798	0.601
8.71911	0.636
8.76025	0.636
8.80139	0.625
8.84252	0.611
8.88366	0.57
8.92479	0.476
8.96593	0.304
9.00706	0.143
9.0482	0.085
9.08933	0.229
9.13047	0.424
9.17161	0.529
9.21274	0.578
9.25388	0.602
9.29501	0.614
9.33615	0.623
9.37728	0.621
9.41842	0.589
9.45956	0.508
9.50069	0.414
9.54183	0.345
9.58296	0.256
9.6241	0.172
9.66523	0.178
9.70637	0.318
9.74751	0.496
9.78864	0.582
9.82978	0.664
9.87091	0.69
9.91205	0.703
9.95318	0.712
9.99432	0.71
10.0355	0.683
10.0766	0.65
10.1177	0.587
10.1589	0.47
10.2	0.323
10.2411	0.217
10.2823	0.407
10.3234	0.556
10.3645	0.621
10.4057	0.64
10.4468	0.619
10.4879	0.551
10.5291	0.443
10.5702	0.323
10.6114	0.347
10.6525	0.523
10.6936	0.625
10.7348	0.678
10.7759	0.714
10.817	0.734
10.8582	0.751
10.8993	0.763
10.9404	0.772
10.9816	0.78
11.0227	0.789
11.0638	0.789
11.105	0.794
11.1461	0.794
11.1873	0.794
11.2284	0.792
11.2695	0.787
11.3107	0.779
11.3518	0.768
11.3929	0.76
11.4341	0.753
11.4752	0.75
11.5163	0.744
11.5575	0.734
11.5986	0.731
11.6397	0.724
11.6809	0.72
11.722	0.724
11.7632	0.731
11.8043	0.748
11.8454	0.779
11.8866	0.799
11.9277	0.816
11.9688	0.825
12.01	0.825
12.0511	0.825
12.0922	0.827
12.1334	0.816
12.1745	0.806
12.2156	0.794
12.2568	0.773
12.2979	0.75
12.3391	0.722
12.3802	0.691
12.4213	0.652
12.4625	0.613
12.5036	0.549
12.5447	0.481
12.5859	0.441
12.627	0.5
12.6681	0.604
12.7093	0.681
12.7504	0.722
12.7915	0.746
12.8327	0.758
12.8738	0.765
12.915	0.768
12.9561	0.768
12.9972	0.763
13.0384	0.744
13.0795	0.724
13.1206	0.672
13.1618	0.607
13.2029	0.532
13.244	0.469
13.2852	0.47
13.3263	0.547
13.3674	0.595
13.4086	0.642
13.4497	0.66
13.4909	0.674
13.532	0.684
13.5731	0.688
13.6143	0.69
13.6554	0.695
13.6965	0.698
13.7377	0.7
13.7788	0.7
13.8199	0.7
13.8611	0.7
13.9022	0.705
13.9433	0.705
13.9845	0.705
14.0256	0.696
14.0668	0.693
14.1079	0.686
14.149	0.681
14.1902	0.674
14.2313	0.666
14.2724	0.662
14.3136	0.654
14.3547	0.645
14.3958	0.64
14.437	0.628
14.4781	0.616
14.5192	0.607
14.5604	0.594
14.6015	0.58
14.6427	0.556
14.6838	0.535
14.7249	0.508
14.7661	0.488
14.8072	0.458
14.8483	0.446
14.8895	0.441
14.9306	0.446
14.9717	0.464
15.0129	0.482
15.054	0.486
15.0951	0.486
15.1363	0.488
15.1774	0.486
15.2185	0.479
15.2597	0.477
15.3008	0.469
15.342	0.467
15.3831	0.467
15.4242	0.467
15.4654	0.464
15.5065	0.458
15.5476	0.453
15.5888	0.45
15.6299	0.45
15.671	0.45
15.7122	0.45
15.7533	0.45
15.7944	0.45
15.8356	0.45
15.8767	0.45
