Infrared Spectrum: Cinnamyl bromide
Formula: C 9 H 9 Br
CAS: 4392-24-9
State: gas
Origin: EPA-IR VAPOR PHASE LIBRARY
1/CM	ABSORBANCE
549.9	0.0010053
559.547	0.001881
569.193	0.002801
578.84	0.007271
588.486	0.006301
598.133	0.002411
607.779	0.002091
617.426	0.002411
627.072	0.003811
636.719	0.002951
646.365	0.002321
656.012	0.002371
665.658	0.003501
675.305	0.005671
684.951	0.008871
694.598	0.010241
704.245	0.008591
713.891	0.006701
723.538	0.007261
733.184	0.010441
742.831	0.013881
752.477	0.009891
762.124	0.005151
771.77	0.002991
781.417	0.002081
791.063	0.001871
800.71	0.001621
810.356	0.001591
820.003	0.001571
829.649	0.001731
839.296	0.001441
848.943	0.001431
858.589	0.001391
868.236	0.001401
877.882	0.001531
887.529	0.001711
897.175	0.001831
906.822	0.001701
916.468	0.001981
926.115	0.002411
935.761	0.003541
945.408	0.006921
955.054	0.011191
964.701	0.009711
974.347	0.005311
983.994	0.003161
993.64	0.002331
1003.29	0.002111
1012.93	0.001891
1022.58	0.002511
1032.23	0.002501
1041.87	0.001861
1051.52	0.002071
1061.17	0.002371
1070.81	0.002311
1080.46	0.002001
1090.11	0.001671
1099.75	0.001491
1109.4	0.001471
1119.05	0.001711
1128.69	0.002461
1138.34	0.003051
1147.99	0.002061
1157.63	0.002181
1167.28	0.002111
1176.92	0.002891
1186.57	0.005021
1196.22	0.012451
1205.86	0.020211
1215.51	0.010351
1225.16	0.004991
1234.8	0.003271
1244.45	0.002711
1254.1	0.002641
1263.74	0.002451
1273.39	0.002341
1283.04	0.002421
1292.68	0.002821
1302.33	0.002921
1311.98	0.002151
1321.62	0.001991
1331.27	0.001671
1340.92	0.001421
1350.56	0.0011477
1360.21	0.00116
1369.86	0.001211
1379.5	0.0012009
1389.15	0.0011816
1398.79	0.0011978
1408.44	0.0012977
1418.09	0.001631
1427.73	0.002221
1437.38	0.003101
1447.03	0.003131
1456.67	0.002561
1466.32	0.002151
1475.97	0.001991
1485.61	0.002941
1495.26	0.006131
1504.91	0.003141
1514.55	0.001421
1524.2	0.0013439
1533.85	0.0011664
1543.49	0.0012755
1553.14	0.0011688
1562.79	0.001381
1572.43	0.001681
1582.08	0.002301
1591.73	0.002801
1601.37	0.002971
1611.02	0.001771
1620.67	0.001511
1630.31	0.001641
1639.96	0.002251
1649.6	0.002741
1659.25	0.001771
1668.9	0.0012091
1678.54	0.0011462
1688.19	0.0011816
1697.84	0.001361
1707.48	0.0012266
1717.13	0.0011752
1726.78	0.001361
1736.42	0.001401
1746.07	0.001381
1755.72	0.001451
1765.36	0.001411
1775.01	0.001561
1784.66	0.001901
1794.3	0.002091
1803.95	0.001571
1813.6	0.0012056
1823.24	0.0010982
1832.89	0.0010391
1842.54	0.001017
1852.18	0.001213
1861.83	0.0013198
1871.47	0.001371
1881.12	0.001421
1890.77	0.0012849
1900.41	0.0009389
1910.06	0.0009158
1919.71	0.0010098
1929.35	0.0012263
1939	0.001461
1948.65	0.001481
1958.29	0.001451
1967.94	0.0008252
1977.59	0.0007399
1987.23	0.0006451
1996.88	0.0005966
2006.53	0.000687
2016.17	0.0006852
2025.82	0.0005125
2035.47	0.0006191
2045.11	0.0006631
2054.76	0.0006751
2064.41	0.0006238
2074.05	0.0006199
2083.7	0.0005742
2093.35	0.0006547
2102.99	0.0006136
2112.64	0.0006099
2122.28	0.0005872
2131.93	0.0005884
2141.58	0.000567
2151.22	0.0005085
2160.87	0.0006168
2170.52	0.0005813
2180.16	0.0005832
2189.81	0.000579
2199.46	0.0005508
2209.1	0.0006021
2218.75	0.0005537
2228.4	0.0006059
2238.04	0.0005615
2247.69	0.0005806
2257.34	0.0006421
2266.98	0.0005806
2276.63	0.0005631
2286.28	0.0005633
2295.92	0.0005301
2305.57	0.0006038
2315.22	0.0006569
2324.86	0.0006559
2334.51	0.0006463
2344.16	0.0006969
2353.8	0.0005747
2363.45	0.0005562
2373.09	0.0005551
2382.74	0.0005176
2392.39	0.0005297
2402.03	0.00043977
2411.68	0.00043653
2421.33	0.00043193
2430.97	0.0004646
2440.62	0.0004725
2450.27	0.00038517
2459.91	0.000357189
2469.56	0.00038503
2479.21	0.00039342
2488.85	0.0005094
2498.5	0.0003005
2508.15	0.0004745
2517.79	0.0004812
2527.44	0.0003132
2537.09	0.0003085
2546.73	0.0003178
2556.38	0.00036375
2566.03	0.0003248
2575.67	0.0003277
2585.32	0.0003335
2594.96	0.00038639
2604.61	0.0002896
2614.26	0.00041751
2623.9	0.000211
2633.55	0.00042716
2643.2	0.00034624
2652.84	0.0004566
2662.49	0.0002581
2672.14	0.0002606
2681.78	0.000164
2691.43	0.0003106
2701.08	0.0002538
2710.72	0.000202
2720.37	0.00014
2730.02	0.00014
2739.66	0.000179
2749.31	0.000243
2758.96	0.00021
2768.6	0.000268
2778.25	0.000221
2787.9	0.000154
2797.54	0.000187
2807.19	0.000196
2816.84	0.000108
2826.48	0.000171
2836.13	0.000243
2845.77	0.000144
2855.42	0.0005304
2865.07	0.0006533
2874.71	0.0006069
2884.36	0.0005057
2894.01	0.00043665
2903.65	0.0004841
2913.3	0.0007234
2922.95	0.0010016
2932.59	0.0011497
2942.24	0.001421
2951.89	0.001921
2961.53	0.002681
2971.18	0.003441
2980.83	0.003011
2990.47	0.002471
3000.12	0.002741
3009.77	0.003941
3019.41	0.005551
3029.06	0.008851
3038.71	0.010611
3048.35	0.007631
3058	0.006891
3067.64	0.011561
3077.29	0.009811
3086.94	0.006661
3096.58	0.005251
3106.23	0.003451
3115.88	0.001861
3125.52	0.0008866
3135.17	0.0006123
3144.82	0.0002881
3154.46	0.0007285
3164.11	0.0003301
3173.76	0.0002667
3183.4	0.00038249
3193.05	0.00038875
3202.7	0.00044521
3212.34	0.0003387
3221.99	0.0004641
3231.64	0.0004595
3241.28	0.0004837
3250.93	0.00056
3260.58	0.0006363
3270.22	0.0006092
3279.87	0.0006189
3289.52	0.0007168
3299.16	0.0005543
3308.81	0.00044488
3318.45	0.0005518
3328.1	0.0007009
3337.75	0.0007151
3347.39	0.00091
3357.04	0.000808
3366.69	0.0008089
3376.33	0.0006723
3385.98	0.0007353
3395.63	0.0010563
3405.27	0.0007031
3414.92	0.0006444
3424.57	0.0008153
3434.21	0.0009017
3443.86	0.0008751
3453.51	0.0007805
3463.15	0.0009917
3472.8	0.0009365
3482.45	0.000604
3492.09	0.0010057
3501.74	0.0008326
3511.39	0.0007734
3521.03	0.0006425
3530.68	0.0005777
3540.33	0.0007938
3549.97	0.0008914
3559.62	0.000622
3569.26	0.0007619
3578.91	0.0008917
3588.56	0.0007987
3598.2	0.0008521
3607.85	0.0010051
3617.5	0.0009466
3627.14	0.0008648
3636.79	0.0007042
3646.44	0.0005622
3656.08	0.000722
3665.73	0.0008186
3675.38	0.0007659
3685.02	0.0005926
3694.67	0.0006832
3704.32	0.0005607
3713.96	0.000766
3723.61	0.0004879
3733.26	0.0006767
3742.9	0.0006576
3752.55	0.0005431
3762.2	0.0005055
3771.84	0.0006265
3781.49	0.00043035
3791.13	0.0005712
3800.78	0.0005479
3810.43	0.00042122
3820.07	0.0005296
3829.72	0.0005624
3839.37	0.000584
3849.01	0.0005769
3858.66	0.0006009
3868.31	0.0005358
3877.95	0.0005312
3887.6	0.0005194
3897.25	0.0006663
3906.89	0.0005371
3916.54	0.0005258
3926.19	0.0004842
3935.83	0.0005002
3945.48	0.0006955
3955.13	0.0005977
3964.77	0.0004628
3974.42	0.00036912
3984.07	0.0005783
3993.71	0.0005726
