Infrared Spectrum: N-Formylmorpholine
Formula: C 5 H 9 N O 2
CAS: 4394-85-8
State: gas
Origin: EPA-IR VAPOR PHASE LIBRARY
1/CM	ABSORBANCE
549.8	0.0008886
559.445	0.0008993
569.09	0.002538
578.734	0.006028
588.379	0.009038
598.024	0.007748
607.669	0.003768
617.313	0.001948
626.958	0.0010995
636.603	0.001398
646.248	0.002158
655.893	0.002668
665.537	0.002738
675.182	0.001648
684.827	0.0007892
694.472	0.0004205
704.116	0.0004197
713.761	0.0002348
723.406	0.00029174
733.051	0.00028489
742.695	0.0005405
752.34	0.00027512
761.985	0.00028963
771.63	0.0004307
781.275	0.0004835
790.919	0.001878
800.564	0.004148
810.209	0.005178
819.854	0.004028
829.498	0.001438
839.143	0.002268
848.788	0.005048
858.433	0.005108
868.078	0.003968
877.722	0.0012352
887.367	0.0007414
897.012	0.0007841
906.657	0.001288
916.301	0.002408
925.946	0.003078
935.591	0.003158
945.236	0.002018
954.88	0.001748
964.525	0.001388
974.17	0.001878
983.815	0.004748
993.46	0.016158
1003.1	0.026598
1012.75	0.032258
1022.39	0.019418
1032.04	0.010328
1041.68	0.005218
1051.33	0.004958
1060.97	0.006738
1070.62	0.008828
1080.26	0.009068
1089.91	0.011948
1099.55	0.023568
1109.2	0.047828
1118.84	0.058318
1128.49	0.045378
1138.13	0.021538
1147.78	0.008948
1157.42	0.007668
1167.07	0.012778
1176.71	0.028998
1186.36	0.032818
1196	0.028678
1205.64	0.016168
1215.29	0.020148
1224.93	0.021258
1234.58	0.018718
1244.22	0.012058
1253.87	0.016268
1263.51	0.024168
1273.16	0.025618
1282.8	0.022268
1292.45	0.011788
1302.09	0.006808
1311.74	0.004568
1321.38	0.004428
1331.03	0.004738
1340.67	0.005798
1350.32	0.007868
1359.96	0.009878
1369.61	0.016028
1379.25	0.028858
1388.9	0.036908
1398.54	0.038938
1408.18	0.037988
1417.83	0.041908
1427.47	0.035528
1437.12	0.021598
1446.76	0.013068
1456.41	0.012308
1466.05	0.010298
1475.7	0.005948
1485.34	0.003518
1494.99	0.002408
1504.63	0.002198
1514.28	0.002078
1523.92	0.001758
1533.57	0.0011999
1543.21	0.0008849
1552.86	0.0008305
1562.5	0.0008699
1572.15	0.0009378
1581.79	0.001116
1591.44	0.001438
1601.08	0.002038
1610.73	0.002968
1620.37	0.003408
1630.01	0.003498
1639.66	0.003568
1649.3	0.005728
1658.95	0.009018
1668.59	0.011628
1678.24	0.014988
1687.88	0.029668
1697.53	0.111618
1707.17	0.232628
1716.82	0.231198
1726.46	0.124128
1736.11	0.016408
1745.75	0.006018
1755.4	0.004798
1765.04	0.005078
1774.69	0.004878
1784.33	0.003558
1793.98	0.002458
1803.62	0.002128
1813.27	0.002188
1822.91	0.002128
1832.55	0.001708
1842.2	0.001338
1851.84	0.0011176
1861.49	0.0010511
1871.13	0.0009037
1880.78	0.0007888
1890.42	0.0007449
1900.07	0.0009226
1909.71	0.0011238
1919.36	0.001328
1929	0.0012006
1938.65	0.0011326
1948.29	0.0011971
1957.94	0.001538
1967.58	0.001728
1977.23	0.001658
1986.87	0.001598
1996.52	0.001468
2006.16	0.001338
2015.81	0.0010404
2025.45	0.001042
2035.1	0.0008226
2044.74	0.0009222
2054.38	0.000925
2064.03	0.0008701
2073.67	0.0008903
2083.32	0.0008879
2092.96	0.0008005
2102.61	0.0008761
2112.25	0.001003
2121.9	0.0009148
2131.54	0.0007303
2141.19	0.0005526
2150.83	0.000492
2160.48	0.0004823
2170.12	0.0005903
2179.77	0.0005319
2189.41	0.0006317
2199.06	0.0006509
2208.7	0.000831
2218.35	0.0008918
2227.99	0.0010486
2237.64	0.000934
2247.28	0.0008173
2256.92	0.0007088
2266.57	0.0007395
2276.21	0.000676
2285.86	0.0007209
2295.5	0.0009111
2305.15	0.0009081
2314.79	0.0007527
2324.44	0.0006879
2334.08	0.0005236
2343.73	0.0005943
2353.37	0.0007198
2363.02	0.0009116
2372.66	0.0009978
2382.31	0.0008925
2391.95	0.0008479
2401.6	0.0008058
2411.24	0.0008125
2420.89	0.0007467
2430.53	0.0007267
2440.18	0.0007757
2449.82	0.0007616
2459.47	0.0006484
2469.11	0.0007597
2478.75	0.0004738
2488.4	0.0004892
2498.04	0.000502
2507.69	0.0005644
2517.33	0.000632
2526.98	0.0005565
2536.62	0.0006069
2546.27	0.0007173
2555.91	0.0007492
2565.56	0.0007478
2575.2	0.0008162
2584.85	0.0007904
2594.49	0.0008167
2604.14	0.0008301
2613.78	0.0008421
2623.43	0.000896
2633.07	0.0010067
2642.72	0.0011023
2652.36	0.001348
2662.01	0.001798
2671.65	0.002218
2681.29	0.002588
2690.94	0.002668
2700.58	0.002648
2710.23	0.002898
2719.87	0.003348
2729.52	0.004058
2739.16	0.005998
2748.81	0.007908
2758.45	0.008748
2768.1	0.007878
2777.74	0.005928
2787.39	0.005188
2797.03	0.005768
2806.68	0.006838
2816.32	0.009458
2825.97	0.015288
2835.61	0.026268
2845.26	0.038218
2854.9	0.049158
2864.55	0.049048
2874.19	0.034878
2883.84	0.024178
2893.48	0.020258
2903.12	0.022768
2912.77	0.025578
2922.41	0.025178
2932.06	0.021558
2941.7	0.017998
2951.35	0.020228
2960.99	0.029328
2970.64	0.039528
2980.28	0.036658
2989.93	0.022428
2999.57	0.008478
3009.22	0.003048
3018.86	0.001438
3028.51	0.0009209
3038.15	0.0010049
3047.8	0.0008091
3057.44	0.0008843
3067.09	0.0009076
3076.73	0.0008372
3086.38	0.0009619
3096.02	0.0011146
3105.67	0.001448
3115.31	0.0012444
3124.95	0.0010725
3134.6	0.00112
3144.24	0.0009958
3153.89	0.0007002
3163.53	0.0007388
3173.18	0.0004802
3182.82	0.0005397
3192.47	0.0004978
3202.11	0.0004309
3211.76	0.0004893
3221.4	0.0005287
3231.05	0.0004353
3240.69	0.0005466
3250.34	0.000419
3259.98	0.00033083
3269.63	0.0004279
3279.27	0.00029265
3288.92	0.0004641
3298.56	0.00029244
3308.21	0.0005297
3317.85	0.0006521
3327.49	0.0004668
3337.14	0.0006105
3346.78	0.00028788
3356.43	0.0005084
3366.07	0.0006503
3375.72	0.000903
3385.36	0.0010697
3395.01	0.002008
3404.65	0.002858
3414.3	0.002518
3423.94	0.001418
3433.59	0.0006761
3443.23	0.0009189
3452.88	0.0007334
3462.52	0.0005462
3472.17	0.0003214
3481.81	0.000352
3491.46	0.00034625
3501.1	0.0004144
3510.75	0.00029822
3520.39	0.0004
3530.04	0.00027322
3539.68	0.0002356
3549.32	0.0003894
3558.97	0.0003969
3568.61	0.000328
3578.26	0.000252634
3587.9	0.0001783
3597.55	0.00029987
3607.19	0.0001829
3616.84	0.0004339
3626.48	0.00033922
3636.13	0.000103
3645.77	0.0002137
3655.42	0.000250728
3665.06	0.00026738
3674.71	0.000212
3684.35	0.0005349
3694	0.0003777
3703.64	0.0003492
3713.29	0.0004411
3722.93	0.0001752
3732.58	0.00028421
3742.22	0.000253747
3751.86	0.00033034
3761.51	0.0004181
3771.15	0.00032055
3780.8	0.0004186
3790.44	0.00030327
3800.09	0.00030342
3809.73	0.0004945
3819.38	0.0003948
3829.02	0.0004927
3838.67	0.000247701
3848.31	0.0005754
3857.96	0.00027501
3867.6	0.0003732
3877.25	0.00029946
3886.89	0.0004005
3896.54	0.0002062
3906.18	0.00029645
3915.83	0.000363
3925.47	0.0004572
3935.12	0.0003854
3944.76	0.00028944
3954.41	0.0006273
3964.05	0.000671
3973.69	0.0007464
3983.34	0.0006737
3992.98	0.0008186
