Infrared Spectrum: 4-Isopropylphenylacetonitrile
Formula: C 11 H 13 N
CAS: 4395-87-3
State: gas
Origin: EPA-IR VAPOR PHASE LIBRARY
1/CM	ABSORBANCE
549.8	0.006433
559.445	0.004083
569.09	0.003773
578.734	0.003053
588.379	0.002673
598.024	0.002133
607.669	0.001673
617.313	0.001363
626.958	0.0010463
636.603	0.001023
646.248	0.0005903
655.893	0.0007304
665.537	0.0009364
675.182	0.001353
684.827	0.002623
694.472	0.003323
704.116	0.003373
713.761	0.003093
723.406	0.002003
733.051	0.001643
742.695	0.0012528
752.34	0.0009842
761.985	0.001303
771.63	0.001843
781.275	0.003513
790.919	0.007353
800.564	0.013773
810.209	0.018803
819.854	0.017023
829.498	0.011833
839.143	0.007423
848.788	0.004283
858.433	0.002323
868.078	0.001723
877.722	0.001593
887.367	0.001843
897.012	0.001773
906.657	0.002063
916.301	0.002323
925.946	0.002413
935.591	0.002383
945.236	0.002023
954.88	0.001383
964.525	0.0010246
974.17	0.0009198
983.815	0.0006831
993.46	0.0007108
1003.1	0.001373
1012.75	0.005773
1022.39	0.008813
1032.04	0.002093
1041.68	0.002723
1051.33	0.007763
1060.97	0.009163
1070.62	0.004243
1080.26	0.003043
1089.91	0.003073
1099.55	0.004073
1109.2	0.004333
1118.84	0.003283
1128.49	0.002333
1138.13	0.002323
1147.78	0.002203
1157.42	0.0009842
1167.07	0.001283
1176.71	0.0012513
1186.36	0.001823
1196	0.002023
1205.64	0.001623
1215.29	0.0010105
1224.93	0.001633
1234.58	0.001543
1244.22	0.001383
1253.87	0.001173
1263.51	0.001773
1273.16	0.002583
1282.8	0.003873
1292.45	0.005183
1302.09	0.005773
1311.74	0.005403
1321.38	0.004433
1331.03	0.003563
1340.67	0.003923
1350.32	0.005153
1359.96	0.005543
1369.61	0.006533
1379.25	0.006633
1388.9	0.007083
1398.54	0.006703
1408.18	0.008063
1417.83	0.011893
1427.47	0.015583
1437.12	0.011293
1446.76	0.008273
1456.41	0.009133
1466.05	0.010153
1475.7	0.008973
1485.34	0.007183
1494.99	0.007543
1504.63	0.015603
1514.28	0.025743
1523.92	0.013243
1533.57	0.003833
1543.21	0.002233
1552.86	0.001613
1562.5	0.0012288
1572.15	0.0010995
1581.79	0.0010123
1591.44	0.0009163
1601.08	0.0009722
1610.73	0.0012446
1620.37	0.001463
1630.01	0.001683
1639.66	0.001923
1649.3	0.001723
1658.95	0.001363
1668.59	0.0010429
1678.24	0.0007699
1687.88	0.0006972
1697.53	0.0005933
1707.17	0.0005125
1716.82	0.0005391
1726.46	0.000524
1736.11	0.0006827
1745.75	0.0007926
1755.4	0.0010664
1765.04	0.001263
1774.69	0.001663
1784.33	0.002273
1793.98	0.001383
1803.62	0.0006133
1813.27	0.0004642
1822.91	0.0005043
1832.55	0.0005343
1842.2	0.0005743
1851.84	0.00067
1861.49	0.0008832
1871.13	0.0011481
1880.78	0.001403
1890.42	0.001743
1900.07	0.002053
1909.71	0.001923
1919.36	0.001423
1929	0.0008455
1938.65	0.0005069
1948.29	0.0003727
1957.94	0.0004026
1967.58	0.00035653
1977.23	0.0003772
1986.87	0.00031907
1996.52	0.00030583
2006.16	0.00030881
2015.81	0.00027389
2025.45	0.00029133
2035.1	0.0002337
2044.74	0.00028224
2054.38	0.00028846
2064.03	0.00033902
2073.67	0.00033179
2083.32	0.00031236
2092.96	0.0003742
2102.61	0.0004121
2112.25	0.00034565
2121.9	0.0004427
2131.54	0.0003651
2141.19	0.0004033
2150.83	0.00033396
2160.48	0.000262035
2170.12	0.00031299
2179.77	0.0002286
2189.41	0.00033475
2199.06	0.0003762
2208.7	0.000394
2218.35	0.0004431
2227.99	0.0006643
2237.64	0.0010033
2247.28	0.001683
2256.92	0.002273
2266.57	0.001433
2276.21	0.0009546
2285.86	0.0007261
2295.5	0.0006306
2305.15	0.0006264
2314.79	0.0007293
2324.44	0.0007173
2334.08	0.0007389
2343.73	0.0008205
2353.37	0.0007214
2363.02	0.00069
2372.66	0.0006224
2382.31	0.0006323
2391.95	0.0005576
2401.6	0.0005017
2411.24	0.0006238
2420.89	0.0005457
2430.53	0.000507
2440.18	0.0005086
2449.82	0.0004542
2459.47	0.0005566
2469.11	0.000596
2478.75	0.0005739
2488.4	0.0005868
2498.04	0.0005586
2507.69	0.0005744
2517.33	0.0005702
2526.98	0.0005578
2536.62	0.0006709
2546.27	0.0006574
2555.91	0.0007459
2565.56	0.000901
2575.2	0.0010585
2584.85	0.0011414
2594.49	0.0011709
2604.14	0.0010679
2613.78	0.0010256
2623.43	0.0009389
2633.07	0.0007931
2642.72	0.0006682
2652.36	0.0006998
2662.01	0.0006403
2671.65	0.00073
2681.29	0.0006647
2690.94	0.0007936
2700.58	0.000837
2710.23	0.0010179
2719.87	0.0012089
2729.52	0.001373
2739.16	0.001333
2748.81	0.001413
2758.45	0.001363
2768.1	0.001403
2777.74	0.001373
2787.39	0.001373
2797.03	0.001603
2806.68	0.001923
2816.32	0.002273
2825.97	0.002823
2835.61	0.003483
2845.26	0.003993
2854.9	0.005353
2864.55	0.008893
2874.19	0.015933
2883.84	0.021683
2893.48	0.020783
2903.12	0.021533
2912.77	0.022763
2922.41	0.025113
2932.06	0.029563
2941.7	0.032023
2951.35	0.033113
2960.99	0.058503
2970.64	0.096043
2980.28	0.055433
2989.93	0.021293
2999.57	0.013703
3009.22	0.011683
3018.86	0.013533
3028.51	0.018463
3038.15	0.015333
3047.8	0.010513
3057.44	0.010103
3067.09	0.009093
3076.73	0.007053
3086.38	0.006253
3096.02	0.005463
3105.67	0.004273
3115.31	0.003333
3124.95	0.002763
3134.6	0.002453
3144.24	0.001923
3153.89	0.001533
3163.53	0.001623
3173.18	0.001683
3182.82	0.001713
3192.47	0.001723
3202.11	0.001473
3211.76	0.0012349
3221.4	0.001263
3231.05	0.0009354
3240.69	0.0008237
3250.34	0.0006328
3259.98	0.0007449
3269.63	0.000602
3279.27	0.0006855
3288.92	0.00034089
3298.56	0.0004843
3308.21	0.000287
3317.85	0.0004418
3327.49	0.00030369
3337.14	0.0004246
3346.78	0.00034026
3356.43	0.0002062
3366.07	0.0003907
3375.72	0.0005073
3385.36	0.0003964
3395.01	0.0002096
3404.65	0.0003834
3414.3	0.000237
3423.94	0.0002028
3433.59	0.0001699
3443.23	0.00027522
3452.88	0.000147
3462.52	0.0001741
3472.17	0.000219
3481.81	0.0003844
3491.46	0.0004286
3501.1	0.0004198
3510.75	0.0004529
3520.39	0.0001784
3530.04	0.00029818
3539.68	0.0004738
3549.32	0.00029662
3558.97	0.00026199
3568.61	0.00026001
3578.26	0.00025772
3587.9	0.00027303
3597.55	0.0002023
3607.19	0.0003898
3616.84	0.00025533
3626.48	0.000174
3636.13	0.00030585
3645.77	0.0003837
3655.42	0.0005062
3665.06	0.000487
3674.71	0.0003864
3684.35	0.0005478
3694	0.0002278
3703.64	0.00033988
3713.29	0.0004172
3722.93	0.0004331
3732.58	0.00032407
3742.22	0.00032386
3751.86	0.00034297
3761.51	0.0003699
3771.15	0.00027583
3780.8	0.000445
3790.44	0.0003705
3800.09	0.0004941
3809.73	0.0005147
3819.38	0.0004456
3829.02	0.0006363
3838.67	0.0004488
3848.31	0.000376
3857.96	0.000493
3867.6	0.0004856
3877.25	0.0003864
3886.89	0.0004745
3896.54	0.0005246
3906.18	0.000459
3915.83	0.0006166
3925.47	0.00025975
3935.12	0.0004615
3944.76	0.0004599
3954.41	0.0003823
3964.05	0.00034051
3973.69	0.00034337
3983.34	0.000268406
3992.98	0.0005761
