Infrared Spectrum: 4-Benzyloxybenzaldehyde
Formula: C 14 H 12 O 2
CAS: 4397-53-9
State: gas
Instrument: HP-GC/MS/IRD
Origin: NIST Mass Spectrometry Data Center
1/CM	ABSORBANCE
550	0.0023276
562	0.0001771
574	0.0007843
586	0.0043263
598	0.0092851
610	0.0099935
622	0.0140415
634	0.0064768
646	0.0116886
658	0.0096393
670	0.006072
682	0.0128524
694	0.0241868
706	0.0203412
718	0.0233519
730	0.0402776
742	0.027324
754	0.0127259
766	0.005313
778	0.0049335
790	0.0066539
802	0.0131054
814	0.0252747
826	0.0421245
838	0.0410619
850	0.0406318
862	0.0299299
874	0.0103224
886	0.0054142
898	0.0057178
910	0.0057937
922	0.0036685
934	0.0026818
946	0.003036
958	0.0050347
970	0.0096393
982	0.0183931
994	0.0308913
1006	0.046552
1018	0.0583165
1030	0.0399234
1042	0.0187979
1054	0.0088803
1066	0.0064262
1078	0.0066286
1090	0.0062744
1102	0.0096899
1114	0.0085514
1126	0.0071093
1138	0.011385
1150	0.056419
1162	0.169232
1174	0.0353441
1186	0.0292468
1198	0.0607453
1210	0.119973
1222	0.155468
1234	0.141402
1246	0.151623
1258	0.126601
1270	0.0673992
1282	0.0420486
1294	0.0571021
1306	0.064009
1318	0.037697
1330	0.0210496
1342	0.0146487
1354	0.0129536
1366	0.0154077
1378	0.0275011
1390	0.0228206
1402	0.0108537
1414	0.0100188
1426	0.0138644
1438	0.0092092
1450	0.0133331
1462	0.0186461
1474	0.0149523
1486	0.0144463
1498	0.0526746
1510	0.0859188
1522	0.0196328
1534	0.0099935
1546	0.0098164
1558	0.0158884
1570	0.0426305
1582	0.0922944
1594	0.145627
1606	0.171458
1618	0.0509795
1630	0.0169004
1642	0.0097911
1654	0.0084755
1666	0.0106766
1678	0.0173811
1690	0.026818
1702	0.0633765
1714	0.215784
1726	0.134065
1738	0.0240856
1750	0.0082731
1762	0.00506
1774	0.0042251
1786	0.0036938
1798	0.004554
1810	0.0030107
1822	0.002024
1834	0.0016445
1846	0.0016445
1858	0.0024035
1870	0.0027324
1882	0.0029854
1894	0.0028589
1906	0.0020999
1918	0.001771
1930	0.002277
1942	0.0028083
1954	0.003289
1966	0.0028842
1978	0.0023782
1990	0.0024541
2002	0.0028336
2014	0.0033649
2026	0.0027577
2038	0.0022011
2050	0.0018975
2062	0.0016445
2074	0.0014168
2086	0.0011132
2098	0.0009614
2110	0.0008855
2122	0.0006325
2134	0.0004048
2146	0.0003542
2158	0.000253
2170	0.0001771
2182	0.0001265
2194	0.0001012
2206	0.0002024
2218	0.0002277
2230	0.0003289
2242	0.0003795
2254	0.0005819
2266	0.0008602
2278	0.0008096
2290	0.0006325
2302	0.0005566
2314	0.0009108
2326	0.0007084
2338	0.0004048
2350	0.0004301
2362	0.0005566
2374	0.0006578
2386	0.0006831
2398	0.0009867
2410	0.0013662
2422	0.0013409
2434	0.0013662
2446	0.0016445
2458	0.0017963
2470	0.0015939
2482	0.0013915
2494	0.0013915
2506	0.0015686
2518	0.0016445
2530	0.0016951
2542	0.0021252
2554	0.0024288
2566	0.00253
2578	0.0027324
2590	0.0027577
2602	0.0024035
2614	0.002024
2626	0.0017204
2638	0.0015939
2650	0.001771
2662	0.00253
2674	0.0045287
2686	0.0080707
2698	0.0120175
2710	0.022517
2722	0.0362802
2734	0.0297528
2746	0.0154077
2758	0.0095128
2770	0.0095634
2782	0.0150535
2794	0.0225929
2806	0.0234784
2818	0.0254518
2830	0.0161161
2842	0.0089056
2854	0.0064768
2866	0.0073876
2878	0.0107272
2890	0.0127259
2902	0.0105501
2914	0.0093863
2926	0.0101706
2938	0.0114356
2950	0.0121693
2962	0.0111573
2974	0.0067551
2986	0.0048323
2998	0.0049588
3010	0.0073623
3022	0.0132572
3034	0.0246169
3046	0.0216315
3058	0.0164703
3070	0.026059
3082	0.0225676
3094	0.0151294
3106	0.010879
3118	0.006325
3130	0.0024541
3142	0.0013156
3154	0.0011385
3166	0.0009867
3178	0.000759
3190	0.0006325
3202	0.0006578
3214	0.0004554
3226	0.0002277
3238	0.0001265
3250	5.06e-05
3262	5.06e-05
3274	5.06e-05
3286	0.0001012
3298	0.0001265
3310	0.0001771
3322	0.0002024
3334	0.000253
3346	0.0002783
3358	0.0002783
3370	0.0004807
3382	0.0006831
3394	0.0013662
3406	0.0026312
3418	0.0032637
3430	0.0018469
3442	0.0009108
3454	0.0004554
3466	0.000253
3478	0.0002277
3490	0.0001771
3502	0.0001012
3514	0.0001265
3526	7.59e-05
3538	0.0001012
3550	0.0001012
3562	0.0001518
3574	0.0001518
3586	0.0001518
3598	0.0001518
3610	0.0002024
3622	0.000253
3634	0.0003036
3646	0.0003036
3658	0.0004301
3670	0.0003795
3682	0.0004554
3694	0.0004554
3706	0.0004554
3718	0.0004048
3730	0.0003542
3742	0.0003289
3754	0.000253
3766	0.000253
3778	0.0002024
3790	0.000253
3802	0.0003289
3814	0.0003542
3826	0.0003289
3838	0.0003289
