Infrared Spectrum: 2-Chloro-2-methylhexane
Formula: C 7 H 15 Cl
CAS: 4398-65-6
State: gas
Instrument: HP-GC/MS/IRD
Origin: NIST Mass Spectrometry Data Center
1/CM	ABSORBANCE
550	0.0007854
562	0.0008118
574	0.0011627
586	0.0012056
598	0.0004972
610	0.0003157
622	0.0005566
634	0.000605
646	0.0003597
658	0.0001562
670	9.02e-05
682	3.41e-05
694	0.0001232
706	0.0001617
718	0.0002409
730	0.0003234
742	0.0004642
754	0.0003487
766	0.000297
778	0.0003146
790	0.0003432
802	0.0003047
814	0.0004521
826	0.0004642
838	0.0004653
850	0.0003839
862	0.0002299
874	0.0002915
886	0.0004488
898	0.000451
910	0.0003014
922	0.0002849
934	0.000264
946	0.000297
958	0.0003014
970	0.0002717
982	0.0002101
994	0.0001837
1006	0.0002167
1018	0.0001298
1030	0.0001562
1042	0.0001892
1054	0.0003509
1066	0.0004741
1078	0.0007502
1090	0.0007689
1102	0.0007458
1114	0.0010164
1126	0.0017215
1138	0.0018062
1150	0.0014135
1162	0.0011693
1174	0.0009053
1186	0.0006424
1198	0.0006952
1210	0.0011484
1222	0.0011165
1234	0.0008107
1246	0.0006149
1258	0.0004719
1270	0.0003839
1282	0.0003322
1294	0.0003916
1306	0.000418
1318	0.0003872
1330	0.0004444
1342	0.0006281
1354	0.000759
1366	0.0014993
1378	0.002211
1390	0.0018953
1402	0.0009064
1414	0.0004873
1426	0.0005566
1438	0.0009614
1450	0.0016951
1462	0.00209
1474	0.0016577
1486	0.0007942
1498	0.0003586
1510	0.0002024
1522	0.0001672
1534	0.0001221
1546	0.0001397
1558	0.0001232
1570	7.7e-05
1582	8.47e-05
1594	0.0001001
1606	8.69e-05
1618	0.0001254
1630	0.0001529
1642	0.0001815
1654	0.0002299
1666	0.0001716
1678	0.0001221
1690	0.000121
1702	0.0001375
1714	9.57e-05
1726	0.0001221
1738	0.0001155
1750	9.35e-05
1762	7.92e-05
1774	8.58e-05
1786	8.03e-05
1798	6.93e-05
1810	7.37e-05
1822	9.46e-05
1834	3.96e-05
1846	5.61e-05
1858	5.72e-05
1870	4.4e-05
1882	2.53e-05
1894	4.73e-05
1906	4.95e-05
1918	3.52e-05
1930	9.9e-06
1942	3.08e-05
1954	6.6e-06
1966	1.87e-05
1978	1.32e-05
1990	1.54e-05
2002	3.63e-05
2014	3.96e-05
2026	6.6e-05
2038	2.64e-05
2050	5.06e-05
2062	6.27e-05
2074	2.2e-06
2086	1.21e-05
2098	3.19e-05
2110	2.53e-05
2122	1.43e-05
2134	5.94e-05
2146	3.41e-05
2158	3.41e-05
2170	5.61e-05
2182	6.38e-05
2194	6.27e-05
2206	3.08e-05
2218	4.07e-05
2230	2.97e-05
2242	5.06e-05
2254	3.3e-05
2266	4.4e-05
2278	1.32e-05
2290	4.62e-05
2302	3.41e-05
2314	3.52e-05
2326	6.71e-05
2338	4.29e-05
2350	5.06e-05
2362	6.27e-05
2374	5.83e-05
2386	5.94e-05
2398	6.49e-05
2410	5.83e-05
2422	3.74e-05
2434	6.93e-05
2446	8.58e-05
2458	9.46e-05
2470	5.06e-05
2482	6.6e-05
2494	6.71e-05
2506	8.91e-05
2518	8.69e-05
2530	6.05e-05
2542	0.0001133
2554	0.0001067
2566	0.0001331
2578	0.0001144
2590	0.0001144
2602	0.0001342
2614	0.0001529
2626	0.000198
2638	0.0001254
2650	0.0001727
2662	0.0001749
2674	0.000209
2686	0.0001848
2698	0.0002299
2710	0.0002486
2722	0.000242
2734	0.0002651
2746	0.0003586
2758	0.0003014
2770	0.0003421
2782	0.0003509
2794	0.0004158
2806	0.0006336
2818	0.0007458
2830	0.0009867
2842	0.001419
2854	0.0022297
2866	0.0035948
2878	0.0049489
2890	0.0049786
2902	0.0046959
2914	0.0054901
2926	0.0077264
2938	0.0106029
2950	0.0105589
2962	0.0101409
2974	0.0108933
2986	0.0084095
2998	0.004906
3010	0.0020966
3022	0.0011176
3034	0.0008151
3046	0.0006105
3058	0.0005544
3070	0.000528
3082	0.000539
3094	0.0004213
3106	0.0004356
3118	0.0003663
3130	0.0003344
3142	0.0002717
3154	0.000242
3166	0.0003256
3178	0.0002739
3190	0.0003311
3202	0.0003157
3214	0.0002134
3226	0.0002002
3238	0.0003399
3250	0.0001837
3262	0.0001551
3274	0.0002211
3286	0.000121
3298	0.0001705
3310	9.9e-05
3322	0.000143
3334	0.0001254
3346	0.0001859
3358	0.0001573
3370	8.91e-05
3382	7.37e-05
3394	0.000121
3406	0.0001287
3418	0.0001727
3430	0.0001067
3442	0.0001331
3454	0.0001122
3466	0.0001727
3478	0.0001056
3490	0.0001111
3502	5.17e-05
3514	4.62e-05
3526	4.62e-05
3538	0.0001001
3550	0.0001111
3562	6.71e-05
3574	9.57e-05
3586	0.0001177
3598	0.0001364
3610	0.0001353
3622	9.02e-05
3634	9.35e-05
3646	0.0001012
3658	0.0001001
3670	0.0001056
3682	0.0001309
3694	9.9e-05
3706	9.02e-05
3718	0.0001529
3730	7.26e-05
3742	7.7e-05
3754	0.0001243
3766	5.5e-06
3778	0.0001397
3790	4.07e-05
3802	0.0001298
3814	0.0001089
3826	7.37e-05
3838	0.0001166
