Infrared Spectrum: 2,2,5,5-Tetramethyl-3-pyrrolidinecarboxamide-1-oxy
Formula: C 9 H 17 N 2 O 2
CAS: 4399-80-8
State: gas
Origin: EPA-IR VAPOR PHASE LIBRARY
1/CM	ABSORBANCE
549.8	0.0005137
559.445	0.0011309
569.09	0.0008221
578.734	0.0003472
588.379	0.0003016
598.024	0.0008675
607.669	0.0008319
617.313	0.0006976
626.958	0.0013753
636.603	0.001472
646.248	0.0009931
655.893	0.0010045
665.537	0.0007248
675.182	0.0005579
684.827	0.0006032
694.472	0.0006192
704.116	0.0005459
713.761	0.000659
723.406	0.0006351
733.051	0.000823
742.695	0.0007775
752.34	0.0008737
761.985	0.0010686
771.63	0.0009888
781.275	0.0010974
790.919	0.0008427
800.564	0.0007678
810.209	0.0008584
819.854	0.00052
829.498	0.0007209
839.143	0.0005726
848.788	0.0007781
858.433	0.0006581
868.078	0.0006734
877.722	0.0004902
887.367	0.0005289
897.012	0.00075
906.657	0.0006842
916.301	0.0006256
925.946	0.0005021
935.591	0.000339
945.236	0.0006601
954.88	0.00046683
964.525	0.0005081
974.17	0.0005396
983.815	0.00037682
993.46	0.00045197
1003.1	0.000184
1012.75	0.0004211
1022.39	0.0003132
1032.04	0.0006688
1041.68	0.0003145
1051.33	0.0008442
1060.97	0.0007963
1070.62	0.0009653
1080.26	0.000272
1089.91	0.0002957
1099.55	0.0004385
1109.2	0.0005971
1118.84	0.0007268
1128.49	0.0009683
1138.13	0.0009917
1147.78	0.0008556
1157.42	0.0008682
1167.07	0.001482
1176.71	0.0011083
1186.36	0.001147
1196	0.0012738
1205.64	0.0013437
1215.29	0.0013694
1224.93	0.001892
1234.58	0.002932
1244.22	0.002912
1253.87	0.002392
1263.51	0.002412
1273.16	0.001792
1282.8	0.001632
1292.45	0.001972
1302.09	0.002922
1311.74	0.003452
1321.38	0.002782
1331.03	0.002042
1340.67	0.001882
1350.32	0.002292
1359.96	0.003352
1369.61	0.004852
1379.25	0.005332
1388.9	0.004402
1398.54	0.002082
1408.18	0.0011625
1417.83	0.0011804
1427.47	0.0011862
1437.12	0.0011033
1446.76	0.001422
1456.41	0.002112
1466.05	0.002202
1475.7	0.001532
1485.34	0.0007785
1494.99	0.0005252
1504.63	0.0005235
1514.28	0.0005089
1523.92	0.0005368
1533.57	0.0006928
1543.21	0.0008135
1552.86	0.0008999
1562.5	0.0012694
1572.15	0.002252
1581.79	0.004912
1591.44	0.005362
1601.08	0.002752
1610.73	0.0013488
1620.37	0.0008719
1630.01	0.0007385
1639.66	0.0007238
1649.3	0.0006753
1658.95	0.0008696
1668.59	0.0010644
1678.24	0.001472
1687.88	0.001992
1697.53	0.002452
1707.17	0.003962
1716.82	0.008882
1726.46	0.013622
1736.11	0.009812
1745.75	0.003732
1755.4	0.001912
1765.04	0.001482
1774.69	0.0011584
1784.33	0.0008199
1793.98	0.0005309
1803.62	0.0005195
1813.27	0.0004676
1822.91	0.00043261
1832.55	0.00039775
1842.2	0.000411
1851.84	0.00040736
1861.49	0.00040633
1871.13	0.0003489
1880.78	0.000382161
1890.42	0.00038554
1900.07	0.0003358
1909.71	0.0003282
1919.36	0.0003237
1929	0.0003205
1938.65	0.0003671
1948.29	0.0003088
1957.94	0.0003486
1967.58	0.00040194
1977.23	0.000244
1986.87	0.0003285
1996.52	0.000281
2006.16	0.000257
2015.81	0.0003344
2025.45	0.0003154
2035.1	0.0002952
2044.74	0.0003331
2054.38	0.0003706
2064.03	0.0003451
2073.67	0.0003147
2083.32	0.00037372
2092.96	0.0003204
2102.61	0.0002988
2112.25	0.0003199
2121.9	0.0003199
2131.54	0.0003478
2141.19	0.0003321
2150.83	0.0003185
2160.48	0.0003238
2170.12	0.0003446
2179.77	0.0003458
2189.41	0.000369
2199.06	0.0003112
2208.7	0.0003512
2218.35	0.0003273
2227.99	0.0003457
2237.64	0.00041023
2247.28	0.00037536
2256.92	0.0003637
2266.57	0.00042167
2276.21	0.0003151
2285.86	0.0003613
2295.5	0.00040317
2305.15	0.0003691
2314.79	0.00037759
2324.44	0.00040898
2334.08	0.0002988
2343.73	0.00037752
2353.37	0.0003534
2363.02	0.000386734
2372.66	0.0003399
2382.31	0.0003551
2391.95	0.00043058
2401.6	0.0003379
2411.24	0.000343
2420.89	0.000252
2430.53	0.00037867
2440.18	0.0002923
2449.82	0.00037323
2459.47	0.00041138
2469.11	0.0003019
2478.75	0.00039831
2488.4	0.0003318
2498.04	0.0003329
2507.69	0.0003201
2517.33	0.0003623
2526.98	0.00042671
2536.62	0.0003664
2546.27	0.0003523
2555.91	0.00042786
2565.56	0.0002904
2575.2	0.000353
2584.85	0.000348
2594.49	0.00042266
2604.14	0.00042757
2613.78	0.00046254
2623.43	0.0004402
2633.07	0.0004622
2642.72	0.0004991
2652.36	0.00042961
2662.01	0.0003586
2671.65	0.00040517
2681.29	0.00041829
2690.94	0.00042589
2700.58	0.0004038
2710.23	0.00040195
2719.87	0.00042631
2729.52	0.00040431
2739.16	0.00039363
2748.81	0.00038027
2758.45	0.0004839
2768.1	0.0006271
2777.74	0.00047805
2787.39	0.00037217
2797.03	0.0004625
2806.68	0.0006789
2816.32	0.00046597
2825.97	0.0007393
2835.61	0.0006393
2845.26	0.0007333
2854.9	0.000842
2864.55	0.0012302
2874.19	0.001502
2883.84	0.001802
2893.48	0.001652
2903.12	0.002032
2912.77	0.002352
2922.41	0.002602
2932.06	0.003452
2941.7	0.003862
2951.35	0.003242
2960.99	0.003852
2970.64	0.005902
2980.28	0.007152
2989.93	0.005632
2999.57	0.002712
3009.22	0.0010753
3018.86	0.0006752
3028.51	0.0006216
3038.15	0.0006151
3047.8	0.00047132
3057.44	0.0004757
3067.09	0.0004113
3076.73	0.00048019
3086.38	0.0003267
3096.02	0.000598
3105.67	0.00039863
3115.31	0.000386319
3124.95	0.00044304
3134.6	0.0005264
3144.24	0.00040177
3153.89	0.0005853
3163.53	0.0005647
3173.18	0.00043628
3182.82	0.00044849
3192.47	0.000565
3202.11	0.00040624
3211.76	0.00043326
3221.4	0.00043196
3231.05	0.0003479
3240.69	0.0003438
3250.34	0.000312
3259.98	0.00028
3269.63	0.00041387
3279.27	0.000263
3288.92	0.0005219
3298.56	0.00040664
3308.21	0.0003428
3317.85	0.000268
3327.49	0.000273
3337.14	0.000239
3346.78	0.00040786
3356.43	0.000248
3366.07	0.0003536
3375.72	0.00043858
3385.36	0.0005199
3395.01	0.0006061
3404.65	0.0006924
3414.3	0.0011048
3423.94	0.001422
3433.59	0.001662
3443.23	0.0011748
3452.88	0.0006849
3462.52	0.0007073
3472.17	0.0005682
3481.81	0.00043133
3491.46	0.00047791
3501.1	0.0006118
3510.75	0.0006458
3520.39	0.0008655
3530.04	0.001136
3539.68	0.0010096
3549.32	0.0013516
3558.97	0.001412
3568.61	0.0008158
3578.26	0.0004938
3587.9	0.0006447
3597.55	0.000314
3607.19	0.00046493
3616.84	0.00041637
3626.48	0.0002983
3636.13	0.000226
3645.77	0.000268
3655.42	0.0003198
3665.06	0.000171
3674.71	0.000255
3684.35	0.0003482
3694	0.00039251
3703.64	0.0003468
3713.29	0.000173
3722.93	0.000198
3732.58	0.0003339
3742.22	0.000226
3751.86	0.000312
3761.51	0.000176
3771.15	0.0003568
3780.8	0.000244
3790.44	0.0003507
3800.09	0.000268
3809.73	0.000205
3819.38	0.0003314
3829.02	0.000382868
3838.67	0.000325
3848.31	0.0003524
3857.96	0.0003941
3867.6	0.0002
3877.25	0.0003613
3886.89	0.0002893
3896.54	0.00042581
3906.18	0.0003389
3915.83	0.000275
3925.47	0.000263
3935.12	0.00028
3944.76	0.000263
3954.41	0.0004104
3964.05	0.0003304
3973.69	0.0002995
3983.34	0.000237
3992.98	0.000269
