Infrared Spectrum: 2,3,4,5,6-Pentafluorobenzyl alcohol
Formula: C 7 H 3 F 5 O
CAS: 440-60-8
State: gas
Origin: EPA-IR VAPOR PHASE LIBRARY
1/CM	ABSORBANCE
549.9	0.01446
559.547	0.02577
569.193	0.02137
578.84	0.01006
588.486	0.01103
598.133	0.02613
607.779	0.02551
617.426	0.01061
627.072	0.00782
636.719	0.0081
646.365	0.0102
656.012	0.01522
665.658	0.02486
675.305	0.02552
684.951	0.01446
694.598	0.00997
704.245	0.00828
713.891	0.00741
723.538	0.00839
733.184	0.01284
742.831	0.01857
752.477	0.01818
762.124	0.01426
771.77	0.01135
781.417	0.01057
791.063	0.00997
800.71	0.00839
810.356	0.00737
820.003	0.00701
829.649	0.00698
839.296	0.00719
848.943	0.0078
858.589	0.00963
868.236	0.01176
877.882	0.01251
887.529	0.01422
897.175	0.02044
906.822	0.04105
916.468	0.11003
926.115	0.20602
935.761	0.21548
945.408	0.20939
955.054	0.17378
964.701	0.08164
974.347	0.05567
983.994	0.05885
993.64	0.07027
1003.29	0.09658
1012.93	0.17154
1022.58	0.27774
1032.23	0.297
1041.87	0.22136
1051.52	0.13776
1061.17	0.09098
1070.81	0.05974
1080.46	0.04366
1090.11	0.03795
1099.75	0.04724
1109.4	0.10949
1119.05	0.29183
1128.69	0.33367
1138.34	0.13377
1147.99	0.05926
1157.63	0.03432
1167.28	0.02739
1176.92	0.03134
1186.57	0.04324
1196.22	0.0526
1205.86	0.04747
1215.51	0.03704
1225.16	0.03126
1234.8	0.02787
1244.45	0.02642
1254.1	0.02907
1263.74	0.03481
1273.39	0.03732
1283.04	0.03273
1292.68	0.03853
1302.33	0.07871
1311.98	0.08628
1321.62	0.04071
1331.27	0.02885
1340.92	0.0306
1350.56	0.03605
1360.21	0.04555
1369.86	0.06602
1379.5	0.08958
1389.15	0.08641
1398.79	0.06472
1408.44	0.04884
1418.09	0.04401
1427.73	0.04034
1437.38	0.03153
1447.03	0.02727
1456.67	0.0293
1466.32	0.04246
1475.97	0.08192
1485.61	0.23174
1495.26	0.65825
1504.91	0.96266
1514.55	0.77082
1524.2	0.49319
1533.85	0.15222
1543.49	0.05006
1553.14	0.03114
1562.79	0.02348
1572.43	0.02182
1582.08	0.02406
1591.73	0.02376
1601.37	0.01975
1611.02	0.01714
1620.67	0.01749
1630.31	0.02363
1639.96	0.04662
1649.6	0.08042
1659.25	0.05547
1668.9	0.01564
1678.54	0.00817
1688.19	0.00684
1697.84	0.0066292
1707.48	0.0071
1717.13	0.00863
1726.78	0.01004
1736.42	0.01052
1746.07	0.01053
1755.72	0.00869
1765.36	0.0063601
1775.01	0.0055606
1784.66	0.005352
1794.3	0.005151
1803.95	0.004808
1813.6	0.00464
1823.24	0.00447
1832.89	0.00442
1842.54	0.004662
1852.18	0.004831
1861.83	0.00423
1871.47	0.004
1881.12	0.00411
1890.77	0.0044
1900.41	0.00462
1910.06	0.00465
1919.71	0.00419
1929.35	0.00378
1939	0.00363
1948.65	0.00362
1958.29	0.00383
1967.94	0.00412
1977.59	0.00433
1987.23	0.00433
1996.88	0.0043
2006.53	0.00418
2016.17	0.00422
2025.82	0.00462
2035.47	0.005491
2045.11	0.00672
2054.76	0.00812
2064.41	0.00851
2074.05	0.00786
2083.7	0.0068
2093.35	0.00573107
2102.99	0.004737
2112.64	0.00416
2122.28	0.00393
2131.93	0.004
2141.58	0.00425
2151.22	0.00452
2160.87	0.004742
2170.52	0.00464
2180.16	0.00437
2189.81	0.00407
2199.46	0.00408
2209.1	0.00426
2218.75	0.00424
2228.4	0.00422
2238.04	0.00452
2247.69	0.004704
2257.34	0.00425
2266.98	0.00361
2276.63	0.00343
2286.28	0.00337
2295.92	0.00338
2305.57	0.00352
2315.22	0.0036
2324.86	0.00388
2334.51	0.00446
2344.16	0.005002
2353.8	0.005176
2363.45	0.005024
2373.09	0.004969
2382.74	0.005022
2392.39	0.005193
2402.03	0.005393
2411.68	0.0058493
2421.33	0.00705
2430.97	0.0085
2440.62	0.00939
2450.27	0.00928
2459.91	0.0078
2469.56	0.0059842
2479.21	0.004831
2488.85	0.00413
2498.5	0.00387
2508.15	0.00384
2517.79	0.00393
2527.44	0.00415
2537.09	0.00447
2546.73	0.00451
2556.38	0.00428
2566.03	0.00416
2575.67	0.00389
2585.32	0.00382
2594.96	0.00398
2604.61	0.00442
2614.26	0.005412
2623.9	0.00686
2633.55	0.00824
2643.2	0.00864
2652.84	0.00792
2662.49	0.006366
2672.14	0.004725
2681.78	0.00389
2691.43	0.00356
2701.08	0.00327
2710.72	0.003
2720.37	0.00317
2730.02	0.00316
2739.66	0.00314
2749.31	0.00281
2758.96	0.00289
2768.6	0.00304
2778.25	0.00327
2787.9	0.00299
2797.54	0.00276
2807.19	0.00296
2816.84	0.00303
2826.48	0.00355
2836.13	0.00387
2845.77	0.00436
2855.42	0.005144
2865.07	0.0066038
2874.71	0.00926
2884.36	0.01382
2894.01	0.01939
2903.65	0.02461
2913.3	0.02658
2922.95	0.0206
2932.59	0.01495
2942.24	0.01406
2951.89	0.01741
2961.53	0.02096
2971.18	0.02051
2980.83	0.01712
2990.47	0.0141
3000.12	0.01114
3009.77	0.00736
3019.41	0.004781
3029.06	0.00337
3038.71	0.00222
3048.35	0.00153
3058	0.00093
3067.64	0.00061
3077.29	0.00062
3086.94	0.00028
3096.58	0.00023
3106.23	0.00052
3115.88	0.00026
3125.52	0.00034
3135.17	0.00057
3144.82	0.00043
3154.46	0.00029
3164.11	0.00029
3173.76	0.00027
3183.4	0
3193.05	7e-05
3202.7	0.00017
3212.34	0.00029
3221.99	0.00036
3231.64	0.0005
3241.28	0.00055
3250.93	0.00064
3260.58	0.0009
3270.22	0.00068
3279.87	0.00088
3289.52	0.00103
3299.16	0.00083
3308.81	0.00082
3318.45	0.00129
3328.1	0.00131
3337.75	0.00149
3347.39	0.00159
3357.04	0.00174
3366.69	0.00211
3376.33	0.00226
3385.98	0.00209
3395.63	0.00202
3405.27	0.0025
3414.92	0.00272
3424.57	0.00278
3434.21	0.00288
3443.86	0.00302
3453.51	0.00293
3463.15	0.00318
3472.8	0.00338
3482.45	0.00348
3492.09	0.00355
3501.74	0.00325
3511.39	0.00336
3521.03	0.00346
3530.68	0.00349
3540.33	0.00341
3549.97	0.00357
3559.62	0.00396
3569.26	0.00409
3578.91	0.0042
3588.56	0.004849
3598.2	0.00565029
3607.85	0.00722
3617.5	0.0092
3627.14	0.01044
3636.79	0.01354
3646.44	0.026
3656.08	0.05458
3665.73	0.0509
3675.38	0.02188
3685.02	0.01156
3694.67	0.01081
3704.32	0.01097
3713.96	0.00885
3723.61	0.006633
3733.26	0.005347
3742.9	0.004711
3752.55	0.00426
3762.2	0.0043
3771.84	0.00414
3781.49	0.00406
3791.13	0.00421
3800.78	0.00414
3810.43	0.00409
3820.07	0.00424
3829.72	0.00441
3839.37	0.00451
3849.01	0.00444
3858.66	0.00447
3868.31	0.00437
3877.95	0.0043
3887.6	0.00415
3897.25	0.00406
3906.89	0.00377
3916.54	0.00392
3926.19	0.00395
3935.83	0.00391
3945.48	0.0039
3955.13	0.00384
3964.77	0.00375
3974.42	0.00364
3984.07	0.00358
3993.71	0.0037
