Infrared Spectrum: 1-DIETHYLAMINO-2-PROPANOL
Formula: C7 H17 N O
CAS: 4402-32-8
State: LIQUID
Boiling point: 60-62 C AT 25 mmHg
Class: COBLENTZ
Instrument: Not specified, most likely a prism, grating, or hybrid spectrometer.
Sampling: TRANSMISSION
Path length: 0.003 CM
Resolution: 4
Origin: WYANDOTTE CHEMICALS CORP., WYANDOTTE, MICHIGAN, USA
MICROMETERS	TRANSMITTANCE
2.034	0.974
2.07488	0.981
2.11575	0.994
2.15663	0.986
2.19751	0.967
2.23838	0.945
2.27926	0.969
2.32013	0.976
2.36101	0.976
2.40189	0.974
2.44276	0.971
2.48364	0.986
2.52452	0.993
2.56539	0.994
2.60627	0.994
2.64715	0.994
2.68802	0.994
2.7289	0.988
2.76978	0.927
2.81065	0.725
2.85153	0.489
2.8924	0.315
2.93328	0.255
2.97416	0.305
3.01503	0.423
3.05591	0.581
3.09679	0.662
3.13766	0.696
3.17854	0.723
3.21942	0.749
3.26029	0.747
3.30117	0.689
3.34205	0.291
3.38292	0.047
3.4238	0.084
3.46467	0.122
3.50555	0.177
3.54643	0.111
3.5873	0.132
3.62818	0.442
3.66906	0.589
3.70993	0.679
3.75081	0.757
3.79169	0.777
3.83256	0.862
3.87344	0.889
3.91432	0.903
3.95519	0.927
3.99607	0.947
4.03694	0.961
4.07782	0.966
4.1187	0.971
4.15957	0.976
4.20045	0.979
4.24133	0.984
4.2822	0.989
4.32308	0.998
4.36396	1
4.40483	0.996
4.44571	0.994
4.48659	0.993
4.52746	0.994
4.56834	0.996
4.60921	0.998
4.65009	1
4.69097	1
4.73184	1
4.77272	1
4.8136	1
4.85447	1
4.89535	1
4.93623	1
4.9771	1
5.01798	1
5.05886	1
5.09973	1
5.14061	1
5.18148	1
5.22236	1
5.26324	1
5.30411	1
5.34499	0.998
5.38587	0.998
5.42674	0.998
5.46762	0.998
5.5085	0.998
5.54937	0.998
5.59025	0.998
5.63113	0.998
5.672	0.998
5.71288	0.998
5.75375	0.996
5.79463	0.994
5.83551	0.989
5.87638	0.986
5.91726	0.981
5.95814	0.964
5.99901	0.95
6.03989	0.949
6.08077	0.947
6.12164	0.952
6.16252	0.954
6.2034	0.955
6.24427	0.955
6.28515	0.954
6.32602	0.952
6.3669	0.949
6.40778	0.938
6.44865	0.923
6.48953	0.922
6.53041	0.91
6.57128	0.898
6.61216	0.881
6.65304	0.83
6.69391	0.727
6.73479	0.501
6.77567	0.293
6.81654	0.244
6.85742	0.259
6.89829	0.338
6.93917	0.455
6.98005	0.537
7.02092	0.461
7.0618	0.271
7.10268	0.318
7.14355	0.391
7.18443	0.223
7.22531	0.142
7.26618	0.154
7.30706	0.279
7.34794	0.449
7.38881	0.415
7.42969	0.369
7.47056	0.291
7.51144	0.244
7.55232	0.372
7.59319	0.472
7.63407	0.444
7.67495	0.359
7.71582	0.252
7.7567	0.215
7.79758	0.24
7.83845	0.31
7.87933	0.31
7.92021	0.247
7.96108	0.359
8.00196	0.5
8.04283	0.611
8.08371	0.654
8.12459	0.677
8.16546	0.669
8.20634	0.6
8.24722	0.444
8.28809	0.198
8.32897	0.255
8.36985	0.369
8.41072	0.464
8.4516	0.598
8.49248	0.672
8.53335	0.732
8.57423	0.762
8.6151	0.752
8.65598	0.718
8.69686	0.627
8.73773	0.491
8.77861	0.367
8.81949	0.322
8.86036	0.308
8.90124	0.337
8.94212	0.377
8.98299	0.416
9.02387	0.386
9.06475	0.274
9.10562	0.152
9.1465	0.089
9.18737	0.101
9.22825	0.103
9.26913	0.089
9.31	0.066
9.35088	0.057
9.39176	0.062
9.43263	0.093
9.47351	0.14
9.51439	0.238
9.55526	0.283
9.59614	0.325
9.63702	0.44
9.67789	0.55
9.71877	0.6
9.75964	0.63
9.80052	0.655
9.8414	0.676
9.88227	0.664
9.92315	0.618
9.96403	0.525
10.0049	0.464
10.0458	0.491
10.0867	0.518
10.1275	0.493
10.1684	0.457
10.2093	0.537
10.2502	0.637
10.291	0.72
10.3319	0.761
10.3728	0.794
10.4137	0.808
10.4545	0.806
10.4954	0.783
10.5363	0.713
10.5772	0.613
10.618	0.555
10.6589	0.584
10.6998	0.61
10.7407	0.622
10.7816	0.606
10.8224	0.598
10.8633	0.689
10.9042	0.786
10.9451	0.818
10.9859	0.822
11.0268	0.815
11.0677	0.784
11.1086	0.788
11.1494	0.806
11.1903	0.827
11.2312	0.85
11.2721	0.876
11.3129	0.881
11.3538	0.884
11.3947	0.901
11.4356	0.901
11.4765	0.901
11.5173	0.901
11.5582	0.896
11.5991	0.884
11.64	0.862
11.6808	0.838
11.7217	0.791
11.7626	0.705
11.8035	0.576
11.8443	0.435
11.8852	0.35
11.9261	0.435
11.967	0.618
12.0078	0.735
12.0487	0.794
12.0896	0.816
12.1305	0.828
12.1714	0.835
12.2122	0.823
12.2531	0.801
12.294	0.777
12.3349	0.75
12.3757	0.742
12.4166	0.728
12.4575	0.718
12.4984	0.725
12.5392	0.732
12.5801	0.744
12.621	0.759
12.6619	0.755
12.7027	0.735
12.7436	0.686
12.7845	0.644
12.8254	0.62
12.8663	0.594
12.9071	0.562
12.948	0.533
12.9889	0.533
13.0298	0.535
13.0706	0.581
13.1115	0.638
13.1524	0.7
13.1933	0.75
13.2341	0.788
13.275	0.813
13.3159	0.82
13.3568	0.837
13.3976	0.85
13.4385	0.857
13.4794	0.864
13.5203	0.866
13.5612	0.869
13.602	0.872
13.6429	0.876
13.6838	0.876
13.7247	0.876
13.7655	0.876
13.8064	0.874
13.8473	0.874
13.8882	0.871
13.929	0.867
13.9699	0.866
14.0108	0.861
14.0517	0.857
14.0925	0.855
14.1334	0.857
14.1743	0.859
14.2152	0.859
14.2561	0.857
14.2969	0.857
14.3378	0.857
14.3787	0.854
14.4196	0.847
14.4604	0.842
14.5013	0.842
14.5422	0.84
14.5831	0.837
14.6239	0.83
14.6648	0.827
14.7057	0.823
14.7466	0.82
14.7874	0.816
14.8283	0.811
14.8692	0.808
14.9101	0.803
14.951	0.798
14.9918	0.789
15.0327	0.761
15.0736	0.767
15.1145	0.772
15.1553	0.779
15.1962	0.777
15.2371	0.766
15.278	0.754
15.3188	0.75
15.3597	0.745
15.4006	0.74
15.4415	0.737
15.4823	0.725
15.5232	0.718
15.5641	0.72
15.605	0.715
15.6459	0.705
15.6867	0.701
15.7276	0.696
15.7685	0.696
15.8094	0.686
15.8502	0.683
15.8911	0.677
15.932	0.677
15.9729	0.676
