Infrared Spectrum: 2-Methylbutyl isothiocyanate
Formula: C 6 H 11 N S
CAS: 4404-51-7
State: gas
Origin: EPA-IR VAPOR PHASE LIBRARY
1/CM	ABSORBANCE
549.8	0.00862
559.445	0.00772
569.09	0.00662
578.734	0.00591
588.379	0.0054
598.024	0.0053
607.669	0.00508
617.313	0.00403
626.958	0.00357
636.603	0.00312
646.248	0.0029
655.893	0.00346
665.537	0.00511
675.182	0.00722
684.827	0.0102
694.472	0.01311
704.116	0.0143
713.761	0.01362
723.406	0.01129
733.051	0.00711
742.695	0.00466
752.34	0.00493
761.985	0.00632
771.63	0.00633
781.275	0.00447
790.919	0.00366
800.564	0.00262
810.209	0.00246
819.854	0.00212
829.498	0.0017
839.143	0.0011803
848.788	0.001294
858.433	0.0013736
868.078	0.00152
877.722	0.0019
887.367	0.00298
897.012	0.00439
906.657	0.00538
916.301	0.00525
925.946	0.00532
935.591	0.00529
945.236	0.00393
954.88	0.00307
964.525	0.00418
974.17	0.00494
983.815	0.00417
993.46	0.00331
1003.1	0.00364
1012.75	0.00348
1022.39	0.00388
1032.04	0.00347
1041.68	0.00326
1051.33	0.00277
1060.97	0.00334
1070.62	0.00337
1080.26	0.00325
1089.91	0.00354
1099.55	0.00458
1109.2	0.00527
1118.84	0.00666
1128.49	0.00561
1138.13	0.00493
1147.78	0.00444
1157.42	0.00421
1167.07	0.00419
1176.71	0.00383
1186.36	0.00288
1196	0.00276
1205.64	0.00317
1215.29	0.00387
1224.93	0.00464
1234.58	0.00575
1244.22	0.00668
1253.87	0.00646
1263.51	0.00628
1273.16	0.00758
1282.8	0.01006
1292.45	0.01502
1302.09	0.0182
1311.74	0.01924
1321.38	0.02468
1331.03	0.03344
1340.67	0.04523
1350.32	0.04807
1359.96	0.03688
1369.61	0.02221
1379.25	0.02203
1388.9	0.02418
1398.54	0.01583
1408.18	0.00775
1417.83	0.00644
1427.47	0.00748
1437.12	0.01146
1446.76	0.02858
1456.41	0.04558
1466.05	0.03881
1475.7	0.02118
1485.34	0.01057
1494.99	0.00575
1504.63	0.0039
1514.28	0.00288
1523.92	0.00225
1533.57	0.00201
1543.21	0.00187
1552.86	0.00183
1562.5	0.0018
1572.15	0.0017
1581.79	0.00178
1591.44	0.0019
1601.08	0.00177
1610.73	0.00161
1620.37	0.00167
1630.01	0.0017
1639.66	0.00161
1649.3	0.00171
1658.95	0.0017
1668.59	0.00163
1678.24	0.00154
1687.88	0.00149
1697.53	0.00148
1707.17	0.00149
1716.82	0.00146
1726.46	0.0013831
1736.11	0.0013088
1745.75	0.0012597
1755.4	0.0012655
1765.04	0.0012893
1774.69	0.0014024
1784.33	0.00147
1793.98	0.0014553
1803.62	0.00155
1813.27	0.00154
1822.91	0.00167
1832.55	0.00177
1842.2	0.00199
1851.84	0.00224
1861.49	0.00263
1871.13	0.00322
1880.78	0.00391
1890.42	0.0049
1900.07	0.0061
1909.71	0.00758
1919.36	0.00957
1929	0.01222
1938.65	0.01555
1948.29	0.02001
1957.94	0.02575
1967.58	0.03334
1977.23	0.04382
1986.87	0.05797
1996.52	0.07686
2006.16	0.10331
2015.81	0.14194
2025.45	0.19846
2035.1	0.27418
2044.74	0.35692
2054.38	0.42344
2064.03	0.45223
2073.67	0.43485
2083.32	0.36964
2092.96	0.26774
2102.61	0.18099
2112.25	0.13744
2121.9	0.12453
2131.54	0.11974
2141.19	0.10714
2150.83	0.08943
2160.48	0.07609
2170.12	0.07212
2179.77	0.07283
2189.41	0.07146
2199.06	0.06373
2208.7	0.05133
2218.35	0.03875
2227.99	0.02961
2237.64	0.02377
2247.28	0.01937
2256.92	0.01523
2266.57	0.01169
2276.21	0.00896
2285.86	0.00706
2295.5	0.00567
2305.15	0.00469
2314.79	0.00394
2324.44	0.00332
2334.08	0.003
2343.73	0.00263
2353.37	0.0025
2363.02	0.00231
2372.66	0.00228
2382.31	0.00216
2391.95	0.00209
2401.6	0.00206
2411.24	0.0021
2420.89	0.00196
2430.53	0.00171
2440.18	0.0017
2449.82	0.00162
2459.47	0.00174
2469.11	0.00172
2478.75	0.00187
2488.4	0.00189
2498.04	0.00203
2507.69	0.00196
2517.33	0.00211
2526.98	0.00216
2536.62	0.00216
2546.27	0.00235
2555.91	0.00256
2565.56	0.00281
2575.2	0.00313
2584.85	0.00342
2594.49	0.00337
2604.14	0.00327
2613.78	0.003
2623.43	0.00271
2633.07	0.00261
2642.72	0.00256
2652.36	0.00268
2662.01	0.00286
2671.65	0.0029
2681.29	0.00288
2690.94	0.003
2700.58	0.0031
2710.23	0.00339
2719.87	0.00367
2729.52	0.00433
2739.16	0.00513
2748.81	0.00631
2758.45	0.00702
2768.1	0.00736
2777.74	0.00765
2787.39	0.00757
2797.03	0.00715
2806.68	0.00683
2816.32	0.00673
2825.97	0.00723
2835.61	0.00824
2845.26	0.00999
2854.9	0.01455
2864.55	0.02447
2874.19	0.04006
2883.84	0.05528
2893.48	0.05509
2903.12	0.04581
2912.77	0.0463
2922.41	0.05956
2932.06	0.08042
2941.7	0.09254
2951.35	0.08623
2960.99	0.08742
2970.64	0.10817
2980.28	0.09616
2989.93	0.04815
2999.57	0.01962
3009.22	0.01124
3018.86	0.00777
3028.51	0.00581
3038.15	0.00462
3047.8	0.00423
3057.44	0.00405
3067.09	0.00384
3076.73	0.00348
3086.38	0.00319
3096.02	0.00284
3105.67	0.00278
3115.31	0.00242
3124.95	0.00221
3134.6	0.00218
3144.24	0.00195
3153.89	0.00175
3163.53	0.00202
3173.18	0.00195
3182.82	0.0016
3192.47	0.0014352
3202.11	0.0011512
3211.76	0.0008481
3221.4	0.0007707
3231.05	0.0006612
3240.69	0.00055889
3250.34	0.000582
3259.98	0.0004312
3269.63	0.0003759
3279.27	0.0005365
3288.92	0.000352
3298.56	0.00031
3308.21	0.00051366
3317.85	0.000460688
3327.49	0.0004017
3337.14	0.0004442
3346.78	0.00048413
3356.43	0.000208
3366.07	0.0003907
3375.72	0.000295
3385.36	0.00029
3395.01	0.000287
3404.65	0.000304
3414.3	0.000268
3423.94	0.000343
3433.59	7.5e-05
3443.23	0.00026
3452.88	7.8e-05
3462.52	0.000322
3472.17	0.000155
3481.81	0.000284
3491.46	0.00026
3501.1	6.5e-05
3510.75	0.0004479
3520.39	0.000309
3530.04	0.000335
3539.68	0.000306
3549.32	0.000131
3558.97	0.000137
3568.61	0.000332
3578.26	0.000268
3587.9	0.000269
3597.55	0.000194
3607.19	0.000222
3616.84	0.000244
3626.48	0.000265
3636.13	0.000162
3645.77	0.000351
3655.42	0.000226
3665.06	0.000304
3674.71	0.000339
3684.35	0.0003819
3694	0.0004233
3703.64	7.3e-05
3713.29	0.000357
3722.93	0.0004028
3732.58	0.0004154
3742.22	0.000462975
3751.86	0.000343
3761.51	0.000614
3771.15	0.000381
3780.8	0.0004272
3790.44	0.000307
3800.09	0.000318
3809.73	0.000245
3819.38	0.00046997
3829.02	0.0004004
3838.67	0.0004103
3848.31	0.00055855
3857.96	0.0006232
3867.6	0.0004353
3877.25	0.0006065
3886.89	0.0008002
3896.54	0.0007974
3906.18	0.0006636
3915.83	0.000845
3925.47	0.0007608
3935.12	0.0007761
3944.76	0.0009536
3954.41	0.0011659
3964.05	0.0008299
3973.69	0.0013805
3983.34	0.0011094
3992.98	0.00149
