Infrared Spectrum: 5,6-DINITRO-ACENAPHTHENE
Formula: C12 H8 N2 O4
CAS: 4406-87-5
State: SOLID (1.0% IN KBr PELLET)
Class: COBLENTZ
Instrument: Not specified, most likely a prism, grating, or hybrid spectrometer.
Sampling: TRANSMISSION
Path length: 0.0355 CM THICK
Resolution: 4
Origin: ANDERSON PHYSICAL LABORATORY
1/CM	TRANSMITTANCE
668.329	0.871
676.745	0.867
685.162	0.849
693.578	0.825
701.995	0.849
710.411	0.853
718.828	0.829
727.244	0.78
735.661	0.766
744.077	0.558
752.494	0.727
760.91	0.8339
769.327	0.9
777.743	0.876
786.16	0.855
794.576	0.7621
802.993	0.6579
811.409	0.759
819.826	0.766
828.242	0.713
836.659	0.834
845.075	0.7871
853.492	0.5941
861.908	0.359
870.324	0.643
878.741	0.8318
887.157	0.9
895.574	0.89
903.99	0.93
912.407	0.938
920.823	0.927
929.24	0.896
937.656	0.888
946.073	0.89
954.489	0.884
962.906	0.881
971.322	0.891
979.739	0.881
988.155	0.865
996.572	0.861
1004.99	0.849
1013.4	0.826
1021.82	0.802
1030.24	0.808
1038.65	0.811
1047.07	0.799
1055.49	0.777
1063.9	0.688
1072.32	0.783
1080.74	0.816
1089.15	0.801
1097.57	0.784
1105.99	0.762
1114.4	0.76
1122.82	0.733
1131.24	0.673
1139.65	0.686
1148.07	0.706
1156.48	0.736
1164.9	0.719
1173.32	0.709
1181.73	0.716
1190.15	0.704
1198.57	0.673
1206.98	0.67
1215.4	0.629
1223.82	0.671
1232.23	0.674
1240.65	0.653
1249.07	0.625
1257.48	0.606
1265.9	0.578
1274.32	0.5191
1282.73	0.5039
1291.15	0.509
1299.56	0.441
1307.98	0.376
1316.4	0.271
1324.81	0.177
1333.23	0.082
1341.65	0.123
1350.06	0.3009
1358.48	0.254
1366.9	0.4568
1375.31	0.689
1383.73	0.709
1392.15	0.74
1400.56	0.725
1408.98	0.713
1417.4	0.701
1425.81	0.671
1434.23	0.5941
1442.64	0.5419
1451.06	0.68
1459.48	0.65
1467.89	0.609
1476.31	0.552
1484.73	0.465
1493.14	0.322
1501.56	0.313
1509.98	0.183
1518.39	0.128
1526.81	0.215
1535.23	0.365
1543.64	0.6489
1552.06	0.713
1560.48	0.746
1568.89	0.734
1577.31	0.649
1585.73	0.596
1594.14	0.609
1602.56	0.5299
1610.97	0.611
1619.39	0.507
1627.81	0.7509
1636.22	0.912
1644.64	0.923
1653.06	0.927
1661.47	0.927
1669.89	0.933
1678.31	0.935
1686.72	0.93
1695.14	0.92
1703.56	0.92
1711.97	0.912
1720.39	0.9
1728.81	0.897
1737.22	0.897
1745.64	0.914
1754.05	0.929
1762.47	0.933
1770.89	0.926
1779.3	0.918
1787.72	0.921
1796.14	0.933
1804.55	0.942
1812.97	0.941
1821.39	0.939
1829.8	0.941
1838.22	0.941
1846.64	0.941
1855.05	0.938
1863.47	0.927
1871.89	0.927
1880.3	0.92
1888.72	0.908
1897.13	0.89
1905.55	0.9
1913.97	0.912
1922.38	0.912
1930.8	0.912
1939.22	0.912
1947.63	0.909
1956.05	0.911
1964.47	0.915
1972.88	0.918
1981.3	0.917
1989.72	0.912
1998.13	0.912
2006.55	0.9082
2014.97	0.902
2023.38	0.9
2031.8	0.898
2040.21	0.8937
2048.63	0.887
2057.05	0.887
2065.46	0.8859
2073.88	0.8824
2082.3	0.8758
2090.71	0.873
2099.13	0.8719
2107.55	0.8702
2115.96	0.8679
2124.38	0.8647
2132.8	0.862
2141.21	0.8593
2149.63	0.8586
2158.05	0.85
2166.46	0.849
2174.88	0.8473
2183.3	0.843
2191.71	0.8422
2200.13	0.8387
2208.54	0.8352
2216.96	0.8316
2225.38	0.828
2233.79	0.8267
2242.21	0.825
2250.63	0.8228
2259.04	0.822
2267.46	0.822
2275.88	0.822
2284.29	0.8216
2292.71	0.8196
2301.13	0.8139
2309.54	0.8051
2317.96	0.8036
2326.38	0.802
2334.79	0.802
2343.21	0.801
2351.62	0.8005
2360.04	0.797
2368.46	0.795
2376.87	0.792
2385.29	0.7885
2393.71	0.785
2402.12	0.7815
2410.54	0.778
2418.96	0.778
2427.37	0.777
2435.79	0.777
2444.21	0.775
2452.62	0.7734
2461.04	0.7699
2469.46	0.766
2477.87	0.765
2486.29	0.765
2494.7	0.763
2503.12	0.7592
2511.54	0.7558
2519.95	0.7523
2528.37	0.75
2536.79	0.7483
2545.2	0.746
2553.62	0.746
2562.04	0.7438
2570.45	0.743
2578.87	0.7396
2587.29	0.7366
2595.7	0.7347
2604.12	0.7331
2612.54	0.731
2620.95	0.7306
2629.37	0.73
2637.78	0.7271
2646.2	0.7248
2654.62	0.7231
2663.03	0.7196
2671.45	0.718
2679.87	0.7158
2688.28	0.715
2696.7	0.715
2705.12	0.7131
2713.53	0.707
2721.95	0.704
2730.37	0.703
2738.78	0.701
2747.2	0.698
2755.62	0.696
2764.03	0.6925
2772.45	0.683
2780.86	0.6692
2789.28	0.666
2797.7	0.665
2806.11	0.667
2814.53	0.668
2822.95	0.67
2831.36	0.6726
2839.78	0.674
2848.2	0.6737
2856.61	0.6702
2865.03	0.6604
2873.45	0.6528
2881.86	0.6497
2890.28	0.6478
2898.7	0.647
2907.11	0.6472
2915.53	0.65
2923.95	0.6512
2932.36	0.652
2940.78	0.652
2949.19	0.652
2957.61	0.6494
2966.03	0.6461
2974.44	0.6439
2982.86	0.6422
2991.28	0.6387
2999.69	0.6343
3008.11	0.6305
3016.53	0.6247
3024.94	0.6203
3033.36	0.6181
3041.78	0.6166
3050.19	0.6146
3058.61	0.6126
3067.03	0.6139
3075.44	0.6154
3083.86	0.6175
3092.27	0.6207
3100.69	0.625
3109.11	0.626
3117.52	0.626
3125.94	0.6235
3134.36	0.621
3142.77	0.618
3151.19	0.617
3159.61	0.6119
3168.02	0.608
3176.44	0.6057
3184.86	0.603
3193.27	0.602
3201.69	0.602
3210.11	0.6014
3218.52	0.5994
3226.94	0.5962
3235.35	0.5898
3243.77	0.5837
3252.19	0.5743
3260.6	0.5679
3269.02	0.566
3277.44	0.564
3285.85	0.564
3294.27	0.5613
3302.69	0.5537
3311.1	0.5486
3319.52	0.5468
3327.94	0.5394
3336.35	0.5296
3344.77	0.5232
3353.19	0.5191
3361.6	0.5132
3370.02	0.5087
3378.43	0.506
3386.85	0.504
3395.27	0.503
3403.68	0.5032
3412.1	0.5049
3420.52	0.506
3428.93	0.5089
3437.35	0.5104
3445.77	0.515
3454.18	0.516
3462.6	0.518
3471.02	0.5224
3479.43	0.5264
3487.85	0.53
3496.27	0.531
3504.68	0.5377
3513.1	0.545
3521.52	0.5475
3529.93	0.551
3538.35	0.5525
3546.76	0.5566
3555.18	0.5653
3563.6	0.567
3572.01	0.5676
3580.43	0.5711
3588.85	0.573
3597.26	0.5731
3605.68	0.575
3614.1	0.575
3622.51	0.573
3630.93	0.573
3639.35	0.575
3647.76	0.575
3656.18	0.5733
3664.6	0.5699
3673.01	0.569
3681.43	0.567
3689.84	0.567
3698.26	0.566
3706.68	0.5636
3715.09	0.5617
3723.51	0.5612
3731.93	0.5609
3740.34	0.5592
3748.76	0.558
3757.18	0.557
3765.59	0.5548
3774.01	0.554
3782.43	0.554
3790.84	0.552
3799.26	0.552
3807.68	0.5516
3816.09	0.551
3824.51	0.5491
3832.92	0.549
3841.34	0.548
3849.76	0.548
3858.17	0.546
3866.59	0.5458
3875.01	0.543
3883.42	0.542
3891.84	0.54
3900.26	0.5397
3908.67	0.537
3917.09	0.536
3925.51	0.536
3933.92	0.534
3942.34	0.5335
3950.76	0.5314
3959.17	0.531
3967.59	0.53
3976	0.53
