Infrared Spectrum: Acetic acid, phosphono-
Formula: C2 H5 O5 P
CAS: 4408-78-0
State: SOLID (0.6 mg / 650 mg KBr DISC)
Class: COBLENTZ III
Instrument: PERKIN-ELMER 21 (GRATING)
Instrument parameters: FILTER CHANGE ABOUT 1090 CM^-^1
Resolution: 2
Origin: SOUTHERN RESEARCH INSTITUTE
1/CM	TRANSMITTANCE
604	0.604
613	0.6032
622	0.6015
631	0.5986
640	0.5924
649	0.5798
658	0.5626
667	0.5458
676	0.5267
685	0.4962
694	0.4711
703	0.4603
712	0.4633
721	0.4744
730	0.4643
739	0.4421
748	0.4215
757	0.402
766	0.3789
775	0.3505
784	0.3179
793	0.2868
802	0.2565
811	0.2437
820	0.2406
829	0.2475
838	0.237
847	0.2228
856	0.212
865	0.2096
874	0.2038
883	0.174
892	0.1286
901	0.0903
910	0.0544
919	0.0332
928	0.0185
937	0.0179
946	0.0194
955	0.0203
964	0.0198
973	0.0172
982	0.0139
991	0.0134
1000	0.014
1009	0.0154
1018	0.0195
1027	0.0257
1036	0.0401
1045	0.0662
1054	0.0717
1063	0.0757
1072	0.0768
1081	0.0341
1090	0.0415
1099	0.0351
1108	0.0264
1117	0.0178
1126	0.0146
1135	0.0152
1144	0.0158
1153	0.0159
1162	0.0171
1171	0.0184
1180	0.0194
1189	0.0204
1198	0.0218
1207	0.0236
1216	0.026
1225	0.028
1234	0.0306
1243	0.0355
1252	0.0417
1261	0.0546
1270	0.0694
1279	0.0744
1288	0.0806
1297	0.0949
1306	0.1112
1315	0.137
1324	0.1683
1333	0.2139
1342	0.2317
1351	0.2286
1360	0.2162
1369	0.1987
1378	0.1905
1387	0.1904
1396	0.19
1405	0.1904
1414	0.1925
1423	0.2033
1432	0.213
1441	0.2522
1450	0.292
1459	0.3274
1468	0.3555
1477	0.3628
1486	0.3626
1495	0.3565
1504	0.3522
1513	0.3365
1522	0.3267
1531	0.3171
1540	0.3089
1549	0.3028
1558	0.2961
1567	0.2879
1576	0.2757
1585	0.259
1594	0.2448
1603	0.2268
1612	0.1976
1621	0.1704
1630	0.148
1639	0.1275
1648	0.1013
1657	0.0777
1666	0.0595
1675	0.0403
1684	0.0233
1693	0.016
1702	0.013
1711	0.0112
1720	0.0117
1729	0.0396
1738	0.0683
1747	0.1197
1756	0.1856
1765	0.2421
1774	0.2746
1783	0.2941
1792	0.3043
1801	0.312
1810	0.3218
1819	0.3323
1828	0.3382
1837	0.343
1846	0.3482
1855	0.3527
1864	0.3532
1873	0.365
1882	0.3703
1891	0.3718
1900	0.3721
1909	0.3727
1918	0.3728
1927	0.3732
1936	0.3737
1945	0.3738
1954	0.3736
1963	0.3733
1972	0.3723
1981	0.371
1990	0.3686
1999	0.366
2008	0.3625
2017	0.3611
2026	0.3577
2035	0.3552
2044	0.3522
2053	0.3461
2062	0.3397
2071	0.3335
2080	0.3277
2089	0.3219
2098	0.3163
2107	0.3108
2116	0.3053
2125	0.2995
2134	0.2936
2143	0.2877
2152	0.2818
2161	0.2763
2170	0.2727
2179	0.2691
2188	0.2651
2197	0.2609
2206	0.2581
2215	0.2556
2224	0.2529
2233	0.2492
2242	0.2457
2251	0.2429
2260	0.2423
2269	0.2425
2278	0.2417
2287	0.2403
2296	0.2419
2305	0.2438
2314	0.2437
2323	0.2412
2332	0.2344
2341	0.2288
2350	0.224
2359	0.2212
2368	0.2206
2377	0.2208
2386	0.2227
2395	0.2229
2404	0.2195
2413	0.2167
2422	0.2152
2431	0.2119
2440	0.2085
2449	0.2028
2458	0.1972
2467	0.1907
2476	0.1874
2485	0.1843
2494	0.181
2503	0.1699
2512	0.1649
2521	0.1599
2530	0.1558
2539	0.152
2548	0.1489
2557	0.146
2566	0.1432
2575	0.1393
2584	0.1363
2593	0.1368
2602	0.1335
2611	0.1288
2620	0.1249
2629	0.1222
2638	0.1206
2647	0.1197
2656	0.1196
2665	0.119
2674	0.1158
2683	0.1124
2692	0.1107
2701	0.1082
2710	0.1069
2719	0.1064
2728	0.1065
2737	0.1069
2746	0.1074
2755	0.1061
2764	0.1042
2773	0.1025
2782	0.1017
2791	0.0917
2800	0.0847
2809	0.081
2818	0.0783
2827	0.0767
2836	0.0744
2845	0.0723
2854	0.0709
2863	0.0694
2872	0.0677
2881	0.0603
2890	0.0526
2899	0.0461
2908	0.0457
2917	0.0467
2926	0.0481
2935	0.0497
2944	0.0506
2953	0.0521
2962	0.0539
2971	0.0557
2980	0.0575
2989	0.0594
2998	0.0612
3007	0.0632
3016	0.0663
3025	0.0696
3034	0.0716
3043	0.0725
3052	0.0719
3061	0.0714
3070	0.0719
3079	0.0729
3088	0.0816
3097	0.0838
3106	0.087
3115	0.0886
3124	0.0907
3133	0.0939
3142	0.0951
3151	0.0955
3160	0.0984
3169	0.1035
3178	0.109
3187	0.1135
3196	0.1181
3205	0.1206
3214	0.1274
3223	0.13
3232	0.1359
3241	0.1434
3250	0.1501
3259	0.1574
3268	0.1628
3277	0.1687
3286	0.1744
3295	0.18
3304	0.1877
3313	0.1922
3322	0.1955
3331	0.2025
3340	0.2043
3349	0.2067
3358	0.214
3367	0.2221
3376	0.2231
3385	0.2261
3394	0.2297
3403	0.2376
3412	0.2464
3421	0.2524
3430	0.2692
3439	0.2791
3448	0.2888
3457	0.3009
3466	0.3087
3475	0.323
3484	0.345
3493	0.3602
3502	0.3739
3511	0.3874
3520	0.3997
3529	0.4115
3538	0.4239
3547	0.4398
3556	0.4629
3565	0.4854
3574	0.5031
3583	0.5207
3592	0.5389
3601	0.5541
3610	0.5737
3619	0.5847
3628	0.5935
3637	0.6101
3646	0.6285
3655	0.6402
3664	0.6518
3673	0.6579
3682	0.6617
3691	0.6641
3700	0.6649
3709	0.6673
3718	0.6712
3727	0.6706
3736	0.6703
3745	0.6702
3754	0.6702
3763	0.6705
3772	0.6715
3781	0.6736
3790	0.6764
3799	0.6796
3808	0.6803
3817	0.68
3826	0.6798
3835	0.6799
3844	0.6797
3853	0.6748
3862	0.669
3871	0.6651
3880	0.6634
3889	0.6634
3898	0.6637
