Infrared Spectrum: Mesitylacetic acid
Formula: C 11 H 14 O 2
CAS: 4408-60-0
State: gas
Origin: EPA-IR VAPOR PHASE LIBRARY
1/CM	ABSORBANCE
549.8	0.024586
559.445	0.020076
569.09	0.015916
578.734	0.017146
588.379	0.020076
598.024	0.028476
607.669	0.032216
617.313	0.028646
626.958	0.027976
636.603	0.029086
646.248	0.023646
655.893	0.020386
665.537	0.020236
675.182	0.020116
684.827	0.017836
694.472	0.013196
704.116	0.009506
713.761	0.006846
723.406	0.004346
733.051	0.002836
742.695	0.002436
752.34	0.002086
761.985	0.002706
771.63	0.002716
781.275	0.002756
790.919	0.003166
800.564	0.004846
810.209	0.006566
819.854	0.005846
829.498	0.007056
839.143	0.015336
848.788	0.020746
858.433	0.010716
868.078	0.005616
877.722	0.004746
887.367	0.004356
897.012	0.003566
906.657	0.003286
916.301	0.003026
925.946	0.003386
935.591	0.003266
945.236	0.003596
954.88	0.004606
964.525	0.005176
974.17	0.004816
983.815	0.005286
993.46	0.005736
1003.1	0.007166
1012.75	0.009306
1022.39	0.010066
1032.04	0.010456
1041.68	0.010176
1051.33	0.011056
1060.97	0.012346
1070.62	0.015906
1080.26	0.024066
1089.91	0.041816
1099.55	0.084626
1109.2	0.156066
1118.84	0.139986
1128.49	0.078526
1138.13	0.058496
1147.78	0.040326
1157.42	0.026986
1167.07	0.021746
1176.71	0.018656
1186.36	0.016546
1196	0.016856
1205.64	0.018386
1215.29	0.017326
1224.93	0.013956
1234.58	0.011816
1244.22	0.010416
1253.87	0.011096
1263.51	0.010266
1273.16	0.010866
1282.8	0.012836
1292.45	0.015796
1302.09	0.016996
1311.74	0.014336
1321.38	0.014086
1331.03	0.017576
1340.67	0.021866
1350.32	0.025646
1359.96	0.025606
1369.61	0.017696
1379.25	0.013506
1388.9	0.011746
1398.54	0.008286
1408.18	0.008466
1417.83	0.011556
1427.47	0.015076
1437.12	0.017266
1446.76	0.020086
1456.41	0.020436
1466.05	0.019316
1475.7	0.021496
1485.34	0.021706
1494.99	0.014896
1504.63	0.010496
1514.28	0.009206
1523.92	0.008346
1533.57	0.007676
1543.21	0.007266
1552.86	0.007716
1562.5	0.008896
1572.15	0.009756
1581.79	0.009506
1591.44	0.008896
1601.08	0.012026
1610.73	0.018286
1620.37	0.011586
1630.01	0.003826
1639.66	0.002666
1649.3	0.002376
1658.95	0.002416
1668.59	0.002956
1678.24	0.003496
1687.88	0.004416
1697.53	0.006256
1707.17	0.009226
1716.82	0.013886
1726.46	0.019736
1736.11	0.028996
1745.75	0.047006
1755.4	0.074006
1765.04	0.121866
1774.69	0.165046
1784.33	0.135356
1793.98	0.080746
1803.62	0.043566
1813.27	0.022166
1822.91	0.011776
1832.55	0.007486
1842.2	0.005296
1851.84	0.003646
1861.49	0.002696
1871.13	0.002376
1880.78	0.002116
1890.42	0.001986
1900.07	0.001846
1909.71	0.002006
1919.36	0.001986
1929	0.001726
1938.65	0.001696
1948.29	0.001406
1957.94	0.001576
1967.58	0.0012729
1977.23	0.001506
1986.87	0.001456
1996.52	0.0012525
2006.16	0.0010724
2015.81	0.0008743
2025.45	0.0005677
2035.1	0.0006523
2044.74	0.0005143
2054.38	0.0007893
2064.03	0.0006832
2073.67	0.0006141
2083.32	0.0008471
2092.96	0.0007955
2102.61	0.0008119
2112.25	0.0007884
2121.9	0.0008492
2131.54	0.0007929
2141.19	0.0008676
2150.83	0.0009075
2160.48	0.0008795
2170.12	0.0008684
2179.77	0.0010004
2189.41	0.0010286
2199.06	0.0010793
2208.7	0.0011961
2218.35	0.0012069
2227.99	0.0011366
2237.64	0.0010666
2247.28	0.0008485
2256.92	0.0009344
2266.57	0.0010392
2276.21	0.0010108
2285.86	0.0007734
2295.5	0.0007401
2305.15	0.0007954
2314.79	0.0008162
2324.44	0.0009528
2334.08	0.0010463
2343.73	0.0010111
2353.37	0.0009354
2363.02	0.0010291
2372.66	0.0010645
2382.31	0.0010632
2391.95	0.0010946
2401.6	0.0011238
2411.24	0.0012184
2420.89	0.0011302
2430.53	0.000992
2440.18	0.0010052
2449.82	0.0011011
2459.47	0.001326
2469.11	0.00107
2478.75	0.0010313
2488.4	0.0008577
2498.04	0.0008362
2507.69	0.0008735
2517.33	0.0007734
2526.98	0.0007322
2536.62	0.0008215
2546.27	0.0006555
2555.91	0.0005808
2565.56	0.0008621
2575.2	0.0007169
2584.85	0.0006862
2594.49	0.0005139
2604.14	0.0006258
2613.78	0.0008075
2623.43	0.0007566
2633.07	0.0008653
2642.72	0.0007651
2652.36	0.0008886
2662.01	0.0006674
2671.65	0.0010708
2681.29	0.0009933
2690.94	0.0007832
2700.58	0.0009901
2710.23	0.0011497
2719.87	0.001286
2729.52	0.002086
2739.16	0.002996
2748.81	0.002986
2758.45	0.001966
2768.1	0.001586
2777.74	0.001596
2787.39	0.001516
2797.03	0.002206
2806.68	0.002576
2816.32	0.003156
2825.97	0.003766
2835.61	0.005096
2845.26	0.007436
2854.9	0.011776
2864.55	0.019436
2874.19	0.025776
2883.84	0.024056
2893.48	0.021266
2903.12	0.022716
2912.77	0.029466
2922.41	0.043586
2932.06	0.052236
2941.7	0.043356
2951.35	0.036076
2960.99	0.034736
2970.64	0.032356
2980.28	0.030936
2989.93	0.028056
2999.57	0.027766
3009.22	0.030936
3018.86	0.032396
3028.51	0.026256
3038.15	0.019836
3047.8	0.015736
3057.44	0.011746
3067.09	0.008816
3076.73	0.006906
3086.38	0.005506
3096.02	0.004406
3105.67	0.003836
3115.31	0.002966
3124.95	0.002276
3134.6	0.001636
3144.24	0.001736
3153.89	0.001316
3163.53	0.0011129
3173.18	0.0009527
3182.82	0.000739
3192.47	0.0008336
3202.11	0.0008447
3211.76	0.0006798
3221.4	0.0005393
3231.05	0.0007158
3240.69	0.0006574
3250.34	0.0006355
3259.98	0.00032935
3269.63	0.00031186
3279.27	0.00035885
3288.92	0.00035871
3298.56	0.0007236
3308.21	0.0005196
3317.85	0.0005165
3327.49	0.00035758
3337.14	0.0003874
3346.78	0.0004794
3356.43	0.0004956
3366.07	0.0004202
3375.72	0.000202
3385.36	0.0003907
3395.01	0.0004765
3404.65	0.00029337
3414.3	0.0004465
3423.94	0.0004867
3433.59	0.0007304
3443.23	0.0005673
3452.88	0.0004674
3462.52	0.0006991
3472.17	0.000538
3481.81	0.0008646
3491.46	0.001156
3501.1	0.001446
3510.75	0.002356
3520.39	0.003226
3530.04	0.004916
3539.68	0.005906
3549.32	0.006986
3558.97	0.017826
3568.61	0.063986
3578.26	0.060296
3587.9	0.013046
3597.55	0.002896
3607.19	0.002056
3616.84	0.001586
3626.48	0.001556
3636.13	0.0012607
3645.77	0.0006032
3655.42	0.0004665
3665.06	0.00030775
3674.71	0.0002493
3684.35	0.000436
3694	0.0004939
3703.64	0.00031442
3713.29	0.0002288
3722.93	0.000107
3732.58	0.00034356
3742.22	7e-05
3751.86	0.000279307
3761.51	0.0004406
3771.15	3.9e-05
3780.8	0.0002193
3790.44	0.0003916
3800.09	7.9e-05
3809.73	0.00014
3819.38	0.0002205
3829.02	0.0004114
3838.67	0.00034732
3848.31	0.00031081
3857.96	0.0004018
3867.6	0.0002499
3877.25	0.0006066
3886.89	0.0003806
3896.54	0.0004629
3906.18	0.0005366
3915.83	0.00035899
3925.47	0.0007276
3935.12	0.000614
3944.76	0.0003886
3954.41	0.0005663
3964.05	0.0004382
3973.69	0.0004913
3983.34	0.0006929
3992.98	0.0007069
