Infrared Spectrum: 2,4-DIFLUORO-6-NITROACETANILIDE
Formula: C8 H6 F2 N2 O3
CAS: 441-30-5
State: SOLID (1.0 mg / 650 mg KBr DISC)
Class: COBLENTZ III
Instrument: PERKIN-ELMER 21 (GRATING)
Instrument parameters: FILTER CHANGE ABOUT 1085 CM^-^1
Sampling: TRANSMISSION
Resolution: 4
Origin: SOUTHERN RESEARCH INSTITUTE
1/CM	TRANSMITTANCE
601.236	0.668
609.851	0.6739
618.467	0.7144
627.082	0.8033
635.698	0.7807
644.313	0.8206
652.928	0.855
661.544	0.8716
670.159	0.8511
678.774	0.8023
687.39	0.7708
696.005	0.7112
704.621	0.7653
713.236	0.7514
721.851	0.7022
730.467	0.555
739.082	0.6552
747.697	0.5638
756.313	0.5898
764.928	0.6764
773.544	0.5813
782.159	0.6654
790.774	0.7264
799.39	0.7239
808.005	0.7003
816.62	0.6393
825.236	0.6501
833.851	0.7308
842.467	0.6323
851.082	0.4358
859.697	0.6086
868.313	0.68
876.928	0.6425
885.544	0.5918
894.159	0.5309
902.774	0.6462
911.39	0.725
920.005	0.736
928.62	0.7301
937.236	0.721
945.851	0.7073
954.467	0.6881
963.082	0.6723
971.697	0.6376
980.313	0.647
988.928	0.6147
997.543	0.5476
1006.16	0.4899
1014.77	0.555
1023.39	0.6568
1032	0.6458
1040.62	0.6396
1049.24	0.6369
1057.85	0.6049
1066.47	0.5195
1075.08	0.4513
1083.7	0.6762
1092.31	0.6938
1100.93	0.6732
1109.54	0.6136
1118.16	0.602
1126.77	0.6173
1135.39	0.5657
1144	0.5025
1152.62	0.3163
1161.24	0.6242
1169.85	0.6465
1178.47	0.6179
1187.08	0.5962
1195.7	0.5447
1204.31	0.3903
1212.93	0.5604
1221.54	0.547
1230.16	0.516
1238.77	0.4824
1247.39	0.4141
1256	0.3182
1264.62	0.2606
1273.24	0.4701
1281.85	0.4629
1290.47	0.4032
1299.08	0.2875
1307.7	0.5147
1316.31	0.4881
1324.93	0.3842
1333.54	0.2712
1342.16	0.2213
1350.77	0.1737
1359.39	0.3576
1368	0.3474
1376.62	0.3155
1385.24	0.3587
1393.85	0.4486
1402.47	0.4876
1411.08	0.4525
1419.7	0.3915
1428.31	0.4628
1436.93	0.5134
1445.54	0.5044
1454.16	0.4682
1462.77	0.4493
1471.39	0.4226
1480	0.3754
1488.62	0.272
1497.24	0.2611
1505.85	0.2684
1514.47	0.2938
1523.08	0.229
1531.7	0.1469
1540.31	0.0921
1548.93	0.1066
1557.54	0.2124
1566.16	0.3515
1574.77	0.449
1583.39	0.4917
1592	0.4847
1600.62	0.3903
1609.24	0.2917
1617.85	0.3935
1626.47	0.3879
1635.08	0.4134
1643.7	0.4161
1652.31	0.376
1660.93	0.2827
1669.54	0.1957
1678.16	0.2833
1686.77	0.408
1695.39	0.4789
1704	0.5617
1712.62	0.611
1721.24	0.6502
1729.85	0.6741
1738.47	0.688
1747.08	0.6972
1755.7	0.7129
1764.31	0.7213
1772.93	0.7302
1781.54	0.7332
1790.16	0.7414
1798.77	0.7553
1807.39	0.7601
1816	0.7651
1824.62	0.7702
1833.24	0.776
1841.85	0.78
1850.47	0.78
1859.08	0.7801
1867.7	0.776
1876.31	0.774
1884.93	0.775
1893.54	0.7758
1902.16	0.7808
1910.77	0.782
1919.39	0.7778
1928	0.781
1936.62	0.7817
1945.24	0.782
1953.85	0.7814
1962.47	0.776
1971.08	0.775
1979.7	0.775
1988.31	0.776
1996.93	0.776
2005.54	0.775
2014.16	0.774
2022.77	0.773
2031.39	0.771
2040	0.7695
2048.62	0.775
2057.24	0.775
2065.85	0.773
2074.47	0.77
2083.08	0.77
2091.7	0.772
2100.31	0.7705
2108.93	0.7685
2117.54	0.7645
2126.16	0.76
2134.77	0.759
2143.39	0.755
2152	0.755
2160.62	0.758
2169.23	0.757
2177.85	0.757
2186.47	0.756
2195.08	0.755
2203.7	0.753
2212.31	0.7465
2220.93	0.744
2229.54	0.744
2238.16	0.743
2246.77	0.7435
2255.39	0.744
2264	0.743
2272.62	0.739
2281.23	0.738
2289.85	0.742
2298.47	0.74
2307.08	0.7335
2315.7	0.7225
2324.31	0.7195
2332.93	0.715
2341.54	0.716
2350.16	0.716
2358.77	0.717
2367.39	0.721
2376	0.7255
2384.62	0.735
2393.23	0.7245
2401.85	0.72
2410.47	0.717
2419.08	0.719
2427.7	0.719
2436.31	0.717
2444.93	0.717
2453.54	0.717
2462.16	0.715
2470.77	0.714
2479.39	0.712
2488	0.71
2496.62	0.707
2505.23	0.705
2513.85	0.702
2522.47	0.7
2531.08	0.698
2539.7	0.701
2548.31	0.6975
2556.93	0.689
2565.54	0.69
2574.16	0.693
2582.77	0.696
2591.39	0.695
2600	0.6935
2608.62	0.679
2617.23	0.679
2625.85	0.6835
2634.47	0.6775
2643.08	0.676
2651.7	0.6735
2660.31	0.669
2668.93	0.6655
2677.54	0.666
2686.16	0.666
2694.77	0.663
2703.39	0.658
2712	0.653
2720.62	0.646
2729.23	0.6415
2737.85	0.637
2746.47	0.627
2755.08	0.6185
2763.7	0.615
2772.31	0.61
2780.93	0.605
2789.54	0.601
2798.16	0.6135
2806.77	0.618
2815.39	0.6125
2824	0.605
2832.62	0.594
2841.23	0.5855
2849.85	0.5755
2858.47	0.571
2867.08	0.5685
2875.7	0.5645
2884.31	0.56
2892.93	0.5575
2901.54	0.5415
2910.16	0.5175
2918.77	0.5055
2927.39	0.4935
2936	0.4815
2944.62	0.476
2953.23	0.4685
2961.85	0.452
2970.47	0.43
2979.08	0.41
2987.7	0.3985
2996.31	0.391
3004.93	0.397
3013.54	0.4035
3022.16	0.418
3030.77	0.42
3039.39	0.4285
3048	0.429
3056.62	0.4255
3065.23	0.423
3073.85	0.42
3082.47	0.429
3091.08	0.4335
3099.7	0.436
3108.31	0.43
3116.93	0.4175
3125.54	0.418
3134.16	0.416
3142.77	0.4015
3151.39	0.3765
3160	0.3585
3168.62	0.3545
3177.23	0.358
3185.85	0.3665
3194.47	0.371
3203.08	0.362
3211.7	0.3565
3220.31	0.345
3228.93	0.3545
3237.54	0.3775
3246.16	0.4005
3254.77	0.424
3263.39	0.4565
3272	0.472
3280.62	0.4825
3289.23	0.4955
3297.85	0.5045
3306.47	0.5145
3315.08	0.5255
3323.7	0.535
3332.31	0.5425
3340.93	0.547
3349.54	0.547
3358.16	0.546
3366.77	0.543
3375.39	0.539
3384	0.5375
3392.62	0.5335
3401.23	0.53
3409.85	0.527
3418.46	0.526
3427.08	0.5275
3435.7	0.532
3444.31	0.538
3452.93	0.541
3461.54	0.538
3470.16	0.5425
3478.77	0.5465
3487.39	0.549
3496	0.554
3504.62	0.56
3513.23	0.562
3521.85	0.5685
3530.46	0.574
3539.08	0.58
3547.7	0.5865
3556.31	0.594
3564.93	0.599
3573.54	0.603
3582.16	0.6125
3590.77	0.621
3599.39	0.6245
3608	0.6295
3616.62	0.6305
3625.23	0.635
3633.85	0.64
3642.46	0.641
3651.08	0.641
3659.7	0.642
3668.31	0.643
3676.93	0.6445
3685.54	0.6465
3694.16	0.646
3702.77	0.642
3711.39	0.6465
3720	0.647
3728.62	0.647
3737.23	0.647
3745.85	0.646
3754.46	0.6405
3763.08	0.639
3771.7	0.645
3780.31	0.6495
3788.93	0.65
3797.54	0.6495
3806.16	0.6465
3814.77	0.645
3823.39	0.645
3832	0.6455
3840.62	0.645
3849.23	0.642
3857.85	0.64
3866.46	0.636
3875.08	0.638
3883.7	0.643
3892.31	0.645
3900.93	0.637
