Infrared Spectrum: PHENYLETHYLTHIOL
Formula: C8 H10 S
CAS: 4410-99-5
State: SOLUTION (10% IN CCl4 FOR 3800-1330 AND 10% IN CS2 FOR 1330-400 CM^-^1)
Class: COBLENTZ
Instrument: Not specified, most likely a prism, grating, or hybrid spectrometer.
Sampling: TRANSMISSION
Path length: 0.010 AND 0.010 CM
Resolution: 4
Origin: DOW CHEMICAL COMPANY
1/CM	TRANSMITTANCE
451.575	0.942
461.024	0.942
470.473	0.937
479.922	0.9
489.37	0.6511
498.819	0.913
508.268	1.058
517.717	1.073
527.166	1.082
536.615	1.069
546.063	0.889
555.512	0.953
564.961	0.9516
574.41	1.0009
583.859	1.088
593.308	1.099
602.756	1.093
612.205	1.092
621.654	1.077
631.103	1.06
640.552	1.022
650.001	0.8322
659.449	0.804
668.898	0.965
678.347	0.99
687.796	0.854
697.245	0.047
706.694	0.3529
716.142	0.593
725.591	0.537
735.04	0.511
744.489	0.4881
753.938	0.4559
763.387	0.7559
772.835	0.996
782.284	1.036
791.733	1.036
801.182	1.014
810.631	0.996
820.08	1
829.528	1.023
838.977	0.996
848.426	0.915
857.875	0.852
867.324	0.882
876.773	0.918
886.221	0.987
895.67	1.016
905.119	0.963
914.568	0.99
924.017	0.998
933.466	0.998
942.914	1.018
952.363	1.02
961.812	0.996
971.261	0.988
980.71	1.001
990.159	1.012
999.607	0.966
1009.06	0.942
1018.51	0.97
1027.95	0.8782
1037.4	0.9387
1046.85	1.022
1056.3	1.023
1065.75	0.998
1075.2	0.871
1084.65	1.011
1094.1	1.04
1103.54	1.038
1112.99	1.047
1122.44	1.031
1131.89	1.02
1141.34	0.953
1150.79	0.961
1160.24	0.974
1169.69	0.992
1179.14	0.942
1188.58	0.959
1198.03	0.907
1207.48	0.972
1216.93	0.755
1226.38	0.974
1235.83	0.854
1245.28	0.987
1254.73	0.988
1264.17	0.7822
1273.62	0.891
1283.07	0.81
1292.52	0.941
1301.97	0.961
1311.42	0.9201
1320.87	0.898
1330.32	0.931
1339.77	0.976
1349.21	1
1358.66	1.007
1368.11	1.018
1377.56	1.011
1387.01	0.998
1396.46	1.001
1405.91	0.994
1415.36	0.974
1424.8	0.8911
1434.25	0.782
1443.7	0.819
1453.15	0.5002
1462.6	0.8928
1472.05	0.924
1481.5	0.93
1490.95	0.81
1500.4	0.361
1509.84	0.793
1519.29	0.751
1528.74	0.707
1538.19	0.602
1547.64	0.515
1557.09	0.5579
1566.54	0.646
1575.99	0.696
1585.44	0.675
1594.88	0.758
1604.33	0.661
1613.78	0.953
1623.23	0.99
1632.68	1.007
1642.13	1.023
1651.58	1.016
1661.03	1.009
1670.47	1.011
1679.92	1.014
1689.37	1.012
1698.82	1.016
1708.27	1.016
1717.72	1.014
1727.17	1.011
1736.62	0.998
1746.07	0.987
1755.51	1.005
1764.96	1.012
1774.41	1.007
1783.86	1.007
1793.31	0.977
1802.76	0.957
1812.21	0.992
1821.66	0.994
1831.1	1.007
1840.55	1.007
1850	1
1859.45	0.981
1868.9	0.957
1878.35	0.983
1887.8	0.983
1897.25	1.005
1906.7	1.011
1916.14	1.012
1925.59	1.009
1935.04	0.983
1944.49	0.924
1953.94	0.987
1963.39	0.974
1972.84	1.009
1982.29	1.005
1991.73	1.005
2001.18	0.983
2010.63	0.985
2020.08	0.9889
2029.53	0.996
2038.98	0.996
2048.43	0.996
2057.88	0.996
2067.33	0.994
2076.77	0.998
2086.22	1
2095.67	1
2105.12	1
2114.57	1
2124.02	0.998
2133.47	0.998
2142.92	0.998
2152.37	0.998
2161.81	0.9985
2171.26	0.998
2180.71	0.998
2190.16	0.998
2199.61	1
2209.06	0.998
2218.51	0.998
2227.96	0.9977
2237.4	0.9937
2246.85	0.988
2256.3	0.983
2265.75	0.979
2275.2	0.977
2284.65	0.976
2294.1	0.974
2303.55	0.974
2313	0.974
2322.44	0.974
2331.89	0.976
2341.34	0.977
2350.79	0.983
2360.24	0.988
2369.69	0.9919
2379.14	0.9939
2388.59	0.994
2398.03	0.996
2407.48	0.998
2416.93	0.998
2426.38	0.998
2435.83	1
2445.28	1
2454.73	1
2464.18	0.998
2473.63	0.998
2483.07	0.998
2492.52	0.998
2501.97	0.996
2511.42	0.994
2520.87	0.994
2530.32	0.992
2539.77	0.988
2549.22	0.987
2558.66	0.9796
2568.11	0.9727
2577.56	0.9693
2587.01	0.9766
2596.46	0.9843
2605.91	0.985
2615.36	0.9858
2624.81	0.983
2634.26	0.985
2643.7	0.985
2653.15	0.988
2662.6	0.9891
2672.05	0.992
2681.5	0.992
2690.95	0.992
2700.4	0.994
2709.85	0.994
2719.3	0.994
2728.74	0.992
2738.19	0.99
2747.64	0.9876
2757.09	0.983
2766.54	0.981
2775.99	0.979
2785.44	0.979
2794.89	0.9783
2804.33	0.976
2813.78	0.9694
2823.23	0.9521
2832.68	0.9064
2842.13	0.8467
2851.58	0.8085
2861.03	0.8411
2870.48	0.8957
2879.93	0.8926
2889.37	0.8688
2898.82	0.8192
2908.27	0.7568
2917.72	0.7371
2927.17	0.6808
2936.62	0.5613
2946.07	0.6382
2955.52	0.742
2964.96	0.6737
2974.41	0.75
2983.86	0.8911
2993.31	0.9059
3002.76	0.8591
3012.21	0.8279
3021.66	0.7395
3031.11	0.3906
3040.56	0.5736
3050	0.8258
3059.45	0.7994
3068.9	0.587
3078.35	0.7873
3087.8	0.7333
3097.25	0.7934
3106.7	0.8883
3116.15	0.9266
3125.59	0.9769
3135.04	0.9827
3144.49	0.985
3153.94	0.985
3163.39	0.985
3172.84	0.9878
3182.29	0.992
3191.74	0.992
3201.19	0.994
3210.63	0.996
3220.08	0.9974
3229.53	0.996
3238.98	0.996
3248.43	0.998
3257.88	1
3267.33	1
3276.78	1
3286.23	1
3295.67	0.998
3305.12	0.998
3314.57	1
3324.02	1
3333.47	0.998
3342.92	0.998
3352.37	0.998
3361.82	0.998
3371.26	0.998
3380.71	0.998
3390.16	0.998
3399.61	0.998
3409.06	0.9971
3418.51	0.9952
3427.96	0.996
3437.41	0.992
3446.86	0.992
3456.3	0.992
3465.75	0.992
3475.2	0.992
3484.65	0.992
3494.1	0.9934
3503.55	0.9914
3513	0.988
3522.45	0.987
3531.89	0.9873
3541.34	0.987
3550.79	0.987
3560.24	0.987
3569.69	0.985
3579.14	0.983
3588.59	0.985
3598.04	0.983
3607.49	0.981
3616.93	0.979
3626.38	0.979
3635.83	0.977
3645.28	0.9758
3654.73	0.976
3664.18	0.979
3673.63	0.9769
3683.08	0.977
3692.52	0.977
3701.97	0.974
3711.42	0.976
3720.87	0.977
3730.32	0.979
3739.77	0.979
3749.22	0.979
3758.67	0.979
3768.12	0.979
