Infrared Spectrum: 3-Methyl-2-furoic acid
Formula: C 6 H 6 O 3
CAS: 4412-96-8
State: gas
Origin: EPA-IR VAPOR PHASE LIBRARY
1/CM	ABSORBANCE
549.8	0.020115
559.445	0.015645
569.09	0.014655
578.734	0.013845
588.379	0.015875
598.024	0.019145
607.669	0.027935
617.313	0.018675
626.958	0.024725
636.603	0.042805
646.248	0.048655
655.893	0.034225
665.537	0.017605
675.182	0.008645
684.827	0.011955
694.472	0.042055
704.116	0.065225
713.761	0.061685
723.406	0.023695
733.051	0.013835
742.695	0.017295
752.34	0.030735
761.985	0.043275
771.63	0.068395
781.275	0.050625
790.919	0.030475
800.564	0.010985
810.209	0.006035
819.854	0.004635
829.498	0.004525
839.143	0.004425
848.788	0.004755
858.433	0.005725
868.078	0.009185
877.722	0.026465
887.367	0.039155
897.012	0.038725
906.657	0.012305
916.301	0.004405
925.946	0.003835
935.591	0.003515
945.236	0.003345
954.88	0.003555
964.525	0.004005
974.17	0.004395
983.815	0.004355
993.46	0.004885
1003.1	0.006955
1012.75	0.010345
1022.39	0.016895
1032.04	0.030515
1041.68	0.041515
1051.33	0.051365
1060.97	0.090895
1070.62	0.189675
1080.26	0.240925
1089.91	0.189435
1099.55	0.080435
1109.2	0.038805
1118.84	0.040625
1128.49	0.038195
1138.13	0.030585
1147.78	0.028585
1157.42	0.049135
1167.07	0.085175
1176.71	0.101435
1186.36	0.089375
1196	0.062475
1205.64	0.056745
1215.29	0.043545
1224.93	0.026825
1234.58	0.018535
1244.22	0.018465
1253.87	0.022135
1263.51	0.026805
1273.16	0.033455
1282.8	0.039685
1292.45	0.043185
1302.09	0.046535
1311.74	0.060165
1321.38	0.077195
1331.03	0.072125
1340.67	0.050425
1350.32	0.035985
1359.96	0.031635
1369.61	0.027445
1379.25	0.032215
1388.9	0.040975
1398.54	0.052015
1408.18	0.070485
1417.83	0.097835
1427.47	0.091275
1437.12	0.051765
1446.76	0.015395
1456.41	0.010785
1466.05	0.012135
1475.7	0.021165
1485.34	0.037955
1494.99	0.042025
1504.63	0.032385
1514.28	0.016915
1523.92	0.011745
1533.57	0.009775
1543.21	0.009665
1552.86	0.009745
1562.5	0.011615
1572.15	0.016965
1581.79	0.030615
1591.44	0.049595
1601.08	0.060915
1610.73	0.052385
1620.37	0.032125
1630.01	0.013635
1639.66	0.008085
1649.3	0.006075
1658.95	0.005485
1668.59	0.006625
1678.24	0.009075
1687.88	0.012615
1697.53	0.017905
1707.17	0.022855
1716.82	0.029405
1726.46	0.056995
1736.11	0.166715
1745.75	0.262755
1755.4	0.321815
1765.04	0.255095
1774.69	0.223255
1784.33	0.122975
1793.98	0.040355
1803.62	0.016945
1813.27	0.014675
1822.91	0.011895
1832.55	0.010135
1842.2	0.006555
1851.84	0.004815
1861.49	0.003495
1871.13	0.002905
1880.78	0.002525
1890.42	0.002555
1900.07	0.002955
1909.71	0.003135
1919.36	0.003095
1929	0.002995
1938.65	0.002655
1948.29	0.002165
1957.94	0.001975
1967.58	0.001685
1977.23	0.001405
1986.87	0.001315
1996.52	0.001325
2006.16	0.001325
2015.81	0.001365
2025.45	0.001335
2035.1	0.001375
2044.74	0.001525
2054.38	0.001585
2064.03	0.001235
2073.67	0.0011448
2083.32	0.0011728
2092.96	0.001425
2102.61	0.001565
2112.25	0.001765
2121.9	0.001995
2131.54	0.002135
2141.19	0.002275
2150.83	0.002355
2160.48	0.002455
2170.12	0.002155
2179.77	0.001935
2189.41	0.001605
2199.06	0.001365
2208.7	0.001405
2218.35	0.0011326
2227.99	0.0011468
2237.64	0.0012438
2247.28	0.001365
2256.92	0.001365
2266.57	0.001345
2276.21	0.0012602
2285.86	0.001635
2295.5	0.001825
2305.15	0.002515
2314.79	0.003125
2324.44	0.003425
2334.08	0.003575
2343.73	0.003415
2353.37	0.003685
2363.02	0.004605
2372.66	0.004215
2382.31	0.002785
2391.95	0.002115
2401.6	0.001935
2411.24	0.001815
2420.89	0.001785
2430.53	0.001615
2440.18	0.001625
2449.82	0.001535
2459.47	0.001685
2469.11	0.001465
2478.75	0.001375
2488.4	0.001365
2498.04	0.001355
2507.69	0.0012055
2517.33	0.001285
2526.98	0.0012087
2536.62	0.001265
2546.27	0.001405
2555.91	0.001325
2565.56	0.001295
2575.2	0.0011372
2584.85	0.0009657
2594.49	0.0010717
2604.14	0.001212
2613.78	0.001345
2623.43	0.001405
2633.07	0.001575
2642.72	0.001435
2652.36	0.001445
2662.01	0.001345
2671.65	0.001325
2681.29	0.001415
2690.94	0.001335
2700.58	0.001395
2710.23	0.0012323
2719.87	0.0009643
2729.52	0.0009896
2739.16	0.001365
2748.81	0.001455
2758.45	0.001745
2768.1	0.001565
2777.74	0.001415
2787.39	0.001505
2797.03	0.002045
2806.68	0.002175
2816.32	0.002345
2825.97	0.002345
2835.61	0.002935
2845.26	0.003185
2854.9	0.003845
2864.55	0.005655
2874.19	0.007405
2883.84	0.008015
2893.48	0.007425
2903.12	0.007095
2912.77	0.008155
2922.41	0.012465
2932.06	0.019035
2941.7	0.020185
2951.35	0.016745
2960.99	0.010755
2970.64	0.007115
2980.28	0.005305
2989.93	0.004085
2999.57	0.003965
3009.22	0.004495
3018.86	0.005535
3028.51	0.006045
3038.15	0.005885
3047.8	0.005365
3057.44	0.003955
3067.09	0.003175
3076.73	0.002745
3086.38	0.002315
3096.02	0.002025
3105.67	0.002485
3115.31	0.002905
3124.95	0.002785
3134.6	0.002075
3144.24	0.001475
3153.89	0.001795
3163.53	0.001605
3173.18	0.001855
3182.82	0.001505
3192.47	0.0012331
3202.11	0.0009817
3211.76	0.0009201
3221.4	0.0006725
3231.05	0.0009261
3240.69	0.0008864
3250.34	0.0011235
3259.98	0.0006635
3269.63	0.0006698
3279.27	0.00033655
3288.92	0.0007042
3298.56	0.0005931
3308.21	0.0005097
3317.85	0.0006657
3327.49	0.0006609
3337.14	0.0005929
3346.78	0.0010666
3356.43	0.0010833
3366.07	0.0009149
3375.72	0.0006645
3385.36	0.0008272
3395.01	0.0006691
3404.65	0.0007116
3414.3	0.0008394
3423.94	0.0009139
3433.59	0.0008496
3443.23	0.0009826
3452.88	0.0010502
3462.52	0.001585
3472.17	0.002045
3481.81	0.002445
3491.46	0.002055
3501.1	0.001635
3510.75	0.002025
3520.39	0.002535
3530.04	0.002485
3539.68	0.002345
3549.32	0.003505
3558.97	0.010175
3568.61	0.051945
3578.26	0.107755
3587.9	0.106705
3597.55	0.046335
3607.19	0.010655
3616.84	0.003605
3626.48	0.001915
3636.13	0.0008594
3645.77	0.0009867
3655.42	0.0007407
3665.06	0.0009581
3674.71	0.0006176
3684.35	0.0005749
3694	0.0007053
3703.64	0.00025571
3713.29	0.0007205
3722.93	0.0005508
3732.58	0.0009781
3742.22	0.0008335
3751.86	0.0008439
3761.51	0.0005779
3771.15	0.0007284
3780.8	0.0006214
3790.44	0.0003841
3800.09	0.00033043
3809.73	0.000208
3819.38	0.00029284
3829.02	0.00033342
3838.67	0.0007275
3848.31	0.00032601
3857.96	2.3e-05
3867.6	0.0003666
3877.25	0.00030748
3886.89	0.0005792
3896.54	0.0004499
3906.18	0.0004169
3915.83	0.0002615
3925.47	0.000251
3935.12	0.0004331
3944.76	0.0003974
3954.41	0.0002238
3964.05	0.0004052
3973.69	0.0006405
3983.34	0.0006102
3992.98	0.000631
