Infrared Spectrum: Purine, 2-amino-6-methylamino-
Formula: C6 H8 N6
CAS: 4421-04-9
State: SOLID (0.7 mg / 650 mg KBr DISC)
Class: COBLENTZ III
Instrument: PERKIN-ELMER 21 (GRATING)
Instrument parameters: FILTER CHANGE ABOUT 1075 CM^-^1
Sampling: TRANSMISSION
Resolution: 2
Origin: SOUTHERN RESEARCH INSTITUTE
1/CM	TRANSMITTANCE
623	0.4253
632.027	0.5694
641.053	0.5685
650.08	0.5656
659.107	0.5633
668.133	0.5595
677.16	0.542
686.187	0.531
695.213	0.5205
704.24	0.5073
713.267	0.481
722.293	0.482
731.32	0.4621
740.346	0.4568
749.373	0.5024
758.4	0.4923
767.426	0.4662
776.453	0.3431
785.48	0.4116
794.506	0.5481
803.533	0.5251
812.56	0.455
821.586	0.4339
830.613	0.3937
839.64	0.4663
848.666	0.4955
857.693	0.556
866.72	0.5943
875.746	0.6145
884.773	0.6167
893.8	0.6054
902.826	0.5799
911.853	0.5479
920.879	0.3717
929.906	0.3242
938.933	0.5817
947.959	0.6762
956.986	0.6736
966.013	0.659
975.039	0.6368
984.066	0.6125
993.093	0.586
1002.12	0.5678
1011.15	0.5989
1020.17	0.5778
1029.2	0.5681
1038.23	0.5749
1047.25	0.5634
1056.28	0.5477
1065.31	0.5243
1074.33	0.4264
1083.36	0.3968
1092.39	0.4188
1101.41	0.4192
1110.44	0.3909
1119.47	0.3746
1128.49	0.3928
1137.52	0.4785
1146.55	0.4553
1155.57	0.4307
1164.6	0.4321
1173.63	0.4852
1182.65	0.5309
1191.68	0.5212
1200.71	0.5042
1209.73	0.4223
1218.76	0.35
1227.79	0.523
1236.81	0.5291
1245.84	0.5096
1254.87	0.4729
1263.89	0.417
1272.92	0.3418
1281.95	0.4419
1290.97	0.4779
1300	0.4579
1309.03	0.4289
1318.05	0.375
1327.08	0.3172
1336.11	0.2464
1345.13	0.2407
1354.16	0.2849
1363.19	0.2451
1372.21	0.0811
1381.24	0.1113
1390.27	0.2575
1399.29	0.2965
1408.32	0.32
1417.35	0.2649
1426.37	0.2047
1435.4	0.1743
1444.43	0.1749
1453.45	0.1429
1462.48	0.1431
1471.51	0.1465
1480.53	0.2299
1489.56	0.2584
1498.59	0.3507
1507.61	0.4128
1516.64	0.3697
1525.67	0.3057
1534.69	0.2751
1543.72	0.2672
1552.75	0.2409
1561.77	0.1957
1570.8	0.1318
1579.82	0.046
1588.85	0.0159
1597.88	0.0161
1606.9	0.0214
1615.93	0.027
1624.96	0.0338
1633.98	0.0645
1643.01	0.1777
1652.04	0.2702
1661.06	0.3606
1670.09	0.4496
1679.12	0.4821
1688.14	0.6196
1697.17	0.6808
1706.2	0.7154
1715.22	0.7509
1724.25	0.7779
1733.28	0.7974
1742.3	0.8112
1751.33	0.8165
1760.36	0.831
1769.38	0.8368
1778.41	0.8376
1787.44	0.8376
1796.46	0.8373
1805.49	0.8365
1814.52	0.8354
1823.54	0.8347
1832.57	0.834
1841.6	0.8331
1850.62	0.8323
1859.65	0.8317
1868.68	0.8308
1877.7	0.829
1886.73	0.8262
1895.76	0.8213
1904.78	0.8147
1913.81	0.8079
1922.84	0.8021
1931.86	0.7988
1940.89	0.7971
1949.92	0.7958
1958.94	0.7939
1967.97	0.7906
1977	0.7863
1986.02	0.7819
1995.05	0.7779
2004.08	0.7731
2013.1	0.7678
2022.13	0.7626
2031.16	0.7575
2040.18	0.7522
2049.21	0.7468
2058.24	0.7409
2067.26	0.7354
2076.29	0.7304
2085.32	0.7257
2094.34	0.7231
2103.37	0.7239
2112.4	0.7252
2121.42	0.7162
2130.45	0.7049
2139.48	0.6984
2148.5	0.6926
2157.53	0.6868
2166.56	0.6825
2175.58	0.6776
2184.61	0.6739
2193.64	0.673
2202.66	0.6696
2211.69	0.6608
2220.72	0.66
2229.74	0.6599
2238.77	0.6572
2247.8	0.6515
2256.82	0.6463
2265.85	0.6427
2274.88	0.636
2283.9	0.627
2292.93	0.617
2301.96	0.6094
2310.98	0.6019
2320.01	0.5965
2329.04	0.5921
2338.06	0.5881
2347.09	0.5845
2356.12	0.5797
2365.14	0.576
2374.17	0.5725
2383.2	0.567
2392.22	0.5616
2401.25	0.556
2410.28	0.5493
2419.3	0.5423
2428.33	0.5344
2437.36	0.526
2446.38	0.5154
2455.41	0.5042
2464.44	0.4934
2473.46	0.4827
2482.49	0.4737
2491.52	0.4654
2500.54	0.4578
2509.57	0.4512
2518.6	0.446
2527.62	0.4436
2536.65	0.4426
2545.68	0.4418
2554.7	0.4399
2563.73	0.4317
2572.76	0.4241
2581.78	0.4192
2590.81	0.4149
2599.84	0.4112
2608.86	0.4073
2617.89	0.4026
2626.92	0.397
2635.94	0.3868
2644.97	0.3764
2654	0.365
2663.02	0.3534
2672.05	0.3426
2681.08	0.334
2690.1	0.3269
2699.13	0.3217
2708.16	0.3176
2717.18	0.3137
2726.21	0.3096
2735.24	0.3054
2744.26	0.3007
2753.29	0.2961
2762.32	0.2955
2771.34	0.2992
2780.37	0.303
2789.4	0.3082
2798.42	0.3137
2807.45	0.3161
2816.48	0.3157
2825.5	0.3131
2834.53	0.3025
2843.56	0.2963
2852.58	0.2904
2861.61	0.285
2870.64	0.2799
2879.66	0.2758
2888.69	0.2721
2897.72	0.2675
2906.74	0.2631
2915.77	0.2591
2924.8	0.2553
2933.82	0.2526
2942.85	0.2499
2951.88	0.2473
2960.9	0.2452
2969.93	0.2434
2978.96	0.2418
2987.98	0.2356
2997.01	0.223
3006.04	0.2107
3015.06	0.1988
3024.09	0.1913
3033.12	0.1884
3042.14	0.1879
3051.17	0.1883
3060.2	0.1892
3069.22	0.1901
3078.25	0.1892
3087.28	0.1838
3096.3	0.1812
3105.33	0.1802
3114.36	0.1801
3123.38	0.1792
3132.41	0.1758
3141.44	0.1721
3150.46	0.1686
3159.49	0.1683
3168.52	0.1738
3177.54	0.1812
3186.57	0.1877
3195.6	0.1891
3204.62	0.1867
3213.65	0.1842
3222.68	0.1819
3231.7	0.1801
3240.73	0.1839
3249.76	0.1907
3258.78	0.1908
3267.81	0.1889
3276.84	0.1873
3285.86	0.1892
3294.89	0.2058
3303.92	0.2377
3312.94	0.2691
3321.97	0.3021
3331	0.326
3340.02	0.3417
3349.05	0.3463
3358.08	0.3495
3367.1	0.3491
3376.13	0.3447
3385.16	0.3394
3394.18	0.3376
3403.21	0.332
3412.24	0.3244
3421.26	0.3281
3430.29	0.343
3439.32	0.3994
3448.34	0.4577
3457.37	0.5175
3466.4	0.5434
3475.42	0.5558
3484.45	0.566
3493.47	0.5778
3502.5	0.5892
3511.53	0.6006
3520.55	0.6165
3529.58	0.6286
3538.61	0.6341
3547.63	0.6432
3556.66	0.6539
3565.69	0.6682
3574.71	0.6834
3583.74	0.6923
3592.77	0.6958
3601.79	0.6967
3610.82	0.6969
3619.85	0.6971
3628.87	0.6973
3637.9	0.6972
3646.93	0.6963
3655.95	0.6947
3664.98	0.6929
3674.01	0.6908
3683.03	0.6887
3692.06	0.6858
3701.09	0.6828
3710.11	0.68
3719.14	0.6773
3728.17	0.6746
3737.19	0.6725
3746.22	0.6704
3755.25	0.6683
3764.27	0.6658
3773.3	0.6634
3782.33	0.6609
3791.35	0.6583
3800.38	0.6558
3809.41	0.6533
3818.43	0.6505
3827.46	0.646
3836.49	0.6412
3845.51	0.6365
3854.54	0.6333
3863.57	0.6316
3872.59	0.6311
3881.62	0.6305
3890.65	0.6279
3899.67	0.6264
3908.7	0.6256
3917.73	0.6256
3926.75	0.6261
3935.78	0.6259
3944.81	0.6249
3953.83	0.6226
3962.86	0.6192
3971.89	0.6171
3980.91	0.6163
3989.94	0.6163
3998.97	0.6168
4007.99	0.6174
