Infrared Spectrum: Trimesoyl chloride
Formula: C 9 H 3 Cl 3 O 3
CAS: 4422-95-1
State: gas
Origin: EPA-IR VAPOR PHASE LIBRARY
1/CM	ABSORBANCE
549.8	0.007
559.445	0.00628
569.09	0.00328
578.734	0.00365
588.379	0.00549
598.024	0.00716
607.669	0.00702
617.313	0.00914
626.958	0.00845
636.603	0.00715
646.248	0.0105
655.893	0.01364
665.537	0.01795
675.182	0.03601
684.827	0.07904
694.472	0.16487
704.116	0.30937
713.761	0.1262
723.406	0.07413
733.051	0.1008
742.695	0.0779
752.34	0.02412
761.985	0.01291
771.63	0.01001
781.275	0.00812
790.919	0.00761
800.564	0.0072
810.209	0.01024
819.854	0.01403
829.498	0.01978
839.143	0.03307
848.788	0.03368
858.433	0.02044
868.078	0.01679
877.722	0.01342
887.367	0.01071
897.012	0.00954
906.657	0.01186
916.301	0.01938
925.946	0.01908
935.591	0.01155
945.236	0.01218
954.88	0.01579
964.525	0.02205
974.17	0.04197
983.815	0.07839
993.46	0.09628
1003.1	0.14501
1012.75	0.20004
1022.39	0.31732
1032.04	0.08885
1041.68	0.03008
1051.33	0.0201
1060.97	0.01481
1070.62	0.01379
1080.26	0.01577
1089.91	0.02
1099.55	0.02282
1109.2	0.03151
1118.84	0.05707
1128.49	0.0922
1138.13	0.16629
1147.78	0.24544
1157.42	0.18862
1167.07	0.07028
1176.71	0.03235
1186.36	0.01893
1196	0.01414
1205.64	0.01079
1215.29	0.00776
1224.93	0.0066
1234.58	0.00707
1244.22	0.00943
1253.87	0.01148
1263.51	0.01327
1273.16	0.01897
1282.8	0.01787
1292.45	0.00908
1302.09	0.00817
1311.74	0.00825
1321.38	0.00576
1331.03	0.00428
1340.67	0.00329
1350.32	0.00274
1359.96	0.00256
1369.61	0.00254
1379.25	0.00259
1388.9	0.00297
1398.54	0.00427
1408.18	0.00667
1417.83	0.01006
1427.47	0.01913
1437.12	0.01822
1446.76	0.00614
1456.41	0.00266
1466.05	0.00176
1475.7	0.00149
1485.34	0.00163
1494.99	0.00174
1504.63	0.00159
1514.28	0.00127
1523.92	0.00138
1533.57	0.00155
1543.21	0.00192
1552.86	0.00196
1562.5	0.00229
1572.15	0.00432
1581.79	0.01217
1591.44	0.01967
1601.08	0.00796
1610.73	0.00361
1620.37	0.0026
1630.01	0.00244
1639.66	0.00226
1649.3	0.00263
1658.95	0.00329
1668.59	0.00498
1678.24	0.00739
1687.88	0.00886
1697.53	0.00896
1707.17	0.00964
1716.82	0.01186
1726.46	0.01542
1736.11	0.02527
1745.75	0.04694
1755.4	0.06969
1765.04	0.11461
1774.69	0.3856
1784.33	0.41212
1793.98	0.15943
1803.62	0.07243
1813.27	0.07349
1822.91	0.0398
1832.55	0.02156
1842.2	0.01542
1851.84	0.01358
1861.49	0.01317
1871.13	0.01199
1880.78	0.00964
1890.42	0.00675
1900.07	0.00426
1909.71	0.00271
1919.36	0.00198
1929	0.00158
1938.65	0.00141
1948.29	0.00129
1957.94	0.00158
1967.58	0.00162
1977.23	0.00161
1986.87	0.00158
1996.52	0.00175
2006.16	0.00173
2015.81	0.00119
2025.45	0.0009288
2035.1	0.0009797
2044.74	0.0008703
2054.38	0.0006262
2064.03	0.0005274
2073.67	0.0004846
2083.32	0.0004323
2092.96	0.0004776
2102.61	0.0005312
2112.25	0.0005921
2121.9	0.0006808
2131.54	0.0008081
2141.19	0.0008315
2150.83	0.0009054
2160.48	0.0008692
2170.12	0.0007889
2179.77	0.000699
2189.41	0.0004522
2199.06	0.000571
2208.7	0.000658
2218.35	0.0006992
2227.99	0.0008047
2237.64	0.0008792
2247.28	0.0009934
2256.92	0.00101
2266.57	0.0009699
2276.21	0.00103
2285.86	0.0009468
2295.5	0.0008053
2305.15	0.0006414
2314.79	0.000446
2324.44	0.0003382
2334.08	0.0002998
2343.73	0.000293
2353.37	0.000348
2363.02	0.0003542
2372.66	0.0003809
2382.31	0.0005179
2391.95	0.0007499
2401.6	0.00106
2411.24	0.00133
2420.89	0.00126
2430.53	0.00101
2440.18	0.0007928
2449.82	0.0006498
2459.47	0.0004688
2469.11	0.0004145
2478.75	0.0002661
2488.4	0.0002941
2498.04	0.0002586
2507.69	0.0001457
2517.33	0.0002362
2526.98	0.0001585
2536.62	0.0001981
2546.27	0.0002395
2555.91	0.0002416
2565.56	0.0004677
2575.2	0.0005377
2584.85	0.000719
2594.49	0.0006557
2604.14	0.0004749
2613.78	0.0004478
2623.43	0.0003243
2633.07	0.0004331
2642.72	0.0003684
2652.36	0.0003123
2662.01	0.0001955
2671.65	0.0004547
2681.29	0.000393
2690.94	0.0004301
2700.58	0.0006332
2710.23	0.0005797
2719.87	0.0006201
2729.52	0.0008679
2739.16	0.00109
2748.81	0.000951
2758.45	0.0007094
2768.1	0.0006285
2777.74	0.0005241
2787.39	0.0004432
2797.03	0.0004882
2806.68	0.0003885
2816.32	0.0003065
2825.97	0.0005792
2835.61	0.0007445
2845.26	0.00125
2854.9	0.00165
2864.55	0.00163
2874.19	0.00115
2883.84	0.0006339
2893.48	0.0004979
2903.12	0.0003968
2912.77	0.0003436
2922.41	0.0006086
2932.06	0.0004714
2941.7	0.0004414
2951.35	0.0003107
2960.99	0.0004262
2970.64	0.0002626
2980.28	0.0003703
2989.93	0.000383
2999.57	0.0003994
3009.22	0.0004942
3018.86	0.0005422
3028.51	0.0005693
3038.15	0.0006254
3047.8	0.0006549
3057.44	0.0008231
3067.09	0.00155
3076.73	0.00495
3086.38	0.01085
3096.02	0.00955
3105.67	0.00317
3115.31	0.0007246
3124.95	0.0003224
3134.6	0.0005054
3144.24	0.0004037
3153.89	0.0001641
3163.53	0.0003352
3173.18	0.0004288
3182.82	0.0005065
3192.47	0.0005583
3202.11	0.0006003
3211.76	0.000296
3221.4	0.0004075
3231.05	0.0002148
3240.69	0.0002187
3250.34	0.000182
3259.98	0.0003162
3269.63	0.0003856
3279.27	0.0002783
3288.92	0.0002982
3298.56	0.0003414
3308.21	0.0003412
3317.85	0.0002896
3327.49	0.0002928
3337.14	0.0003366
3346.78	0.0002956
3356.43	0.000491
3366.07	0.0006736
3375.72	0.0004846
3385.36	0.0004586
3395.01	0.0004481
3404.65	0.0004499
3414.3	0.0001926
3423.94	0.0005845
3433.59	0.0005864
3443.23	0.0005355
3452.88	0.0006071
3462.52	0.0008118
3472.17	0.0009782
3481.81	0.00108
3491.46	0.00132
3501.1	0.00174
3510.75	0.00228
3520.39	0.00378
3530.04	0.00668
3539.68	0.00642
3549.32	0.00374
3558.97	0.0027
3568.61	0.00233
3578.26	0.00176
3587.9	0.00125
3597.55	0.0009392
3607.19	0.0008343
3616.84	0.0007847
3626.48	0.0008059
3636.13	0.0006651
3645.77	0.0005722
3655.42	0.0005041
3665.06	0.0004884
3674.71	0.000274
3684.35	0.000448
3694	0.000393
3703.64	0.0004128
3713.29	0.0004725
3722.93	0.0003525
3732.58	0.0003204
3742.22	0.0002324
3751.86	0.0003027
3761.51	0.0001945
3771.15	0.000377
3780.8	0.0004885
3790.44	0.0001743
3800.09	0.0003825
3809.73	0.0003826
3819.38	0.0002292
3829.02	0.000349
3838.67	3.659e-05
3848.31	0.0002027
3857.96	0.000106
3867.6	0.0003358
3877.25	0.0002489
3886.89	0.000235
3896.54	0.0004591
3906.18	0.000409
3915.83	0.0002674
3925.47	0.0003058
3935.12	0.0003992
3944.76	0.0003652
3954.41	0.0002112
3964.05	0.0003536
3973.69	0.0001988
3983.34	0.000369
3992.98	0.0002631
