Infrared Spectrum: 2-Ethylcyclohexanone
Formula: C 8 H 14 O
CAS: 4423-94-3
State: gas
Instrument: HP-GC/MS/IRD
Origin: NIST Mass Spectrometry Data Center
1/CM	ABSORBANCE
550	0.0002277
562	0.0004323
574	0.0003729
586	0.0001122
598	5.28e-05
610	6.6e-05
622	2.31e-05
634	9.9e-06
646	3.96e-05
658	6.27e-05
670	0.000132
682	0.0001419
694	0.0003267
706	0.0005676
718	0.000528
730	0.0004389
742	0.0002673
754	0.0001947
766	0.0003729
778	0.0005247
790	0.0003861
802	0.0003003
814	0.0004983
826	0.0011187
838	0.0012045
850	0.0008877
862	0.0008745
874	0.0005907
886	0.0003828
898	0.0004059
910	0.0005379
922	0.0005841
934	0.0004884
946	0.0003069
958	0.0003432
970	0.0004488
982	0.0006336
994	0.0009108
1006	0.0011055
1018	0.0009933
1030	0.000858
1042	0.00099
1054	0.0014817
1066	0.0014058
1078	0.0011517
1090	0.0011319
1102	0.0016071
1114	0.0030162
1126	0.0036135
1138	0.0027489
1150	0.0017523
1162	0.0009273
1174	0.0005907
1186	0.0007986
1198	0.0017094
1210	0.0023265
1222	0.001815
1234	0.0013926
1246	0.0012771
1258	0.0012111
1270	0.0010065
1282	0.0009867
1294	0.0011682
1306	0.0016533
1318	0.0018975
1330	0.001782
1342	0.0018546
1354	0.0018051
1366	0.0017655
1378	0.0016071
1390	0.0013893
1402	0.001023
1414	0.0012144
1426	0.0019899
1438	0.00297
1450	0.0043362
1462	0.0041712
1474	0.0025146
1486	0.0010791
1498	0.0005148
1510	0.000297
1522	0.0002574
1534	0.000231
1546	0.000231
1558	0.0002145
1570	0.0002541
1582	0.0002343
1594	0.0002343
1606	0.0002211
1618	0.0002772
1630	0.0003465
1642	0.0004653
1654	0.0006171
1666	0.0008778
1678	0.0014685
1690	0.0025806
1702	0.0060489
1714	0.0166617
1726	0.0258093
1738	0.0179817
1750	0.005082
1762	0.0017094
1774	0.000957
1786	0.0007062
1798	0.0005676
1810	0.000396
1822	0.0002772
1834	0.0002277
1846	0.0001716
1858	0.0001683
1870	0.0001254
1882	0.0001287
1894	0.0001089
1906	0.0001287
1918	0.0001122
1930	9.57e-05
1942	7.59e-05
1954	9.24e-05
1966	0.0001023
1978	9.24e-05
1990	6.27e-05
2002	5.28e-05
2014	6.27e-05
2026	6.93e-05
2038	5.94e-05
2050	4.95e-05
2062	5.28e-05
2074	2.97e-05
2086	3.63e-05
2098	2.64e-05
2110	4.95e-05
2122	5.61e-05
2134	4.95e-05
2146	6.6e-05
2158	3.96e-05
2170	4.95e-05
2182	5.61e-05
2194	8.25e-05
2206	6.6e-05
2218	6.6e-05
2230	4.29e-05
2242	4.29e-05
2254	3.96e-05
2266	3.63e-05
2278	5.28e-05
2290	5.61e-05
2302	4.29e-05
2314	4.95e-05
2326	4.29e-05
2338	2.64e-05
2350	6.6e-05
2362	6.6e-05
2374	5.61e-05
2386	5.61e-05
2398	5.94e-05
2410	6.6e-05
2422	2.64e-05
2434	3.3e-05
2446	3.3e-05
2458	4.29e-05
2470	1.32e-05
2482	1.98e-05
2494	3.63e-05
2506	0
2518	3.63e-05
2530	4.95e-05
2542	4.62e-05
2554	5.28e-05
2566	4.95e-05
2578	7.26e-05
2590	6.93e-05
2602	8.58e-05
2614	8.91e-05
2626	0.0001188
2638	0.0001353
2650	0.0002145
2662	0.0002838
2674	0.0003069
2686	0.000231
2698	0.0001749
2710	0.0001716
2722	0.0001815
2734	0.0002739
2746	0.0003069
2758	0.0003465
2770	0.0004323
2782	0.0005577
2794	0.0007029
2806	0.0008085
2818	0.0009702
2830	0.0014091
2842	0.0026994
2854	0.0061512
2866	0.0112266
2878	0.0117183
2890	0.008877
2902	0.0077286
2914	0.0102894
2926	0.0189024
2938	0.0313203
2950	0.0288849
2962	0.0197802
2974	0.0146916
2986	0.0078078
2998	0.003201
3010	0.0016038
3022	0.001089
3034	0.0008151
3046	0.0007128
3058	0.0005907
3070	0.0004983
3082	0.0004356
3094	0.0003432
3106	0.00033
3118	0.0002442
3130	0.0002376
3142	0.0002178
3154	0.000198
3166	0.000165
3178	0.0001386
3190	0.0001386
3202	0.0001056
3214	0.0001089
3226	8.25e-05
3238	7.92e-05
3250	6.27e-05
3262	2.31e-05
3274	7.92e-05
3286	1.65e-05
3298	2.97e-05
3310	0
3322	3.3e-05
3334	2.31e-05
3346	5.28e-05
3358	5.94e-05
3370	3.96e-05
3382	7.26e-05
3394	0.0001056
3406	0.0001947
3418	0.0003234
3430	0.0004587
3442	0.0004059
3454	0.000231
3466	0.0001452
3478	8.91e-05
3490	5.61e-05
3502	5.28e-05
3514	4.95e-05
3526	3.3e-05
3538	4.62e-05
3550	4.62e-05
3562	2.31e-05
3574	6.27e-05
3586	1.98e-05
3598	6.27e-05
3610	5.28e-05
3622	1.98e-05
3634	3.96e-05
3646	4.29e-05
3658	5.94e-05
3670	3.63e-05
3682	4.95e-05
3694	6.93e-05
3706	7.92e-05
3718	3.63e-05
3730	7.59e-05
3742	4.95e-05
3754	9.57e-05
3766	0.0001056
3778	5.94e-05
3790	9.24e-05
3802	8.25e-05
3814	8.25e-05
3826	7.59e-05
3838	6.6e-05
