Infrared Spectrum: 9,9-Fluorenedipropionitrile
Formula: C19 H16 N2
CAS: 4425-97-2
State: gas
Origin: EPA-IR VAPOR PHASE LIBRARY
1/CM	ABSORBANCE
549.8	0.0012405
559.445	0.0013289
569.09	0.0007982
578.734	0.0014776
588.379	0.0013767
598.024	0.001525
607.669	0.001775
617.313	0.002925
626.958	0.003585
636.603	0.003605
646.248	0.001655
655.893	0.0008969
665.537	0.000861
675.182	0.0012081
684.827	0.0011585
694.472	0.0013549
704.116	0.0014155
713.761	0.001885
723.406	0.005545
733.051	0.034755
742.695	0.022015
752.34	0.010925
761.985	0.008025
771.63	0.005165
781.275	0.002285
790.919	0.0013491
800.564	0.0010538
810.209	0.0011507
819.854	0.0007332
829.498	0.0010355
839.143	0.0009033
848.788	0.0011572
858.433	0.0008414
868.078	0.001
877.722	0.000995
887.367	0.0014524
897.012	0.0009474
906.657	0.0012591
916.301	0.0008515
925.946	0.0013866
935.591	0.001595
945.236	0.0010205
954.88	0.0008838
964.525	0.0009993
974.17	0.0011284
983.815	0.0014441
993.46	0.001685
1003.1	0.0012148
1012.75	0.0014774
1022.39	0.002755
1032.04	0.002385
1041.68	0.0010811
1051.33	0.0007682
1060.97	0.0008923
1070.62	0.0008711
1080.26	0.0006519
1089.91	0.0009151
1099.55	0.0012973
1109.2	0.0010706
1118.84	0.0006505
1128.49	0.0008666
1138.13	8.2e-05
1147.78	0.0008636
1157.42	0.002205
1167.07	0.0012305
1176.71	0.0010094
1186.36	0.0011577
1196	0.001206
1205.64	0.0013386
1215.29	0.001725
1224.93	0.0014133
1234.58	0.0014804
1244.22	0.0012478
1253.87	0.0013976
1263.51	0.001745
1273.16	0.001845
1282.8	0.002535
1292.45	0.002115
1302.09	0.002025
1311.74	0.002265
1321.38	0.002045
1331.03	0.001835
1340.67	0.001645
1350.32	0.0013986
1359.96	0.0011272
1369.61	0.0011089
1379.25	0.0010886
1388.9	0.0011206
1398.54	0.0011805
1408.18	0.001685
1417.83	0.002595
1427.47	0.005155
1437.12	0.006815
1446.76	0.014455
1456.41	0.015995
1466.05	0.004535
1475.7	0.003945
1485.34	0.002305
1494.99	0.0013065
1504.63	0.0012273
1514.28	0.0010826
1523.92	0.0010589
1533.57	0.0008948
1543.21	0.0009237
1552.86	0.0007502
1562.5	0.0008132
1572.15	0.0010204
1581.79	0.0013518
1591.44	0.0014539
1601.08	0.001925
1610.73	0.001685
1620.37	0.001313
1630.01	0.0009687
1639.66	0.0009424
1649.3	0.0008721
1658.95	0.000832
1668.59	0.0010447
1678.24	0.001143
1687.88	0.0009663
1697.53	0.0007916
1707.17	0.0009831
1716.82	0.0010147
1726.46	0.0008959
1736.11	0.0009937
1745.75	0.0007872
1755.4	0.0007913
1765.04	0.0007799
1774.69	0.0008212
1784.33	0.0010113
1793.98	0.0013174
1803.62	0.001302
1813.27	0.0009858
1822.91	0.0008647
1832.55	0.0011599
1842.2	0.0011385
1851.84	0.0009127
1861.49	0.0009843
1871.13	0.0014729
1880.78	0.0011201
1890.42	0.0008675
1900.07	0.0013354
1909.71	0.002035
1919.36	0.0010991
1929	0.0008356
1938.65	0.0014631
1948.29	0.002205
1957.94	0.0009441
1967.58	0.0006731
1977.23	0.0006266
1986.87	0.0006449
1996.52	0.0006535
2006.16	0.0006341
2015.81	0.00057016
2025.45	0.0005965
2035.1	0.0006382
2044.74	0.0006412
2054.38	0.0006174
2064.03	0.0006304
2073.67	0.0006593
2083.32	0.0006342
2092.96	0.0006132
2102.61	0.0006185
2112.25	0.0006174
2121.9	0.0006593
2131.54	0.0005997
2141.19	0.0006403
2150.83	0.00056384
2160.48	0.00057593
2170.12	0.00062
2179.77	0.00054664
2189.41	0.000604
2199.06	0.0006433
2208.7	0.000677
2218.35	0.0007812
2227.99	0.0008257
2237.64	0.0013097
2247.28	0.002645
2256.92	0.002065
2266.57	0.0010873
2276.21	0.0008913
2285.86	0.0007158
2295.5	0.0008006
2305.15	0.0007426
2314.79	0.0010231
2324.44	0.0008546
2334.08	0.0007985
2343.73	0.0007212
2353.37	0.0007083
2363.02	0.0007337
2372.66	0.0007878
2382.31	0.000817
2391.95	0.0006598
2401.6	0.0006404
2411.24	0.000675
2420.89	0.0007148
2430.53	0.0006163
2440.18	0.0006495
2449.82	0.0006979
2459.47	0.0006131
2469.11	0.0007476
2478.75	0.000635
2488.4	0.0006717
2498.04	0.0007405
2507.69	0.0007094
2517.33	0.0007117
2526.98	0.0006119
2536.62	0.0005978
2546.27	0.0006405
2555.91	0.0006472
2565.56	0.0007429
2575.2	0.0007243
2584.85	0.0006007
2594.49	0.0006438
2604.14	0.0007427
2613.78	0.0007729
2623.43	0.0007149
2633.07	0.0007639
2642.72	0.0006449
2652.36	0.0006868
2662.01	0.000765
2671.65	0.0006455
2681.29	0.0006571
2690.94	0.000683
2700.58	0.0007497
2710.23	0.0008228
2719.87	0.0007699
2729.52	0.0006437
2739.16	0.0006794
2748.81	0.0007274
2758.45	0.0007028
2768.1	0.00053705
2777.74	0.000612
2787.39	0.0007803
2797.03	0.00076
2806.68	0.0008241
2816.32	0.0007344
2825.97	0.0008352
2835.61	0.0011433
2845.26	0.0014362
2854.9	0.002015
2864.55	0.003465
2874.19	0.002735
2883.84	0.002025
2893.48	0.002105
2903.12	0.002335
2912.77	0.002725
2922.41	0.004765
2932.06	0.010485
2941.7	0.012945
2951.35	0.008775
2960.99	0.005255
2970.64	0.003635
2980.28	0.001895
2989.93	0.0012958
2999.57	0.001765
3009.22	0.003375
3018.86	0.005725
3028.51	0.005025
3038.15	0.004765
3047.8	0.005185
3057.44	0.006165
3067.09	0.011995
3076.73	0.014915
3086.38	0.006995
3096.02	0.003615
3105.67	0.001565
3115.31	0.0009965
3124.95	0.001103
3134.6	0.0006958
3144.24	0.0008401
3153.89	0.0011776
3163.53	0.0010678
3173.18	0.001006
3182.82	0.0009322
3192.47	0.0008122
3202.11	0.0009321
3211.76	0.00054154
3221.4	0.0006792
3231.05	0.0006609
3240.69	0.00053453
3250.34	0.0008562
3259.98	0.0006274
3269.63	0.0007205
3279.27	0.00054606
3288.92	0.0006076
3298.56	0.00059118
3308.21	0.00049118
3317.85	0.00074
3327.49	0.0006516
3337.14	0.0007009
3346.78	0.00054465
3356.43	0.0007399
3366.07	0.000502006
3375.72	0.000373
3385.36	0.0007629
3395.01	0.00054912
3404.65	0.00055878
3414.3	0.0004689
3423.94	0.00058224
3433.59	0.000394
3443.23	0.0006697
3452.88	0.0006155
3462.52	0.0006208
3472.17	0.0007573
3481.81	0.000478
3491.46	0.0007144
3501.1	0.00051092
3510.75	0.0006086
3520.39	0.000407
3530.04	0.00058343
3539.68	0.0004711
3549.32	0.0004293
3558.97	0.00057871
3568.61	0.00057091
3578.26	0.0006249
3587.9	0.0006328
3597.55	0.000355
3607.19	0.0006177
3616.84	0.0006714
3626.48	0.0006985
3636.13	0.0006805
3645.77	0.0007421
3655.42	0.0006145
3665.06	0.0006893
3674.71	0.0006259
3684.35	0.0007706
3694	0.000637
3703.64	0.00056979
3713.29	0.0006364
3722.93	0.0006147
3732.58	0.00052265
3742.22	0.0006752
3751.86	0.0005985
3761.51	0.0006335
3771.15	0.0008503
3780.8	0.0007115
3790.44	0.0006158
3800.09	0.0004601
3809.73	0.00058296
3819.38	0.0007778
3829.02	0.0008207
3838.67	0.0006384
3848.31	0.0006862
3857.96	0.00051505
3867.6	0.0006952
3877.25	0.0004198
3886.89	0.0004315
3896.54	0.000647
3906.18	0.0004179
3915.83	0.0006506
3925.47	0.0006793
3935.12	0.00055758
3944.76	0.0007393
3954.41	0.0004704
3964.05	0.0007231
3973.69	0.0004768
3983.34	0.0006085
3992.98	0.00052328
