Infrared Spectrum: Hexadecyl isothiocyanate
Formula: C 17 H 33 N S
CAS: 4426-87-3
State: gas
Origin: EPA-IR VAPOR PHASE LIBRARY
1/CM	ABSORBANCE
549.8	0.004342
559.445	0.004142
569.09	0.003542
578.734	0.003242
588.379	0.002302
598.024	0.001802
607.669	0.001632
617.313	0.001412
626.958	0.0012301
636.603	0.0009683
646.248	0.001542
655.893	0.001582
665.537	0.001672
675.182	0.001612
684.827	0.001922
694.472	0.002972
704.116	0.004062
713.761	0.004862
723.406	0.004922
733.051	0.003852
742.695	0.003292
752.34	0.002652
761.985	0.002612
771.63	0.002222
781.275	0.002052
790.919	0.001602
800.564	0.001382
810.209	0.001532
819.854	0.0012513
829.498	0.001249
839.143	0.001452
848.788	0.001079
858.433	0.0009788
868.078	0.001292
877.722	0.001422
887.367	0.001422
897.012	0.001672
906.657	0.001552
916.301	0.001552
925.946	0.001382
935.591	0.001662
945.236	0.001732
954.88	0.001682
964.525	0.001622
974.17	0.001622
983.815	0.001532
993.46	0.001362
1003.1	0.001502
1012.75	0.001692
1022.39	0.001502
1032.04	0.001822
1041.68	0.001672
1051.33	0.002232
1060.97	0.002012
1070.62	0.002012
1080.26	0.001722
1089.91	0.001982
1099.55	0.002052
1109.2	0.001892
1118.84	0.001612
1128.49	0.001712
1138.13	0.001682
1147.78	0.001872
1157.42	0.001562
1167.07	0.001662
1176.71	0.001362
1186.36	0.001412
1196	0.001872
1205.64	0.001772
1215.29	0.002172
1224.93	0.002152
1234.58	0.002292
1244.22	0.002922
1253.87	0.003252
1263.51	0.003472
1273.16	0.004332
1282.8	0.005082
1292.45	0.006082
1302.09	0.007902
1311.74	0.008982
1321.38	0.009882
1331.03	0.013592
1340.67	0.022072
1350.32	0.027692
1359.96	0.020692
1369.61	0.014202
1379.25	0.008452
1388.9	0.005332
1398.54	0.003622
1408.18	0.003282
1417.83	0.003362
1427.47	0.004462
1437.12	0.007502
1446.76	0.014522
1456.41	0.023452
1466.05	0.023342
1475.7	0.010882
1485.34	0.004952
1494.99	0.002992
1504.63	0.002062
1514.28	0.001702
1523.92	0.001442
1533.57	0.001302
1543.21	0.0011338
1552.86	0.0009916
1562.5	0.0009356
1572.15	0.0008743
1581.79	0.0008862
1591.44	0.0007758
1601.08	0.0008039
1610.73	0.000763
1620.37	0.0007813
1630.01	0.0006528
1639.66	0.0007072
1649.3	0.0005954
1658.95	0.0005877
1668.59	0.0005554
1678.24	0.0005418
1687.88	0.0006604
1697.53	0.0005463
1707.17	0.0006442
1716.82	0.0004862
1726.46	0.0005099
1736.11	0.000599
1745.75	0.0005884
1755.4	0.0006001
1765.04	0.0006611
1774.69	0.0005995
1784.33	0.0005504
1793.98	0.0006656
1803.62	0.000734
1813.27	0.0007519
1822.91	0.0007778
1832.55	0.0008789
1842.2	0.0009141
1851.84	0.0011756
1861.49	0.0012596
1871.13	0.001482
1880.78	0.001842
1890.42	0.002272
1900.07	0.002762
1909.71	0.003342
1919.36	0.004052
1929	0.005132
1938.65	0.006372
1948.29	0.008022
1957.94	0.010122
1967.58	0.013072
1977.23	0.017132
1986.87	0.022732
1996.52	0.030642
2006.16	0.041402
2015.81	0.056082
2025.45	0.075692
2035.1	0.100662
2044.74	0.128002
2054.38	0.148792
2064.03	0.151832
2073.67	0.134902
2083.32	0.106962
2092.96	0.080722
2102.61	0.061632
2112.25	0.049052
2121.9	0.040472
2131.54	0.034462
2141.19	0.030082
2150.83	0.027162
2160.48	0.025072
2170.12	0.023682
2179.77	0.022712
2189.41	0.021672
2199.06	0.019912
2208.7	0.017022
2218.35	0.013582
2227.99	0.010442
2237.64	0.007922
2247.28	0.006162
2256.92	0.004932
2266.57	0.003982
2276.21	0.003332
2285.86	0.002802
2295.5	0.002402
2305.15	0.002082
2314.79	0.001852
2324.44	0.001632
2334.08	0.001412
2343.73	0.001322
2353.37	0.0012036
2363.02	0.0011424
2372.66	0.001093
2382.31	0.0010462
2391.95	0.0010333
2401.6	0.0010657
2411.24	0.0009326
2420.89	0.0009634
2430.53	0.0009093
2440.18	0.0008665
2449.82	0.0009884
2459.47	0.0009536
2469.11	0.0010754
2478.75	0.0009554
2488.4	0.0009899
2498.04	0.0010832
2507.69	0.0011247
2517.33	0.001202
2526.98	0.001322
2536.62	0.001392
2546.27	0.001432
2555.91	0.001422
2565.56	0.001632
2575.2	0.001712
2584.85	0.001802
2594.49	0.001802
2604.14	0.001832
2613.78	0.001782
2623.43	0.001862
2633.07	0.001952
2642.72	0.002062
2652.36	0.002322
2662.01	0.002532
2671.65	0.002852
2681.29	0.003262
2690.94	0.003262
2700.58	0.003372
2710.23	0.003572
2719.87	0.003922
2729.52	0.004202
2739.16	0.004402
2748.81	0.004272
2758.45	0.004232
2768.1	0.004132
2777.74	0.004322
2787.39	0.004892
2797.03	0.005632
2806.68	0.006642
2816.32	0.008002
2825.97	0.010292
2835.61	0.013972
2845.26	0.023942
2854.9	0.055012
2864.55	0.083072
2874.19	0.058372
2883.84	0.046252
2893.48	0.043302
2903.12	0.054582
2912.77	0.083092
2922.41	0.144292
2932.06	0.222882
2941.7	0.174092
2951.35	0.106062
2960.99	0.070752
2970.64	0.049092
2980.28	0.025802
2989.93	0.015092
2999.57	0.010162
3009.22	0.007492
3018.86	0.005762
3028.51	0.004672
3038.15	0.003882
3047.8	0.003332
3057.44	0.002762
3067.09	0.002302
3076.73	0.001832
3086.38	0.001882
3096.02	0.001772
3105.67	0.001622
3115.31	0.001312
3124.95	0.0011925
3134.6	0.0012662
3144.24	0.0011975
3153.89	0.0011381
3163.53	0.0009438
3173.18	0.0009416
3182.82	0.0009791
3192.47	0.0008422
3202.11	0.0006153
3211.76	0.0005094
3221.4	0.0006652
3231.05	0.0005208
3240.69	0.000475
3250.34	0.0005107
3259.98	0.0003699
3269.63	0.00030466
3279.27	0.0004032
3288.92	0.0004552
3298.56	0.000417
3308.21	0.0004237
3317.85	0.00036077
3327.49	0.00028736
3337.14	0.0004669
3346.78	0.00038738
3356.43	0.00037314
3366.07	0.0004266
3375.72	0.0004077
3385.36	0.0004646
3395.01	0.00028311
3404.65	0.0002668
3414.3	0.0004318
3423.94	0.0004751
3433.59	0.0004613
3443.23	0.0003339
3452.88	0.0002295
3462.52	0.000291192
3472.17	0.0002765
3481.81	0.000155
3491.46	0.0002665
3501.1	0.000242
3510.75	0.0002724
3520.39	0.0002176
3530.04	5.6e-05
3539.68	0.00036391
3549.32	0.00031098
3558.97	0.0002789
3568.61	0.000132
3578.26	0.000149
3587.9	0.000185
3597.55	0.0004532
3607.19	0.00028505
3616.84	0.0005329
3626.48	0.0004803
3636.13	0.0004689
3645.77	0.0005339
3655.42	0.00036021
3665.06	0.0004898
3674.71	0.0005618
3684.35	0.00033234
3694	0.0005329
3703.64	0.000501
3713.29	0.0003965
3722.93	0.000551
3732.58	0.000523
3742.22	0.00037135
3751.86	0.0004035
3761.51	0.000562
3771.15	0.000407
3780.8	0.0004484
3790.44	0.0007717
3800.09	0.000701
3809.73	0.0004752
3819.38	0.000639
3829.02	0.0004735
3838.67	0.0006347
3848.31	0.0004834
3857.96	0.000597
3867.6	0.0006468
3877.25	0.0005394
3886.89	0.0008138
3896.54	0.0007022
3906.18	0.0005522
3915.83	0.0005381
3925.47	0.0006911
3935.12	0.0006899
3944.76	0.0006931
3954.41	0.0009217
3964.05	0.0008491
3973.69	0.0009823
3983.34	0.0010113
3992.98	0.0012608
