Infrared Spectrum: DL-ISO-LEUCINE
Formula: C6 H13 N O2
CAS: 443-79-8
State: SOLID (OIL MULL)
Class: COBLENTZ
Instrument: Not specified, most likely a prism, grating, or hybrid spectrometer.
Sampling: TRANSMISSION
Resolution: 4
Origin: WYANDOTTE CHEMICALS CORP., WYANDOTTE, MICHIGAN, USA
MICROMETERS	TRANSMITTANCE
2.062	0.905
2.10164	0.9
2.14128	0.915
2.18092	0.903
2.22056	0.866
2.2602	0.863
2.29984	0.868
2.33948	0.885
2.37912	0.89
2.41876	0.905
2.4584	0.915
2.49804	0.921
2.53768	0.926
2.57732	0.945
2.61696	0.921
2.6566	0.928
2.69624	0.936
2.73588	0.94
2.77552	0.933
2.81516	0.925
2.8548	0.913
2.89444	0.91
2.93408	0.898
2.97372	0.893
3.01336	0.881
3.053	0.831
3.09264	0.73
3.13227	0.545
3.17191	0.357
3.21155	0.302
3.25119	0.316
3.29083	0.246
3.33047	0.144
3.37011	0.024
3.40975	0.028
3.44939	0.031
3.48903	0.029
3.52867	0.086
3.56831	0.256
3.60795	0.284
3.64759	0.289
3.68723	0.274
3.72687	0.284
3.76651	0.327
3.80615	0.332
3.84579	0.251
3.88543	0.214
3.92507	0.222
3.96471	0.212
4.00435	0.229
4.04399	0.251
4.08363	0.286
4.12327	0.331
4.16291	0.331
4.20255	0.369
4.24219	0.42
4.28183	0.465
4.32147	0.519
4.36111	0.587
4.40075	0.628
4.44039	0.655
4.48003	0.65
4.51967	0.665
4.55931	0.672
4.59895	0.662
4.63859	0.62
4.67823	0.559
4.71787	0.527
4.75751	0.529
4.79715	0.643
4.83679	0.728
4.87643	0.77
4.91607	0.801
4.95571	0.83
4.99535	0.866
5.03499	0.88
5.07463	0.88
5.11427	0.891
5.15391	0.898
5.19355	0.91
5.23318	0.911
5.27282	0.93
5.31246	0.931
5.3521	0.938
5.39174	0.938
5.43138	0.936
5.47102	0.943
5.51066	0.941
5.5503	0.943
5.58994	0.936
5.62958	0.93
5.66922	0.923
5.70886	0.906
5.7485	0.863
5.78814	0.795
5.82778	0.778
5.86742	0.808
5.90706	0.8
5.9467	0.767
5.98634	0.71
6.02598	0.632
6.06562	0.432
6.10526	0.198
6.1449	0.159
6.18454	0.096
6.22418	0.033
6.26382	0.076
6.30346	0.259
6.3431	0.392
6.38274	0.477
6.42238	0.527
6.46202	0.489
6.50166	0.339
6.5413	0.198
6.58094	0.068
6.62058	0.033
6.66022	0.041
6.69986	0.083
6.7395	0.138
6.77914	0.081
6.81878	0.069
6.85842	0.108
6.89806	0.201
6.9377	0.314
6.97734	0.307
7.01698	0.109
7.05662	0.099
7.09626	0.246
7.1359	0.377
7.17554	0.381
7.21518	0.236
7.25482	0.193
7.29445	0.254
7.33409	0.212
7.37373	0.191
7.41337	0.229
7.45301	0.419
7.49265	0.252
7.53229	0.237
7.57193	0.247
7.61157	0.099
7.65121	0.267
7.69085	0.487
7.73049	0.564
7.77013	0.6
7.80977	0.587
7.84941	0.603
7.88905	0.56
7.92869	0.56
7.96833	0.6
8.00797	0.678
8.04761	0.737
8.08725	0.76
8.12689	0.78
8.16653	0.797
8.20617	0.8
8.24581	0.8
8.28545	0.8
8.32509	0.788
8.36473	0.723
8.40437	0.595
8.44401	0.582
8.48365	0.728
8.52329	0.723
8.56293	0.757
8.60257	0.798
8.64221	0.8
8.68185	0.798
8.72149	0.762
8.76113	0.603
8.80077	0.43
8.84041	0.608
8.88005	0.772
8.91969	0.818
8.95933	0.841
8.99897	0.845
9.03861	0.742
9.07825	0.743
9.11789	0.765
9.15753	0.75
9.19717	0.753
9.23681	0.75
9.27645	0.75
9.31609	0.772
9.35573	0.793
9.39536	0.813
9.435	0.825
9.47464	0.801
9.51428	0.715
9.55392	0.655
9.59356	0.658
9.6332	0.712
9.67284	0.753
9.71248	0.793
9.75212	0.816
9.79176	0.83
9.8314	0.858
9.87104	0.865
9.91068	0.87
9.95032	0.861
9.98996	0.828
10.0296	0.743
10.0692	0.801
10.1089	0.851
10.1485	0.861
10.1882	0.856
10.2278	0.826
10.2674	0.778
10.3071	0.768
10.3467	0.752
10.3864	0.635
10.426	0.695
10.4656	0.805
10.5053	0.851
10.5449	0.87
10.5846	0.883
10.6242	0.888
10.6638	0.88
10.7035	0.868
10.7431	0.833
10.7828	0.743
10.8224	0.702
10.862	0.743
10.9017	0.737
10.9413	0.826
10.981	0.871
11.0206	0.89
11.0602	0.895
11.0999	0.883
11.1395	0.845
11.1792	0.811
11.2188	0.753
11.2584	0.787
11.2981	0.846
11.3377	0.846
11.3774	0.81
11.417	0.742
11.4566	0.733
11.4963	0.813
11.5359	0.873
11.5756	0.901
11.6152	0.913
11.6548	0.918
11.6945	0.91
11.7341	0.911
11.7738	0.905
11.8134	0.906
11.853	0.926
11.8927	0.923
11.9323	0.926
11.972	0.93
12.0116	0.923
12.0512	0.905
12.0909	0.846
12.1305	0.85
12.1702	0.89
12.2098	0.906
12.2494	0.906
12.2891	0.888
12.3287	0.831
12.3684	0.728
12.408	0.73
12.4476	0.787
12.4873	0.747
12.5269	0.577
12.5665	0.638
12.6062	0.825
12.6458	0.898
12.6855	0.913
12.7251	0.925
12.7647	0.911
12.8044	0.885
12.844	0.82
12.8837	0.673
12.9233	0.594
12.9629	0.637
13.0026	0.76
13.0422	0.831
13.0819	0.89
13.1215	0.905
13.1611	0.911
13.2008	0.915
13.2404	0.915
13.2801	0.923
13.3197	0.916
13.3593	0.921
13.399	0.923
13.4386	0.92
13.4783	0.91
13.5179	0.91
13.5575	0.906
13.5972	0.901
13.6368	0.896
13.6765	0.896
13.7161	0.895
13.7557	0.895
13.7954	0.885
13.835	0.868
13.8747	0.856
13.9143	0.851
13.9539	0.848
13.9936	0.831
14.0332	0.853
14.0729	0.878
14.1125	0.895
14.1521	0.9
14.1918	0.895
14.2314	0.885
14.2711	0.865
14.3107	0.821
14.3503	0.758
14.39	0.665
14.4296	0.567
14.4693	0.52
14.5089	0.537
14.5485	0.603
14.5882	0.642
14.6278	0.652
14.6675	0.622
14.7071	0.6
14.7467	0.602
14.7864	0.638
14.826	0.7
14.8657	0.738
14.9053	0.777
14.9449	0.798
14.9846	0.798
15.0242	0.778
15.0639	0.765
15.1035	0.795
15.1431	0.816
15.1828	0.831
15.2224	0.825
15.2621	0.816
15.3017	0.821
15.3413	0.815
15.381	0.795
15.4206	0.805
15.4603	0.797
15.4999	0.788
15.5395	0.783
15.5792	0.783
15.6188	0.775
15.6585	0.767
15.6981	0.76
15.7377	0.752
15.7774	0.737
15.817	0.732
15.8567	0.72
15.8963	0.707
15.9359	0.698
15.9756	0.69
