Infrared Spectrum: 1,4-Butane diisothiocyanate
Formula: C 6 H 8 N 2 S 2
CAS: 4430-51-7
State: gas
Origin: EPA-IR VAPOR PHASE LIBRARY
1/CM	ABSORBANCE
549.8	0.024104
559.445	0.021964
569.09	0.018884
578.734	0.016124
588.379	0.013444
598.024	0.010844
607.669	0.008694
617.313	0.006804
626.958	0.006044
636.603	0.005614
646.248	0.005884
655.893	0.006344
665.537	0.006584
675.182	0.005944
684.827	0.005404
694.472	0.006434
704.116	0.008064
713.761	0.008234
723.406	0.006754
733.051	0.005654
742.695	0.005874
752.34	0.007364
761.985	0.009544
771.63	0.013514
781.275	0.015954
790.919	0.011514
800.564	0.006634
810.209	0.005134
819.854	0.005094
829.498	0.005654
839.143	0.005974
848.788	0.005394
858.433	0.005004
868.078	0.004954
877.722	0.005234
887.367	0.005334
897.012	0.005244
906.657	0.005554
916.301	0.005964
925.946	0.006974
935.591	0.008074
945.236	0.007794
954.88	0.007224
964.525	0.007414
974.17	0.007404
983.815	0.006464
993.46	0.005654
1003.1	0.005024
1012.75	0.004724
1022.39	0.005024
1032.04	0.005494
1041.68	0.006094
1051.33	0.006644
1060.97	0.007214
1070.62	0.008344
1080.26	0.008594
1089.91	0.008034
1099.55	0.007194
1109.2	0.006674
1118.84	0.007144
1128.49	0.007604
1138.13	0.007364
1147.78	0.006434
1157.42	0.006234
1167.07	0.006434
1176.71	0.006504
1186.36	0.007414
1196	0.007964
1205.64	0.007854
1215.29	0.007784
1224.93	0.008824
1234.58	0.009744
1244.22	0.010194
1253.87	0.010654
1263.51	0.011454
1273.16	0.012714
1282.8	0.015514
1292.45	0.019684
1302.09	0.024054
1311.74	0.035254
1321.38	0.046474
1331.03	0.067374
1340.67	0.099384
1350.32	0.126304
1359.96	0.101514
1369.61	0.067134
1379.25	0.038024
1388.9	0.018904
1398.54	0.011574
1408.18	0.008584
1417.83	0.008074
1427.47	0.009884
1437.12	0.016244
1446.76	0.032234
1456.41	0.058534
1466.05	0.051554
1475.7	0.020464
1485.34	0.009194
1494.99	0.005174
1504.63	0.003764
1514.28	0.003084
1523.92	0.002714
1533.57	0.002384
1543.21	0.002104
1552.86	0.001844
1562.5	0.001714
1572.15	0.001614
1581.79	0.001564
1591.44	0.001514
1601.08	0.0014042
1610.73	0.0013796
1620.37	0.0014412
1630.01	0.001484
1639.66	0.001544
1649.3	0.001544
1658.95	0.001544
1668.59	0.001584
1678.24	0.001494
1687.88	0.001584
1697.53	0.001564
1707.17	0.001654
1716.82	0.001744
1726.46	0.001794
1736.11	0.001864
1745.75	0.001904
1755.4	0.001984
1765.04	0.002044
1774.69	0.002184
1784.33	0.002174
1793.98	0.002264
1803.62	0.002454
1813.27	0.002624
1822.91	0.002954
1832.55	0.003544
1842.2	0.004194
1851.84	0.005314
1861.49	0.006704
1871.13	0.008544
1880.78	0.010884
1890.42	0.013804
1900.07	0.017544
1909.71	0.022104
1919.36	0.027744
1929	0.034784
1938.65	0.043874
1948.29	0.055834
1957.94	0.072174
1967.58	0.094844
1977.23	0.127154
1986.87	0.173314
1996.52	0.238254
2006.16	0.327614
2015.81	0.445894
2025.45	0.590724
2035.1	0.743034
2044.74	0.855744
2054.38	0.877264
2064.03	0.799434
2073.67	0.652084
2083.32	0.490534
2092.96	0.364154
2102.61	0.282024
2112.25	0.229714
2121.9	0.193794
2131.54	0.167694
2141.19	0.148024
2150.83	0.132504
2160.48	0.119194
2170.12	0.108034
2179.77	0.099984
2189.41	0.095134
2199.06	0.091084
2208.7	0.084424
2218.35	0.073174
2227.99	0.058494
2237.64	0.043624
2247.28	0.031934
2256.92	0.023844
2266.57	0.018484
2276.21	0.014834
2285.86	0.012294
2295.5	0.010554
2305.15	0.009234
2314.79	0.007824
2324.44	0.006634
2334.08	0.005544
2343.73	0.004764
2353.37	0.003984
2363.02	0.003484
2372.66	0.003084
2382.31	0.002774
2391.95	0.002544
2401.6	0.002444
2411.24	0.002304
2420.89	0.002294
2430.53	0.002294
2440.18	0.002304
2449.82	0.002404
2459.47	0.002344
2469.11	0.002424
2478.75	0.002534
2488.4	0.002574
2498.04	0.002684
2507.69	0.002794
2517.33	0.002974
2526.98	0.003244
2536.62	0.003374
2546.27	0.003724
2555.91	0.003914
2565.56	0.004144
2575.2	0.004084
2584.85	0.003784
2594.49	0.003344
2604.14	0.002924
2613.78	0.002714
2623.43	0.002474
2633.07	0.002434
2642.72	0.002604
2652.36	0.002974
2662.01	0.003704
2671.65	0.004794
2681.29	0.006164
2690.94	0.007774
2700.58	0.009314
2710.23	0.011184
2719.87	0.012954
2729.52	0.013934
2739.16	0.013484
2748.81	0.011874
2758.45	0.010104
2768.1	0.008594
2777.74	0.007354
2787.39	0.006504
2797.03	0.006214
2806.68	0.006194
2816.32	0.005984
2825.97	0.005884
2835.61	0.006014
2845.26	0.007144
2854.9	0.010424
2864.55	0.016754
2874.19	0.024304
2883.84	0.034954
2893.48	0.035614
2903.12	0.025704
2912.77	0.022654
2922.41	0.029814
2932.06	0.039604
2941.7	0.055804
2951.35	0.087784
2960.99	0.098314
2970.64	0.055634
2980.28	0.023644
2989.93	0.011444
2999.57	0.007194
3009.22	0.005154
3018.86	0.004154
3028.51	0.003194
3038.15	0.002514
3047.8	0.002004
3057.44	0.001624
3067.09	0.0013905
3076.73	0.0012999
3086.38	0.0011931
3096.02	0.000966
3105.67	0.0008993
3115.31	0.0008142
3124.95	0.0006574
3134.6	0.0007755
3144.24	0.0005855
3153.89	0.0007071
3163.53	0.0006621
3173.18	0.0005917
3182.82	0.0003916
3192.47	0.000355
3202.11	0.0004207
3211.76	0.00031
3221.4	0.0004041
3231.05	0.0003808
3240.69	0.000151
3250.34	0.000203
3259.98	0.000266
3269.63	4.4e-05
3279.27	8.7e-05
3288.92	8.3e-05
3298.56	6.7e-05
3308.21	0.000208
3317.85	0.000132
3327.49	0
3337.14	0.000151
3346.78	0.000106
3356.43	0.00027
3366.07	0.000221
3375.72	0.000252
3385.36	0.000274
3395.01	0.000356
3404.65	0.000352
3414.3	0.000324
3423.94	0.0004306
3433.59	0.000201
3443.23	0.0003675
3452.88	0.000348
3462.52	0.000276
3472.17	0.0004378
3481.81	0.000347
3491.46	0.000284
3501.1	0.000375
3510.75	0.0004012
3520.39	0.000286
3530.04	0.000349
3539.68	0.000303
3549.32	0.00048206
3558.97	0.0004214
3568.61	0.000321
3578.26	0.0003835
3587.9	0.000347
3597.55	0.0003655
3607.19	0.000362
3616.84	0.0004276
3626.48	0.00050898
3636.13	0.000263
3645.77	0.0004262
3655.42	0.000453
3665.06	0.0004015
3674.71	0.0004248
3684.35	0.0003664
3694	0.000344
3703.64	0.0004226
3713.29	0.000357
3722.93	0.000282
3732.58	0.00049253
3742.22	0.00054708
3751.86	0.0004286
3761.51	0.000627
3771.15	0.0006445
3780.8	0.0006427
3790.44	0.0006645
3800.09	0.00052399
3809.73	0.0008509
3819.38	0.0007793
3829.02	0.0006733
3838.67	0.0009406
3848.31	0.0009216
3857.96	0.0010423
3867.6	0.0009592
3877.25	0.0010409
3886.89	0.0012446
3896.54	0.0010078
3906.18	0.0012477
3915.83	0.0011192
3925.47	0.001484
3935.12	0.0014452
3944.76	0.001774
3954.41	0.001964
3964.05	0.002254
3973.69	0.002474
3983.34	0.002544
3992.98	0.002994
