Infrared Spectrum: Nonyl isothiocyanate
Formula: C 10 H 19 N S
CAS: 4430-43-7
State: gas
Origin: EPA-IR VAPOR PHASE LIBRARY
1/CM	ABSORBANCE
549.8	0.006207
559.445	0.005587
569.09	0.004947
578.734	0.003897
588.379	0.003217
598.024	0.002547
607.669	0.002197
617.313	0.001797
626.958	0.001327
636.603	0.001297
646.248	0.001707
655.893	0.002197
665.537	0.001807
675.182	0.001767
684.827	0.002127
694.472	0.003047
704.116	0.004177
713.761	0.004407
723.406	0.004217
733.051	0.003837
742.695	0.003357
752.34	0.002907
761.985	0.002727
771.63	0.002377
781.275	0.001907
790.919	0.001297
800.564	0.001247
810.209	0.001337
819.854	0.0011646
829.498	0.001217
839.143	0.0011476
848.788	0.001245
858.433	0.001287
868.078	0.001387
877.722	0.001447
887.367	0.001667
897.012	0.001747
906.657	0.001607
916.301	0.001967
925.946	0.002087
935.591	0.002007
945.236	0.001907
954.88	0.001967
964.525	0.001607
974.17	0.001517
983.815	0.001707
993.46	0.001807
1003.1	0.001757
1012.75	0.001817
1022.39	0.001827
1032.04	0.001987
1041.68	0.001947
1051.33	0.001997
1060.97	0.002647
1070.62	0.002017
1080.26	0.002027
1089.91	0.002127
1099.55	0.001687
1109.2	0.002537
1118.84	0.002477
1128.49	0.002067
1138.13	0.001817
1147.78	0.001547
1157.42	0.001557
1167.07	0.001947
1176.71	0.001747
1186.36	0.002047
1196	0.002107
1205.64	0.002407
1215.29	0.002067
1224.93	0.002777
1234.58	0.003107
1244.22	0.003187
1253.87	0.003517
1263.51	0.003997
1273.16	0.004557
1282.8	0.005327
1292.45	0.006497
1302.09	0.008307
1311.74	0.010057
1321.38	0.011907
1331.03	0.016907
1340.67	0.027947
1350.32	0.034147
1359.96	0.025547
1369.61	0.017037
1379.25	0.010317
1388.9	0.006517
1398.54	0.004277
1408.18	0.003517
1417.83	0.003537
1427.47	0.004547
1437.12	0.007567
1446.76	0.013987
1456.41	0.023727
1466.05	0.023797
1475.7	0.011357
1485.34	0.005187
1494.99	0.003087
1504.63	0.002037
1514.28	0.001697
1523.92	0.001387
1533.57	0.001277
1543.21	0.001068
1552.86	0.000942
1562.5	0.0007692
1572.15	0.0008021
1581.79	0.000686
1591.44	0.0006856
1601.08	0.0006767
1610.73	0.0007272
1620.37	0.000697
1630.01	0.0007234
1639.66	0.0006189
1649.3	0.0007388
1658.95	0.0006595
1668.59	0.0006768
1678.24	0.0006113
1687.88	0.0005877
1697.53	0.0006005
1707.17	0.0006271
1716.82	0.0005861
1726.46	0.0006355
1736.11	0.0005924
1745.75	0.0006024
1755.4	0.0005982
1765.04	0.0006043
1774.69	0.0006036
1784.33	0.0007073
1793.98	0.0006675
1803.62	0.0007113
1813.27	0.0008494
1822.91	0.0008717
1832.55	0.000935
1842.2	0.0011165
1851.84	0.001347
1861.49	0.001497
1871.13	0.001857
1880.78	0.002247
1890.42	0.002827
1900.07	0.003677
1909.71	0.004457
1919.36	0.005627
1929	0.007017
1938.65	0.008807
1948.29	0.011047
1957.94	0.014107
1967.58	0.018217
1977.23	0.023967
1986.87	0.031907
1996.52	0.043127
2006.16	0.058597
2015.81	0.079407
2025.45	0.107177
2035.1	0.142327
2044.74	0.181297
2054.38	0.211197
2064.03	0.216517
2073.67	0.191917
2083.32	0.150907
2092.96	0.113207
2102.61	0.086637
2112.25	0.069417
2121.9	0.057517
2131.54	0.048607
2141.19	0.042087
2150.83	0.037757
2160.48	0.034837
2170.12	0.033147
2179.77	0.031947
2189.41	0.030627
2199.06	0.027757
2208.7	0.023387
2218.35	0.018827
2227.99	0.014587
2237.64	0.010957
2247.28	0.008267
2256.92	0.006547
2266.57	0.005167
2276.21	0.004267
2285.86	0.003567
2295.5	0.002947
2305.15	0.002537
2314.79	0.002247
2324.44	0.001847
2334.08	0.001587
2343.73	0.001337
2353.37	0.001277
2363.02	0.0011467
2372.66	0.0010935
2382.31	0.0009571
2391.95	0.0009799
2401.6	0.0009895
2411.24	0.0009298
2420.89	0.0008701
2430.53	0.0009719
2440.18	0.000846
2449.82	0.0008127
2459.47	0.000771
2469.11	0.0007884
2478.75	0.0008693
2488.4	0.000865
2498.04	0.0008645
2507.69	0.0010012
2517.33	0.0010986
2526.98	0.0011196
2536.62	0.0012166
2546.27	0.001327
2555.91	0.001367
2565.56	0.001467
2575.2	0.001507
2584.85	0.001587
2594.49	0.001577
2604.14	0.001467
2613.78	0.001497
2623.43	0.001497
2633.07	0.001507
2642.72	0.001617
2652.36	0.001817
2662.01	0.002107
2671.65	0.002327
2681.29	0.002767
2690.94	0.003117
2700.58	0.003107
2710.23	0.003427
2719.87	0.003897
2729.52	0.004467
2739.16	0.004657
2748.81	0.004557
2758.45	0.004217
2768.1	0.003987
2777.74	0.003897
2787.39	0.004237
2797.03	0.004777
2806.68	0.005177
2816.32	0.006227
2825.97	0.007697
2835.61	0.010327
2845.26	0.016547
2854.9	0.033397
2864.55	0.051367
2874.19	0.047807
2883.84	0.042617
2893.48	0.037287
2903.12	0.040147
2912.77	0.056807
2922.41	0.092027
2932.06	0.132447
2941.7	0.130507
2951.35	0.102937
2960.99	0.078157
2970.64	0.058177
2980.28	0.030077
2989.93	0.015997
2999.57	0.010137
3009.22	0.007337
3018.86	0.005657
3028.51	0.004447
3038.15	0.003657
3047.8	0.003007
3057.44	0.002587
3067.09	0.002237
3076.73	0.002027
3086.38	0.001637
3096.02	0.001547
3105.67	0.001347
3115.31	0.001317
3124.95	0.0011268
3134.6	0.0011156
3144.24	0.0010342
3153.89	0.0010231
3163.53	0.0009591
3173.18	0.0008032
3182.82	0.000745
3192.47	0.0008578
3202.11	0.0006561
3211.76	0.0003913
3221.4	0.000406
3231.05	0.00026743
3240.69	0.0004604
3250.34	0.0004334
3259.98	0.00030313
3269.63	0.000255144
3279.27	0.000108
3288.92	0
3298.56	0.0002303
3308.21	0.0001712
3317.85	0.0003587
3327.49	0.0003986
3337.14	0.00032512
3346.78	0.00032141
3356.43	0.0003643
3366.07	0.0002299
3375.72	0.00030187
3385.36	0.0003793
3395.01	0.0005901
3404.65	0.00030974
3414.3	0.0001757
3423.94	0.00029509
3433.59	0.0003907
3443.23	0.00026469
3452.88	0.0002963
3462.52	0.0004327
3472.17	0.00033177
3481.81	0.0001919
3491.46	9.7e-05
3501.1	0.00024537
3510.75	0.000192
3520.39	0.000185
3530.04	0.0003631
3539.68	0.00031838
3549.32	0.000133
3558.97	0.0002015
3568.61	0.000137
3578.26	0.0001509
3587.9	0.0004641
3597.55	0.0003758
3607.19	0.0004055
3616.84	0.0003219
3626.48	0.00047
3636.13	0.00031814
3645.77	0.0004601
3655.42	0.0004161
3665.06	0.0004696
3674.71	0.000403
3684.35	0.0005424
3694	0.00028739
3703.64	0.0003965
3713.29	0.000409
3722.93	0.0003759
3732.58	0.0003488
3742.22	0.0004189
3751.86	0.0002065
3761.51	0.00032085
3771.15	0.0005157
3780.8	0.0006577
3790.44	0.0008414
3800.09	0.0004961
3809.73	0.0003991
3819.38	0.0003746
3829.02	0.0004469
3838.67	0.000488
3848.31	0.0005921
3857.96	0.0005867
3867.6	0.0006566
3877.25	0.0005052
3886.89	0.0005625
3896.54	0.0006796
3906.18	0.0005783
3915.83	0.0007025
3925.47	0.0009035
3935.12	0.0007942
3944.76	0.0005803
3954.41	0.0006924
3964.05	0.0007163
3973.69	0.0009658
3983.34	0.0009507
3992.98	0.000988
