Infrared Spectrum: 3,4-Methylenedioxybenzyl isothiocyanate
Formula: C 9 H 7 N O 2 S
CAS: 4430-47-1
State: gas
Origin: EPA-IR VAPOR PHASE LIBRARY
1/CM	ABSORBANCE
549.8	0.01154
559.446	0.00978
569.092	0.00809
578.738	0.00723
588.384	0.00696
598.03	0.00633
607.676	0.00569
617.322	0.00569
626.968	0.00625
636.614	0.00621
646.26	0.00603
655.906	0.00569
665.552	0.00552
675.198	0.00639
684.844	0.01014
694.49	0.01612
704.136	0.01951
713.782	0.01964
723.428	0.01472
733.073	0.01328
742.719	0.0122
752.365	0.01164
762.011	0.01379
771.657	0.01438
781.303	0.01194
790.949	0.01374
800.595	0.02089
810.241	0.02407
819.887	0.01407
829.533	0.00917
839.179	0.00898
848.825	0.01041
858.471	0.01239
868.117	0.00857
877.763	0.00485
887.409	0.00431
897.055	0.00577
906.701	0.01055
916.347	0.01926
925.993	0.02794
935.639	0.03393
945.285	0.03357
954.931	0.02479
964.577	0.01505
974.223	0.00868
983.869	0.00646
993.515	0.0064
1003.16	0.00831
1012.81	0.01276
1022.45	0.02316
1032.1	0.04324
1041.74	0.06982
1051.39	0.07663
1061.04	0.05441
1070.68	0.02861
1080.33	0.0179
1089.97	0.0184
1099.62	0.02156
1109.27	0.02096
1118.91	0.02032
1128.56	0.01671
1138.2	0.01053
1147.85	0.00743
1157.5	0.00638
1167.14	0.00716
1176.79	0.01154
1186.43	0.02977
1196.08	0.03747
1205.73	0.0304
1215.37	0.04188
1225.02	0.06401
1234.66	0.09826
1244.31	0.16599
1253.96	0.16943
1263.6	0.07183
1273.25	0.03097
1282.89	0.02082
1292.54	0.01901
1302.19	0.02319
1311.83	0.03747
1321.48	0.06595
1331.12	0.06587
1340.77	0.04371
1350.42	0.03834
1360.06	0.04413
1369.71	0.03629
1379.35	0.01867
1389	0.01251
1398.65	0.01133
1408.29	0.01138
1417.94	0.01634
1427.58	0.0317
1437.23	0.06852
1446.88	0.10552
1456.52	0.07947
1466.17	0.03114
1475.81	0.04129
1485.46	0.1217
1495.11	0.15469
1504.75	0.07456
1514.4	0.04157
1524.04	0.0154
1533.69	0.00963
1543.34	0.00648
1552.98	0.00484
1562.63	0.00442
1572.27	0.00458
1581.92	0.00476
1591.57	0.0052
1601.21	0.0063
1610.86	0.00665
1620.5	0.00568
1630.15	0.00479
1639.79	0.00366
1649.44	0.0028705
1659.09	0.0025337
1668.73	0.0024645
1678.38	0.0026367
1688.02	0.0030099
1697.67	0.00356
1707.32	0.00425
1716.96	0.00452
1726.61	0.00389
1736.25	0.00328
1745.9	0.00318
1755.55	0.00347
1765.19	0.00366
1774.84	0.00333
1784.48	0.0029683
1794.13	0.0027338
1803.78	0.0028787
1813.42	0.00353
1823.07	0.00456
1832.71	0.00542
1842.36	0.00564
1852.01	0.0057
1861.65	0.0065
1871.3	0.00711
1880.94	0.00721
1890.59	0.00749
1900.24	0.00801
1909.88	0.00913
1919.53	0.0109
1929.17	0.01309
1938.82	0.01613
1948.47	0.02059
1958.11	0.02713
1967.76	0.0366
1977.4	0.05028
1987.05	0.06973
1996.7	0.09625
2006.34	0.13027
2015.99	0.17108
2025.63	0.21491
2035.28	0.25468
2044.93	0.28465
2054.57	0.29551
2064.22	0.2775
2073.86	0.23855
2083.51	0.18102
2093.16	0.1255
2102.8	0.08604
2112.45	0.06087
2122.09	0.04691
2131.74	0.04058
2141.39	0.03932
2151.03	0.04145
2160.68	0.04613
2170.32	0.05191
2179.97	0.05259
2189.62	0.04467
2199.26	0.03495
2208.91	0.02781
2218.55	0.0217
2228.2	0.01647
2237.85	0.01294
2247.49	0.01079
2257.14	0.00928
2266.78	0.00796
2276.43	0.00691
2286.08	0.0062
2295.72	0.00571
2305.37	0.00521
2315.01	0.00465
2324.66	0.00406
2334.31	0.00347
2343.95	0.00314
2353.6	0.0028843
2363.24	0.0028819
2372.89	0.0028111
2382.53	0.0027039
2392.18	0.0023861
2401.83	0.00214931
2411.47	0.001973
2421.12	0.001891
2430.76	0.001783
2440.41	0.00182
2450.06	0.001797
2459.7	0.00187
2469.35	0.001989
2478.99	0.0020337
2488.64	0.002203
2498.29	0.0023176
2507.93	0.002378
2517.58	0.0024125
2527.22	0.002648
2536.87	0.0028485
2546.52	0.0029428
2556.16	0.0030548
2565.81	0.0030002
2575.45	0.0030818
2585.1	0.0029473
2594.75	0.0029122
2604.39	0.0030008
2614.04	0.00315
2623.68	0.0027748
2633.33	0.0024142
2642.98	0.0024167
2652.62	0.0025112
2662.27	0.0027141
2671.91	0.00316
2681.56	0.0036
2691.21	0.00377
2700.85	0.00383
2710.5	0.00369
2720.14	0.0038
2729.79	0.00404
2739.44	0.00441
2749.08	0.00507
2758.73	0.00622
2768.37	0.00941
2778.02	0.01235
2787.67	0.00822
2797.31	0.00622
2806.96	0.00597
2816.6	0.00612
2826.25	0.00668
2835.9	0.00809
2845.54	0.00991
2855.19	0.01299
2864.83	0.01908
2874.48	0.02659
2884.13	0.03124
2893.77	0.02986
2903.42	0.02693
2913.06	0.027
2922.71	0.02892
2932.36	0.03013
2942	0.02893
2951.65	0.0269
2961.29	0.02164
2970.94	0.01443
2980.59	0.00984
2990.23	0.00825
2999.88	0.00867
3009.52	0.00971
3019.17	0.01181
3028.82	0.01056
3038.46	0.00963
3048.11	0.00823
3057.75	0.0059
3067.4	0.00511
3077.04	0.00545
3086.69	0.00415
3096.34	0.0026439
3105.98	0.0019969
3115.63	0.001538
3125.27	0.00097
3134.92	0.00062
3144.57	0.00037
3154.21	0.0004
3163.86	0.00022
3173.5	0.00029
3183.15	0
3192.8	0.00018
3202.44	0.00028
3212.09	0.0002
3221.73	0.0003
3231.38	0.00036
3241.03	0.00037
3250.67	0.00042
3260.32	0.00037
3269.96	0.0002
3279.61	0.00028
3289.26	0.00033
3298.9	0.00021
3308.55	0.00021
3318.19	0.00022
3327.84	0.00031
3337.49	0.00028
3347.13	0.00024
3356.78	0.00021
3366.42	0.00031
3376.07	0.00034
3385.72	0.00029
3395.36	0.00038
3405.01	0.00036
3414.65	0.00041
3424.3	0.00023
3433.95	0.00047
3443.59	0.00032
3453.24	0.00036
3462.88	0.00052
3472.53	0.00037
3482.18	0.00052
3491.82	0.00054
3501.47	0.00054
3511.11	0.00064
3520.76	0.00062
3530.41	0.00068
3540.05	0.00067
3549.7	0.00075
3559.34	0.00055
3568.99	0.00053
3578.64	0.00056
3588.28	0.00059
3597.93	0.00064
3607.57	0.00068
3617.22	0.00094
3626.87	0.00079
3636.51	0.00072
3646.16	0.00071
3655.8	0.00067
3665.45	0.00071
3675.1	0.00079
3684.74	0.00083
3694.39	0.00073
3704.03	0.00073
3713.68	0.00082
3723.33	0.00078
3732.97	0.00086
3742.62	0.00081
3752.26	0.00086
3761.91	0.001
3771.56	0.001
3781.2	0.00099
3790.85	0.00106
3800.49	0.00106
3810.14	0.001191
3819.78	0.001246
3829.43	0.001161
3839.08	0.001171
3848.72	0.00089
3858.37	0.00107
3868.01	0.001333
3877.66	0.001319
3887.31	0.001188
3896.95	0.001383
3906.6	0.001325
3916.24	0.001342
3925.89	0.001521
3935.54	0.001733
3945.18	0.001698
3954.83	0.001658
3964.47	0.00178
3974.12	0.0020058
3983.77	0.0020364
3993.41	0.0019907
