Infrared Spectrum: ETHYLDIHYDROXYBORANE
Formula: C2 H7 O2 B
CAS: 4433-63-0
State: LIQUID;
Class: COBLENTZ
Instrument: Not specified, most likely a prism, grating, or hybrid spectrometer.
Sampling: TRANSMISSION
Path length: CAPILLARY
Resolution: 4
Origin: KALLERY CHEMICAL COMPANY
MICROMETERS	TRANSMITTANCE
2.027	0.991
2.06758	0.981
2.10817	0.98
2.14875	0.98
2.18934	0.98
2.22992	0.973
2.2705	0.968
2.31109	0.966
2.35167	0.966
2.39226	0.966
2.43284	0.968
2.47342	0.97
2.51401	0.976
2.55459	0.975
2.59518	0.975
2.63576	0.976
2.67634	0.975
2.71693	0.945
2.75751	0.86
2.79809	0.715
2.83868	0.588
2.87926	0.518
2.91985	0.503
2.96043	0.513
3.00101	0.541
3.0416	0.578
3.08218	0.623
3.12277	0.666
3.16335	0.713
3.20393	0.761
3.24452	0.796
3.2851	0.816
3.32569	0.576
3.36627	0.551
3.40685	0.548
3.44744	0.588
3.48802	0.688
3.52861	0.846
3.56919	0.893
3.60977	0.911
3.65036	0.926
3.69094	0.941
3.73153	0.953
3.77211	0.961
3.81269	0.965
3.85328	0.966
3.89386	0.968
3.93445	0.97
3.97503	0.971
4.01561	0.97
4.0562	0.97
4.09678	0.97
4.13736	0.971
4.17795	0.973
4.21853	0.98
4.25912	0.981
4.2997	0.981
4.34028	0.981
4.38087	0.983
4.42145	0.98
4.46204	0.98
4.50262	0.98
4.5432	0.98
4.58379	0.98
4.62437	0.981
4.66496	0.981
4.70554	0.981
4.74612	0.983
4.78671	0.983
4.82729	0.983
4.86788	0.981
4.90846	0.981
4.94904	0.981
4.98963	0.981
5.03021	0.981
5.0708	0.98
5.11138	0.98
5.15196	0.98
5.19255	0.978
5.23313	0.978
5.27372	0.978
5.3143	0.978
5.35488	0.976
5.39547	0.976
5.43605	0.976
5.47663	0.976
5.51722	0.976
5.5578	0.976
5.59839	0.973
5.63897	0.971
5.67955	0.961
5.72014	0.951
5.76072	0.938
5.80131	0.875
5.84189	0.811
5.88247	0.815
5.92306	0.895
5.96364	0.898
6.00423	0.9
6.04481	0.891
6.08539	0.888
6.12598	0.888
6.16656	0.898
6.20715	0.91
6.24773	0.918
6.28831	0.92
6.3289	0.93
6.36948	0.931
6.41007	0.931
6.45065	0.93
6.49123	0.926
6.53182	0.918
6.5724	0.916
6.61299	0.901
6.65357	0.871
6.69415	0.81
6.73474	0.748
6.77532	0.703
6.8159	0.6
6.85649	0.59
6.89707	0.663
6.93766	0.67
6.97824	0.648
7.01882	0.606
7.05941	0.58
7.09999	0.558
7.14058	0.533
7.18116	0.496
7.22174	0.46
7.26233	0.43
7.30291	0.415
7.3435	0.401
7.38408	0.373
7.42466	0.358
7.46525	0.371
7.50583	0.403
7.54642	0.438
7.587	0.473
7.62758	0.531
7.66817	0.588
7.70875	0.651
7.74934	0.67
7.78992	0.69
7.8305	0.711
7.87109	0.711
7.91167	0.698
7.95226	0.665
7.99284	0.63
8.03342	0.568
8.07401	0.545
8.11459	0.533
8.15517	0.53
8.19576	0.553
8.23634	0.6
8.27693	0.65
8.31751	0.676
8.35809	0.685
8.39868	0.695
8.43926	0.701
8.47985	0.7
8.52043	0.7
8.56101	0.7
8.6016	0.705
8.64218	0.71
8.68277	0.711
8.72335	0.711
8.76393	0.713
8.80452	0.715
8.8451	0.715
8.88569	0.715
8.92627	0.711
8.96685	0.708
9.00744	0.696
9.04802	0.685
9.08861	0.67
9.12919	0.656
9.16977	0.65
9.21036	0.665
9.25094	0.668
9.29153	0.666
9.33211	0.661
9.37269	0.651
9.41328	0.645
9.45386	0.638
9.49444	0.62
9.53503	0.593
9.57561	0.59
9.6162	0.6
9.65678	0.618
9.69736	0.628
9.73795	0.635
9.77853	0.641
9.81912	0.656
9.8597	0.675
9.90028	0.696
9.94087	0.718
9.98145	0.74
10.022	0.753
10.0626	0.763
10.1032	0.775
10.1438	0.783
10.1844	0.788
10.225	0.79
10.2655	0.796
10.3061	0.8
10.3467	0.816
10.3873	0.821
10.4279	0.826
10.4685	0.83
10.509	0.831
10.5496	0.833
10.5902	0.833
10.6308	0.831
10.6714	0.825
10.712	0.818
10.7525	0.808
10.7931	0.795
10.8337	0.783
10.8743	0.775
10.9149	0.771
10.9555	0.771
10.9961	0.773
11.0366	0.785
11.0772	0.798
11.1178	0.806
11.1584	0.813
11.199	0.82
11.2396	0.821
11.2801	0.818
11.3207	0.803
11.3613	0.79
11.4019	0.785
11.4425	0.788
11.4831	0.801
11.5236	0.813
11.5642	0.823
11.6048	0.831
11.6454	0.833
11.686	0.835
11.7266	0.835
11.7671	0.835
11.8077	0.835
11.8483	0.836
11.8889	0.835
11.9295	0.833
11.9701	0.831
12.0106	0.828
12.0512	0.828
12.0918	0.825
12.1324	0.821
12.173	0.818
12.2136	0.816
12.2542	0.81
12.2947	0.8
12.3353	0.793
12.3759	0.793
12.4165	0.791
12.4571	0.79
12.4977	0.79
12.5382	0.79
12.5788	0.788
12.6194	0.786
12.66	0.783
12.7006	0.775
12.7412	0.765
12.7817	0.753
12.8223	0.738
12.8629	0.718
12.9035	0.713
12.9441	0.711
12.9847	0.711
13.0252	0.715
13.0658	0.716
13.1064	0.718
13.147	0.728
13.1876	0.74
13.2282	0.75
13.2688	0.756
13.3093	0.766
13.3499	0.77
13.3905	0.775
13.4311	0.778
13.4717	0.781
13.5123	0.783
13.5528	0.786
13.5934	0.79
13.634	0.795
13.6746	0.795
13.7152	0.796
13.7558	0.798
13.7963	0.798
13.8369	0.8
13.8775	0.8
13.9181	0.8
13.9587	0.8
13.9993	0.8
14.0398	0.8
14.0804	0.8
14.121	0.798
14.1616	0.8
14.2022	0.8
14.2428	0.798
14.2833	0.798
14.3239	0.798
14.3645	0.796
14.4051	0.796
14.4457	0.795
14.4863	0.795
14.5269	0.791
14.5674	0.79
14.608	0.786
14.6486	0.785
14.6892	0.781
14.7298	0.778
14.7704	0.775
14.8109	0.77
14.8515	0.768
14.8921	0.761
14.9327	0.753
14.9733	0.75
15.0139	0.743
15.0544	0.735
15.095	0.73
15.1356	0.723
15.1762	0.718
15.2168	0.716
15.2574	0.713
15.2979	0.706
15.3385	0.701
15.3791	0.696
15.4197	0.693
15.4603	0.686
15.5009	0.683
15.5415	0.681
15.582	0.68
