Infrared Spectrum: n-Undecanophenone
Formula: C 17 H 26 O
CAS: 4433-30-1
State: gas
Origin: EPA-IR VAPOR PHASE LIBRARY
1/CM	ABSORBANCE
549.9	0.0018688
559.547	0.00353
569.193	0.00583
578.84	0.00485
588.486	0.00438
598.133	0.00569
607.779	0.0044
617.426	0.00288
627.072	0.0020543
636.719	0.00266
646.365	0.005
656.012	0.00756
665.658	0.00846
675.305	0.01245
684.951	0.02406
694.598	0.03108
704.245	0.01841
713.891	0.01343
723.538	0.01335
733.184	0.01531
742.831	0.01723
752.477	0.01581
762.124	0.0115
771.77	0.00851
781.417	0.00609
791.063	0.00449
800.71	0.00341
810.356	0.00264
820.003	0.0022686
829.649	0.0022685
839.296	0.00247
848.943	0.0023161
858.589	0.0022432
868.236	0.00256
877.882	0.00278
887.529	0.00325
897.175	0.00353
906.822	0.00375
916.468	0.00435
926.115	0.00477
935.761	0.00534
945.408	0.00712
955.054	0.01
964.701	0.01257
974.347	0.01351
983.994	0.01278
993.64	0.01252
1003.29	0.01586
1012.93	0.01334
1022.58	0.00961
1032.23	0.00559
1041.87	0.00439
1051.52	0.00429
1061.17	0.00465
1070.81	0.0048
1080.46	0.00382
1090.11	0.00306
1099.75	0.00303
1109.4	0.00335
1119.05	0.00333
1128.69	0.0029
1138.34	0.00334
1147.99	0.00451
1157.63	0.00693
1167.28	0.00957
1176.92	0.02007
1186.57	0.01788
1196.22	0.0189
1205.86	0.02906
1215.51	0.033
1225.16	0.02932
1234.8	0.02619
1244.45	0.02618
1254.1	0.02717
1263.74	0.02991
1273.39	0.02717
1283.04	0.02261
1292.68	0.01978
1302.33	0.01701
1311.98	0.01746
1321.62	0.01789
1331.27	0.01669
1340.92	0.0183
1350.56	0.02131
1360.21	0.01927
1369.86	0.0148
1379.5	0.01081
1389.15	0.00763
1398.79	0.00592
1408.44	0.0066
1418.09	0.00766
1427.73	0.00855
1437.38	0.01358
1447.03	0.02629
1456.67	0.02476
1466.32	0.0194
1475.97	0.01116
1485.61	0.00622
1495.26	0.00445
1504.91	0.00338
1514.55	0.00295
1524.2	0.00289
1533.85	0.00276
1543.49	0.00258
1553.14	0.00273
1562.79	0.00348
1572.43	0.0055
1582.08	0.00778
1591.73	0.0081
1601.37	0.00856
1611.02	0.0053
1620.67	0.00374
1630.31	0.0032
1639.96	0.00348
1649.6	0.00452
1659.25	0.00663
1668.9	0.00975
1678.54	0.01834
1688.19	0.04582
1697.84	0.08807
1707.48	0.07178
1717.13	0.02585
1726.78	0.01019
1736.42	0.0059
1746.07	0.00438
1755.72	0.00358
1765.36	0.00307
1775.01	0.00254
1784.66	0.0021476
1794.3	0.0024098
1803.95	0.00322
1813.6	0.00266
1823.24	0.0019539
1832.89	0.0016037
1842.54	0.00143395
1852.18	0.0014279
1861.83	0.0014182
1871.47	0.0016014
1881.12	0.0019208
1890.77	0.0021746
1900.41	0.0022343
1910.06	0.0020108
1919.71	0.0016385
1929.35	0.00151228
1939	0.0017141
1948.65	0.0023051
1958.29	0.00255
1967.94	0.0024007
1977.59	0.0016688
1987.23	0.001313
1996.88	0.001175
2006.53	0.001136
2016.17	0.001193
2025.82	0.001235
2035.47	0.001235
2045.11	0.001207
2054.76	0.001202
2064.41	0.001133
2074.05	0.001067
2083.7	0.001051
2093.35	0.00102
2102.99	0.001012
2112.64	0.000967
2122.28	0.001022
2131.93	0.000967
2141.58	0.001034
2151.22	0.001093
2160.87	0.001024
2170.52	0.001071
2180.16	0.001125
2189.81	0.001121
2199.46	0.001054
2209.1	0.001078
2218.75	0.001075
2228.4	0.001154
2238.04	0.001147
2247.69	0.001133
2257.34	0.001152
2266.98	0.001199
2276.63	0.001283
2286.28	0.00128
2295.92	0.001235
2305.57	0.00134
2315.22	0.0016316
2324.86	0.00150824
2334.51	0.0014209
2344.16	0.0013434
2353.8	0.001316
2363.45	0.001185
2373.09	0.001279
2382.74	0.001325
2392.39	0.001256
2402.03	0.001289
2411.68	0.001294
2421.33	0.00125
2430.97	0.001221
2440.62	0.001233
2450.27	0.001242
2459.91	0.001072
2469.56	0.001181
2479.21	0.001179
2488.85	0.001163
2498.5	0.001226
2508.15	0.001219
2517.79	0.001276
2527.44	0.001351
2537.09	0.0013527
2546.73	0.0014166
2556.38	0.00143344
2566.03	0.00152338
2575.67	0.0016064
2585.32	0.0017133
2594.96	0.001842
2604.61	0.0019351
2614.26	0.0018858
2623.9	0.0020234
2633.55	0.002082
2643.2	0.0022024
2652.84	0.0024183
2662.49	0.00252
2672.14	0.00276
2681.78	0.00282
2691.43	0.00277
2701.08	0.00259
2710.72	0.00262
2720.37	0.00257
2730.02	0.00273
2739.66	0.003
2749.31	0.00311
2758.96	0.00328
2768.6	0.00349
2778.25	0.00393
2787.9	0.00464
2797.54	0.00574
2807.19	0.00707
2816.84	0.00873
2826.48	0.01116
2836.13	0.01525
2845.77	0.02612
2855.42	0.05583
2865.07	0.07833
2874.71	0.06181
2884.36	0.05106
2894.01	0.0492
2903.65	0.06405
2913.3	0.09291
2922.95	0.15075
2932.59	0.20886
2942.24	0.16457
2951.89	0.104
2961.53	0.08485
2971.18	0.0705
2980.83	0.03612
2990.47	0.02021
3000.12	0.01339
3009.77	0.01057
3019.41	0.0098
3029.06	0.01131
3038.71	0.01236
3048.35	0.01125
3058	0.01339
3067.64	0.02009
3077.29	0.0191
3086.94	0.01501
3096.58	0.01102
3106.23	0.00675
3115.88	0.0037
3125.52	0.0024013
3135.17	0.0018178
3144.82	0.0017961
3154.46	0.0016898
3164.11	0.0013588
3173.76	0.001012
3183.4	0.001002
3193.05	0.000941
3202.7	0.000652
3212.34	0.000489
3221.99	0.00043
3231.64	0.00032
3241.28	0.00035
3250.93	0.00035
3260.58	0.000451
3270.22	0.0003
3279.87	0.00021
3289.52	0.00024
3299.16	0.00034
3308.81	8e-05
3318.45	0.00033
3328.1	0.00038
3337.75	0.00038
3347.39	0.00043
3357.04	0.000653
3366.69	0.001165
3376.33	0.0018433
3385.98	0.0016319
3395.63	0.001238
3405.27	0.000544
3414.92	0.00038
3424.57	0.00032
3434.21	0.00029
3443.86	0.000476
3453.51	0.00031
3463.15	0.00015
3472.8	0.00033
3482.45	0.00015
3492.09	0.00017
3501.74	0.00025
3511.39	0.00019
3521.03	0.00021
3530.68	0.00033
3540.33	0.00025
3549.97	5e-05
3559.62	0.00028
3569.26	0.00034
3578.91	0.00033
3588.56	0.00036
3598.2	0.000466
3607.85	0.00039
3617.5	0.000497
3627.14	0.000637
3636.79	0.000635
3646.44	0.000728
3656.08	0.000922
3665.73	0.000673
3675.38	0.000728
3685.02	0.000629
3694.67	0.000792
3704.32	0.000675
3713.96	0.000764
3723.61	0.000851
3733.26	0.000686
3742.9	0.000495
3752.55	0.000527
3762.2	0.000797
3771.84	0.000701
3781.49	0.000695
3791.13	0.000726
3800.78	0.000694
3810.43	0.000672
3820.07	0.000759
3829.72	0.000749
3839.37	0.000759
3849.01	0.000624
3858.66	0.000708
3868.31	0.000711
3877.95	0.000718
3887.6	0.000737
3897.25	0.000847
3906.89	0.000766
3916.54	0.00082
3926.19	0.000866
3935.83	0.000908
3945.48	0.000881
3955.13	0.001
3964.77	0.001016
3974.42	0.001086
3984.07	0.001063
3993.71	0.001104
