Infrared Spectrum: Acetoacetanilide, 4'-chloro-2',5'-dimethoxy-
Formula: C12 H14 Cl N O4
CAS: 4433-79-8
State: SOLID (SPLIT MULL), FLUOROLUBE FOR 3800-1330 CM^-^1, NUJOL FOR 1330-400 CM^-^1
Melting point: 107 C
Class: COBLENTZ III
Instrument: BECKMAN IR-9 (GRATING)
Instrument parameters: ORDER CHANGES: 670, 1200, 2000 CM^-^1
Sampling: TRANSMISSION
Resolution: 2
Origin: DOW CHEMICAL COMPANY
1/CM	TRANSMITTANCE
401	0.53
410	0.4859
419	0.5201
428	0.5751
437	0.6147
446	0.6889
455	0.6884
464	0.7165
473	0.6725
482	0.5486
491	0.6911
500	0.7633
509	0.794
518	0.8185
527	0.829
536	0.8337
545	0.8349
554	0.8296
563	0.784
572	0.5014
581	0.7828
590	0.568
599	0.7864
608	0.8503
617	0.8494
626	0.6448
635	0.8545
644	0.869
653	0.8721
662	0.8703
671	0.8653
680	0.8581
689	0.8493
698	0.8348
707	0.721
716	0.7344
725	0.6718
734	0.5978
743	0.1572
752	0.4367
761	0.3938
770	0.3625
779	0.5834
788	0.7278
797	0.7792
806	0.7968
815	0.7953
824	0.7515
833	0.5253
842	0.4467
851	0.35
860	0.592
869	0.1734
878	0.7442
887	0.7951
896	0.8061
905	0.8097
914	0.8089
923	0.8086
932	0.798
941	0.7933
950	0.7828
959	0.7591
968	0.7351
977	0.7018
986	0.5902
995	0.591
1004	0.676
1013	0.5989
1022	0.3709
1031	0.0817
1040	0.1351
1049	0.5725
1058	0.3183
1067	0.5322
1076	0.7061
1085	0.7332
1094	0.7361
1103	0.7315
1112	0.7268
1121	0.7192
1130	0.689
1139	0.6051
1148	0.4106
1157	0.2782
1166	0.4892
1175	0.5181
1184	0.5383
1193	0.3239
1202	0.369
1211	0.0119
1220	0.0593
1229	0.2716
1238	0.3152
1247	0.1437
1256	0.3409
1265	0.5959
1274	0.6496
1283	0.5767
1292	0.653
1301	0.6844
1310	0.6767
1319	0.6393
1328	0.5362
1337	0.47
1346	0.3852
1355	0.1683
1364	0.1768
1373	0.1407
1382	0.4683
1391	0.3377
1400	0.0255
1409	0.32
1418	0.4704
1427	0.434
1436	0.378
1445	0.1146
1454	0.0505
1463	0.0403
1472	0.2847
1481	0.2192
1490	0.0232
1499	0.1001
1508	0.1739
1517	0.1765
1526	0.0363
1535	0.0048
1544	0.0112
1553	0.1387
1562	0.4395
1571	0.521
1580	0.3947
1589	0.1413
1598	0.0709
1607	0.3645
1616	0.4229
1625	0.6171
1634	0.6352
1643	0.6505
1652	0.5946
1661	0.4497
1670	0.2043
1679	0.1719
1688	0.5908
1697	0.5725
1706	0.2731
1715	0.0654
1724	0.2637
1733	0.3638
1742	0.6918
1751	0.7741
1760	0.8297
1769	0.8405
1778	0.8468
1787	0.8459
1796	0.8354
1805	0.8371
1814	0.8454
1823	0.8467
1832	0.8439
1841	0.8388
1850	0.832
1859	0.8281
1868	0.8248
1877	0.8187
1886	0.8125
1895	0.8141
1904	0.8106
1913	0.8078
1922	0.8038
1931	0.7992
1940	0.798
1949	0.7968
1958	0.791
1967	0.7903
1976	0.7891
1985	0.7835
1994	0.7745
2003	0.7644
2012	0.7584
2021	0.7521
2030	0.7503
2039	0.7555
2048	0.7469
2057	0.7367
2066	0.7383
2075	0.7418
2084	0.7404
2093	0.7372
2102	0.7348
2111	0.7324
2120	0.7294
2129	0.7258
2138	0.7234
2147	0.7193
2156	0.7141
2165	0.7088
2174	0.7007
2183	0.6907
2192	0.6803
2201	0.6792
2210	0.6792
2219	0.6801
2228	0.6811
2237	0.6771
2246	0.6721
2255	0.6658
2264	0.6601
2273	0.6543
2282	0.65
2291	0.6467
2300	0.6433
2309	0.6398
2318	0.6373
2327	0.6349
2336	0.6326
2345	0.6305
2354	0.6285
2363	0.6271
2372	0.627
2381	0.6275
2390	0.6281
2399	0.6288
2408	0.6292
2417	0.6285
2426	0.6277
2435	0.6249
2444	0.6221
2453	0.6178
2462	0.6131
2471	0.6086
2480	0.6041
2489	0.6006
2498	0.6012
2507	0.6025
2516	0.6036
2525	0.6041
2534	0.6015
2543	0.598
2552	0.598
2561	0.5982
2570	0.5972
2579	0.594
2588	0.5908
2597	0.5947
2606	0.5956
2615	0.5933
2624	0.5905
2633	0.5868
2642	0.5828
2651	0.5787
2660	0.5759
2669	0.5732
2678	0.5705
2687	0.5675
2696	0.5639
2705	0.5603
2714	0.5568
2723	0.5534
2732	0.5501
2741	0.5468
2750	0.5436
2759	0.5393
2768	0.5349
2777	0.5291
2786	0.5232
2795	0.5166
2804	0.5081
2813	0.496
2822	0.473
2831	0.4542
2840	0.4431
2849	0.448
2858	0.4532
2867	0.4358
2876	0.4686
2885	0.453
2894	0.4253
2903	0.4162
2912	0.387
2921	0.3792
2930	0.3582
2939	0.3382
2948	0.3466
2957	0.3968
2966	0.2923
2975	0.3593
2984	0.4496
2993	0.4602
3002	0.4564
3011	0.4435
3020	0.4115
3029	0.3829
3038	0.4458
3047	0.4562
3056	0.455
3065	0.4508
3074	0.4437
3083	0.4374
3092	0.4368
3101	0.4352
3110	0.4295
3119	0.4173
3128	0.4029
3137	0.395
3146	0.4045
3155	0.4135
3164	0.4143
3173	0.4095
3182	0.3982
3191	0.3844
3200	0.37
3209	0.3508
3218	0.33
3227	0.3012
3236	0.2509
3245	0.2054
3254	0.1664
3263	0.1429
3272	0.1722
3281	0.2902
3290	0.3532
3299	0.399
3308	0.4267
3317	0.4336
3326	0.4372
3335	0.4472
3344	0.457
3353	0.4594
3362	0.4591
3371	0.4582
3380	0.4574
3389	0.4556
3398	0.4537
3407	0.4514
3416	0.4497
3425	0.4481
3434	0.4466
3443	0.4452
3452	0.4443
3461	0.4432
3470	0.442
3479	0.4407
3488	0.4394
3497	0.4383
3506	0.4373
3515	0.4362
3524	0.4351
3533	0.4338
3542	0.4325
3551	0.4312
3560	0.4299
3569	0.4286
3578	0.4274
3587	0.426
3596	0.4249
3605	0.4235
3614	0.4222
3623	0.4208
3632	0.4194
3641	0.4178
3650	0.4162
3659	0.4148
3668	0.4132
3677	0.4116
3686	0.41
3695	0.4084
3704	0.407
3713	0.4055
3722	0.4042
3731	0.4032
3740	0.4022
3749	0.4004
3758	0.3986
3767	0.3974
3776	0.3966
3785	0.3959
3794	0.3952
