Infrared Spectrum: 3,4-Hexanedione
Formula: C 6 H 10 O 2
CAS: 4437-51-8
State: gas
Origin: EPA-IR VAPOR PHASE LIBRARY
1/CM	ABSORBANCE
549.9	0.01025
559.547	0.01126
569.193	0.01066
578.84	0.00835
588.486	0.00585
598.133	0.0045
607.779	0.00379
617.426	0.00328
627.072	0.00287
636.719	0.00271
646.365	0.00294
656.012	0.00376
665.658	0.00535
675.305	0.00637
684.951	0.00605
694.598	0.00492
704.245	0.00422
713.891	0.00362
723.538	0.00336
733.184	0.00352
742.831	0.00369
752.477	0.00386
762.124	0.00429
771.77	0.00441
781.417	0.0044
791.063	0.00472
800.71	0.00536
810.356	0.00601
820.003	0.00688
829.649	0.00802
839.296	0.00942
848.943	0.01128
858.589	0.01435
868.236	0.02222
877.882	0.04193
887.529	0.06182
897.175	0.0584
906.822	0.0307
916.468	0.01268
926.115	0.00672
935.761	0.00464
945.408	0.00384
955.054	0.0036
964.701	0.0039
974.347	0.00478
983.994	0.00594
993.64	0.00835
1003.29	0.01021
1012.93	0.00964
1022.58	0.00722
1032.23	0.00653
1041.87	0.00692
1051.52	0.00782
1061.17	0.00956
1070.81	0.01358
1080.46	0.02055
1090.11	0.02574
1099.75	0.02498
1109.4	0.0197
1119.05	0.01457
1128.69	0.01162
1138.34	0.0088
1147.99	0.0062
1157.63	0.00443
1167.28	0.00406
1176.92	0.004
1186.57	0.00442
1196.22	0.00507
1205.86	0.0063
1215.51	0.00687
1225.16	0.00654
1234.8	0.0063
1244.45	0.00677
1254.1	0.00707
1263.74	0.00761
1273.39	0.00735
1283.04	0.00695
1292.68	0.00769
1302.33	0.00952
1311.98	0.01133
1321.62	0.01291
1331.27	0.01424
1340.92	0.01478
1350.56	0.01319
1360.21	0.01085
1369.86	0.01046
1379.5	0.01293
1389.15	0.01517
1398.79	0.01749
1408.44	0.01924
1418.09	0.02015
1427.73	0.01986
1437.38	0.01844
1447.03	0.01806
1456.67	0.02099
1466.32	0.02021
1475.97	0.01621
1485.61	0.01012
1495.26	0.0071
1504.91	0.00563
1514.55	0.00474
1524.2	0.00408
1533.85	0.00373
1543.49	0.00327
1553.14	0.003
1562.79	0.00293
1572.43	0.00285
1582.08	0.0029
1591.73	0.00296
1601.37	0.00331
1611.02	0.00341
1620.67	0.00377
1630.31	0.00409
1639.96	0.0049
1649.6	0.00606
1659.25	0.00816
1668.9	0.01176
1678.54	0.01737
1688.19	0.0286
1697.84	0.05525
1707.48	0.10923
1717.13	0.15958
1726.78	0.15538
1736.42	0.09404
1746.07	0.0393
1755.72	0.01923
1765.36	0.01198
1775.01	0.00774
1784.66	0.00517
1794.3	0.00378
1803.95	0.00298
1813.6	0.0025
1823.24	0.00226
1832.89	0.0020812
1842.54	0.0019092
1852.18	0.0018466
1861.83	0.0018697
1871.47	0.0018403
1881.12	0.0017544
1890.77	0.0017209
1900.41	0.0017504
1910.06	0.00164
1919.71	0.0014851
1929.35	0.0014703
1939	0.0014365
1948.65	0.0013769
1958.29	0.0013879
1967.94	0.0012851
1977.59	0.00127723
1987.23	0.0011544
1996.88	0.00118338
2006.53	0.0011561
2016.17	0.0011268
2025.82	0.0011698
2035.47	0.0011467
2045.11	0.00122403
2054.76	0.00126585
2064.41	0.00121207
2074.05	0.001205
2083.7	0.0011027
2093.35	0.001048
2102.99	0.000985
2112.64	0.000903
2122.28	0.000886
2131.93	0.000909
2141.58	0.000813
2151.22	0.000753
2160.87	0.000804
2170.52	0.000876
2180.16	0.000854
2189.81	0.00093
2199.46	0.000929
2209.1	0.000939
2218.75	0.000975
2228.4	0.001004
2238.04	0.0010888
2247.69	0.0010835
2257.34	0.000948
2266.98	0.000957
2276.63	0.000884
2286.28	0.000837
2295.92	0.000787
2305.57	0.00081
2315.22	0.000831
2324.86	0.000789
2334.51	0.000846
2344.16	0.000895
2353.8	0.000998
2363.45	0.000938
2373.09	0.000937
2382.74	0.000918
2392.39	0.000861
2402.03	0.000775
2411.68	0.000714
2421.33	0.00067
2430.97	0.000712
2440.62	0.000645
2450.27	0.000687
2459.91	0.000716
2469.56	0.000596
2479.21	0.000525
2488.85	0.000468
2498.5	0.000426
2508.15	0.000448
2517.79	0.000432
2527.44	0.000402
2537.09	0.000356
2546.73	0.000333
2556.38	0.000272
2566.03	0.000316
2575.67	0.000212
2585.32	0.000214
2594.96	0.000273
2604.61	0.000249
2614.26	0.000286
2623.9	0.00016
2633.55	0.00011
2643.2	5e-05
2652.84	2e-05
2662.49	7e-05
2672.14	6e-05
2681.78	0.00016
2691.43	0.000187
2701.08	0.00021
2710.72	0.000318
2720.37	0.000362
2730.02	0.000519
2739.66	0.000775
2749.31	0.001026
2758.96	0.00117689
2768.6	0.001079
2778.25	0.00119668
2787.9	0.0013408
2797.54	0.0017098
2807.19	0.00218
2816.84	0.00256
2826.48	0.00295
2836.13	0.00362
2845.77	0.0044
2855.42	0.00565
2865.07	0.00772
2874.71	0.01151
2884.36	0.01851
2894.01	0.02353
2903.65	0.02449
2913.3	0.02457
2922.95	0.0256
2932.59	0.02783
2942.24	0.03879
2951.89	0.0439
2961.53	0.04041
2971.18	0.03659
2980.83	0.05148
2990.47	0.05715
3000.12	0.04159
3009.77	0.0215
3019.41	0.01295
3029.06	0.00906
3038.71	0.00668
3048.35	0.00498
3058	0.00372
3067.64	0.00291
3077.29	0.00241
3086.94	0.00229
3096.58	0.0021682
3106.23	0.0019209
3115.88	0.0017334
3125.52	0.0016772
3135.17	0.0015363
3144.82	0.0015167
3154.46	0.0016074
3164.11	0.0013686
3173.76	0.00118805
3183.4	0.001021
3193.05	0.000767
3202.7	0.000534
3212.34	0.000794
3221.99	0.000296
3231.64	0.000309
3241.28	0.000567
3250.93	0.000362
3260.58	0.000419
3270.22	0.000713
3279.87	0.000668
3289.52	0.000658
3299.16	0.000728
3308.81	0.000747
3318.45	0.000633
3328.1	0.000837
3337.75	0.000952
3347.39	0.001079
3357.04	0.000917
3366.69	0.00118878
3376.33	0.001627
3385.98	0.0015601
3395.63	0.00241
3405.27	0.00342
3414.92	0.00435
3424.57	0.00491
3434.21	0.00394
3443.86	0.00345
3453.51	0.00293
3463.15	0.002157
3472.8	0.002042
3482.45	0.001678
3492.09	0.0016334
3501.74	0.0014398
3511.39	0.00120201
3521.03	0.00125645
3530.68	0.0013943
3540.33	0.0011627
3549.97	0.0011527
3559.62	0.0014187
3569.26	0.0011588
3578.91	0.00108
3588.56	0.0011321
3598.2	0.000966
3607.85	0.000899
3617.5	0.00121386
3627.14	0.001025
3636.79	0.0010843
3646.44	0.000874
3656.08	0.000895
3665.73	0.001028
3675.38	0.000818
3685.02	0.001029
3694.67	0.000798
3704.32	0.000979
3713.96	0.001069
3723.61	0.000902
3733.26	0.000976
3742.9	0.000923
3752.55	0.000862
3762.2	0.000891
3771.84	0.000834
3781.49	0.000834
3791.13	0.000883
3800.78	0.000929
3810.43	0.000646
3820.07	0.000906
3829.72	0.000824
3839.37	0.000782
3849.01	0.00072
3858.66	0.000777
3868.31	0.000745
3877.95	0.000782
3887.6	0.000761
3897.25	0.000724
3906.89	0.000763
3916.54	0.000789
3926.19	0.000846
3935.83	0.0010951
3945.48	0.000924
3955.13	0.0011339
3964.77	0.000885
3974.42	0.000976
3984.07	0.000974
3993.71	0.000964
