Infrared Spectrum: 3,4-Methylene dioxyphenyl acetonitrile
Formula: C 9 H 7 N O 2
CAS: 4439-02-5
State: gas
Origin: EPA-IR VAPOR PHASE LIBRARY
1/CM	ABSORBANCE
549.8	0.003258
559.445	0.003558
569.09	0.003958
578.734	0.004098
588.379	0.004098
598.024	0.003668
607.669	0.002748
617.313	0.002628
626.958	0.002318
636.603	0.002688
646.248	0.002538
655.893	0.002378
665.537	0.002248
675.182	0.002188
684.827	0.002158
694.472	0.002368
704.116	0.002468
713.761	0.003568
723.406	0.002988
733.051	0.001878
742.695	0.002978
752.34	0.004368
761.985	0.007438
771.63	0.011018
781.275	0.014558
790.919	0.021588
800.564	0.032408
810.209	0.030028
819.854	0.016378
829.498	0.009888
839.143	0.010198
848.788	0.011818
858.433	0.011058
868.078	0.006808
877.722	0.004758
887.367	0.004998
897.012	0.007988
906.657	0.012218
916.301	0.018808
925.946	0.027468
935.591	0.036788
945.236	0.038848
954.88	0.027968
964.525	0.013498
974.17	0.006748
983.815	0.004678
993.46	0.004998
1003.1	0.007278
1012.75	0.012298
1022.39	0.022638
1032.04	0.041578
1041.68	0.068428
1051.33	0.078768
1060.97	0.055808
1070.62	0.026748
1080.26	0.014998
1089.91	0.015458
1099.55	0.017668
1109.2	0.020488
1118.84	0.022138
1128.49	0.015728
1138.13	0.008488
1147.78	0.005568
1157.42	0.005358
1167.07	0.007728
1176.71	0.018098
1186.36	0.041828
1196	0.042418
1205.64	0.029758
1215.29	0.037748
1224.93	0.053778
1234.58	0.099048
1244.22	0.183658
1253.87	0.157668
1263.51	0.058278
1273.16	0.027958
1282.8	0.020908
1292.45	0.019328
1302.09	0.016418
1311.74	0.011078
1321.38	0.009308
1331.03	0.010178
1340.67	0.012008
1350.32	0.017438
1359.96	0.023648
1369.61	0.015808
1379.25	0.007178
1388.9	0.007028
1398.54	0.008168
1408.18	0.008618
1417.83	0.012698
1427.47	0.027268
1437.12	0.063738
1446.76	0.090078
1456.41	0.047578
1466.05	0.023628
1475.7	0.049178
1485.34	0.158058
1494.99	0.186188
1504.63	0.088668
1514.28	0.048928
1523.92	0.019338
1533.57	0.010898
1543.21	0.007068
1552.86	0.005308
1562.5	0.004648
1572.15	0.004758
1581.79	0.004778
1591.44	0.005398
1601.08	0.006508
1610.73	0.006888
1620.37	0.005648
1630.01	0.004218
1639.66	0.003218
1649.3	0.002418
1658.95	0.002248
1668.59	0.002208
1678.24	0.002378
1687.88	0.002928
1697.53	0.003448
1707.17	0.003618
1716.82	0.003358
1726.46	0.002628
1736.11	0.002418
1745.75	0.002778
1755.4	0.003238
1765.04	0.003398
1774.69	0.002618
1784.33	0.002128
1793.98	0.001958
1803.62	0.002158
1813.27	0.002648
1822.91	0.003408
1832.55	0.003788
1842.2	0.004098
1851.84	0.004168
1861.49	0.004388
1871.13	0.004318
1880.78	0.003688
1890.42	0.003028
1900.07	0.002238
1909.71	0.001768
1919.36	0.001468
1929	0.001319
1938.65	0.0013284
1948.29	0.0011927
1957.94	0.0012091
1967.58	0.0014028
1977.23	0.0013915
1986.87	0.001628
1996.52	0.001818
2006.16	0.001778
2015.81	0.001748
2025.45	0.001768
2035.1	0.002058
2044.74	0.002498
2054.38	0.002568
2064.03	0.002228
2073.67	0.001758
2083.32	0.001728
2092.96	0.001488
2102.61	0.0012984
2112.25	0.0011173
2121.9	0.0011331
2131.54	0.001066
2141.19	0.0009635
2150.83	0.0011101
2160.48	0.0011932
2170.12	0.0011697
2179.77	0.0009799
2189.41	0.0012701
2199.06	0.0013252
2208.7	0.0012696
2218.35	0.0012512
2227.99	0.0012886
2237.64	0.001508
2247.28	0.002218
2256.92	0.002738
2266.57	0.002058
2276.21	0.001508
2285.86	0.001428
2295.5	0.001618
2305.15	0.001668
2314.79	0.001548
2324.44	0.0013292
2334.08	0.0012942
2343.73	0.001287
2353.37	0.00136
2363.02	0.001418
2372.66	0.001528
2382.31	0.0013442
2391.95	0.0009276
2401.6	0.0008553
2411.24	0.0008497
2420.89	0.0008501
2430.53	0.00101
2440.18	0.0007817
2449.82	0.0008192
2459.47	0.0008821
2469.11	0.0009768
2478.75	0.0008792
2488.4	0.0010475
2498.04	0.001002
2507.69	0.0010648
2517.33	0.0012095
2526.98	0.0013894
2536.62	0.001548
2546.27	0.001828
2555.91	0.001768
2565.56	0.001658
2575.2	0.001728
2584.85	0.001808
2594.49	0.001978
2604.14	0.002338
2613.78	0.002198
2623.43	0.001458
2633.07	0.0011214
2642.72	0.0009947
2652.36	0.0011687
2662.01	0.0012012
2671.65	0.001598
2681.29	0.001878
2690.94	0.002208
2700.58	0.001928
2710.23	0.001648
2719.87	0.001748
2729.52	0.001928
2739.16	0.002168
2748.81	0.002308
2758.45	0.003358
2768.1	0.006458
2777.74	0.009018
2787.39	0.006108
2797.03	0.003848
2806.68	0.003678
2816.32	0.004218
2825.97	0.005258
2835.61	0.007258
2845.26	0.009158
2854.9	0.010938
2864.55	0.015148
2874.19	0.021888
2883.84	0.027308
2893.48	0.026298
2903.12	0.024278
2912.77	0.026338
2922.41	0.028868
2932.06	0.026598
2941.7	0.022098
2951.35	0.019088
2960.99	0.016538
2970.64	0.012468
2980.28	0.009448
2989.93	0.008208
2999.57	0.008988
3009.22	0.009648
3018.86	0.011998
3028.51	0.010928
3038.15	0.009568
3047.8	0.008258
3057.44	0.006308
3067.09	0.005398
3076.73	0.005548
3086.38	0.004538
3096.02	0.002808
3105.67	0.002018
3115.31	0.001788
3124.95	0.0012245
3134.6	0.0009854
3144.24	0.0008433
3153.89	0.0007521
3163.53	0.0007597
3173.18	0.000931
3182.82	0.0008036
3192.47	0.0007479
3202.11	0.0008322
3211.76	0.0006248
3221.4	0.0005667
3231.05	0.0007579
3240.69	0.0007815
3250.34	0.0005271
3259.98	0.000411869
3269.63	0.0008065
3279.27	0.000611
3288.92	0.0006972
3298.56	0.00046127
3308.21	0.000742
3317.85	0.0006297
3327.49	0.0006599
3337.14	0.000291
3346.78	0.000417748
3356.43	0.000374
3366.07	0.00040364
3375.72	9e-05
3385.36	0.000208
3395.01	0.000257
3404.65	0.000731
3414.3	0.000361
3423.94	0.00044636
3433.59	0.0006979
3443.23	0.00046088
3452.88	0.000754
3462.52	0.0004695
3472.17	0.00043145
3481.81	0.0003235
3491.46	0.0005831
3501.1	0.0008529
3510.75	0.0006465
3520.39	0.0006662
3530.04	0.0005254
3539.68	0.0006695
3549.32	0.000252
3558.97	0.0007364
3568.61	0.0007209
3578.26	0.0005875
3587.9	0.000227
3597.55	0.0006712
3607.19	0.0008977
3616.84	0.000722
3626.48	0.000412107
3636.13	0.0006545
3645.77	0.0009016
3655.42	0.0007238
3665.06	0.0006987
3674.71	0.0006288
3684.35	0.0006949
3694	0.0005927
3703.64	0.00050348
3713.29	0.000226
3722.93	0.0003797
3732.58	0.0003414
3742.22	0.0007014
3751.86	0.0005148
3761.51	0.00029
3771.15	0.000576
3780.8	0.0003317
3790.44	0.0005601
3800.09	0.0006894
3809.73	0.000591
3819.38	0.0006013
3829.02	0.0009269
3838.67	0.0006161
3848.31	0.0007614
3857.96	0.0007704
3867.6	0.0008946
3877.25	0.0007337
3886.89	0.0008249
3896.54	0.00046205
3906.18	0.0005447
3915.83	0.00042866
3925.47	0.00077
3935.12	0.0006786
3944.76	0.0012799
3954.41	0.0008902
3964.05	0.0011388
3973.69	0.0009644
3983.34	0.000410652
3992.98	0.0008719
