Infrared Spectrum: Aniline, n-hexadecyl-
Formula: C22 H39 N
CAS: 4439-42-3
State: SOLUTION (CS2)
Class: COBLENTZ III
Instrument: BECKMAN IR-4 (HYBRID PRISM-GRATING)
Instrument parameters: NaCl PRISM
Sampling: TRANSMISSION
Path length: 0.010 CM
Resolution: 2
Origin: MONSANTO (J. FREEMAN)
1/CM	TRANSMITTANCE
626	0.8352
635	0.8472
644	0.8418
653	0.8146
662	0.7514
671	0.7797
680	0.7409
689	0.2427
698	0.6841
707	0.7572
716	0.6687
725	0.6555
734	0.6479
743	0.1629
752	0.4436
761	0.762
770	0.8289
779	0.85
788	0.8639
797	0.8762
806	0.8662
815	0.8695
824	0.8772
833	0.8592
842	0.8302
851	0.78
860	0.6525
869	0.6951
878	0.8168
887	0.8664
896	0.8946
905	0.9106
914	0.9191
923	0.9237
932	0.9281
941	0.9217
950	0.9168
959	0.9137
968	0.9145
977	0.9147
986	0.859
995	0.8208
1004	0.9093
1013	0.9139
1022	0.8932
1031	0.8382
1040	0.8924
1049	0.8951
1058	0.8771
1067	0.8355
1076	0.8132
1085	0.8173
1094	0.7999
1103	0.82
1112	0.8056
1121	0.854
1130	0.8276
1139	0.8231
1148	0.818
1157	0.6773
1166	0.8372
1175	0.7686
1184	0.6041
1193	0.8231
1202	0.8368
1211	0.8448
1220	0.8486
1229	0.8409
1238	0.8086
1247	0.6819
1256	0.4879
1265	0.4958
1274	0.5921
1283	0.6582
1292	0.668
1301	0.626
1310	0.5464
1319	0.3965
1328	0.3187
1337	0.5047
1346	0.6587
1355	0.7297
1364	0.71
1373	0.6385
1382	0.5961
1391	0.6863
1400	0.6847
1409	0.6231
1418	0.4622
1427	0.2541
1436	0.0959
1445	0.0485
1454	0.0018
1463	0.0002
1472	0.0002
1481	0.0001
1490	0.0001
1499	0.0001
1508	0
1517	0
1526	0
1535	0
1544	0
1553	0
1562	0.0001
1571	0.0001
1580	0.0425
1589	0.1151
1598	0.1247
1607	0.0495
1616	0.2247
1625	0.4511
1634	0.6296
1643	0.7788
1652	0.823
1661	0.868
1670	0.8964
1679	0.9008
1688	0.9121
1697	0.9248
1706	0.937
1715	0.9463
1724	0.9547
1733	0.9594
1742	0.96
1751	0.9564
1760	0.9498
1769	0.9471
1778	0.9561
1787	0.9607
1796	0.9602
1805	0.9539
1814	0.9449
1823	0.9356
1832	0.9403
1841	0.9491
1850	0.9555
1859	0.9577
1868	0.9574
1877	0.9565
1886	0.954
1895	0.9506
1904	0.9441
1913	0.9252
1922	0.91
1931	0.9249
1940	0.9401
1949	0.9488
1958	0.9548
1967	0.9597
1976	0.9614
1985	0.9617
1994	0.9618
2003	0.9609
2012	0.96
2021	0.9586
2030	0.9568
2039	0.9548
2048	0.9528
2057	0.951
2066	0.9491
2075	0.9453
2084	0.9339
2093	0.9125
2102	0.8859
2111	0.8058
2120	0.7354
2129	0.5395
2138	0.4233
2147	0.1028
2156	0.0459
2165	0.0142
2174	0.0148
2183	0.0509
2192	0.152
2201	0.3004
2210	0.4503
2219	0.6086
2228	0.7706
2237	0.8518
2246	0.8855
2255	0.9001
2264	0.9053
2273	0.8992
2282	0.8751
2291	0.7815
2300	0.6768
2309	0.5729
2318	0.4779
2327	0.4765
2336	0.5013
2345	0.5254
2354	0.5383
2363	0.5483
2372	0.5623
2381	0.5872
2390	0.6915
2399	0.8521
2408	0.937
2417	0.9445
2426	0.9478
2435	0.9494
2444	0.9508
2453	0.9513
2462	0.952
2471	0.9517
2480	0.9514
2489	0.9509
2498	0.9498
2507	0.9487
2516	0.9473
2525	0.9452
2534	0.9423
2543	0.939
2552	0.9352
2561	0.9311
2570	0.9271
2579	0.9234
2588	0.9198
2597	0.9163
2606	0.914
2615	0.9127
2624	0.9116
2633	0.9105
2642	0.9093
2651	0.907
2660	0.9037
2669	0.8988
2678	0.8937
2687	0.8887
2696	0.8844
2705	0.881
2714	0.8801
2723	0.8796
2732	0.8802
2741	0.8807
2750	0.8811
2759	0.8802
2768	0.878
2777	0.8754
2786	0.8679
2795	0.8541
2804	0.8373
2813	0.8167
2822	0.7771
2831	0.7302
2840	0.6507
2849	0.5651
2858	0.3856
2867	0.2
2876	0.0984
2885	0.1245
2894	0.1847
2903	0.1771
2912	0.1446
2921	0.1122
2930	0.08
2939	0.0481
2948	0.0192
2957	0.0204
2966	0.107
2975	0.2114
2984	0.3152
2993	0.4183
3002	0.5207
3011	0.6226
3020	0.7122
3029	0.7089
3038	0.7031
3047	0.6975
3056	0.6918
3065	0.6868
3074	0.6955
3083	0.725
3092	0.7543
3101	0.7836
3110	0.8126
3119	0.8414
3128	0.8701
3137	0.8987
3146	0.9263
3155	0.9404
3164	0.9474
3173	0.9511
3182	0.9532
3191	0.9552
3200	0.9569
3209	0.9587
3218	0.96
3227	0.9611
3236	0.9622
3245	0.9629
3254	0.9634
3263	0.9638
3272	0.9643
3281	0.9641
3290	0.9638
3299	0.9636
3308	0.9634
3317	0.9629
3326	0.962
3335	0.9612
3344	0.9596
3353	0.9565
3362	0.9413
3371	0.9221
3380	0.903
3389	0.884
3398	0.8651
3407	0.8463
3416	0.8276
3425	0.809
3434	0.7905
3443	0.7884
3452	0.7908
3461	0.8211
3470	0.8546
3479	0.888
3488	0.9222
3497	0.9424
3506	0.9465
3515	0.9492
3524	0.9519
3533	0.9531
3542	0.9541
3551	0.9545
3560	0.9542
3569	0.9539
3578	0.9529
3587	0.9511
3596	0.9478
3605	0.9444
3614	0.9403
3623	0.9381
3632	0.9374
3641	0.9375
3650	0.9377
3659	0.9383
3668	0.9392
3677	0.9406
3686	0.9422
3695	0.944
3704	0.9462
3713	0.9481
3722	0.9492
3731	0.9503
3740	0.9513
3749	0.952
3758	0.9528
3767	0.9535
3776	0.9542
3785	0.9544
3794	0.9544
3803	0.9545
3812	0.9546
3821	0.9546
3830	0.9546
3839	0.9544
3848	0.9541
3857	0.9539
3866	0.9537
3875	0.9534
3884	0.953
3893	0.9526
3902	0.9523
3911	0.9519
3920	0.9515
3929	0.9511
3938	0.9507
3947	0.9502
3956	0.9496
3965	0.9491
3974	0.9486
3983	0.948
3992	0.9474
