Infrared Spectrum: 2-Bromo-4,6-Difluoroaniline
Formula: C 6 H 4 Br F 2 N
CAS: 444-14-4
State: gas
Origin: EPA-IR VAPOR PHASE LIBRARY
1/CM	ABSORBANCE
549.9	0.01525
559.547	0.01512
569.193	0.01638
578.84	0.02511
588.486	0.03975
598.133	0.02498
607.779	0.01955
617.426	0.02123
627.072	0.02298
636.719	0.02324
646.365	0.02314
656.012	0.02362
665.658	0.02431
675.305	0.02724
684.951	0.03521
694.598	0.04434
704.245	0.04777
713.891	0.04521
723.538	0.04257
733.184	0.03769
742.831	0.03332
752.477	0.03305
762.124	0.03565
771.77	0.04572
781.417	0.07536
791.063	0.08128
800.71	0.03387
810.356	0.01789
820.003	0.02542
829.649	0.06867
839.296	0.15751
848.943	0.16302
858.589	0.05295
868.236	0.01544
877.882	0.01151
887.529	0.00949
897.175	0.00834
906.822	0.00782
916.468	0.00769
926.115	0.00777
935.761	0.00811
945.408	0.00911
955.054	0.01143
964.701	0.02213
974.347	0.05741
983.994	0.09069
993.64	0.06651
1003.29	0.02635
1012.93	0.01659
1022.58	0.01421
1032.23	0.01233
1041.87	0.01146
1051.52	0.01272
1061.17	0.01786
1070.81	0.02759
1080.46	0.02987
1090.11	0.02387
1099.75	0.0221
1109.4	0.03208
1119.05	0.11301
1128.69	0.2105
1138.34	0.13977
1147.99	0.0307
1157.63	0.01388
1167.28	0.01224
1176.92	0.0259
1186.57	0.04066
1196.22	0.02974
1205.86	0.01986
1215.51	0.01724
1225.16	0.0285
1234.8	0.05921
1244.45	0.04506
1254.1	0.01308
1263.74	0.00719
1273.39	0.00817
1283.04	0.01716
1292.68	0.03341
1302.33	0.03107
1311.98	0.01398
1321.62	0.01145
1331.27	0.01288
1340.92	0.0096
1350.56	0.00875
1360.21	0.0102
1369.86	0.00916
1379.5	0.00724
1389.15	0.00697
1398.79	0.00879
1408.44	0.01646
1418.09	0.04365
1427.73	0.08358
1437.38	0.07976
1447.03	0.04763
1456.67	0.02885
1466.32	0.03993
1475.97	0.12267
1485.61	0.3508
1495.26	0.47366
1504.91	0.26299
1514.55	0.07194
1524.2	0.02723
1533.85	0.01799
1543.49	0.02167
1553.14	0.02876
1562.79	0.04336
1572.43	0.08462
1582.08	0.16344
1591.73	0.26045
1601.37	0.22317
1611.02	0.10582
1620.67	0.04798
1630.31	0.03201
1639.96	0.02432
1649.6	0.01757
1659.25	0.01458
1668.9	0.01526
1678.54	0.01875
1688.19	0.01629
1697.84	0.00927
1707.48	0.00593
1717.13	0.00539
1726.78	0.00517
1736.42	0.00503
1746.07	0.00497
1755.72	0.00455
1765.36	0.0040913
1775.01	0.0037975
1784.66	0.0036351
1794.3	0.0035802
1803.95	0.003658
1813.6	0.0035017
1823.24	0.00343428
1832.89	0.0033965
1842.54	0.003536
1852.18	0.0037063
1861.83	0.0037723
1871.47	0.0036807
1881.12	0.0036105
1890.77	0.0037428
1900.41	0.0040117
1910.06	0.00449
1919.71	0.00479
1929.35	0.00447
1939	0.0042677
1948.65	0.004377
1958.29	0.00469
1967.94	0.00476
1977.59	0.0040864
1987.23	0.0035219
1996.88	0.00340243
2006.53	0.0033962
2016.17	0.0035582
2025.82	0.0035816
2035.47	0.003513
2045.11	0.0036158
2054.76	0.0037805
2064.41	0.0038727
2074.05	0.0038044
2083.7	0.0036616
2093.35	0.0037324
2102.99	0.0043601
2112.64	0.00479
2122.28	0.0043441
2131.93	0.0035833
2141.58	0.003128
2151.22	0.002915
2160.87	0.002788
2170.52	0.002761
2180.16	0.002843
2189.81	0.00301
2199.46	0.003087
2209.1	0.003201
2218.75	0.003291
2228.4	0.003181
2238.04	0.002903
2247.69	0.003083
2257.34	0.0033551
2266.98	0.00344784
2276.63	0.00342395
2286.28	0.003302
2295.92	0.003126
2305.57	0.003226
2315.22	0.0035746
2324.86	0.0037762
2334.51	0.0036214
2344.16	0.003323
2353.8	0.003297
2363.45	0.00346989
2373.09	0.003231
2382.74	0.002825
2392.39	0.002831
2402.03	0.003263
2411.68	0.0039317
2421.33	0.0043718
2430.97	0.0039703
2440.62	0.003285
2450.27	0.003196
2459.91	0.003295
2469.56	0.003
2479.21	0.002705
2488.85	0.002448
2498.5	0.00226
2508.15	0.00231
2517.79	0.00225
2527.44	0.00224
2537.09	0.00234
2546.73	0.002781
2556.38	0.0035733
2566.03	0.0038831
2575.67	0.003254
2585.32	0.002625
2594.96	0.00236
2604.61	0.00229
2614.26	0.002545
2623.9	0.002685
2633.55	0.00236
2643.2	0.00202
2652.84	0.00192
2662.49	0.00191
2672.14	0.00189
2681.78	0.00179
2691.43	0.00173
2701.08	0.00182
2710.72	0.00203
2720.37	0.00219
2730.02	0.00203
2739.66	0.00168
2749.31	0.00134
2758.96	0.00137
2768.6	0.00147
2778.25	0.00161
2787.9	0.0017
2797.54	0.00155
2807.19	0.00148
2816.84	0.0015
2826.48	0.00134
2836.13	0.00115
2845.77	0.00111
2855.42	0.00141
2865.07	0.00166
2874.71	0.0017
2884.36	0.00153
2894.01	0.00143
2903.65	0.00125
2913.3	0.00115
2922.95	0.00102
2932.59	0.0009
2942.24	0.00075
2951.89	0.00047
2961.53	0.00029
2971.18	0.00033
2980.83	0.00023
2990.47	0.00017
3000.12	0.00015
3009.77	2e-05
3019.41	5e-05
3029.06	0.0001
3038.71	0.00025
3048.35	0.00028
3058	0.00048
3067.64	0.00074
3077.29	0.00129
3086.94	0.00215
3096.58	0.0035538
3106.23	0.003137
3115.88	0.00121
3125.52	0.00075
3135.17	0.0007
3144.82	0.00065
3154.46	0.00081
3164.11	0.00118
3173.76	0.00175
3183.4	0.00221
3193.05	0.00219
3202.7	0.00175
3212.34	0.00149
3221.99	0.00146
3231.64	0.00104
3241.28	0.00092
3250.93	0.00063
3260.58	0.00059
3270.22	0.00054
3279.87	0.00063
3289.52	0.00056
3299.16	0.00053
3308.81	0.00069
3318.45	0.00058
3328.1	0.00079
3337.75	0.00094
3347.39	0.00105
3357.04	0.00148
3366.69	0.0021
3376.33	0.0037183
3385.98	0.00748
3395.63	0.01762
3405.27	0.03426
3414.92	0.03694
3424.57	0.02072
3434.21	0.00797
3443.86	0.003989
3453.51	0.0040692
3463.15	0.00539
3472.8	0.00875
3482.45	0.01547
3492.09	0.02875
3501.74	0.04566
3511.39	0.04369
3521.03	0.02845
3530.68	0.01342
3540.33	0.00524
3549.97	0.00342049
3559.62	0.002814
3569.26	0.002591
3578.91	0.002537
3588.56	0.00243
3598.2	0.00231
3607.85	0.00217
3617.5	0.00211
3627.14	0.00214
3636.79	0.00217
3646.44	0.00209
3656.08	0.00217
3665.73	0.00218
3675.38	0.00225
3685.02	0.00218
3694.67	0.00239
3704.32	0.00241
3713.96	0.002503
3723.61	0.002577
3733.26	0.002585
3742.9	0.00236
3752.55	0.00239
3762.2	0.002415
3771.84	0.002645
3781.49	0.002622
3791.13	0.002589
3800.78	0.002557
3810.43	0.002688
3820.07	0.002964
3829.72	0.002962
3839.37	0.003106
3849.01	0.0033811
3858.66	0.003384
3868.31	0.003229
3877.95	0.003073
3887.6	0.002936
3897.25	0.003002
3906.89	0.002989
3916.54	0.003135
3926.19	0.00306
3935.83	0.003044
3945.48	0.00304
3955.13	0.003053
3964.77	0.00298
3974.42	0.002706
3984.07	0.002576
3993.71	0.002736
