Infrared Spectrum: 1,2,4-Triphenyl-1,4-butanedione
Formula: C 22 H 18 O 2
CAS: 4441-01-4
State: gas
Origin: EPA-IR VAPOR PHASE LIBRARY
1/CM	ABSORBANCE
549.8	0.005551
559.445	0.006531
569.09	0.006631
578.734	0.007141
588.379	0.006561
598.024	0.004891
607.669	0.003131
617.313	0.002251
626.958	0.001621
636.603	0.001991
646.248	0.003331
655.893	0.005511
665.537	0.007981
675.182	0.010971
684.827	0.019751
694.472	0.035901
704.116	0.024811
713.761	0.010701
723.406	0.008741
733.051	0.011551
742.695	0.016331
752.34	0.016001
761.985	0.008281
771.63	0.005431
781.275	0.004461
790.919	0.003251
800.564	0.002581
810.209	0.001501
819.854	0.001581
829.498	0.0011107
839.143	0.0012198
848.788	0.0011949
858.433	0.001601
868.078	0.001671
877.722	0.002071
887.367	0.001901
897.012	0.001981
906.657	0.002681
916.301	0.003941
925.946	0.004431
935.591	0.005781
945.236	0.009301
954.88	0.008551
964.525	0.006711
974.17	0.008041
983.815	0.010351
993.46	0.015871
1003.1	0.017621
1012.75	0.010151
1022.39	0.005701
1032.04	0.005051
1041.68	0.002201
1051.33	0.002251
1060.97	0.003081
1070.62	0.003261
1080.26	0.002901
1089.91	0.001711
1099.55	0.001821
1109.2	0.001791
1118.84	0.001481
1128.49	0.001601
1138.13	0.002581
1147.78	0.003831
1157.42	0.005971
1167.07	0.008671
1176.71	0.019731
1186.36	0.020431
1196	0.017721
1205.64	0.016971
1215.29	0.017341
1224.93	0.021441
1234.58	0.021581
1244.22	0.022191
1253.87	0.019401
1263.51	0.017331
1273.16	0.018491
1282.8	0.022001
1292.45	0.019471
1302.09	0.015931
1311.74	0.015531
1321.38	0.016091
1331.03	0.014091
1340.67	0.012381
1350.32	0.011201
1359.96	0.010011
1369.61	0.006591
1379.25	0.004721
1388.9	0.003741
1398.54	0.004061
1408.18	0.005031
1417.83	0.003851
1427.47	0.003731
1437.12	0.005271
1446.76	0.014171
1456.41	0.007121
1466.05	0.002991
1475.7	0.002781
1485.34	0.004081
1494.99	0.007691
1504.63	0.003441
1514.28	0.001921
1523.92	0.001831
1533.57	0.001901
1543.21	0.001821
1552.86	0.001891
1562.5	0.002501
1572.15	0.004601
1581.79	0.008251
1591.44	0.008431
1601.08	0.010491
1610.73	0.004841
1620.37	0.003001
1630.01	0.002451
1639.66	0.002671
1649.3	0.003611
1658.95	0.005461
1668.59	0.008251
1678.24	0.015591
1687.88	0.039021
1697.53	0.075211
1707.17	0.030141
1716.82	0.012481
1726.46	0.006431
1736.11	0.004001
1745.75	0.003101
1755.4	0.002471
1765.04	0.002031
1774.69	0.001961
1784.33	0.001691
1793.98	0.002301
1803.62	0.003091
1813.27	0.002121
1822.91	0.001381
1832.55	0.001038
1842.2	0.0010006
1851.84	0.0009766
1861.49	0.0011655
1871.13	0.001441
1880.78	0.001671
1890.42	0.001811
1900.07	0.001741
1909.71	0.001501
1919.36	0.0012421
1929	0.0011682
1938.65	0.001681
1948.29	0.002151
1957.94	0.002281
1967.58	0.001821
1977.23	0.0010898
1986.87	0.0008087
1996.52	0.0007344
2006.16	0.0006504
2015.81	0.0005531
2025.45	0.0005768
2035.1	0.0004623
2044.74	0.000529
2054.38	0.000604
2064.03	0.0005844
2073.67	0.0005775
2083.32	0.0004763
2092.96	0.0004995
2102.61	0.0004454
2112.25	0.0005372
2121.9	0.0004965
2131.54	0.0004372
2141.19	0.0004578
2150.83	0.0004954
2160.48	0.0004998
2170.12	0.0005284
2179.77	0.0004808
2189.41	0.0004775
2199.06	0.0004539
2208.7	0.0004606
2218.35	0.0005647
2227.99	0.0005501
2237.64	0.0005322
2247.28	0.0005639
2256.92	0.0005901
2266.57	0.0006533
2276.21	0.0006203
2285.86	0.0006342
2295.5	0.0006616
2305.15	0.0006731
2314.79	0.0008839
2324.44	0.0008469
2334.08	0.0007787
2343.73	0.0008024
2353.37	0.0006874
2363.02	0.0006703
2372.66	0.0005875
2382.31	0.0006581
2391.95	0.0006525
2401.6	0.0006603
2411.24	0.0006889
2420.89	0.000681
2430.53	0.000597
2440.18	0.0005054
2449.82	0.0005265
2459.47	0.0005533
2469.11	0.0005768
2478.75	0.0005076
2488.4	0.0005394
2498.04	0.0006065
2507.69	0.0006117
2517.33	0.0005435
2526.98	0.0005421
2536.62	0.0004845
2546.27	0.0006281
2555.91	0.000545
2565.56	0.0005401
2575.2	0.0005369
2584.85	0.0006567
2594.49	0.0006731
2604.14	0.0007033
2613.78	0.0004853
2623.43	0.0005692
2633.07	0.0005843
2642.72	0.0006002
2652.36	0.0004281
2662.01	0.0005007
2671.65	0.0004963
2681.29	0.000471
2690.94	0.000496
2700.58	0.0005759
2710.23	0.0004343
2719.87	0.0005654
2729.52	0.0005559
2739.16	0.0004658
2748.81	0.0005971
2758.45	0.0006243
2768.1	0.0005591
2777.74	0.000607
2787.39	0.0006588
2797.03	0.000593
2806.68	0.0006611
2816.32	0.000678
2825.97	0.0006635
2835.61	0.0008917
2845.26	0.0006714
2854.9	0.0009137
2864.55	0.0009608
2874.19	0.0012518
2883.84	0.001351
2893.48	0.001651
2903.12	0.003001
2912.77	0.005131
2922.41	0.003731
2932.06	0.003111
2941.7	0.002491
2951.35	0.002211
2960.99	0.001971
2970.64	0.002011
2980.28	0.001891
2989.93	0.002031
2999.57	0.002271
3009.22	0.002871
3018.86	0.004431
3028.51	0.009061
3038.15	0.010881
3047.8	0.008061
3057.44	0.010631
3067.09	0.021161
3076.73	0.019441
3086.38	0.012211
3096.02	0.009061
3105.67	0.005411
3115.31	0.002721
3124.95	0.001361
3134.6	0.0011021
3144.24	0.0008885
3153.89	0.0008576
3163.53	0.0009088
3173.18	0.0006695
3182.82	0.0004803
3192.47	0.0004955
3202.11	0.0004299
3211.76	0.0005017
3221.4	0.0005308
3231.05	0.0005835
3240.69	0.00030997
3250.34	0.0005938
3259.98	0.00031103
3269.63	0.0005642
3279.27	0.0002219
3288.92	0.0002579
3298.56	0.0005151
3308.21	0.0004711
3317.85	0.00032111
3327.49	0.0004704
3337.14	0.0007194
3346.78	0.0004013
3356.43	0.0005892
3366.07	0.0011548
3375.72	0.001209
3385.36	0.0009357
3395.01	0.0008455
3404.65	0.0005977
3414.3	0.0005321
3423.94	0.0005753
3433.59	0.00036756
3443.23	0.00033172
3452.88	0.00034805
3462.52	0.00036819
3472.17	0.0004423
3481.81	0.0004036
3491.46	0.0004202
3501.1	0.0004282
3510.75	0.0004064
3520.39	0.0003822
3530.04	0.000439
3539.68	0.000415
3549.32	0.0004278
3558.97	0.000487
3568.61	0.0002456
3578.26	0.00033419
3587.9	0.0001756
3597.55	0.0003782
3607.19	0.00033524
3616.84	0.00032534
3626.48	0.0003984
3636.13	0.0003995
3645.77	0.00030258
3655.42	0.0003787
3665.06	0.0004971
3674.71	0.00036423
3684.35	0.0005538
3694	0.0006645
3703.64	0.0004309
3713.29	0.0004007
3722.93	0.0003928
3732.58	0.0005576
3742.22	0.0004065
3751.86	0.00034535
3761.51	0.00029999
3771.15	0.0005392
3780.8	0.000167
3790.44	0.0002262
3800.09	0.0003717
3809.73	0.0004176
3819.38	0.000134
3829.02	0.0002042
3838.67	0.00030964
3848.31	0.0002045
3857.96	0.0002528
3867.6	0.0004381
3877.25	0.00033004
3886.89	0.00033272
3896.54	0.00026125
3906.18	0.000277816
3915.83	0.00034754
3925.47	0.000154
3935.12	0.00030947
3944.76	0.0004248
3954.41	0.00030781
3964.05	0.0004034
3973.69	0.0004387
3983.34	0.00034677
3992.98	0.0003716
