Infrared Spectrum: 2-Cyclohexylethanol
Formula: C 8 H 16 O
CAS: 4442-79-9
State: gas
Instrument: HP-GC/MS/IRD
Origin: NIST Mass Spectrometry Data Center
1/CM	ABSORBANCE
550	0.0001344
562	0.0001512
574	0.0001974
586	0.00021
598	0.0001344
610	0.0001596
622	0.0001848
634	0.0001428
646	7.56e-05
658	0.0001176
670	0.000126
682	0.0001806
694	0.0001428
706	9.66e-05
718	9.66e-05
730	0.000126
742	0.000105
754	0.0001974
766	0.0001806
778	0.0001176
790	0.000147
802	0.0002058
814	0.0003024
826	0.000357
838	0.0004746
850	0.0003864
862	0.00042
874	0.0007224
886	0.0008148
898	0.000651
910	0.0006258
922	0.0005544
934	0.0005208
946	0.0007182
958	0.0011508
970	0.0018354
982	0.0023856
994	0.0027426
1006	0.0031164
1018	0.0034062
1030	0.004893
1042	0.0065268
1054	0.0060312
1066	0.0037506
1078	0.0023772
1090	0.0019236
1102	0.001449
1114	0.0010836
1126	0.0010248
1138	0.0008988
1150	0.0008442
1162	0.0008274
1174	0.0008022
1186	0.0008862
1198	0.0009324
1210	0.0010332
1222	0.0011172
1234	0.0011676
1246	0.0012012
1258	0.0013272
1270	0.0013902
1282	0.0012726
1294	0.001071
1306	0.0009618
1318	0.0009492
1330	0.0009618
1342	0.0011256
1354	0.001197
1366	0.0011928
1378	0.0014154
1390	0.0015372
1402	0.0012936
1414	0.0009114
1426	0.0009786
1438	0.0018606
1450	0.0029526
1462	0.0023772
1474	0.0013272
1486	0.0006972
1498	0.0003276
1510	0.0002058
1522	0.0001512
1534	0.0001218
1546	9.66e-05
1558	0.000105
1570	7.98e-05
1582	5.46e-05
1594	1.68e-05
1606	3.36e-05
1618	5.04e-05
1630	2.52e-05
1642	2.52e-05
1654	7.14e-05
1666	4.2e-05
1678	4.2e-05
1690	4.2e-05
1702	4.62e-05
1714	2.1e-05
1726	4.2e-05
1738	5.04e-05
1750	8.4e-06
1762	1.68e-05
1774	2.52e-05
1786	2.52e-05
1798	1.26e-05
1810	2.1e-05
1822	1.68e-05
1834	1.68e-05
1846	1.68e-05
1858	1.68e-05
1870	2.52e-05
1882	2.52e-05
1894	2.1e-05
1906	3.36e-05
1918	2.52e-05
1930	2.1e-05
1942	2.1e-05
1954	1.26e-05
1966	1.26e-05
1978	8.4e-06
1990	2.94e-05
2002	2.52e-05
2014	2.1e-05
2026	5.46e-05
2038	6.72e-05
2050	6.72e-05
2062	4.2e-05
2074	3.78e-05
2086	2.94e-05
2098	2.94e-05
2110	1.68e-05
2122	8.4e-06
2134	4.2e-06
2146	2.94e-05
2158	4.62e-05
2170	3.78e-05
2182	4.2e-05
2194	4.62e-05
2206	2.94e-05
2218	4.62e-05
2230	4.2e-05
2242	1.68e-05
2254	2.52e-05
2266	3.36e-05
2278	2.1e-05
2290	2.94e-05
2302	4.2e-06
2314	2.52e-05
2326	2.52e-05
2338	6.72e-05
2350	6.72e-05
2362	9.24e-05
2374	5.88e-05
2386	6.72e-05
2398	6.3e-05
2410	6.3e-05
2422	7.14e-05
2434	5.46e-05
2446	5.46e-05
2458	5.88e-05
2470	8.4e-05
2482	8.4e-05
2494	8.82e-05
2506	7.56e-05
2518	9.66e-05
2530	9.24e-05
2542	0.0001134
2554	0.0001176
2566	0.0001176
2578	0.0001512
2590	0.0001932
2602	0.0002478
2614	0.0002688
2626	0.000273
2638	0.0003192
2650	0.0004494
2662	0.000567
2674	0.0005586
2686	0.0004788
2698	0.0004326
2710	0.000462
2722	0.0004662
2734	0.0004536
2746	0.0004788
2758	0.0005586
2770	0.0006678
2782	0.00084
2794	0.0010374
2806	0.001176
2818	0.00147
2830	0.0023814
2842	0.0053676
2854	0.011508
2866	0.0135702
2878	0.0101052
2890	0.0094836
2902	0.0129738
2914	0.0220416
2926	0.0375522
2938	0.0385434
2950	0.0191352
2962	0.006153
2974	0.0028476
2986	0.0014994
2998	0.000903
3010	0.0006384
3022	0.000483
3034	0.0004116
3046	0.0003234
3058	0.0002814
3070	0.0002226
3082	0.0002058
3094	0.0001512
3106	0.0001428
3118	0.0001386
3130	0.0001344
3142	0.0001428
3154	0.0001176
3166	0.0001302
3178	5.04e-05
3190	7.98e-05
3202	3.78e-05
3214	7.14e-05
3226	5.46e-05
3238	4.2e-05
3250	6.72e-05
3262	0
3274	3.36e-05
3286	7.14e-05
3298	3.78e-05
3310	5.04e-05
3322	1.26e-05
3334	5.88e-05
3346	9.66e-05
3358	5.88e-05
3370	6.72e-05
3382	2.94e-05
3394	8.4e-05
3406	8.82e-05
3418	6.3e-05
3430	8.4e-05
3442	6.72e-05
3454	7.56e-05
3466	0.0001134
3478	7.56e-05
3490	9.24e-05
3502	8.4e-05
3514	5.04e-05
3526	6.72e-05
3538	7.56e-05
3550	8.4e-05
3562	2.94e-05
3574	5.88e-05
3586	7.14e-05
3598	0.0001092
3610	0.0001176
3622	0.0001806
3634	0.000315
3646	0.0007056
3658	0.0014112
3670	0.0016674
3682	0.0009618
3694	0.0003906
3706	0.0002058
3718	0.000168
3730	0.0001554
3742	0.0001134
3754	0.0001344
3766	0.0001176
3778	0.000105
3790	0.0001092
3802	0.0001302
3814	0.0001386
3826	0.0001596
3838	0.000147
