Infrared Spectrum: Bornyl bromide
Formula: C 10 H 17 Br
CAS: 4443-48-5
State: gas
Origin: EPA-IR VAPOR PHASE LIBRARY
1/CM	ABSORBANCE
549.8	0.0008605
559.445	0.001332
569.09	0.001342
578.734	0.001602
588.379	0.0009238
598.024	0.000202
607.669	0.0002458
617.313	0.0005587
626.958	0.0011597
636.603	0.001902
646.248	0.003672
655.893	0.010982
665.537	0.016872
675.182	0.009312
684.827	0.003242
694.472	0.001592
704.116	0.0007051
713.761	0.0008147
723.406	0.001163
733.051	0.001332
742.695	0.0007542
752.34	0.0007598
761.985	0.001262
771.63	0.004082
781.275	0.015482
790.919	0.016472
800.564	0.004492
810.209	0.002422
819.854	0.002112
829.498	0.002192
839.143	0.002982
848.788	0.006662
858.433	0.006422
868.078	0.002202
877.722	0.001552
887.367	0.002212
897.012	0.006512
906.657	0.010272
916.301	0.010442
925.946	0.011272
935.591	0.010722
945.236	0.007642
954.88	0.004122
964.525	0.001942
974.17	0.001722
983.815	0.001802
993.46	0.002042
1003.1	0.001342
1012.75	0.0008482
1022.39	0.0009125
1032.04	0.0009743
1041.68	0.0008177
1051.33	0.0005345
1060.97	0.0005865
1070.62	0.0008779
1080.26	0.001642
1089.91	0.002812
1099.55	0.005672
1109.2	0.006492
1118.84	0.004352
1128.49	0.003742
1138.13	0.003252
1147.78	0.003232
1157.42	0.002682
1167.07	0.002532
1176.71	0.004812
1186.36	0.009232
1196	0.007992
1205.64	0.003472
1215.29	0.003522
1224.93	0.005682
1234.58	0.010922
1244.22	0.019362
1253.87	0.014382
1263.51	0.005092
1273.16	0.004692
1282.8	0.003262
1292.45	0.003522
1302.09	0.006662
1311.74	0.005672
1321.38	0.003152
1331.03	0.002412
1340.67	0.001882
1350.32	0.002302
1359.96	0.004842
1369.61	0.011642
1379.25	0.018582
1388.9	0.020932
1398.54	0.015902
1408.18	0.004742
1417.83	0.002592
1427.47	0.003322
1437.12	0.005682
1446.76	0.012242
1456.41	0.022112
1466.05	0.024532
1475.7	0.020582
1485.34	0.015012
1494.99	0.007742
1504.63	0.003652
1514.28	0.002362
1523.92	0.001722
1533.57	0.001432
1543.21	0.001382
1552.86	0.001312
1562.5	0.00119
1572.15	0.0010973
1581.79	0.0010796
1591.44	0.0009729
1601.08	0.0010491
1610.73	0.0010177
1620.37	0.000889
1630.01	0.0009159
1639.66	0.0009039
1649.3	0.0008909
1658.95	0.0007191
1668.59	0.0006268
1678.24	0.0004785
1687.88	0.0003939
1697.53	0.0004323
1707.17	0.0002841
1716.82	0.0002497
1726.46	0.0002371
1736.11	0.0002407
1745.75	0.0002379
1755.4	0.00028164
1765.04	0.00031058
1774.69	0.0003654
1784.33	0.0003625
1793.98	0.0003647
1803.62	0.00030739
1813.27	0.00032709
1822.91	0.00032214
1832.55	0.0004121
1842.2	0.0004052
1851.84	0.0003743
1861.49	0.0003507
1871.13	0.0003778
1880.78	0.0004187
1890.42	0.0003853
1900.07	0.0003761
1909.71	0.0004287
1919.36	0.000494
1929	0.0004245
1938.65	0.00031255
1948.29	0.0003831
1957.94	0.0003969
1967.58	0.0004708
1977.23	0.0003863
1986.87	0.00035076
1996.52	0.00029664
2006.16	0.0003754
2015.81	0.0004647
2025.45	0.0005005
2035.1	0.0005746
2044.74	0.0005029
2054.38	0.000413
2064.03	0.0004707
2073.67	0.000438
2083.32	0.00034164
2092.96	0.000418
2102.61	0.0003942
2112.25	0.0004224
2121.9	0.0004025
2131.54	0.0004167
2141.19	0.0004381
2150.83	0.0004279
2160.48	0.0004141
2170.12	0.0004605
2179.77	0.0004436
2189.41	0.0003873
2199.06	0.0004047
2208.7	0.0004314
2218.35	0.0003883
2227.99	0.0004165
2237.64	0.0004487
2247.28	0.0004521
2256.92	0.0004413
2266.57	0.0005139
2276.21	0.0004769
2285.86	0.0004678
2295.5	0.0005681
2305.15	0.000553
2314.79	0.0006038
2324.44	0.0005549
2334.08	0.0005948
2343.73	0.0005225
2353.37	0.0004718
2363.02	0.0004979
2372.66	0.0004936
2382.31	0.0004824
2391.95	0.0005618
2401.6	0.0004629
2411.24	0.0004301
2420.89	0.0003722
2430.53	0.0003866
2440.18	0.00033884
2449.82	0.0003938
2459.47	0.0003796
2469.11	0.0004712
2478.75	0.000467
2488.4	0.0003641
2498.04	0.0004288
2507.69	0.0004898
2517.33	0.0005639
2526.98	0.0006074
2536.62	0.0005847
2546.27	0.0005648
2555.91	0.0004702
2565.56	0.0005062
2575.2	0.0005714
2584.85	0.0007745
2594.49	0.0006814
2604.14	0.0006117
2613.78	0.0005169
2623.43	0.0004268
2633.07	0.0005568
2642.72	0.0006565
2652.36	0.0005455
2662.01	0.0005742
2671.65	0.0005317
2681.29	0.0006368
2690.94	0.0006897
2700.58	0.0007392
2710.23	0.0009272
2719.87	0.0010914
2729.52	0.001752
2739.16	0.002232
2748.81	0.001872
2758.45	0.001582
2768.1	0.001792
2777.74	0.002042
2787.39	0.002032
2797.03	0.002012
2806.68	0.002332
2816.32	0.002752
2825.97	0.003522
2835.61	0.004222
2845.26	0.005122
2854.9	0.007652
2864.55	0.014362
2874.19	0.030782
2883.84	0.051322
2893.48	0.057242
2903.12	0.046822
2912.77	0.042832
2922.41	0.051382
2932.06	0.071262
2941.7	0.107952
2951.35	0.140922
2960.99	0.156612
2970.64	0.130912
2980.28	0.085942
2989.93	0.064652
2999.57	0.042912
3009.22	0.018762
3018.86	0.007792
3028.51	0.004942
3038.15	0.004122
3047.8	0.003972
3057.44	0.003512
3067.09	0.003452
3076.73	0.003342
3086.38	0.002922
3096.02	0.002772
3105.67	0.002522
3115.31	0.002512
3124.95	0.002552
3134.6	0.002202
3144.24	0.002052
3153.89	0.002032
3163.53	0.001762
3173.18	0.001332
3182.82	0.0011486
3192.47	0.0009509
3202.11	0.0006806
3211.76	0.0005745
3221.4	0.0006158
3231.05	0.0004416
3240.69	0.0004629
3250.34	0.000447
3259.98	0.0004035
3269.63	0.0003629
3279.27	0.000477
3288.92	0.00031289
3298.56	0.000491
3308.21	0.0005135
3317.85	0.0003691
3327.49	0.0004752
3337.14	0.00030209
3346.78	0.000263733
3356.43	0.0004276
3366.07	0.0003715
3375.72	0.000378
3385.36	0.00031898
3395.01	0.0003941
3404.65	0.00025828
3414.3	0.0003956
3423.94	0.000270485
3433.59	0.0004107
3443.23	0.0001733
3452.88	0.00025364
3462.52	0.00034592
3472.17	0.000373
3481.81	0.00027493
3491.46	0.000151
3501.1	0.000248
3510.75	0.00031379
3520.39	0.0002029
3530.04	0.000462
3539.68	0.00033462
3549.32	0.0002217
3558.97	5.8e-05
3568.61	2.8e-05
3578.26	0.00028966
3587.9	0.0001903
3597.55	0.0002381
3607.19	0
3616.84	0.000138
3626.48	0.00025664
3636.13	0.00033673
3645.77	0.00030722
3655.42	6.1e-05
3665.06	0.0002415
3674.71	0.0002165
3684.35	0.0002457
3694	0.00028271
3703.64	0.0001784
3713.29	0.00030636
3722.93	0.0002451
3732.58	0.00012
3742.22	0.000139
3751.86	0.0001953
3761.51	0.00035347
3771.15	0.0002312
3780.8	0.0004038
3790.44	0.00030102
3800.09	0.000383
3809.73	0.00049
3819.38	0.00030589
3829.02	0.0003883
3838.67	0.0003729
3848.31	0.00027345
3857.96	0.0004053
3867.6	0.000664
3877.25	0.0005342
3886.89	0.000493
3896.54	0.000363
3906.18	0.0004548
3915.83	0.0007082
3925.47	0.0005477
3935.12	0.0005038
3944.76	0.00025868
3954.41	0.0002511
3964.05	0.0004511
3973.69	0.0005515
3983.34	0.00034852
3992.98	0.0004485
