Infrared Spectrum: Octadecylbenzene
Formula: C 24 H 42
CAS: 4445-07-2
State: gas
Instrument: HP-GC/MS/IRD
Origin: NIST Mass Spectrometry Data Center
1/CM	ABSORBANCE
550	0.0001558
562	0.0002132
574	0.0001599
586	9.43e-05
598	6.15e-05
610	1.64e-05
622	1.23e-05
634	3.28e-05
646	0.0001394
658	0.0001845
670	0.0003854
682	0.0009061
694	0.0024518
706	0.0020336
718	0.0018368
730	0.0019352
742	0.0019516
754	0.0011029
766	0.0005453
778	0.0003567
790	0.0002419
802	0.0001927
814	0.0002173
826	0.000164
838	0.0001353
850	0.0001353
862	0.0001394
874	0.0001476
886	0.0001763
898	0.000205
910	0.0002378
922	0.0001804
934	0.0001353
946	0.000123
958	0.0001722
970	0.0001394
982	0.0001435
994	0.0001312
1006	0.0002091
1018	0.0002706
1030	0.0005658
1042	0.0002747
1054	0.0002501
1066	0.0002706
1078	0.0002747
1090	0.000205
1102	0.0001517
1114	0.0001435
1126	9.43e-05
1138	6.15e-05
1150	2.87e-05
1162	0
1174	4.92e-05
1186	6.97e-05
1198	9.43e-05
1210	6.56e-05
1222	9.02e-05
1234	0.0001148
1246	0.0001476
1258	0.0002132
1270	0.0002419
1282	0.0003444
1294	0.0004838
1306	0.000615
1318	0.0005822
1330	0.0006314
1342	0.000943
1354	0.0011685
1366	0.0009184
1378	0.0006232
1390	0.0004346
1402	0.0003403
1414	0.00041
1426	0.000533
1438	0.0011808
1450	0.0024354
1462	0.0029561
1474	0.0017056
1486	0.0010414
1498	0.0013858
1510	0.0004346
1522	0.0002419
1534	0.0002009
1546	0.0001681
1558	0.0001271
1570	0.000164
1582	0.0002911
1594	0.0005125
1606	0.0006314
1618	0.000205
1630	0.0001353
1642	0.0001025
1654	5.33e-05
1666	5.33e-05
1678	4.1e-05
1690	2.05e-05
1702	4.1e-06
1714	4.92e-05
1726	3.69e-05
1738	6.15e-05
1750	7.38e-05
1762	4.92e-05
1774	3.28e-05
1786	0.0001312
1798	0.0001353
1810	6.15e-05
1822	3.69e-05
1834	4.1e-05
1846	4.92e-05
1858	7.79e-05
1870	9.43e-05
1882	9.43e-05
1894	4.51e-05
1906	4.51e-05
1918	7.79e-05
1930	0.0001189
1942	0.0001271
1954	0.0001148
1966	3.69e-05
1978	2.87e-05
1990	2.46e-05
2002	2.87e-05
2014	4.51e-05
2026	6.15e-05
2038	5.33e-05
2050	4.92e-05
2062	5.33e-05
2074	5.33e-05
2086	3.28e-05
2098	1.64e-05
2110	3.69e-05
2122	2.87e-05
2134	2.46e-05
2146	2.05e-05
2158	3.69e-05
2170	2.87e-05
2182	3.69e-05
2194	1.23e-05
2206	1.64e-05
2218	3.69e-05
2230	5.74e-05
2242	3.28e-05
2254	3.69e-05
2266	3.69e-05
2278	2.87e-05
2290	4.92e-05
2302	4.92e-05
2314	7.79e-05
2326	2.46e-05
2338	4.1e-05
2350	2.87e-05
2362	1.64e-05
2374	4.1e-05
2386	6.15e-05
2398	2.46e-05
2410	0
2422	2.87e-05
2434	3.28e-05
2446	4.51e-05
2458	4.1e-05
2470	5.74e-05
2482	3.28e-05
2494	6.97e-05
2506	9.02e-05
2518	7.79e-05
2530	9.84e-05
2542	0.0001353
2554	0.0001148
2566	0.0001353
2578	0.0001599
2590	0.000164
2602	0.0001968
2614	0.0001968
2626	0.0002173
2638	0.0002583
2650	0.000287
2662	0.0003321
2674	0.0003813
2686	0.000369
2698	0.0003485
2710	0.0003198
2722	0.0003321
2734	0.0003731
2746	0.0004223
2758	0.0004756
2770	0.0005248
2782	0.000656
2794	0.0008733
2806	0.0011398
2818	0.001517
2830	0.0021033
2842	0.0036941
2854	0.0098646
2866	0.0145222
2878	0.0085485
2890	0.007052
2902	0.0096514
2914	0.0167116
2926	0.0338742
2938	0.0367032
2950	0.0165476
2962	0.0089093
2974	0.0058302
2986	0.002911
2998	0.0019229
3010	0.0017097
3022	0.0021197
3034	0.0026568
3046	0.0015949
3058	0.0014883
3070	0.0022427
3082	0.0014596
3094	0.0010291
3106	0.0007052
3118	0.0004387
3130	0.0002993
3142	0.0002091
3154	0.0001968
3166	0.0002132
3178	0.0001353
3190	0.000164
3202	0.0001271
3214	7.79e-05
3226	0.0001025
3238	8.2e-05
3250	9.02e-05
3262	8.2e-05
3274	8.2e-05
3286	0.0001025
3298	6.15e-05
3310	0.0001025
3322	6.97e-05
3334	7.38e-05
3346	8.2e-05
3358	0.0001189
3370	5.74e-05
3382	7.38e-05
3394	0.0001066
3406	6.56e-05
3418	6.56e-05
3430	5.33e-05
3442	6.97e-05
3454	5.74e-05
3466	6.15e-05
3478	3.69e-05
3490	2.46e-05
3502	2.05e-05
3514	4.51e-05
3526	4.92e-05
3538	3.28e-05
3550	7.79e-05
3562	6.15e-05
3574	1.23e-05
3586	4.1e-05
3598	3.69e-05
3610	0.0001271
3622	4.92e-05
3634	0.0001189
3646	0.0001107
3658	7.79e-05
3670	4.51e-05
3682	7.38e-05
3694	0.0001107
3706	6.56e-05
3718	0.000123
3730	0.0001107
3742	0.0001189
3754	8.61e-05
3766	0.0001107
3778	0.0001189
3790	0.0001394
3802	0.0001394
3814	0.0001353
3826	0.0001517
3838	0.0001066
