Infrared Spectrum: N-OCTADECYLDIHYDROXYBORANE
Formula: C18 H39 O2 B
CAS: 4445-09-4
State: SOLID (KBr PELLET);
Melting point: 88-90 C
Class: COBLENTZ
Instrument: Not specified, most likely a prism, grating, or hybrid spectrometer.
Sampling: TRANSMISSION
Resolution: 4
Origin: KALLERY CHEMICAL COMPANY
MICROMETERS	TRANSMITTANCE
2.021	0.822
2.05582	0.824
2.09063	0.827
2.12545	0.827
2.16026	0.829
2.19508	0.832
2.22989	0.836
2.26471	0.832
2.29952	0.822
2.33434	0.822
2.36915	0.832
2.40397	0.82
2.43878	0.824
2.4736	0.836
2.50841	0.839
2.54323	0.841
2.57804	0.841
2.61286	0.843
2.64767	0.844
2.68249	0.843
2.7173	0.836
2.75212	0.822
2.78694	0.793
2.82175	0.696
2.85657	0.477
2.89138	0.425
2.9262	0.439
2.96101	0.443
2.99583	0.401
3.03064	0.639
3.06546	0.712
3.10027	0.755
3.13509	0.779
3.1699	0.798
3.20472	0.808
3.23953	0.806
3.27435	0.794
3.30916	0.775
3.34398	0.71
3.37879	0.468
3.41361	0.222
3.44842	0.229
3.48324	0.453
3.51805	0.334
3.55287	0.663
3.58769	0.756
3.6225	0.834
3.65732	0.865
3.69213	0.882
3.72695	0.896
3.76176	0.898
3.79658	0.894
3.83139	0.896
3.86621	0.9
3.90102	0.905
3.93584	0.913
3.97065	0.915
4.00547	0.917
4.04028	0.917
4.0751	0.917
4.10991	0.918
4.14473	0.918
4.17954	0.92
4.21436	0.92
4.24917	0.915
4.28399	0.913
4.31881	0.913
4.35362	0.915
4.38844	0.922
4.42325	0.927
4.45807	0.932
4.49288	0.932
4.5277	0.934
4.56251	0.934
4.59733	0.936
4.63214	0.936
4.66696	0.936
4.70177	0.936
4.73659	0.936
4.7714	0.936
4.80622	0.936
4.84103	0.936
4.87585	0.936
4.91066	0.939
4.94548	0.937
4.98029	0.937
5.01511	0.941
5.04992	0.939
5.08474	0.941
5.11956	0.941
5.15437	0.941
5.18919	0.941
5.224	0.941
5.25882	0.943
5.29363	0.943
5.32845	0.943
5.36326	0.943
5.39808	0.943
5.43289	0.943
5.46771	0.943
5.50252	0.943
5.53734	0.941
5.57215	0.941
5.60697	0.939
5.64178	0.937
5.6766	0.936
5.71141	0.932
5.74623	0.925
5.78104	0.912
5.81586	0.903
5.85068	0.906
5.88549	0.91
5.92031	0.912
5.95512	0.91
5.98994	0.905
6.02475	0.901
6.05957	0.891
6.09438	0.884
6.1292	0.877
6.16401	0.875
6.19883	0.879
6.23364	0.884
6.26846	0.886
6.30327	0.884
6.33809	0.881
6.3729	0.881
6.40772	0.882
6.44253	0.884
6.47735	0.884
6.51216	0.879
6.54698	0.87
6.58179	0.863
6.61661	0.848
6.65143	0.831
6.68624	0.803
6.72106	0.763
6.75587	0.684
6.79069	0.432
6.8255	0.412
6.86032	0.674
6.89513	0.718
6.92995	0.708
6.96476	0.622
6.99958	0.532
7.03439	0.498
7.06921	0.503
7.10402	0.458
7.13884	0.394
7.17365	0.341
7.20847	0.336
7.24328	0.356
7.2781	0.367
7.31291	0.379
7.34773	0.412
7.38255	0.444
7.41736	0.477
7.45218	0.51
7.48699	0.529
7.52181	0.575
7.55662	0.572
7.59144	0.586
7.62625	0.637
7.66107	0.613
7.69588	0.663
7.7307	0.653
7.76551	0.646
7.80033	0.706
7.83514	0.727
7.86996	0.672
7.90477	0.727
7.93959	0.762
7.9744	0.713
8.00922	0.708
8.04403	0.784
8.07885	0.774
8.11367	0.705
8.14848	0.76
8.1833	0.805
8.21811	0.782
8.25293	0.682
8.28774	0.782
8.32256	0.803
8.35737	0.655
8.39219	0.741
8.427	0.794
8.46182	0.725
8.49663	0.622
8.53145	0.646
8.56626	0.706
8.60108	0.748
8.63589	0.746
8.67071	0.705
8.70552	0.686
8.74034	0.67
8.77515	0.663
8.80997	0.653
8.84478	0.641
8.8796	0.648
8.91442	0.675
8.94923	0.717
8.98405	0.744
9.01886	0.758
9.05368	0.755
9.08849	0.729
9.12331	0.748
9.15812	0.774
9.19294	0.784
9.22775	0.787
9.26257	0.781
9.29738	0.755
9.3322	0.717
9.36701	0.693
9.40183	0.705
9.43664	0.706
9.47146	0.687
9.50627	0.663
9.54109	0.62
9.5759	0.591
9.61072	0.572
9.64554	0.543
9.68035	0.537
9.71517	0.558
9.74998	0.534
9.7848	0.527
9.81961	0.512
9.85443	0.5
9.88924	0.513
9.92406	0.501
9.95887	0.553
9.99369	0.606
10.0285	0.646
10.0633	0.665
10.0981	0.672
10.1329	0.687
10.1678	0.718
10.2026	0.755
10.2374	0.779
10.2722	0.789
10.307	0.793
10.3418	0.796
10.3767	0.81
10.4115	0.824
10.4463	0.836
10.4811	0.839
10.5159	0.844
10.5507	0.853
10.5855	0.858
10.6204	0.862
10.6552	0.868
10.69	0.87
10.7248	0.874
10.7596	0.875
10.7944	0.877
10.8293	0.881
10.8641	0.879
10.8989	0.875
10.9337	0.872
10.9685	0.868
11.0033	0.875
11.0381	0.882
11.073	0.886
11.1078	0.889
11.1426	0.887
11.1774	0.887
11.2122	0.884
11.247	0.881
11.2819	0.879
11.3167	0.882
11.3515	0.881
11.3863	0.881
11.4211	0.882
11.4559	0.884
11.4907	0.886
11.5256	0.889
11.5604	0.889
11.5952	0.891
11.63	0.891
11.6648	0.887
11.6996	0.886
11.7344	0.884
11.7693	0.879
11.8041	0.87
11.8389	0.858
11.8737	0.855
11.9085	0.853
11.9433	0.85
11.9782	0.844
12.013	0.829
12.0478	0.81
12.0826	0.794
12.1174	0.768
12.1522	0.756
12.187	0.751
12.2219	0.743
12.2567	0.725
12.2915	0.713
12.3263	0.706
12.3611	0.7
12.3959	0.693
12.4308	0.687
12.4656	0.686
12.5004	0.684
12.5352	0.689
12.57	0.694
12.6048	0.7
12.6396	0.705
12.6745	0.708
12.7093	0.706
12.7441	0.701
12.7789	0.717
12.8137	0.734
12.8485	0.75
12.8834	0.76
12.9182	0.768
12.953	0.779
12.9878	0.789
13.0226	0.794
13.0574	0.794
13.0922	0.793
13.1271	0.793
13.1619	0.8
13.1967	0.806
13.2315	0.81
13.2663	0.81
13.3011	0.808
13.3359	0.805
13.3708	0.798
13.4056	0.794
13.4404	0.794
13.4752	0.801
13.51	0.813
13.5448	0.817
13.5797	0.82
13.6145	0.818
13.6493	0.818
13.6841	0.813
13.7189	0.806
13.7537	0.796
13.7885	0.777
13.8234	0.765
13.8582	0.731
13.893	0.663
13.9278	0.598
13.9626	0.544
13.9974	0.546
14.0323	0.568
14.0671	0.613
14.1019	0.665
14.1367	0.71
14.1715	0.732
14.2063	0.75
14.2411	0.758
14.276	0.763
14.3108	0.765
14.3456	0.765
14.3804	0.765
14.4152	0.763
14.45	0.756
14.4849	0.755
14.5197	0.748
14.5545	0.743
14.5893	0.741
14.6241	0.741
14.6589	0.734
14.6937	0.727
14.7286	0.725
14.7634	0.722
14.7982	0.718
14.833	0.713
14.8678	0.705
14.9026	0.701
14.9374	0.698
14.9723	0.698
15.0071	0.691
15.0419	0.675
15.0767	0.67
15.1115	0.672
15.1463	0.675
15.1812	0.679
15.216	0.684
15.2508	0.687
15.2856	0.691
15.3204	0.694
15.3552	0.696
15.39	0.7
