Infrared Spectrum: 2,2,4-TRIMETHYL-3-OXOVALERIC ACID, 2-ETHYLHEXYL ESTER
Formula: C16 H30 O3
CAS: 4447-76-1
Boiling point: 120 C AT 2 mmHg
Class: COBLENTZ
Instrument: Not specified, most likely a prism, grating, or hybrid spectrometer.
Sampling: TRANSMISSION
Path length: SMEAR
Resolution: 4
Origin: TENNESSEE EASTMAN COMPANY, RESEARCH LABORATORIES
MICROMETERS	TRANSMITTANCE
2.075	0.943
2.11588	0.941
2.15675	0.943
2.19763	0.941
2.23851	0.917
2.27938	0.899
2.32026	0.897
2.36114	0.904
2.40201	0.904
2.44289	0.911
2.48377	0.916
2.52464	0.923
2.56552	0.926
2.6064	0.928
2.64727	0.929
2.68815	0.933
2.72903	0.933
2.7699	0.933
2.81078	0.933
2.85165	0.933
2.89253	0.921
2.93341	0.895
2.97428	0.921
3.01516	0.923
3.05604	0.924
3.09691	0.923
3.13779	0.912
3.17867	0.904
3.21954	0.907
3.26042	0.9
3.3013	0.851
3.34217	0.377
3.38305	0.147
3.42393	0.271
3.4648	0.276
3.50568	0.652
3.54656	0.808
3.58743	0.87
3.62831	0.887
3.66919	0.887
3.71006	0.902
3.75094	0.912
3.79182	0.912
3.83269	0.923
3.87357	0.924
3.91445	0.928
3.95532	0.933
3.9962	0.936
4.03708	0.941
4.07795	0.943
4.11883	0.943
4.15971	0.94
4.20058	0.935
4.24146	0.943
4.28234	0.94
4.32321	0.936
4.36409	0.933
4.40496	0.945
4.44584	0.948
4.48672	0.95
4.52759	0.952
4.56847	0.953
4.60935	0.953
4.65022	0.953
4.6911	0.953
4.73198	0.955
4.77285	0.955
4.81373	0.957
4.85461	0.957
4.89548	0.955
4.93636	0.957
4.97724	0.958
5.01811	0.965
5.05899	0.962
5.09987	0.96
5.14074	0.96
5.18162	0.958
5.2225	0.957
5.26337	0.957
5.30425	0.955
5.34513	0.955
5.386	0.95
5.42688	0.945
5.46776	0.938
5.50863	0.923
5.54951	0.904
5.59039	0.868
5.63126	0.818
5.67214	0.687
5.71302	0.232
5.75389	0.176
5.79477	0.148
5.83565	0.061
5.87652	0.275
5.9174	0.615
5.95827	0.705
5.99915	0.782
6.04003	0.849
6.0809	0.856
6.12178	0.888
6.16266	0.899
6.20353	0.907
6.24441	0.917
6.28529	0.924
6.32616	0.929
6.36704	0.921
6.40792	0.9
6.44879	0.909
6.48967	0.882
6.53055	0.885
6.57142	0.863
6.6123	0.844
6.65318	0.825
6.69405	0.762
6.73493	0.562
6.77581	0.227
6.81668	0.251
6.85756	0.386
6.89844	0.504
6.93931	0.644
6.98019	0.772
7.02107	0.801
7.06194	0.815
7.10282	0.803
7.1437	0.711
7.18457	0.451
7.22545	0.365
7.26633	0.54
7.3072	0.615
7.34808	0.617
7.38896	0.711
7.42983	0.68
7.47071	0.705
7.51158	0.777
7.55246	0.793
7.59334	0.776
7.63421	0.747
7.67509	0.704
7.71597	0.656
7.75684	0.584
7.79772	0.446
7.8386	0.311
7.87947	0.247
7.92035	0.223
7.96123	0.22
8.0021	0.275
8.04298	0.4
8.08386	0.523
8.12473	0.596
8.16561	0.62
8.20649	0.605
8.24736	0.584
8.28824	0.581
8.32912	0.6
8.36999	0.606
8.41087	0.56
8.45175	0.437
8.49262	0.331
8.5335	0.287
8.57438	0.201
8.61525	0.133
8.65613	0.107
8.69701	0.123
8.73788	0.174
8.77876	0.264
8.81964	0.367
8.86051	0.502
8.90139	0.586
8.94226	0.63
8.98314	0.673
9.02402	0.699
9.06489	0.694
9.10577	0.598
9.14665	0.584
9.18752	0.676
9.2284	0.714
9.26928	0.731
9.31015	0.743
9.35103	0.747
9.39191	0.74
9.43278	0.717
9.47366	0.685
9.51454	0.596
9.55541	0.427
9.59629	0.242
9.63717	0.213
9.67804	0.338
9.71892	0.459
9.7598	0.521
9.80067	0.555
9.84155	0.572
9.88243	0.536
9.9233	0.417
9.96418	0.338
10.0051	0.444
10.0459	0.57
10.0868	0.634
10.1277	0.656
10.1686	0.661
10.2094	0.673
10.2503	0.69
10.2912	0.695
10.3321	0.692
10.3729	0.688
10.4138	0.694
10.4547	0.7
10.4956	0.683
10.5365	0.699
10.5773	0.728
10.6182	0.736
10.6591	0.74
10.7	0.728
10.7408	0.723
10.7817	0.728
10.8226	0.729
10.8635	0.724
10.9043	0.724
10.9452	0.743
10.9861	0.76
11.027	0.774
11.0678	0.789
11.1087	0.805
11.1496	0.815
11.1905	0.818
11.2314	0.817
11.2722	0.793
11.3131	0.782
11.354	0.782
11.3949	0.789
11.4357	0.8
11.4766	0.808
11.5175	0.832
11.5584	0.861
11.5992	0.87
11.6401	0.871
11.681	0.87
11.7219	0.864
11.7627	0.871
11.8036	0.876
11.8445	0.876
11.8854	0.876
11.9263	0.871
11.9671	0.87
12.008	0.87
12.0489	0.866
12.0898	0.864
12.1306	0.863
12.1715	0.863
12.2124	0.864
12.2533	0.868
12.2941	0.873
12.335	0.876
12.3759	0.882
12.4168	0.887
12.4577	0.888
12.4985	0.888
12.5394	0.873
12.5803	0.858
12.6212	0.834
12.662	0.822
12.7029	0.806
12.7438	0.798
12.7847	0.786
12.8255	0.777
12.8664	0.772
12.9073	0.769
12.9482	0.781
12.989	0.789
13.0299	0.801
13.0708	0.806
13.1117	0.81
13.1526	0.815
13.1934	0.823
13.2343	0.837
13.2752	0.844
13.3161	0.844
13.3569	0.844
13.3978	0.841
13.4387	0.834
13.4796	0.822
13.5204	0.815
13.5613	0.805
13.6022	0.789
13.6431	0.774
13.6839	0.762
13.7248	0.762
13.7657	0.781
13.8066	0.793
13.8475	0.803
13.8883	0.81
13.9292	0.815
13.9701	0.817
14.011	0.818
14.0518	0.818
14.0927	0.818
14.1336	0.818
14.1745	0.818
14.2153	0.811
14.2562	0.81
14.2971	0.806
14.338	0.801
14.3788	0.8
14.4197	0.794
14.4606	0.791
14.5015	0.789
14.5424	0.782
14.5832	0.776
14.6241	0.77
14.665	0.764
14.7059	0.757
14.7467	0.747
14.7876	0.74
14.8285	0.724
14.8694	0.711
14.9102	0.695
14.9511	0.683
14.992	0.671
15.0329	0.666
15.0738	0.663
15.1146	0.656
15.1555	0.652
15.1964	0.649
15.2373	0.647
15.2781	0.647
15.319	0.646
15.3599	0.646
15.4008	0.644
15.4416	0.642
15.4825	0.641
15.5234	0.641
15.5643	0.641
15.6051	0.639
15.646	0.639
15.6869	0.639
15.7278	0.637
15.7687	0.634
15.8095	0.634
15.8504	0.632
15.8913	0.63
15.9322	0.63
15.973	0.63
