Infrared Spectrum: VALERIC ACID, 2,2,4-TRIMETHYL-3-OXO-, ISO-BUTYL ESTER
Formula: C12 H22 O3
CAS: 4447-74-9
Boiling point: 115 C AT 16 mmHg
Class: COBLENTZ
Instrument: Not specified, most likely a prism, grating, or hybrid spectrometer.
Sampling: TRANSMISSION
Path length: SMEAR
Resolution: 4
Origin: TENNESSEE EASTMAN COMPANY, RESEARCH LABORATORIES
MICROMETERS	TRANSMITTANCE
2.082	0.95
2.12291	0.953
2.16383	0.955
2.20474	0.955
2.24566	0.926
2.28657	0.919
2.32749	0.923
2.3684	0.931
2.40932	0.933
2.45023	0.929
2.49115	0.938
2.53206	0.95
2.57298	0.948
2.61389	0.952
2.6548	0.953
2.69572	0.955
2.73663	0.955
2.77755	0.955
2.81846	0.955
2.85938	0.953
2.90029	0.923
2.94121	0.911
2.98212	0.931
3.02304	0.94
3.06395	0.94
3.10486	0.936
3.14578	0.919
3.18669	0.917
3.22761	0.924
3.26852	0.916
3.30944	0.757
3.35035	0.191
3.39127	0.194
3.43218	0.379
3.4731	0.574
3.51401	0.83
3.55493	0.871
3.59584	0.914
3.63675	0.916
3.67767	0.916
3.71858	0.938
3.7595	0.941
3.80041	0.947
3.84133	0.95
3.88224	0.953
3.92316	0.953
3.96407	0.952
4.00499	0.957
4.0459	0.96
4.08682	0.96
4.12773	0.958
4.16864	0.952
4.20956	0.952
4.25047	0.962
4.29139	0.957
4.3323	0.953
4.37322	0.95
4.41413	0.962
4.45505	0.962
4.49596	0.965
4.53688	0.965
4.57779	0.965
4.6187	0.965
4.65962	0.965
4.70053	0.964
4.74145	0.964
4.78236	0.962
4.82328	0.962
4.86419	0.962
4.90511	0.964
4.94602	0.967
4.98694	0.969
5.02785	0.967
5.06877	0.962
5.10968	0.962
5.15059	0.962
5.19151	0.96
5.23242	0.958
5.27334	0.957
5.31425	0.958
5.35517	0.957
5.39608	0.95
5.437	0.941
5.47791	0.931
5.51883	0.904
5.55974	0.878
5.60066	0.817
5.64157	0.755
5.68248	0.509
5.7234	0.135
5.76431	0.105
5.80523	0.066
5.84614	0.037
5.88706	0.222
5.92797	0.545
5.96889	0.685
6.0098	0.798
6.05072	0.829
6.09163	0.849
6.13254	0.87
6.17346	0.888
6.21437	0.9
6.25529	0.914
6.2962	0.919
6.33712	0.924
6.37803	0.921
6.41895	0.904
6.45986	0.895
6.50078	0.873
6.54169	0.873
6.58261	0.849
6.62352	0.82
6.66443	0.791
6.70535	0.682
6.74626	0.405
6.78718	0.147
6.82809	0.237
6.86901	0.401
6.90992	0.529
6.95084	0.649
6.99175	0.74
7.03267	0.769
7.07358	0.765
7.1145	0.694
7.15541	0.497
7.19632	0.309
7.23724	0.294
7.27815	0.442
7.31907	0.377
7.35998	0.57
7.4009	0.61
7.44181	0.576
7.48273	0.664
7.52364	0.743
7.56456	0.777
7.60547	0.762
7.64638	0.712
7.6873	0.63
7.72821	0.577
7.76913	0.429
7.81004	0.3
7.85096	0.225
7.89187	0.172
7.93279	0.16
7.9737	0.152
8.01462	0.208
8.05553	0.362
8.09645	0.519
8.13736	0.582
8.17827	0.598
8.21919	0.577
8.2601	0.558
8.30102	0.557
8.34193	0.57
8.38285	0.523
8.42376	0.398
8.46468	0.321
8.50559	0.252
8.54651	0.225
8.58742	0.152
8.62833	0.082
8.66925	0.052
8.71016	0.052
8.75108	0.109
8.79199	0.222
8.83291	0.396
8.87382	0.558
8.91474	0.651
8.95565	0.714
8.99657	0.738
9.03748	0.741
9.0784	0.695
9.11931	0.565
9.16022	0.615
9.20114	0.781
9.24205	0.829
9.28297	0.847
9.32388	0.849
9.3648	0.841
9.40571	0.813
9.44663	0.77
9.48754	0.704
9.52846	0.535
9.56937	0.282
9.61029	0.172
9.6512	0.136
9.69211	0.338
9.73303	0.47
9.77394	0.541
9.81486	0.569
9.85577	0.564
9.89669	0.452
9.9376	0.282
9.97852	0.229
10.0194	0.28
10.0603	0.294
10.1013	0.358
10.1422	0.471
10.1831	0.634
10.224	0.724
10.2649	0.77
10.3058	0.758
10.3467	0.741
10.3877	0.76
10.4286	0.765
10.4695	0.729
10.5104	0.695
10.5513	0.682
10.5922	0.685
10.6332	0.699
10.6741	0.688
10.715	0.661
10.7559	0.613
10.7968	0.611
10.8377	0.663
10.8786	0.712
10.9196	0.723
10.9605	0.728
11.0014	0.738
11.0423	0.774
11.0832	0.81
11.1241	0.837
11.165	0.846
11.206	0.825
11.2469	0.794
11.2878	0.781
11.3287	0.786
11.3696	0.796
11.4105	0.806
11.4514	0.808
11.4924	0.813
11.5333	0.841
11.5742	0.859
11.6151	0.87
11.656	0.876
11.6969	0.887
11.7378	0.895
11.7788	0.899
11.8197	0.902
11.8606	0.902
11.9015	0.895
11.9424	0.873
11.9833	0.861
12.0242	0.847
12.0652	0.847
12.1061	0.849
12.147	0.841
12.1879	0.829
12.2288	0.842
12.2697	0.878
12.3106	0.907
12.3516	0.919
12.3925	0.924
12.4334	0.924
12.4743	0.926
12.5152	0.928
12.5561	0.929
12.5971	0.931
12.638	0.931
12.6789	0.931
12.7198	0.929
12.7607	0.917
12.8016	0.902
12.8425	0.89
12.8835	0.878
12.9244	0.87
12.9653	0.876
13.0062	0.873
13.0471	0.868
13.088	0.859
13.1289	0.87
13.1699	0.887
13.2108	0.894
13.2517	0.9
13.2926	0.902
13.3335	0.902
13.3744	0.904
13.4153	0.9
13.4563	0.895
13.4972	0.888
13.5381	0.887
13.579	0.882
13.6199	0.882
13.6608	0.88
13.7017	0.878
13.7427	0.878
13.7836	0.876
13.8245	0.876
13.8654	0.873
13.9063	0.87
13.9472	0.868
13.9881	0.866
14.0291	0.864
14.07	0.859
14.1109	0.858
14.1518	0.851
14.1927	0.847
14.2336	0.842
14.2745	0.839
14.3155	0.834
14.3564	0.829
14.3973	0.822
14.4382	0.822
14.4791	0.818
14.52	0.81
14.561	0.803
14.6019	0.798
14.6428	0.796
14.6837	0.784
14.7246	0.777
14.7655	0.769
14.8064	0.757
14.8474	0.741
14.8883	0.724
14.9292	0.711
14.9701	0.702
15.011	0.683
15.0519	0.673
15.0928	0.664
15.1338	0.664
15.1747	0.664
15.2156	0.664
15.2565	0.664
15.2974	0.663
15.3383	0.661
15.3792	0.661
15.4202	0.659
15.4611	0.658
15.502	0.658
15.5429	0.656
15.5838	0.656
15.6247	0.654
15.6656	0.649
15.7066	0.647
15.7475	0.644
15.7884	0.644
15.8293	0.644
15.8702	0.642
15.9111	0.642
15.952	0.641
15.993	0.641
