Infrared Spectrum: 2,2,4-TRIMETHYL-3-OXOVALERIC ACID, ETHYL ESTER
Formula: C10 H18 O3
CAS: 4447-64-7
Boiling point: 80-81 C AT 10 mmHg
Class: COBLENTZ
Instrument: Not specified, most likely a prism, grating, or hybrid spectrometer.
Sampling: TRANSMISSION
Path length: SMEAR
Resolution: 4
Origin: TENNESSEE EASTMAN COMPANY, RESEARCH LABORATORIES
MICROMETERS	TRANSMITTANCE
2.048	0.97
2.08894	0.97
2.12987	0.969
2.17081	0.969
2.21174	0.964
2.25268	0.921
2.29361	0.911
2.33455	0.924
2.37548	0.935
2.41642	0.933
2.45735	0.933
2.49829	0.936
2.53922	0.95
2.58016	0.952
2.62109	0.952
2.66203	0.953
2.70296	0.953
2.7439	0.941
2.78483	0.941
2.82577	0.941
2.86671	0.943
2.90764	0.921
2.94858	0.899
2.98951	0.94
3.03045	0.943
3.07138	0.943
3.11232	0.936
3.15325	0.924
3.19419	0.923
3.23512	0.926
3.27606	0.912
3.31699	0.646
3.35793	0.081
3.39886	0.23
3.4398	0.462
3.48073	0.634
3.52167	0.854
3.5626	0.885
3.60354	0.926
3.64448	0.93
3.68541	0.936
3.72635	0.948
3.76728	0.953
3.80822	0.953
3.84915	0.955
3.89009	0.957
3.93102	0.96
3.97196	0.957
4.01289	0.959
4.05383	0.96
4.09476	0.962
4.1357	0.96
4.17663	0.952
4.21757	0.952
4.2585	0.957
4.29944	0.953
4.34037	0.95
4.38131	0.957
4.42224	0.964
4.46318	0.969
4.50412	0.969
4.54505	0.969
4.58599	0.972
4.62692	0.974
4.66786	0.969
4.70879	0.965
4.74973	0.969
4.79066	0.976
4.8316	0.976
4.87253	0.97
4.91347	0.969
4.9544	0.959
4.99534	0.964
5.03627	0.974
5.07721	0.974
5.11814	0.974
5.15908	0.972
5.20001	0.97
5.24095	0.962
5.28189	0.952
5.32282	0.952
5.36376	0.952
5.40469	0.959
5.44563	0.952
5.48656	0.928
5.5275	0.902
5.56843	0.861
5.60937	0.795
5.6503	0.66
5.69124	0.409
5.73217	0.039
5.77311	0.042
5.81404	0.023
5.85498	0.04
5.89591	0.29
5.93685	0.494
5.97778	0.665
6.01872	0.781
6.05966	0.824
6.10059	0.861
6.14153	0.87
6.18246	0.885
6.2234	0.902
6.26433	0.918
6.30527	0.924
6.3462	0.928
6.38714	0.921
6.42807	0.901
6.46901	0.895
6.50994	0.878
6.55088	0.868
6.59181	0.853
6.63275	0.822
6.67368	0.776
6.71462	0.525
6.75555	0.225
6.79649	0.156
6.83743	0.259
6.87836	0.319
6.9193	0.455
6.96023	0.699
7.00117	0.762
7.0421	0.779
7.08304	0.766
7.12397	0.633
7.16491	0.438
7.20584	0.197
7.24678	0.341
7.28771	0.52
7.32865	0.38
7.36958	0.609
7.41052	0.622
7.45145	0.655
7.49239	0.744
7.53332	0.788
7.57426	0.784
7.61519	0.738
7.65613	0.6
7.69707	0.491
7.738	0.482
7.77894	0.401
7.81987	0.215
7.86081	0.105
7.90174	0.071
7.94268	0.058
7.98361	0.1
8.02455	0.245
8.06548	0.39
8.10642	0.494
8.14735	0.534
8.18829	0.517
8.22922	0.491
8.27016	0.498
8.31109	0.508
8.35203	0.5
8.39296	0.428
8.4339	0.24
8.47484	0.134
8.51577	0.114
8.55671	0.112
8.59764	0.066
8.63858	0.029
8.67951	0.018
8.72045	0.034
8.76138	0.131
8.80232	0.298
8.84325	0.44
8.88419	0.52
8.92512	0.518
8.96606	0.488
9.00699	0.518
9.04793	0.508
9.08886	0.412
9.1298	0.343
9.17073	0.537
9.21167	0.656
9.25261	0.709
9.29354	0.725
9.33448	0.73
9.37541	0.721
9.41635	0.691
9.45728	0.617
9.49822	0.493
9.53915	0.226
9.58009	0.076
9.62102	0.061
9.66196	0.148
9.70289	0.199
9.74383	0.199
9.78476	0.215
9.8257	0.296
9.86663	0.38
9.90757	0.343
9.9485	0.221
9.98944	0.336
10.0304	0.472
10.0713	0.679
10.1122	0.745
10.1532	0.786
10.1941	0.813
10.2351	0.831
10.276	0.836
10.3169	0.836
10.3579	0.825
10.3988	0.819
10.4397	0.802
10.4807	0.783
10.5216	0.783
10.5625	0.795
10.6035	0.776
10.6444	0.721
10.6853	0.721
10.7263	0.767
10.7672	0.813
10.8081	0.851
10.8491	0.89
10.89	0.907
10.931	0.923
10.9719	0.928
11.0128	0.93
11.0538	0.93
11.0947	0.93
11.1356	0.926
11.1766	0.911
11.2175	0.87
11.2584	0.81
11.2994	0.774
11.3403	0.805
11.3812	0.844
11.4222	0.853
11.4631	0.82
11.504	0.752
11.545	0.665
11.5859	0.616
11.6269	0.614
11.6678	0.67
11.7087	0.728
11.7497	0.779
11.7906	0.815
11.8315	0.86
11.8725	0.889
11.9134	0.909
11.9543	0.919
11.9953	0.924
12.0362	0.928
12.0771	0.93
12.1181	0.931
12.159	0.931
12.1999	0.93
12.2409	0.923
12.2818	0.914
12.3227	0.909
12.3637	0.902
12.4046	0.895
12.4456	0.872
12.4865	0.849
12.5274	0.836
12.5684	0.836
12.6093	0.854
12.6502	0.872
12.6912	0.88
12.7321	0.88
12.773	0.873
12.814	0.851
12.8549	0.843
12.8958	0.843
12.9368	0.846
12.9777	0.853
13.0186	0.853
13.0596	0.854
13.1005	0.856
13.1415	0.86
13.1824	0.868
13.2233	0.88
13.2643	0.889
13.3052	0.894
13.3461	0.895
13.3871	0.901
13.428	0.902
13.4689	0.901
13.5099	0.901
13.5508	0.897
13.5917	0.894
13.6327	0.894
13.6736	0.895
13.7145	0.899
13.7555	0.899
13.7964	0.899
13.8374	0.897
13.8783	0.897
13.9192	0.899
13.9602	0.897
14.0011	0.897
14.042	0.89
14.083	0.89
14.1239	0.889
14.1648	0.887
14.2058	0.885
14.2467	0.882
14.2876	0.88
14.3286	0.87
14.3695	0.868
14.4104	0.866
14.4514	0.865
14.4923	0.856
14.5333	0.853
14.5742	0.848
14.6151	0.846
14.6561	0.839
14.697	0.831
14.7379	0.822
14.7789	0.815
14.8198	0.803
14.8607	0.786
14.9017	0.767
14.9426	0.752
14.9835	0.74
15.0245	0.735
15.0654	0.733
15.1063	0.733
15.1473	0.733
15.1882	0.733
15.2292	0.733
15.2701	0.732
15.311	0.732
15.352	0.732
15.3929	0.732
15.4338	0.73
15.4748	0.73
15.5157	0.73
15.5566	0.726
15.5976	0.726
15.6385	0.726
15.6794	0.725
15.7204	0.723
15.7613	0.723
15.8022	0.723
15.8432	0.721
15.8841	0.72
15.9251	0.716
15.966	0.715
