Infrared Spectrum: VALERIC ACID, 2,2,4-TRIMETHYL-3-OXO-, BUTYL ESTER
Formula: C12 H22 O3
CAS: 4447-69-2
Boiling point: 113-114 C AT 14 mmHg
Class: COBLENTZ
Instrument: Not specified, most likely a prism, grating, or hybrid spectrometer.
Sampling: TRANSMISSION
Path length: SMEAR
Resolution: 4
Origin: TENNESSEE EASTMAN COMPANY, RESEARCH LABORATORIES
MICROMETERS	TRANSMITTANCE
2.068	0.933
2.10886	0.934
2.14971	0.934
2.19057	0.938
2.23142	0.924
2.27228	0.9
2.31314	0.902
2.35399	0.909
2.39485	0.91
2.4357	0.91
2.47656	0.912
2.51742	0.922
2.55827	0.928
2.59913	0.929
2.63998	0.931
2.68084	0.934
2.72169	0.934
2.76255	0.936
2.80341	0.936
2.84426	0.936
2.88512	0.929
2.92597	0.892
2.96683	0.919
3.00769	0.929
3.04854	0.931
3.0894	0.929
3.13025	0.914
3.17111	0.909
3.21197	0.914
3.25282	0.904
3.29368	0.803
3.33453	0.19
3.37539	0.238
3.41625	0.388
3.4571	0.392
3.49796	0.784
3.53881	0.84
3.57967	0.885
3.62053	0.895
3.66138	0.9
3.70224	0.914
3.74309	0.924
3.78395	0.929
3.8248	0.936
3.86566	0.938
3.90652	0.938
3.94737	0.938
3.98823	0.941
4.02908	0.946
4.06994	0.946
4.1108	0.946
4.15165	0.94
4.19251	0.94
4.23336	0.941
4.27422	0.941
4.31508	0.941
4.35593	0.941
4.39679	0.945
4.43764	0.948
4.4785	0.948
4.51936	0.948
4.56021	0.948
4.60107	0.948
4.64192	0.948
4.68278	0.948
4.72364	0.945
4.76449	0.946
4.80535	0.946
4.8462	0.948
4.88706	0.948
4.92792	0.948
4.96877	0.948
5.00963	0.948
5.05048	0.95
5.09134	0.95
5.13219	0.95
5.17305	0.948
5.21391	0.946
5.25476	0.943
5.29562	0.943
5.33647	0.943
5.37733	0.943
5.41819	0.936
5.45904	0.922
5.4999	0.9
5.54075	0.864
5.58161	0.823
5.62247	0.758
5.66332	0.585
5.70418	0.217
5.74503	0.196
5.78589	0.155
5.82675	0.106
5.8676	0.309
5.90846	0.553
5.94931	0.657
5.99017	0.739
6.03103	0.811
6.07188	0.828
6.11274	0.852
6.15359	0.871
6.19445	0.883
6.2353	0.893
6.27616	0.905
6.31702	0.91
6.35787	0.907
6.39873	0.892
6.43958	0.875
6.48044	0.851
6.5213	0.854
6.56215	0.84
6.60301	0.811
6.64386	0.794
6.68472	0.715
6.72558	0.52
6.76643	0.261
6.80729	0.301
6.84814	0.39
6.889	0.474
6.92986	0.594
6.97071	0.708
7.01157	0.758
7.05242	0.765
7.09328	0.703
7.13414	0.597
7.17499	0.422
7.21585	0.344
7.2567	0.53
7.29756	0.561
7.33841	0.563
7.37927	0.659
7.42013	0.631
7.46098	0.669
7.50184	0.732
7.54269	0.736
7.58355	0.731
7.62441	0.671
7.66526	0.628
7.70612	0.611
7.74697	0.544
7.78783	0.412
7.82869	0.285
7.86954	0.25
7.9104	0.236
7.95125	0.226
7.99211	0.272
8.03297	0.375
8.07382	0.474
8.11468	0.549
8.15553	0.571
8.19639	0.571
8.23725	0.549
8.2781	0.542
8.31896	0.534
8.35981	0.501
8.40067	0.496
8.44153	0.405
8.48238	0.308
8.52324	0.282
8.56409	0.229
8.60495	0.171
8.6458	0.154
8.68666	0.157
8.72752	0.183
8.76837	0.275
8.80923	0.381
8.85008	0.46
8.89094	0.5
8.9318	0.547
8.97265	0.623
9.01351	0.66
9.05436	0.66
9.09522	0.547
9.13608	0.525
9.17693	0.628
9.21779	0.684
9.25864	0.695
9.2995	0.655
9.34036	0.597
9.38121	0.549
9.42207	0.522
9.46292	0.546
9.50378	0.539
9.54464	0.402
9.58549	0.248
9.62635	0.222
9.6672	0.296
9.70806	0.397
9.74891	0.443
9.78977	0.455
9.83063	0.489
9.87148	0.501
9.91234	0.412
9.95319	0.321
9.99405	0.385
10.0349	0.527
10.0758	0.631
10.1166	0.683
10.1575	0.695
10.1983	0.691
10.2392	0.652
10.28	0.618
10.3209	0.594
10.3618	0.601
10.4026	0.619
10.4435	0.614
10.4843	0.582
10.5252	0.573
10.566	0.59
10.6069	0.609
10.6477	0.614
10.6886	0.602
10.7295	0.599
10.7703	0.602
10.8112	0.628
10.852	0.667
10.8929	0.712
10.9337	0.732
10.9746	0.75
11.0154	0.761
11.0563	0.768
11.0972	0.753
11.138	0.761
11.1789	0.768
11.2197	0.763
11.2606	0.743
11.3014	0.741
11.3423	0.739
11.3832	0.72
11.424	0.698
11.4649	0.722
11.5057	0.782
11.5466	0.82
11.5874	0.827
11.6283	0.825
11.6691	0.811
11.71	0.801
11.7509	0.777
11.7917	0.746
11.8326	0.722
11.8734	0.719
11.9143	0.739
11.9551	0.767
11.996	0.792
12.0368	0.806
12.0777	0.809
12.1186	0.815
12.1594	0.82
12.2003	0.823
12.2411	0.823
12.282	0.823
12.3228	0.823
12.3637	0.825
12.4046	0.83
12.4454	0.844
12.4863	0.851
12.5271	0.859
12.568	0.866
12.6088	0.868
12.6497	0.869
12.6905	0.869
12.7314	0.863
12.7723	0.852
12.8131	0.832
12.854	0.827
12.8948	0.82
12.9357	0.818
12.9765	0.82
13.0174	0.816
13.0582	0.818
13.0991	0.821
13.14	0.827
13.1808	0.83
13.2217	0.83
13.2625	0.827
13.3034	0.82
13.3442	0.813
13.3851	0.801
13.4259	0.78
13.4668	0.761
13.5077	0.756
13.5485	0.761
13.5894	0.785
13.6302	0.801
13.6711	0.811
13.7119	0.82
13.7528	0.827
13.7937	0.832
13.8345	0.833
13.8754	0.837
13.9162	0.837
13.9571	0.837
13.9979	0.839
14.0388	0.839
14.0796	0.839
14.1205	0.839
14.1614	0.837
14.2022	0.828
14.2431	0.83
14.2839	0.83
14.3248	0.827
14.3656	0.818
14.4065	0.816
14.4473	0.808
14.4882	0.804
14.5291	0.799
14.5699	0.794
14.6108	0.789
14.6516	0.782
14.6925	0.772
14.7333	0.76
14.7742	0.753
14.8151	0.738
14.8559	0.724
14.8968	0.708
14.9376	0.684
14.9785	0.667
15.0193	0.662
15.0602	0.664
15.101	0.666
15.1419	0.662
15.1828	0.66
15.2236	0.66
15.2645	0.659
15.3053	0.655
15.3462	0.652
15.387	0.648
15.4279	0.647
15.4687	0.642
15.5096	0.64
15.5505	0.638
15.5913	0.635
15.6322	0.63
15.673	0.628
15.7139	0.625
15.7547	0.618
15.7956	0.613
15.8364	0.611
15.8773	0.607
15.9182	0.606
15.959	0.599
15.9999	0.597
