Infrared Spectrum: ETHYLENE GLYCOL ISO-BUTYRATE-2,2,4-TRIMETHYL-3-OXOVALERATE
Formula: C14 H24 O5
CAS: 4447-80-7
Class: COBLENTZ
Instrument: Not specified, most likely a prism, grating, or hybrid spectrometer.
Sampling: TRANSMISSION
Path length: SMEAR
Resolution: 4
Origin: TENNESSEE EASTMAN COMPANY, RESEARCH LABORATORIES
MICROMETERS	TRANSMITTANCE
2.061	0.962
2.10192	0.967
2.14284	0.97
2.18375	0.974
2.22467	0.97
2.26559	0.941
2.30651	0.94
2.34742	0.95
2.38834	0.953
2.42926	0.953
2.47018	0.953
2.5111	0.962
2.55201	0.976
2.59293	0.976
2.63385	0.977
2.67477	0.982
2.71568	0.984
2.7566	0.986
2.79752	0.986
2.83844	0.984
2.87936	0.976
2.92027	0.928
2.96119	0.957
3.00211	0.977
3.04303	0.979
3.08394	0.977
3.12486	0.972
3.16578	0.958
3.2067	0.962
3.24762	0.962
3.28853	0.935
3.32945	0.654
3.37037	0.211
3.41129	0.377
3.4522	0.558
3.49312	0.805
3.53404	0.899
3.57496	0.938
3.61588	0.96
3.65679	0.962
3.69771	0.969
3.73863	0.982
3.77955	0.982
3.82046	0.984
3.86138	0.988
3.9023	0.988
3.94322	0.984
3.98414	0.988
4.02505	0.988
4.06597	0.988
4.10689	0.989
4.14781	0.989
4.18872	0.989
4.22964	0.989
4.27056	0.982
4.31148	0.979
4.3524	0.976
4.39331	0.979
4.43423	0.989
4.47515	0.993
4.51607	0.994
4.55698	0.996
4.5979	0.996
4.63882	0.996
4.67974	0.996
4.72065	0.996
4.76157	0.996
4.80249	0.994
4.84341	0.996
4.88433	0.994
4.92524	0.984
4.96616	0.984
5.00708	0.984
5.048	0.984
5.08891	0.986
5.12983	0.986
5.17075	0.988
5.21167	0.988
5.25259	0.986
5.2935	0.986
5.33442	0.986
5.37534	0.979
5.41626	0.969
5.45717	0.95
5.49809	0.923
5.53901	0.878
5.57993	0.847
5.62085	0.758
5.66176	0.601
5.70268	0.218
5.7436	0.058
5.78452	0.083
5.82543	0.107
5.86635	0.153
5.90727	0.437
5.94819	0.641
5.98911	0.747
6.03002	0.822
6.07094	0.866
6.11186	0.904
6.15278	0.924
6.19369	0.94
6.23461	0.95
6.27553	0.96
6.31645	0.965
6.35737	0.967
6.39828	0.962
6.4392	0.945
6.48012	0.931
6.52104	0.917
6.56195	0.904
6.60287	0.883
6.64379	0.846
6.68471	0.801
6.72563	0.659
6.76654	0.382
6.80746	0.252
6.84838	0.324
6.8893	0.393
6.93021	0.468
6.97113	0.646
7.01205	0.753
7.05297	0.776
7.09389	0.748
7.1348	0.644
7.17572	0.502
7.21664	0.323
7.25756	0.456
7.29847	0.56
7.33939	0.482
7.38031	0.588
7.42123	0.565
7.46215	0.487
7.50306	0.56
7.54398	0.654
7.5849	0.707
7.62582	0.716
7.66673	0.682
7.70765	0.606
7.74857	0.519
7.78949	0.415
7.83041	0.309
7.87132	0.249
7.91224	0.235
7.95316	0.215
7.99408	0.21
8.03499	0.247
8.07591	0.326
8.11683	0.42
8.15775	0.464
8.19867	0.466
8.23958	0.42
8.2805	0.36
8.32142	0.28
8.36234	0.222
8.40325	0.198
8.44417	0.229
8.48509	0.256
8.52601	0.218
8.56693	0.158
8.60784	0.112
8.64876	0.094
8.68968	0.066
8.7306	0.063
8.77151	0.092
8.81243	0.164
8.85335	0.22
8.89427	0.232
8.93519	0.256
8.9761	0.321
9.01702	0.391
9.05794	0.423
9.09886	0.37
9.13977	0.319
9.18069	0.333
9.22161	0.336
9.26253	0.391
9.30344	0.49
9.34436	0.572
9.38528	0.594
9.4262	0.548
9.46712	0.456
9.50803	0.393
9.54895	0.348
9.58987	0.297
9.63079	0.251
9.6717	0.27
9.71262	0.348
9.75354	0.415
9.79446	0.476
9.83538	0.541
9.87629	0.581
9.91721	0.524
9.95813	0.406
9.99905	0.415
10.04	0.589
10.0809	0.702
10.1218	0.77
10.1627	0.806
10.2036	0.829
10.2446	0.841
10.2855	0.841
10.3264	0.817
10.3673	0.786
10.4082	0.769
10.4491	0.731
10.4901	0.676
10.531	0.639
10.5719	0.639
10.6128	0.67
10.6537	0.707
10.6946	0.714
10.7356	0.705
10.7765	0.702
10.8174	0.723
10.8583	0.752
10.8992	0.789
10.9402	0.832
10.9811	0.87
11.022	0.878
11.0629	0.876
11.1038	0.861
11.1447	0.835
11.1857	0.801
11.2266	0.733
11.2675	0.712
11.3084	0.712
11.3493	0.688
11.3903	0.668
11.4312	0.652
11.4721	0.654
11.513	0.661
11.5539	0.661
11.5948	0.664
11.6358	0.704
11.6767	0.748
11.7176	0.782
11.7585	0.789
11.7994	0.789
11.8403	0.789
11.8813	0.791
11.9222	0.801
11.9631	0.815
12.004	0.817
12.0449	0.817
12.0859	0.818
12.1268	0.825
12.1677	0.837
12.2086	0.846
12.2495	0.851
12.2904	0.852
12.3314	0.854
12.3723	0.859
12.4132	0.875
12.4541	0.894
12.495	0.905
12.5359	0.916
12.5769	0.926
12.6178	0.929
12.6587	0.929
12.6996	0.928
12.7405	0.926
12.7815	0.914
12.8224	0.892
12.8633	0.871
12.9042	0.852
12.9451	0.842
12.986	0.83
13.027	0.811
13.0679	0.791
13.1088	0.782
13.1497	0.777
13.1906	0.779
13.2316	0.776
13.2725	0.774
13.3134	0.776
13.3543	0.789
13.3952	0.81
13.4361	0.83
13.4771	0.851
13.518	0.861
13.5589	0.868
13.5998	0.875
13.6407	0.878
13.6816	0.878
13.7226	0.882
13.7635	0.882
13.8044	0.882
13.8453	0.883
13.8862	0.883
13.9272	0.883
13.9681	0.883
14.009	0.883
14.0499	0.88
14.0908	0.876
14.1317	0.873
14.1727	0.87
14.2136	0.864
14.2545	0.859
14.2954	0.856
14.3363	0.851
14.3772	0.847
14.4182	0.841
14.4591	0.832
14.5	0.827
14.5409	0.823
14.5818	0.818
14.6228	0.808
14.6637	0.8
14.7046	0.791
14.7455	0.784
14.7864	0.772
14.8273	0.762
14.8683	0.745
14.9092	0.728
14.9501	0.714
14.991	0.702
15.0319	0.695
15.0729	0.695
15.1138	0.69
15.1547	0.683
15.1956	0.682
15.2365	0.68
15.2774	0.68
15.3184	0.676
15.3593	0.671
15.4002	0.67
15.4411	0.668
15.482	0.668
15.5229	0.666
15.5639	0.666
15.6048	0.664
15.6457	0.663
15.6866	0.661
15.7275	0.659
15.7685	0.658
15.8094	0.658
15.8503	0.658
15.8912	0.658
15.9321	0.656
15.973	0.656
