Infrared Spectrum: VALERIC ACID, 2,2,4-TRIMETHYL-3-OXO-, TERT-BUTYL ESTER
Formula: C12 H22 O3
CAS: 4447-75-0
Class: COBLENTZ
Instrument: Not specified, most likely a prism, grating, or hybrid spectrometer.
Sampling: TRANSMISSION
Path length: SMEAR
Resolution: 4
Origin: TENNESSEE EASTMAN COMPANY, RESEARCH LABORATORIES
MICROMETERS	TRANSMITTANCE
2.102	0.958
2.143	0.957
2.184	0.957
2.22499	0.948
2.26599	0.905
2.30699	0.907
2.34799	0.917
2.38899	0.919
2.42999	0.921
2.47098	0.923
2.51198	0.929
2.55298	0.935
2.59398	0.938
2.63498	0.941
2.67597	0.95
2.71697	0.95
2.75797	0.95
2.79897	0.952
2.83997	0.95
2.88096	0.95
2.92196	0.902
2.96296	0.919
3.00396	0.936
3.04496	0.938
3.08596	0.936
3.12695	0.923
3.16795	0.912
3.20895	0.921
3.24995	0.921
3.29095	0.902
3.33194	0.505
3.37294	0.34
3.41394	0.379
3.45494	0.519
3.49594	0.82
3.53693	0.856
3.57793	0.904
3.61893	0.929
3.65993	0.928
3.70093	0.931
3.74193	0.943
3.78292	0.95
3.82392	0.95
3.86492	0.95
3.90592	0.955
3.94692	0.955
3.98791	0.957
4.02891	0.962
4.06991	0.962
4.11091	0.962
4.15191	0.958
4.1929	0.95
4.2339	0.952
4.2749	0.957
4.3159	0.957
4.3569	0.953
4.3979	0.95
4.43889	0.967
4.47989	0.97
4.52089	0.969
4.56189	0.969
4.60289	0.967
4.64388	0.969
4.68488	0.969
4.72588	0.967
4.76688	0.972
4.80788	0.976
4.84887	0.979
4.88987	0.977
4.93087	0.976
4.97187	0.972
5.01287	0.967
5.05387	0.965
5.09486	0.974
5.13586	0.976
5.17686	0.976
5.21786	0.976
5.25886	0.974
5.29985	0.96
5.34085	0.96
5.38185	0.96
5.42285	0.957
5.46385	0.948
5.50485	0.936
5.54584	0.935
5.58684	0.902
5.62784	0.851
5.66884	0.767
5.70984	0.485
5.75083	0.213
5.79183	0.208
5.83283	0.099
5.87383	0.181
5.91483	0.485
5.95582	0.598
5.99682	0.683
6.03782	0.815
6.07882	0.852
6.11982	0.883
6.16082	0.89
6.20181	0.9
6.24281	0.914
6.28381	0.916
6.32481	0.909
6.36581	0.909
6.4068	0.912
6.4478	0.909
6.4888	0.9
6.5298	0.9
6.5708	0.856
6.61179	0.834
6.65279	0.805
6.69379	0.733
6.73479	0.538
6.77579	0.321
6.81679	0.329
6.85778	0.388
6.89878	0.475
6.93978	0.608
6.98078	0.723
7.02178	0.788
7.06277	0.793
7.10377	0.765
7.14477	0.567
7.18577	0.398
7.22677	0.309
7.26776	0.393
7.30876	0.232
7.34976	0.406
7.39076	0.627
7.43176	0.661
7.47276	0.67
7.51375	0.741
7.55475	0.791
7.59575	0.791
7.63675	0.752
7.67775	0.697
7.71874	0.582
7.75974	0.425
7.80074	0.314
7.84174	0.282
7.88274	0.251
7.92373	0.237
7.96473	0.239
8.00573	0.307
8.04673	0.418
8.08773	0.541
8.12873	0.611
8.16972	0.622
8.21072	0.603
8.25172	0.62
8.29272	0.639
8.33372	0.611
8.37471	0.562
8.41571	0.502
8.45671	0.449
8.49771	0.35
8.53871	0.299
8.5797	0.263
8.6207	0.198
8.6617	0.111
8.7027	0.078
8.7437	0.075
8.7847	0.131
8.82569	0.249
8.86669	0.388
8.90769	0.478
8.94869	0.569
8.98969	0.613
9.03068	0.634
9.07168	0.634
9.11268	0.531
9.15368	0.521
9.19468	0.629
9.23568	0.716
9.27667	0.748
9.31767	0.764
9.35867	0.769
9.39967	0.764
9.44067	0.733
9.48166	0.685
9.52266	0.586
9.56366	0.406
9.60466	0.249
9.64566	0.21
9.68665	0.321
9.72765	0.451
9.76865	0.543
9.80965	0.586
9.85065	0.623
9.89165	0.608
9.93264	0.488
9.97364	0.355
10.0146	0.444
10.0556	0.608
10.0966	0.723
10.1376	0.794
10.1786	0.815
10.2196	0.827
10.2606	0.839
10.3016	0.841
10.3426	0.837
10.3836	0.82
10.4246	0.818
10.4656	0.793
10.5066	0.774
10.5476	0.772
10.5886	0.733
10.6296	0.661
10.6706	0.683
10.7116	0.769
10.7526	0.81
10.7936	0.83
10.8346	0.849
10.8756	0.876
10.9166	0.905
10.9576	0.917
10.9986	0.923
11.0396	0.924
11.0806	0.924
11.1216	0.923
11.1626	0.909
11.2036	0.868
11.2446	0.764
11.2856	0.664
11.3266	0.712
11.3676	0.81
11.4086	0.859
11.4496	0.875
11.4906	0.88
11.5316	0.866
11.5726	0.832
11.6136	0.752
11.6546	0.671
11.6956	0.558
11.7366	0.483
11.7776	0.403
11.8186	0.364
11.8596	0.396
11.9006	0.495
11.9416	0.622
11.9825	0.712
12.0235	0.791
12.0645	0.823
12.1055	0.851
12.1465	0.871
12.1875	0.887
12.2285	0.899
12.2695	0.904
12.3105	0.909
12.3515	0.912
12.3925	0.917
12.4335	0.919
12.4745	0.921
12.5155	0.921
12.5565	0.921
12.5975	0.919
12.6385	0.916
12.6795	0.902
12.7205	0.883
12.7615	0.856
12.8025	0.823
12.8435	0.801
12.8845	0.793
12.9255	0.808
12.9665	0.823
13.0075	0.841
13.0485	0.849
13.0895	0.849
13.1305	0.849
13.1715	0.849
13.2125	0.844
13.2535	0.832
13.2945	0.813
13.3355	0.789
13.3765	0.755
13.4175	0.68
13.4585	0.618
13.4995	0.618
13.5405	0.67
13.5815	0.724
13.6225	0.767
13.6635	0.789
13.7045	0.798
13.7455	0.805
13.7865	0.808
13.8275	0.811
13.8685	0.813
13.9095	0.817
13.9505	0.82
13.9915	0.822
14.0325	0.823
14.0735	0.823
14.1145	0.822
14.1555	0.822
14.1964	0.82
14.2374	0.822
14.2784	0.817
14.3194	0.813
14.3604	0.81
14.4014	0.806
14.4424	0.803
14.4834	0.796
14.5244	0.791
14.5654	0.784
14.6064	0.776
14.6474	0.769
14.6884	0.757
14.7294	0.75
14.7704	0.733
14.8114	0.711
14.8524	0.685
14.8934	0.668
14.9344	0.658
14.9754	0.654
15.0164	0.658
15.0574	0.67
15.0984	0.673
15.1394	0.673
15.1804	0.673
15.2214	0.67
15.2624	0.664
15.3034	0.659
15.3444	0.652
15.3854	0.649
15.4264	0.641
15.4674	0.639
15.5084	0.639
15.5494	0.639
15.5904	0.639
15.6314	0.635
15.6724	0.634
15.7134	0.634
15.7544	0.632
15.7954	0.63
15.8364	0.63
15.8774	0.629
15.9184	0.627
15.9594	0.625
16.0004	0.627
