Infrared Spectrum: ETHYLENE GLYCOL BIS(2,2,4-TRIMETHYL-3-OXOVALERATE)
Formula: C18 H30 O6
CAS: 4447-67-0
Class: COBLENTZ
Instrument: Not specified, most likely a prism, grating, or hybrid spectrometer.
Sampling: TRANSMISSION
Path length: SMEAR
Resolution: 4
Origin: TENNESSEE EASTMAN COMPANY, RESEARCH LABORATORIES
MICROMETERS	TRANSMITTANCE
2.061	0.924
2.1019	0.924
2.14279	0.924
2.18369	0.922
2.22459	0.912
2.26549	0.885
2.30638	0.883
2.34728	0.892
2.38818	0.895
2.42907	0.897
2.46997	0.898
2.51087	0.905
2.55177	0.912
2.59266	0.917
2.63356	0.921
2.67446	0.924
2.71535	0.924
2.75625	0.924
2.79715	0.924
2.83805	0.924
2.87894	0.914
2.91984	0.873
2.96074	0.89
3.00163	0.909
3.04253	0.91
3.08343	0.912
3.12432	0.91
3.16522	0.9
3.20612	0.909
3.24702	0.91
3.28791	0.88
3.32881	0.532
3.36971	0.234
3.4106	0.292
3.4515	0.511
3.4924	0.806
3.5333	0.863
3.57419	0.898
3.61509	0.919
3.65599	0.921
3.69688	0.924
3.73778	0.936
3.77868	0.94
3.81958	0.941
3.86047	0.941
3.90137	0.945
3.94227	0.943
3.98316	0.943
4.02406	0.945
4.06496	0.945
4.10586	0.945
4.14675	0.945
4.18765	0.943
4.22855	0.946
4.26944	0.945
4.31034	0.945
4.35124	0.941
4.39214	0.945
4.43303	0.953
4.47393	0.958
4.51483	0.96
4.55572	0.962
4.59662	0.962
4.63752	0.962
4.67842	0.962
4.71931	0.962
4.76021	0.962
4.80111	0.962
4.842	0.96
4.8829	0.96
4.9238	0.953
4.9647	0.953
5.00559	0.957
5.04649	0.96
5.08739	0.957
5.12828	0.955
5.16918	0.955
5.21008	0.952
5.25097	0.946
5.29187	0.933
5.33277	0.902
5.37367	0.922
5.41456	0.926
5.45546	0.902
5.49636	0.849
5.53725	0.809
5.57815	0.821
5.61905	0.732
5.65995	0.476
5.70084	0.09
5.74174	0.03
5.78264	0.032
5.82353	0.013
5.86443	0.047
5.90533	0.364
5.94623	0.58
5.98712	0.684
6.02802	0.775
6.06892	0.82
6.10981	0.863
6.15071	0.876
6.19161	0.895
6.23251	0.916
6.2734	0.926
6.3143	0.933
6.3552	0.933
6.39609	0.926
6.43699	0.917
6.47789	0.895
6.51879	0.895
6.55968	0.881
6.60058	0.856
6.64148	0.823
6.68237	0.77
6.72327	0.565
6.76417	0.207
6.80507	0.131
6.84596	0.229
6.88686	0.308
6.92776	0.405
6.96865	0.664
7.00955	0.744
7.05045	0.78
7.09135	0.746
7.13224	0.648
7.17314	0.465
7.21404	0.229
7.25493	0.359
7.29583	0.506
7.33673	0.424
7.37762	0.614
7.41852	0.599
7.45942	0.625
7.50032	0.702
7.54121	0.768
7.58211	0.773
7.62301	0.722
7.6639	0.652
7.7048	0.541
7.7457	0.388
7.7866	0.275
7.82749	0.167
7.86839	0.131
7.90929	0.114
7.95018	0.094
7.99108	0.083
8.03198	0.126
8.07288	0.244
8.11377	0.404
8.15467	0.479
8.19557	0.493
8.23646	0.467
8.27736	0.464
8.31826	0.474
8.35916	0.481
8.40005	0.428
8.44095	0.303
8.48185	0.181
8.52274	0.142
8.56364	0.104
8.60454	0.054
8.64544	0.039
8.68633	0.023
8.72723	0.013
8.76813	0.013
8.80902	0.042
8.84992	0.131
8.89082	0.2
8.93172	0.244
8.97261	0.342
9.01351	0.458
9.05441	0.496
9.0953	0.412
9.1362	0.351
9.1771	0.494
9.218	0.607
9.25889	0.642
9.29979	0.652
9.34069	0.652
9.38158	0.578
9.42248	0.452
9.46338	0.333
9.50427	0.27
9.54517	0.203
9.58607	0.118
9.62697	0.085
9.66786	0.104
9.70876	0.178
9.74966	0.248
9.79055	0.292
9.83145	0.369
9.87235	0.398
9.91325	0.299
9.95414	0.186
9.99504	0.279
10.0359	0.46
10.0768	0.635
10.1177	0.719
10.1586	0.767
10.1995	0.799
10.2404	0.813
10.2813	0.816
10.3222	0.796
10.3631	0.768
10.404	0.729
10.4449	0.686
10.4858	0.636
10.5267	0.63
10.5676	0.65
10.6085	0.691
10.6494	0.698
10.6903	0.703
10.7312	0.719
10.7721	0.756
10.813	0.794
10.8539	0.811
10.8948	0.815
10.9357	0.825
10.9766	0.828
11.0175	0.821
11.0584	0.794
11.0993	0.77
11.1402	0.748
11.1811	0.753
11.222	0.772
11.2629	0.743
11.3037	0.691
11.3446	0.645
11.3855	0.633
11.4264	0.643
11.4673	0.666
11.5082	0.681
11.5491	0.681
11.59	0.7
11.6309	0.738
11.6718	0.777
11.7127	0.796
11.7536	0.808
11.7945	0.816
11.8354	0.83
11.8763	0.837
11.9172	0.842
11.9581	0.842
11.999	0.842
12.0399	0.842
12.0808	0.845
12.1217	0.851
12.1626	0.857
12.2035	0.864
12.2444	0.871
12.2853	0.883
12.3262	0.897
12.3671	0.914
12.408	0.928
12.4489	0.934
12.4898	0.938
12.5307	0.941
12.5716	0.941
12.6125	0.941
12.6534	0.938
12.6942	0.931
12.7351	0.922
12.776	0.902
12.8169	0.866
12.8578	0.844
12.8987	0.832
12.9396	0.83
12.9805	0.833
13.0214	0.839
13.0623	0.842
13.1032	0.851
13.1441	0.866
13.185	0.883
13.2259	0.9
13.2668	0.909
13.3077	0.914
13.3486	0.917
13.3895	0.919
13.4304	0.919
13.4713	0.919
13.5122	0.917
13.5531	0.916
13.594	0.914
13.6349	0.914
13.6758	0.914
13.7167	0.914
13.7576	0.914
13.7985	0.914
13.8394	0.914
13.8803	0.914
13.9212	0.914
13.9621	0.914
14.003	0.914
14.0439	0.914
14.0848	0.91
14.1256	0.91
14.1665	0.904
14.2074	0.904
14.2483	0.902
14.2892	0.898
14.3301	0.893
14.371	0.89
14.4119	0.886
14.4528	0.881
14.4937	0.876
14.5346	0.873
14.5755	0.868
14.6164	0.857
14.6573	0.849
14.6982	0.839
14.7391	0.83
14.78	0.815
14.8209	0.803
14.8618	0.78
14.9027	0.765
14.9436	0.753
14.9845	0.744
15.0254	0.738
15.0663	0.738
15.1072	0.734
15.1481	0.731
15.189	0.729
15.2299	0.724
15.2708	0.724
15.3117	0.726
15.3526	0.724
15.3935	0.724
15.4344	0.722
15.4753	0.722
15.5162	0.722
15.557	0.722
15.5979	0.72
15.6388	0.72
15.6797	0.72
15.7206	0.72
15.7615	0.719
15.8024	0.717
15.8433	0.717
15.8842	0.714
15.9251	0.714
15.966	0.71
