Infrared Spectrum: 5-Fluoro-2-methylbenzenesulphonyl chloride
Formula: C 7 H 6 Cl F O 2 S
CAS: 445-05-6
State: gas
Origin: EPA-IR VAPOR PHASE LIBRARY
1/CM	ABSORBANCE
549.8	0.04822
559.445	0.03644
569.09	0.07075
578.734	0.05103
588.379	0.02479
598.024	0.05907
607.669	0.07845
617.313	0.0265
626.958	0.00589
636.603	0.0041
646.248	0.00396
655.893	0.00326
665.537	0.00286
675.182	0.00439
684.827	0.01546
694.472	0.04021
704.116	0.01901
713.761	0.00353
723.406	0.00353
733.051	0.00424
742.695	0.00607
752.34	0.00495
761.985	0.00262
771.63	0.00229
781.275	0.0019108
790.919	0.0019471
800.564	0.0035
810.209	0.00929
819.854	0.01826
829.498	0.00924
839.143	0.00335
848.788	0.0018729
858.433	0.00241
868.078	0.00457
877.722	0.00992
887.367	0.01357
897.012	0.01104
906.657	0.00879
916.301	0.0057
925.946	0.00289
935.591	0.0014933
945.236	0.002103
954.88	0.00185
964.525	0.0019134
974.17	0.0015873
983.815	0.0017396
993.46	0.0016839
1003.1	0.0013985
1012.75	0.0017725
1022.39	0.00246
1032.04	0.00295
1041.68	0.00555
1051.33	0.0055
1060.97	0.00327
1070.62	0.00294
1080.26	0.00284
1089.91	0.0016069
1099.55	0.0015665
1109.2	0.00335
1118.84	0.00524
1128.49	0.00725
1138.13	0.0134
1147.78	0.01281
1157.42	0.01195
1167.07	0.02524
1176.71	0.05934
1186.36	0.08219
1196	0.05181
1205.64	0.01858
1215.29	0.01504
1224.93	0.02832
1234.58	0.05112
1244.22	0.03058
1253.87	0.00965
1263.51	0.01732
1273.16	0.0419
1282.8	0.03472
1292.45	0.01057
1302.09	0.00537
1311.74	0.00402
1321.38	0.00365
1331.03	0.0035
1340.67	0.00413
1350.32	0.0053
1359.96	0.00818
1369.61	0.01788
1379.25	0.03843
1388.9	0.06051
1398.54	0.06981
1408.18	0.05723
1417.83	0.02229
1427.47	0.01038
1437.12	0.00835
1446.76	0.0091
1456.41	0.01103
1466.05	0.01602
1475.7	0.03657
1485.34	0.0641
1494.99	0.0586
1504.63	0.02948
1514.28	0.00997
1523.92	0.00509
1533.57	0.00396
1543.21	0.00393
1552.86	0.00448
1562.5	0.00514
1572.15	0.00613
1581.79	0.00664
1591.44	0.01047
1601.08	0.01877
1610.73	0.01705
1620.37	0.00666
1630.01	0.00366
1639.66	0.00321
1649.3	0.00253
1658.95	0.0019268
1668.59	0.0017703
1678.24	0.0016349
1687.88	0.0015256
1697.53	0.0015855
1707.17	0.0015815
1716.82	0.0016304
1726.46	0.00115102
1736.11	0.0017909
1745.75	0.00215
1755.4	0.00256
1765.04	0.00337
1774.69	0.00261
1784.33	0.0017097
1793.98	0.0013291
1803.62	0.0015037
1813.27	0.0014302
1822.91	0.0014062
1832.55	0.0014956
1842.2	0.00117875
1851.84	0.0014384
1861.49	0.0014795
1871.13	0.001439
1880.78	0.0017023
1890.42	0.00259
1900.07	0.00241
1909.71	0.0017153
1919.36	0.0016555
1929	0.001741
1938.65	0.001862
1948.29	0.0016478
1957.94	0.0017901
1967.58	0.001866
1977.23	0.0016701
1986.87	0.0016741
1996.52	0.001377
2006.16	0.0012685
2015.81	0.00122421
2025.45	0.0010586
2035.1	0.0012768
2044.74	0.0012813
2054.38	0.0010768
2064.03	0.00113636
2073.67	0.00119816
2083.32	0.0013759
2092.96	0.0013529
2102.61	0.0013866
2112.25	0.0013459
2121.9	0.0012883
2131.54	0.0013821
2141.19	0.0016297
2150.83	0.0013439
2160.48	0.0015514
2170.12	0.0014964
2179.77	0.001314
2189.41	0.001024
2199.06	0.0012648
2208.7	0.0015358
2218.35	0.0012529
2227.99	0.0012674
2237.64	0.001126
2247.28	0.0012437
2256.92	0.001018
2266.57	0.0013254
2276.21	0.00123994
2285.86	0.0010881
2295.5	0.000941
2305.15	0.00120627
2314.79	0.0012526
2324.44	0.001544
2334.08	0.0014022
2343.73	0.0015055
2353.37	0.0014668
2363.02	0.0016942
2372.66	0.0014391
2382.31	0.0015719
2391.95	0.0016469
2401.6	0.001348
2411.24	0.0016414
2420.89	0.0014777
2430.53	0.0012794
2440.18	0.0013549
2449.82	0.0014952
2459.47	0.0014251
2469.11	0.0016159
2478.75	0.0016243
2488.4	0.0014644
2498.04	0.0017742
2507.69	0.0017969
2517.33	0.0016416
2526.98	0.0014213
2536.62	0.0014518
2546.27	0.0016936
2555.91	0.0017076
2565.56	0.0016692
2575.2	0.0015628
2584.85	0.0018797
2594.49	0.001397
2604.14	0.0013957
2613.78	0.00115618
2623.43	0.0012543
2633.07	0.0012683
2642.72	0.0013
2652.36	0.0011296
2662.01	0.00119403
2671.65	0.0016058
2681.29	0.0013101
2690.94	0.000888
2700.58	0.000997
2710.23	0.0012714
2719.87	0.0014236
2729.52	0.0013845
2739.16	0.0014627
2748.81	0.0011057
2758.45	0.0015559
2768.1	0.0014799
2777.74	0.00120733
2787.39	0.0012514
2797.03	0.00116264
2806.68	0.00119216
2816.32	0.0016718
2825.97	0.00087
2835.61	0.0017793
2845.26	0.0017529
2854.9	0.0024
2864.55	0.0020438
2874.19	0.00235
2883.84	0.00263
2893.48	0.0020244
2903.12	0.001952
2912.77	0.00227
2922.41	0.00215
2932.06	0.00301
2941.7	0.00488
2951.35	0.00565
2960.99	0.00484
2970.64	0.00379
2980.28	0.00389
2989.93	0.00392
2999.57	0.00396
3009.22	0.0025
3018.86	0.0020015
3028.51	0.00221
3038.15	0.00283
3047.8	0.00328
3057.44	0.00335
3067.09	0.00364
3076.73	0.00624
3086.38	0.00677
3096.02	0.00402
3105.67	0.00218
3115.31	0.0018374
3124.95	0.0016722
3134.6	0.00121821
3144.24	0.0020023
3153.89	0.0014252
3163.53	0.0014385
3173.18	0.0013042
3182.82	0.0017108
3192.47	0.00119143
3202.11	0.000954
3211.76	0.000723
3221.4	0.00066
3231.05	0.0012983
3240.69	0.000966
3250.34	0.0010724
3259.98	0.0010707
3269.63	0.001701
3279.27	0.00076
3288.92	0.000905
3298.56	0.000591
3308.21	0.000867
3317.85	0.0017882
3327.49	0.00114763
3337.14	0.000966
3346.78	0.0014303
3356.43	0.0013894
3366.07	0.0016842
3375.72	0.0014443
3385.36	0.00115146
3395.01	0.000904
3404.65	0.000913
3414.3	0.0010759
3423.94	0.00113932
3433.59	0.00129
3443.23	0.000739
3452.88	0.0014545
3462.52	0.001358
3472.17	0.0013595
3481.81	0.000952
3491.46	0.001024
3501.1	0.0015308
3510.75	0.000746
3520.39	0.0016898
3530.04	0.0010966
3539.68	0.0012831
3549.32	0.001013
3558.97	0.0017189
3568.61	0.0011904
3578.26	0.0015025
3587.9	0.0011032
3597.55	0.0016304
3607.19	0.00152
3616.84	0.0011034
3626.48	0.000746
3636.13	0.0014424
3645.77	0.000985
3655.42	0.000947
3665.06	0.00116856
3674.71	0.0015555
3684.35	0.0015242
3694	0.0013094
3703.64	0.000935
3713.29	0.000915
3722.93	0.0019365
3732.58	0.0013037
3742.22	0.00123313
3751.86	0.00101
3761.51	0.0015735
3771.15	0.000681
3780.8	0.0012877
3790.44	0.0016663
3800.09	0.00120363
3809.73	0.0012425
3819.38	0.001328
3829.02	0.0014174
3838.67	0.000762
3848.31	0.001008
3857.96	0.00064
3867.6	0.0018266
3877.25	0.0010887
3886.89	0.0013144
3896.54	0.0010571
3906.18	0.0011223
3915.83	0.001296
3925.47	0.0015979
3935.12	0.001026
3944.76	0.000813
3954.41	0.0017235
3964.05	0.00116336
3973.69	0.001014
3983.34	0.001011
3992.98	0.001656
