Infrared Spectrum: 2-Amino-5-chlorobenzotrifluoide
Formula: C 7 H 5 Cl F 3 N
CAS: 445-03-4
State: gas
Origin: EPA-IR VAPOR PHASE LIBRARY
1/CM	ABSORBANCE
549.8	0.00839
559.445	0.00876
569.09	0.00986
578.734	0.0108
588.379	0.01102
598.024	0.01191
607.669	0.01382
617.313	0.01502
626.958	0.01765
636.603	0.02455
646.248	0.03897
655.893	0.03564
665.537	0.02787
675.182	0.04064
684.827	0.0942
694.472	0.08546
704.116	0.02604
713.761	0.01941
723.406	0.01917
733.051	0.01899
742.695	0.0185
752.34	0.01842
761.985	0.0205
771.63	0.01698
781.275	0.00996
790.919	0.01124
800.564	0.02061
810.209	0.04031
819.854	0.04076
829.498	0.02116
839.143	0.01161
848.788	0.01395
858.433	0.03322
868.078	0.03091
877.722	0.01989
887.367	0.0305
897.012	0.02486
906.657	0.01092
916.301	0.00595
925.946	0.0056
935.591	0.00562
945.236	0.0059
954.88	0.00509
964.525	0.00517
974.17	0.00496
983.815	0.00514
993.46	0.00507
1003.1	0.00501
1012.75	0.00524
1022.39	0.00619
1032.04	0.01154
1041.68	0.03221
1051.33	0.05314
1060.97	0.04945
1070.62	0.05643
1080.26	0.05541
1089.91	0.03556
1099.55	0.04376
1109.2	0.08431
1118.84	0.16427
1128.49	0.30864
1138.13	0.41767
1147.78	0.27403
1157.42	0.09402
1167.07	0.09206
1176.71	0.11362
1186.36	0.05646
1196	0.02919
1205.64	0.02514
1215.29	0.02219
1224.93	0.02553
1234.58	0.03809
1244.22	0.05712
1253.87	0.07173
1263.51	0.06889
1273.16	0.08462
1282.8	0.19197
1292.45	0.20903
1302.09	0.15272
1311.74	0.18926
1321.38	0.21454
1331.03	0.1077
1340.67	0.033
1350.32	0.01432
1359.96	0.0088
1369.61	0.00717
1379.25	0.00794
1388.9	0.01092
1398.54	0.01892
1408.18	0.04408
1417.83	0.10185
1427.47	0.11866
1437.12	0.04428
1446.76	0.01663
1456.41	0.01931
1466.05	0.02874
1475.7	0.05609
1485.34	0.14729
1494.99	0.18138
1504.63	0.10052
1514.28	0.03914
1523.92	0.01471
1533.57	0.00952
1543.21	0.00933
1552.86	0.01031
1562.5	0.01251
1572.15	0.01863
1581.79	0.02192
1591.44	0.01843
1601.08	0.02227
1610.73	0.03455
1620.37	0.05069
1630.01	0.08732
1639.66	0.08718
1649.3	0.04329
1658.95	0.01945
1668.59	0.012
1678.24	0.00827
1687.88	0.00567
1697.53	0.00443
1707.17	0.00378
1716.82	0.00381
1726.46	0.00378
1736.11	0.00407
1745.75	0.00426
1755.4	0.0043
1765.04	0.00485
1774.69	0.00578
1784.33	0.00465
1793.98	0.00262
1803.62	0.00179
1813.27	0.00163
1822.91	0.00187
1832.55	0.00213
1842.2	0.00184
1851.84	0.0017
1861.49	0.00232
1871.13	0.00379
1880.78	0.00478
1890.42	0.00329
1900.07	0.00236
1909.71	0.002
1919.36	0.00152
1929	0.0014
1938.65	0.00143
1948.29	0.00143
1957.94	0.00144
1967.58	0.00159
1977.23	0.00154
1986.87	0.00152
1996.52	0.00138
2006.16	0.00135
2015.81	0.0013
2025.45	0.00149
2035.1	0.00154
2044.74	0.00147
2054.38	0.0015
2064.03	0.00157
2073.67	0.00153
2083.32	0.00156
2092.96	0.00145
2102.61	0.00118
2112.25	0.0011
2121.9	0.0009721
2131.54	0.0008916
2141.19	0.0009711
2150.83	0.00112
2160.48	0.00125
2170.12	0.00135
2179.77	0.00141
2189.41	0.00146
2199.06	0.00141
2208.7	0.00155
2218.35	0.00177
2227.99	0.00187
2237.64	0.0019
2247.28	0.0019
2256.92	0.00184
2266.57	0.00146
2276.21	0.0013
2285.86	0.00139
2295.5	0.00135
2305.15	0.00138
2314.79	0.00117
2324.44	0.00118
2334.08	0.00129
2343.73	0.00145
2353.37	0.0014
2363.02	0.00106
2372.66	0.0008185
2382.31	0.0008018
2391.95	0.0007395
2401.6	0.000617
2411.24	0.0006406
2420.89	0.0005731
2430.53	0.0006286
2440.18	0.0007049
2449.82	0.0005938
2459.47	0.0006335
2469.11	0.0006656
2478.75	0.0006324
2488.4	0.000708
2498.04	0.0007239
2507.69	0.0004551
2517.33	0.0002888
2526.98	0.0005638
2536.62	0.0007613
2546.27	0.0008766
2555.91	0.0008352
2565.56	0.0009657
2575.2	0.00114
2584.85	0.0013
2594.49	0.00115
2604.14	0.0007501
2613.78	0.000552
2623.43	0.000331
2633.07	0.0005033
2642.72	0.0004726
2652.36	0.0004939
2662.01	0.0004748
2671.65	0.000478
2681.29	0.000419
2690.94	0.0004768
2700.58	0.0004767
2710.23	0.0007079
2719.87	0.000541
2729.52	0.0005533
2739.16	0.0006702
2748.81	0.0007198
2758.45	0.0005521
2768.1	0.0004531
2777.74	0.0005065
2787.39	0.0004823
2797.03	0.0005134
2806.68	0.0004985
2816.32	0.0004865
2825.97	0.0004866
2835.61	0.0005495
2845.26	0.0005187
2854.9	0.0005175
2864.55	0.0005906
2874.19	0.0007685
2883.84	0.0007528
2893.48	0.00105
2903.12	0.00112
2912.77	0.00128
2922.41	0.00148
2932.06	0.00119
2941.7	0.0009296
2951.35	0.0004639
2960.99	0.0003536
2970.64	0.0006504
2980.28	0.000786
2989.93	0.0007232
2999.57	0.0008144
3009.22	0.00117
3018.86	0.00217
3028.51	0.0045
3038.15	0.00761
3047.8	0.00689
3057.44	0.00356
3067.09	0.00382
3076.73	0.00538
3086.38	0.00431
3096.02	0.00163
3105.67	0.00103
3115.31	0.00105
3124.95	0.0006851
3134.6	0.0001805
3144.24	0.0003211
3153.89	0.0003763
3163.53	0.0005538
3173.18	0.0003468
3182.82	0.0007827
3192.47	0.0008099
3202.11	0.0012
3211.76	0.00151
3221.4	0.00213
3231.05	0.00227
3240.69	0.00223
3250.34	0.00177
3259.98	0.00144
3269.63	0.00113
3279.27	0.0007779
3288.92	0.000552
3298.56	0.0004556
3308.21	0.000373
3317.85	0.0003399
3327.49	0.0004733
3337.14	0.0004151
3346.78	0.0004613
3356.43	0.0005384
3366.07	0.0004727
3375.72	0.000791
3385.36	0.00135
3395.01	0.00221
3404.65	0.0043
3414.3	0.00809
3423.94	0.0167
3433.59	0.03038
3443.23	0.03613
3452.88	0.02286
3462.52	0.00906
3472.17	0.00466
3481.81	0.00401
3491.46	0.00472
3501.1	0.00733
3510.75	0.01261
3520.39	0.02021
3530.04	0.02602
3539.68	0.02451
3549.32	0.01535
3558.97	0.00728
3568.61	0.0038
3578.26	0.0023
3587.9	0.00178
3597.55	0.00134
3607.19	0.00106
3616.84	0.0006896
3626.48	0.0005921
3636.13	0.0003907
3645.77	0.0004306
3655.42	0.00047
3665.06	0.000409
3674.71	0.0005674
3684.35	0.0006171
3694	0.0007121
3703.64	0.0006303
3713.29	0.0007371
3722.93	0.000578
3732.58	0.0003802
3742.22	0.0004146
3751.86	0.0007303
3761.51	0.0005943
3771.15	0.0004852
3780.8	0.0006356
3790.44	0.000578
3800.09	0.0006218
3809.73	0.0005274
3819.38	0.0007015
3829.02	0.0008879
3838.67	0.000737
3848.31	0.0007635
3857.96	0.00111
3867.6	0.00128
3877.25	0.00134
3886.89	0.00119
3896.54	0.0013
3906.18	0.00115
3915.83	0.0008792
3925.47	0.00105
3935.12	0.0009147
3944.76	0.00106
3954.41	0.0009993
3964.05	0.0007496
3973.69	0.0008259
3983.34	0.0007158
3992.98	0.0005223
