Infrared Spectrum: 2-Fluoroacetophenone
Formula: C 8 H 7 F O
CAS: 445-27-2
State: gas
Origin: EPA-IR VAPOR PHASE LIBRARY
1/CM	ABSORBANCE
549.9	0.00762
559.547	0.00471
569.193	0.00494
578.84	0.01047
588.486	0.02099
598.133	0.02177
607.779	0.00818
617.426	0.0034
627.072	0.0021844
636.719	0.0017276
646.365	0.0014345
656.012	0.001038
665.658	0.001042
675.305	0.0011905
684.951	0.0021424
694.598	0.00284
704.245	0.00242
713.891	0.0018131
723.538	0.00247
733.184	0.00667
742.831	0.02548
752.477	0.05366
762.124	0.07515
771.77	0.03604
781.417	0.0097
791.063	0.00305
800.71	0.00273
810.356	0.00553
820.003	0.01681
829.649	0.01982
839.296	0.01459
848.943	0.00455
858.589	0.0026
868.236	0.0020821
877.882	0.0018117
887.529	0.0014522
897.175	0.0013818
906.822	0.0012946
916.468	0.0015884
926.115	0.00275
935.761	0.00493
945.408	0.00938
955.054	0.01761
964.701	0.02004
974.347	0.01406
983.994	0.00665
993.64	0.00522
1003.29	0.00526
1012.93	0.00618
1022.58	0.00792
1032.23	0.00784
1041.87	0.00607
1051.52	0.00426
1061.17	0.00482
1070.81	0.00527
1080.46	0.00486
1090.11	0.00522
1099.75	0.01136
1109.4	0.02059
1119.05	0.01968
1128.69	0.00905
1138.34	0.00548
1147.99	0.0096
1157.63	0.00913
1167.28	0.00545
1176.92	0.00443
1186.57	0.00675
1196.22	0.01774
1205.86	0.0466
1215.51	0.07049
1225.16	0.0781
1234.8	0.06986
1244.45	0.04713
1254.1	0.02562
1263.74	0.03117
1273.39	0.07725
1283.04	0.11803
1292.68	0.09033
1302.33	0.02087
1311.98	0.0081
1321.62	0.0055
1331.27	0.00617
1340.92	0.00903
1350.56	0.01865
1360.21	0.03873
1369.86	0.04168
1379.5	0.02222
1389.15	0.01062
1398.79	0.00934
1408.44	0.00986
1418.09	0.01237
1427.73	0.01701
1437.38	0.03163
1447.03	0.05621
1456.67	0.05937
1466.32	0.03979
1475.97	0.04499
1485.61	0.04592
1495.26	0.02791
1504.91	0.01222
1514.55	0.00657
1524.2	0.0049
1533.85	0.00456
1543.49	0.00552
1553.14	0.00827
1562.79	0.01228
1572.43	0.01715
1582.08	0.02006
1591.73	0.02505
1601.37	0.04292
1611.02	0.04916
1620.67	0.03066
1630.31	0.01218
1639.96	0.00735
1649.6	0.00699
1659.25	0.00893
1668.9	0.01282
1678.54	0.02091
1688.19	0.04063
1697.84	0.09713
1707.48	0.12343
1717.13	0.09546
1726.78	0.04069
1736.42	0.02217
1746.07	0.016
1755.72	0.00946
1765.36	0.00538
1775.01	0.00377
1784.66	0.00342
1794.3	0.00375
1803.95	0.00387
1813.6	0.00333
1823.24	0.00277
1832.89	0.0024
1842.54	0.0019477
1852.18	0.0014931
1861.83	0.0013084
1871.47	0.00127447
1881.12	0.0013233
1890.77	0.0015456
1900.41	0.0020384
1910.06	0.0028
1919.71	0.00342
1929.35	0.00348
1939	0.00298
1948.65	0.00254
1958.29	0.0021539
1967.94	0.0015653
1977.59	0.0013002
1987.23	0.0011747
1996.88	0.000956
2006.53	0.000862
2016.17	0.000846
2025.82	0.001045
2035.47	0.0013007
2045.11	0.0015753
2054.76	0.0016408
2064.41	0.0014579
2074.05	0.0011183
2083.7	0.000783
2093.35	0.000627
2102.99	0.000692
2112.64	0.000662
2122.28	0.000657
2131.93	0.00056
2141.58	0.000587
2151.22	0.000623
2160.87	0.000612
2170.52	0.000656
2180.16	0.000671
2189.81	0.000701
2199.46	0.000602
2209.1	0.000585
2218.75	0.00064
2228.4	0.000686
2238.04	0.000648
2247.69	0.000722
2257.34	0.000791
2266.98	0.000908
2276.63	0.000967
2286.28	0.000936
2295.92	0.0011746
2305.57	0.0014122
2315.22	0.0014548
2324.86	0.00120125
2334.51	0.000981
2344.16	0.000811
2353.8	0.000796
2363.45	0.000776
2373.09	0.000836
2382.74	0.000807
2392.39	0.000834
2402.03	0.000857
2411.68	0.001033
2421.33	0.0011298
2430.97	0.0013724
2440.62	0.00122702
2450.27	0.000969
2459.91	0.000785
2469.56	0.000652
2479.21	0.000565
2488.85	0.000619
2498.5	0.000599
2508.15	0.00073
2517.79	0.000667
2527.44	0.000561
2537.09	0.000613
2546.73	0.000611
2556.38	0.00059
2566.03	0.00067
2575.67	0.000695
2585.32	0.000743
2594.96	0.000689
2604.61	0.000475
2614.26	0.00044
2623.9	0.000397
2633.55	0.000271
2643.2	0.000397
2652.84	0.000476
2662.49	0.000637
2672.14	0.000623
2681.78	0.000448
2691.43	0.000356
2701.08	0.000374
2710.72	0.000319
2720.37	0.000471
2730.02	0.000476
2739.66	0.000384
2749.31	0.000449
2758.96	0.000361
2768.6	0.000273
2778.25	0.000405
2787.9	0.00023
2797.54	0.00018
2807.19	0.00015
2816.84	0.000313
2826.48	0.000371
2836.13	0.000456
2845.77	0.00064
2855.42	0.00071
2865.07	0.000742
2874.71	0.000793
2884.36	0.000651
2894.01	0.000737
2903.65	0.000841
2913.3	0.00085
2922.95	0.0011033
2932.59	0.0017797
2942.24	0.0021392
2951.89	0.00226
2961.53	0.0020569
2971.18	0.00261
2980.83	0.00307
2990.47	0.00397
3000.12	0.00497
3009.77	0.00666
3019.41	0.00692
3029.06	0.00541
3038.71	0.00512
3048.35	0.0054
3058	0.0058
3067.64	0.00891
3077.29	0.01436
3086.94	0.01447
3096.58	0.00923
3106.23	0.00322
3115.88	0.0016951
3125.52	0.00120028
3135.17	0.000907
3144.82	0.00103
3154.46	0.000981
3164.11	0.000705
3173.76	0.000479
3183.4	0.000272
3193.05	0.00014
3202.7	0.00012
3212.34	0.000389
3221.99	5e-05
3231.64	0.00012
3241.28	0.0001
3250.93	0.00013
3260.58	0.00025
3270.22	0.00013
3279.87	0.00017
3289.52	0.000236
3299.16	0.000386
3308.81	0.000196
3318.45	0.000275
3328.1	0.00033
3337.75	0.000479
3347.39	0.000681
3357.04	0.000694
3366.69	0.001073
3376.33	0.001487
3385.98	0.00242
3395.63	0.00273
3405.27	0.0021336
3414.92	0.0015095
3424.57	0.0011375
3434.21	0.000841
3443.86	0.000836
3453.51	0.000661
3463.15	0.000681
3472.8	0.000539
3482.45	0.000759
3492.09	0.000539
3501.74	0.000672
3511.39	0.000516
3521.03	0.000598
3530.68	0.0005
3540.33	0.000618
3549.97	0.000722
3559.62	0.000676
3569.26	0.000786
3578.91	0.000617
3588.56	0.000586
3598.2	0.00078
3607.85	0.000707
3617.5	0.000732
3627.14	0.000777
3636.79	0.000808
3646.44	0.000626
3656.08	0.000806
3665.73	0.00069
3675.38	0.000742
3685.02	0.000755
3694.67	0.000686
3704.32	0.00076
3713.96	0.000744
3723.61	0.000634
3733.26	0.000645
3742.9	0.000615
3752.55	0.000725
3762.2	0.00079
3771.84	0.000738
3781.49	0.000763
3791.13	0.000771
3800.78	0.000742
3810.43	0.000681
3820.07	0.000781
3829.72	0.000905
3839.37	0.000829
3849.01	0.000743
3858.66	0.000855
3868.31	0.000937
3877.95	0.000856
3887.6	0.0010979
3897.25	0.0011708
3906.89	0.0011529
3916.54	0.000921
3926.19	0.000701
3935.83	0.000791
3945.48	0.000746
3955.13	0.000705
3964.77	0.000844
3974.42	0.000812
3984.07	0.000713
3993.71	0.000743
