Infrared Spectrum: 2-Fluorophenyl methyl carbinol
Formula: C 8 H 9 F O
CAS: 445-26-1
State: gas
Origin: EPA-IR VAPOR PHASE LIBRARY
1/CM	ABSORBANCE
549.8	0.0017734
559.445	0.0016675
569.09	0.0012409
578.734	0.0014288
588.379	0.00218
598.024	0.0019722
607.669	0.0017414
617.313	0.00231
626.958	0.0017664
636.603	0.000845
646.248	0.000406
655.893	0.00109956
665.537	0.000765
675.182	0.0012508
684.827	0.0009599
694.472	0.00107724
704.116	0.000676
713.761	0.0010194
723.406	0.00212
733.051	0.0048
742.695	0.01046
752.34	0.02003
761.985	0.013
771.63	0.00528
781.275	0.00251
790.919	0.0018496
800.564	0.0021
810.209	0.00313
819.854	0.00431
829.498	0.00638
839.143	0.00256
848.788	0.0019788
858.433	0.0018265
868.078	0.00233
877.722	0.00295
887.367	0.00247
897.012	0.00445
906.657	0.00458
916.301	0.00243
925.946	0.00253
935.591	0.00225
945.236	0.0016656
954.88	0.0019778
964.525	0.0018993
974.17	0.00233
983.815	0.00254
993.46	0.00339
1003.1	0.00421
1012.75	0.00508
1022.39	0.00487
1032.04	0.0067
1041.68	0.0052
1051.33	0.00365
1060.97	0.00643
1070.62	0.00997
1080.26	0.01164
1089.91	0.01042
1099.55	0.00775
1109.2	0.00501
1118.84	0.00609
1128.49	0.00262
1138.13	0.000922
1147.78	0.00434
1157.42	0.00286
1167.07	0.00445
1176.71	0.0059
1186.36	0.00671
1196	0.00714
1205.64	0.00808
1215.29	0.01135
1224.93	0.01318
1234.58	0.01364
1244.22	0.01044
1253.87	0.00702
1263.51	0.00878
1273.16	0.0079
1282.8	0.00691
1292.45	0.00395
1302.09	0.00362
1311.74	0.00328
1321.38	0.00325
1331.03	0.00354
1340.67	0.00425
1350.32	0.00514
1359.96	0.00539
1369.61	0.00577
1379.25	0.00636
1388.9	0.00537
1398.54	0.00385
1408.18	0.0033
1417.83	0.00269
1427.47	0.00316
1437.12	0.005
1446.76	0.00735
1456.41	0.0086
1466.05	0.00746
1475.7	0.00882
1485.34	0.01277
1494.99	0.01169
1504.63	0.00639
1514.28	0.00288
1523.92	0.0020133
1533.57	0.0016593
1543.21	0.001655
1552.86	0.0018907
1562.5	0.00228
1572.15	0.00342
1581.79	0.00455
1591.44	0.00449
1601.08	0.00415
1610.73	0.00354
1620.37	0.00302
1630.01	0.0017948
1639.66	0.0011443
1649.3	0.000911
1658.95	0.0012796
1668.59	0.000919
1678.24	0.0010174
1687.88	0.00162
1697.53	0.0018737
1707.17	0.0015949
1716.82	0.0013231
1726.46	0.0011204
1736.11	0.00112806
1745.75	0.000925
1755.4	0.00103167
1765.04	0.0011405
1774.69	0.0013345
1784.33	0.0014771
1793.98	0.0015014
1803.62	0.0013195
1813.27	0.00112904
1822.91	0.0011481
1832.55	0.000887
1842.2	0.00103293
1851.84	0.000888
1861.49	0.0013788
1871.13	0.000869
1880.78	0.0011652
1890.42	0.0011668
1900.07	0.0019591
1909.71	0.0017162
1919.36	0.00109749
1929	0.0012743
1938.65	0.00084
1948.29	0.001364
1957.94	0.00105256
1967.58	0.0009305
1977.23	0.000865
1986.87	0.0009724
1996.52	0.000747
2006.16	0.000816
2015.81	0.000712
2025.45	0.000839
2035.1	0.0009462
2044.74	0.0012128
2054.38	0.0009672
2064.03	0.000804
2073.67	0.000743
2083.32	0.00102286
2092.96	0.0011908
2102.61	0.000922
2112.25	0.000904
2121.9	0.000547
2131.54	0.000762
2141.19	0.000703
2150.83	0.000676
2160.48	0.0009383
2170.12	0.00110127
2179.77	0.000815
2189.41	0.0011691
2199.06	0.000817
2208.7	0.000629
2218.35	0.001262
2227.99	0.0009971
2237.64	0.0009478
2247.28	0.0012126
2256.92	0.000853
2266.57	0.0011375
2276.21	0.000669
2285.86	0.0011312
2295.5	0.000921
2305.15	0.000786
2314.79	0.000849
2324.44	0.0012201
2334.08	0.00109694
2343.73	0.0015594
2353.37	0.001253
2363.02	0.0009882
2372.66	0.0009905
2382.31	0.00107062
2391.95	0.000852
2401.6	0.000855
2411.24	0.0011629
2420.89	0.0013804
2430.53	0.000891
2440.18	0.0013644
2449.82	0.0013338
2459.47	0.0009333
2469.11	0.00110528
2478.75	0.0012104
2488.4	0.0012265
2498.04	0.0012087
2507.69	0.001133
2517.33	0.0011661
2526.98	0.0009453
2536.62	0.0009491
2546.27	0.0010758
2555.91	0.0010377
2565.56	0.00108458
2575.2	0.000827
2584.85	0.000798
2594.49	0.000958
2604.14	0.0012432
2613.78	0.000842
2623.43	0.000869
2633.07	0.000543
2642.72	0.00109427
2652.36	0.000921
2662.01	0.000505
2671.65	0.000715
2681.29	0.00103071
2690.94	0.0012614
2700.58	0.000711
2710.23	0.000885
2719.87	0.000728
2729.52	0.00105398
2739.16	0.0008
2748.81	0.000834
2758.45	0.0011457
2768.1	0.000581
2777.74	0.0011723
2787.39	0.00104794
2797.03	0.0010172
2806.68	0.000734
2816.32	0.0012281
2825.97	0.00108414
2835.61	0.0013217
2845.26	0.0013918
2854.9	0.0016077
2864.55	0.00219
2874.19	0.00239
2883.84	0.00276
2893.48	0.00342
2903.12	0.00376
2912.77	0.00398
2922.41	0.00392
2932.06	0.00436
2941.7	0.00455
2951.35	0.00342
2960.99	0.00335
2970.64	0.00533
2980.28	0.00779
2989.93	0.00789
2999.57	0.00482
3009.22	0.00266
3018.86	0.0018211
3028.51	0.00219
3038.15	0.00265
3047.8	0.00327
3057.44	0.0035
3067.09	0.00333
3076.73	0.00436
3086.38	0.00365
3096.02	0.00292
3105.67	0.00259
3115.31	0.0019441
3124.95	0.000727
3134.6	0.000662
3144.24	0.000863
3153.89	0.0014028
3163.53	0.0015464
3173.18	0.000775
3182.82	0.000909
3192.47	0.000562
3202.11	0.0011614
3211.76	0.0014795
3221.4	0.000615
3231.05	0.000281
3240.69	0.000881
3250.34	0.000574
3259.98	0.0015086
3269.63	0.000894
3279.27	0.0013957
3288.92	0.0009706
3298.56	0.000724
3308.21	0.00102602
3317.85	0.0009309
3327.49	0.0013219
3337.14	0.0014192
3346.78	0.00061
3356.43	0.00108095
3366.07	0.0011323
3375.72	0.000859
3385.36	0.0016801
3395.01	0.0018545
3404.65	0.001238
3414.3	5.3e-05
3423.94	0.0013194
3433.59	0.000438
3443.23	0.000404
3452.88	0.0013348
3462.52	0
3472.17	0.000575
3481.81	0.000791
3491.46	0.000355
3501.1	0.000441
3510.75	0.0017896
3520.39	0.0010041
3530.04	0.0010064
3539.68	0.000716
3549.32	0.0012369
3558.97	0.000596
3568.61	0.000795
3578.26	0.0013176
3587.9	0.000953
3597.55	0.0011539
3607.19	0.0014665
3616.84	0.0014611
3626.48	0.00216
3636.13	0.00359
3645.77	0.00477
3655.42	0.00521
3665.06	0.00315
3674.71	0.00253
3684.35	0.0012107
3694	0.00236
3703.64	0.000409
3713.29	0.0011616
3722.93	0.00104232
3732.58	0.000693
3742.22	0.0019041
3751.86	0.0014919
3761.51	0.00056
3771.15	0.0015069
3780.8	0.000582
3790.44	0.000871
3800.09	0.0015462
3809.73	0.0014626
3819.38	0.000703
3829.02	0.000618
3838.67	0.001836
3848.31	0.0013959
3857.96	0.0019027
3867.6	0.0012281
3877.25	0.0013009
3886.89	0.0011328
3896.54	0.0015043
3906.18	0.0012281
3915.83	0.0013701
3925.47	0.0012322
3935.12	0.0013608
3944.76	0.0011384
3954.41	0.000906
3964.05	0.001526
3973.69	0.000805
3983.34	0.000574
3992.98	0.0012727
