Infrared Spectrum: o-Fluorobenzamide
Formula: C 7 H 6 F N O
CAS: 445-28-3
State: gas
Origin: EPA-IR VAPOR PHASE LIBRARY
1/CM	ABSORBANCE
501.5	0
513.074	0.0004249
524.648	0.001317
536.222	0.002567
547.796	0.002707
559.37	0.001577
570.944	0.0005407
582.518	0.0003282
594.092	0.0006912
605.666	0.001687
617.24	0.001797
628.814	0.0005707
640.388	0.0004236
651.962	0.0005909
663.536	0.0007035
675.11	0.001177
686.684	0.001727
698.258	0.001697
709.832	0.001537
721.406	0.001777
732.98	0.002457
744.554	0.005517
756.128	0.010177
767.702	0.005287
779.276	0.002197
790.85	0.001367
802.423	0.001427
813.997	0.001997
825.571	0.003337
837.145	0.003537
848.719	0.002307
860.293	0.001517
871.867	0.001617
883.441	0.001627
895.015	0.001447
906.589	0.001207
918.163	0.0010235
929.737	0.0010323
941.311	0.001177
952.885	0.001207
964.459	0.0009253
976.033	0.0009249
987.607	0.0008551
999.181	0.0008396
1010.76	0.0009117
1022.33	0.001257
1033.9	0.001217
1045.48	0.0006581
1057.05	0.0005721
1068.63	0.0007511
1080.2	0.001237
1091.77	0.001707
1103.35	0.001357
1114.92	0.0010056
1126.49	0.001427
1138.07	0.001337
1149.64	0.0010756
1161.22	0.0006246
1172.79	0.0007482
1184.36	0.001177
1195.94	0.002767
1207.51	0.004577
1219.09	0.004847
1230.66	0.003187
1242.23	0.001857
1253.81	0.001657
1265.38	0.001637
1276.96	0.001547
1288.53	0.001637
1300.1	0.001777
1311.68	0.002307
1323.25	0.004017
1334.83	0.008027
1346.4	0.014367
1357.97	0.015507
1369.55	0.008497
1381.12	0.003227
1392.7	0.001557
1404.27	0.0011335
1415.84	0.0011171
1427.42	0.001407
1438.99	0.003247
1450.57	0.007547
1462.14	0.007927
1473.71	0.004507
1485.29	0.004497
1496.86	0.002967
1508.44	0.001247
1520.01	0.0008061
1531.58	0.0008707
1543.16	0.001177
1554.73	0.002087
1566.31	0.003887
1577.88	0.008447
1589.45	0.012507
1601.03	0.010177
1612.6	0.006377
1624.18	0.003527
1635.75	0.001847
1647.32	0.001597
1658.9	0.001797
1670.47	0.002827
1682.05	0.003887
1693.62	0.006217
1705.19	0.018697
1716.77	0.028157
1728.34	0.020007
1739.92	0.006277
1751.49	0.003917
1763.06	0.003037
1774.64	0.001457
1786.21	0.0007605
1797.79	0.0007038
1809.36	0.0007332
1820.93	0.0006816
1832.51	0.0005483
1844.08	0.0004792
1855.66	0.0004432
1867.23	0.0003587
1878.8	0.0003394
1890.38	0.0003859
1901.95	0.0004071
1913.53	0.0004932
1925.1	0.0005927
1936.67	0.0005827
1948.25	0.0004928
1959.82	0.0004164
1971.4	0.000342
1982.97	0.0002947
1994.54	0.0002761
2006.12	0.0002639
2017.69	0.0002705
2029.27	0.0002649
2040.84	0.0002755
2052.41	0.0002901
2063.99	0.0003007
2075.56	0.0002978
2087.14	0.0003184
2098.71	0.0002542
2110.28	0.0002506
2121.86	0.00022682
2133.43	0.0002471
2145.01	0.0002519
2156.58	0.00023535
2168.15	0.00023354
2179.73	0.0002838
2191.3	0.0002529
2202.88	0.0002651
2214.45	0.00023356
2226.02	0.0002808
2237.6	0.0002943
2249.17	0.0002648
2260.74	0.0002653
2272.32	0.0002679
2283.89	0.0002872
2295.47	0.0003306
2307.04	0.0003444
2318.61	0.0003435
2330.19	0.0003312
2341.76	0.0003077
2353.34	0.0002931
2364.91	0.0002864
2376.48	0.0002969
2388.06	0.0002688
2399.63	0.0003129
2411.21	0.0003249
2422.78	0.0003349
2434.35	0.0003548
2445.93	0.0003853
2457.5	0.0003291
2469.08	0.0002711
2480.65	0.0002567
2492.22	0.0002889
2503.8	0.00021384
2515.37	0.0002615
2526.95	0.0002429
2538.52	0.0002764
2550.09	0.0002589
2561.67	0.0002869
2573.24	0.0002881
2584.82	0.0002563
2596.39	0.000281
2607.96	0.0002516
2619.54	0.0002833
2631.11	0.0002624
2642.69	0.0002648
2654.26	0.000258
2665.83	0.0003012
2677.41	0.0003087
2688.98	0.0002851
2700.56	0.0002664
2712.13	0.0003159
2723.7	0.0003047
2735.28	0.0002896
2746.85	0.0003318
2758.43	0.0003011
2770	0.0003312
2781.57	0.0003464
2793.15	0.0003215
2804.72	0.0003695
2816.3	0.0003743
2827.87	0.0003808
2839.44	0.0003027
2851.02	0.0003152
2862.59	0.0002826
2874.17	0.0003136
2885.74	0.0003439
2897.31	0.0003149
2908.89	0.0003104
2920.46	0.000287
2932.04	0.0003217
2943.61	0.0003668
2955.18	0.0003347
2966.76	0.0003347
2978.33	0.0003009
2989.91	0.0003264
3001.48	0.0003414
3013.05	0.0004532
3024.63	0.0004888
3036.2	0.0006118
3047.78	0.000739
3059.35	0.0008593
3070.92	0.001247
3082.5	0.001707
3094.07	0.001427
3105.65	0.0005839
3117.22	0.0004112
3128.79	0.0004245
3140.37	0.0004112
3151.94	0.0004409
3163.52	0.0004381
3175.09	0.0004
3186.66	0.0003757
3198.24	0.0003699
3209.81	0.0003273
3221.39	0.0003637
3232.96	0.0003425
3244.53	0.0003046
3256.11	0.000289
3267.68	0.0002948
3279.26	0.0003928
3290.83	0.0003493
3302.4	0.0004531
3313.98	0.0003889
3325.55	0.0003761
3337.13	0.0003732
3348.7	0.000418
3360.27	0.0004397
3371.85	0.0003901
3383.42	0.0005608
3395	0.0008334
3406.57	0.0011066
3418.14	0.001697
3429.72	0.002457
3441.29	0.003227
3452.86	0.002377
3464.44	0.0009923
3476.01	0.0005666
3487.59	0.0005499
3499.16	0.0007256
3510.73	0.0009897
3522.31	0.001247
3533.88	0.001857
3545.46	0.002617
3557.03	0.003677
3568.6	0.004067
3580.18	0.002367
3591.75	0.000658
3603.33	0.0004597
3614.9	0.0003438
3626.47	0.0004297
3638.05	0.0004065
3649.62	0.0003915
3661.2	0.0004152
3672.77	0.0004804
3684.34	0.0003929
3695.92	0.0003957
3707.49	0.0003393
3719.07	0.0003465
3730.64	0.0003371
3742.21	0.0004142
3753.79	0.0003439
3765.36	0.0003701
3776.94	0.0002952
3788.51	0.0003645
3800.08	0.0003596
3811.66	0.0003878
3823.23	0.0003049
3834.81	0.0002963
3846.38	0.000412
3857.95	0.000364
3869.53	0.0003441
3881.1	0.0003618
3892.68	0.0003195
3904.25	0.0004312
3915.82	0.0002858
3927.4	0.0002988
3938.97	0.0003626
3950.55	0.0003889
3962.12	0.000291
3973.69	0.0004321
3985.27	0.0003042
3996.84	0.0003379
