Infrared Spectrum: Dicyclohexylmethanol
Formula: C 13 H 24 O
CAS: 4453-82-1
State: gas
Instrument: HP-GC/MS/IRD
Origin: NIST Mass Spectrometry Data Center
1/CM	ABSORBANCE
550	0.0001313
562	0.000202
574	0.0004141
586	0.0002525
598	0.0001414
610	8.08e-05
622	0.0001515
634	6.06e-05
646	8.08e-05
658	0.0002323
670	0.0006262
682	0.0006161
694	0.0002424
706	0.0001111
718	5.05e-05
730	5.05e-05
742	2.02e-05
754	0.000101
766	0.0001414
778	0.0002525
790	0.000202
802	0.0001717
814	0.0001717
826	0.0003636
838	0.0007777
850	0.0009999
862	0.000909
874	0.0012524
886	0.0019291
898	0.0019291
910	0.0010403
922	0.0008383
934	0.0009797
946	0.0007676
958	0.0013938
970	0.0037067
982	0.004747
994	0.0033431
1006	0.0025452
1018	0.0022624
1030	0.0020402
1042	0.0022523
1054	0.0027775
1066	0.0033532
1078	0.003939
1090	0.0039895
1102	0.0039289
1114	0.0022826
1126	0.0015453
1138	0.0015857
1150	0.0016766
1162	0.001515
1174	0.0017675
1186	0.0021816
1198	0.0022624
1210	0.0021109
1222	0.0019695
1234	0.002222
1246	0.002727
1258	0.0036057
1270	0.0031714
1282	0.0022523
1294	0.0022119
1306	0.0022624
1318	0.0017271
1330	0.0016564
1342	0.0020301
1354	0.0023432
1366	0.0020099
1378	0.0022927
1390	0.002121
1402	0.0015756
1414	0.0012423
1426	0.0011413
1438	0.0026058
1450	0.0078073
1462	0.0052924
1474	0.0016766
1486	0.0006969
1498	0.0004646
1510	0.0003535
1522	0.0002626
1534	0.0002121
1546	0.0001616
1558	0.0001919
1570	0.0001313
1582	0.0001111
1594	9.09e-05
1606	6.06e-05
1618	8.08e-05
1630	7.07e-05
1642	7.07e-05
1654	0.0001111
1666	6.06e-05
1678	8.08e-05
1690	6.06e-05
1702	0.000101
1714	8.08e-05
1726	4.04e-05
1738	5.05e-05
1750	7.07e-05
1762	6.06e-05
1774	6.06e-05
1786	6.06e-05
1798	6.06e-05
1810	4.04e-05
1822	2.02e-05
1834	5.05e-05
1846	8.08e-05
1858	4.04e-05
1870	4.04e-05
1882	3.03e-05
1894	6.06e-05
1906	6.06e-05
1918	3.03e-05
1930	4.04e-05
1942	5.05e-05
1954	7.07e-05
1966	4.04e-05
1978	6.06e-05
1990	4.04e-05
2002	2.02e-05
2014	3.03e-05
2026	3.03e-05
2038	6.06e-05
2050	3.03e-05
2062	4.04e-05
2074	4.04e-05
2086	0
2098	4.04e-05
2110	2.02e-05
2122	4.04e-05
2134	4.04e-05
2146	7.07e-05
2158	6.06e-05
2170	6.06e-05
2182	8.08e-05
2194	0.000101
2206	8.08e-05
2218	8.08e-05
2230	0.000101
2242	9.09e-05
2254	6.06e-05
2266	5.05e-05
2278	4.04e-05
2290	7.07e-05
2302	5.05e-05
2314	6.06e-05
2326	8.08e-05
2338	0.0001212
2350	0.0001515
2362	0.0001717
2374	0.0001414
2386	0.0001313
2398	0.0001111
2410	0.0001414
2422	0.0001111
2434	0.000101
2446	0.000101
2458	8.08e-05
2470	0.000101
2482	0.0001717
2494	0.0001717
2506	0.0001212
2518	0.0001313
2530	0.0001919
2542	0.0001919
2554	0.0001717
2566	0.0002727
2578	0.0003737
2590	0.0004646
2602	0.0005454
2614	0.0005858
2626	0.0006363
2638	0.0007474
2650	0.0009797
2662	0.0013433
2674	0.0012827
2686	0.00101
2698	0.0008888
2710	0.0008686
2722	0.0007777
2734	0.0007575
2746	0.0007474
2758	0.0007575
2770	0.0009494
2782	0.0013534
2794	0.0018483
2806	0.0022422
2818	0.0027472
2830	0.0041208
2842	0.0088072
2854	0.0258257
2866	0.0347137
2878	0.0164428
2890	0.0131603
2902	0.0190486
2914	0.0346127
2926	0.0742855
2938	0.0982528
2950	0.0382891
2962	0.0110191
2974	0.0047369
2986	0.002626
2998	0.001616
3010	0.0010807
3022	0.0007272
3034	0.0005353
3046	0.0004141
3058	0.0003838
3070	0.0002929
3082	0.0003232
3094	0.0002727
3106	0.0002121
3118	0.0001717
3130	0.0001919
3142	0.0002323
3154	0.0002828
3166	0.0002121
3178	0.0001515
3190	0.0001212
3202	8.08e-05
3214	0.0001414
3226	0.000101
3238	0.0001313
3250	0.0001212
3262	6.06e-05
3274	5.05e-05
3286	4.04e-05
3298	8.08e-05
3310	7.07e-05
3322	7.07e-05
3334	0.0001313
3346	0.0001111
3358	0.0001212
3370	0.0001818
3382	0.0001919
3394	0.0001717
3406	0.0001616
3418	0.0001717
3430	0.0002222
3442	0.0002424
3454	0.0002121
3466	0.0001616
3478	0.0001111
3490	0.000101
3502	0.0001717
3514	0.0001212
3526	0.0001515
3538	0.0001515
3550	0.0001818
3562	0.0001414
3574	0.0001212
3586	7.07e-05
3598	0.0001111
3610	0.0002323
3622	0.0003333
3634	0.0006969
3646	0.0010201
3658	0.0016766
3670	0.0015352
3682	0.0006464
3694	0.000303
3706	0.0002323
3718	0.0002424
3730	0.0002525
3742	0.0002323
3754	0.0002323
3766	0.0001515
3778	0.0002424
3790	0.0002525
3802	0.0002828
3814	0.0002727
3826	0.0002828
3838	0.000303
