Infrared Spectrum: Hexanedioic acid, 2,5-dimethyl-
Formula: C8 H14 O4
CAS: 4454-18-6
State: SOLID (SPLIT MULL), FLUOROLUBE FOR 3800-1330 CM^-^1, NUJOL FOR 1330-460 CM^-^1
Class: COBLENTZ III
Instrument: DOW KBr FOREPRISM-GRATING
Instrument parameters: BLAZED AT 3.5, 12.0, 20.0 MICRON AND CHANGED AT 5.0, 7.5, 14.9 MICRON
Sampling: TRANSMISSION
Resolution: 2
Origin: DOW CHEMICAL COMPANY
1/CM	TRANSMITTANCE
457	0.7637
466	0.7722
475	0.7708
484	0.7646
493	0.7476
502	0.7401
511	0.7434
520	0.7402
529	0.6985
538	0.6191
547	0.6279
556	0.5447
565	0.6015
574	0.7602
583	0.7915
592	0.7944
601	0.7858
610	0.7316
619	0.6392
628	0.5807
637	0.6126
646	0.6745
655	0.7876
664	0.7996
673	0.8283
682	0.8434
691	0.8379
700	0.833
709	0.8028
718	0.7372
727	0.7527
736	0.7346
745	0.6024
754	0.6667
763	0.6396
772	0.5423
781	0.5107
790	0.553
799	0.7012
808	0.6912
817	0.68
826	0.6414
835	0.592
844	0.6258
853	0.5943
862	0.5287
871	0.4436
880	0.3585
889	0.2742
898	0.2163
907	0.2045
916	0.213
925	0.2298
934	0.3541
943	0.4041
952	0.4019
961	0.4094
970	0.4462
979	0.5192
988	0.5977
997	0.6183
1006	0.5845
1015	0.3632
1024	0.625
1033	0.6985
1042	0.672
1051	0.6778
1060	0.661
1069	0.6322
1078	0.4606
1087	0.4897
1096	0.4913
1105	0.4373
1114	0.4029
1123	0.5928
1132	0.6325
1141	0.5622
1150	0.5177
1159	0.4715
1168	0.3342
1177	0.1283
1186	0.4313
1195	0.4334
1204	0.4862
1213	0.3607
1222	0.1544
1231	0.0692
1240	0.0333
1249	0.0386
1258	0.0814
1267	0.3053
1276	0.2682
1285	0.1933
1294	0.1373
1303	0.2488
1312	0.502
1321	0.4448
1330	0.4449
1339	0.7273
1348	0.754
1357	0.8064
1366	0.8062
1375	0.7556
1384	0.8242
1393	0.8171
1402	0.7501
1411	0.5991
1420	0.6403
1429	0.78
1438	0.79
1447	0.7515
1456	0.6545
1465	0.5491
1474	0.6838
1483	0.8523
1492	0.8843
1501	0.887
1510	0.8835
1519	0.884
1528	0.8832
1537	0.8805
1546	0.8762
1555	0.871
1564	0.8683
1573	0.8674
1582	0.8666
1591	0.8613
1600	0.8514
1609	0.8397
1618	0.8247
1627	0.8054
1636	0.781
1645	0.7499
1654	0.7153
1663	0.664
1672	0.5789
1681	0.4605
1690	0.2856
1699	0.1431
1708	0.1724
1717	0.1865
1726	0.4349
1735	0.6502
1744	0.7488
1753	0.7951
1762	0.8344
1771	0.8554
1780	0.8663
1789	0.873
1798	0.8781
1807	0.8802
1816	0.8811
1825	0.8824
1834	0.8837
1843	0.8846
1852	0.884
1861	0.8835
1870	0.8836
1879	0.8846
1888	0.8874
1897	0.8928
1906	0.8928
1915	0.8923
1924	0.8918
1933	0.8911
1942	0.891
1951	0.8913
1960	0.9024
1969	0.8876
1978	0.885
1987	0.8824
1996	0.8984
2005	0.9264
2014	0.928
2023	0.9285
2032	0.9274
2041	0.9247
2050	0.9212
2059	0.9191
2068	0.9181
2077	0.9183
2086	0.9188
2095	0.9179
2104	0.9162
2113	0.9146
2122	0.9132
2131	0.9119
2140	0.9092
2149	0.9064
2158	0.9035
2167	0.8997
2176	0.8959
2185	0.8928
2194	0.8918
2203	0.8908
2212	0.8913
2221	0.8909
2230	0.8873
2239	0.8838
2248	0.881
2257	0.8778
2266	0.8746
2275	0.8713
2284	0.8681
2293	0.8643
2302	0.8606
2311	0.8567
2320	0.8534
2329	0.8503
2338	0.8467
2347	0.8431
2356	0.8391
2365	0.8351
2374	0.8308
2383	0.8264
2392	0.8216
2401	0.8164
2410	0.8111
2419	0.8058
2428	0.8001
2437	0.794
2446	0.7883
2455	0.7836
2464	0.78
2473	0.7736
2482	0.7645
2491	0.7557
2500	0.7454
2509	0.7341
2518	0.7226
2527	0.7129
2536	0.7025
2545	0.6909
2554	0.6842
2563	0.6852
2572	0.6923
2581	0.6926
2590	0.6902
2599	0.6828
2608	0.67
2617	0.6568
2626	0.6465
2635	0.6379
2644	0.6367
2653	0.6385
2662	0.6424
2671	0.6483
2680	0.6532
2689	0.6572
2698	0.6615
2707	0.6612
2716	0.6589
2725	0.6546
2734	0.6482
2743	0.6402
2752	0.6344
2761	0.6359
2770	0.6403
2779	0.6387
2788	0.6333
2797	0.6271
2806	0.6195
2815	0.6089
2824	0.5966
2833	0.583
2842	0.5682
2851	0.5495
2860	0.5285
2869	0.5143
2878	0.5104
2887	0.509
2896	0.5033
2905	0.4904
2914	0.4745
2923	0.4515
2932	0.4365
2941	0.4367
2950	0.4442
2959	0.4838
2968	0.4887
2977	0.4331
2986	0.4506
2995	0.5112
3004	0.546
3013	0.547
3022	0.5469
3031	0.5472
3040	0.5489
3049	0.5541
3058	0.561
3067	0.5691
3076	0.5745
3085	0.5775
3094	0.5803
3103	0.5879
3112	0.6005
3121	0.6131
3130	0.6287
3139	0.6419
3148	0.6541
3157	0.6655
3166	0.6766
3175	0.6898
3184	0.7003
3193	0.7113
3202	0.7225
3211	0.7337
3220	0.7463
3229	0.7582
3238	0.77
3247	0.7816
3256	0.7923
3265	0.8016
3274	0.8103
3283	0.8192
3292	0.8266
3301	0.8326
3310	0.8369
3319	0.8404
3328	0.8443
3337	0.8484
3346	0.8518
3355	0.855
3364	0.8581
3373	0.8612
3382	0.8644
3391	0.8668
3400	0.8684
3409	0.869
3418	0.8694
3427	0.8689
3436	0.8686
3445	0.8682
3454	0.8678
3463	0.8674
3472	0.867
3481	0.8666
3490	0.8663
3499	0.8659
3508	0.8656
3517	0.8652
3526	0.8648
3535	0.8644
3544	0.864
3553	0.8636
3562	0.8618
3571	0.8536
3580	0.8604
3589	0.8666
3598	0.8673
3607	0.8667
3616	0.8662
3625	0.8656
3634	0.8647
3643	0.8635
3652	0.8619
3661	0.8596
3670	0.8558
3679	0.8509
3688	0.8514
3697	0.8524
3706	0.8542
3715	0.8551
3724	0.8549
3733	0.8537
3742	0.8528
3751	0.8515
3760	0.8505
3769	0.8496
3778	0.8484
3787	0.8471
3796	0.8461
