Infrared Spectrum: Ethyl methanesulphonylacetate
Formula: C 5 H 10 O 4 S
CAS: 4455-15-6
State: gas
Origin: EPA-IR VAPOR PHASE LIBRARY
1/CM	ABSORBANCE
549.9	8.5e-05
559.547	0.0002042
569.193	0.0001357
578.84	0.0004493
588.486	0.000738
598.133	0.0010034
607.779	0.0007067
617.426	0.0001768
627.072	0.0001885
636.719	8.8e-05
646.365	0.0001538
656.012	0.000155
665.658	0.00026177
675.305	0.000232752
684.951	0.0004473
694.598	0.0006345
704.245	0.0007893
713.891	0.0009727
723.538	0.0010515
733.184	0.0008861
742.831	0.0007273
752.477	0.0006429
762.124	0.0006122
771.77	0.0006879
781.417	0.0010448
791.063	0.001358
800.71	0.001478
810.356	0.001438
820.003	0.001258
829.649	0.0009554
839.296	0.0009768
848.943	0.00094
858.589	0.0008216
868.236	0.0006929
877.882	0.0008882
887.529	0.0011499
897.175	0.001988
906.822	0.002728
916.468	0.002278
926.115	0.001428
935.761	0.0012151
945.408	0.0011851
955.054	0.001698
964.701	0.002748
974.347	0.002588
983.994	0.001328
993.64	0.0008766
1003.29	0.0010366
1012.93	0.001828
1022.58	0.003198
1032.23	0.003678
1041.87	0.002408
1051.52	0.001328
1061.17	0.0011452
1070.81	0.001268
1080.46	0.001778
1090.11	0.003728
1099.75	0.009238
1109.4	0.010988
1119.05	0.007258
1128.69	0.005048
1138.34	0.005778
1147.99	0.008398
1157.63	0.009708
1167.28	0.008038
1176.92	0.005178
1186.57	0.003688
1196.22	0.003628
1205.86	0.004658
1215.51	0.004898
1225.16	0.004178
1234.8	0.003978
1244.45	0.004968
1254.1	0.006948
1263.74	0.008778
1273.39	0.010168
1283.04	0.011348
1292.68	0.010618
1302.33	0.008368
1311.98	0.006388
1321.62	0.005458
1331.27	0.005428
1340.92	0.008258
1350.56	0.017448
1360.21	0.020358
1369.86	0.010198
1379.5	0.004258
1389.15	0.002578
1398.79	0.002688
1408.44	0.002488
1418.09	0.001718
1427.73	0.0011872
1437.38	0.0009701
1447.03	0.0008785
1456.67	0.0009447
1466.32	0.0010844
1475.97	0.0009806
1485.61	0.0006793
1495.26	0.0004328
1504.91	0.0003584
1514.55	0.0003587
1524.2	0.00026888
1533.85	0.00028859
1543.49	0.00031002
1553.14	0.00028598
1562.79	0.000237888
1572.43	0.00028701
1582.08	0.00027986
1591.73	0.000232621
1601.37	0.00027076
1611.02	0.00028196
1620.67	0.00028477
1630.31	0.00027678
1639.96	0.00029241
1649.6	0.00031915
1659.25	0.0003494
1668.9	0.0003145
1678.54	0.0004206
1688.19	0.000513
1697.84	0.0007387
1707.48	0.0010043
1717.13	0.001558
1726.78	0.002938
1736.42	0.006318
1746.07	0.010538
1755.72	0.011438
1765.36	0.008578
1775.01	0.005398
1784.66	0.002458
1794.3	0.0011234
1803.95	0.0006593
1813.6	0.0005134
1823.24	0.0003878
1832.89	0.0003459
1842.54	0.00029485
1852.18	0.00030172
1861.83	0.00028244
1871.47	0.000234976
1881.12	0.00027937
1890.77	0.00026237
1900.41	0.00024776
1910.06	0.0002034
1919.71	0.0002085
1929.35	0.0002023
1939	0.0001922
1948.65	0.0001961
1958.29	0.0001521
1967.94	0.0001869
1977.59	0.0001393
1987.23	0.000107
1996.88	9.9e-05
2006.53	0.000112
2016.17	0.0001366
2025.82	0.0001363
2035.47	0.000127
2045.11	0.000151
2054.76	0.000131
2064.41	0.00011
2074.05	0.000128
2083.7	9.5e-05
2093.35	0.000116
2102.99	0.000125
2112.64	0.000128
2122.28	0.0001623
2131.93	0.0001351
2141.58	0.0001574
2151.22	0.000103
2160.87	0.000105
2170.52	0.000102
2180.16	7.5e-05
2189.81	0.0001638
2199.46	0.0001286
2209.1	0.000124
2218.75	0.0001498
2228.4	0.0001606
2238.04	0.000125
2247.69	8.1e-05
2257.34	0.0001513
2266.98	0.0001611
2276.63	0.0001864
2286.28	0.0001733
2295.92	0.0001851
2305.57	0.000203
2315.22	0.00023194
2324.86	0.00023854
2334.51	0.000212
2344.16	0.000227159
2353.8	0.0001836
2363.45	0.00022893
2373.09	0.0002088
2382.74	0.000172
2392.39	0.00011
2402.03	0.0001441
2411.68	0.000138
2421.33	0.0001305
2430.97	0.0001475
2440.62	0.000163
2450.27	0.0001734
2459.91	0.0001393
2469.56	0.000123
2479.21	0.0001423
2488.85	9.4e-05
2498.5	0.000123
2508.15	0.0001359
2517.79	0.0001616
2527.44	0.00011
2537.09	0.000112
2546.73	8.9e-05
2556.38	0.000107
2566.03	0.000104
2575.67	0.0001
2585.32	0.000106
2594.96	0.0001325
2604.61	0.000102
2614.26	4.8e-05
2623.9	8.4e-05
2633.55	6.4e-05
2643.2	9.2e-05
2652.84	0.0001329
2662.49	9.9e-05
2672.14	9.4e-05
2681.78	0.000104
2691.43	0.000107
2701.08	4.8e-05
2710.72	0.0001649
2720.37	0.000117
2730.02	6.8e-05
2739.66	0.0001484
2749.31	0.000101
2758.96	0.0001391
2768.6	0.0001406
2778.25	9.5e-05
2787.9	8.8e-05
2797.54	0.0001716
2807.19	0.0001415
2816.84	0.0001713
2826.48	0.000228916
2836.13	0.000233327
2845.77	0.0001392
2855.42	0.0002084
2865.07	0.0002677
2874.71	0.000334
2884.36	0.0004182
2894.01	0.0004488
2903.65	0.0006038
2913.3	0.0007888
2922.95	0.0007974
2932.59	0.0009231
2942.24	0.001358
2951.89	0.001468
2961.53	0.0011962
2971.18	0.001508
2980.83	0.002228
2990.47	0.002758
3000.12	0.002168
3009.77	0.001568
3019.41	0.0011087
3029.06	0.0007119
3038.71	0.0005348
3048.35	0.0004206
3058	0.00028975
3067.64	0.0004038
3077.29	0.00029391
3086.94	0.00026999
3096.58	0.00034
3106.23	0.000348
3115.88	0.0001939
3125.52	0.00025538
3135.17	0.000235338
3144.82	0.0001843
3154.46	0.000233312
3164.11	0.0004204
3173.76	0.0003573
3183.4	0.0003312
3193.05	0.0003626
3202.7	0.0004229
3212.34	0.0001818
3221.99	0.0001569
3231.64	0.0003364
3241.28	0.0002685
3250.93	0.000232238
3260.58	0.0002109
3270.22	0.0004641
3279.87	0.00029606
3289.52	0.0003857
3299.16	0.000388
3308.81	0.00026366
3318.45	0.00039
3328.1	0.0003809
3337.75	0.0003294
3347.39	0.0003632
3357.04	0.00031631
3366.69	0.0003623
3376.33	0.000359
3385.98	0.000198
3395.63	0.0004122
3405.27	0.0003556
3414.92	0.0004715
3424.57	0.0003436
3434.21	0.0004426
3443.86	0.0003412
3453.51	0.0004634
3463.15	0.0003304
3472.8	0.0003568
3482.45	0.000418
3492.09	0.0003182
3501.74	0.0004081
3511.39	0.0003457
3521.03	0.000231877
3530.68	0.0004537
3540.33	0.00036
3549.97	0.00026613
3559.62	0.00032584
3569.26	0.00024573
3578.91	0.00030436
3588.56	0.00027488
3598.2	0.00031064
3607.85	0.00025699
3617.5	0.0002425
3627.14	0.0003564
3636.79	0.0001867
3646.44	0.00025135
3656.08	0.000348
3665.73	0.00032589
3675.38	0.00030516
3685.02	0.00031734
3694.67	0.00024498
3704.32	0.0001921
3713.96	0.00030029
3723.61	0.0003781
3733.26	0.0001806
3742.9	0.0003967
3752.55	0.00026098
3762.2	0.00026926
3771.84	0.00024738
3781.49	0.000237683
3791.13	0.0003516
3800.78	0.00028832
3810.43	0.000116
3820.07	0.00026824
3829.72	0.00025846
3839.37	0.0001627
3849.01	0.0002079
3858.66	0.00026709
3868.31	0.00027988
3877.95	0.00024503
3887.6	0.00025684
3897.25	0.00022542
3906.89	0.00028305
3916.54	0.000232636
3926.19	0.00030472
3935.83	0.00027558
3945.48	0.00024542
3955.13	0.00022472
3964.77	0.00031028
3974.42	0.0002435
3984.07	0.00030748
3993.71	0.00024572
