Infrared Spectrum: Methoxymethyl diphenyl phosphine oxide
Formula: C 14 H 15 O 2 P
CAS: 4455-77-0
State: gas
Origin: EPA-IR VAPOR PHASE LIBRARY
1/CM	ABSORBANCE
549.8	0.034343
559.445	0.010583
569.09	0.003723
578.735	0.002113
588.38	0.001293
598.025	0.001134
607.67	0.0008559
617.315	0.0010233
626.96	0.0008662
636.605	0.0010971
646.251	0.001343
655.896	0.002513
665.541	0.005343
675.186	0.009673
684.831	0.018163
694.476	0.032333
704.121	0.033183
713.766	0.036023
723.411	0.027193
733.056	0.025213
742.701	0.023493
752.346	0.013623
761.991	0.007433
771.636	0.007513
781.281	0.008923
790.926	0.007303
800.571	0.004243
810.216	0.002943
819.861	0.002663
829.507	0.003013
839.152	0.005113
848.797	0.012633
858.442	0.018893
868.087	0.015333
877.732	0.006473
887.377	0.002933
897.022	0.002323
906.667	0.002683
916.312	0.003823
925.957	0.004083
935.602	0.004473
945.247	0.005323
954.892	0.004553
964.537	0.002993
974.182	0.002123
983.827	0.001963
993.472	0.002923
1003.12	0.002833
1012.76	0.002033
1022.41	0.003353
1032.05	0.004093
1041.7	0.002363
1051.34	0.003363
1060.99	0.005403
1070.63	0.007453
1080.28	0.011643
1089.92	0.024963
1099.57	0.046763
1109.21	0.058743
1118.86	0.068333
1128.5	0.035823
1138.15	0.015513
1147.79	0.009353
1157.44	0.008013
1167.08	0.008933
1176.73	0.015343
1186.37	0.022293
1196.02	0.019033
1205.66	0.029983
1215.31	0.053313
1224.95	0.044403
1234.6	0.021133
1244.24	0.012093
1253.89	0.008523
1263.53	0.007623
1273.18	0.006943
1282.82	0.005043
1292.47	0.004623
1302.11	0.005533
1311.76	0.006173
1321.4	0.004553
1331.05	0.002913
1340.69	0.002133
1350.34	0.001673
1359.98	0.001823
1369.63	0.002083
1379.27	0.002113
1388.92	0.002023
1398.56	0.002353
1408.21	0.003633
1417.85	0.006753
1427.5	0.011593
1437.14	0.017243
1446.79	0.011303
1456.43	0.006423
1466.08	0.004993
1475.73	0.004663
1485.37	0.004913
1495.02	0.002643
1504.66	0.001493
1514.31	0.001223
1523.95	0.001213
1533.6	0.0012026
1543.24	0.001203
1552.89	0.0011927
1562.53	0.001233
1572.18	0.001593
1581.82	0.002033
1591.47	0.002493
1601.11	0.001573
1610.76	0.001243
1620.4	0.0010105
1630.05	0.0008013
1639.69	0.0008296
1649.34	0.0011144
1658.98	0.001463
1668.63	0.001273
1678.27	0.0009712
1687.92	0.0006823
1697.56	0.0004996
1707.21	0.0005171
1716.85	0.0005607
1726.5	0.0005126
1736.14	0.0005486
1745.79	0.0006792
1755.43	0.0008389
1765.08	0.0010443
1774.72	0.0011441
1784.37	0.0009877
1794.01	0.0011643
1803.66	0.002003
1813.3	0.002563
1822.95	0.001833
1832.59	0.001323
1842.24	0.0009077
1851.88	0.0007189
1861.53	0.0008002
1871.17	0.0009417
1880.82	0.001373
1890.46	0.001883
1900.11	0.002143
1909.75	0.001603
1919.4	0.000977
1929.04	0.0008495
1938.69	0.0009893
1948.33	0.001613
1957.98	0.002183
1967.62	0.002133
1977.27	0.001363
1986.91	0.0008658
1996.56	0.00082
2006.2	0.0010279
2015.85	0.0011095
2025.49	0.0011042
2035.14	0.0010512
2044.78	0.0010444
2054.43	0.0010002
2064.07	0.0009877
2073.72	0.0008621
2083.36	0.0007409
2093.01	0.0006885
2102.65	0.0006698
2112.3	0.0005989
2121.94	0.000552
2131.59	0.0005515
2141.23	0.0005172
2150.88	0.0004725
2160.52	0.0004638
2170.17	0.0004093
2179.81	0.0003731
2189.46	0.0003731
2199.1	0.0004913
2208.75	0.0005653
2218.39	0.0006459
2228.04	0.000563
2237.68	0.0005069
2247.33	0.0004153
2256.97	0.0004041
2266.62	0.0004399
2276.26	0.0004832
2285.91	0.0004357
2295.55	0.0004668
2305.2	0.0005417
2314.84	0.0008568
2324.49	0.0007239
2334.13	0.0006215
2343.78	0.0006222
2353.42	0.0005559
2363.07	0.0005158
2372.72	0.000543
2382.36	0.0004477
2392.01	0.0004604
2401.65	0.0005636
2411.3	0.0005635
2420.94	0.0004857
2430.59	0.0004923
2440.23	0.0005147
2449.88	0.0003448
2459.52	0.0003057
2469.17	0.0003425
2478.81	0.0003288
2488.46	0.00028953
2498.1	0.00029424
2507.75	0.0003577
2517.39	0.0003441
2527.04	0.0003382
2536.68	0.0003932
2546.33	0.0003512
2555.97	0.0003612
2565.62	0.0005283
2575.26	0.0005432
2584.91	0.0006475
2594.55	0.0006257
2604.2	0.0006519
2613.84	0.0005481
2623.49	0.0005475
2633.13	0.0005171
2642.78	0.000376
2652.42	0.0004274
2662.07	0.0005072
2671.71	0.0004947
2681.36	0.0006511
2691	0.0006859
2700.65	0.0007908
2710.29	0.0006869
2719.94	0.0006208
2729.58	0.000593
2739.23	0.0006293
2748.87	0.0007694
2758.52	0.0008933
2768.16	0.0010236
2777.81	0.001303
2787.45	0.001683
2797.1	0.002523
2806.74	0.003983
2816.39	0.006913
2826.03	0.013623
2835.68	0.012583
2845.32	0.006703
2854.97	0.006543
2864.61	0.008513
2874.26	0.010133
2883.9	0.010703
2893.55	0.010783
2903.19	0.010143
2912.84	0.010623
2922.48	0.011183
2932.13	0.014353
2941.77	0.013353
2951.42	0.007713
2961.06	0.006013
2970.71	0.005393
2980.35	0.005583
2990	0.008093
2999.64	0.009273
3009.29	0.007003
3018.93	0.006293
3028.58	0.006213
3038.22	0.005593
3047.87	0.007953
3057.51	0.018373
3067.16	0.029433
3076.8	0.017433
3086.45	0.013023
3096.09	0.007523
3105.74	0.003753
3115.38	0.001923
3125.03	0.001583
3134.67	0.001563
3144.32	0.001783
3153.96	0.001533
3163.61	0.0007436
3173.25	0.0006056
3182.9	0.0003888
3192.54	0.0004469
3202.19	0.0003387
3211.83	0.0003435
3221.48	0.00026146
3231.12	0.0003959
3240.77	0.00023961
3250.41	0.00026934
3260.06	0.0001688
3269.7	0.0001819
3279.35	0.00029541
3289	9.4e-05
3298.64	0.0001269
3308.29	0.0002804
3317.93	0.0001312
3327.58	0.0001408
3337.22	0.0001085
3346.87	0.0001633
3356.51	0.000102
3366.16	4.7e-05
3375.8	0.000207957
3385.45	0.0001273
3395.09	4.3e-05
3404.74	8.8e-05
3414.38	0.0002593
3424.03	0.0001879
3433.67	0.0001452
3443.32	0.0001127
3452.96	0.0001769
3462.61	2.6e-05
3472.25	0.0001108
3481.9	0.0003565
3491.54	7e-05
3501.19	0.0001752
3510.83	0.00020177
3520.48	9.4e-05
3530.12	0.00012
3539.77	5.9e-05
3549.41	0.0002434
3559.06	0.0001649
3568.7	0.00021532
3578.35	0.00028171
3587.99	0.00021438
3597.64	0.00023171
3607.28	0.00027457
3616.93	0.00022033
3626.57	0.0001551
3636.22	0.0003755
3645.86	0.0001182
3655.51	0.0003379
3665.15	0.0003345
3674.8	0.0001316
3684.44	0.0001912
3694.09	0.0003141
3703.73	0.0004287
3713.38	0.0004591
3723.02	0.000209406
3732.67	0.0001575
3742.31	0.00025605
3751.96	0.0004159
3761.6	0.0003623
3771.25	0.0003329
3780.89	0.0002789
3790.54	0.00026128
3800.18	0.0003743
3809.83	0.0003142
3819.47	0.0001789
3829.12	0.00021648
3838.76	0.0002652
3848.41	0.0003857
3858.05	0.000148
3867.7	0.00022073
3877.34	0.00025862
3886.99	0.000101
3896.63	0.0001878
3906.28	0.0001902
3915.92	0.0003246
3925.57	0.0003632
3935.21	0.0004027
3944.86	0.00027456
3954.5	0.00029866
3964.15	0.0003402
3973.79	0.0004731
3983.44	0.0003241
3993.08	0.0005245
