Infrared Spectrum: 1,5-Dibromo-3-methylpentane
Formula: C 6 H 12 Br 2
CAS: 4457-72-1
State: gas
Instrument: HP-GC/MS/IRD
Origin: NIST Mass Spectrometry Data Center
1/CM	ABSORBANCE
550	0.0008685
562	0.0012045
574	0.002199
586	0.000846
598	0.0001785
610	0.000123
622	0.00042
634	0.0012585
646	0.002868
658	0.0028515
670	0.0016815
682	0.0008505
694	0.0003705
706	0.0002115
718	0.0001095
730	3.3e-05
742	0.000177
754	0.0003135
766	0.000231
778	0.0001425
790	4.5e-06
802	6.75e-05
814	0.0002475
826	0.00027
838	0.000195
850	0.0004185
862	0.000894
874	0.001155
886	0.000906
898	0.0006135
910	0.000405
922	0.0003825
934	0.0003015
946	0.000231
958	9.45e-05
970	4.5e-05
982	0.000123
994	0.0002775
1006	0.0004125
1018	0.000384
1030	0.0002115
1042	0.000141
1054	2.85e-05
1066	5.55e-05
1078	6.15e-05
1090	0.0001245
1102	0.00015
1114	0.0002355
1126	0.0002655
1138	0.0003465
1150	0.0005235
1162	0.0007815
1174	0.0008685
1186	0.001014
1198	0.0013275
1210	0.0031905
1222	0.006405
1234	0.004233
1246	0.0028995
1258	0.0051015
1270	0.0055995
1282	0.0044775
1294	0.0030345
1306	0.002067
1318	0.0016995
1330	0.001431
1342	0.001362
1354	0.0015645
1366	0.0012675
1378	0.001716
1390	0.001896
1402	0.0008235
1414	0.000693
1426	0.001389
1438	0.0030495
1450	0.0035445
1462	0.003084
1474	0.0019545
1486	0.000783
1498	0.0003525
1510	0.000222
1522	0.000159
1534	0.0001035
1546	9.15e-05
1558	1.5e-06
1570	5.7e-05
1582	5.25e-05
1594	4.5e-05
1606	6e-05
1618	3.9e-05
1630	4.8e-05
1642	6e-05
1654	5.1e-05
1666	4.95e-05
1678	7.05e-05
1690	7.05e-05
1702	6.15e-05
1714	3e-05
1726	1.2e-05
1738	6e-06
1750	4.65e-05
1762	2.55e-05
1774	3.15e-05
1786	3.45e-05
1798	4.05e-05
1810	3.3e-05
1822	1.35e-05
1834	7.5e-06
1846	4.5e-06
1858	1.95e-05
1870	6.3e-05
1882	2.85e-05
1894	3.15e-05
1906	3e-05
1918	1.65e-05
1930	2.85e-05
1942	2.25e-05
1954	1.95e-05
1966	1.65e-05
1978	2.7e-05
1990	2.4e-05
2002	5.55e-05
2014	4.5e-05
2026	4.5e-05
2038	3.6e-05
2050	3.75e-05
2062	3.3e-05
2074	3e-05
2086	3e-05
2098	9e-06
2110	4.05e-05
2122	2.7e-05
2134	4.5e-05
2146	2.25e-05
2158	4.2e-05
2170	3.9e-05
2182	4.65e-05
2194	4.05e-05
2206	4.65e-05
2218	4.5e-05
2230	6.45e-05
2242	1.35e-05
2254	3.9e-05
2266	5.1e-05
2278	5.55e-05
2290	6.15e-05
2302	6e-05
2314	7.05e-05
2326	8.85e-05
2338	7.5e-05
2350	9.75e-05
2362	8.7e-05
2374	0.000114
2386	0.0001335
2398	0.0001035
2410	0.000144
2422	0.0001215
2434	0.0001275
2446	0.0001185
2458	0.0001065
2470	0.000147
2482	0.0001305
2494	0.0001395
2506	0.000132
2518	0.0001365
2530	0.00012
2542	0.0001275
2554	0.000153
2566	0.000156
2578	0.000174
2590	0.000186
2602	0.0001815
2614	0.0002445
2626	0.0002595
2638	0.000264
2650	0.0002685
2662	0.0003045
2674	0.000339
2686	0.000348
2698	0.000369
2710	0.0003705
2722	0.000354
2734	0.0003765
2746	0.0004305
2758	0.0003915
2770	0.000405
2782	0.000459
2794	0.000492
2806	0.000606
2818	0.0008175
2830	0.0013305
2842	0.002154
2854	0.002268
2866	0.0031875
2878	0.005343
2890	0.006048
2902	0.0052725
2914	0.0052485
2926	0.0071355
2938	0.010389
2950	0.008826
2962	0.0098595
2974	0.015
2986	0.0074925
2998	0.0030345
3010	0.0030225
3022	0.0028395
3034	0.0012225
3046	0.0007305
3058	0.0005805
3070	0.000543
3082	0.000411
3094	0.00042
3106	0.000381
3118	0.000357
3130	0.000327
3142	0.0003825
3154	0.0003495
3166	0.0003375
3178	0.0003255
3190	0.0003075
3202	0.0003075
3214	0.0002805
3226	0.000249
3238	0.000207
3250	0.000174
3262	0.000198
3274	0.0002175
3286	0.0002235
3298	0.000183
3310	0.000183
3322	0.0001965
3334	0.000138
3346	0.000198
3358	0.0001755
3370	0.0001455
3382	0.00021
3394	0.0001815
3406	0.000141
3418	0.0001485
3430	0.0001935
3442	0.0001065
3454	0.0001305
3466	0.0001335
3478	0.000123
3490	8.25e-05
3502	0.0001095
3514	5.55e-05
3526	0.000156
3538	0.0001485
3550	0.0001395
3562	0.0001725
3574	0.0001065
3586	0.0001155
3598	0.0001275
3610	0.000111
3622	0.0001425
3634	0.000162
3646	0.000162
3658	9e-05
3670	0.0001095
3682	0.000159
3694	0.0001635
3706	0.0001665
3718	0.0001995
3730	0.0001755
3742	0.000132
3754	0.000186
3766	0.000201
3778	0.00015
3790	0.0001455
3802	0.00018
3814	0.0001995
3826	0.000204
3838	0.000153
