Infrared Spectrum: 2-Fluorobenzyl bromide
Formula: C 7 H 6 Br F
CAS: 446-48-0
State: gas
Origin: EPA-IR VAPOR PHASE LIBRARY
1/CM	ABSORBANCE
549.9	0.01267
559.547	0.01212
569.193	0.01334
578.84	0.02138
588.486	0.0246
598.133	0.02058
607.779	0.04326
617.426	0.07674
627.072	0.0702
636.719	0.04055
646.365	0.02197
656.012	0.01361
665.658	0.01061
675.305	0.00899
684.951	0.00835
694.598	0.00794
704.245	0.00751
713.891	0.00972
723.538	0.01842
733.184	0.04915
742.831	0.13656
752.477	0.26363
762.124	0.1711
771.77	0.05908
781.417	0.01613
791.063	0.00885
800.71	0.00742
810.356	0.00794
820.003	0.0109
829.649	0.02184
839.296	0.0397
848.943	0.03759
858.589	0.02678
868.236	0.03261
877.882	0.03481
887.529	0.02265
897.175	0.00999
906.822	0.00605
916.468	0.00525
926.115	0.00729
935.761	0.01147
945.408	0.00893
955.054	0.00517
964.701	0.0036648
974.347	0.0033077
983.994	0.0031222
993.64	0.0033077
1003.29	0.00442
1012.93	0.00844
1022.58	0.01708
1032.23	0.019
1041.87	0.01126
1051.52	0.00622
1061.17	0.00679
1070.81	0.01491
1080.46	0.03459
1090.11	0.03864
1099.75	0.02146
1109.4	0.0103
1119.05	0.01092
1128.69	0.01675
1138.34	0.01984
1147.99	0.01937
1157.63	0.01714
1167.28	0.02047
1176.92	0.03376
1186.57	0.0505
1196.22	0.05866
1205.86	0.05836
1215.51	0.10321
1225.16	0.20641
1234.8	0.27478
1244.45	0.2261
1254.1	0.0916
1263.74	0.03092
1273.39	0.02772
1283.04	0.03857
1292.68	0.0283
1302.33	0.01233
1311.98	0.00833
1321.62	0.00596
1331.27	0.00467
1340.92	0.00399
1350.56	0.00407
1360.21	0.00483
1369.86	0.00574
1379.5	0.0061
1389.15	0.0058
1398.79	0.0058
1408.44	0.00715
1418.09	0.01046
1427.73	0.01676
1437.38	0.03329
1447.03	0.06474
1456.67	0.08756
1466.32	0.0878
1475.97	0.09178
1485.61	0.14394
1495.26	0.17602
1504.91	0.12547
1514.55	0.05156
1524.2	0.01789
1533.85	0.01024
1543.49	0.00957
1553.14	0.01156
1562.79	0.01773
1572.43	0.03452
1582.08	0.06064
1591.73	0.06721
1601.37	0.04674
1611.02	0.04168
1620.67	0.03107
1630.31	0.01162
1639.96	0.00633
1649.6	0.00495
1659.25	0.00455
1668.9	0.00488
1678.54	0.00687
1688.19	0.00919
1697.84	0.0076
1707.48	0.00549
1717.13	0.00484
1726.78	0.00425
1736.42	0.0038391
1746.07	0.0037303
1755.72	0.0039
1765.36	0.00499
1775.01	0.00707
1784.66	0.00932
1794.3	0.00899
1803.95	0.00633
1813.6	0.00558
1823.24	0.00542
1832.89	0.00442
1842.54	0.0034169
1852.18	0.0032981
1861.83	0.00389
1871.47	0.00497
1881.12	0.00488
1890.77	0.00569
1900.41	0.00983
1910.06	0.01035
1919.71	0.00691
1929.35	0.00675
1939	0.00837
1948.65	0.00645
1958.29	0.00394
1967.94	0.0034794
1977.59	0.0036128
1987.23	0.00395
1996.88	0.00408
2006.53	0.0037365
2016.17	0.0030391
2025.82	0.002798
2035.47	0.002719
2045.11	0.002747
2054.76	0.0027889
2064.41	0.0030212
2074.05	0.0034124
2083.7	0.0033056
2093.35	0.00290344
2102.99	0.002686
2112.64	0.002713
2122.28	0.002577
2131.93	0.002269
2141.58	0.002115
2151.22	0.002013
2160.87	0.002138
2170.52	0.002232
2180.16	0.002224
2189.81	0.002317
2199.46	0.002426
2209.1	0.002522
2218.75	0.00273
2228.4	0.00291571
2238.04	0.0030225
2247.69	0.0030446
2257.34	0.002997
2266.98	0.00290479
2276.63	0.0029313
2286.28	0.003312
2295.92	0.0036313
2305.57	0.00406
2315.22	0.00422
2324.86	0.00396
2334.51	0.0035736
2344.16	0.0032231
2353.8	0.0029719
2363.45	0.00294979
2373.09	0.0031019
2382.74	0.0028392
2392.39	0.002687
2402.03	0.0027643
2411.68	0.0032512
2421.33	0.0036692
2430.97	0.0037095
2440.62	0.0035328
2450.27	0.0033763
2459.91	0.0035823
2469.56	0.00388
2479.21	0.0036551
2488.85	0.0028323
2498.5	0.002108
2508.15	0.00185
2517.79	0.001948
2527.44	0.00201
2537.09	0.002047
2546.73	0.001871
2556.38	0.00178
2566.03	0.001938
2575.67	0.002196
2585.32	0.00239
2594.96	0.00238
2604.61	0.002143
2614.26	0.001985
2623.9	0.001885
2633.55	0.002018
2643.2	0.002136
2652.84	0.001986
2662.49	0.002223
2672.14	0.00224
2681.78	0.001909
2691.43	0.00172
2701.08	0.0016
2710.72	0.00152
2720.37	0.00143
2730.02	0.00135
2739.66	0.00141
2749.31	0.00129
2758.96	0.00118
2768.6	0.00107
2778.25	0.00103
2787.9	0.00097
2797.54	0.00085
2807.19	0.00077
2816.84	0.00097
2826.48	0.00091
2836.13	0.00114
2845.77	0.00138
2855.42	0.00162
2865.07	0.002473
2874.71	0.0027845
2884.36	0.002221
2894.01	0.00153
2903.65	0.00111
2913.3	0.00081
2922.95	0.00073
2932.59	0.00075
2942.24	0.00152
2951.89	0.002505
2961.53	0.00399
2971.18	0.00849
2980.83	0.01603
2990.47	0.02005
3000.12	0.01248
3009.77	0.00726
3019.41	0.00716
3029.06	0.01216
3038.71	0.02234
3048.35	0.02912
3058	0.03085
3067.64	0.03292
3077.29	0.04008
3086.94	0.03881
3096.58	0.02579
3106.23	0.01251
3115.88	0.00543
3125.52	0.0027605
3135.17	0.00127
3144.82	0.00075
3154.46	0.00074
3164.11	0.00094
3173.76	0.00093
3183.4	0.00057
3193.05	0.00038
3202.7	0.00043
3212.34	0.00021
3221.99	0.00018
3231.64	0.00026
3241.28	8e-05
3250.93	0.00019
3260.58	0.00014
3270.22	0.00012
3279.87	0.00034
3289.52	0.00014
3299.16	0.00041
3308.81	0.00034
3318.45	0.00053
3328.1	0.00046
3337.75	0.00047
3347.39	0.00058
3357.04	0.00049
3366.69	0.00067
3376.33	0.00056
3385.98	0.00065
3395.63	0.00084
3405.27	0.00058
3414.92	0.00081
3424.57	0.00064
3434.21	0.00097
3443.86	0.00072
3453.51	0.00098
3463.15	0.00104
3472.8	0.00088
3482.45	0.00114
3492.09	0.00131
3501.74	0.00115
3511.39	0.00121
3521.03	0.00125
3530.68	0.00122
3540.33	0.00136
3549.97	0.00118
3559.62	0.00147
3569.26	0.00146
3578.91	0.00172
3588.56	0.00168
3598.2	0.001905
3607.85	0.001968
3617.5	0.002321
3627.14	0.001957
3636.79	0.001931
3646.44	0.0018
3656.08	0.001909
3665.73	0.001934
3675.38	0.001852
3685.02	0.00168
3694.67	0.00167
3704.32	0.00156
3713.96	0.00171
3723.61	0.00161
3733.26	0.00177
3742.9	0.00166
3752.55	0.00177
3762.2	0.00166
3771.84	0.00175
3781.49	0.0018
3791.13	0.00182
3800.78	0.001885
3810.43	0.002001
3820.07	0.001938
3829.72	0.001965
3839.37	0.00197
3849.01	0.002056
3858.66	0.002429
3868.31	0.002499
3877.95	0.002386
3887.6	0.002651
3897.25	0.002645
3906.89	0.0030853
3916.54	0.003009
3926.19	0.00284249
3935.83	0.00261
3945.48	0.002289
3955.13	0.00205
3964.77	0.00178
3974.42	0.00174
3984.07	0.00148
3993.71	0.00175
