Infrared Spectrum: BENZALDEHYDE, 2-FLUORO-
Formula: C7 H5 F O
CAS: 446-52-6
State: SOLUTION (2% IN CCl4 FOR 3800-1333, 2% IN CS2 FOR 1333-400 CM^-^1)
Class: COBLENTZ III
Instrument: DOW KBr FOREPRISM-GRATING
Instrument parameters: BLAZED AT 3.5, 12.0, 20.0 MICRON, CHANGED AT 5.0, 7.5, 14.9 MICRON
Sampling: TRANSMISSION
Path length: 0.011, 0.010 CM
Resolution: 4
Origin: DOW CHEMICAL COMPANY
1/CM	TRANSMITTANCE
380.035	0.168
388.792	0.177
397.548	0.248
406.305	0.512
415.061	0.756
423.818	0.812
432.574	0.836
441.331	0.806
450.087	0.863
458.844	0.882
467.601	0.889
476.357	0.896
485.114	0.897
493.87	0.897
502.627	0.863
511.383	0.881
520.14	0.903
528.896	0.911
537.653	0.893
546.41	0.915
555.166	0.935
563.923	0.942
572.679	0.942
581.436	0.943
590.192	0.943
598.949	0.946
607.706	0.942
616.462	0.916
625.219	0.863
633.975	0.849
642.732	0.908
651.488	0.907
660.245	0.938
669.001	0.964
677.758	0.964
686.515	0.978
695.271	0.986
704.028	0.986
712.784	0.997
721.541	1.004
730.297	1.006
739.054	0.991
747.81	0.953
756.567	0.706
765.324	0.423
774.08	0.954
782.837	0.989
791.593	0.976
800.35	0.789
809.106	1.006
817.863	1.027
826.619	1.023
835.376	0.965
844.133	0.577
852.889	0.862
861.646	0.874
870.402	0.928
879.159	0.968
887.915	1.017
896.672	1.049
905.428	1.061
914.185	1.068
922.942	1.064
931.698	1.06
940.455	1.049
949.211	1.013
957.968	1.047
966.724	1.047
975.481	1.043
984.238	1.035
992.994	1.028
1001.75	1.013
1010.51	1.012
1019.26	1
1028.02	0.986
1036.78	0.997
1045.53	0.99
1054.29	0.991
1063.05	0.984
1071.8	0.978
1080.56	0.969
1089.32	0.935
1098.07	0.81
1106.83	0.934
1115.59	0.941
1124.34	0.954
1133.1	0.953
1141.86	0.941
1150.61	0.796
1159.37	0.946
1168.13	0.957
1176.88	0.93
1185.64	0.766
1194.39	0.859
1203.15	0.879
1211.91	0.918
1220.66	0.766
1229.42	0.733
1238.18	0.878
1246.93	0.941
1255.69	0.942
1264.45	0.878
1273.2	0.321
1281.96	0.853
1290.72	0.918
1299.47	0.918
1308.23	0.868
1316.99	0.959
1325.74	0.972
1334.5	0.986
1343.26	0.983
1352.01	0.976
1360.77	0.974
1369.53	0.993
1378.28	0.993
1387.04	0.954
1395.8	0.887
1404.55	0.75
1413.31	0.952
1422.07	0.952
1430.82	0.948
1439.58	0.943
1448.34	0.927
1457.09	0.849
1465.85	0.775
1474.6	0.857
1483.36	0.4641
1492.12	0.81
1500.87	0.84
1509.63	0.78
1518.39	0.758
1527.14	0.709
1535.9	0.631
1544.66	0.527
1553.41	0.51
1562.17	0.575
1570.93	0.644
1579.68	0.646
1588.44	0.479
1597.2	0.744
1605.95	0.759
1614.71	0.256
1623.47	0.837
1632.22	0.946
1640.98	0.949
1649.74	0.968
1658.49	0.965
1667.25	0.961
1676.01	0.938
1684.76	0.775
1693.52	0.662
1702.28	0.057
1711.03	0.628
1719.79	0.793
1728.54	0.877
1737.3	0.939
1746.06	0.956
1754.81	0.971
1763.57	0.983
1772.33	0.993
1781.08	0.991
1789.84	0.989
1798.6	0.991
1807.35	0.979
1816.11	0.987
1824.87	0.993
1833.62	0.997
1842.38	0.991
1851.14	1
1859.89	0.998
1868.65	0.997
1877.41	1.001
1886.16	1.001
1894.92	1.001
1903.68	0.998
1912.43	1.002
1921.19	1.002
1929.95	0.995
1938.7	0.994
1947.46	1.002
1956.22	1.001
1964.97	0.994
1973.73	0.998
1982.49	0.995
1991.24	0.987
2000	0.975
2008.75	0.971
2017.51	0.9669
2026.27	0.963
2035.02	0.9599
2043.78	0.957
2052.54	0.9558
2061.29	0.9529
2070.05	0.93
2078.81	0.957
2087.56	0.959
2096.32	0.961
2105.08	0.9602
2113.83	0.96
2122.59	0.961
2131.35	0.9614
2140.1	0.963
2148.86	0.963
2157.62	0.963
2166.37	0.963
2175.13	0.964
2183.89	0.963
2192.64	0.9637
2201.4	0.9616
2210.16	0.963
2218.91	0.961
2227.67	0.961
2236.43	0.961
2245.18	0.9583
2253.94	0.954
2262.69	0.9526
2271.45	0.9472
2280.21	0.9416
2288.96	0.9376
2297.72	0.938
2306.48	0.938
2315.23	0.939
2323.99	0.94
2332.75	0.9425
2341.5	0.948
2350.26	0.95
2359.02	0.952
2367.77	0.953
2376.53	0.954
2385.29	0.9587
2394.04	0.961
2402.8	0.96
2411.56	0.956
2420.31	0.9596
2429.07	0.961
2437.83	0.964
2446.58	0.964
2455.34	0.961
2464.1	0.9647
2472.85	0.9664
2481.61	0.965
2490.37	0.965
2499.12	0.964
2507.88	0.967
2516.64	0.967
2525.39	0.965
2534.15	0.964
2542.9	0.964
2551.66	0.9648
2560.42	0.964
2569.17	0.964
2577.93	0.963
2586.69	0.964
2595.44	0.963
2604.2	0.9639
2612.96	0.9632
2621.71	0.964
2630.47	0.963
2639.23	0.964
2647.98	0.964
2656.74	0.963
2665.5	0.964
2674.25	0.964
2683.01	0.964
2691.77	0.96
2700.52	0.959
2709.28	0.96
2718.04	0.956
2726.79	0.9518
2735.55	0.956
2744.31	0.9496
2753.06	0.9171
2761.82	0.8935
2770.58	0.9379
2779.33	0.9535
2788.09	0.959
2796.85	0.96
2805.6	0.959
2814.36	0.9538
2823.11	0.9498
2831.87	0.944
2840.63	0.9312
2849.38	0.8945
2858.14	0.8077
2866.9	0.8375
2875.65	0.9009
2884.41	0.9222
2893.17	0.95
2901.92	0.961
2910.68	0.9697
2919.44	0.9703
2928.19	0.968
2936.95	0.969
2945.71	0.9698
2954.46	0.972
2963.22	0.974
2971.98	0.974
2980.73	0.975
2989.49	0.976
2998.25	0.9755
3007	0.974
3015.76	0.9715
3024.52	0.9685
3033.27	0.968
3042.03	0.9634
3050.79	0.96
3059.54	0.9662
3068.3	0.9658
3077.05	0.9594
3085.81	0.9524
3094.57	0.9629
3103.32	0.9773
3112.08	0.9827
3120.84	0.9867
3129.59	0.989
3138.35	0.99
3147.11	0.991
3155.86	0.99
3164.62	0.9893
3173.38	0.9908
3182.13	0.9938
3190.89	0.9938
3199.65	0.9942
3208.4	0.994
3217.16	0.995
3225.92	0.993
3234.67	0.993
3243.43	0.994
3252.19	0.995
3260.94	0.995
3269.7	0.997
3278.46	0.997
3287.21	0.997
3295.97	0.9999
3304.73	1.001
3313.48	1.001
3322.24	1.001
3331	1.001
3339.75	1
3348.51	1.001
3357.26	1
3366.02	0.998
3374.78	0.99
3383.53	0.9901
3392.29	0.997
3401.05	1.001
3409.8	1.002
3418.56	1.004
3427.32	1.004
3436.07	1.0037
3444.83	1.002
3453.59	1.001
3462.34	1.0008
3471.1	1
3479.86	1.0002
3488.61	0.9995
3497.37	0.997
3506.13	0.995
3514.88	0.994
3523.64	0.994
3532.4	0.9924
3541.15	0.991
3549.91	0.994
3558.67	0.9947
3567.42	0.993
3576.18	0.995
3584.94	0.997
3593.69	0.997
3602.45	0.995
3611.2	0.993
3619.96	0.991
3628.72	0.991
3637.47	0.991
3646.23	0.991
3654.99	0.993
3663.74	0.993
3672.5	0.991
3681.26	0.992
3690.01	0.993
3698.77	0.991
3707.53	0.99
3716.28	0.989
3725.04	0.989
3733.8	0.99
3742.55	0.9878
3751.31	0.989
3760.07	0.99
3768.82	0.99
3777.58	0.99
3786.34	0.991
