Infrared Spectrum: 2-Fluorobenzhydrazide
Formula: C 7 H 7 F N 2 O
CAS: 446-24-2
State: gas
Origin: EPA-IR VAPOR PHASE LIBRARY
1/CM	ABSORBANCE
549.8	0.0101167
559.445	0.0077867
569.09	0.0050867
578.734	0.0040267
588.379	0.0035167
598.024	0.0035067
607.669	0.0035667
617.313	0.0037467
626.958	0.0036067
636.603	0.0036667
646.248	0.0059267
655.893	0.0076167
665.537	0.0062067
675.182	0.0055867
684.827	0.0060667
694.472	0.0052267
704.116	0.0039067
713.761	0.0033067
723.406	0.0035267
733.051	0.0069867
742.695	0.0205667
752.34	0.0442867
761.985	0.0310967
771.63	0.0165967
781.275	0.0091967
790.919	0.0070067
800.564	0.0080067
810.209	0.0098467
819.854	0.0079867
829.498	0.0042267
839.143	0.0034967
848.788	0.0036267
858.433	0.0041667
868.078	0.0045667
877.722	0.0052667
887.367	0.0055167
897.012	0.0072167
906.657	0.0108567
916.301	0.0190667
925.946	0.0343367
935.591	0.0465867
945.236	0.0375467
954.88	0.0183067
964.525	0.0090567
974.17	0.0058067
983.815	0.0039067
993.46	0.0033267
1003.1	0.0030467
1012.75	0.0031067
1022.39	0.0038667
1032.04	0.0041167
1041.68	0.0029967
1051.33	0.0022467
1060.97	0.0027067
1070.62	0.0038167
1080.26	0.0071567
1089.91	0.0109367
1099.55	0.0108667
1109.2	0.0062767
1118.84	0.0035567
1128.49	0.0029767
1138.13	0.0027667
1147.78	0.0047167
1157.42	0.0043767
1167.07	0.0038067
1176.71	0.0041567
1186.36	0.0047667
1196	0.0089667
1205.64	0.0183167
1215.29	0.0255167
1224.93	0.0233367
1234.58	0.0152967
1244.22	0.0116667
1253.87	0.0104467
1263.51	0.0087667
1273.16	0.0118567
1282.8	0.0261267
1292.45	0.0524367
1302.09	0.0530367
1311.74	0.0242867
1321.38	0.0120967
1331.03	0.0072967
1340.67	0.0054167
1350.32	0.0046867
1359.96	0.0042467
1369.61	0.0037367
1379.25	0.0036067
1388.9	0.0041867
1398.54	0.0050467
1408.18	0.0063067
1417.83	0.0085667
1427.47	0.0142067
1437.12	0.0261567
1446.76	0.0414167
1456.41	0.0552767
1466.05	0.0618367
1475.7	0.0641467
1485.34	0.0597967
1494.99	0.0451067
1504.63	0.0345867
1514.28	0.0267167
1523.92	0.0192367
1533.57	0.0118367
1543.21	0.0079667
1552.86	0.0067267
1562.5	0.0070767
1572.15	0.0086167
1581.79	0.0098767
1591.44	0.0115267
1601.08	0.0180367
1610.73	0.0308167
1620.37	0.0353067
1630.01	0.0317367
1639.66	0.0268967
1649.3	0.0200167
1658.95	0.0170167
1668.59	0.0213167
1678.24	0.0380767
1687.88	0.0806867
1697.53	0.0928167
1707.17	0.0614967
1716.82	0.0298267
1726.46	0.0213567
1736.11	0.0147567
1745.75	0.0077067
1755.4	0.0041467
1765.04	0.0028967
1774.69	0.0022967
1784.33	0.0020667
1793.98	0.0021767
1803.62	0.0024467
1813.27	0.0025867
1822.91	0.0022367
1832.55	0.0018567
1842.2	0.0017167
1851.84	0.0013167
1861.49	0.0010534
1871.13	0.0010011
1880.78	0.0008779
1890.42	0.0010199
1900.07	0.0012967
1909.71	0.0014367
1919.36	0.0016067
1929	0.0018767
1938.65	0.0015867
1948.29	0.0013267
1957.94	0.0011467
1967.58	0.0007879
1977.23	0.0006282
1986.87	0.0005219
1996.52	0.0005764
2006.16	0.0005947
2015.81	0.0006652
2025.45	0.0007706
2035.1	0.0006442
2044.74	0.0004711
2054.38	0.0004581
2064.03	0.0004153
2073.67	0.0003886
2083.32	0.000352
2092.96	0.0003424
2102.61	0.0002994
2112.25	0.0003078
2121.9	0.0002782
2131.54	0.0001937
2141.19	0.0002785
2150.83	0.0002616
2160.48	0.0002119
2170.12	0.0002848
2179.77	0.0002803
2189.41	0.0001963
2199.06	0.0002768
2208.7	0.0003511
2218.35	0.0002712
2227.99	0.00015679
2237.64	0.0002519
2247.28	0.0003386
2256.92	0.0004472
2266.57	0.0004307
2276.21	0.0004454
2285.86	0.0004361
2295.5	0.0003767
2305.15	0.0004372
2314.79	0.0004428
2324.44	0.0004882
2334.08	0.0004857
2343.73	0.0003829
2353.37	0.000349
2363.02	0.0003156
2372.66	0.0003402
2382.31	0.0004813
2391.95	0.0005511
2401.6	0.0003949
2411.24	0.0004344
2420.89	0.0004817
2430.53	0.0005356
2440.18	0.0004659
2449.82	0.0003682
2459.47	0.0002478
2469.11	0.000295
2478.75	0.0001777
2488.4	0.0002785
2498.04	0.000341
2507.69	0.0002965
2517.33	0.0003185
2526.98	0.0003262
2536.62	0.0003454
2546.27	0.0003935
2555.91	0.0003773
2565.56	0.0003763
2575.2	0.0005363
2584.85	0.000529
2594.49	0.0004341
2604.14	0.000309
2613.78	0.00017642
2623.43	0.000281
2633.07	0.00013582
2642.72	8.99e-05
2652.36	0.00016893
2662.01	0.0002322
2671.65	0.0002162
2681.29	0.00016111
2690.94	0.0001779
2700.58	0.0002518
2710.23	0.000281
2719.87	0.0003055
2729.52	0.0003184
2739.16	0.0003906
2748.81	0.0005137
2758.45	0.00045
2768.1	0.0003994
2777.74	0.0005122
2787.39	0.0004388
2797.03	0.0003609
2806.68	0.0002235
2816.32	0.0002865
2825.97	0.0003154
2835.61	0.0003074
2845.26	0.00016432
2854.9	0.0002552
2864.55	0.0002514
2874.19	0.0002572
2883.84	0.0002497
2893.48	0.0002992
2903.12	0.0003867
2912.77	0.0003252
2922.41	0.0003794
2932.06	0.0004455
2941.7	0.000396
2951.35	0.0003981
2960.99	0.0002607
2970.64	0.0002522
2980.28	0.0002116
2989.93	0.0004617
2999.57	0.0006551
3009.22	0.0009054
3018.86	0.0010344
3028.51	0.0012167
3038.15	0.0018667
3047.8	0.0022967
3057.44	0.0028267
3067.09	0.0039667
3076.73	0.0066767
3086.38	0.0077167
3096.02	0.0049467
3105.67	0.0016567
3115.31	0.0008071
3124.95	0.0003777
3134.6	0.0005521
3144.24	0.0005232
3153.89	0.0005147
3163.53	0.0007403
3173.18	0.0006152
3182.82	0.0006295
3192.47	0.0010724
3202.11	0.0010867
3211.76	0.0012267
3221.4	0.0009569
3231.05	0.0006204
3240.69	0.0006388
3250.34	0.0005273
3259.98	0.0004846
3269.63	0.0003618
3279.27	0.000578
3288.92	0.0004534
3298.56	0.0006257
3308.21	0.0006302
3317.85	0.0005932
3327.49	0.0009206
3337.14	0.0011767
3346.78	0.0014567
3356.43	0.0011967
3366.07	0.0013467
3375.72	0.0013467
3385.36	0.0011667
3395.01	0.0009584
3404.65	0.0009498
3414.3	0.0012067
3423.94	0.0012767
3433.59	0.0017667
3443.23	0.0029567
3452.88	0.0044967
3462.52	0.0069567
3472.17	0.0113967
3481.81	0.0175367
3491.46	0.0203367
3501.1	0.0162667
3510.75	0.0085367
3520.39	0.0038767
3530.04	0.0021667
3539.68	0.0014767
3549.32	0.0011167
3558.97	0.0006849
3568.61	0.0006306
3578.26	0.0004919
3587.9	0.000444
3597.55	0.0004451
3607.19	0.0006728
3616.84	0.0005078
3626.48	0.0005305
3636.13	0.0005249
3645.77	0.000558
3655.42	0.000513
3665.06	0.0005226
3674.71	0.0004365
3684.35	0.0004322
3694	0.0003457
3703.64	0.000468
3713.29	0.0003786
3722.93	0.0001859
3732.58	0.0002392
3742.22	0.0002632
3751.86	0.0002336
3761.51	0.0003026
3771.15	0.0002936
3780.8	0.0003029
3790.44	0.0001944
3800.09	0.000389
3809.73	0.0003026
3819.38	0.00017525
3829.02	0.0003844
3838.67	0.0006305
3848.31	0.0004529
3857.96	0.0003615
3867.6	0.0003007
3877.25	0.0002532
3886.89	0.0004167
3896.54	0.00015559
3906.18	0.0002291
3915.83	0.0003427
3925.47	0.0002315
3935.12	0.00042
3944.76	0.0004259
3954.41	0.0002966
3964.05	0.000244
3973.69	0.0002325
3983.34	0.0003109
3992.98	0.0002349
