Infrared Spectrum: 2,4-Difluoronitrobenzene
Formula: C 6 H 3 F 2 N O 2
CAS: 446-35-5
State: gas
Origin: EPA-IR VAPOR PHASE LIBRARY
1/CM	ABSORBANCE
549.8	0.00271
559.445	0.00338
569.09	0.00432
578.735	0.00556
588.38	0.00635
598.025	0.01495
607.67	0.05613
617.315	0.0613
626.96	0.01409
636.605	0.00641
646.251	0.00413
655.896	0.00377
665.541	0.00498
675.186	0.00655
684.831	0.00506
694.476	0.00319
704.121	0.0019589
713.766	0.00253
723.411	0.00537
733.056	0.01236
742.701	0.01763
752.346	0.01352
761.991	0.00774
771.636	0.00334
781.281	0.00281
790.926	0.00294
800.571	0.00412
810.216	0.00929
819.861	0.01854
829.507	0.03353
839.152	0.05053
848.797	0.05551
858.442	0.07902
868.087	0.03783
877.732	0.0129
887.377	0.00421
897.022	0.00259
906.667	0.0023196
916.312	0.00298
925.957	0.00314
935.602	0.00354
945.247	0.00593
954.892	0.01236
964.537	0.04359
974.182	0.06757
983.827	0.03761
993.472	0.00604
1003.12	0.00291
1012.76	0.00236
1022.41	0.0023513
1032.05	0.00294
1041.7	0.0033
1051.34	0.00374
1060.99	0.00455
1070.63	0.00936
1080.28	0.02975
1089.92	0.0448
1099.57	0.02887
1109.21	0.00877
1118.86	0.0104
1128.5	0.02569
1138.15	0.03672
1147.79	0.06779
1157.44	0.08234
1167.08	0.03437
1176.73	0.00847
1186.37	0.00558
1196.02	0.00492
1205.66	0.00407
1215.31	0.00428
1224.95	0.00625
1234.6	0.00958
1244.24	0.01144
1253.89	0.01453
1263.53	0.02995
1273.18	0.08165
1282.82	0.12935
1292.47	0.09764
1302.11	0.04323
1311.76	0.0274
1321.4	0.02678
1331.05	0.05513
1340.69	0.11389
1350.34	0.16084
1359.98	0.12213
1369.63	0.04002
1379.27	0.01236
1388.92	0.0093
1398.56	0.01009
1408.21	0.01071
1417.85	0.01264
1427.5	0.01829
1437.14	0.02194
1446.79	0.02186
1456.43	0.02098
1466.08	0.02822
1475.73	0.04052
1485.37	0.06705
1495.02	0.10752
1504.66	0.09088
1514.31	0.0537
1523.95	0.06266
1533.6	0.0913
1543.24	0.12892
1552.89	0.14391
1562.53	0.12509
1572.18	0.10296
1581.82	0.09495
1591.47	0.11454
1601.11	0.17598
1610.76	0.22102
1620.4	0.16903
1630.05	0.12207
1639.69	0.06902
1649.34	0.03347
1658.98	0.01762
1668.63	0.01274
1678.27	0.00973
1687.92	0.00683
1697.56	0.00546
1707.21	0.00552
1716.85	0.0047
1726.5	0.00324
1736.14	0.00284
1745.79	0.00326
1755.43	0.00357
1765.08	0.00359
1774.72	0.00312
1784.37	0.0021878
1794.01	0.0019585
1803.66	0.0018399
1813.3	0.0019694
1822.95	0.0020286
1832.59	0.0018657
1842.24	0.0015775
1851.88	0.0015912
1861.53	0.0018862
1871.17	0.00258
1880.82	0.00349
1890.46	0.00423
1900.11	0.00342
1909.75	0.0020617
1919.4	0.0015193
1929.04	0.00140782
1938.69	0.0014652
1948.33	0.0017641
1957.98	0.0015998
1967.62	0.00142032
1977.27	0.00137691
1986.91	0.0012756
1996.56	0.001293
2006.2	0.0014977
2015.85	0.0016372
2025.49	0.0016053
2035.14	0.0014863
2044.78	0.00138823
2054.43	0.0015415
2064.07	0.001534
2073.72	0.00142488
2083.36	0.00122
2093.01	0.0012698
2102.65	0.00141898
2112.3	0.0015462
2121.94	0.0015248
2131.59	0.00137357
2141.23	0.0013327
2150.88	0.001136
2160.52	0.001102
2170.17	0.001154
2179.81	0.001187
2189.46	0.001003
2199.1	0.001012
2208.75	0.001096
2218.39	0.00142124
2228.04	0.0015328
2237.68	0.0015606
2247.33	0.0015376
2256.97	0.0016057
2266.62	0.0016455
2276.26	0.0015436
2285.91	0.00145757
2295.55	0.0012832
2305.2	0.001225
2314.84	0.0013009
2324.49	0.00145563
2334.13	0.0016902
2343.78	0.0020611
2353.42	0.0020976
2363.07	0.0021108
2372.72	0.0022894
2382.36	0.0022405
2392.01	0.00237
2401.65	0.0023302
2411.3	0.0022154
2420.94	0.0022326
2430.59	0.00264
2440.23	0.00289
2449.88	0.00242
2459.52	0.0020029
2469.17	0.0019121
2478.81	0.0017173
2488.46	0.0015453
2498.1	0.0013057
2507.75	0.00145524
2517.39	0.0014994
2527.04	0.0015292
2536.68	0.0012863
2546.33	0.0013029
2555.97	0.001255
2565.62	0.0014943
2575.26	0.0018312
2584.91	0.0022047
2594.55	0.00242
2604.2	0.0019426
2613.84	0.0016259
2623.49	0.00145371
2633.13	0.0016242
2642.78	0.0016513
2652.42	0.0015967
2662.07	0.0015969
2671.71	0.0016723
2681.36	0.0021392
2691	0.00257
2700.65	0.00258
2710.29	0.002338
2719.94	0.0018684
2729.58	0.001689
2739.23	0.0016754
2748.87	0.0017109
2758.52	0.0016867
2768.16	0.0017209
2777.81	0.0016053
2787.45	0.0016273
2797.1	0.0013429
2806.74	0.001201
2816.39	0.001113
2826.03	0.001157
2835.68	0.001248
2845.32	0.0015725
2854.97	0.0021261
2864.61	0.00271
2874.26	0.00314
2883.9	0.00351
2893.55	0.00347
2903.19	0.00337
2912.84	0.0029
2922.48	0.0022113
2932.13	0.0015874
2941.77	0.0012791
2951.42	0.001053
2961.06	0.001169
2970.71	0.000887
2980.35	0.00075
2990	0.00058
2999.64	0.0005
3009.29	0.00035
3018.93	0.000399
3028.58	0.000395
3038.22	0.00034
3047.87	0.000649
3057.51	0.001204
3067.16	0.001878
3076.8	0.0021792
3086.45	0.00279
3096.09	0.00346
3105.74	0.00305
3115.38	0.0022588
3125.03	0.0018338
3134.67	0.001211
3144.32	0.000981
3153.96	0.00035
3163.61	0.00027
3173.25	0.00026
3182.9	0.0003
3192.54	0.000446
3202.19	0.00027
3211.83	0.000464
3221.48	0.000612
3231.12	0.000507
3240.77	0.000651
3250.41	0.000636
3260.06	0.000544
3269.7	0.00028
3279.35	0.000449
3289	0.0001
3298.64	0.000424
3308.29	0.00035
3317.93	0.00027
3327.58	6e-05
3337.22	0.00032
3346.87	0.00028
3356.51	0.00046
3366.16	0.000468
3375.8	0.000368
3385.45	0.0005
3395.09	0.00032
3404.74	0.000414
3414.38	0.000368
3424.03	0.000411
3433.67	0.000381
3443.32	0.00031
3452.96	0.000465
3462.61	0.000603
3472.25	0.000498
3481.9	0.000516
3491.54	0.000529
3501.19	0.000599
3510.83	0.000599
3520.48	0.000703
3530.12	0.000673
3539.77	0.00055
3549.41	0.000764
3559.06	0.000505
3568.7	0.00057
3578.35	0.000803
3587.99	0.000723
3597.64	0.000603
3607.28	0.000618
3616.93	0.000687
3626.57	0.000695
3636.22	0.000483
3645.86	0.000746
3655.51	0.000803
3665.15	0.000748
3674.8	0.000676
3684.44	0.000758
3694.09	0.000614
3703.73	0.001005
3713.38	0.000694
3723.02	0.000852
3732.67	0.000692
3742.31	0.000616
3751.96	0.000796
3761.6	0.000689
3771.25	0.000769
3780.89	0.000717
3790.54	0.000735
3800.18	0.000903
3809.83	0.000769
3819.47	0.000976
3829.12	0.00071
3838.76	0.000927
3848.41	0.000812
3858.05	0.000701
3867.7	0.00083
3877.34	0.000746
3886.99	0.000813
3896.63	0.000674
3906.28	0.000602
3915.92	0.00061
3925.57	0.000716
3935.21	0.000753
3944.86	0.000592
3954.5	0.000647
3964.15	0.000822
3973.79	0.00029
3983.44	0.000738
3993.08	0.000898
