Infrared Spectrum: 2,4,5-Trifluorobenzoic acid
Formula: C 7 H 3 F 3 O 2
CAS: 446-17-3
State: gas
Origin: EPA-IR VAPOR PHASE LIBRARY
1/CM	ABSORBANCE
549.8	0.01291
559.445	0.01833
569.09	0.02364
578.734	0.02092
588.379	0.02319
598.024	0.01929
607.669	0.01122
617.313	0.00908
626.958	0.00813
636.603	0.00815
646.248	0.01216
655.893	0.01189
665.537	0.00635
675.182	0.00583
684.827	0.00944
694.472	0.01775
704.116	0.02269
713.761	0.01411
723.406	0.00561
733.051	0.00718
742.695	0.0094
752.34	0.00439
761.985	0.00455
771.63	0.00834
781.275	0.01275
790.919	0.00769
800.564	0.00703
810.209	0.01026
819.854	0.01438
829.498	0.02243
839.143	0.02953
848.788	0.02869
858.433	0.01881
868.078	0.01003
877.722	0.00718
887.367	0.01042
897.012	0.01489
906.657	0.01069
916.301	0.00528
925.946	0.00276
935.591	0.00278
945.236	0.00263
954.88	0.0022581
964.525	0.0018885
974.17	0.0025
983.815	0.0020423
993.46	0.0016416
1003.1	0.00296
1012.75	0.00379
1022.39	0.00549
1032.04	0.00931
1041.68	0.01253
1051.33	0.01248
1060.97	0.00941
1070.62	0.00772
1080.26	0.00647
1089.91	0.00792
1099.55	0.00939
1109.2	0.01057
1118.84	0.01971
1128.49	0.04476
1138.13	0.07811
1147.78	0.1064
1157.42	0.10098
1167.07	0.06036
1176.71	0.0313
1186.36	0.02389
1196	0.03032
1205.64	0.04197
1215.29	0.04586
1224.93	0.02982
1234.58	0.01117
1244.22	0.00811
1253.87	0.0077
1263.51	0.00944
1273.16	0.01403
1282.8	0.02
1292.45	0.01699
1302.09	0.01288
1311.74	0.01331
1321.38	0.01945
1331.03	0.03509
1340.67	0.04989
1350.32	0.04214
1359.96	0.0389
1369.61	0.03644
1379.25	0.01703
1388.9	0.00807
1398.54	0.00771
1408.18	0.01075
1417.83	0.02038
1427.47	0.0394
1437.12	0.05833
1446.76	0.04744
1456.41	0.01688
1466.05	0.00831
1475.7	0.00818
1485.34	0.01116
1494.99	0.02735
1504.63	0.05829
1514.28	0.09389
1523.92	0.09561
1533.57	0.05134
1543.21	0.01525
1552.86	0.0072
1562.5	0.00697
1572.15	0.00622
1581.79	0.0063
1591.44	0.00848
1601.08	0.0186
1610.73	0.03312
1620.37	0.03816
1630.01	0.02922
1639.66	0.01519
1649.3	0.00712
1658.95	0.00494
1668.59	0.0043
1678.24	0.00512
1687.88	0.00531
1697.53	0.00612
1707.17	0.00711
1716.82	0.0094
1726.46	0.01389
1736.11	0.02208
1745.75	0.05049
1755.4	0.09028
1765.04	0.09654
1774.69	0.08736
1784.33	0.06393
1793.98	0.0269
1803.62	0.01757
1813.27	0.01125
1822.91	0.00619
1832.55	0.00388
1842.2	0.00297
1851.84	0.00253
1861.49	0.0023807
1871.13	0.0024752
1880.78	0.0023143
1890.42	0.0021842
1900.07	0.0019173
1909.71	0.0016617
1919.36	0.0016894
1929	0.0017888
1938.65	0.0018773
1948.29	0.0016055
1957.94	0.0016252
1967.58	0.001307
1977.23	0.0016604
1986.87	0.0018899
1996.52	0.001374
2006.16	0.001423
2015.81	0.0014762
2025.45	0.001359
2035.1	0.001332
2044.74	0.001146
2054.38	0.001211
2064.03	0.001251
2073.67	0.00153979
2083.32	0.0016584
2092.96	0.0016953
2102.61	0.001232
2112.25	0.001357
2121.9	0.00152255
2131.54	0.001369
2141.19	0.0014602
2150.83	0.0014026
2160.48	0.0014566
2170.12	0.0016433
2179.77	0.0014207
2189.41	0.0014251
2199.06	0.001358
2208.7	0.00158508
2218.35	0.0014238
2227.99	0.00150927
2237.64	0.001242
2247.28	0.001345
2256.92	0.0014513
2266.57	0.0016491
2276.21	0.0014261
2285.86	0.001291
2295.5	0.0014571
2305.15	0.001353
2314.79	0.0014567
2324.44	0.0019561
2334.08	0.0016835
2343.73	0.0018354
2353.37	0.0022005
2363.02	0.0019744
2372.66	0.0014603
2382.31	0.00158229
2391.95	0.001272
2401.6	0.0015346
2411.24	0.0014369
2420.89	0.001697
2430.53	0.0014164
2440.18	0.00152202
2449.82	0.0014744
2459.47	0.0018497
2469.11	0.0018163
2478.75	0.0017239
2488.4	0.0017264
2498.04	0.00155604
2507.69	0.00150044
2517.33	0.001111
2526.98	0.0014805
2536.62	0.0014108
2546.27	0.00158043
2555.91	0.0017756
2565.56	0.001602
2575.2	0.0017881
2584.85	0.001859
2594.49	0.00131
2604.14	0.00150976
2613.78	0.001328
2623.43	0.0016242
2633.07	0.001381
2642.72	0.00151584
2652.36	0.0018137
2662.01	0.0016718
2671.65	0.001154
2681.29	0.001237
2690.94	0.001331
2700.58	0.000994
2710.23	0.001065
2719.87	0.001105
2729.52	0.001258
2739.16	0.000891
2748.81	0.001281
2758.45	0.001002
2768.1	0.0014523
2777.74	0.001128
2787.39	0.001295
2797.03	0.001172
2806.68	0.001106
2816.32	0.001043
2825.97	0.0014076
2835.61	0.00153123
2845.26	0.001039
2854.9	0.001094
2864.55	0.00124
2874.19	0.001035
2883.84	0.001136
2893.48	0.001057
2903.12	0.00129
2912.77	0.000914
2922.41	0.000989
2932.06	0.00151595
2941.7	0.001196
2951.35	0.000923
2960.99	0.001094
2970.64	0.000962
2980.28	0.000717
2989.93	0.001088
2999.57	0.000752
3009.22	0.0016368
3018.86	0.001387
3028.51	0.001158
3038.15	0.001348
3047.8	0.0017352
3057.44	0.001244
3067.09	0.001687
3076.73	0.0039
3086.38	0.00368
3096.02	0.0024578
3105.67	0.001128
3115.31	0.001115
3124.95	0.001014
3134.6	0.001176
3144.24	0.001076
3153.89	0.001027
3163.53	0.001059
3173.18	0.00138
3182.82	0.00085
3192.47	0.0016057
3202.11	0.001229
3211.76	0.001161
3221.4	0.0011
3231.05	0.000652
3240.69	0.0017391
3250.34	0.001188
3259.98	0
3269.63	0.00045
3279.27	0.000765
3288.92	0.001035
3298.56	0.000917
3308.21	0.000891
3317.85	0.001083
3327.49	0.000883
3337.14	0.000592
3346.78	0.000581
3356.43	0.0014488
3366.07	0.00095
3375.72	0.000636
3385.36	0.000984
3395.01	0.00107
3404.65	0.000869
3414.3	0.0017187
3423.94	0.00152739
3433.59	0.0016475
3443.23	0.000802
3452.88	0.001195
3462.52	0.001119
3472.17	0.000887
3481.81	0.001475
3491.46	0.0019307
3501.1	0.0021054
3510.75	0.0017017
3520.39	0.00156844
3530.04	0.0017691
3539.68	0.00344
3549.32	0.00284
3558.97	0.00903
3568.61	0.03947
3578.26	0.04876
3587.9	0.01982
3597.55	0.00677
3607.19	0.00453
3616.84	0.00432
3626.48	0.0021533
3636.13	0.0018417
3645.77	0.00119
3655.42	0.001285
3665.06	0.001323
3674.71	0.001272
3684.35	0.001047
3694	0.000837
3703.64	0.000993
3713.29	0.00023
3722.93	0.000877
3732.58	0.000925
3742.22	0.001088
3751.86	0.001113
3761.51	0.001002
3771.15	0.000996
3780.8	0.000924
3790.44	0.0006
3800.09	0.001066
3809.73	0.000968
3819.38	0.00139
3829.02	0.001109
3838.67	0.000789
3848.31	0.000641
3857.96	0.000709
3867.6	0.001317
3877.25	0.0014803
3886.89	0.000695
3896.54	0.0005
3906.18	0.00063
3915.83	0.001117
3925.47	0.00089
3935.12	0.000761
3944.76	0.001076
3954.41	0.001365
3964.05	0.001278
3973.69	0.00152202
3983.34	0.001131
3992.98	0.000576
