Infrared Spectrum: 4-Chloro-2-fluorobenzoic acid
Formula: C 7 H 4 Cl F O 2
CAS: 446-30-0
State: gas
Origin: EPA-IR VAPOR PHASE LIBRARY
1/CM	ABSORBANCE
549.8	0.023635
559.445	0.019055
569.09	0.012215
578.734	0.009335
588.379	0.007485
598.024	0.006235
607.669	0.004755
617.313	0.003255
626.958	0.002395
636.603	0.002275
646.248	0.001925
655.893	0.002055
665.537	0.003995
675.182	0.007315
684.827	0.007305
694.472	0.006775
704.116	0.003945
713.761	0.002025
723.406	0.001955
733.051	0.005605
742.695	0.008385
752.34	0.004995
761.985	0.008165
771.63	0.011675
781.275	0.007465
790.919	0.003845
800.564	0.002495
810.209	0.002405
819.854	0.002755
829.498	0.004065
839.143	0.003715
848.788	0.004665
858.433	0.008295
868.078	0.007585
877.722	0.004435
887.367	0.004085
897.012	0.014875
906.657	0.032605
916.301	0.018165
925.946	0.003635
935.591	0.001915
945.236	0.001675
954.88	0.001425
964.525	0.0011722
974.17	0.001475
983.815	0.001315
993.46	0.001195
1003.1	0.001375
1012.75	0.001675
1022.39	0.002845
1032.04	0.004505
1041.68	0.007365
1051.33	0.014395
1060.97	0.018305
1070.62	0.015375
1080.26	0.020705
1089.91	0.030865
1099.55	0.035235
1109.2	0.022205
1118.84	0.022155
1128.49	0.018305
1138.13	0.012855
1147.78	0.009045
1157.42	0.008405
1167.07	0.016565
1176.71	0.029015
1186.36	0.028495
1196	0.018385
1205.64	0.012615
1215.29	0.013905
1224.93	0.016845
1234.58	0.014555
1244.22	0.009315
1253.87	0.009695
1263.51	0.007425
1273.16	0.006065
1282.8	0.007385
1292.45	0.008335
1302.09	0.008635
1311.74	0.011685
1321.38	0.016865
1331.03	0.017735
1340.67	0.014205
1350.32	0.013685
1359.96	0.011545
1369.61	0.007305
1379.25	0.005425
1388.9	0.006675
1398.54	0.012345
1408.18	0.020955
1417.83	0.025435
1427.47	0.017885
1437.12	0.008265
1446.76	0.006095
1456.41	0.006705
1466.05	0.006995
1475.7	0.009435
1485.34	0.012755
1494.99	0.009745
1504.63	0.003755
1514.28	0.001895
1523.92	0.001985
1533.57	0.002585
1543.21	0.003825
1552.86	0.005755
1562.5	0.009575
1572.15	0.014395
1581.79	0.015915
1591.44	0.017905
1601.08	0.035925
1610.73	0.047085
1620.37	0.022885
1630.01	0.005395
1639.66	0.002715
1649.3	0.002325
1658.95	0.002095
1668.59	0.001845
1678.24	0.001865
1687.88	0.002045
1697.53	0.002595
1707.17	0.003855
1716.82	0.006495
1726.46	0.009895
1736.11	0.016225
1745.75	0.036905
1755.4	0.060765
1765.04	0.065355
1774.69	0.060285
1784.33	0.036005
1793.98	0.016655
1803.62	0.010375
1813.27	0.006125
1822.91	0.003245
1832.55	0.002095
1842.2	0.001475
1851.84	0.001195
1861.49	0.0010963
1871.13	0.0009915
1880.78	0.0009803
1890.42	0.0009941
1900.07	0.001205
1909.71	0.001435
1919.36	0.001425
1929	0.001185
1938.65	0.0009468
1948.29	0.000794
1957.94	0.0006689
1967.58	0.0006414
1977.23	0.0006013
1986.87	0.0005011
1996.52	0.0005057
2006.16	0.0004493
2015.81	0.0004134
2025.45	0.0004933
2035.1	0.0005171
2044.74	0.0005003
2054.38	0.0004291
2064.03	0.0005486
2073.67	0.0006425
2083.32	0.0005164
2092.96	0.0005814
2102.61	0.0005322
2112.25	0.0005616
2121.9	0.0006489
2131.54	0.0006708
2141.19	0.0006201
2150.83	0.000578
2160.48	0.0005856
2170.12	0.00054
2179.77	0.0005381
2189.41	0.0005415
2199.06	0.0006252
2208.7	0.0004794
2218.35	0.0005307
2227.99	0.0005788
2237.64	0.0005375
2247.28	0.0005966
2256.92	0.0005879
2266.57	0.0005337
2276.21	0.0004902
2285.86	0.0005026
2295.5	0.0005502
2305.15	0.0006261
2314.79	0.0005978
2324.44	0.0006198
2334.08	0.0005687
2343.73	0.0007706
2353.37	0.0007402
2363.02	0.0005493
2372.66	0.0006107
2382.31	0.0005399
2391.95	0.0006016
2401.6	0.0004846
2411.24	0.0005221
2420.89	0.0005345
2430.53	0.0005849
2440.18	0.0005238
2449.82	0.0005818
2459.47	0.0005178
2469.11	0.0005874
2478.75	0.0005194
2488.4	0.0006081
2498.04	0.0005657
2507.69	0.000578
2517.33	0.0006121
2526.98	0.0005636
2536.62	0.0004803
2546.27	0.0005564
2555.91	0.0004666
2565.56	0.0004497
2575.2	0.0005537
2584.85	0.0004453
2594.49	0.000499
2604.14	0.000326
2613.78	0.000441
2623.43	0.0002895
2633.07	0.0003313
2642.72	0.0004382
2652.36	0.0003567
2662.01	0.0004572
2671.65	0.0003227
2681.29	0.0004981
2690.94	0.0004814
2700.58	0.0005428
2710.23	0.0005783
2719.87	0.0004879
2729.52	0.0004168
2739.16	0.0004009
2748.81	0.0003019
2758.45	0.0003225
2768.1	0.0004119
2777.74	0.0003877
2787.39	0.00019101
2797.03	0.0004003
2806.68	0.0003683
2816.32	0.0003917
2825.97	0.0003948
2835.61	0.0004973
2845.26	0.0004735
2854.9	0.0003549
2864.55	0.0003311
2874.19	0.0002753
2883.84	0.0004146
2893.48	0.0003664
2903.12	0.000317
2912.77	0.0003496
2922.41	8.87e-05
2932.06	0.0001375
2941.7	0.0003239
2951.35	0.0003827
2960.99	0.00027415
2970.64	0.0002872
2980.28	0.0004881
2989.93	0.0003704
2999.57	0.0004439
3009.22	0.0003167
3018.86	0.0004518
3028.51	0.0004825
3038.15	0.0003866
3047.8	0.0006701
3057.44	0.0004274
3067.09	0.000301
3076.73	0.0005797
3086.38	0.000696
3096.02	0.0008539
3105.67	0.0007086
3115.31	0.0005565
3124.95	0.0006144
3134.6	0.0003801
3144.24	0.0003186
3153.89	0.0004029
3163.53	0.0004563
3173.18	0.0004372
3182.82	0.0003017
3192.47	0.0003357
3202.11	0.0003134
3211.76	0.0005282
3221.4	0.0004233
3231.05	0.00022608
3240.69	0.0002913
3250.34	0.0003137
3259.98	0.0003139
3269.63	0.0003719
3279.27	0.00027259
3288.92	0.0002934
3298.56	0.00023094
3308.21	0.0003436
3317.85	0.0001522
3327.49	0.0003244
3337.14	0.0003095
3346.78	0.0003592
3356.43	0.0005146
3366.07	0.0003964
3375.72	0.0003144
3385.36	0.0004147
3395.01	0.0004234
3404.65	0.0004808
3414.3	0.0003396
3423.94	0.0004117
3433.59	0.000332
3443.23	0.0004727
3452.88	0.0003694
3462.52	0.0003357
3472.17	0.0005925
3481.81	0.0008244
3491.46	0.0009711
3501.1	0.0009259
3510.75	0.0007892
3520.39	0.0007
3530.04	0.0009783
3539.68	0.0011227
3549.32	0.001545
3558.97	0.004655
3568.61	0.025485
3578.26	0.031665
3587.9	0.011425
3597.55	0.003065
3607.19	0.003125
3616.84	0.002295
3626.48	0.0010624
3636.13	0.0006339
3645.77	0.0007775
3655.42	0.0005473
3665.06	0.0006465
3674.71	0.0002794
3684.35	0.0006027
3694	0.0004168
3703.64	0.00021317
3713.29	0.0002583
3722.93	0.00026898
3732.58	0.0003936
3742.22	0.00021865
3751.86	0.0002494
3761.51	0.00025127
3771.15	0.0003822
3780.8	0.00023465
3790.44	0.0002924
3800.09	0.0002886
3809.73	0.0001576
3819.38	0.0003011
3829.02	0.000303
3838.67	0.00019083
3848.31	0.0003089
3857.96	0.0003701
3867.6	0.00019223
3877.25	0.0001295
3886.89	0.0002849
3896.54	0.00021772
3906.18	3.6e-05
3915.83	0.0003522
3925.47	0.00020146
3935.12	0.00026444
3944.76	3.7e-05
3954.41	0.0004052
3964.05	0.0001494
3973.69	0.0003527
3983.34	0.0003394
3992.98	0.0003887
