Infrared Spectrum: Benzoyl isocyanate
Formula: C 8 H 5 N O 2
CAS: 4461-33-0
State: gas
Origin: EPA-IR VAPOR PHASE LIBRARY
1/CM	ABSORBANCE
549.8	0.001653
559.445	0.003623
569.09	0.008503
578.734	0.014353
588.379	0.017263
598.024	0.020463
607.669	0.026133
617.313	0.033033
626.958	0.028083
636.603	0.023953
646.248	0.026623
655.893	0.037593
665.537	0.068613
675.182	0.127923
684.827	0.173973
694.472	0.210143
704.116	0.182183
713.761	0.101193
723.406	0.042153
733.051	0.024463
742.695	0.018703
752.34	0.016673
761.985	0.018273
771.63	0.025383
781.275	0.035413
790.919	0.037073
800.564	0.022773
810.209	0.010983
819.854	0.007613
829.498	0.007293
839.143	0.006883
848.788	0.007003
858.433	0.008213
868.078	0.008573
877.722	0.009403
887.367	0.010503
897.012	0.012013
906.657	0.012863
916.301	0.015703
925.946	0.024823
935.591	0.048293
945.236	0.099033
954.88	0.238163
964.525	0.530453
974.17	0.520643
983.815	0.157593
993.46	0.052023
1003.1	0.036573
1012.75	0.018753
1022.39	0.014913
1032.04	0.014243
1041.68	0.009803
1051.33	0.007903
1060.97	0.008043
1070.62	0.007793
1080.26	0.007173
1089.91	0.008723
1099.55	0.007773
1109.2	0.006393
1118.84	0.008123
1128.49	0.009913
1138.13	0.011923
1147.78	0.013563
1157.42	0.017153
1167.07	0.050923
1176.71	0.112953
1186.36	0.075583
1196	0.039593
1205.64	0.111913
1215.29	0.265663
1224.93	0.351213
1234.58	0.292713
1244.22	0.241653
1253.87	0.159613
1263.51	0.064163
1273.16	0.032503
1282.8	0.026773
1292.45	0.030203
1302.09	0.049953
1311.74	0.071093
1321.38	0.059593
1331.03	0.043423
1340.67	0.042203
1350.32	0.048203
1359.96	0.057783
1369.61	0.072353
1379.25	0.117903
1388.9	0.244183
1398.54	0.386443
1408.18	0.301423
1417.83	0.137433
1427.47	0.081213
1437.12	0.061983
1446.76	0.067103
1456.41	0.060333
1466.05	0.040413
1475.7	0.034573
1485.34	0.030833
1494.99	0.022653
1504.63	0.016453
1514.28	0.014603
1523.92	0.013903
1533.57	0.015423
1543.21	0.016123
1552.86	0.015163
1562.5	0.016183
1572.15	0.022153
1581.79	0.028263
1591.44	0.038543
1601.08	0.047533
1610.73	0.027883
1620.37	0.013163
1630.01	0.012373
1639.66	0.011613
1649.3	0.010613
1658.95	0.010683
1668.59	0.012653
1678.24	0.018203
1687.88	0.026743
1697.53	0.048913
1707.17	0.132773
1716.82	0.346413
1726.46	0.454843
1736.11	0.322973
1745.75	0.140313
1755.4	0.054973
1765.04	0.037143
1774.69	0.028343
1784.33	0.017313
1793.98	0.013273
1803.62	0.013423
1813.27	0.012223
1822.91	0.007683
1832.55	0.004473
1842.2	0.003393
1851.84	0.002843
1861.49	0.002503
1871.13	0.002703
1880.78	0.003343
1890.42	0.004783
1900.07	0.006963
1909.71	0.008923
1919.36	0.009753
1929	0.008653
1938.65	0.007523
1948.29	0.007703
1957.94	0.007843
1967.58	0.008643
1977.23	0.007043
1986.87	0.004313
1996.52	0.003833
2006.16	0.003813
2015.81	0.004043
2025.45	0.004483
2035.1	0.004743
2044.74	0.005283
2054.38	0.006393
2064.03	0.008593
2073.67	0.010883
2083.32	0.011273
2092.96	0.010053
2102.61	0.009823
2112.25	0.011573
2121.9	0.015723
2131.54	0.023833
2141.19	0.039513
2150.83	0.066843
2160.48	0.107283
2170.12	0.157303
2179.77	0.189623
2189.41	0.184913
2199.06	0.183843
2208.7	0.210893
2218.35	0.285163
2227.99	0.486263
2237.64	0.997873
2247.28	1.60873
2256.92	1.63981
2266.57	0.970053
2276.21	0.402873
2285.86	0.216983
2295.5	0.153223
2305.15	0.116383
2314.79	0.109043
2324.44	0.114583
2334.08	0.100963
2343.73	0.069543
2353.37	0.046503
2363.02	0.039773
2372.66	0.030773
2382.31	0.020173
2391.95	0.015203
2401.6	0.013343
2411.24	0.011763
2420.89	0.009503
2430.53	0.007243
2440.18	0.005483
2449.82	0.004253
2459.47	0.003663
2469.11	0.003023
2478.75	0.002773
2488.4	0.002323
2498.04	0.002093
2507.69	0.001893
2517.33	0.001713
2526.98	0.001673
2536.62	0.001793
2546.27	0.001973
2555.91	0.002193
2565.56	0.002463
2575.2	0.002943
2584.85	0.003663
2594.49	0.004393
2604.14	0.003803
2613.78	0.002523
2623.43	0.001893
2633.07	0.001263
2642.72	0.001333
2652.36	0.0008625
2662.01	0.001173
2671.65	0.001323
2681.29	0.001473
2690.94	0.002113
2700.58	0.002673
2710.23	0.002563
2719.87	0.002313
2729.52	0.002183
2739.16	0.002323
2748.81	0.001983
2758.45	0.001983
2768.1	0.002223
2777.74	0.001883
2787.39	0.001943
2797.03	0.001993
2806.68	0.001993
2816.32	0.002463
2825.97	0.002273
2835.61	0.002113
2845.26	0.001933
2854.9	0.001953
2864.55	0.001443
2874.19	0.001873
2883.84	0.002003
2893.48	0.001963
2903.12	0.001763
2912.77	0.001533
2922.41	0.001643
2932.06	0.002253
2941.7	0.002313
2951.35	0.002563
2960.99	0.003013
2970.64	0.003013
2980.28	0.003223
2989.93	0.003123
2999.57	0.004133
3009.22	0.005663
3018.86	0.007923
3028.51	0.012483
3038.15	0.018433
3047.8	0.021913
3057.44	0.022453
3067.09	0.031893
3076.73	0.042943
3086.38	0.033073
3096.02	0.021303
3105.67	0.014973
3115.31	0.007103
3124.95	0.002903
3134.6	0.001903
3144.24	0.001943
3153.89	0.001943
3163.53	0.002263
3173.18	0.002253
3182.82	0.002103
3192.47	0.002863
3202.11	0.004593
3211.76	0.006773
3221.4	0.007953
3231.05	0.005213
3240.69	0.002463
3250.34	0.001353
3259.98	0.0007717
3269.63	0.0008525
3279.27	0.0010228
3288.92	0.0007118
3298.56	0.0006576
3308.21	0.0005401
3317.85	0.0009144
3327.49	0.001333
3337.14	0.0004648
3346.78	0.0008873
3356.43	0.0008658
3366.07	0.0005894
3375.72	0.0008837
3385.36	0.001253
3395.01	0.001283
3404.65	0.002103
3414.3	0.004243
3423.94	0.005853
3433.59	0.006093
3443.23	0.004793
3452.88	0.003943
3462.52	0.004163
3472.17	0.004163
3481.81	0.004273
3491.46	0.003803
3501.1	0.003393
3510.75	0.003023
3520.39	0.003193
3530.04	0.003563
3539.68	0.004853
3549.32	0.005893
3558.97	0.006063
3568.61	0.005903
3578.26	0.005683
3587.9	0.005693
3597.55	0.006563
3607.19	0.008213
3616.84	0.010783
3626.48	0.014083
3636.13	0.017313
3645.77	0.015223
3655.42	0.009063
3665.06	0.006243
3674.71	0.005123
3684.35	0.004873
3694	0.004703
3703.64	0.005023
3713.29	0.005213
3722.93	0.004963
3732.58	0.003823
3742.22	0.003043
3751.86	0.002273
3761.51	0.001833
3771.15	0.001603
3780.8	0.001563
3790.44	0.001183
3800.09	0.0009664
3809.73	0.0010816
3819.38	0.0010222
3829.02	0.0007867
3838.67	0.0005612
3848.31	0.0004257
3857.96	0.0004229
3867.6	0.00022705
3877.25	0.0005113
3886.89	0.0002649
3896.54	6.88e-05
3906.18	7.62e-05
3915.83	0.0001186
3925.47	0.0003905
3935.12	0.00019581
3944.76	0.0002658
3954.41	0.0002556
3964.05	0.0006565
3973.69	0.0004333
3983.34	0.0004149
3992.98	1.2e-05
