Infrared Spectrum: Chloroacetyl isocyanate
Formula: C 3 H 2 Cl N O 2
CAS: 4461-30-7
State: gas
Origin: EPA-IR VAPOR PHASE LIBRARY
1/CM	ABSORBANCE
549.8	0.0007082
559.445	0.00033228
569.09	0.0005031
578.735	0.0007397
588.38	0.0012312
598.025	0.001651
607.67	0.001741
617.315	0.001841
626.96	0.001611
636.605	0.001451
646.251	0.001471
655.896	0.001481
665.541	0.001751
675.186	0.001711
684.831	0.001801
694.476	0.001571
704.121	0.001451
713.766	0.001321
723.411	0.001391
733.056	0.0011869
742.701	0.0012391
752.346	0.0012166
761.991	0.001105
771.636	0.001391
781.281	0.001781
790.926	0.002531
800.571	0.002741
810.216	0.002301
819.861	0.001441
829.507	0.0010298
839.152	0.0007575
848.797	0.0005218
858.442	0.0002737
868.087	0.000146
877.732	0.000189
887.377	0.000144
897.022	0.000143
906.667	8.6e-05
916.312	0.000121
925.957	0.000268
935.602	0.0002234
945.247	0.000186
954.892	0.000179
964.537	0.000171
974.182	0.000194
983.827	0.0002281
993.472	0.000327529
1003.12	0.0004718
1012.76	0.00072
1022.41	0.0009286
1032.05	0.001351
1041.7	0.002331
1051.34	0.004491
1060.99	0.005491
1070.63	0.004351
1080.28	0.004161
1089.92	0.005031
1099.57	0.005691
1109.21	0.004781
1118.86	0.002951
1128.5	0.001511
1138.15	0.0011358
1147.79	0.0012
1157.44	0.0013062
1167.08	0.001411
1176.73	0.001531
1186.37	0.001561
1196.02	0.001621
1205.66	0.001451
1215.31	0.001451
1224.95	0.001421
1234.6	0.0013034
1244.24	0.0011671
1253.89	0.0009609
1263.53	0.0008864
1273.18	0.0008316
1282.82	0.0007699
1292.47	0.000697
1302.11	0.0006981
1311.76	0.0006927
1321.4	0.0007311
1331.05	0.0007873
1340.69	0.0009086
1350.34	0.001044
1359.98	0.001341
1369.63	0.001831
1379.27	0.002641
1388.92	0.004091
1398.56	0.005741
1408.21	0.007761
1417.85	0.008241
1427.5	0.006581
1437.14	0.004611
1446.79	0.003031
1456.43	0.002131
1466.08	0.0012343
1475.73	0.0007714
1485.37	0.000538
1495.02	0.0005389
1504.66	0.00055
1514.31	0.000498
1523.95	0.0004906
1533.6	0.0004636
1543.24	0.0005107
1552.89	0.00040042
1562.53	0.00036786
1572.18	0.000327237
1581.82	0.00034881
1591.47	0.0002937
1601.11	0.000196
1610.76	0.0002721
1620.4	0.000212
1630.05	0.0002258
1639.69	0.000206
1649.34	0.0002482
1658.98	0.0002632
1668.63	0.00034922
1678.27	0.00039271
1687.92	0.000611
1697.56	0.0008497
1707.21	0.0012036
1716.85	0.002171
1726.5	0.004311
1736.14	0.008591
1745.79	0.012431
1755.43	0.013561
1765.08	0.011411
1774.72	0.006571
1784.37	0.004231
1794.01	0.002671
1803.66	0.001571
1813.3	0.0009192
1822.95	0.000641
1832.59	0.0004922
1842.24	0.0004413
1851.88	0.00038831
1861.53	0.00034282
1871.17	0.00031237
1880.82	0.000326328
1890.46	0.0002694
1900.11	0.0002836
1909.75	0.0002515
1919.4	0.0002487
1929.04	0.0002445
1938.69	0.000214
1948.33	0.000202
1957.98	0.00019
1967.62	0.0002537
1977.27	0.0002248
1986.91	0.0002388
1996.56	0.0002332
2006.2	0.0002569
2015.85	0.0002439
2025.49	0.0002881
2035.14	0.00031511
2044.78	0.00033321
2054.43	0.00031978
2064.07	0.0004269
2073.72	0.0004214
2083.36	0.0004679
2093.01	0.0004971
2102.65	0.0005237
2112.3	0.0005923
2121.94	0.0007487
2131.59	0.0008933
2141.23	0.0011612
2150.88	0.001491
2160.52	0.002111
2170.17	0.003041
2179.81	0.004351
2189.46	0.005591
2199.1	0.006771
2208.75	0.008501
2218.39	0.011271
2228.04	0.015311
2237.68	0.022401
2247.33	0.037151
2256.97	0.053971
2266.62	0.054281
2276.26	0.034131
2285.91	0.015481
2295.55	0.007481
2305.2	0.004651
2314.84	0.003431
2324.49	0.002831
2334.13	0.002331
2343.78	0.002131
2353.42	0.001951
2363.07	0.001801
2372.72	0.001461
2382.36	0.0011598
2392.01	0.0009738
2401.65	0.0007989
2411.3	0.000596
2420.94	0.0005302
2430.59	0.0003953
2440.23	0.00034661
2449.88	0.00034742
2459.52	0.00035414
2469.17	0.000325224
2478.81	0.00034838
2488.46	0.00033648
2498.1	0.0002805
2507.75	0.0003052
2517.39	0.00031255
2527.04	0.000329422
2536.68	0.0003436
2546.33	0.0002547
2555.97	0.0002261
2565.62	0.0002688
2575.26	0.0002823
2584.91	0.0002551
2594.55	0.0003116
2604.2	0.00028
2613.84	0.0002516
2623.49	0.000169
2633.13	0.0002939
2642.78	0.000218
2652.42	0.0003075
2662.07	0.0002697
2671.71	0.000218
2681.36	0.000209
2691	0.0002884
2700.65	0.0002422
2710.29	0.0002
2719.94	0.0002663
2729.58	0.000217
2739.23	0.000214
2748.87	0.0002374
2758.52	0.000196
2768.16	0.000201
2777.81	0.000214
2787.45	0.0002634
2797.1	0.0002212
2806.74	0.00016
2816.39	0.0002421
2826.03	0.0002796
2835.68	0.0002905
2845.32	0.0002329
2854.97	0.0002342
2864.61	0.000214
2874.26	0.00017
2883.9	0.0002535
2893.55	0.0002445
2903.19	0.0002452
2912.84	0.0002503
2922.48	0.00041487
2932.13	0.00035222
2941.77	0.00040985
2951.42	0.0005467
2961.06	0.0007178
2970.71	0.0005609
2980.35	0.0004328
2990	0.00033688
2999.64	0.00033695
3009.29	0.00036985
3018.93	0.0004281
3028.58	0.0003438
3038.22	0.00036572
3047.87	0.000326421
3057.51	0.00036001
3067.16	0.00036972
3076.8	0.0002935
3086.45	0.0002523
3096.09	0.0002473
3105.74	0.000111
3115.38	0.000109
3125.03	0.000142
3134.67	0.00018
3144.32	0.000201
3153.96	0.000134
3163.61	0.00013
3173.25	4.4e-05
3182.9	7e-05
3192.54	0.000129
3202.19	8.4e-05
3211.83	8.1e-05
3221.48	3e-05
3231.12	0.000121
3240.77	5e-06
3250.41	0.000127
3260.06	1.2e-05
3269.7	8.9e-05
3279.35	0.000154
3289	0.000127
3298.64	0.000177
3308.29	0.000129
3317.93	0.000107
3327.58	0.000114
3337.22	5.8e-05
3346.87	0.0002453
3356.51	0.000127
3366.16	0.000218
3375.8	0.000182
3385.45	0.0002
3395.09	0.00015
3404.74	0.000123
3414.38	0.00016
3424.03	0.0002367
3433.67	0.000156
3443.32	0.000326562
3452.96	0.000199
3462.61	0.0002216
3472.25	0.0002861
3481.9	0.00038552
3491.54	0.0002955
3501.19	0.00034148
3510.83	0.0002791
3520.48	0.0002948
3530.12	0.00035115
3539.77	0.0002846
3549.41	0.00035721
3559.06	0.000325932
3568.7	0.0003544
3578.35	0.000198
3587.99	0.00034563
3597.64	0.00041794
3607.28	0.000501
3616.93	0.00031313
3626.57	0.00039116
3636.22	0.0004947
3645.86	0.0004601
3655.51	0.0005391
3665.15	0.0005168
3674.8	0.00040432
3684.44	0.0004666
3694.09	0.0003391
3703.73	0.00035467
3713.38	0.00037411
3723.02	0.00034127
3732.67	0.0002229
3742.31	0.0002631
3751.96	0.000327674
3761.6	0.0002533
3771.25	0.0002
3780.89	0.0002252
3790.54	0.000209
3800.18	0.00034813
3809.83	0.000154
3819.47	0.000189
3829.12	0.000133
3838.76	0.0002282
3848.41	0.0002223
3858.05	0.0002244
3867.7	0.000112
3877.34	0.0002638
3886.99	0.0002245
3896.63	0.0002373
3906.28	0.00028
3915.92	0.000161
3925.57	0.0002374
3935.21	0.000258
3944.86	0.0002452
3954.5	0.000151
3964.15	0.0002437
3973.79	0.0002316
3983.44	0.00031807
3993.08	0.000164
