Infrared Spectrum: 3-(2,6-Dichlorophenyl)-5-methylisoxazole-4-carbonyl chloride
Formula: C 11 H 6 Cl 3 N O 2
CAS: 4462-55-9
State: gas
Origin: EPA-IR VAPOR PHASE LIBRARY
1/CM	ABSORBANCE
549.9	0.01179
559.547	0.00502
569.193	0.00422
578.84	0.00435
588.486	0.0037343
598.133	0.0036193
607.779	0.0036477
617.426	0.00386
627.072	0.0034943
636.719	0.0035935
646.365	0.00479
656.012	0.01327
665.658	0.01829
675.305	0.01232
684.951	0.01086
694.598	0.00692
704.245	0.00554
713.891	0.00636
723.538	0.01062
733.184	0.01633
742.831	0.02645
752.477	0.02569
762.124	0.01795
771.77	0.05899
781.417	0.07818
791.063	0.07404
800.71	0.05969
810.356	0.03852
820.003	0.05205
829.649	0.12685
839.296	0.25227
848.943	0.19287
858.589	0.0641
868.236	0.03099
877.882	0.03525
887.529	0.04505
897.175	0.03107
906.822	0.01599
916.468	0.01118
926.115	0.00931
935.761	0.00757
945.408	0.00665
955.054	0.00696
964.701	0.01035
974.347	0.02272
983.994	0.01857
993.64	0.00981
1003.29	0.00674
1012.93	0.00532
1022.58	0.00488
1032.23	0.0047
1041.87	0.0055
1051.52	0.00682
1061.17	0.00884
1070.81	0.00625
1080.46	0.00558
1090.11	0.00859
1099.75	0.01041
1109.4	0.00551
1119.05	0.00474
1128.69	0.00704
1138.34	0.0236
1147.99	0.03332
1157.63	0.01325
1167.28	0.00912
1176.92	0.00823
1186.57	0.019
1196.22	0.03919
1205.86	0.01543
1215.51	0.01238
1225.16	0.02074
1234.8	0.0201
1244.45	0.02052
1254.1	0.01403
1263.74	0.01301
1273.39	0.02465
1283.04	0.04917
1292.68	0.03981
1302.33	0.01437
1311.98	0.00798
1321.62	0.00702
1331.27	0.00699
1340.92	0.00763
1350.56	0.00985
1360.21	0.01507
1369.86	0.03029
1379.5	0.05278
1389.15	0.07172
1398.79	0.05823
1408.44	0.03737
1418.09	0.03742
1427.73	0.0691
1437.38	0.09751
1447.03	0.04858
1456.67	0.02724
1466.32	0.01914
1475.97	0.01525
1485.61	0.01632
1495.26	0.02226
1504.91	0.02529
1514.55	0.01781
1524.2	0.01348
1533.85	0.0153
1543.49	0.02209
1553.14	0.04358
1562.79	0.08554
1572.43	0.09357
1582.08	0.10595
1591.73	0.08808
1601.37	0.05101
1611.02	0.02185
1620.67	0.01225
1630.31	0.00991
1639.96	0.00965
1649.6	0.00966
1659.25	0.01106
1668.9	0.01321
1678.54	0.01418
1688.19	0.01306
1697.84	0.01047
1707.48	0.00982
1717.13	0.01259
1726.78	0.01677
1736.42	0.02471
1746.07	0.03994
1755.72	0.06557
1765.36	0.17223
1775.01	0.24746
1784.66	0.15606
1794.3	0.04572
1803.95	0.02791
1813.6	0.0205
1823.24	0.01661
1832.89	0.01116
1842.54	0.00775
1852.18	0.007
1861.83	0.00568
1871.47	0.00402
1881.12	0.0034353
1890.77	0.0031739
1900.41	0.0029626
1910.06	0.0031168
1919.71	0.00409
1929.35	0.00563
1939	0.00452
1948.65	0.0031339
1958.29	0.0028094
1967.94	0.002577
1977.59	0.002453
1987.23	0.002314
1996.88	0.002228
2006.53	0.002143
2016.17	0.002202
2025.82	0.002312
2035.47	0.002353
2045.11	0.002414
2054.76	0.002372
2064.41	0.002345
2074.05	0.002298
2083.7	0.002184
2093.35	0.002111
2102.99	0.002076
2112.64	0.002131
2122.28	0.002265
2131.93	0.002267
2141.58	0.002077
2151.22	0.002049
2160.87	0.002077
2170.52	0.002168
2180.16	0.002064
2189.81	0.002031
2199.46	0.002064
2209.1	0.002055
2218.75	0.002155
2228.4	0.002206
2238.04	0.002248
2247.69	0.002248
2257.34	0.002337
2266.98	0.00218
2276.63	0.001986
2286.28	0.001945
2295.92	0.002093
2305.57	0.002243
2315.22	0.002347
2324.86	0.002241
2334.51	0.002191
2344.16	0.00207
2353.8	0.002016
2363.45	0.001999
2373.09	0.001923
2382.74	0.001894
2392.39	0.001898
2402.03	0.001952
2411.68	0.002093
2421.33	0.002256
2430.97	0.002322
2440.62	0.00236
2450.27	0.002316
2459.91	0.00216
2469.56	0.002084
2479.21	0.002102
2488.85	0.002068
2498.5	0.001968
2508.15	0.001953
2517.79	0.001966
2527.44	0.001924
2537.09	0.001881
2546.73	0.001925
2556.38	0.001957
2566.03	0.002019
2575.67	0.001942
2585.32	0.00182
2594.96	0.00178
2604.61	0.0017
2614.26	0.001832
2623.9	0.002093
2633.55	0.001968
2643.2	0.001884
2652.84	0.002088
2662.49	0.002118
2672.14	0.001969
2681.78	0.00173
2691.43	0.00156
2701.08	0.00147
2710.72	0.00137
2720.37	0.00132
2730.02	0.00138
2739.66	0.00122
2749.31	0.00132
2758.96	0.00115
2768.6	0.00117
2778.25	0.00116
2787.9	0.00113
2797.54	0.0013
2807.19	0.00115
2816.84	0.00135
2826.48	0.00129
2836.13	0.00131
2845.77	0.00139
2855.42	0.00172
2865.07	0.00174
2874.71	0.00141
2884.36	0.00119
2894.01	0.00112
2903.65	0.00112
2913.3	0.00107
2922.95	0.0015
2932.59	0.002389
2942.24	0.00431
2951.89	0.0036088
2961.53	0.00241
2971.18	0.002208
2980.83	0.002687
2990.47	0.002188
3000.12	0.002202
3009.77	0.00205
3019.41	0.001824
3029.06	0.00176
3038.71	0.00159
3048.35	0.002031
3058	0.00407
3067.64	0.00676
3077.29	0.00423
3086.94	0.0027659
3096.58	0.00164
3106.23	0.0012
3115.88	0.00145
3125.52	0.001857
3135.17	0.00108
3144.82	0.00051
3154.46	0.00032
3164.11	0.00028
3173.76	0.00034
3183.4	0.00019
3193.05	0.00015
3202.7	0.0002
3212.34	0.00017
3221.99	0.00022
3231.64	0.00035
3241.28	0.00018
3250.93	0.00015
3260.58	0.00039
3270.22	0.00041
3279.87	0.0006
3289.52	0.0006
3299.16	0.00053
3308.81	0.00049
3318.45	0.00073
3328.1	0.00055
3337.75	0.00063
3347.39	0.00077
3357.04	0.0008
3366.69	0.0009
3376.33	0.00082
3385.98	0.00078
3395.63	0.00095
3405.27	0.00096
3414.92	0.00103
3424.57	0.00102
3434.21	0.00128
3443.86	0.00125
3453.51	0.00151
3463.15	0.00172
3472.8	0.00165
3482.45	0.001792
3492.09	0.001842
3501.74	0.002167
3511.39	0.0027767
3521.03	0.0029827
3530.68	0.0030823
3540.33	0.0030821
3549.97	0.002462
3559.62	0.001996
3569.26	0.00144
3578.91	0.00147
3588.56	0.00156
3598.2	0.00154
3607.85	0.00159
3617.5	0.00143
3627.14	0.00154
3636.79	0.00143
3646.44	0.0016
3656.08	0.00154
3665.73	0.00174
3675.38	0.00152
3685.02	0.00158
3694.67	0.00155
3704.32	0.00167
3713.96	0.00166
3723.61	0.00176
3733.26	0.00176
3742.9	0.00177
3752.55	0.00168
3762.2	0.001811
3771.84	0.00162
3781.49	0.00167
3791.13	0.001995
3800.78	0.002027
3810.43	0.001942
3820.07	0.001819
3829.72	0.001833
3839.37	0.001806
3849.01	0.00176
3858.66	0.00173
3868.31	0.001823
3877.95	0.001917
3887.6	0.001835
3897.25	0.001809
3906.89	0.00175
3916.54	0.001858
3926.19	0.00183
3935.83	0.00179
3945.48	0.001921
3955.13	0.001934
3964.77	0.001913
3974.42	0.00174
3984.07	0.00175
3993.71	0.001834
