Infrared Spectrum: 2,3-Dimethoxytoluene
Formula: C 9 H 12 O 2
CAS: 4463-33-6
State: gas
Origin: EPA-IR VAPOR PHASE LIBRARY
1/CM	ABSORBANCE
549.9	0.003882
559.547	0.00475
569.193	0.0044
578.84	0.0039123
588.486	0.003412
598.133	0.0034692
607.779	0.0031974
617.426	0.002632
627.072	0.00255
636.719	0.00298893
646.365	0.00457
656.012	0.00767
665.658	0.01131
675.305	0.01443
684.951	0.0133
694.598	0.00849
704.245	0.00531
713.891	0.00586
723.538	0.01231
733.184	0.03447
742.831	0.06907
752.477	0.0552
762.124	0.0365
771.77	0.0355
781.417	0.03237
791.063	0.02492
800.71	0.02241
810.356	0.0177
820.003	0.0081
829.649	0.0038331
839.296	0.0032917
848.943	0.0032779
858.589	0.0033307
868.236	0.0034589
877.882	0.0037609
887.529	0.00457
897.175	0.00668
906.822	0.01135
916.468	0.01404
926.115	0.01142
935.761	0.00903
945.408	0.00885
955.054	0.00932
964.701	0.01004
974.347	0.0126
983.994	0.01907
993.64	0.03367
1003.29	0.06429
1012.93	0.10636
1022.58	0.11194
1032.23	0.07873
1041.87	0.07498
1051.52	0.08678
1061.17	0.08857
1070.81	0.09667
1080.46	0.1259
1090.11	0.14612
1099.75	0.11999
1109.4	0.06576
1119.05	0.02851
1128.69	0.01748
1138.34	0.015
1147.99	0.01785
1157.63	0.02583
1167.28	0.03673
1176.92	0.04485
1186.57	0.04473
1196.22	0.04705
1205.86	0.07049
1215.51	0.11637
1225.16	0.14089
1234.8	0.12004
1244.45	0.1012
1254.1	0.12318
1263.74	0.19292
1273.39	0.24114
1283.04	0.19337
1292.68	0.12125
1302.33	0.07837
1311.98	0.04743
1321.62	0.02669
1331.27	0.01916
1340.92	0.01698
1350.56	0.01564
1360.21	0.01327
1369.86	0.01146
1379.5	0.01079
1389.15	0.01124
1398.79	0.0141
1408.44	0.02533
1418.09	0.05698
1427.73	0.08508
1437.38	0.08066
1447.03	0.06728
1456.67	0.09338
1466.32	0.16509
1475.97	0.22497
1485.61	0.19799
1495.26	0.11202
1504.91	0.05254
1514.55	0.03416
1524.2	0.02808
1533.85	0.02495
1543.49	0.02307
1553.14	0.02287
1562.79	0.0262
1572.43	0.03622
1582.08	0.05103
1591.73	0.05516
1601.37	0.03948
1611.02	0.02414
1620.67	0.01373
1630.31	0.00906
1639.96	0.00691
1649.6	0.00558
1659.25	0.00475
1668.9	0.00439
1678.54	0.00448
1688.19	0.0048
1697.84	0.00503
1707.48	0.00509
1717.13	0.00492
1726.78	0.00435
1736.42	0.0037427
1746.07	0.0036376
1755.72	0.0036946
1765.36	0.0034906
1775.01	0.0033873
1784.66	0.0032208
1794.3	0.0038065
1803.95	0.00469
1813.6	0.00522
1823.24	0.00528
1832.89	0.00478
1842.54	0.0037649
1852.18	0.0031499
1861.83	0.0029595
1871.47	0.0032238
1881.12	0.00445
1890.77	0.00601
1900.41	0.00645
1910.06	0.00524
1919.71	0.00411
1929.35	0.0039507
1939	0.00418
1948.65	0.00434
1958.29	0.00445
1967.94	0.00456
1977.59	0.00481
1987.23	0.00506
1996.88	0.00544
2006.53	0.00621
2016.17	0.00739
2025.82	0.00832
2035.47	0.00749
2045.11	0.00535
2054.76	0.00406
2064.41	0.0035889
2074.05	0.0034858
2083.7	0.0032938
2093.35	0.0029517
2102.99	0.002744
2112.64	0.002715
2122.28	0.00274
2131.93	0.00301596
2141.58	0.0032515
2151.22	0.0034748
2160.87	0.0036951
2170.52	0.003787
2180.16	0.0036942
2189.81	0.0034359
2199.46	0.00298671
2209.1	0.002534
2218.75	0.002323
2228.4	0.002188
2238.04	0.002262
2247.69	0.002165
2257.34	0.002193
2266.98	0.002475
2276.63	0.002734
2286.28	0.002585
2295.92	0.002146
2305.57	0.00172
2315.22	0.0017
2324.86	0.00167
2334.51	0.00177
2344.16	0.00172
2353.8	0.00168
2363.45	0.00172
2373.09	0.00194
2382.74	0.00237
2392.39	0.002632
2402.03	0.002436
2411.68	0.002013
2421.33	0.002057
2430.97	0.002177
2440.62	0.002352
2450.27	0.002453
2459.91	0.002408
2469.56	0.002418
2479.21	0.002499
2488.85	0.002757
2498.5	0.0029568
2508.15	0.00297948
2517.79	0.0028943
2527.44	0.0028777
2537.09	0.0031948
2546.73	0.003534
2556.38	0.0037885
2566.03	0.0035709
2575.67	0.0031539
2585.32	0.002788
2594.96	0.0025
2604.61	0.002458
2614.26	0.00229
2623.9	0.002299
2633.55	0.002258
2643.2	0.002176
2652.84	0.002076
2662.49	0.00176
2672.14	0.00188
2681.78	0.00196
2691.43	0.002203
2701.08	0.00218
2710.72	0.002288
2720.37	0.002548
2730.02	0.0031465
2739.66	0.0038498
2749.31	0.0037526
2758.96	0.0032984
2768.6	0.0037862
2778.25	0.00453
2787.9	0.00595
2797.54	0.00824
2807.19	0.0126
2816.84	0.02162
2826.48	0.04021
2836.13	0.06267
2845.77	0.06072
2855.42	0.04519
2865.07	0.04103
2874.71	0.04507
2884.36	0.04837
2894.01	0.05096
2903.65	0.05757
2913.3	0.06936
2922.95	0.08919
2932.59	0.12209
2942.24	0.14466
2951.89	0.12981
2961.53	0.1036
2971.18	0.08385
2980.83	0.07208
2990.47	0.07347
3000.12	0.07774
3009.77	0.066
3019.41	0.04946
3029.06	0.0439
3038.71	0.04284
3048.35	0.04409
3058	0.04602
3067.64	0.04659
3077.29	0.04099
3086.94	0.02907
3096.58	0.01718
3106.23	0.00951
3115.88	0.00612
3125.52	0.00471
3135.17	0.0034524
3144.82	0.0028757
3154.46	0.002213
3164.11	0.00182
3173.76	0.00149
3183.4	0.00124
3193.05	0.00078
3202.7	0.0005
3212.34	0.00045
3221.99	0.00031
3231.64	0.00035
3241.28	0.00031
3250.93	0.00012
3260.58	0.00029
3270.22	0.00014
3279.87	0.0002
3289.52	0.0001
3299.16	0.00016
3308.81	0.0002
3318.45	0.00024
3328.1	0.00014
3337.75	0.00021
3347.39	0.00033
3357.04	0.00032
3366.69	0.00035
3376.33	0.00025
3385.98	0.00031
3395.63	0.00058
3405.27	0.00058
3414.92	0.00056
3424.57	0.00046
3434.21	0.00054
3443.86	0.00068
3453.51	0.00052
3463.15	0.00057
3472.8	0.00051
3482.45	0.00067
3492.09	0.00068
3501.74	0.00062
3511.39	0.00058
3521.03	0.00058
3530.68	0.00097
3540.33	0.00077
3549.97	0.00064
3559.62	0.00097
3569.26	0.00089
3578.91	0.00068
3588.56	0.00097
3598.2	0.00089
3607.85	0.00094
3617.5	0.00091
3627.14	0.00103
3636.79	0.00098
3646.44	0.00095
3656.08	0.00083
3665.73	0.001
3675.38	0.00094
3685.02	0.00096
3694.67	0.00095
3704.32	0.00102
3713.96	0.00105
3723.61	0.00103
3733.26	0.00111
3742.9	0.0011
3752.55	0.00102
3762.2	0.00105
3771.84	0.00114
3781.49	0.00106
3791.13	0.00115
3800.78	0.00122
3810.43	0.00139
3820.07	0.00164
3829.72	0.00178
3839.37	0.0018
3849.01	0.00177
3858.66	0.0019
3868.31	0.00179
3877.95	0.00189
3887.6	0.00184
3897.25	0.00179
3906.89	0.00154
3916.54	0.00157
3926.19	0.00175
3935.83	0.00177
3945.48	0.00189
3955.13	0.002008
3964.77	0.00184
3974.42	0.00195
3984.07	0.00184
3993.71	0.00206
