Infrared Spectrum: 2-Butylfuran
Formula: C 8 H 12 O
CAS: 4466-24-4
State: gas
Instrument: HP-GC/MS/IRD
Origin: NIST Mass Spectrometry Data Center
1/CM	ABSORBANCE
550	0.0001912
562	6.08e-05
574	4.24e-05
586	0.0003776
598	0.000632
610	0.0004072
622	0.0001336
634	0.0001672
646	0.0001088
658	7.12e-05
670	0.0001744
682	0.0002952
694	0.0007168
706	0.0017848
718	0.0040184
730	0.0047456
742	0.0025256
754	0.0013072
766	0.0009352
778	0.0011608
790	0.0016008
802	0.0010936
814	0.0004896
826	0.000196
838	0.0001528
850	6.4e-05
862	0.000112
874	0.0003536
886	0.000684
898	0.0006592
910	0.0007328
922	0.0008704
934	0.0008312
946	0.0006112
958	0.0004656
970	0.0004416
982	0.0006432
994	0.001292
1006	0.0021584
1018	0.0016808
1030	0.0006568
1042	0.0003536
1054	0.0003088
1066	0.0004544
1078	0.000528
1090	0.0006152
1102	0.0004992
1114	0.0003
1126	0.0003784
1138	0.0012944
1150	0.0020512
1162	0.001276
1174	0.0011056
1186	0.0010136
1198	0.0008448
1210	0.0007392
1222	0.0006712
1234	0.0006688
1246	0.0006392
1258	0.000524
1270	0.0003872
1282	0.0003872
1294	0.000408
1306	0.0004456
1318	0.0005
1330	0.000688
1342	0.000696
1354	0.0006224
1366	0.0005704
1378	0.0006768
1390	0.0006968
1402	0.0004552
1414	0.0004272
1426	0.0006048
1438	0.0011544
1450	0.0015656
1462	0.0013792
1474	0.0010552
1486	0.0010128
1498	0.001752
1510	0.002024
1522	0.0011448
1534	0.0006392
1546	0.0004552
1558	0.0005656
1570	0.0008104
1582	0.0010752
1594	0.0011768
1606	0.000712
1618	0.0002824
1630	0.0002144
1642	0.0002184
1654	0.0002256
1666	0.0001432
1678	0.00014
1690	0.0002648
1702	0.0003856
1714	0.0001808
1726	7.28e-05
1738	7.52e-05
1750	6.72e-05
1762	7.92e-05
1774	6.16e-05
1786	7.12e-05
1798	6.08e-05
1810	4.72e-05
1822	6.16e-05
1834	5.28e-05
1846	1.84e-05
1858	4.64e-05
1870	5.12e-05
1882	5.2e-05
1894	4.4e-05
1906	2.56e-05
1918	5.76e-05
1930	5.44e-05
1942	5.84e-05
1954	4e-05
1966	2.88e-05
1978	5.92e-05
1990	2e-05
2002	7.52e-05
2014	8e-05
2026	6.08e-05
2038	5.68e-05
2050	6.4e-05
2062	7.44e-05
2074	7.76e-05
2086	6.08e-05
2098	5.44e-05
2110	3.6e-05
2122	3.84e-05
2134	5.28e-05
2146	5.68e-05
2158	4.72e-05
2170	5.28e-05
2182	9.84e-05
2194	4.4e-05
2206	4.48e-05
2218	7.52e-05
2230	5.68e-05
2242	7.6e-05
2254	6.48e-05
2266	5.76e-05
2278	6.88e-05
2290	4.4e-05
2302	2.96e-05
2314	4.48e-05
2326	6.32e-05
2338	6.88e-05
2350	4e-05
2362	7.44e-05
2374	4.48e-05
2386	5.76e-05
2398	5.44e-05
2410	6.88e-05
2422	4.24e-05
2434	4.08e-05
2446	1.36e-05
2458	4.4e-05
2470	5.28e-05
2482	2.8e-05
2494	3.52e-05
2506	4.4e-05
2518	7.36e-05
2530	5.6e-05
2542	6.24e-05
2554	9.36e-05
2566	7.6e-05
2578	8.48e-05
2590	9.28e-05
2602	0.0001184
2614	0.0001168
2626	9.6e-05
2638	0.0001248
2650	0.0001392
2662	0.0001752
2674	0.000108
2686	0.0001072
2698	0.0001104
2710	0.0001536
2722	0.0001544
2734	0.0001544
2746	0.0002088
2758	0.0001896
2770	0.0002056
2782	0.0002216
2794	0.0002448
2806	0.0003216
2818	0.0004728
2830	0.0006208
2842	0.0010328
2854	0.001648
2866	0.0026576
2878	0.0035136
2890	0.0032584
2902	0.002968
2914	0.0039824
2926	0.0059232
2938	0.007816
2950	0.007656
2962	0.007288
2974	0.0061208
2986	0.0028912
2998	0.0013384
3010	0.0008344
3022	0.000612
3034	0.0004584
3046	0.0004296
3058	0.0003536
3070	0.0003016
3082	0.0003272
3094	0.0002712
3106	0.0003848
3118	0.0006088
3130	0.0004992
3142	0.0003352
3154	0.0003496
3166	0.0003184
3178	0.0001376
3190	0.000132
3202	0.0001016
3214	0.0001056
3226	0.000116
3238	8.88e-05
3250	8.8e-05
3262	9.6e-05
3274	0.0001296
3286	7.44e-05
3298	0.0001656
3310	5.6e-05
3322	0.0001392
3334	5.2e-05
3346	7.68e-05
3358	0.0001448
3370	7.68e-05
3382	0.0001488
3394	0.0001328
3406	8e-05
3418	9.04e-05
3430	8.8e-05
3442	5.28e-05
3454	7.76e-05
3466	0.000108
3478	6.48e-05
3490	0.0001072
3502	0.0001208
3514	8e-06
3526	2.16e-05
3538	0.0001336
3550	2.96e-05
3562	0.0001288
3574	0.0001336
3586	0.0001208
3598	0.0001584
3610	0.0001144
3622	0.0001048
3634	0.0001192
3646	0.000196
3658	0.0001256
3670	0.0001456
3682	6.64e-05
3694	0.0001344
3706	8.96e-05
3718	0.0001552
3730	0.0001416
3742	0.0001232
3754	0.0001528
3766	7.84e-05
3778	0.0001008
3790	0.0001448
3802	0.0001888
3814	0.0001296
3826	0.0001232
3838	0.0001416
