Infrared Spectrum: 2,3-Dimethoxyphenylacetonitrile
Formula: C 10 H 11 N O 2
CAS: 4468-57-9
State: gas
Origin: EPA-IR VAPOR PHASE LIBRARY
1/CM	ABSORBANCE
549.8	0.00209
559.445	0.00174
569.09	0.00218
578.734	0.00195
588.379	0.00156
598.024	0.00153
607.669	0.00212
617.313	0.00283
626.958	0.00304
636.603	0.00281
646.248	0.00195
655.893	0.00154
665.537	0.00192
675.182	0.00226
684.827	0.00387
694.472	0.00678
704.116	0.00912
713.761	0.00861
723.406	0.00847
733.051	0.01869
742.695	0.04054
752.34	0.03417
761.985	0.01858
771.63	0.01822
781.275	0.02019
790.919	0.01577
800.564	0.01372
810.209	0.01303
819.854	0.00865
829.498	0.00407
839.143	0.00249
848.788	0.00239
858.433	0.00253
868.078	0.00417
877.722	0.00612
887.367	0.00706
897.012	0.00529
906.657	0.00466
916.301	0.00466
925.946	0.00483
935.591	0.00525
945.236	0.00621
954.88	0.00798
964.525	0.00833
974.17	0.0087
983.815	0.01245
993.46	0.02521
1003.1	0.05204
1012.75	0.06741
1022.39	0.04687
1032.04	0.03377
1041.68	0.0409
1051.33	0.04678
1060.97	0.05257
1070.62	0.07186
1080.26	0.09397
1089.91	0.07295
1099.55	0.03172
1109.2	0.01443
1118.84	0.00867
1128.49	0.00722
1138.13	0.00728
1147.78	0.0086
1157.42	0.01459
1167.07	0.02357
1176.71	0.02599
1186.36	0.02188
1196	0.02275
1205.64	0.03203
1215.29	0.05039
1224.93	0.06394
1234.58	0.05555
1244.22	0.05
1253.87	0.06206
1263.51	0.08913
1273.16	0.14349
1282.8	0.15335
1292.45	0.09668
1302.09	0.05575
1311.74	0.04092
1321.38	0.02732
1331.03	0.01588
1340.67	0.01161
1350.32	0.00928
1359.96	0.00732
1369.61	0.00628
1379.25	0.006
1388.9	0.00649
1398.54	0.00813
1408.18	0.01263
1417.83	0.02654
1427.47	0.05059
1437.12	0.05719
1446.76	0.04212
1456.41	0.0451
1466.05	0.09254
1475.7	0.16133
1485.34	0.14983
1494.99	0.07042
1504.63	0.02995
1514.28	0.01765
1523.92	0.01231
1533.57	0.00926
1543.21	0.00784
1552.86	0.00775
1562.5	0.00906
1572.15	0.01474
1581.79	0.02917
1591.44	0.0391
1601.08	0.02656
1610.73	0.01327
1620.37	0.0073
1630.01	0.00494
1639.66	0.0037
1649.3	0.00294
1658.95	0.00253
1668.59	0.00239
1678.24	0.00235
1687.88	0.00247
1697.53	0.0023
1707.17	0.00215
1716.82	0.00219
1726.46	0.00206
1736.11	0.00185
1745.75	0.0017
1755.4	0.00162
1765.04	0.00158
1774.69	0.00165
1784.33	0.00169
1793.98	0.00192
1803.62	0.00227
1813.27	0.00282
1822.91	0.00291
1832.55	0.00248
1842.2	0.00211
1851.84	0.00181
1861.49	0.00147
1871.13	0.00152
1880.78	0.00178
1890.42	0.00232
1900.07	0.00286
1909.71	0.00291
1919.36	0.00226
1929	0.00181
1938.65	0.00162
1948.29	0.00178
1957.94	0.00208
1967.58	0.0024
1977.23	0.00283
1986.87	0.00312
1996.52	0.00367
2006.16	0.00411
2015.81	0.00432
2025.45	0.00391
2035.1	0.00307
2044.74	0.00222
2054.38	0.00173
2064.03	0.00158
2073.67	0.00156
2083.32	0.00152
2092.96	0.00154
2102.61	0.00155
2112.25	0.0015
2121.9	0.00142
2131.54	0.00152
2141.19	0.00163
2150.83	0.0017
2160.48	0.00166
2170.12	0.00159
2179.77	0.00156
2189.41	0.00142
2199.06	0.00122
2208.7	0.0010822
2218.35	0.0010878
2227.99	0.00134
2237.64	0.00192
2247.28	0.0031
2256.92	0.00361
2266.57	0.00215
2276.21	0.00145
2285.86	0.00138
2295.5	0.00119
2305.15	0.0009416
2314.79	0.0007928
2324.44	0.000772
2334.08	0.0008311
2343.73	0.0010133
2353.37	0.0008362
2363.02	0.0008817
2372.66	0.0008248
2382.31	0.0009348
2391.95	0.0010482
2401.6	0.0010293
2411.24	0.0009272
2420.89	0.0008948
2430.53	0.0009835
2440.18	0.0010717
2449.82	0.0011194
2459.47	0.0010668
2469.11	0.0010508
2478.75	0.00125
2488.4	0.00136
2498.04	0.0015
2507.69	0.0015
2517.33	0.00166
2526.98	0.00164
2536.62	0.00178
2546.27	0.00196
2555.91	0.00206
2565.56	0.00213
2575.2	0.00199
2584.85	0.00169
2594.49	0.00159
2604.14	0.00144
2613.78	0.00132
2623.43	0.00119
2633.07	0.0011077
2642.72	0.001083
2652.36	0.0009037
2662.01	0.0007708
2671.65	0.0008346
2681.29	0.0008589
2690.94	0.0008667
2700.58	0.0010369
2710.23	0.0010999
2719.87	0.00121
2729.52	0.00127
2739.16	0.00135
2748.81	0.00152
2758.45	0.00165
2768.1	0.00156
2777.74	0.00196
2787.39	0.0024
2797.03	0.00315
2806.68	0.00455
2816.32	0.00722
2825.97	0.01279
2835.61	0.02532
2845.26	0.03388
2854.9	0.02216
2864.55	0.01366
2874.19	0.01375
2883.84	0.01604
2893.48	0.01897
2903.12	0.02132
2912.77	0.02417
2922.41	0.0285
2932.06	0.03851
2941.7	0.05825
2951.35	0.06234
2960.99	0.04744
2970.64	0.03703
2980.28	0.03098
2989.93	0.0288
2999.57	0.03221
3009.22	0.03397
3018.86	0.02455
3028.51	0.01729
3038.15	0.01488
3047.8	0.01457
3057.44	0.01468
3067.09	0.01518
3076.73	0.01641
3086.38	0.01529
3096.02	0.01004
3105.67	0.00511
3115.31	0.00328
3124.95	0.00241
3134.6	0.00203
3144.24	0.00171
3153.89	0.00151
3163.53	0.00145
3173.18	0.00126
3182.82	0.0011675
3192.47	0.0008876
3202.11	0.0011363
3211.76	0.000783
3221.4	0.0008103
3231.05	0.000537
3240.69	0.0004466
3250.34	0.0004977
3259.98	0.0004905
3269.63	0.0004311
3279.27	0.0004842
3288.92	0.0003645
3298.56	0.0002932
3308.21	0.000388
3317.85	0.000322
3327.49	0.0003249
3337.14	0.00026792
3346.78	0.00024388
3356.43	0.0003264
3366.07	0.000462
3375.72	0.000179519
3385.36	9.16e-05
3395.01	0.0003317
3404.65	0.00019195
3414.3	0.000180162
3423.94	0.0003005
3433.59	0.0001045
3443.23	0.0001167
3452.88	0.00020381
3462.52	0.00017655
3472.17	0.000123
3481.81	0.000135
3491.46	9.05e-05
3501.1	0.0003672
3510.75	0.000155
3520.39	0.00025226
3530.04	0.000336
3539.68	0.0001522
3549.32	0.0003557
3558.97	0.0003995
3568.61	0.0004515
3578.26	0.00019667
3587.9	0.0001272
3597.55	0.0004421
3607.19	0.00019506
3616.84	0.00020301
3626.48	0.000289
3636.13	0.0003211
3645.77	0.00019057
3655.42	0.0002916
3665.06	0.0001581
3674.71	0.0003469
3684.35	0.0003352
3694	0.0003549
3703.64	0.000133
3713.29	0.0003123
3722.93	0.0003368
3732.58	0.00017799
3742.22	0.0002939
3751.86	0.0003053
3761.51	0.00017329
3771.15	0.000369
3780.8	0.0001099
3790.44	0.00022488
3800.09	0.0001649
3809.73	0.00027048
3819.38	0.0004303
3829.02	0.0006618
3838.67	0.0004678
3848.31	0.0006329
3857.96	0.0007026
3867.6	0.0006476
3877.25	0.0007982
3886.89	0.0006909
3896.54	0.0008152
3906.18	0.0006594
3915.83	0.0005882
3925.47	0.0008081
3935.12	0.000648
3944.76	0.0006511
3954.41	0.0007046
3964.05	0.0007717
3973.69	0.0007441
3983.34	0.0005906
3992.98	0.0006304
