Infrared Spectrum: Nylidrin
Formula: C 19 H 25 N O 2
CAS: 447-41-6
State: gas
Instrument: HP-GC/MS/IRD
Origin: NIST Mass Spectrometry Data Center
1/CM	ABSORBANCE
550	0.000658
562	0.0003904
574	0.0003048
586	0.0002948
598	0.0001184
610	0.0003148
622	0.0001476
634	2.24e-05
646	7e-05
658	9.8e-05
670	9.72e-05
682	0.0002704
694	0.000948
706	0.0006084
718	0.0004768
730	0.000618
742	0.0006416
754	0.0004792
766	0.00053
778	0.000292
790	0.0003868
802	0.0005528
814	0.000638
826	0.0006624
838	0.0006372
850	0.0003972
862	0.0001492
874	8.36e-05
886	2.72e-05
898	8.76e-05
910	9.88e-05
922	3.28e-05
934	8.24e-05
946	2.72e-05
958	2.88e-05
970	8.52e-05
982	6.44e-05
994	4.56e-05
1006	0.0001796
1018	0.0002628
1030	0.0003364
1042	0.0002212
1054	0.0002728
1066	0.0002736
1078	0.0002844
1090	0.0004544
1102	0.0005204
1114	0.000488
1126	0.0006508
1138	0.00067
1150	0.00098
1162	0.0025256
1174	0.0039924
1186	0.0025888
1198	0.0015052
1210	0.0009944
1222	0.0009092
1234	0.001032
1246	0.001602
1258	0.0023344
1270	0.0007408
1282	0.0004416
1294	0.0004612
1306	0.0005056
1318	0.0007372
1330	0.0011208
1342	0.0009636
1354	0.0006492
1366	0.0007752
1378	0.0008728
1390	0.00046
1402	0.000368
1414	0.0003936
1426	0.000692
1438	0.0009128
1450	0.0009016
1462	0.0007
1474	0.0005024
1486	0.0007556
1498	0.001638
1510	0.0036324
1522	0.0013128
1534	0.0004444
1546	0.0003164
1558	0.0002936
1570	0.0002888
1582	0.000494
1594	0.000894
1606	0.001062
1618	0.0009796
1630	0.0007328
1642	0.0010328
1654	0.0022896
1666	0.0015536
1678	0.000504
1690	0.0002332
1702	0.0001696
1714	0.000152
1726	0.0001316
1738	9.56e-05
1750	0.00011
1762	8.48e-05
1774	9.6e-05
1786	6.88e-05
1798	0.0001004
1810	5.48e-05
1822	5.84e-05
1834	5.44e-05
1846	8.04e-05
1858	0.000116
1870	0.00012
1882	9.68e-05
1894	7.8e-05
1906	5.92e-05
1918	5.08e-05
1930	5.84e-05
1942	9.56e-05
1954	8.44e-05
1966	4.96e-05
1978	4.2e-05
1990	2.92e-05
2002	4.8e-05
2014	5.56e-05
2026	4.32e-05
2038	7.88e-05
2050	7.4e-05
2062	1e-05
2074	2.88e-05
2086	5.12e-05
2098	4.52e-05
2110	6.2e-05
2122	2.8e-05
2134	1.72e-05
2146	2.96e-05
2158	2.6e-05
2170	4.2e-05
2182	3.32e-05
2194	4.12e-05
2206	5.92e-05
2218	3.16e-05
2230	3.76e-05
2242	2.32e-05
2254	5.76e-05
2266	5.08e-05
2278	6e-05
2290	4.56e-05
2302	4.04e-05
2314	7e-05
2326	6.32e-05
2338	7.24e-05
2350	7.56e-05
2362	6.92e-05
2374	3.76e-05
2386	4.96e-05
2398	5.48e-05
2410	4.56e-05
2422	6.04e-05
2434	6.16e-05
2446	4.6e-05
2458	4.92e-05
2470	2.76e-05
2482	2.44e-05
2494	3.64e-05
2506	7.08e-05
2518	5.08e-05
2530	3.76e-05
2542	4.48e-05
2554	3.2e-05
2566	3e-05
2578	4.88e-05
2590	6.64e-05
2602	2.56e-05
2614	4.48e-05
2626	3.56e-05
2638	3.68e-05
2650	6.04e-05
2662	3.88e-05
2674	5.48e-05
2686	3e-05
2698	6.8e-05
2710	5.96e-05
2722	5.12e-05
2734	2.92e-05
2746	5.76e-05
2758	9.52e-05
2770	8.4e-05
2782	7e-05
2794	0.0001072
2806	0.0001264
2818	0.00017
2830	0.0002216
2842	0.0003412
2854	0.000628
2866	0.0008708
2878	0.0009928
2890	0.0007824
2902	0.0009276
2914	0.0013816
2926	0.0019508
2938	0.0021004
2950	0.0015208
2962	0.0013152
2974	0.0019236
2986	0.0008264
2998	0.000642
3010	0.0008356
3022	0.0011164
3034	0.0014888
3046	0.0008896
3058	0.00081
3070	0.0011016
3082	0.0007012
3094	0.0004856
3106	0.0003372
3118	0.000242
3130	7.32e-05
3142	0.0001064
3154	6.08e-05
3166	6.84e-05
3178	7.12e-05
3190	5.56e-05
3202	2.2e-05
3214	7.8e-05
3226	4.32e-05
3238	3e-05
3250	2.36e-05
3262	2.8e-05
3274	4.84e-05
3286	5.48e-05
3298	9.96e-05
3310	4.76e-05
3322	2.88e-05
3334	6.36e-05
3346	5.16e-05
3358	4.44e-05
3370	5.56e-05
3382	6.64e-05
3394	1e-05
3406	6.24e-05
3418	2.36e-05
3430	5.2e-05
3442	1.52e-05
3454	3.44e-05
3466	4.16e-05
3478	7.32e-05
3490	0.000118
3502	4.36e-05
3514	3.52e-05
3526	8.28e-05
3538	6.92e-05
3550	4.72e-05
3562	7.84e-05
3574	6.92e-05
3586	8.48e-05
3598	0.000102
3610	0.000124
3622	0.0001664
3634	0.0003436
3646	0.0013864
3658	0.0013508
3670	0.0002948
3682	0.0001796
3694	0.0001288
3706	6.6e-05
3718	0.0001052
3730	9.52e-05
3742	0.0001064
3754	0.0001504
3766	0.0001112
3778	8.88e-05
3790	8.48e-05
3802	9.72e-05
3814	0.0001164
3826	0.00012
3838	0.0001312
