Infrared Spectrum: 1,2-Dihydronaphthalene
Formula: C 10 H 10
CAS: 447-53-0
State: gas
Instrument: HP-GC/MS/IRD
Origin: NIST Mass Spectrometry Data Center
1/CM	ABSORBANCE
550	0.0014418
562	0.0007488
574	0.0005652
586	0.0008082
598	0.0004068
610	3.96e-05
622	7.92e-05
634	3.06e-05
646	0.0001602
658	0.0004572
670	0.0019584
682	0.0043038
694	0.0041526
706	0.0020142
718	0.002088
730	0.0061614
742	0.012573
754	0.0081666
766	0.008271
778	0.0139536
790	0.0080766
802	0.0029358
814	0.0010386
826	0.0004284
838	0.0004356
850	0.0005508
862	0.000954
874	0.0015876
886	0.001728
898	0.0007632
910	0.0002898
922	0.0005112
934	0.0009
946	0.0007992
958	0.0005256
970	0.0002034
982	9.36e-05
994	0.0004752
1006	0.0014742
1018	0.0019692
1030	0.00216
1042	0.0014184
1054	0.0002268
1066	6.48e-05
1078	0.0001404
1090	0.0002862
1102	0.000585
1114	0.0007794
1126	0.000495
1138	0.0001476
1150	0.0002214
1162	0.0003564
1174	0.000387
1186	0.0005508
1198	0.0007974
1210	0.0009108
1222	0.000864
1234	0.0005508
1246	0.0001638
1258	0.0003474
1270	0.001116
1282	0.0013536
1294	0.0007632
1306	0.0004356
1318	0.0007812
1330	0.0009036
1342	0.0004302
1354	0.0002232
1366	0.0001872
1378	0.0002268
1390	0.0003114
1402	0.0003672
1414	0.0007164
1426	0.0016308
1438	0.0032634
1450	0.0037728
1462	0.0026082
1474	0.0026406
1486	0.0040932
1498	0.002583
1510	0.0006372
1522	0.0002844
1534	0.0001818
1546	0.0001638
1558	0.0001656
1570	0.0002106
1582	0.0003294
1594	0.000576
1606	0.000684
1618	0.0008028
1630	0.0010764
1642	0.0009342
1654	0.0004374
1666	0.000351
1678	0.0003906
1690	0.0003942
1702	0.0004986
1714	0.0005418
1726	0.0005526
1738	0.0004896
1750	0.000324
1762	0.0002376
1774	0.0002988
1786	0.0004698
1798	0.000531
1810	0.0004482
1822	0.0004284
1834	0.00036
1846	0.0002898
1858	0.0003618
1870	0.0004302
1882	0.000513
1894	0.0007344
1906	0.000729
1918	0.0005076
1930	0.0006516
1942	0.0005886
1954	0.0002232
1966	0.0001854
1978	0.0001152
1990	6.66e-05
2002	3.24e-05
2014	5.94e-05
2026	5.4e-05
2038	2.34e-05
2050	2.88e-05
2062	1.62e-05
2074	0
2086	3.42e-05
2098	5.76e-05
2110	8.1e-05
2122	8.46e-05
2134	4.32e-05
2146	1.44e-05
2158	7.2e-06
2170	2.34e-05
2182	5.04e-05
2194	5.94e-05
2206	3.42e-05
2218	6.3e-05
2230	7.2e-05
2242	8.46e-05
2254	6.66e-05
2266	0.0001008
2278	8.46e-05
2290	8.28e-05
2302	0.0001386
2314	0.0002088
2326	0.000189
2338	0.0001296
2350	0.0001296
2362	8.28e-05
2374	9.72e-05
2386	6.48e-05
2398	4.14e-05
2410	7.56e-05
2422	5.4e-05
2434	0.000108
2446	0.000108
2458	6.12e-05
2470	4.5e-05
2482	6.84e-05
2494	6.3e-05
2506	5.22e-05
2518	6.84e-05
2530	2.16e-05
2542	5.4e-05
2554	7.56e-05
2566	8.82e-05
2578	0.0001062
2590	0.000117
2602	0.000153
2614	0.000153
2626	0.0001656
2638	0.0002106
2650	0.0002088
2662	0.0001944
2674	0.0001908
2686	0.000189
2698	0.0001656
2710	0.0001332
2722	0.0001782
2734	0.0001908
2746	0.0002412
2758	0.0002826
2770	0.0003654
2782	0.0004572
2794	0.000558
2806	0.000756
2818	0.0014958
2830	0.004635
2842	0.0084762
2854	0.0064368
2866	0.003663
2878	0.0045468
2890	0.0071928
2902	0.0069462
2914	0.004788
2926	0.0067176
2938	0.0168966
2950	0.0162954
2962	0.0055692
2974	0.0019278
2986	0.001512
2998	0.0021312
3010	0.0052254
3022	0.0091602
3034	0.013806
3046	0.0137304
3058	0.0118728
3070	0.011313
3082	0.0071694
3094	0.0028998
3106	0.0015102
3118	0.0008244
3130	0.0005994
3142	0.0004572
3154	0.0003024
3166	0.0001854
3178	0.0002322
3190	0.0002664
3202	0.0002466
3214	0.0001764
3226	9.36e-05
3238	0.0001152
3250	0.000108
3262	8.1e-05
3274	8.82e-05
3286	0.0001206
3298	6.66e-05
3310	0.0001152
3322	0.0001098
3334	7.02e-05
3346	5.22e-05
3358	5.22e-05
3370	7.92e-05
3382	9.9e-05
3394	2.88e-05
3406	5.58e-05
3418	4.68e-05
3430	4.32e-05
3442	6.84e-05
3454	3.06e-05
3466	8.1e-05
3478	5.58e-05
3490	4.86e-05
3502	8.1e-05
3514	8.64e-05
3526	9e-05
3538	7.2e-05
3550	6.66e-05
3562	7.02e-05
3574	7.2e-05
3586	6.66e-05
3598	3.96e-05
3610	8.28e-05
3622	7.02e-05
3634	8.82e-05
3646	5.04e-05
3658	7.92e-05
3670	6.84e-05
3682	3.96e-05
3694	9e-05
3706	0.0001044
3718	0.0001116
3730	0.0001224
3742	9e-05
3754	9.9e-05
3766	0.0001476
3778	0.0001476
3790	0.0001368
3802	0.0001242
3814	0.000153
3826	0.0001332
3838	0.0001296
