Infrared Spectrum: 2-Trifluoromethylbenzonitrile
Formula: C 8 H 4 F 3 N
CAS: 447-60-9
State: gas
Origin: EPA-IR VAPOR PHASE LIBRARY
1/CM	ABSORBANCE
549.9	0.0126
559.547	0.00685
569.193	0.00372
578.84	0.00388
588.486	0.00549
598.133	0.00678
607.779	0.00494
617.426	0.0034932
627.072	0.0034141
636.719	0.00447
646.365	0.0149
656.012	0.01706
665.658	0.00672
675.305	0.0031088
684.951	0.0031167
694.598	0.0029454
704.245	0.0029374
713.891	0.0030326
723.538	0.00476
733.184	0.00929
742.831	0.01619
752.477	0.0356
762.124	0.05566
771.77	0.0436
781.417	0.01826
791.063	0.00541
800.71	0.00479
810.356	0.00379
820.003	0.0028785
829.649	0.0025467
839.296	0.00264621
848.943	0.0031576
858.589	0.00363
868.236	0.00362
877.882	0.0031303
887.529	0.00262993
897.175	0.0030826
906.822	0.00388
916.468	0.0042
926.115	0.0035578
935.761	0.0029826
945.408	0.00367
955.054	0.00579
964.701	0.00518
974.347	0.00362
983.994	0.0027894
993.64	0.0028296
1003.29	0.0031269
1012.93	0.00467
1022.58	0.01576
1032.23	0.03848
1041.87	0.03924
1051.52	0.04711
1061.17	0.0602
1070.81	0.02745
1080.46	0.01069
1090.11	0.00857
1099.75	0.01195
1109.4	0.0359
1119.05	0.06097
1128.69	0.05343
1138.34	0.061
1147.99	0.11865
1157.63	0.19724
1167.28	0.25759
1176.92	0.23592
1186.57	0.16443
1196.22	0.10956
1205.86	0.05877
1215.51	0.02309
1225.16	0.01278
1234.8	0.0098
1244.45	0.00941
1254.1	0.01563
1263.74	0.03876
1273.39	0.04872
1283.04	0.04418
1292.68	0.05467
1302.33	0.0864
1311.98	0.20541
1321.62	0.23526
1331.27	0.08528
1340.92	0.0213
1350.56	0.01543
1360.21	0.01255
1369.86	0.00736
1379.5	0.00508
1389.15	0.00484
1398.79	0.00494
1408.44	0.00427
1418.09	0.0035022
1427.73	0.00404
1437.38	0.00804
1447.03	0.01644
1456.67	0.01617
1466.32	0.00713
1475.97	0.00606
1485.61	0.00889
1495.26	0.0096
1504.91	0.00648
1514.55	0.0036
1524.2	0.0034079
1533.85	0.0034666
1543.49	0.0031164
1553.14	0.0030668
1562.79	0.00409
1572.43	0.00787
1582.08	0.01053
1591.73	0.00783
1601.37	0.00623
1611.02	0.00489
1620.67	0.00377
1630.31	0.00509
1639.96	0.00639
1649.6	0.00534
1659.25	0.00356
1668.9	0.002733
1678.54	0.002453
1688.19	0.002411
1697.84	0.0026064
1707.48	0.002856
1717.13	0.0033542
1726.78	0.0033582
1736.42	0.0029281
1746.07	0.0027466
1755.72	0.0026911
1765.36	0.00264124
1775.01	0.002457
1784.66	0.002401
1794.3	0.0025049
1803.95	0.00258356
1813.6	0.0027382
1823.24	0.0033391
1832.89	0.00429
1842.54	0.0038
1852.18	0.0028818
1861.83	0.0030717
1871.47	0.0029921
1881.12	0.0025045
1890.77	0.002353
1900.41	0.00262061
1910.06	0.0029776
1919.71	0.0030767
1929.35	0.0031993
1939	0.00418
1948.65	0.00414
1958.29	0.0031989
1967.94	0.0035014
1977.59	0.0037
1987.23	0.0027204
1996.88	0.002148
2006.53	0.00199
2016.17	0.001975
2025.82	0.001992
2035.47	0.001976
2045.11	0.002022
2054.76	0.00207
2064.41	0.002062
2074.05	0.002
2083.7	0.001908
2093.35	0.001882
2102.99	0.001945
2112.64	0.002092
2122.28	0.002165
2131.93	0.001897
2141.58	0.001746
2151.22	0.00175
2160.87	0.001775
2170.52	0.001783
2180.16	0.001814
2189.81	0.001906
2199.46	0.002011
2209.1	0.002081
2218.75	0.002294
2228.4	0.0028581
2238.04	0.0031175
2247.69	0.002724
2257.34	0.002341
2266.98	0.002238
2276.63	0.002313
2286.28	0.002452
2295.92	0.002393
2305.57	0.002297
2315.22	0.002281
2324.86	0.002456
2334.51	0.0027207
2344.16	0.0027811
2353.8	0.0025046
2363.45	0.002426
2373.09	0.002327
2382.74	0.002117
2392.39	0.00191
2402.03	0.001775
2411.68	0.001573
2421.33	0.001577
2430.97	0.00156
2440.62	0.00155
2450.27	0.001601
2459.91	0.001624
2469.56	0.001656
2479.21	0.001844
2488.85	0.001843
2498.5	0.001677
2508.15	0.00156
2517.79	0.00148
2527.44	0.00138
2537.09	0.00135
2546.73	0.00134
2556.38	0.00137
2566.03	0.00132
2575.67	0.00131
2585.32	0.00131
2594.96	0.0013
2604.61	0.00141
2614.26	0.00145
2623.9	0.00134
2633.55	0.00129
2643.2	0.00121
2652.84	0.00102
2662.49	0.00104
2672.14	0.00092
2681.78	0.00095
2691.43	0.00089
2701.08	0.00096
2710.72	0.00087
2720.37	0.00089
2730.02	0.00086
2739.66	0.00076
2749.31	0.00078
2758.96	0.00081
2768.6	0.00085
2778.25	0.00079
2787.9	0.00083
2797.54	0.00076
2807.19	0.00063
2816.84	0.00053
2826.48	0.0005
2836.13	0.00036
2845.77	0.00043
2855.42	0.00031
2865.07	0.0003
2874.71	0.00037
2884.36	0.00035
2894.01	0.00044
2903.65	0.00051
2913.3	0.00037
2922.95	0.00041
2932.59	0.00018
2942.24	0.00011
2951.89	4e-05
2961.53	7e-05
2971.18	6e-05
2980.83	0.00017
2990.47	0.00015
3000.12	0.00034
3009.77	0.00054
3019.41	0.00067
3029.06	0.00054
3038.71	0.00096
3048.35	0.00141
3058	0.001864
3067.64	0.0033557
3077.29	0.00626
3086.94	0.00825
3096.58	0.00514
3106.23	0.00128
3115.88	0.00074
3125.52	0.00059
3135.17	0.00047
3144.82	0.00051
3154.46	0.00055
3164.11	0.00057
3173.76	0.00061
3183.4	0.00063
3193.05	0.00059
3202.7	0.00049
3212.34	0.00046
3221.99	0.00046
3231.64	0.00039
3241.28	0.00068
3250.93	0.00055
3260.58	0.0006
3270.22	0.00072
3279.87	0.00072
3289.52	0.00064
3299.16	0.00082
3308.81	0.00082
3318.45	0.00095
3328.1	0.00092
3337.75	0.0009
3347.39	0.00114
3357.04	0.00127
3366.69	0.00105
3376.33	0.00101
3385.98	0.00112
3395.63	0.0012
3405.27	0.00115
3414.92	0.00142
3424.57	0.001562
3434.21	0.00156
3443.86	0.00139
3453.51	0.00144
3463.15	0.00149
3472.8	0.00149
3482.45	0.00147
3492.09	0.00143
3501.74	0.00151
3511.39	0.001622
3521.03	0.00151
3530.68	0.001675
3540.33	0.001643
3549.97	0.00173
3559.62	0.001666
3569.26	0.001642
3578.91	0.00152
3588.56	0.001604
3598.2	0.001729
3607.85	0.001603
3617.5	0.00148
3627.14	0.00162
3636.79	0.001658
3646.44	0.00155
3656.08	0.00164
3665.73	0.001582
3675.38	0.001691
3685.02	0.001759
3694.67	0.001891
3704.32	0.001687
3713.96	0.00189
3723.61	0.001762
3733.26	0.001664
3742.9	0.001765
3752.55	0.001673
3762.2	0.001599
3771.84	0.001707
3781.49	0.001693
3791.13	0.00154
3800.78	0.001652
3810.43	0.001698
3820.07	0.001667
3829.72	0.001726
3839.37	0.001711
3849.01	0.001605
3858.66	0.001617
3868.31	0.001796
3877.95	0.001821
3887.6	0.001926
3897.25	0.00177
3906.89	0.00154
3916.54	0.001562
3926.19	0.0015
3935.83	0.00144
3945.48	0.00144
3955.13	0.00146
3964.77	0.00144
3974.42	0.00139
3984.07	0.00138
3993.71	0.00139
