Infrared Spectrum: N-Tritylaniline
Formula: C 25 H 21 N
CAS: 4471-22-1
State: gas
Origin: EPA-IR VAPOR PHASE LIBRARY
1/CM	ABSORBANCE
549.8	0.0004699
559.445	0.00032525
569.09	0.0001825
578.734	0.0004874
588.379	0.0012242
598.024	0.001332
607.669	0.001472
617.313	0.0009615
626.958	0.001602
636.603	0.001732
646.248	0.0012328
655.893	0.001602
665.537	0.001492
675.182	0.002252
684.827	0.003782
694.472	0.007322
704.116	0.008812
713.761	0.003772
723.406	0.002302
733.051	0.002442
742.695	0.005122
752.34	0.004592
761.985	0.003402
771.63	0.001702
781.275	0.0010001
790.919	0.0009108
800.564	0.0008607
810.209	0.0007537
819.854	0.0007407
829.498	0.0007995
839.143	0.0007705
848.788	0.0008046
858.433	0.0006556
868.078	0.0009689
877.722	0.0006625
887.367	0.000927
897.012	0.001412
906.657	0.001135
916.301	0.0008884
925.946	0.0008101
935.591	0.0007806
945.236	0.0005724
954.88	0.000614
964.525	0.0005626
974.17	0.0004551
983.815	0.0004013
993.46	0.0006682
1003.1	0.0008626
1012.75	0.0011614
1022.39	0.0009962
1032.04	0.002042
1041.68	0.001272
1051.33	0.0010145
1060.97	0.000702
1070.62	0.00031458
1080.26	0.0009403
1089.91	0.0010549
1099.55	0.0005788
1109.2	0.0007524
1118.84	0.0003636
1128.49	0.000438
1138.13	0.0004482
1147.78	0.0010411
1157.42	0.001292
1167.07	0.001242
1176.71	0.001542
1186.36	0.001662
1196	0.001462
1205.64	0.0010099
1215.29	0.0008863
1224.93	0.001196
1234.58	0.001742
1244.22	0.002692
1253.87	0.002202
1263.51	0.001502
1273.16	0.002002
1282.8	0.002122
1292.45	0.002632
1302.09	0.003482
1311.74	0.002772
1321.38	0.002002
1331.03	0.001372
1340.67	0.001112
1350.32	0.0007358
1359.96	0.0006329
1369.61	0.0006549
1379.25	0.0007073
1388.9	0.000692
1398.54	0.000734
1408.18	0.000829
1417.83	0.001412
1427.47	0.001982
1437.12	0.001762
1446.76	0.002842
1456.41	0.001622
1466.05	0.001742
1475.7	0.002972
1485.34	0.005922
1494.99	0.010512
1504.63	0.006442
1514.28	0.002412
1523.92	0.001422
1533.57	0.0011064
1543.21	0.0010341
1552.86	0.0010099
1562.5	0.001228
1572.15	0.001622
1581.79	0.002602
1591.44	0.005132
1601.08	0.006772
1610.73	0.003282
1620.37	0.001842
1630.01	0.001312
1639.66	0.0009025
1649.3	0.0007224
1658.95	0.0006543
1668.59	0.0007325
1678.24	0.0007886
1687.88	0.000693
1697.53	0.0005194
1707.17	0.0006147
1716.82	0.0005776
1726.46	0.0005125
1736.11	0.0004811
1745.75	0.0005887
1755.4	0.0006358
1765.04	0.0006487
1774.69	0.0005987
1784.33	0.0006251
1793.98	0.0006596
1803.62	0.0008633
1813.27	0.0007241
1822.91	0.0005937
1832.55	0.0005391
1842.2	0.0004805
1851.84	0.0004943
1861.49	0.0005222
1871.13	0.0006054
1880.78	0.0006363
1890.42	0.0006144
1900.07	0.0006729
1909.71	0.0006234
1919.36	0.0005998
1929	0.0006117
1938.65	0.0006845
1948.29	0.0007913
1957.94	0.0006681
1967.58	0.0004937
1977.23	0.0004114
1986.87	0.0004573
1996.52	0.0004482
2006.16	0.0003572
2015.81	0.00034192
2025.45	0.0004439
2035.1	0.0004746
2044.74	0.0004233
2054.38	0.0004654
2064.03	0.0005093
2073.67	0.0004159
2083.32	0.0004132
2092.96	0.0003436
2102.61	0.00031083
2112.25	0.000385
2121.9	0.0003704
2131.54	0.0003466
2141.19	0.0003984
2150.83	0.0004422
2160.48	0.0003765
2170.12	0.0004789
2179.77	0.0004415
2189.41	0.0004154
2199.06	0.0003812
2208.7	0.0003979
2218.35	0.0003913
2227.99	0.0004269
2237.64	0.0004289
2247.28	0.0004137
2256.92	0.0004537
2266.57	0.000388
2276.21	0.000361
2285.86	0.0003832
2295.5	0.0004554
2305.15	0.0005284
2314.79	0.0004792
2324.44	0.0004038
2334.08	0.0004099
2343.73	0.0003536
2353.37	0.0003946
2363.02	0.0003992
2372.66	0.0003764
2382.31	0.0004912
2391.95	0.0004292
2401.6	0.0003642
2411.24	0.0004116
2420.89	0.0005211
2430.53	0.0003964
2440.18	0.0005008
2449.82	0.00045
2459.47	0.0003721
2469.11	0.0004283
2478.75	0.0004364
2488.4	0.0003839
2498.04	0.0003928
2507.69	0.0004853
2517.33	0.0004105
2526.98	0.0004155
2536.62	0.0004563
2546.27	0.0004513
2555.91	0.0004675
2565.56	0.000515
2575.2	0.0004684
2584.85	0.000447
2594.49	0.0003888
2604.14	0.0004005
2613.78	0.00030295
2623.43	0.0003982
2633.07	0.0003695
2642.72	0.0005037
2652.36	0.0003963
2662.01	0.0004916
2671.65	0.0004202
2681.29	0.0003983
2690.94	0.0003899
2700.58	0.0003663
2710.23	0.0003688
2719.87	0.000382
2729.52	0.00027009
2739.16	0.0004103
2748.81	0.0004567
2758.45	0.0004378
2768.1	0.0004726
2777.74	0.0003706
2787.39	0.0005241
2797.03	0.0005106
2806.68	0.0004213
2816.32	0.00033179
2825.97	0.0004002
2835.61	0.0005425
2845.26	0.0004095
2854.9	0.0004572
2864.55	0.000371
2874.19	0.0005228
2883.84	0.0003948
2893.48	0.0004228
2903.12	0.0003896
2912.77	0.0004294
2922.41	0.0004527
2932.06	0.000511
2941.7	0.0005683
2951.35	0.0005243
2960.99	0.0003855
2970.64	0.0004899
2980.28	0.0005334
2989.93	0.0006927
2999.57	0.0006429
3009.22	0.001332
3018.86	0.002332
3028.51	0.002932
3038.15	0.003022
3047.8	0.002712
3057.44	0.004852
3067.09	0.006942
3076.73	0.004702
3086.38	0.003172
3096.02	0.002302
3105.67	0.001452
3115.31	0.0010474
3124.95	0.0005854
3134.6	0.0005073
3144.24	0.0003467
3153.89	0.0003514
3163.53	0.0004361
3173.18	0.00028161
3182.82	0.0004494
3192.47	0.000356
3202.11	0.0004568
3211.76	0.0003654
3221.4	0.0003702
3231.05	0.00029748
3240.69	0.0004483
3250.34	0.00025548
3259.98	0.0004284
3269.63	0.0004013
3279.27	0.00029484
3288.92	0.000247415
3298.56	0.00030519
3308.21	0.0004407
3317.85	0.0004235
3327.49	0.00030818
3337.14	0.0003698
3346.78	0.0006078
3356.43	0.000245786
3366.07	0.000113
3375.72	0.00029941
3385.36	0.00025268
3395.01	0.0004829
3404.65	0.0004102
3414.3	0.0004432
3423.94	0.0004999
3433.59	0.0008306
3443.23	0.0006826
3452.88	0.0005749
3462.52	0.0004895
3472.17	0.0004626
3481.81	0.0003659
3491.46	0.0003441
3501.1	0.0003809
3510.75	0.0004174
3520.39	0.0004673
3530.04	0.00030402
3539.68	0.0003941
3549.32	0.0003627
3558.97	0.0001912
3568.61	0.0003564
3578.26	0.0003951
3587.9	0.0003586
3597.55	0
3607.19	0.0003863
3616.84	0.0005085
3626.48	0.0004474
3636.13	0.0004826
3645.77	0.00028424
3655.42	0.0004903
3665.06	0.00028548
3674.71	0.00045
3684.35	0.0003655
3694	0.0004062
3703.64	0.0004582
3713.29	0.0004203
3722.93	0.0003796
3732.58	0.00030008
3742.22	0.000125
3751.86	0.00026394
3761.51	0.0003565
3771.15	0.00028071
3780.8	0.0002225
3790.44	0.00026768
3800.09	0.0002207
3809.73	0.0003603
3819.38	0.00025442
3829.02	0.0004338
3838.67	0.0003461
3848.31	0.00026425
3857.96	0.0002996
3867.6	0.00026807
3877.25	0.000372
3886.89	0.0004031
3896.54	0.0004075
3906.18	0.0001813
3915.83	0.0004711
3925.47	0.0004879
3935.12	0.00014
3944.76	0.0001648
3954.41	0.00026728
3964.05	0.0004178
3973.69	0.00032829
3983.34	0.0005401
3992.98	0.000243392
