Infrared Spectrum: (-)-2-Aminoheptane
Formula: C 7 H 17 N
CAS: 44745-29-1
State: gas
Origin: EPA-IR VAPOR PHASE LIBRARY
1/CM	ABSORBANCE
549.8	0.006134
559.445	0.005484
569.09	0.005674
578.734	0.006274
588.379	0.006424
598.024	0.006314
607.669	0.006384
617.313	0.005714
626.958	0.006074
636.603	0.006374
646.248	0.006314
655.893	0.008144
665.537	0.008894
675.182	0.009564
684.827	0.010434
694.472	0.011814
704.116	0.013764
713.761	0.016144
723.406	0.019314
733.051	0.023024
742.695	0.026654
752.34	0.032054
761.985	0.037924
771.63	0.045764
781.275	0.051804
790.919	0.050874
800.564	0.040684
810.209	0.030214
819.854	0.022104
829.498	0.019634
839.143	0.016434
848.788	0.014024
858.433	0.011924
868.078	0.010014
877.722	0.008484
887.367	0.007474
897.012	0.006604
906.657	0.006844
916.301	0.006514
925.946	0.005854
935.591	0.005894
945.236	0.006334
954.88	0.007114
964.525	0.006754
974.17	0.005854
983.815	0.005164
993.46	0.004654
1003.1	0.005384
1012.75	0.005684
1022.39	0.005774
1032.04	0.007164
1041.68	0.007604
1051.33	0.007664
1060.97	0.007234
1070.62	0.007234
1080.26	0.008434
1089.91	0.007944
1099.55	0.008324
1109.2	0.009624
1118.84	0.009874
1128.49	0.012004
1138.13	0.014084
1147.78	0.016984
1157.42	0.014244
1167.07	0.010624
1176.71	0.008954
1186.36	0.009154
1196	0.009324
1205.64	0.011484
1215.29	0.008944
1224.93	0.008274
1234.58	0.007274
1244.22	0.007404
1253.87	0.005464
1263.51	0.005854
1273.16	0.006034
1282.8	0.006224
1292.45	0.006514
1302.09	0.007534
1311.74	0.008834
1321.38	0.010264
1331.03	0.013084
1340.67	0.016714
1350.32	0.018594
1359.96	0.020624
1369.61	0.025814
1379.25	0.029304
1388.9	0.023464
1398.54	0.014364
1408.18	0.009774
1417.83	0.008484
1427.47	0.010014
1437.12	0.014054
1446.76	0.020204
1456.41	0.026254
1466.05	0.026174
1475.7	0.019844
1485.34	0.012694
1494.99	0.008444
1504.63	0.006884
1514.28	0.005694
1523.92	0.005554
1533.57	0.005444
1543.21	0.004804
1552.86	0.005254
1562.5	0.005344
1572.15	0.006124
1581.79	0.007384
1591.44	0.009804
1601.08	0.013254
1610.73	0.018214
1620.37	0.020324
1630.01	0.017564
1639.66	0.011954
1649.3	0.007864
1658.95	0.005394
1668.59	0.004444
1678.24	0.003754
1687.88	0.003124
1697.53	0.002974
1707.17	0.002484
1716.82	0.002634
1726.46	0.002474
1736.11	0.002364
1745.75	0.002254
1755.4	0.001884
1765.04	0.001724
1774.69	0.001824
1784.33	0.001874
1793.98	0.001774
1803.62	0.001904
1813.27	0.001994
1822.91	0.001844
1832.55	0.001684
1842.2	0.001874
1851.84	0.001664
1861.49	0.001634
1871.13	0.001614
1880.78	0.001634
1890.42	0.001714
1900.07	0.001357
1909.71	0.001544
1919.36	0.0012426
1929	0.001494
1938.65	0.0013983
1948.29	0.0012671
1957.94	0.00102
1967.58	0.0011976
1977.23	0.0012723
1986.87	0.0010775
1996.52	0.0012296
2006.16	0.0010303
2015.81	0.0013383
2025.45	0.001584
2035.1	0.0014425
2044.74	0.0011775
2054.38	0.0012505
2064.03	0.0012615
2073.67	0.0012641
2083.32	0.0014228
2092.96	0.0011936
2102.61	0.0010996
2112.25	0.0012409
2121.9	0.0011281
2131.54	0.0011734
2141.19	0.0011031
2150.83	0.001614
2160.48	0.0013176
2170.12	0.0012573
2179.77	0.0010776
2189.41	0.0013877
2199.06	0.0013766
2208.7	0.0011523
2218.35	0.0010319
2227.99	0.0011919
2237.64	0.0013685
2247.28	0.0012058
2256.92	0.001157
2266.57	0.0014107
2276.21	0.0010725
2285.86	0.001544
2295.5	0.0013627
2305.15	0.001504
2314.79	0.001534
2324.44	0.0012853
2334.08	0.001356
2343.73	0.0012359
2353.37	0.0012496
2363.02	0.0011934
2372.66	0.0013269
2382.31	0.0013993
2391.95	0.0013973
2401.6	0.0013676
2411.24	0.001664
2420.89	0.0013791
2430.53	0.0013357
2440.18	0.0013743
2449.82	0.0012379
2459.47	0.001454
2469.11	0.0014047
2478.75	0.001904
2488.4	0.0012733
2498.04	0.001534
2507.69	0.001634
2517.33	0.001694
2526.98	0.001484
2536.62	0.002134
2546.27	0.002024
2555.91	0.002284
2565.56	0.002124
2575.2	0.002874
2584.85	0.002724
2594.49	0.003014
2604.14	0.003234
2613.78	0.003574
2623.43	0.003504
2633.07	0.003904
2642.72	0.004134
2652.36	0.004344
2662.01	0.004724
2671.65	0.004904
2681.29	0.004374
2690.94	0.004654
2700.58	0.004824
2710.23	0.004684
2719.87	0.004874
2729.52	0.005814
2739.16	0.006014
2748.81	0.005794
2758.45	0.005844
2768.1	0.006034
2777.74	0.007154
2787.39	0.008284
2797.03	0.010104
2806.68	0.012874
2816.32	0.016074
2825.97	0.021854
2835.61	0.032424
2845.26	0.049784
2854.9	0.072694
2864.55	0.090734
2874.19	0.097854
2883.84	0.094754
2893.48	0.092034
2903.12	0.107554
2912.77	0.145394
2922.41	0.193554
2932.06	0.222794
2941.7	0.203854
2951.35	0.175104
2960.99	0.182664
2970.64	0.170674
2980.28	0.105264
2989.93	0.050844
2999.57	0.026004
3009.22	0.016944
3018.86	0.013244
3028.51	0.010464
3038.15	0.008184
3047.8	0.007354
3057.44	0.006504
3067.09	0.005494
3076.73	0.005264
3086.38	0.005374
3096.02	0.004454
3105.67	0.004184
3115.31	0.003594
3124.95	0.003884
3134.6	0.003244
3144.24	0.002794
3153.89	0.002514
3163.53	0.002884
3173.18	0.003214
3182.82	0.003104
3192.47	0.003464
3202.11	0.002834
3211.76	0.002614
3221.4	0.002564
3231.05	0.001584
3240.69	0.0013761
3250.34	0.001694
3259.98	0.0014002
3269.63	0.0007287
3279.27	0.0010957
3288.92	0.001464
3298.56	0.0012674
3308.21	0.001524
3317.85	0.001884
3327.49	0.003284
3337.14	0.002744
3346.78	0.002604
3356.43	0.001814
3366.07	0.002324
3375.72	0.001854
3385.36	0.001514
3395.01	0.0010519
3404.65	0.0010043
3414.3	0.0009816
3423.94	0.0014224
3433.59	0.0011286
3443.23	0.0007784
3452.88	0.0009038
3462.52	0.0014344
3472.17	0.0007141
3481.81	0.0013106
3491.46	0.0006826
3501.1	0.0011539
3510.75	0.0010046
3520.39	0.0007498
3530.04	0.0008931
3539.68	0.0005504
3549.32	0.0003864
3558.97	0.002164
3568.61	0.0012018
3578.26	0.0007789
3587.9	0.0007169
3597.55	0.0007702
3607.19	0.000591
3616.84	0.0006092
3626.48	0.0012595
3636.13	0.0011999
3645.77	0.0006399
3655.42	0.0006675
3665.06	0.0005552
3674.71	0.0010628
3684.35	0.000293
3694	0.000124
3703.64	0.00055
3713.29	0.0005473
3722.93	0.0011391
3732.58	0.0007639
3742.22	0.001254
3751.86	0.0011687
3761.51	0.0010217
3771.15	0.0014224
3780.8	0.0007308
3790.44	0.0007683
3800.09	0.0011839
3809.73	0.0009923
3819.38	0.001181
3829.02	0.0013793
3838.67	0.00051631
3848.31	0.0011274
3857.96	0.001514
3867.6	0.001252
3877.25	0.0010295
3886.89	0.0006706
3896.54	0.001904
3906.18	0.0012456
3915.83	0.0013414
3925.47	0.0011171
3935.12	0.0006195
3944.76	0.0008407
3954.41	0.0010226
3964.05	0.0008197
3973.69	0.001844
3983.34	0.0013925
3992.98	0.0013066
