Infrared Spectrum: 4-Isopropylphenylacetic acid
Formula: C 11 H 14 O 2
CAS: 4476-28-2
State: gas
Origin: EPA-IR VAPOR PHASE LIBRARY
1/CM	ABSORBANCE
549.8	0.004989
559.445	0.006239
569.09	0.008559
578.734	0.008299
588.379	0.007629
598.024	0.008599
607.669	0.010089
617.313	0.009409
626.958	0.008259
636.603	0.007559
646.248	0.005979
655.893	0.005839
665.537	0.006399
675.182	0.005649
684.827	0.004129
694.472	0.002539
704.116	0.001919
713.761	0.003109
723.406	0.0015398
733.051	0.0014836
742.695	0.0017605
752.34	0.002239
761.985	0.002309
771.63	0.001939
781.275	0.0018211
790.919	0.002009
800.564	0.004829
810.209	0.006139
819.854	0.004669
829.498	0.003039
839.143	0.002759
848.788	0.002749
858.433	0.002029
868.078	0.002139
877.722	0.002399
887.367	0.002029
897.012	0.002149
906.657	0.001486
916.301	0.001969
925.946	0.002239
935.591	0.0017173
945.236	0.002259
954.88	0.0015491
964.525	0.0011758
974.17	0.0011529
983.815	0.0010412
993.46	0.0007802
1003.1	0.00094145
1012.75	0.0018407
1022.39	0.003499
1032.04	0.0017579
1041.68	0.002499
1051.33	0.004629
1060.97	0.003549
1070.62	0.006509
1080.26	0.009129
1089.91	0.014279
1099.55	0.022969
1109.2	0.032689
1118.84	0.030589
1128.49	0.019089
1138.13	0.013029
1147.78	0.009749
1157.42	0.006619
1167.07	0.005829
1176.71	0.006449
1186.36	0.006189
1196	0.009489
1205.64	0.008929
1215.29	0.010119
1224.93	0.008789
1234.58	0.007519
1244.22	0.005809
1253.87	0.004609
1263.51	0.005679
1273.16	0.005959
1282.8	0.005119
1292.45	0.004819
1302.09	0.005979
1311.74	0.005379
1321.38	0.005349
1331.03	0.005379
1340.67	0.006269
1350.32	0.007079
1359.96	0.008049
1369.61	0.007519
1379.25	0.005599
1388.9	0.004579
1398.54	0.003809
1408.18	0.003779
1417.83	0.004139
1427.47	0.004159
1437.12	0.003869
1446.76	0.003299
1456.41	0.003529
1466.05	0.003769
1475.7	0.003349
1485.34	0.002449
1494.99	0.002849
1504.63	0.004699
1514.28	0.008199
1523.92	0.004249
1533.57	0.0015765
1543.21	0.0016349
1552.86	0.0012339
1562.5	0.0011062
1572.15	0.0013021
1581.79	0.0011291
1591.44	0.0012337
1601.08	0.0010671
1610.73	0.0014167
1620.37	0.001445
1630.01	0.0015103
1639.66	0.001605
1649.3	0.0015868
1658.95	0.0014302
1668.59	0.0015425
1678.24	0.0015828
1687.88	0.001919
1697.53	0.002119
1707.17	0.002619
1716.82	0.003389
1726.46	0.004899
1736.11	0.007529
1745.75	0.012019
1755.4	0.018449
1765.04	0.026209
1774.69	0.034529
1784.33	0.034539
1793.98	0.025919
1803.62	0.016609
1813.27	0.008869
1822.91	0.004599
1832.55	0.002859
1842.2	0.001999
1851.84	0.0017455
1861.49	0.0015638
1871.13	0.0014079
1880.78	0.0013239
1890.42	0.0015682
1900.07	0.0017802
1909.71	0.0012624
1919.36	0.0010507
1929	0.0007531
1938.65	0.0009498
1948.29	0.0007902
1957.94	0.0010183
1967.58	0.0011757
1977.23	0.00094023
1986.87	0.0009657
1996.52	0.0009916
2006.16	0.0007921
2015.81	0.0010405
2025.45	0.000762
2035.1	0.000658
2044.74	0.000668
2054.38	0.0007989
2064.03	0.000578
2073.67	0.0006
2083.32	0.00087157
2092.96	0.000828
2102.61	0.0007833
2112.25	0.000476
2121.9	0.000481
2131.54	0.00086865
2141.19	0.0008358
2150.83	0.00089267
2160.48	0.0008222
2170.12	0.00089124
2179.77	0.0008429
2189.41	0.0009277
2199.06	0.0008189
2208.7	0.0007629
2218.35	0.000674
2227.99	0.000707
2237.64	0.000532
2247.28	0.000743
2256.92	0.000621
2266.57	0.000688
2276.21	0.0009995
2285.86	0.0007721
2295.5	0.000665
2305.15	0.0008304
2314.79	0.0007538
2324.44	0.0009638
2334.08	0.0008806
2343.73	0.000711
2353.37	0.0008158
2363.02	0.0011311
2372.66	0.0008233
2382.31	0.0009969
2391.95	0.00069
2401.6	0.000632
2411.24	0.000441
2420.89	0.0007603
2430.53	0.000654
2440.18	0.000669
2449.82	0.000591
2459.47	0.000617
2469.11	0.0012378
2478.75	0.000718
2488.4	0.000514
2498.04	0.000318
2507.69	0.0007718
2517.33	0.000526
2526.98	0.0009886
2536.62	0.000214
2546.27	0.0009577
2555.91	0.000576
2565.56	0.0008306
2575.2	0.00084971
2584.85	0.000513
2594.49	0.000706
2604.14	0.0011502
2613.78	0.000746
2623.43	0.000741
2633.07	0.0012636
2642.72	0.000729
2652.36	0.000493
2662.01	0.00067
2671.65	0.00063
2681.29	0.00088441
2690.94	0.0008332
2700.58	0.000657
2710.23	0.00093012
2719.87	0.000735
2729.52	0.00090644
2739.16	0.00090526
2748.81	0.0011562
2758.45	0.00093137
2768.1	0.000519
2777.74	0.000568
2787.39	0.000632
2797.03	0.000659
2806.68	0.0007647
2816.32	0.00063
2825.97	0.0007623
2835.61	0.0011791
2845.26	0.001383
2854.9	0.0015382
2864.55	0.003339
2874.19	0.005089
2883.84	0.007009
2893.48	0.006799
2903.12	0.006469
2912.77	0.007209
2922.41	0.007399
2932.06	0.008939
2941.7	0.010209
2951.35	0.010309
2960.99	0.018889
2970.64	0.026719
2980.28	0.013309
2989.93	0.006089
2999.57	0.004349
3009.22	0.003959
3018.86	0.004739
3028.51	0.006339
3038.15	0.004539
3047.8	0.004469
3057.44	0.003739
3067.09	0.003199
3076.73	0.002699
3086.38	0.002839
3096.02	0.002339
3105.67	0.001909
3115.31	0.0015964
3124.95	0.0008297
3134.6	0.001532
3144.24	0.0010679
3153.89	0.000672
3163.53	0.000582
3173.18	0.000714
3182.82	0.0010414
3192.47	0.0009995
3202.11	0.000713
3211.76	0.0011236
3221.4	0.000511
3231.05	0.0010638
3240.69	0.000705
3250.34	0.000303
3259.98	0.000442
3269.63	0.000495
3279.27	0.000655
3288.92	0.000432
3298.56	0.0007735
3308.21	0.000639
3317.85	0.00091685
3327.49	0.0012024
3337.14	0.0014242
3346.78	0.000447
3356.43	0.000453
3366.07	0.000442
3375.72	0.000534
3385.36	0.0013377
3395.01	0.000351
3404.65	0.000389
3414.3	0.000601
3423.94	0.000851205
3433.59	0.00084022
3443.23	0.0010326
3452.88	0.0011265
3462.52	0.000491
3472.17	0.000727
3481.81	0.0010726
3491.46	0.00069
3501.1	0.00068
3510.75	0.0012705
3520.39	0.0013828
3530.04	0.0011836
3539.68	0.0018354
3549.32	0.002959
3558.97	0.005059
3568.61	0.013559
3578.26	0.015469
3587.9	0.005109
3597.55	0.002229
3607.19	0.0013524
3616.84	0.0013226
3626.48	0.0012411
3636.13	0.0011581
3645.77	0.000672
3655.42	0.000672
3665.06	0.000713
3674.71	0.0016097
3684.35	0.0011471
3694	0.00066
3703.64	0.0009583
3713.29	0.000678
3722.93	0.0007738
3732.58	0.000387
3742.22	0.000487
3751.86	0.000626
3761.51	0.000243
3771.15	0.0008019
3780.8	0.000684
3790.44	0.00072
3800.09	0.000253
3809.73	0.000555
3819.38	0.000673
3829.02	0.000552
3838.67	0.000623
3848.31	0.001098
3857.96	0
3867.6	0.0009715
3877.25	0.000762
3886.89	0.000671
3896.54	0.0007516
3906.18	0.0011335
3915.83	0.001048
3925.47	0.000143
3935.12	0.0008315
3944.76	0.000169
3954.41	0.000525
3964.05	0.0010422
3973.69	0.00089242
3983.34	0.0010368
3992.98	0.000461
