Infrared Spectrum: Di-n-nonyl disulphide
Formula: C 18 H 38 S 2
CAS: 4485-77-2
State: gas
Origin: EPA-IR VAPOR PHASE LIBRARY
1/CM	ABSORBANCE
549.9	0.0004
559.547	0.00036
569.193	0.00026
578.84	0
588.486	0.00033
598.133	0.00039
607.779	0.00059
617.426	0.00066
627.072	0.001042
636.719	0.00093
646.365	0.00072
656.012	0.000889
665.658	0.001015
675.305	0.001198
684.951	0.0019458
694.598	0.0031
704.245	0.00482
713.891	0.00733
723.538	0.00846
733.184	0.00773
742.831	0.00687
752.477	0.00621
762.124	0.00551
771.77	0.00469
781.417	0.00414
791.063	0.00378
800.71	0.00343
810.356	0.00333
820.003	0.0032
829.649	0.0029
839.296	0.0027002
848.943	0.0026246
858.589	0.0024729
868.236	0.0025873
877.882	0.002685
887.529	0.00283
897.175	0.0027537
906.822	0.0026681
916.468	0.0023463
926.115	0.0022024
935.761	0.0022614
945.408	0.002457
955.054	0.002677
964.701	0.0025104
974.347	0.0022339
983.994	0.0019716
993.64	0.0019069
1003.29	0.0020949
1012.93	0.0023627
1022.58	0.0027029
1032.23	0.00302
1041.87	0.00302
1051.52	0.00279
1061.17	0.0026299
1070.81	0.0025984
1080.46	0.002621
1090.11	0.0027255
1099.75	0.00282
1109.4	0.0028
1119.05	0.0023532
1128.69	0.0019609
1138.34	0.0021019
1147.99	0.0024829
1157.63	0.00278
1167.28	0.00295
1176.92	0.00319
1186.57	0.00363
1196.22	0.00458
1205.86	0.00639
1215.51	0.0092
1225.16	0.0113
1234.8	0.01151
1244.45	0.01235
1254.1	0.01473
1263.74	0.01556
1273.39	0.01569
1283.04	0.01653
1292.68	0.01614
1302.33	0.01499
1311.98	0.01176
1321.62	0.00972
1331.27	0.01055
1340.92	0.01445
1350.56	0.01702
1360.21	0.01466
1369.86	0.01245
1379.5	0.01201
1389.15	0.0104
1398.79	0.00829
1408.44	0.00945
1418.09	0.01317
1427.73	0.01493
1437.38	0.02221
1447.03	0.03031
1456.67	0.0393
1466.32	0.0364
1475.97	0.02115
1485.61	0.01096
1495.26	0.00692
1504.91	0.00504
1514.55	0.00381
1524.2	0.00318
1533.85	0.0027271
1543.49	0.0023837
1553.14	0.002111
1562.79	0.0018839
1572.43	0.0017274
1582.08	0.001608
1591.73	0.001554
1601.37	0.001509
1611.02	0.001402
1620.67	0.001397
1630.31	0.001312
1639.96	0.001286
1649.6	0.001229
1659.25	0.001244
1668.9	0.001229
1678.54	0.001134
1688.19	0.001116
1697.84	0.001136
1707.48	0.00098
1717.13	0.001081
1726.78	0.000988
1736.42	0.000919
1746.07	0.00089
1755.72	0.000841
1765.36	0.000815
1775.01	0.00082
1784.66	0.00078
1794.3	0.000792
1803.95	0.000781
1813.6	0.000797
1823.24	0.00074
1832.89	0.00072
1842.54	0.00072
1852.18	0.00063
1861.83	0.00074
1871.47	0.0007
1881.12	0.00072
1890.77	0.00074
1900.41	0.00072
1910.06	0.00073
1919.71	0.0007
1929.35	0.00073
1939	0.00076
1948.65	0.000782
1958.29	0.00078
1967.94	0.000818
1977.59	0.000827
1987.23	0.00084
1996.88	0.000911
2006.53	0.001023
2016.17	0.001152
2025.82	0.001268
2035.47	0.001296
2045.11	0.001316
2054.76	0.001231
2064.41	0.001144
2074.05	0.001098
2083.7	0.00104
2093.35	0.001052
2102.99	0.001079
2112.64	0.001057
2122.28	0.001025
2131.93	0.001034
2141.58	0.001096
2151.22	0.001209
2160.87	0.00119
2170.52	0.001167
2180.16	0.001159
2189.81	0.001154
2199.46	0.001125
2209.1	0.001114
2218.75	0.001081
2228.4	0.001135
2238.04	0.001115
2247.69	0.001132
2257.34	0.001139
2266.98	0.001143
2276.63	0.001141
2286.28	0.001159
2295.92	0.001212
2305.57	0.001199
2315.22	0.001265
2324.86	0.001346
2334.51	0.001346
2344.16	0.001339
2353.8	0.001327
2363.45	0.001366
2373.09	0.001301
2382.74	0.001334
2392.39	0.001351
2402.03	0.001322
2411.68	0.001364
2421.33	0.001247
2430.97	0.001233
2440.62	0.001225
2450.27	0.001225
2459.91	0.001195
2469.56	0.001237
2479.21	0.001355
2488.85	0.00134
2498.5	0.001332
2508.15	0.001497
2517.79	0.001582
2527.44	0.001667
2537.09	0.0017696
2546.73	0.0018477
2556.38	0.0019602
2566.03	0.0020309
2575.67	0.002144
2585.32	0.0024186
2594.96	0.0025998
2604.61	0.00285
2614.26	0.00308
2623.9	0.0034
2633.55	0.00362
2643.2	0.00402
2652.84	0.00432
2662.49	0.00471
2672.14	0.00516
2681.78	0.00528
2691.43	0.00508
2701.08	0.00473
2710.72	0.00465
2720.37	0.00474
2730.02	0.00516
2739.66	0.00577
2749.31	0.00607
2758.96	0.00635
2768.6	0.00695
2778.25	0.00808
2787.9	0.01002
2797.54	0.01213
2807.19	0.01536
2816.84	0.0201
2826.48	0.02582
2836.13	0.03608
2845.77	0.06329
2855.42	0.13196
2865.07	0.17639
2874.71	0.13616
2884.36	0.11503
2894.01	0.10995
2903.65	0.14858
2913.3	0.22212
2922.95	0.36339
2932.59	0.51697
2942.24	0.3856
2951.89	0.23634
2961.53	0.19987
2971.18	0.16526
2980.83	0.08156
2990.47	0.04499
3000.12	0.02942
3009.77	0.0212
3019.41	0.0162
3029.06	0.01312
3038.71	0.01065
3048.35	0.0089
3058	0.00758
3067.64	0.00677
3077.29	0.006
3086.94	0.00556
3096.58	0.00506
3106.23	0.00461
3115.88	0.0043
3125.52	0.00401
3135.17	0.00363
3144.82	0.00346
3154.46	0.00338
3164.11	0.00323
3173.76	0.0033
3183.4	0.00305
3193.05	0.00298
3202.7	0.0024806
3212.34	0.0024548
3221.99	0.0021009
3231.64	0.0020095
3241.28	0.00187044
3250.93	0.0019888
3260.58	0.001652
3270.22	0.001679
3279.87	0.001626
3289.52	0.001661
3299.16	0.001613
3308.81	0.001492
3318.45	0.001581
3328.1	0.001654
3337.75	0.001492
3347.39	0.001612
3357.04	0.0017327
3366.69	0.001646
3376.33	0.00154
3385.98	0.001609
3395.63	0.001531
3405.27	0.001533
3414.92	0.0014
3424.57	0.00144
3434.21	0.001475
3443.86	0.001276
3453.51	0.001336
3463.15	0.001252
3472.8	0.001113
3482.45	0.001096
3492.09	0.001082
3501.74	0.000981
3511.39	0.000987
3521.03	0.000788
3530.68	0.000886
3540.33	0.001062
3549.97	0.001037
3559.62	0.001071
3569.26	0.000991
3578.91	0.000992
3588.56	0.001089
3598.2	0.001192
3607.85	0.001302
3617.5	0.001349
3627.14	0.001456
3636.79	0.001364
3646.44	0.001507
3656.08	0.001454
3665.73	0.001474
3675.38	0.001434
3685.02	0.001313
3694.67	0.0013
3704.32	0.001243
3713.96	0.001196
3723.61	0.001281
3733.26	0.001242
3742.9	0.001387
3752.55	0.001354
3762.2	0.001279
3771.84	0.001355
3781.49	0.001384
3791.13	0.001317
3800.78	0.001419
3810.43	0.001262
3820.07	0.001389
3829.72	0.001361
3839.37	0.001503
3849.01	0.001353
3858.66	0.001329
3868.31	0.001319
3877.95	0.001425
3887.6	0.001401
3897.25	0.00152
3906.89	0.001474
3916.54	0.001299
3926.19	0.001342
3935.83	0.001332
3945.48	0.001422
3955.13	0.001453
3964.77	0.001583
3974.42	0.001676
3984.07	0.001644
3993.71	0.001656
