Infrared Spectrum: 4-Propyl-3-heptene
Formula: C 10 H 20
CAS: 4485-13-6
State: gas
Instrument: HP-GC/MS/IRD
Origin: NIST Mass Spectrometry Data Center
1/CM	ABSORBANCE
550	0.0006713
562	0.0003479
574	0.0004165
586	0.0003773
598	0.0003332
610	0.0002989
622	0.0002254
634	0.0001666
646	4.9e-05
658	3.43e-05
670	7.84e-05
682	2.94e-05
694	6.86e-05
706	0.0001176
718	0.0002205
730	0.0004018
742	0.0005439
754	0.0006027
766	0.0006958
778	0.0008918
790	0.0007987
802	0.0006125
814	0.000637
826	0.0007987
838	0.0011025
850	0.0015533
862	0.001519
874	0.0012103
886	0.0010829
898	0.0010486
910	0.000686
922	0.0004557
934	0.0003479
946	0.0001666
958	7.35e-05
970	4.41e-05
982	4.9e-05
994	8.82e-05
1006	0.0002303
1018	0.0003626
1030	0.0004312
1042	0.0004998
1054	0.0007154
1066	0.0010878
1078	0.0009261
1090	0.0007938
1102	0.0006272
1114	0.0006664
1126	0.0008379
1138	0.0005194
1150	0.000245
1162	0.0002107
1174	0.0003234
1186	0.0005488
1198	0.0004508
1210	0.0002597
1222	0.0003724
1234	0.0005978
1246	0.0006664
1258	0.0007889
1270	0.000833
1282	0.0008379
1294	0.0010143
1306	0.0011858
1318	0.0009849
1330	0.0009898
1342	0.0010486
1354	0.0008281
1366	0.0011711
1378	0.0023324
1390	0.0021756
1402	0.0012789
1414	0.0012054
1426	0.0015631
1438	0.0025872
1450	0.0043806
1462	0.0060466
1474	0.0045619
1486	0.002009
1498	0.0010192
1510	0.0006909
1522	0.0004949
1534	0.0003773
1546	0.0002744
1558	0.0002303
1570	0.0002156
1582	0.000196
1594	0.0002009
1606	0.0002303
1618	0.0002597
1630	0.000294
1642	0.0004214
1654	0.0005488
1666	0.0004116
1678	0.0002058
1690	0.0001862
1702	0.0001715
1714	0.0001568
1726	0.0001176
1738	0.0001127
1750	7.35e-05
1762	6.37e-05
1774	1.96e-05
1786	2.45e-05
1798	3.43e-05
1810	3.92e-05
1822	3.92e-05
1834	2.45e-05
1846	1.47e-05
1858	2.94e-05
1870	3.43e-05
1882	4.41e-05
1894	2.94e-05
1906	4.9e-05
1918	6.37e-05
1930	4.9e-05
1942	3.43e-05
1954	2.94e-05
1966	1.47e-05
1978	1.47e-05
1990	1.96e-05
2002	9.8e-06
2014	2.45e-05
2026	4.9e-05
2038	5.88e-05
2050	4.9e-05
2062	2.45e-05
2074	2.94e-05
2086	2.94e-05
2098	2.45e-05
2110	1.47e-05
2122	2.45e-05
2134	2.45e-05
2146	3.92e-05
2158	3.43e-05
2170	3.92e-05
2182	4.41e-05
2194	2.94e-05
2206	3.92e-05
2218	2.45e-05
2230	3.92e-05
2242	5.88e-05
2254	4.41e-05
2266	4.41e-05
2278	4.41e-05
2290	3.43e-05
2302	4.41e-05
2314	3.43e-05
2326	3.92e-05
2338	4.9e-05
2350	3.43e-05
2362	5.39e-05
2374	5.88e-05
2386	7.35e-05
2398	6.86e-05
2410	7.35e-05
2422	4.41e-05
2434	4.9e-05
2446	1.47e-05
2458	3.43e-05
2470	3.92e-05
2482	1.96e-05
2494	3.43e-05
2506	4.9e-05
2518	8.33e-05
2530	9.31e-05
2542	0.0001078
2554	0.0001617
2566	0.0001568
2578	0.0001666
2590	0.0001519
2602	0.0001715
2614	0.0001715
2626	0.0001911
2638	0.0002009
2650	0.0002254
2662	0.000294
2674	0.0003283
2686	0.0002891
2698	0.0003626
2710	0.0004557
2722	0.0005488
2734	0.0007889
2746	0.0008722
2758	0.0007791
2770	0.0008869
2782	0.001078
2794	0.0013867
2806	0.0017346
2818	0.0023275
2830	0.0034496
2842	0.0057281
2854	0.0095501
2866	0.0143766
2878	0.0216286
2890	0.0207368
2902	0.0175616
2914	0.0204134
2926	0.0264257
2938	0.0351232
2950	0.0341726
2962	0.0448742
2974	0.0428603
2986	0.0186494
2998	0.0090699
3010	0.0057869
3022	0.0041993
3034	0.0033369
3046	0.0025431
3058	0.0017689
3070	0.0013279
3082	0.0011221
3094	0.0009751
3106	0.0008967
3118	0.0007693
3130	0.0006909
3142	0.0006272
3154	0.0005635
3166	0.0005292
3178	0.0004508
3190	0.0003577
3202	0.0002646
3214	0.0001764
3226	0.0001225
3238	0.0001176
3250	0.0001225
3262	0.0001078
3274	0.0001029
3286	4.9e-05
3298	7.84e-05
3310	7.35e-05
3322	3.43e-05
3334	3.43e-05
3346	6.86e-05
3358	4.9e-05
3370	3.43e-05
3382	4.41e-05
3394	9.8e-06
3406	0
3418	5.39e-05
3430	6.86e-05
3442	4.9e-05
3454	4.41e-05
3466	9.8e-06
3478	3.92e-05
3490	3.92e-05
3502	2.94e-05
3514	5.39e-05
3526	4.9e-05
3538	2.45e-05
3550	5.88e-05
3562	6.37e-05
3574	2.45e-05
3586	4.9e-05
3598	6.37e-05
3610	5.88e-05
3622	8.33e-05
3634	7.35e-05
3646	7.35e-05
3658	8.33e-05
3670	8.82e-05
3682	0.0001225
3694	0.0001421
3706	0.0001127
3718	0.0001519
3730	0.0001421
3742	0.0001568
3754	0.0001568
3766	0.0001372
3778	0.0001715
3790	0.0001617
3802	0.0001862
3814	0.0001813
3826	0.0001274
3838	0.0001274
