Infrared Spectrum: 4-Methyl-3-heptene
Formula: C 8 H 16
CAS: 4485-16-9
State: gas
Instrument: HP-GC/MS/IRD
Origin: NIST Mass Spectrometry Data Center
1/CM	ABSORBANCE
550	0.0001975
562	0.00027
574	0.000225
586	0.000255
598	5.25e-05
610	9.75e-05
622	0.0001
634	7.5e-05
646	4.5e-05
658	8.5e-05
670	2.25e-05
682	0.00015
694	9.5e-05
706	0.00016
718	0.0002325
730	0.0003625
742	0.0005025
754	0.000555
766	0.0005
778	0.0005725
790	0.00059
802	0.00072
814	0.00083
826	0.00097
838	0.0011375
850	0.001055
862	0.0009075
874	0.0008375
886	0.00065
898	0.00052
910	0.00044
922	0.00043
934	0.000385
946	0.0003025
958	0.0003625
970	0.0004775
982	0.00059
994	0.0005325
1006	0.00052
1018	0.000555
1030	0.0005875
1042	0.000565
1054	0.0006125
1066	0.000715
1078	0.000695
1090	0.0006275
1102	0.00059
1114	0.000615
1126	0.0008075
1138	0.000485
1150	0.000215
1162	0.00019
1174	0.000255
1186	0.00046
1198	0.0006475
1210	0.00052
1222	0.0002625
1234	0.0002125
1246	0.0002875
1258	0.00039
1270	0.000435
1282	0.0004975
1294	0.00078
1306	0.0010025
1318	0.00088
1330	0.0008
1342	0.0008675
1354	0.0008425
1366	0.0012425
1378	0.002095
1390	0.002325
1402	0.001615
1414	0.00123
1426	0.0014425
1438	0.0020525
1450	0.0028175
1462	0.0031775
1474	0.0024775
1486	0.00144
1498	0.0009
1510	0.000645
1522	0.0005275
1534	0.000475
1546	0.00044
1558	0.00036
1570	0.000345
1582	0.0003125
1594	0.000295
1606	0.000265
1618	0.000245
1630	0.000255
1642	0.0002925
1654	0.000405
1666	0.000435
1678	0.0003175
1690	0.000195
1702	0.000155
1714	0.000105
1726	9.75e-05
1738	6e-05
1750	3.25e-05
1762	2.75e-05
1774	2.5e-05
1786	3.5e-05
1798	4e-05
1810	4.5e-05
1822	5.25e-05
1834	6.5e-05
1846	5.5e-05
1858	6.25e-05
1870	6e-05
1882	5e-05
1894	4.25e-05
1906	7.5e-05
1918	6.5e-05
1930	3.5e-05
1942	4.5e-05
1954	2.75e-05
1966	5e-06
1978	1.5e-05
1990	2e-05
2002	0
2014	4.5e-05
2026	4.25e-05
2038	4.5e-05
2050	4.75e-05
2062	2.5e-05
2074	3e-05
2086	2e-05
2098	2.5e-05
2110	3.75e-05
2122	3e-05
2134	3.75e-05
2146	3.5e-05
2158	3.25e-05
2170	3.75e-05
2182	4.75e-05
2194	3.75e-05
2206	3.5e-05
2218	2.75e-05
2230	2.75e-05
2242	5e-05
2254	4.25e-05
2266	5.25e-05
2278	5.5e-05
2290	5.5e-05
2302	5.25e-05
2314	6e-05
2326	5.75e-05
2338	6e-05
2350	5e-05
2362	6e-05
2374	7.75e-05
2386	8.5e-05
2398	0.0001025
2410	9e-05
2422	9.25e-05
2434	9e-05
2446	7e-05
2458	7.75e-05
2470	6.75e-05
2482	7.5e-05
2494	7.5e-05
2506	7.5e-05
2518	0.0001075
2530	0.0001225
2542	0.000135
2554	0.00016
2566	0.000155
2578	0.0001725
2590	0.00014
2602	0.0001425
2614	0.00017
2626	0.000205
2638	0.0002025
2650	0.00023
2662	0.0002525
2674	0.000265
2686	0.0002675
2698	0.0002975
2710	0.0003675
2722	0.0004775
2734	0.0006175
2746	0.0006775
2758	0.0006875
2770	0.0007
2782	0.000805
2794	0.000995
2806	0.00131
2818	0.001785
2830	0.0028475
2842	0.0046375
2854	0.006665
2866	0.009235
2878	0.012915
2890	0.013415
2902	0.0126175
2914	0.0140525
2926	0.017005
2938	0.02016
2950	0.0198075
2962	0.02336
2974	0.0236475
2986	0.0137425
2998	0.0078225
3010	0.005085
3022	0.0036875
3034	0.00286
3046	0.00225
3058	0.001775
3070	0.00134
3082	0.001055
3094	0.00088
3106	0.00077
3118	0.000715
3130	0.00061
3142	0.00054
3154	0.000495
3166	0.000465
3178	0.0004275
3190	0.0003225
3202	0.00027
3214	0.00019
3226	0.0001975
3238	0.00017
3250	0.0001525
3262	0.000145
3274	0.0001375
3286	0.000145
3298	0.0001325
3310	0.000125
3322	9e-05
3334	0.00012
3346	0.0001025
3358	7.5e-05
3370	0.0001075
3382	0.00012
3394	8e-05
3406	7.75e-05
3418	6.75e-05
3430	8e-05
3442	6e-05
3454	7.75e-05
3466	7.75e-05
3478	8.5e-05
3490	5.5e-05
3502	0.0001075
3514	4.75e-05
3526	7.25e-05
3538	6.25e-05
3550	3.75e-05
3562	6.5e-05
3574	9e-05
3586	7.25e-05
3598	4.75e-05
3610	3.75e-05
3622	8e-05
3634	6.25e-05
3646	8.25e-05
3658	0.0001125
3670	9.75e-05
3682	0.00012
3694	0.0001025
3706	0.0001025
3718	0.00012
3730	0.00012
3742	0.0001025
3754	0.000105
3766	0.000115
3778	0.0001525
3790	0.0001375
3802	9e-05
3814	0.000135
3826	0.0001375
3838	0.000145
