Infrared Spectrum: 3-Anilinoacraldehyde anil
Formula: C 15 H 14 N 2
CAS: 4485-89-6
State: gas
Origin: EPA-IR VAPOR PHASE LIBRARY
1/CM	ABSORBANCE
549.8	0.006177
559.445	0.005717
569.09	0.004447
578.734	0.004387
588.379	0.005197
598.024	0.006897
607.669	0.014077
617.313	0.012747
626.958	0.005437
636.603	0.004977
646.248	0.006587
655.893	0.009517
665.537	0.016337
675.182	0.023827
684.827	0.040227
694.472	0.049707
704.116	0.038987
713.761	0.037657
723.406	0.045137
733.051	0.070567
742.695	0.079217
752.34	0.073977
761.985	0.046677
771.63	0.027897
781.275	0.015927
790.919	0.011167
800.564	0.010047
810.209	0.008767
819.854	0.008507
829.498	0.010237
839.143	0.016157
848.788	0.009757
858.433	0.007927
868.078	0.008747
877.722	0.010147
887.367	0.012017
897.012	0.011147
906.657	0.010297
916.301	0.010577
925.946	0.013227
935.591	0.012977
945.236	0.015297
954.88	0.018217
964.525	0.020967
974.17	0.020567
983.815	0.023117
993.46	0.036907
1003.1	0.043647
1012.75	0.070717
1022.39	0.062357
1032.04	0.037647
1041.68	0.015857
1051.33	0.010217
1060.97	0.010097
1070.62	0.013417
1080.26	0.010437
1089.91	0.006777
1099.55	0.007647
1109.2	0.006817
1118.84	0.007597
1128.49	0.012197
1138.13	0.009387
1147.78	0.009827
1157.42	0.016127
1167.07	0.013847
1176.71	0.013877
1186.36	0.013947
1196	0.017537
1205.64	0.024317
1215.29	0.035607
1224.93	0.038827
1234.58	0.055007
1244.22	0.071267
1253.87	0.073247
1263.51	0.108237
1273.16	0.200177
1282.8	0.302487
1292.45	0.309047
1302.09	0.195587
1311.74	0.087977
1321.38	0.051047
1331.03	0.036167
1340.67	0.031857
1350.32	0.031337
1359.96	0.026647
1369.61	0.022147
1379.25	0.021637
1388.9	0.024167
1398.54	0.022617
1408.18	0.019327
1417.83	0.017407
1427.47	0.017947
1437.12	0.020267
1446.76	0.026527
1456.41	0.030437
1466.05	0.048877
1475.7	0.105437
1485.34	0.146727
1494.99	0.119197
1504.63	0.142377
1514.28	0.084837
1523.92	0.068087
1533.57	0.085517
1543.21	0.141087
1552.86	0.327587
1562.5	0.586587
1572.15	0.249877
1581.79	0.131137
1591.44	0.135167
1601.08	0.159707
1610.73	0.099267
1620.37	0.079167
1630.01	0.136827
1639.66	0.266727
1649.3	0.258627
1658.95	0.104497
1668.59	0.056877
1678.24	0.038197
1687.88	0.028627
1697.53	0.022937
1707.17	0.019857
1716.82	0.017237
1726.46	0.013517
1736.11	0.009777
1745.75	0.007937
1755.4	0.007637
1765.04	0.008277
1774.69	0.008117
1784.33	0.006197
1793.98	0.004947
1803.62	0.004157
1813.27	0.004007
1822.91	0.004147
1832.55	0.005017
1842.2	0.005537
1851.84	0.005837
1861.49	0.005977
1871.13	0.006387
1880.78	0.006537
1890.42	0.005437
1900.07	0.004537
1909.71	0.005277
1919.36	0.006767
1929	0.006717
1938.65	0.007097
1948.29	0.005907
1957.94	0.003437
1967.58	0.003017
1977.23	0.003197
1986.87	0.002817
1996.52	0.002697
2006.16	0.002837
2015.81	0.003257
2025.45	0.003537
2035.1	0.003507
2044.74	0.003257
2054.38	0.002947
2064.03	0.002507
2073.67	0.002037
2083.32	0.001717
2092.96	0.001607
2102.61	0.001577
2112.25	0.001517
2121.9	0.001667
2131.54	0.001757
2141.19	0.001797
2150.83	0.001607
2160.48	0.001427
2170.12	0.001427
2179.77	0.001377
2189.41	0.001327
2199.06	0.001687
2208.7	0.001807
2218.35	0.001877
2227.99	0.001747
2237.64	0.001877
2247.28	0.001657
2256.92	0.001807
2266.57	0.001707
2276.21	0.001977
2285.86	0.002047
2295.5	0.002497
2305.15	0.002817
2314.79	0.002797
2324.44	0.002547
2334.08	0.002557
2343.73	0.002397
2353.37	0.002167
2363.02	0.002017
2372.66	0.002087
2382.31	0.002087
2391.95	0.002297
2401.6	0.002617
2411.24	0.003307
2420.89	0.003807
2430.53	0.004227
2440.18	0.003847
2449.82	0.003437
2459.47	0.003437
2469.11	0.003037
2478.75	0.003387
2488.4	0.003637
2498.04	0.003477
2507.69	0.003467
2517.33	0.003737
2526.98	0.003777
2536.62	0.004027
2546.27	0.004117
2555.91	0.004257
2565.56	0.004187
2575.2	0.004167
2584.85	0.003717
2594.49	0.003047
2604.14	0.002657
2613.78	0.002677
2623.43	0.002777
2633.07	0.002737
2642.72	0.002737
2652.36	0.002937
2662.01	0.002877
2671.65	0.003057
2681.29	0.003147
2690.94	0.003467
2700.58	0.003157
2710.23	0.002847
2719.87	0.003087
2729.52	0.003357
2739.16	0.003587
2748.81	0.004107
2758.45	0.005067
2768.1	0.005867
2777.74	0.005857
2787.39	0.004897
2797.03	0.005037
2806.68	0.005557
2816.32	0.006347
2825.97	0.006997
2835.61	0.008377
2845.26	0.010007
2854.9	0.013047
2864.55	0.017997
2874.19	0.019237
2883.84	0.014247
2893.48	0.011337
2903.12	0.010467
2912.77	0.012137
2922.41	0.015567
2932.06	0.016557
2941.7	0.015107
2951.35	0.015087
2960.99	0.013087
2970.64	0.010477
2980.28	0.009607
2989.93	0.010177
2999.57	0.012057
3009.22	0.015587
3018.86	0.022437
3028.51	0.033327
3038.15	0.039247
3047.8	0.033127
3057.44	0.037767
3067.09	0.056567
3076.73	0.060467
3086.38	0.043417
3096.02	0.030537
3105.67	0.020837
3115.31	0.015547
3124.95	0.012127
3134.6	0.010007
3144.24	0.009467
3153.89	0.009067
3163.53	0.008717
3173.18	0.008387
3182.82	0.007917
3192.47	0.007597
3202.11	0.006927
3211.76	0.006927
3221.4	0.006797
3231.05	0.006567
3240.69	0.005997
3250.34	0.005727
3259.98	0.005517
3269.63	0.005157
3279.27	0.005537
3288.92	0.005267
3298.56	0.004877
3308.21	0.004437
3317.85	0.003857
3327.49	0.003107
3337.14	0.002377
3346.78	0.002037
3356.43	0.001767
3366.07	0.001567
3375.72	0.001287
3385.36	0.0009739
3395.01	0.001177
3404.65	0.0007368
3414.3	0.0006915
3423.94	0.0010123
3433.59	0.0010207
3443.23	0.001527
3452.88	0.001467
3462.52	0.001107
3472.17	0.0008875
3481.81	0.0004953
3491.46	0.0004785
3501.1	0.0005275
3510.75	0.000964
3520.39	0.0005845
3530.04	0.0001713
3539.68	0.0005101
3549.32	0.0002393
3558.97	0.000342
3568.61	0.0004964
3578.26	0.0004307
3587.9	0
3597.55	0.0003919
3607.19	0.0004015
3616.84	0.0001926
3626.48	0.0005165
3636.13	0.0005998
3645.77	0.0005115
3655.42	0.0004603
3665.06	0.0006479
3674.71	0.0004172
3684.35	0.0006595
3694	0.0007352
3703.64	0.000467
3713.29	0.0003768
3722.93	0.0002907
3732.58	0.0002465
3742.22	0.0005576
3751.86	0.0003692
3761.51	0.0004852
3771.15	0.0006853
3780.8	0.0006955
3790.44	0.0002654
3800.09	0.0003349
3809.73	0.0005867
3819.38	0.0003905
3829.02	0.0006577
3838.67	0.0006658
3848.31	0.000487
3857.96	0.0004003
3867.6	0.0004609
3877.25	0.0006134
3886.89	0.0007033
3896.54	0.0008424
3906.18	0.0006476
3915.83	0.0006426
3925.47	0.0004858
3935.12	0.0007232
3944.76	0.0004217
3954.41	0.0009126
3964.05	0.0006523
3973.69	0.0005261
3983.34	0.0005599
3992.98	0.00078
