Infrared Spectrum: 4-Nonanone
Formula: C 9 H 18 O
CAS: 4485-09-0
State: gas
Instrument: HP-GC/MS/IRD
Origin: NIST Mass Spectrometry Data Center
1/CM	ABSORBANCE
550	0.000474
562	8.4e-05
574	0.000146
586	9.4e-05
598	0.000144
610	0.00016
622	0.000198
634	0.000192
646	0.000232
658	0.00013
670	0.000228
682	0.0002
694	0.000222
706	0.000274
718	0.000476
730	0.000606
742	0.000638
754	0.000652
766	0.000576
778	0.00053
790	0.000426
802	0.000426
814	0.000394
826	0.000318
838	0.000348
850	0.000388
862	0.000414
874	0.000486
886	0.00056
898	0.000642
910	0.00054
922	0.000474
934	0.000394
946	0.00048
958	0.000574
970	0.000708
982	0.000816
994	0.000954
1006	0.001326
1018	0.001568
1030	0.001608
1042	0.002058
1054	0.001978
1066	0.001414
1078	0.001162
1090	0.001116
1102	0.001298
1114	0.001924
1126	0.002722
1138	0.002954
1150	0.002704
1162	0.002346
1174	0.001604
1186	0.001332
1198	0.001382
1210	0.001446
1222	0.00135
1234	0.001328
1246	0.001296
1258	0.0014
1270	0.001664
1282	0.00178
1294	0.00192
1306	0.00185
1318	0.001708
1330	0.002026
1342	0.002846
1354	0.003822
1366	0.003736
1378	0.002716
1390	0.00215
1402	0.00191
1414	0.002176
1426	0.002326
1438	0.002426
1450	0.002918
1462	0.003308
1474	0.00245
1486	0.001364
1498	0.000828
1510	0.000546
1522	0.000398
1534	0.000358
1546	0.000304
1558	0.00019
1570	0.000242
1582	0.000218
1594	0.000224
1606	0.000224
1618	0.000244
1630	0.000272
1642	0.000344
1654	0.000392
1666	0.000624
1678	0.001034
1690	0.001892
1702	0.004268
1714	0.009406
1726	0.012832
1738	0.008016
1750	0.002866
1762	0.00119
1774	0.000614
1786	0.000398
1798	0.000272
1810	0.000238
1822	0.000172
1834	0.000164
1846	0.000126
1858	0.00012
1870	0.00011
1882	9.6e-05
1894	0.000106
1906	0.00011
1918	7.2e-05
1930	8.2e-05
1942	8e-05
1954	6.8e-05
1966	7.4e-05
1978	7.8e-05
1990	4e-05
2002	6.6e-05
2014	6e-05
2026	9e-05
2038	9e-05
2050	9e-05
2062	7e-05
2074	6.6e-05
2086	6.4e-05
2098	3.6e-05
2110	5.2e-05
2122	6e-05
2134	6.8e-05
2146	6e-05
2158	7.6e-05
2170	5e-05
2182	6.2e-05
2194	5.8e-05
2206	5.2e-05
2218	5.2e-05
2230	4.6e-05
2242	6.6e-05
2254	4e-05
2266	3.4e-05
2278	5.6e-05
2290	4.4e-05
2302	7e-05
2314	8.8e-05
2326	8.2e-05
2338	6.8e-05
2350	6.4e-05
2362	5.8e-05
2374	8.6e-05
2386	6.8e-05
2398	3e-05
2410	4e-05
2422	5.4e-05
2434	2.8e-05
2446	4.4e-05
2458	1.6e-05
2470	4e-06
2482	5.2e-05
2494	3.4e-05
2506	3.4e-05
2518	2.2e-05
2530	1e-05
2542	3.2e-05
2554	5.4e-05
2566	7.2e-05
2578	8.8e-05
2590	7e-05
2602	9.2e-05
2614	8e-05
2626	0.00012
2638	0.000124
2650	0.000138
2662	0.000184
2674	0.00021
2686	0.000218
2698	0.000256
2710	0.000228
2722	0.000278
2734	0.000334
2746	0.000404
2758	0.000442
2770	0.000466
2782	0.000584
2794	0.000748
2806	0.001032
2818	0.001306
2830	0.001688
2842	0.00254
2854	0.004374
2866	0.007008
2878	0.009308
2890	0.010088
2902	0.01004
2914	0.011866
2926	0.015666
2938	0.019246
2950	0.018874
2962	0.019404
2974	0.017994
2986	0.009266
2998	0.004422
3010	0.002506
3022	0.001628
3034	0.001164
3046	0.000856
3058	0.000686
3070	0.000582
3082	0.000506
3094	0.000454
3106	0.000354
3118	0.000348
3130	0.000316
3142	0.000292
3154	0.000262
3166	0.00023
3178	0.000232
3190	0.000196
3202	0.000202
3214	0.000186
3226	0.000104
3238	9.6e-05
3250	6.4e-05
3262	5.2e-05
3274	8.2e-05
3286	2.4e-05
3298	3.6e-05
3310	0.000112
3322	6.4e-05
3334	0.00014
3346	9.6e-05
3358	8.4e-05
3370	7.6e-05
3382	0.000136
3394	0.000128
3406	0.000154
3418	0.000202
3430	0.00031
3442	0.000258
3454	0.000146
3466	0.00015
3478	4.4e-05
3490	8.2e-05
3502	7.4e-05
3514	7.2e-05
3526	9.2e-05
3538	4e-05
3550	4.8e-05
3562	7.6e-05
3574	7.2e-05
3586	8e-05
3598	5.6e-05
3610	7e-05
3622	6.2e-05
3634	0.000128
3646	9.6e-05
3658	5.8e-05
3670	9.8e-05
3682	6.6e-05
3694	3.2e-05
3706	0.000106
3718	0.000134
3730	0.000118
3742	4.6e-05
3754	0.0001
3766	5.8e-05
3778	0.000106
3790	0.000108
3802	4.6e-05
3814	9.2e-05
3826	0.000114
3838	7e-05
