Infrared Spectrum: 11H-DIBENZ[b,e]AZEPINE, 5,6-DIHYDRO-
Formula: C14 H13 N
CAS: 449-55-8
State: SOLUTION (1.5% CCl4 FOR 3800-1330, 2.0% CS2 FOR 1330-400 CM^-^1)
Class: COBLENTZ III
Instrument: DOW KBr FOREPRISM-GRATING
Instrument parameters: BLAZED AT 3.5, 12.0, 20.0 MICRON AND CHANGED AT 5.0, 7.5, 14.9 MICRON
Sampling: TRANSMISSION
Path length: 0.022 CM, 0.021 CM
Resolution: 2
Origin: DOW CORNING CORP.
1/CM	TRANSMITTANCE
3800	0.9046
3791	0.9083
3782	0.9045
3773	0.9079
3764	0.9074
3755	0.9076
3746	0.9073
3737	0.9096
3728	0.9078
3719	0.9019
3710	0.9044
3701	0.9047
3692	0.8997
3683	0.8959
3674	0.8958
3665	0.8958
3656	0.8958
3647	0.8963
3638	0.8968
3629	0.8968
3620	0.8991
3611	0.8975
3602	0.8961
3593	0.9003
3584	0.9001
3575	0.8728
3566	0.8974
3557	0.8958
3548	0.8991
3539	0.8973
3530	0.8974
3521	0.8931
3512	0.8923
3503	0.8911
3494	0.8903
3485	0.889
3476	0.8874
3467	0.8847
3458	0.8794
3449	0.8646
3440	0.8196
3431	0.787
3422	0.7996
3413	0.8319
3404	0.855
3395	0.8677
3386	0.8725
3377	0.876
3368	0.879
3359	0.8818
3350	0.8835
3341	0.8852
3332	0.8867
3323	0.8869
3314	0.8869
3305	0.8905
3296	0.8867
3287	0.8863
3278	0.8887
3269	0.8895
3260	0.8895
3251	0.8897
3242	0.89
3233	0.8902
3224	0.8905
3215	0.8902
3206	0.8862
3197	0.8881
3188	0.8881
3179	0.8834
3170	0.8827
3161	0.8844
3152	0.8852
3143	0.8808
3134	0.8838
3125	0.8833
3116	0.8807
3107	0.8731
3098	0.8648
3089	0.8455
3080	0.8092
3071	0.7743
3062	0.765
3053	0.7683
3044	0.7894
3035	0.8033
3026	0.7131
3017	0.7023
3008	0.8054
2999	0.8346
2990	0.8557
2981	0.861
2972	0.8476
2963	0.8196
2954	0.7904
2945	0.7821
2936	0.8073
2927	0.8243
2918	0.8366
2909	0.8448
2900	0.8465
2891	0.8079
2882	0.7908
2873	0.8081
2864	0.8179
2855	0.8014
2846	0.7841
2837	0.7901
2828	0.8129
2819	0.8358
2810	0.8509
2801	0.8658
2792	0.8723
2783	0.8721
2774	0.8751
2765	0.8771
2756	0.8793
2747	0.8806
2738	0.8815
2729	0.882
2720	0.8821
2711	0.8821
2702	0.882
2693	0.8827
2684	0.8834
2675	0.8842
2666	0.8848
2657	0.8894
2648	0.8885
2639	0.8867
2630	0.8855
2621	0.8874
2612	0.886
2603	0.8845
2594	0.8828
2585	0.8812
2576	0.8801
2567	0.8798
2558	0.8803
2549	0.8818
2540	0.8835
2531	0.8852
2522	0.8861
2513	0.887
2504	0.8879
2495	0.8886
2486	0.8893
2477	0.8937
2468	0.8953
2459	0.8968
2450	0.8957
2441	0.9
2432	0.9017
2423	0.9019
2414	0.9022
2405	0.906
2396	0.9057
2387	0.9089
2378	0.9195
2369	0.9229
2360	0.9243
2351	0.9323
2342	0.9305
2333	0.9257
2324	0.9309
2315	0.9248
2306	0.9209
2297	0.9232
2288	0.9229
2279	0.93
2270	0.9282
2261	0.9253
2252	0.9228
2243	0.9193
2234	0.919
2225	0.9206
2216	0.9177
2207	0.9183
2198	0.919
2189	0.9158
2180	0.9164
2171	0.921
2162	0.918
2153	0.9189
2144	0.9196
2135	0.92
2126	0.9204
2117	0.9209
2108	0.9203
2099	0.9195
2090	0.9187
2081	0.9177
2072	0.9166
2063	0.9153
2054	0.918
2045	0.9131
2036	0.9123
2027	0.9137
2018	0.9131
2009	0.9107
2000	0.9084
1991	0.8974
1982	0.899
1973	0.901
1964	0.9062
1955	0.9145
1946	0.9037
1937	0.8975
1928	0.908
1919	0.9092
1910	0.8943
1901	0.896
1892	0.9021
1883	0.9045
1874	0.9082
1865	0.9074
1856	0.9051
1847	0.9007
1838	0.9006
1829	0.8975
1820	0.8987
1811	0.9051
1802	0.9009
1793	0.9039
1784	0.9053
1775	0.9008
1766	0.902
1757	0.9095
1748	0.9129
1739	0.9116
1730	0.9125
1721	0.9129
1712	0.913
1703	0.9123
1694	0.9113
1685	0.9117
1676	0.911
1667	0.912
1658	0.9097
1649	0.9124
1640	0.9136
1631	0.9154
1622	0.9076
1613	0.8767
1604	0.6646
1595	0.746
1586	0.802
1577	0.6445
1568	0.793
1559	0.8602
1550	0.8151
1541	0.7114
1532	0.7999
1523	0.8109
1514	0.7956
1505	0.6985
1496	0.498
1487	0.4042
1478	0.4832
1469	0.7465
1460	0.7712
1451	0.7783
1442	0.8501
1433	0.856
1424	0.8937
1415	0.9145
1406	0.9265
1397	0.9383
1388	0.9496
1379	0.9343
1370	0.9329
1361	0.8978
1352	0.8939
1343	0.9101
1334	0.8926
1325	0.7899
1316	0.4227
1307	0.31
1298	0.6581
1289	0.7713
1280	0.7932
1271	0.7818
1262	0.5955
1253	0.7498
1244	0.8098
1235	0.8345
1226	0.8371
1217	0.7963
1208	0.8522
1199	0.8695
1190	0.8443
1181	0.7907
1172	0.7984
1163	0.8181
1154	0.7869
1145	0.8645
1136	0.8899
1127	0.8865
1118	0.873
1109	0.7982
1100	0.8015
1091	0.858
1082	0.8797
1073	0.7902
1064	0.7345
1055	0.8791
1046	0.8953
1037	0.8524
1028	0.8691
1019	0.906
1010	0.9116
1001	0.9048
992	0.9034
983	0.9078
974	0.8994
965	0.884
956	0.8944
947	0.8884
938	0.8677
929	0.8672
920	0.8905
911	0.8806
902	0.9045
893	0.9072
884	0.8979
875	0.915
866	0.8892
857	0.8571
848	0.8796
839	0.8692
830	0.8516
821	0.8885
812	0.8939
803	0.8924
794	0.8732
785	0.8351
776	0.853
767	0.7603
758	0.3255
749	0.3059
740	0.5552
731	0.7307
722	0.6666
713	0.7365
704	0.7683
695	0.8498
686	0.866
677	0.882
668	0.9103
659	0.872
650	0.8009
641	0.7531
632	0.8109
623	0.8139
614	0.7738
605	0.8076
596	0.8088
587	0.7969
578	0.8267
569	0.8348
560	0.8492
551	0.8545
542	0.851
533	0.8111
524	0.8282
515	0.8279
506	0.8118
497	0.803
488	0.7963
479	0.7844
470	0.7616
461	0.7231
452	0.6314
443	0.6266
434	0.6177
425	0.5568
416	0.4365
407	0.211
398	0.0513
389	0.0143
