Infrared Spectrum: 4-Benzyloxypropiophenone
Formula: C 16 H 16 O 2
CAS: 4495-66-3
State: gas
Instrument: HP-GC/MS/IRD
Origin: NIST Mass Spectrometry Data Center
1/CM	ABSORBANCE
550	0.001586
562	0.0010712
574	0.0007124
586	0.0008528
598	0.0009204
610	0.0005304
622	0.000208
634	0.0006812
646	0.00052
658	0
670	0.0006604
682	0.0021476
694	0.0047008
706	0.0035828
718	0.0034164
730	0.0052
742	0.0041964
754	0.002262
766	0.0007124
778	0.0004836
790	0.0016796
802	0.0030576
814	0.0020436
826	0.00221
838	0.0042484
850	0.0037596
862	0.0013676
874	0.0003692
886	0.0003328
898	0.0008996
910	0.0012844
922	0.001898
934	0.006214
946	0.0106028
958	0.004342
970	0.0024284
982	0.0036452
994	0.0067808
1006	0.01183
1018	0.0125788
1030	0.0081692
1042	0.0039156
1054	0.0018408
1066	0.0012948
1078	0.0014092
1090	0.0013052
1102	0.0020384
1114	0.0020956
1126	0.0015496
1138	0.00182
1150	0.0039312
1162	0.0182
1174	0.0319332
1186	0.0095888
1198	0.0122044
1210	0.0351052
1222	0.049348
1234	0.0261456
1246	0.0247832
1258	0.0220376
1270	0.013052
1282	0.0106704
1294	0.0114296
1306	0.0109824
1318	0.0101244
1330	0.0080912
1342	0.0083668
1354	0.007722
1366	0.0056108
1378	0.0063284
1390	0.0033904
1402	0.0027924
1414	0.004862
1426	0.0030212
1438	0.0029276
1450	0.0043472
1462	0.0058084
1474	0.0044876
1486	0.0036192
1498	0.0106652
1510	0.0142064
1522	0.0035204
1534	0.0020124
1546	0.0020436
1558	0.0031876
1570	0.0075712
1582	0.0125528
1594	0.0270192
1606	0.0305916
1618	0.0079352
1630	0.0028808
1642	0.0019396
1654	0.0020436
1666	0.0028392
1678	0.0056992
1690	0.018174
1702	0.0265096
1714	0.0069472
1726	0.002288
1738	0.001196
1750	0.0007176
1762	0.0005564
1774	0.0004108
1786	0.0003588
1798	0.0004992
1810	0.000312
1822	0.0001508
1834	9.36e-05
1846	0.0001092
1858	0.00026
1870	0.000364
1882	0.0004004
1894	0.000312
1906	0.0002444
1918	0.0001664
1930	0.000338
1942	0.0004576
1954	0.000494
1966	0.0003848
1978	0.0002548
1990	0.0002184
2002	0.0002132
2014	0.0003484
2026	0.000364
2038	0.0002808
2050	0.0002392
2062	0.0001976
2074	0.000182
2086	0.00013
2098	0.0001508
2110	0.00013
2122	6.76e-05
2134	3.12e-05
2146	2.08e-05
2158	5.2e-06
2170	3.12e-05
2182	2.08e-05
2194	3.64e-05
2206	5.2e-06
2218	5.72e-05
2230	9.88e-05
2242	8.32e-05
2254	8.84e-05
2266	5.72e-05
2278	0.0001144
2290	0.0001092
2302	0.0001768
2314	0.000208
2326	0.0001768
2338	0.0001144
2350	0.0001404
2362	5.72e-05
2374	0.0001144
2386	0.0002236
2398	0.000286
2410	0.0003224
2422	0.000338
2434	0.0003172
2446	0.0002912
2458	0.0002964
2470	0.0002912
2482	0.0002756
2494	0.0002496
2506	0.0003016
2518	0.0003588
2530	0.0003848
2542	0.0004056
2554	0.0004836
2566	0.000468
2578	0.0004576
2590	0.0003952
2602	0.0002964
2614	0.0002756
2626	0.000156
2638	0.0001508
2650	0.0001508
2662	0.00013
2674	0.0001872
2686	0.0001716
2698	0.0002184
2710	0.0002496
2722	0.0002964
2734	0.0003172
2746	0.0003848
2758	0.0003588
2770	0.00039
2782	0.000364
2794	0.0004628
2806	0.0006136
2818	0.000806
2830	0.0009672
2842	0.0010504
2854	0.0012896
2866	0.002132
2878	0.0035256
2890	0.0049608
2902	0.004238
2914	0.0048412
2926	0.0050284
2938	0.0056212
2950	0.0078884
2962	0.0053144
2974	0.0053924
2986	0.0066404
2998	0.0041808
3010	0.002756
3022	0.0031408
3034	0.0049504
3046	0.005434
3058	0.0044928
3070	0.006162
3082	0.0050544
3094	0.0036088
3106	0.0025324
3118	0.0015756
3130	0.0007436
3142	0.0005356
3154	0.0004264
3166	0.0003796
3178	0.0003536
3190	0.0003276
3202	0.0002496
3214	0.00026
3226	0.000156
3238	0.000156
3250	0.000156
3262	0.0001924
3274	0.000182
3286	0.0001716
3298	8.32e-05
3310	0.0001872
3322	0.0001456
3334	0.0001924
3346	0.0002444
3358	0.0002808
3370	0.0004368
3382	0.0005096
3394	0.0003848
3406	0.0002704
3418	0.0001248
3430	0.0001768
3442	0.0001456
3454	0.000208
3466	0.0001716
3478	0.000156
3490	0.000208
3502	0.0001872
3514	0.0001196
3526	0.0001248
3538	0.0001612
3550	0.000156
3562	0.0001352
3574	0.0001248
3586	9.36e-05
3598	0.0001456
3610	0.0001248
3622	0.0001612
3634	0.0001456
3646	4.68e-05
3658	0.0002028
3670	0.0001092
3682	0.0001352
3694	0.0001976
3706	0.0002236
3718	0.000208
3730	0.0001352
3742	0.000104
3754	1.56e-05
3766	0.0001508
3778	0.0001976
3790	0.0001716
3802	9.36e-05
3814	0.0001924
3826	0.0002236
3838	0.0001248
