Infrared Spectrum: Myristophenone
Formula: C 20 H 32 O
CAS: 4497-05-6
State: gas
Origin: EPA-IR VAPOR PHASE LIBRARY
1/CM	ABSORBANCE
549.8	0.001708
559.445	0.003248
569.09	0.005788
578.734	0.004658
588.379	0.004468
598.024	0.005638
607.669	0.004358
617.313	0.002788
626.958	0.002068
636.603	0.002508
646.248	0.004758
655.893	0.007148
665.537	0.008468
675.182	0.011998
684.827	0.023468
694.472	0.031318
704.116	0.019038
713.761	0.014018
723.406	0.014158
733.051	0.015648
742.695	0.017518
752.34	0.016008
761.985	0.011688
771.63	0.008208
781.275	0.005988
790.919	0.004488
800.564	0.003518
810.209	0.002608
819.854	0.002198
829.498	0.002428
839.143	0.002338
848.788	0.002128
858.433	0.002298
868.078	0.002268
877.722	0.002878
887.367	0.003208
897.012	0.003198
906.657	0.003628
916.301	0.004148
925.946	0.004828
935.591	0.005308
945.236	0.006758
954.88	0.009278
964.525	0.011558
974.17	0.012038
983.815	0.012448
993.46	0.013428
1003.1	0.015498
1012.75	0.011208
1022.39	0.009228
1032.04	0.005938
1041.68	0.004438
1051.33	0.004228
1060.97	0.003668
1070.62	0.004468
1080.26	0.003758
1089.91	0.003128
1099.55	0.002848
1109.2	0.003088
1118.84	0.003188
1128.49	0.003078
1138.13	0.003388
1147.78	0.004908
1157.42	0.006548
1167.07	0.009488
1176.71	0.019038
1186.36	0.018008
1196	0.018658
1205.64	0.027078
1215.29	0.032348
1224.93	0.029278
1234.58	0.025108
1244.22	0.025298
1253.87	0.026818
1263.51	0.028758
1273.16	0.026738
1282.8	0.022628
1292.45	0.019838
1302.09	0.017658
1311.74	0.017878
1321.38	0.018208
1331.03	0.017148
1340.67	0.019278
1350.32	0.022878
1359.96	0.020788
1369.61	0.015918
1379.25	0.011108
1388.9	0.007688
1398.54	0.005998
1408.18	0.006558
1417.83	0.007758
1427.47	0.008748
1437.12	0.014148
1446.76	0.028438
1456.41	0.028828
1466.05	0.023518
1475.7	0.012798
1485.34	0.006598
1494.99	0.004598
1504.63	0.003368
1514.28	0.002738
1523.92	0.002708
1533.57	0.002658
1543.21	0.002378
1552.86	0.002448
1562.5	0.003098
1572.15	0.005098
1581.79	0.007408
1591.44	0.007608
1601.08	0.008148
1610.73	0.004868
1620.37	0.003348
1630.01	0.002758
1639.66	0.002968
1649.3	0.004048
1658.95	0.005988
1668.59	0.009048
1678.24	0.017248
1687.88	0.043548
1697.53	0.086218
1707.17	0.071568
1716.82	0.025788
1726.46	0.009778
1736.11	0.005478
1745.75	0.003928
1755.4	0.003038
1765.04	0.002458
1774.69	0.002038
1784.33	0.001628
1793.98	0.001918
1803.62	0.002718
1813.27	0.002238
1822.91	0.001518
1832.55	0.0011428
1842.2	0.00096
1851.84	0.0009889
1861.49	0.001047
1871.13	0.001127
1880.78	0.001358
1890.42	0.001708
1900.07	0.001828
1909.71	0.001538
1919.36	0.0011726
1929	0.0009578
1938.65	0.0011981
1948.29	0.001778
1957.94	0.002028
1967.58	0.001878
1977.23	0.0011683
1986.87	0.0007964
1996.52	0.0007247
2006.16	0.0007129
2015.81	0.0007662
2025.45	0.000868
2035.1	0.0007816
2044.74	0.0007633
2054.38	0.0007191
2064.03	0.0006741
2073.67	0.0006205
2083.32	0.0006281
2092.96	0.0005208
2102.61	0.0005272
2112.25	0.0005528
2121.9	0.0005819
2131.54	0.000475
2141.19	0.0005397
2150.83	0.000546
2160.48	0.0005804
2170.12	0.0005692
2179.77	0.0005907
2189.41	0.0006023
2199.06	0.0005726
2208.7	0.0005427
2218.35	0.0005173
2227.99	0.0005839
2237.64	0.0006083
2247.28	0.0007129
2256.92	0.0006822
2266.57	0.0006981
2276.21	0.0007023
2285.86	0.0007355
2295.5	0.0007658
2305.15	0.000759
2314.79	0.0010883
2324.44	0.0010652
2334.08	0.0009454
2343.73	0.0008674
2353.37	0.0008072
2363.02	0.0008018
2372.66	0.0007179
2382.31	0.0007157
2391.95	0.0007387
2401.6	0.0007654
2411.24	0.0007518
2420.89	0.0007826
2430.53	0.0006676
2440.18	0.0007423
2449.82	0.0006586
2459.47	0.0006246
2469.11	0.0007149
2478.75	0.0007385
2488.4	0.0007039
2498.04	0.0007402
2507.69	0.0008079
2517.33	0.000841
2526.98	0.0009882
2536.62	0.0010949
2546.27	0.0010261
2555.91	0.001081
2565.56	0.001178
2575.2	0.001338
2584.85	0.001508
2594.49	0.001598
2604.14	0.001608
2613.78	0.001788
2623.43	0.001878
2633.07	0.002108
2642.72	0.002188
2652.36	0.002388
2662.01	0.002608
2671.65	0.002848
2681.29	0.003028
2690.94	0.002938
2700.58	0.002648
2710.23	0.002548
2719.87	0.002738
2729.52	0.002818
2739.16	0.003158
2748.81	0.003348
2758.45	0.003468
2768.1	0.003918
2777.74	0.004418
2787.39	0.005188
2797.03	0.006508
2806.68	0.007958
2816.32	0.010248
2825.97	0.013288
2835.61	0.018458
2845.26	0.031478
2854.9	0.072118
2864.55	0.107288
2874.19	0.077258
2883.84	0.059698
2893.48	0.057868
2903.12	0.077188
2912.77	0.114578
2922.41	0.190998
2932.06	0.285398
2941.7	0.216698
2951.35	0.124368
2960.99	0.090748
2970.64	0.074708
2980.28	0.039558
2989.93	0.022298
2999.57	0.015068
3009.22	0.011488
3018.86	0.010498
3028.51	0.011558
3038.15	0.012428
3047.8	0.011408
3057.44	0.012938
3067.09	0.018858
3076.73	0.018988
3086.38	0.014648
3096.02	0.011118
3105.67	0.006978
3115.31	0.004108
3124.95	0.002618
3134.6	0.002018
3144.24	0.001908
3153.89	0.001898
3163.53	0.001708
3173.18	0.001558
3182.82	0.001298
3192.47	0.001053
3202.11	0.0009909
3211.76	0.0007143
3221.4	0.0007275
3231.05	0.0005985
3240.69	0.0003847
3250.34	0.0006263
3259.98	0.0003981
3269.63	0.0006018
3279.27	0.0004126
3288.92	0.0004889
3298.56	0.00030375
3308.21	0.0003546
3317.85	0.0003289
3327.49	0.0004091
3337.14	0.0005412
3346.78	0.0005274
3356.43	0.0007233
3366.07	0.0010762
3375.72	0.001748
3385.36	0.001618
3395.01	0.001308
3404.65	0.0007122
3414.3	0.000668
3423.94	0.0003716
3433.59	0.00022091
3443.23	0.000342
3452.88	0.000315
3462.52	0.0001128
3472.17	0.00026232
3481.81	0.0001295
3491.46	0.0003797
3501.1	0.0002817
3510.75	0.00020653
3520.39	0.000106
3530.04	4.9e-05
3539.68	0.0001758
3549.32	0.00020982
3558.97	0.000213251
3568.61	0.000105
3578.26	0.0003375
3587.9	0.0001792
3597.55	0.0004132
3607.19	0.000582
3616.84	0.0004124
3626.48	0.0005573
3636.13	0.0003812
3645.77	0.0004783
3655.42	0.0006872
3665.06	0.0006187
3674.71	0.0006079
3684.35	0.0003752
3694	0.0005438
3703.64	0.0005918
3713.29	0.0003243
3722.93	0.000616
3732.58	0.0005088
3742.22	0.0005681
3751.86	0.0005238
3761.51	0.0004565
3771.15	0.0004767
3780.8	0.00027172
3790.44	0.0002994
3800.09	0.0003916
3809.73	0.0005178
3819.38	0.00027379
3829.02	0.0004979
3838.67	0.0005041
3848.31	0.0005408
3857.96	0.0004497
3867.6	0.0004275
3877.25	0.0003626
3886.89	0.0006225
3896.54	0.0004937
3906.18	0.0005427
3915.83	0.0006273
3925.47	0.0004357
3935.12	0.0005345
3944.76	0.0005894
3954.41	0.0006265
3964.05	0.0006364
3973.69	0.0007481
3983.34	0.0006886
3992.98	0.0006737
