Infrared Spectrum: N-(Beta-CYANOETHYL)GLYCINE ETHYL ESTER
Formula: C7 H12 N2 O2
CAS: 44981-94-4
State: LIQUID
Class: COBLENTZ
Instrument: PERKIN-ELMER
Sampling: TRANSMISSION
Path length: CAPILLARY
Resolution: 4
Origin: ABBOTT LABORATORIES - WASHBURN
MICROMETERS	TRANSMITTANCE
2.041	0.909
2.07507	0.911
2.10913	0.911
2.1432	0.911
2.17726	0.9158
2.21133	0.9187
2.24539	0.923
2.27946	0.926
2.31352	0.92
2.34759	0.917
2.38165	0.917
2.41572	0.926
2.44978	0.9236
2.48385	0.928
2.51792	0.9286
2.55198	0.9309
2.58605	0.931
2.62011	0.936
2.65418	0.936
2.68824	0.936
2.72231	0.94
2.75637	0.9397
2.79044	0.9179
2.8245	0.904
2.85857	0.897
2.89263	0.895
2.9267	0.8827
2.96077	0.878
2.99483	0.8535
3.0289	0.7704
3.06296	0.7916
3.09703	0.8541
3.13109	0.8907
3.16516	0.9045
3.19922	0.9162
3.23329	0.9231
3.26735	0.921
3.30142	0.917
3.33548	0.8784
3.36955	0.8028
3.40362	0.7235
3.43768	0.6519
3.47175	0.6772
3.50581	0.7321
3.53988	0.7245
3.57394	0.7543
3.60801	0.8244
3.64207	0.8936
3.67614	0.9118
3.7102	0.918
3.74427	0.9273
3.77834	0.9374
3.8124	0.9463
3.84647	0.953
3.88053	0.9459
3.9146	0.941
3.94866	0.9448
3.98273	0.9428
4.01679	0.9363
4.05086	0.936
4.08492	0.9321
4.11899	0.9253
4.15305	0.9198
4.18712	0.912
4.22119	0.9097
4.25525	0.9055
4.28932	0.9032
4.32338	0.9065
4.35745	0.9031
4.39151	0.8987
4.42558	0.8918
4.45964	0.8673
4.49371	0.678
4.52777	0.8224
4.56184	0.87
4.5959	0.8779
4.62997	0.873
4.66404	0.8702
4.6981	0.8698
4.73217	0.8631
4.76623	0.859
4.8003	0.854
4.83436	0.8495
4.86843	0.8487
4.90249	0.847
4.93656	0.854
4.97062	0.852
5.00469	0.856
5.03875	0.8486
5.07282	0.852
5.10689	0.8484
5.14095	0.8425
5.17502	0.842
5.20908	0.8445
5.24315	0.836
5.27721	0.8395
5.31128	0.839
5.34534	0.837
5.37941	0.832
5.41347	0.8333
5.44754	0.8326
5.4816	0.83
5.51567	0.8173
5.54974	0.8103
5.5838	0.7946
5.61787	0.7646
5.65193	0.7084
5.686	0.5578
5.72006	0.2138
5.75413	0.1005
5.78819	0.1197
5.82226	0.3019
5.85632	0.5558
5.89039	0.6587
5.92445	0.7262
5.95852	0.7586
5.99259	0.776
6.02665	0.7933
6.06072	0.795
6.09478	0.805
6.12885	0.801
6.16291	0.805
6.19698	0.806
6.23104	0.808
6.26511	0.806
6.29917	0.811
6.33324	0.811
6.36731	0.815
6.40137	0.8117
6.43544	0.8086
6.4695	0.8117
6.50357	0.8093
6.53763	0.811
6.5717	0.8009
6.60576	0.7966
6.63983	0.7785
6.67389	0.7591
6.70796	0.7086
6.74202	0.6592
6.77609	0.5715
6.81016	0.552
6.84422	0.5425
6.87829	0.541
6.91235	0.5324
6.94642	0.4799
6.98048	0.402
7.01455	0.458
7.04861	0.462
7.08268	0.4874
7.11674	0.6014
7.15081	0.6426
7.18487	0.6299
7.21894	0.6059
7.25301	0.5748
7.28707	0.5362
7.32114	0.5353
7.3552	0.59
7.38927	0.5955
7.42333	0.5798
7.4574	0.5922
7.49146	0.6221
7.52553	0.649
7.55959	0.663
7.59366	0.6875
7.62772	0.7014
7.66179	0.6865
7.69586	0.6497
7.72992	0.6074
7.76399	0.5781
7.79805	0.5493
7.83212	0.5223
7.86618	0.4977
7.90025	0.4665
7.93431	0.4451
7.96838	0.4277
8.00244	0.409
8.03651	0.3898
8.07057	0.3586
8.10464	0.3087
8.13871	0.2571
8.17277	0.2146
8.20684	0.1749
8.2409	0.1649
8.27497	0.158
8.30903	0.1679
8.3431	0.1807
8.37716	0.1955
8.41123	0.2119
8.44529	0.2363
8.47936	0.2579
8.51342	0.3066
8.54749	0.3616
8.58156	0.381
8.61562	0.3532
8.64969	0.2953
8.68375	0.2709
8.71782	0.264
8.75188	0.2944
8.78595	0.3691
8.82001	0.4515
8.85408	0.534
8.88814	0.6028
8.92221	0.6403
8.95628	0.6749
8.99034	0.6876
9.02441	0.699
9.05847	0.6944
9.09254	0.6727
9.1266	0.6577
9.16067	0.6608
9.19473	0.6888
9.2288	0.7233
9.26286	0.7514
9.29693	0.7676
9.33099	0.7784
9.36506	0.781
9.39913	0.7817
9.43319	0.7775
9.46726	0.7642
9.50132	0.7481
9.53539	0.7325
9.56945	0.7197
9.60352	0.6975
9.63758	0.6693
9.67165	0.6337
9.70571	0.5995
9.73978	0.5776
9.77384	0.57
9.80791	0.5789
9.84198	0.5871
9.87604	0.6022
9.91011	0.616
9.94417	0.6342
9.97824	0.6516
10.0123	0.6824
10.0464	0.6724
10.0804	0.6647
10.1145	0.652
10.1486	0.642
10.1826	0.6446
10.2167	0.6533
10.2508	0.6668
10.2848	0.6835
10.3189	0.7061
10.353	0.714
10.387	0.7182
10.4211	0.7233
10.4552	0.718
10.4892	0.7082
10.5233	0.7109
10.5573	0.7265
10.5914	0.7502
10.6255	0.7613
10.6595	0.772
10.6936	0.777
10.7277	0.77
10.7617	0.764
10.7958	0.7634
10.8299	0.767
10.8639	0.774
10.898	0.777
10.9321	0.7762
10.9661	0.77
11.0002	0.7725
11.0343	0.765
11.0683	0.7557
11.1024	0.747
11.1365	0.7493
11.1705	0.748
11.2046	0.7417
11.2387	0.74
11.2727	0.74
11.3068	0.7424
11.3409	0.75
11.3749	0.7544
11.409	0.7662
11.443	0.764
11.4771	0.765
11.5112	0.7555
11.5452	0.748
11.5793	0.7402
11.6134	0.7151
11.6474	0.7014
11.6815	0.6977
11.7156	0.694
11.7496	0.6964
11.7837	0.7064
11.8178	0.716
11.8518	0.7161
11.8859	0.721
11.92	0.7196
11.954	0.721
11.9881	0.7225
12.0222	0.7265
12.0562	0.721
12.0903	0.723
12.1244	0.719
12.1584	0.7177
12.1925	0.7273
12.2266	0.7197
12.2606	0.7133
12.2947	0.7119
12.3287	0.7167
12.3628	0.7163
12.3969	0.719
12.4309	0.712
12.465	0.716
12.4991	0.7055
12.5331	0.7112
12.5672	0.7112
12.6013	0.6947
12.6353	0.6787
12.6694	0.67
12.7035	0.6564
12.7375	0.642
12.7716	0.6343
12.8057	0.618
12.8397	0.6053
12.8738	0.6003
12.9079	0.5854
12.9419	0.577
12.976	0.572
13.0101	0.5625
13.0441	0.5555
13.0782	0.552
13.1123	0.5485
13.1463	0.547
13.1804	0.5417
13.2144	0.541
13.2485	0.545
13.2826	0.547
13.3166	0.548
13.3507	0.55
13.3848	0.553
13.4188	0.5594
13.4529	0.565
13.487	0.569
13.521	0.574
13.5551	0.5805
13.5892	0.588
13.6232	0.596
13.6573	0.601
13.6914	0.605
13.7254	0.6123
13.7595	0.6193
13.7936	0.62
13.8276	0.6193
13.8617	0.625
13.8958	0.627
13.9298	0.629
13.9639	0.6398
13.998	0.635
14.032	0.642
14.0661	0.6435
14.1001	0.6402
14.1342	0.635
14.1683	0.638
14.2023	0.6344
14.2364	0.641
14.2705	0.6357
14.3045	0.632
14.3386	0.636
14.3727	0.6327
14.4067	0.629
14.4408	0.634
14.4749	0.627
14.5089	0.6242
14.543	0.6227
14.5771	0.627
14.6111	0.6205
14.6452	0.6227
14.6793	0.6265
14.7133	0.6255
14.7474	0.622
14.7815	0.625
14.8155	0.622
14.8496	0.6227
14.8837	0.623
14.9177	0.6223
14.9518	0.618
14.9858	0.6194
15.0199	0.6279
15.054	0.6223
15.088	0.615
15.1221	0.6135
15.1562	0.613
15.1902	0.611
15.2243	0.61
15.2584	0.6067
15.2924	0.606
15.3265	0.603
15.3606	0.6017
15.3946	0.601
15.4287	0.6
