Infrared Spectrum: p-Xylene-Alpha-thiol
Formula: C8 H10 S
CAS: 4498-99-1
State: SOLUTION (10% CCl4 FOR 3800-1330, 10% CS2 FOR 1330-400 CM^-^1)
Class: COBLENTZ III
Instrument: BECKMAN IR-9 (GRATING)
Instrument parameters: ORDER CHANGES: 670, 1200, 2000 CM^-^1
Sampling: TRANSMISSION
Path length: 0.011 CM, 0.011 CM
Resolution: 2
Origin: DOW CHEMICAL COMPANY
1/CM	TRANSMITTANCE
3800	0.853
3791	0.8534
3782	0.852
3773	0.8537
3764	0.8538
3755	0.8538
3746	0.8534
3737	0.8546
3728	0.8539
3719	0.8516
3710	0.8519
3701	0.8511
3692	0.8485
3683	0.8465
3674	0.8465
3665	0.8465
3656	0.8465
3647	0.8461
3638	0.8443
3629	0.8407
3620	0.8387
3611	0.8416
3602	0.8446
3593	0.839
3584	0.8337
3575	0.8403
3566	0.8397
3557	0.8392
3548	0.84
3539	0.8389
3530	0.8389
3521	0.8368
3512	0.8364
3503	0.8358
3494	0.8355
3485	0.8348
3476	0.834
3467	0.8332
3458	0.8324
3449	0.8319
3440	0.8315
3431	0.8312
3422	0.8311
3413	0.831
3404	0.8309
3395	0.8315
3386	0.8323
3377	0.8336
3368	0.8355
3359	0.8372
3350	0.8386
3341	0.8398
3332	0.8409
3323	0.8421
3314	0.8431
3305	0.8458
3296	0.8455
3287	0.8464
3278	0.8481
3269	0.849
3260	0.8493
3251	0.8497
3242	0.85
3233	0.8512
3224	0.8521
3215	0.852
3206	0.8506
3197	0.8518
3188	0.8519
3179	0.85
3170	0.8495
3161	0.849
3152	0.8474
3143	0.8365
3134	0.8142
3125	0.8307
3116	0.83
3107	0.8159
3098	0.7449
3089	0.7669
3080	0.7726
3071	0.7496
3062	0.6476
3053	0.5266
3044	0.5607
3035	0.5774
3026	0.4494
3017	0.5339
3008	0.5146
2999	0.574
2990	0.5948
2981	0.5819
2972	0.5743
2963	0.5573
2954	0.5301
2945	0.4982
2936	0.4374
2927	0.3676
2918	0.4779
2909	0.64
2900	0.6793
2891	0.6831
2882	0.6678
2873	0.6342
2864	0.6371
2855	0.7196
2846	0.7681
2837	0.7938
2828	0.8096
2819	0.8235
2810	0.8339
2801	0.8455
2792	0.8497
2783	0.8513
2774	0.8525
2765	0.8518
2756	0.8485
2747	0.8387
2738	0.8162
2729	0.8377
2720	0.8484
2711	0.8493
2702	0.8489
2693	0.8481
2684	0.8497
2675	0.8512
2666	0.8516
2657	0.8524
2648	0.851
2639	0.8499
2630	0.8498
2621	0.8506
2612	0.8478
2603	0.8395
2594	0.831
2585	0.8278
2576	0.8296
2567	0.8411
2558	0.8513
2549	0.855
2540	0.856
2531	0.8579
2522	0.8597
2513	0.8608
2504	0.8619
2495	0.8622
2486	0.8624
2477	0.8637
2468	0.8637
2459	0.8641
2450	0.8635
2441	0.8639
2432	0.8624
2423	0.8641
2414	0.8651
2405	0.8671
2396	0.8659
2387	0.8651
2378	0.8681
2369	0.8685
2360	0.8659
2351	0.8644
2342	0.8634
2333	0.865
2324	0.8675
2315	0.8645
2306	0.8625
2297	0.867
2288	0.8732
2279	0.8771
2270	0.877
2261	0.8768
2252	0.877
2243	0.8761
2234	0.8767
2225	0.8786
2216	0.8778
2207	0.8781
2198	0.8786
2189	0.8773
2180	0.8775
2171	0.8791
2162	0.8778
2153	0.8779
2144	0.8785
2135	0.8795
2126	0.8807
2117	0.8811
2108	0.8811
2099	0.8809
2090	0.8806
2081	0.8802
2072	0.8796
2063	0.8786
2054	0.879
2045	0.8769
2036	0.8766
2027	0.8758
2018	0.8748
2009	0.8689
2000	0.8575
1991	0.8721
1982	0.8717
1973	0.8705
1964	0.8669
1955	0.8707
1946	0.8672
1937	0.8643
1928	0.8601
1919	0.8574
1910	0.8391
1901	0.7654
1892	0.7798
1883	0.8368
1874	0.8562
1865	0.8612
1856	0.8662
1847	0.8698
1838	0.873
1829	0.8712
1820	0.8698
1811	0.8675
1802	0.8513
1793	0.8115
1784	0.8478
1775	0.8605
1766	0.8565
1757	0.858
1748	0.864
1739	0.8692
1730	0.8699
1721	0.8682
1712	0.8647
1703	0.8646
1694	0.8646
1685	0.8619
1676	0.854
1667	0.839
1658	0.8101
1649	0.8043
1640	0.8186
1631	0.8276
1622	0.8099
1613	0.7944
1604	0.7975
1595	0.7878
1586	0.7705
1577	0.7694
1568	0.7468
1559	0.6868
1550	0.757
1541	0.8088
1532	0.7617
1523	0.567
1514	0.117
1505	0.7049
1496	0.7432
1487	0.7478
1478	0.7408
1469	0.6852
1460	0.5999
1451	0.5822
1442	0.5784
1433	0.6063
1424	0.6663
1415	0.6779
1406	0.791
1397	0.816
1388	0.8136
1379	0.7544
1370	0.8312
1361	0.8318
1352	0.8364
1343	0.8462
1334	0.8448
1325	0.8301
1316	0.7941
1307	0.8489
1298	0.8441
1289	0.8442
1280	0.845
1271	0.8343
1262	0.794
1253	0.4976
1244	0.6987
1235	0.7356
1226	0.8234
1217	0.7467
1208	0.7729
1199	0.7891
1190	0.7983
1181	0.744
1172	0.8001
1163	0.8
1154	0.8283
1145	0.855
1136	0.8504
1127	0.8053
1118	0.7524
1109	0.5108
1100	0.8092
1091	0.8584
1082	0.8652
1073	0.8606
1064	0.8564
1055	0.8296
1046	0.7647
1037	0.7351
1028	0.7836
1019	0.7328
1010	0.8525
1001	0.8359
992	0.8047
983	0.7858
974	0.779
965	0.7999
956	0.8366
947	0.8445
938	0.8588
929	0.8762
920	0.881
911	0.8858
902	0.8812
893	0.8691
884	0.85
875	0.8332
866	0.808
857	0.8226
848	0.8127
839	0.647
830	0.5706
821	0.2519
812	0.2475
803	0.5334
794	0.7049
785	0.7497
776	0.7947
767	0.803
758	0.7548
749	0.6281
740	0.7855
731	0.7859
722	0.635
713	0.7298
704	0.8719
695	0.905
686	0.8489
677	0.6983
668	0.5728
659	0.7081
650	0.8384
641	0.8813
632	0.9109
623	0.9272
614	0.9361
605	0.9382
596	0.9401
587	0.9376
578	0.9336
569	0.9274
560	0.9191
551	0.903
542	0.8741
533	0.7996
524	0.4448
515	0.4964
506	0.7977
497	0.8247
488	0.8127
479	0.7441
470	0.6409
461	0.4768
452	0.6867
443	0.5948
434	0.5146
425	0.4545
416	0.269
407	0.1677
