Infrared Spectrum: Ethanol, 2-(dicyclohexylamino)-,
Formula: C14 H27 N O
CAS: 4500-31-6
State: LIQUID (NEAT)
Class: COBLENTZ III
Instrument: PERKIN-ELMER 21 (GRATING)
Instrument parameters: FILTER AT ABOUT 10 MICRONS
Path length: CAPILLARY
Resolution: 2
Origin: ABBOTT LABORATORIES
1/CM	TRANSMITTANCE
647	0.5871
656	0.6109
665	0.6427
674	0.6582
683	0.6792
692	0.7
701	0.7175
710	0.7364
719	0.7498
728	0.7589
737	0.7628
746	0.7588
755	0.7449
764	0.7602
773	0.7576
782	0.7488
791	0.7678
800	0.8036
809	0.7962
818	0.7321
827	0.7974
836	0.7569
845	0.7162
854	0.7604
863	0.6734
872	0.7191
881	0.6309
890	0.4167
899	0.7467
908	0.7685
917	0.7703
926	0.8012
935	0.7723
944	0.7901
953	0.7892
962	0.7712
971	0.654
980	0.6987
989	0.6928
998	0.5957
1007	0.4941
1016	0.393
1025	0.3287
1034	0.3221
1043	0.2299
1052	0.2084
1061	0.3185
1070	0.5021
1079	0.6517
1088	0.6461
1097	0.4895
1106	0.5166
1115	0.5757
1124	0.5996
1133	0.7156
1142	0.6864
1151	0.6143
1160	0.5447
1169	0.5949
1178	0.6383
1187	0.6888
1196	0.642
1205	0.7287
1214	0.742
1223	0.7378
1232	0.7313
1241	0.6616
1250	0.5413
1259	0.5496
1268	0.603
1277	0.7043
1286	0.7099
1295	0.7235
1304	0.7309
1313	0.6926
1322	0.6109
1331	0.6105
1340	0.6217
1349	0.665
1358	0.6294
1367	0.5882
1376	0.5648
1385	0.5622
1394	0.5601
1403	0.5779
1412	0.6616
1421	0.6805
1430	0.5218
1439	0.3186
1448	0.3507
1457	0.5268
1466	0.698
1475	0.7425
1484	0.8174
1493	0.8272
1502	0.8328
1511	0.842
1520	0.8601
1529	0.8648
1538	0.8676
1547	0.8685
1556	0.8687
1565	0.8677
1574	0.864
1583	0.86
1592	0.8586
1601	0.8578
1610	0.8583
1619	0.8614
1628	0.8614
1637	0.8608
1646	0.8598
1655	0.8588
1664	0.8582
1673	0.8593
1682	0.8643
1691	0.8655
1700	0.8664
1709	0.8718
1718	0.8723
1727	0.8794
1736	0.881
1745	0.8818
1754	0.882
1763	0.882
1772	0.882
1781	0.8821
1790	0.8825
1799	0.8828
1808	0.8832
1817	0.8835
1826	0.8838
1835	0.8841
1844	0.8844
1853	0.8844
1862	0.8844
1871	0.8844
1880	0.8843
1889	0.8834
1898	0.8825
1907	0.8816
1916	0.8807
1925	0.8798
1934	0.879
1943	0.8781
1952	0.8772
1961	0.8763
1970	0.8756
1979	0.8754
1988	0.8798
1997	0.8829
2006	0.8809
2015	0.8774
2024	0.874
2033	0.8727
2042	0.8724
2051	0.8721
2060	0.8718
2069	0.8715
2078	0.8714
2087	0.8711
2096	0.8709
2105	0.8709
2114	0.8711
2123	0.8714
2132	0.8716
2141	0.8718
2150	0.872
2159	0.872
2168	0.8721
2177	0.8721
2186	0.8718
2195	0.8714
2204	0.8711
2213	0.8708
2222	0.8705
2231	0.8702
2240	0.8699
2249	0.8698
2258	0.8697
2267	0.8695
2276	0.8694
2285	0.8692
2294	0.8691
2303	0.869
2312	0.8688
2321	0.8685
2330	0.8681
2339	0.8678
2348	0.8675
2357	0.8672
2366	0.867
2375	0.8671
2384	0.8672
2393	0.8672
2402	0.8673
2411	0.8666
2420	0.8657
2429	0.8646
2438	0.8632
2447	0.8612
2456	0.8593
2465	0.8585
2474	0.8578
2483	0.8573
2492	0.8569
2501	0.8564
2510	0.8555
2519	0.8535
2528	0.8507
2537	0.8458
2546	0.8397
2555	0.8322
2564	0.8207
2573	0.811
2582	0.8086
2591	0.8069
2600	0.8037
2609	0.7975
2618	0.7895
2627	0.7814
2636	0.773
2645	0.7673
2654	0.769
2663	0.7725
2672	0.7745
2681	0.7755
2690	0.7747
2699	0.772
2708	0.7681
2717	0.7626
2726	0.7552
2735	0.7436
2744	0.7298
2753	0.7109
2762	0.6855
2771	0.6559
2780	0.6174
2789	0.5712
2798	0.5381
2807	0.5027
2816	0.448
2825	0.3745
2834	0.3012
2843	0.2285
2852	0.1657
2861	0.1667
2870	0.1835
2879	0.1995
2888	0.1971
2897	0.1568
2906	0.113
2915	0.0959
2924	0.0932
2933	0.0972
2942	0.1854
2951	0.2852
2960	0.3843
2969	0.4829
2978	0.5809
2987	0.6783
2996	0.738
3005	0.7625
3014	0.7776
3023	0.7842
3032	0.7853
3041	0.7855
3050	0.785
3059	0.7842
3068	0.7828
3077	0.7803
3086	0.7771
3095	0.7736
3104	0.77
3113	0.7661
3122	0.7618
3131	0.7556
3140	0.7492
3149	0.7413
3158	0.7345
3167	0.7288
3176	0.7208
3185	0.7113
3194	0.7019
3203	0.6925
3212	0.6832
3221	0.6739
3230	0.6646
3239	0.6555
3248	0.6463
3257	0.6372
3266	0.6282
3275	0.6193
3284	0.6103
3293	0.6015
3302	0.5926
3311	0.5838
3320	0.5751
3329	0.5664
3338	0.5577
3347	0.5482
3356	0.5395
3365	0.533
3374	0.5299
3383	0.5279
3392	0.5272
3401	0.5267
3410	0.5269
3419	0.5277
3428	0.529
3437	0.5325
3446	0.5413
3455	0.5625
3464	0.5867
3473	0.6107
3482	0.6346
3491	0.6584
3500	0.6822
3509	0.7057
3518	0.7292
3527	0.7525
3536	0.7757
3545	0.7987
3554	0.8214
3563	0.8357
3572	0.8459
3581	0.8551
3590	0.863
3599	0.8685
3608	0.8727
3617	0.8752
3626	0.8776
3635	0.8791
3644	0.8801
3653	0.8806
3662	0.881
3671	0.881
3680	0.881
3689	0.881
3698	0.881
3707	0.8807
3716	0.8804
3725	0.8802
3734	0.8799
3743	0.8796
3752	0.8792
3761	0.8789
3770	0.8785
3779	0.8782
3788	0.8778
3797	0.8774
3806	0.877
3815	0.8765
3824	0.8761
3833	0.8756
3842	0.8752
3851	0.8747
3860	0.8744
3869	0.8741
3878	0.8738
3887	0.8735
3896	0.8732
3905	0.8729
3914	0.8726
3923	0.8722
3932	0.8718
3941	0.8715
3950	0.8711
3959	0.8708
3968	0.8705
3977	0.8701
3986	0.8698
3995	0.8695
