Infrared Spectrum: 2-Adamantanone oxime
Formula: C 10 H 15 N O
CAS: 4500-12-3
State: gas
Origin: EPA-IR VAPOR PHASE LIBRARY
1/CM	ABSORBANCE
549.8	0.00252
559.445	0.00353
569.09	0.0026
578.734	0.00239
588.379	0.00304
598.024	0.00361
607.669	0.00328
617.313	0.00331
626.958	0.00339
636.603	0.00315
646.248	0.00346
655.893	0.00333
665.537	0.00277
675.182	0.00302
684.827	0.00324
694.472	0.00296
704.116	0.00265
713.761	0.0031
723.406	0.00249
733.051	0.00296
742.695	0.00227
752.34	0.00242
761.985	0.00241
771.63	0.00239
781.275	0.00249
790.919	0.0021052
800.564	0.00293
810.209	0.00271
819.854	0.00433
829.498	0.00595
839.143	0.00388
848.788	0.00232
858.433	0.0023
868.078	0.00318
877.722	0.00396
887.367	0.00515
897.012	0.01381
906.657	0.02404
916.301	0.01836
925.946	0.00482
935.591	0.00357
945.236	0.00478
954.88	0.00483
964.525	0.00272
974.17	0.00238
983.815	0.0021394
993.46	0.0021651
1003.1	0.0020307
1012.75	0.0014369
1022.39	0.00227
1032.04	0.00232
1041.68	0.00281
1051.33	0.0017539
1060.97	0.00257
1070.62	0.00396
1080.26	0.00388
1089.91	0.00483
1099.55	0.0043
1109.2	0.001515
1118.84	0.000455
1128.49	0.0014721
1138.13	0.0022122
1147.78	0.0020566
1157.42	0.0023
1167.07	0.0021738
1176.71	0.00364
1186.36	0.00267
1196	0.00399
1205.64	0.00357
1215.29	0.00556
1224.93	0.00321
1234.58	0.00485
1244.22	0.00448
1253.87	0.0043
1263.51	0.00452
1273.16	0.00636
1282.8	0.00641
1292.45	0.00444
1302.09	0.0038
1311.74	0.00444
1321.38	0.00497
1331.03	0.00476
1340.67	0.00357
1350.32	0.00306
1359.96	0.00314
1369.61	0.00413
1379.25	0.00459
1388.9	0.00348
1398.54	0.0021417
1408.18	0.0019967
1417.83	0.0020581
1427.47	0.0023
1437.12	0.00379
1446.76	0.00588
1456.41	0.00661
1466.05	0.00448
1475.7	0.00324
1485.34	0.0020008
1494.99	0.0019619
1504.63	0.0015902
1514.28	0.0017816
1523.92	0.0018195
1533.57	0.0019978
1543.21	0.0018283
1552.86	0.0017421
1562.5	0.001715
1572.15	0.0018031
1581.79	0.0018378
1591.44	0.0016578
1601.08	0.0017602
1610.73	0.0017758
1620.37	0.001772
1630.01	0.0021891
1639.66	0.00227
1649.3	0.00316
1658.95	0.00343
1668.59	0.00254
1678.24	0.00228
1687.88	0.0019556
1697.53	0.0018695
1707.17	0.0018981
1716.82	0.0021269
1726.46	0.0018111
1736.11	0.0019515
1745.75	0.0017693
1755.4	0.0016841
1765.04	0.0019509
1774.69	0.0018129
1784.33	0.0016275
1793.98	0.0018239
1803.62	0.0018057
1813.27	0.001956
1822.91	0.0018693
1832.55	0.0015872
1842.2	0.0017916
1851.84	0.0016397
1861.49	0.001776
1871.13	0.0016807
1880.78	0.0018974
1890.42	0.0016505
1900.07	0.0018181
1909.71	0.0019015
1919.36	0.0016964
1929	0.0017214
1938.65	0.0017672
1948.29	0.0015715
1957.94	0.0017914
1967.58	0.0018061
1977.23	0.0017228
1986.87	0.0016826
1996.52	0.0016769
2006.16	0.0017628
2015.81	0.0015966
2025.45	0.0014359
2035.1	0.0014774
2044.74	0.001541
2054.38	0.001711
2064.03	0.0016125
2073.67	0.0015845
2083.32	0.001684
2092.96	0.0016408
2102.61	0.0016174
2112.25	0.0017153
2121.9	0.0014434
2131.54	0.001794
2141.19	0.001595
2150.83	0.0015522
2160.48	0.0016853
2170.12	0.0014256
2179.77	0.0015401
2189.41	0.0013655
2199.06	0.0015971
2208.7	0.0017541
2218.35	0.0015137
2227.99	0.0014696
2237.64	0.0017057
2247.28	0.0016977
2256.92	0.0017877
2266.57	0.0013834
2276.21	0.0015936
2285.86	0.0016516
2295.5	0.0015858
2305.15	0.0017324
2314.79	0.0015721
2324.44	0.0015928
2334.08	0.00130288
2343.73	0.0016327
2353.37	0.0015391
2363.02	0.0014528
2372.66	0.0018813
2382.31	0.00132014
2391.95	0.0016129
2401.6	0.0016188
2411.24	0.0014789
2420.89	0.0015732
2430.53	0.0015039
2440.18	0.0013437
2449.82	0.0016228
2459.47	0.0016342
2469.11	0.0016766
2478.75	0.001434
2488.4	0.0017793
2498.04	0.0013688
2507.69	0.0016866
2517.33	0.0017835
2526.98	0.001677
2536.62	0.0017479
2546.27	0.0017996
2555.91	0.0020132
2565.56	0.0021369
2575.2	0.0018644
2584.85	0.0014143
2594.49	0.0017492
2604.14	0.0018729
2613.78	0.001806
2623.43	0.0019404
2633.07	0.00251
2642.72	0.0025
2652.36	0.00227
2662.01	0.00259
2671.65	0.0019736
2681.29	0.0017905
2690.94	0.0016279
2700.58	0.0016882
2710.23	0.0019039
2719.87	0.0015741
2729.52	0.00132923
2739.16	0.0017547
2748.81	0.0014518
2758.45	0.0019282
2768.1	0.0017541
2777.74	0.0018508
2787.39	0.0017589
2797.03	0.0022073
2806.68	0.0020341
2816.32	0.0021718
2825.97	0.00225
2835.61	0.00323
2845.26	0.00578
2854.9	0.01494
2864.55	0.01935
2874.19	0.01126
2883.84	0.00583
2893.48	0.00799
2903.12	0.02207
2912.77	0.04828
2922.41	0.06517
2932.06	0.0531
2941.7	0.02749
2951.35	0.01317
2960.99	0.00585
2970.64	0.00371
2980.28	0.00402
2989.93	0.00407
2999.57	0.00292
3009.22	0.0017829
3018.86	0.002021
3028.51	0.0018292
3038.15	0.0016221
3047.8	0.0015702
3057.44	0.0018389
3067.09	0.0017652
3076.73	0.0016164
3086.38	0.00132572
3096.02	0.0017079
3105.67	0.00132798
3115.31	0.0021043
3124.95	0.0019931
3134.6	0.0016146
3144.24	0.0014176
3153.89	0.00176
3163.53	0.0012493
3173.18	0.0014523
3182.82	0.001495
3192.47	0.0016516
3202.11	0.0014249
3211.76	0.0018698
3221.4	0.00126709
3231.05	0.001519
3240.69	0.00126753
3250.34	0.00126525
3259.98	0.0018419
3269.63	0.0019883
3279.27	0.0018642
3288.92	0.0017653
3298.56	0.0016544
3308.21	0.0021949
3317.85	0.0020783
3327.49	0.001715
3337.14	0.0017849
3346.78	0.0015693
3356.43	0.0018468
3366.07	0.0018921
3375.72	0.0016872
3385.36	0.0017268
3395.01	0.0015083
3404.65	0.0015098
3414.3	0.0015566
3423.94	0.0016441
3433.59	0.00153
3443.23	0.001457
3452.88	0.0017361
3462.52	0.0014164
3472.17	0.0017169
3481.81	0.00122651
3491.46	0.0018827
3501.1	0.0014408
3510.75	0.0017713
3520.39	0.0018978
3530.04	0.0017149
3539.68	0.001076
3549.32	0.0019648
3558.97	0.0020077
3568.61	0.0015262
3578.26	0.0016203
3587.9	0.0015651
3597.55	0.0017076
3607.19	0.00234
3616.84	0.00237
3626.48	0.00378
3636.13	0.00944
3645.77	0.01697
3655.42	0.01201
3665.06	0.00375
3674.71	0.0022202
3684.35	0.0021357
3694	0.0017542
3703.64	0.0020813
3713.29	0.0018366
3722.93	0.0017958
3732.58	0.0017746
3742.22	0.0017548
3751.86	0.0013495
3761.51	0.0013736
3771.15	0.0013872
3780.8	0.0015784
3790.44	0.0017026
3800.09	0.0018991
3809.73	0.0017527
3819.38	0.0014873
3829.02	0.0011409
3838.67	0.001767
3848.31	0.0014823
3857.96	0.001778
3867.6	0.0016534
3877.25	0.0014826
3886.89	0.0014732
3896.54	0.0017893
3906.18	0.0017078
3915.83	0.0018711
3925.47	0.0019376
3935.12	0.0014934
3944.76	0.0016805
3954.41	0.0016701
3964.05	0.0016803
3973.69	0.0014793
3983.34	0.0011421
3992.98	0.00130972
