Infrared Spectrum: 5-Bromopentanoyl chloride
Formula: C 5 H 8 Br Cl O
CAS: 4509-90-4
State: gas
Origin: EPA-IR VAPOR PHASE LIBRARY
1/CM	ABSORBANCE
501.5	0.002163
513.074	0.002363
524.648	0.003023
536.222	0.004663
547.796	0.006743
559.37	0.009673
570.944	0.012063
582.518	0.011483
594.092	0.009643
605.666	0.006893
617.24	0.004873
628.814	0.004263
640.388	0.005003
651.962	0.006763
663.536	0.009953
675.11	0.010973
686.684	0.012953
698.258	0.010013
709.832	0.009033
721.406	0.011803
732.98	0.013443
744.554	0.012703
756.128	0.012783
767.702	0.011763
779.276	0.010263
790.85	0.007833
802.423	0.006663
813.997	0.006963
825.571	0.005913
837.145	0.005463
848.719	0.005383
860.293	0.005723
871.867	0.006093
883.441	0.006293
895.015	0.007583
906.589	0.010143
918.163	0.014233
929.737	0.019863
941.311	0.022493
952.885	0.021723
964.459	0.020893
976.033	0.019323
987.607	0.016873
999.181	0.014563
1010.76	0.013113
1022.33	0.012033
1033.9	0.010243
1045.48	0.009863
1057.05	0.010203
1068.63	0.010603
1080.2	0.009753
1091.77	0.007123
1103.35	0.004603
1114.92	0.003683
1126.49	0.003843
1138.07	0.004283
1149.64	0.005133
1161.22	0.005003
1172.79	0.004083
1184.36	0.003493
1195.94	0.003173
1207.51	0.002913
1219.09	0.002913
1230.66	0.003043
1242.23	0.003833
1253.81	0.004503
1265.38	0.005243
1276.96	0.007043
1288.53	0.007913
1300.1	0.007793
1311.68	0.007753
1323.25	0.006773
1334.83	0.005283
1346.4	0.004423
1357.97	0.003883
1369.55	0.003183
1381.12	0.002463
1392.7	0.002453
1404.27	0.003383
1415.84	0.004563
1427.42	0.005233
1438.99	0.006403
1450.57	0.008173
1462.14	0.006263
1473.71	0.002943
1485.29	0.001253
1496.86	0.0005665
1508.44	0.00027947
1520.01	0.0001359
1531.58	3.5e-05
1543.16	1.3e-05
1554.73	1.5e-05
1566.31	9.4e-05
1577.88	0.0001469
1589.45	0.0001931
1601.03	0.00030282
1612.6	0.0003903
1624.18	0.0004934
1635.75	0.0005741
1647.32	0.0006564
1658.9	0.0007479
1670.47	0.0009
1682.05	0.0010321
1693.62	0.0011357
1705.19	0.001363
1716.77	0.001813
1728.34	0.002483
1739.92	0.003643
1751.49	0.005983
1763.06	0.011003
1774.64	0.020063
1786.21	0.037413
1797.79	0.063943
1809.36	0.075223
1820.93	0.052293
1832.51	0.024903
1844.08	0.012153
1855.66	0.007223
1867.23	0.005093
1878.8	0.003863
1890.38	0.003013
1901.95	0.002403
1913.53	0.002013
1925.1	0.001743
1936.67	0.001563
1948.25	0.001383
1959.82	0.001253
1971.4	0.0011524
1982.97	0.001065
1994.54	0.0010034
2006.12	0.0009647
2017.69	0.0009788
2029.27	0.0010501
2040.84	0.0012065
2052.41	0.001543
2063.99	0.002213
2075.56	0.003253
2087.14	0.005233
2098.71	0.009483
2110.28	0.018853
2121.86	0.031943
2133.43	0.030523
2145.01	0.014583
2156.58	0.005863
2168.15	0.002933
2179.73	0.001763
2191.3	0.001283
2202.88	0.0010642
2214.45	0.0009721
2226.02	0.0009495
2237.6	0.0009459
2249.17	0.000937
2260.74	0.0008443
2272.32	0.0007723
2283.89	0.0007855
2295.47	0.0007874
2307.04	0.00075
2318.61	0.0007443
2330.19	0.0007455
2341.76	0.0007411
2353.34	0.0007564
2364.91	0.0007723
2376.48	0.0007126
2388.06	0.0006313
2399.63	0.0005834
2411.21	0.0005661
2422.78	0.0005631
2434.35	0.0005707
2445.93	0.0005501
2457.5	0.0005282
2469.08	0.0005388
2480.65	0.0005271
2492.22	0.0005012
2503.8	0.0005165
2515.37	0.0005214
2526.95	0.0005412
2538.52	0.0005055
2550.09	0.0004533
2561.67	0.000486
2573.24	0.0005167
2584.82	0.0004725
2596.39	0.0005288
2607.96	0.0004634
2619.54	0.0005179
2631.11	0.0005475
2642.69	0.000562
2654.26	0.0007187
2665.83	0.0006413
2677.41	0.0009033
2688.98	0.0007623
2700.56	0.0010526
2712.13	0.0007698
2723.7	0.0010156
2735.28	0.0008517
2746.85	0.0010255
2758.43	0.0009186
2770	0.0010248
2781.57	0.0010147
2793.15	0.0011227
2804.72	0.0011635
2816.3	0.001483
2827.87	0.001593
2839.44	0.002363
2851.02	0.003183
2862.59	0.004613
2874.17	0.005623
2885.74	0.006133
2897.31	0.006023
2908.89	0.007283
2920.46	0.009123
2932.04	0.011283
2943.61	0.014943
2955.18	0.017773
2966.76	0.018933
2978.33	0.014423
2989.91	0.009533
3001.48	0.008163
3013.05	0.004973
3024.63	0.002473
3036.2	0.001703
3047.78	0.001633
3059.35	0.001543
3070.92	0.001283
3082.5	0.0009635
3094.07	0.0008267
3105.65	0.0007526
3117.22	0.0007526
3128.79	0.0007736
3140.37	0.0006809
3151.94	0.0007086
3163.52	0.0006673
3175.09	0.0006942
3186.66	0.0006914
3198.24	0.0006557
3209.81	0.0006082
3221.39	0.0006873
3232.96	0.0007489
3244.53	0.0007626
3256.11	0.0007042
3267.68	0.0005865
3279.26	0.0006695
3290.83	0.0006014
3302.4	0.0006191
3313.98	0.0005618
3325.55	0.0005952
3337.13	0.0005147
3348.7	0.0005324
3360.27	0.0006063
3371.85	0.0006148
3383.42	0.000588
3395	0.0006341
3406.57	0.0005774
3418.14	0.0005947
3429.72	0.0006298
3441.29	0.0006452
3452.86	0.0006433
3464.44	0.0006561
3476.01	0.000719
3487.59	0.0007588
3499.16	0.0007734
3510.73	0.0008142
3522.31	0.0008502
3533.88	0.0007643
3545.46	0.0008728
3557.03	0.0010812
3568.6	0.001553
3580.18	0.001913
3591.75	0.001883
3603.33	0.001693
3614.9	0.001283
3626.47	0.0011427
3638.05	0.0009206
3649.62	0.0008023
3661.2	0.0006929
3672.77	0.0006219
3684.34	0.0006409
3695.92	0.0006564
3707.49	0.0005554
3719.07	0.0005391
3730.64	0.0005914
3742.21	0.0006174
3753.79	0.0006096
3765.36	0.0004964
3776.94	0.0005888
3788.51	0.0005418
3800.08	0.0005868
3811.66	0.0006126
3823.23	0.0005093
3834.81	0.0005528
3846.38	0.0005175
3857.95	0.0005703
3869.53	0.0005627
3881.1	0.0006102
3892.68	0.0006059
3904.25	0.0005904
3915.82	0.0005595
3927.4	0.0006471
3938.97	0.000618
3950.55	0.0005863
3962.12	0.0005493
3973.69	0.0006465
3985.27	0.0006492
3996.84	0.0007087
