Infrared Spectrum: Phenylbenzyl ketone
Formula: C 14 H 12 O
CAS: 451-40-1
State: gas
Origin: EPA-IR VAPOR PHASE LIBRARY
1/CM	ABSORBANCE
501.5	0.0008159
513.074	0.0013648
524.648	0.0025148
536.222	0.0024948
547.796	0.0019948
559.37	0.0040148
570.944	0.0053748
582.518	0.0078448
594.092	0.0131248
605.666	0.0047948
617.24	0.0031348
628.814	0.0025048
640.388	0.0019748
651.962	0.0028548
663.536	0.0069148
675.11	0.0132148
686.684	0.0279448
698.258	0.0320948
709.832	0.0187148
721.406	0.0186048
732.98	0.0119048
744.554	0.0147148
756.128	0.0129548
767.702	0.0063048
779.276	0.0036648
790.85	0.0023248
802.423	0.0014748
813.997	0.0009076
825.571	0.0009723
837.145	0.0010948
848.719	0.0007639
860.293	0.0007086
871.867	0.0007821
883.441	0.0009443
895.015	0.0013648
906.589	0.0015848
918.163	0.0021148
929.737	0.0026148
941.311	0.0019348
952.885	0.0017048
964.459	0.0026248
976.033	0.0053848
987.607	0.0105448
999.181	0.0106048
1010.76	0.0108948
1022.33	0.0094748
1033.9	0.0064948
1045.48	0.0031448
1057.05	0.0026048
1068.63	0.0029848
1080.2	0.0023748
1091.77	0.0018648
1103.35	0.0015448
1114.92	0.0014148
1126.49	0.0016848
1138.07	0.0027648
1149.64	0.0050448
1161.22	0.0063848
1172.79	0.0091148
1184.36	0.0142448
1195.94	0.0123648
1207.51	0.0118548
1219.09	0.0111548
1230.66	0.0101448
1242.23	0.0116248
1253.81	0.0191848
1265.38	0.0274448
1276.96	0.0217948
1288.53	0.0140248
1300.1	0.0101848
1311.68	0.0108648
1323.25	0.0122848
1334.83	0.0106048
1346.4	0.0061048
1357.97	0.0029148
1369.55	0.0022748
1381.12	0.0019948
1392.7	0.0015948
1404.27	0.0018648
1415.84	0.0027748
1427.42	0.0043548
1438.99	0.0079748
1450.57	0.0108548
1462.14	0.0046248
1473.71	0.0025648
1485.29	0.0044348
1496.86	0.0097848
1508.44	0.0034448
1520.01	0.0017448
1531.58	0.0016548
1543.16	0.0015148
1554.73	0.0017548
1566.31	0.0026948
1577.88	0.0051448
1589.45	0.0071748
1601.03	0.0090648
1612.6	0.0052748
1624.18	0.0025348
1635.75	0.0019948
1647.32	0.0024348
1658.9	0.0037248
1670.47	0.0064848
1682.05	0.0161148
1693.62	0.0433748
1705.19	0.0445248
1716.77	0.0205848
1728.34	0.0073848
1739.92	0.0036548
1751.49	0.0024948
1763.06	0.0020048
1774.64	0.0017748
1786.21	0.0018648
1797.79	0.0023648
1809.36	0.0019748
1820.93	0.0011448
1832.51	0.0008099
1844.08	0.0007808
1855.66	0.000994
1867.23	0.0011948
1878.8	0.0012948
1890.38	0.0012948
1901.95	0.0012248
1913.53	0.0010848
1925.1	0.0011348
1936.67	0.0014848
1948.25	0.0018648
1959.82	0.0017248
1971.4	0.0010948
1982.97	0.00056
1994.54	0.0003772
2006.12	0.0003016
2017.69	0.000282
2029.27	0.0002624
2040.84	0.000214
2052.41	0.0002111
2063.99	0.000212
2075.56	0.0001474
2087.14	0.0001487
2098.71	0.00010791
2110.28	5.3599e-05
2121.86	7.84e-05
2133.43	7.853e-05
2145.01	6.88e-05
2156.58	8.482e-05
2168.15	0.00013661
2179.73	0.00013612
2191.3	0.00012487
2202.88	0.00013623
2214.45	0.00010494
2226.02	0.00012452
2237.6	0.0001071
2249.17	0.00014032
2260.74	0.0001715
2272.32	0.0001987
2283.89	0.0002147
2295.47	0.000229
2307.04	0.0003116
2318.61	0.0004887
2330.19	0.0003661
2341.76	0.0003743
2353.34	0.0002721
2364.91	0.0001938
2376.48	0.0002134
2388.06	0.0001473
2399.63	0.0001565
2411.21	0.0001927
2422.78	0.0001545
2434.35	0.0001005
2445.93	0.00011032
2457.5	0.00010354
2469.08	7.58e-05
2480.65	4.6342e-05
2492.22	6.795e-05
2503.8	7.868e-05
2515.37	0.00011875
2526.95	0.00013913
2538.52	0.00012395
2550.09	8.224e-05
2561.67	9.444e-05
2573.24	9.474e-05
2584.82	0.0001615
2596.39	0.0002494
2607.96	0.0002273
2619.54	0.0002118
2631.11	0.0001665
2642.69	0.00012742
2654.26	8.981e-05
2665.83	5.595e-05
2677.41	8.095e-05
2688.98	8.535e-05
2700.56	0.00014228
2712.13	0.00014444
2723.7	0.00012199
2735.28	0.00012612
2746.85	0.0001961
2758.43	0.0001805
2770	0.0001859
2781.57	0.0002505
2793.15	0.0002699
2804.72	0.0003329
2816.3	0.0003359
2827.87	0.0004433
2839.44	0.0005882
2851.02	0.0007881
2862.59	0.0008669
2874.17	0.0009875
2885.74	0.0012648
2897.31	0.0020148
2908.89	0.0025748
2920.46	0.0029148
2932.04	0.0032948
2943.61	0.0029148
2955.18	0.0026848
2966.76	0.0027148
2978.33	0.0021048
2989.91	0.0018248
3001.48	0.0023448
3013.05	0.0042048
3024.63	0.0089348
3036.2	0.0144148
3047.78	0.0111648
3059.35	0.0129048
3070.92	0.0219248
3082.5	0.0155648
3094.07	0.0110448
3105.65	0.0063248
3117.22	0.0028948
3128.79	0.0011148
3140.37	0.0006649
3151.94	0.0006005
3163.52	0.0006132
3175.09	0.0003382
3186.66	0.0001778
3198.24	0.0001619
3209.81	0.00013691
3221.39	0.00011881
3232.96	9.3e-06
3244.53	9.913e-05
3256.11	1.48e-05
3267.68	5.537e-05
3279.26	8.9e-06
3290.83	9.084e-05
3302.4	6.223e-05
3313.98	5.2898e-05
3325.55	0.00010611
3337.13	0.0001704
3348.7	0.0002373
3360.27	0.0004046
3371.85	0.0007363
3383.42	0.0008297
3395	0.0005003
3406.57	0.0004241
3418.14	0.0002503
3429.72	0.0001675
3441.29	8.263e-05
3452.86	6.704e-05
3464.44	9.098e-05
3476.01	6.106e-05
3487.59	0.00014233
3499.16	4.8191e-05
3510.73	0
3522.31	0.00010734
3533.88	9.401e-05
3545.46	0.00010845
3557.03	6.252e-05
3568.6	8.273e-05
3580.18	6.953e-05
3591.75	3.829e-05
3603.33	0.00012301
3614.9	6.938e-05
3626.47	0.00011975
3638.05	0.0001927
3649.62	0.0002387
3661.2	0.000212
3672.77	0.000162
3684.34	0.0001699
3695.92	0.000202
3707.49	0.0001866
3719.07	0.0001486
3730.64	0.00012585
3742.21	0.00013242
3753.79	0.00013396
3765.36	0.0001082
3776.94	0.0001837
3788.51	0.0001473
3800.08	0.00011172
3811.66	0.00013615
3823.23	0.00013488
3834.81	0.0001696
3846.38	0.00013833
3857.95	0.0002086
3869.53	8.741e-05
3881.1	0.0001791
3892.68	0.0001599
3904.25	0.00012029
3915.82	9.989e-05
3927.4	0.00011195
3938.97	7.432e-05
3950.55	0.0001525
3962.12	8.245e-05
3973.69	8.942e-05
3985.27	0.00013551
3996.84	0.0001788
