Infrared Spectrum: o-Fluorophenylacetic acid
Formula: C8 H7 F O2
CAS: 451-82-1
State: SOLUTION (10% CCl4 FOR 3800-1330, 10% CS2 FOR 1330-400 CM^-^1)
Class: COBLENTZ III
Instrument: DOW KBr FOREPRISM-GRATING
Instrument parameters: BLAZED AT 3.5, 12.0, 20.0 MICRON AND CHANGED AT 5.0, 7.5, 14.9 MICRON
Sampling: TRANSMISSION
Path length: 0.010 CM, 0.011 CM
Resolution: 2
Origin: DOW CHEMICAL COMPANY
1/CM	TRANSMITTANCE
3782	0.906
3773	0.9064
3764	0.9059
3755	0.9051
3746	0.9044
3737	0.9042
3728	0.9033
3719	0.9013
3710	0.901
3701	0.9008
3692	0.8997
3683	0.8988
3674	0.8985
3665	0.8986
3656	0.8988
3647	0.8986
3638	0.898
3629	0.8971
3620	0.8971
3611	0.8959
3602	0.8947
3593	0.8877
3584	0.8798
3575	0.885
3566	0.8821
3557	0.8766
3548	0.8617
3539	0.8415
3530	0.8363
3521	0.837
3512	0.8477
3503	0.8503
3494	0.8497
3485	0.849
3476	0.8475
3467	0.8454
3458	0.841
3449	0.8346
3440	0.827
3431	0.817
3422	0.8092
3413	0.8014
3404	0.7917
3395	0.7786
3386	0.7642
3377	0.7502
3368	0.7387
3359	0.727
3350	0.7142
3341	0.6987
3332	0.6814
3323	0.6639
3314	0.6497
3305	0.6307
3296	0.6098
3287	0.59
3278	0.5698
3269	0.5491
3260	0.5272
3251	0.504
3242	0.4817
3233	0.4638
3224	0.4459
3215	0.4272
3206	0.4079
3197	0.3906
3188	0.3727
3179	0.3587
3170	0.3449
3161	0.3314
3152	0.3181
3143	0.3007
3134	0.2828
3125	0.2637
3116	0.2455
3107	0.2288
3098	0.2116
3089	0.2105
3080	0.2082
3071	0.2048
3062	0.1976
3053	0.1856
3044	0.1752
3035	0.1741
3026	0.1836
3017	0.1963
3008	0.2061
2999	0.2133
2990	0.2144
2981	0.2076
2972	0.205
2963	0.2099
2954	0.2164
2945	0.2166
2936	0.2046
2927	0.1942
2918	0.1889
2909	0.1961
2900	0.2069
2891	0.2184
2882	0.2327
2873	0.2479
2864	0.2643
2855	0.2815
2846	0.2969
2837	0.3106
2828	0.3244
2819	0.3398
2810	0.3553
2801	0.3743
2792	0.3883
2783	0.4018
2774	0.4134
2765	0.4182
2756	0.4196
2747	0.4156
2738	0.4064
2729	0.4018
2720	0.412
2711	0.4213
2702	0.4275
2693	0.4286
2684	0.4157
2675	0.4009
2666	0.3897
2657	0.3867
2648	0.3956
2639	0.4083
2630	0.4212
2621	0.434
2612	0.4478
2603	0.4621
2594	0.4752
2585	0.4853
2576	0.4792
2567	0.4611
2558	0.449
2549	0.4461
2540	0.4686
2531	0.4971
2522	0.5328
2513	0.555
2504	0.5753
2495	0.6003
2486	0.6199
2477	0.6308
2468	0.6374
2459	0.6533
2450	0.6695
2441	0.6842
2432	0.6971
2423	0.7098
2414	0.7204
2405	0.7289
2396	0.7351
2387	0.7411
2378	0.7565
2369	0.764
2360	0.7657
2351	0.7675
2342	0.7679
2333	0.7685
2324	0.7762
2315	0.7809
2306	0.7793
2297	0.7834
2288	0.7821
2279	0.7835
2270	0.7845
2261	0.7826
2252	0.7825
2243	0.7838
2234	0.787
2225	0.791
2216	0.7941
2207	0.7978
2198	0.801
2189	0.8008
2180	0.8016
2171	0.8041
2162	0.8056
2153	0.8063
2144	0.8062
2135	0.8032
2126	0.8024
2117	0.8024
2108	0.8027
2099	0.8036
2090	0.8047
2081	0.8045
2072	0.8024
2063	0.8007
2054	0.7994
2045	0.7963
2036	0.7944
2027	0.7927
2018	0.7918
2009	0.7905
2000	0.7776
1991	0.7893
1982	0.7885
1973	0.786
1964	0.7863
1955	0.7628
1946	0.7469
1937	0.7675
1928	0.7658
1919	0.7405
1910	0.7348
1901	0.75
1892	0.7541
1883	0.7493
1874	0.748
1865	0.743
1856	0.7365
1847	0.7296
1838	0.719
1829	0.6962
1820	0.6685
1811	0.6498
1802	0.6358
1793	0.618
1784	0.5928
1775	0.5607
1766	0.5137
1757	0.4323
1748	0.3644
1739	0.2177
1730	0.0188
1721	0.0013
1712	0
1703	0.0806
1694	0.2629
1685	0.4193
1676	0.4858
1667	0.5449
1658	0.5939
1649	0.6273
1640	0.6524
1631	0.6564
1622	0.5377
1613	0.6316
1604	0.5785
1595	0.2411
1586	0.4758
1577	0.5423
1568	0.5534
1559	0.5232
1550	0.545
1541	0.603
1532	0.6275
1523	0.5942
1514	0.3974
1505	0.2583
1496	0.0219
1487	0.5629
1478	0.6354
1469	0.4893
1460	0.3102
1451	0.4742
1442	0.4349
1433	0.359
1424	0.1481
1415	0.0881
1406	0.2726
1397	0.4667
1388	0.581
1379	0.6255
1370	0.6486
1361	0.6613
1352	0.6319
1343	0.5096
1334	0.3978
1325	0.4181
1316	0.4241
1307	0.3548
1298	0.2184
1289	0.1327
1280	0.1396
1271	0.26
1262	0.3253
1253	0.3112
1244	0.0843
1235	0.0089
1226	0.0449
1217	0.255
1208	0.3435
1199	0.3709
1190	0.3228
1181	0.3298
1172	0.4279
1163	0.4715
1154	0.4802
1145	0.5418
1136	0.5889
1127	0.6072
1118	0.6011
1109	0.6113
1100	0.2974
1091	0.5954
1082	0.6921
1073	0.7113
1064	0.7211
1055	0.7263
1046	0.7241
1037	0.5435
1028	0.6557
1019	0.7057
1010	0.7042
1001	0.6896
992	0.6633
983	0.6256
974	0.5778
965	0.5063
956	0.4438
947	0.3378
938	0.2304
929	0.2052
920	0.3117
911	0.3657
902	0.4081
893	0.4534
884	0.4801
875	0.3944
866	0.4634
857	0.5116
848	0.413
839	0.5842
830	0.6568
821	0.6623
812	0.6496
803	0.6231
794	0.5903
785	0.5201
776	0.6527
767	0.405
758	0.0023
749	0.4539
740	0.7121
731	0.7029
722	0.7348
713	0.7827
704	0.7595
695	0.711
686	0.686
677	0.5483
668	0.568
659	0.7125
650	0.7556
641	0.7761
632	0.7398
623	0.5572
614	0.6036
605	0.6967
596	0.7775
587	0.8039
578	0.8144
569	0.8029
560	0.792
551	0.7785
542	0.6226
533	0.6859
524	0.7149
515	0.7537
506	0.7763
497	0.7835
488	0.7664
479	0.6815
470	0.5895
461	0.562
452	0.5674
443	0.6182
434	0.654
425	0.6356
416	0.5312
