Infrared Spectrum: 1H,1H-Pentafluoro-n-propyl methacrylate
Formula: C 7 H 7 F 5 O 2
CAS: 45115-53-5
State: gas
Origin: EPA-IR VAPOR PHASE LIBRARY
1/CM	ABSORBANCE
549.8	0.00295
559.445	0.00273
569.09	0.0019426
578.734	0.00393
588.379	0.00389
598.024	0.00413
607.669	0.00319
617.313	0.00384
626.958	0.00618
636.603	0.00661
646.248	0.00755
655.893	0.01014
665.537	0.00797
675.182	0.00415
684.827	0.00264
694.472	0.00277
704.116	0.00355
713.761	0.0066
723.406	0.00863
733.051	0.00396
742.695	0.0016281
752.34	0.001201
761.985	0.0023105
771.63	0.00281
781.275	0.00305
790.919	0.00309
800.564	0.00513
810.209	0.0067
819.854	0.00443
829.498	0.00397
839.143	0.00433
848.788	0.00515
858.433	0.00493
868.078	0.00379
877.722	0.00387
887.367	0.00436
897.012	0.00334
906.657	0.00424
916.301	0.00499
925.946	0.00826
935.591	0.01563
945.236	0.02152
954.88	0.01721
964.525	0.01247
974.17	0.0086
983.815	0.00778
993.46	0.00836
1003.1	0.01054
1012.75	0.01802
1022.39	0.01992
1032.04	0.01171
1041.68	0.00986
1051.33	0.01105
1060.97	0.01502
1070.62	0.01672
1080.26	0.01354
1089.91	0.02022
1099.55	0.0429
1109.2	0.05591
1118.84	0.04857
1128.49	0.07305
1138.13	0.12484
1147.78	0.14448
1157.42	0.10582
1167.07	0.0643
1176.71	0.04851
1186.36	0.04634
1196	0.0722
1205.64	0.1523
1215.29	0.19666
1224.93	0.09521
1234.58	0.04188
1244.22	0.02773
1253.87	0.02768
1263.51	0.02632
1273.16	0.02386
1282.8	0.02868
1292.45	0.03618
1302.09	0.03139
1311.74	0.03026
1321.38	0.02499
1331.03	0.01437
1340.67	0.01322
1350.32	0.01414
1359.96	0.01151
1369.61	0.01047
1379.25	0.00991
1388.9	0.0102
1398.54	0.01179
1408.18	0.01179
1417.83	0.00958
1427.47	0.00748
1437.12	0.00735
1446.76	0.00935
1456.41	0.01177
1466.05	0.01048
1475.7	0.00614
1485.34	0.00389
1494.99	0.00324
1504.63	0.00279
1514.28	0.0025063
1523.92	0.0025141
1533.57	0.0024805
1543.21	0.00282
1552.86	0.0024041
1562.5	0.0023445
1572.15	0.00261
1581.79	0.00311
1591.44	0.00321
1601.08	0.00273
1610.73	0.00335
1620.37	0.00404
1630.01	0.0055
1639.66	0.00639
1649.3	0.00431
1658.95	0.003
1668.59	0.0026
1678.24	0.00258
1687.88	0.00293
1697.53	0.00397
1707.17	0.00486
1716.82	0.00633
1726.46	0.00976
1736.11	0.02104
1745.75	0.048
1755.4	0.06883
1765.04	0.04595
1774.69	0.01839
1784.33	0.00774
1793.98	0.0048
1803.62	0.00432
1813.27	0.00377
1822.91	0.00299
1832.55	0.002103
1842.2	0.0020915
1851.84	0.0018502
1861.49	0.0018718
1871.13	0.0021337
1880.78	0.00253
1890.42	0.00253
1900.07	0.0024739
1909.71	0.0019698
1919.36	0.0018573
1929	0.0017513
1938.65	0.00159301
1948.29	0.0018917
1957.94	0.0017558
1967.58	0.00153138
1977.23	0.0019609
1986.87	0.0019051
1996.52	0.0018347
2006.16	0.001385
2015.81	0.0016708
2025.45	0.00157876
2035.1	0.0014933
2044.74	0.001383
2054.38	0.0016375
2064.03	0.0016424
2073.67	0.00152265
2083.32	0.0017133
2092.96	0.001789
2102.61	0.0019478
2112.25	0.0018555
2121.9	0.0014823
2131.54	0.001357
2141.19	0.0016316
2150.83	0.00125
2160.48	0.0018611
2170.12	0.001355
2179.77	0.00154449
2189.41	0.001193
2199.06	0.0016493
2208.7	0.001411
2218.35	0.0015067
2227.99	0.0016976
2237.64	0.00151375
2247.28	0.001303
2256.92	0.001388
2266.57	0.001395
2276.21	0.001409
2285.86	0.001261
2295.5	0.001401
2305.15	0.00138
2314.79	0.00158469
2324.44	0.001314
2334.08	0.001358
2343.73	0.0016526
2353.37	0.0016887
2363.02	0.0014436
2372.66	0.0018194
2382.31	0.001424
2391.95	0.001931
2401.6	0.0016293
2411.24	0.0014972
2420.89	0.002015
2430.53	0.0016268
2440.18	0.0014421
2449.82	0.0017036
2459.47	0.001321
2469.11	0.0016872
2478.75	0.0014801
2488.4	0.0014826
2498.04	0.001115
2507.69	0.00109
2517.33	0.000921
2526.98	0.001138
2536.62	0.001353
2546.27	0.0014668
2555.91	0.0014439
2565.56	0.001185
2575.2	0.001664
2584.85	0.001402
2594.49	0.0017181
2604.14	0.000866
2613.78	0.0014341
2623.43	0.000991
2633.07	0.001294
2642.72	0.001091
2652.36	0.0014774
2662.01	0.000798
2671.65	0.001157
2681.29	0.0016757
2690.94	0.0011
2700.58	0.00116
2710.23	0.001138
2719.87	0.001004
2729.52	0.001136
2739.16	0.000838
2748.81	0.000938
2758.45	0.0014285
2768.1	0.00151191
2777.74	0.0015066
2787.39	0.0014517
2797.03	0.000989
2806.68	0.0014357
2816.32	0.0012
2825.97	0.00160177
2835.61	0.0017222
2845.26	0.00161884
2854.9	0.00114
2864.55	0.0019128
2874.19	0.0017966
2883.84	0.0023403
2893.48	0.00281
2903.12	0.00335
2912.77	0.00285
2922.41	0.00305
2932.06	0.00401
2941.7	0.00585
2951.35	0.00505
2960.99	0.00616
2970.64	0.00995
2980.28	0.00912
2989.93	0.00789
2999.57	0.00579
3009.22	0.00486
3018.86	0.00338
3028.51	0.00273
3038.15	0.0021746
3047.8	0.0024164
3057.44	0.0021207
3067.09	0.0016873
3076.73	0.001395
3086.38	0.001664
3096.02	0.0017233
3105.67	0.002421
3115.31	0.0020744
3124.95	0.0024294
3134.6	0.0014949
3144.24	0.001241
3153.89	0.00152198
3163.53	0.000799
3173.18	0.000772
3182.82	0.0019462
3192.47	0.0014536
3202.11	0.001318
3211.76	0.000866
3221.4	0.001061
3231.05	0.001335
3240.69	0.000661
3250.34	0.001026
3259.98	0.000907
3269.63	0.001171
3279.27	0.001048
3288.92	0.000848
3298.56	0.00046
3308.21	0.001275
3317.85	0.001054
3327.49	0.0016476
3337.14	0.0014753
3346.78	0.00157784
3356.43	0.001353
3366.07	0.000917
3375.72	0.001072
3385.36	0.001106
3395.01	0.0016342
3404.65	0.001359
3414.3	0.001076
3423.94	0.001345
3433.59	0.00159788
3443.23	0.00156515
3452.88	0.000538
3462.52	0.00158632
3472.17	0.00160694
3481.81	0.000915
3491.46	0.002172
3501.1	0.00161987
3510.75	0.001387
3520.39	0.0020122
3530.04	0.00048
3539.68	0.00117
3549.32	0.001093
3558.97	0.000536
3568.61	0.0016561
3578.26	0.000645
3587.9	0.000785
3597.55	0.00161526
3607.19	0.000863
3616.84	0.00127
3626.48	0.0017345
3636.13	0.000868
3645.77	0.000675
3655.42	0.001323
3665.06	0.0016543
3674.71	0.0019645
3684.35	0.001159
3694	0.0018899
3703.64	0.0008
3713.29	0.001371
3722.93	0.000668
3732.58	0.0016537
3742.22	0.00136
3751.86	0.0016764
3761.51	0.000587
3771.15	0.001013
3780.8	0.000914
3790.44	0.000805
3800.09	0.0018494
3809.73	0.001362
3819.38	0.0017648
3829.02	0.0020589
3838.67	0.001233
3848.31	0.001025
3857.96	0.001023
3867.6	0.000863
3877.25	0.00055
3886.89	0.000654
3896.54	0.000691
3906.18	0.0017961
3915.83	0.001352
3925.47	0.001393
3935.12	0.00108
3944.76	0.000827
3954.41	0.001241
3964.05	0.000864
3973.69	0.001385
3983.34	0.000809
3992.98	0.00151622
