Infrared Spectrum: 4-Methoxy-3-methylphenylacetic acid
Formula: C 10 H 12 O 3
CAS: 4513-73-9
State: gas
Origin: EPA-IR VAPOR PHASE LIBRARY
1/CM	ABSORBANCE
549.8	0.013305
559.445	0.010185
569.09	0.011215
578.734	0.020025
588.379	0.027885
598.024	0.022555
607.669	0.022355
617.313	0.021915
626.958	0.018515
636.603	0.015215
646.248	0.011935
655.893	0.009175
665.537	0.007305
675.182	0.007555
684.827	0.008245
694.472	0.005655
704.116	0.003595
713.761	0.002845
723.406	0.002505
733.051	0.002835
742.695	0.004705
752.34	0.005025
761.985	0.004285
771.63	0.005825
781.275	0.008615
790.919	0.009255
800.564	0.010425
810.209	0.011135
819.854	0.007685
829.498	0.003995
839.143	0.002995
848.788	0.003075
858.433	0.003805
868.078	0.003845
877.722	0.003965
887.367	0.004065
897.012	0.003855
906.657	0.003475
916.301	0.003555
925.946	0.003495
935.591	0.003685
945.236	0.003735
954.88	0.003795
964.525	0.003645
974.17	0.003605
983.815	0.004215
993.46	0.005415
1003.1	0.006855
1012.75	0.008865
1022.39	0.014335
1032.04	0.021315
1041.68	0.021505
1051.33	0.014515
1060.97	0.010705
1070.62	0.013375
1080.26	0.020775
1089.91	0.036385
1099.55	0.064245
1109.2	0.095125
1118.84	0.078165
1128.49	0.061715
1138.13	0.055795
1147.78	0.035455
1157.42	0.022685
1167.07	0.017435
1176.71	0.017395
1186.36	0.019285
1196	0.020795
1205.64	0.025125
1215.29	0.034045
1224.93	0.034095
1234.58	0.032125
1244.22	0.060665
1253.87	0.089165
1263.51	0.053795
1273.16	0.027455
1282.8	0.021555
1292.45	0.020845
1302.09	0.020425
1311.74	0.016845
1321.38	0.013085
1331.03	0.012415
1340.67	0.013425
1350.32	0.014675
1359.96	0.013825
1369.61	0.011045
1379.25	0.008345
1388.9	0.006765
1398.54	0.005775
1408.18	0.007025
1417.83	0.010115
1427.47	0.011355
1437.12	0.012335
1446.76	0.014035
1456.41	0.013395
1466.05	0.017245
1475.7	0.018155
1485.34	0.022375
1494.99	0.045805
1504.63	0.069265
1514.28	0.041895
1523.92	0.014825
1533.57	0.007885
1543.21	0.005375
1552.86	0.004045
1562.5	0.003245
1572.15	0.003145
1581.79	0.003435
1591.44	0.004355
1601.08	0.006565
1610.73	0.008695
1620.37	0.006275
1630.01	0.003215
1639.66	0.002075
1649.3	0.001915
1658.95	0.001735
1668.59	0.001955
1678.24	0.002235
1687.88	0.002525
1697.53	0.003315
1707.17	0.004525
1716.82	0.006525
1726.46	0.009905
1736.11	0.016305
1745.75	0.027465
1755.4	0.042765
1765.04	0.062175
1774.69	0.084395
1784.33	0.079815
1793.98	0.059275
1803.62	0.037375
1813.27	0.018825
1822.91	0.009685
1832.55	0.005615
1842.2	0.003845
1851.84	0.002955
1861.49	0.002455
1871.13	0.002025
1880.78	0.001725
1890.42	0.001445
1900.07	0.001275
1909.71	0.0011438
1919.36	0.0011433
1929	0.0010695
1938.65	0.0010056
1948.29	0.0010936
1957.94	0.0010877
1967.58	0.001315
1977.23	0.001275
1986.87	0.001455
1996.52	0.001765
2006.16	0.001735
2015.81	0.001485
2025.45	0.001425
2035.1	0.001515
2044.74	0.001435
2054.38	0.001465
2064.03	0.001345
2073.67	0.001285
2083.32	0.0011002
2092.96	0.0007714
2102.61	0.0006928
2112.25	0.0006311
2121.9	0.0006871
2131.54	0.0005739
2141.19	0.0005988
2150.83	0.0006641
2160.48	0.0008379
2170.12	0.0007554
2179.77	0.0009426
2189.41	0.0008492
2199.06	0.0009459
2208.7	0.0009084
2218.35	0.0008973
2227.99	0.000919
2237.64	0.0008854
2247.28	0.001023
2256.92	0.000965
2266.57	0.0009292
2276.21	0.0007631
2285.86	0.0006823
2295.5	0.0007789
2305.15	0.0007877
2314.79	0.000774
2324.44	0.0008017
2334.08	0.0009717
2343.73	0.000834
2353.37	0.0009022
2363.02	0.0009816
2372.66	0.0008918
2382.31	0.0007133
2391.95	0.0006604
2401.6	0.0006768
2411.24	0.0007358
2420.89	0.0007295
2430.53	0.0006947
2440.18	0.000755
2449.82	0.0006963
2459.47	0.0006545
2469.11	0.0007659
2478.75	0.0008292
2488.4	0.0007581
2498.04	0.0008415
2507.69	0.0010559
2517.33	0.0008308
2526.98	0.0008951
2536.62	0.0008106
2546.27	0.0009765
2555.91	0.0009601
2565.56	0.0007491
2575.2	0.0006541
2584.85	0.0007286
2594.49	0.0005767
2604.14	0.0006205
2613.78	0.000777
2623.43	0.0005816
2633.07	0.0006604
2642.72	0.0006141
2652.36	0.000654
2662.01	0.0004079
2671.65	0.0006688
2681.29	0.0005375
2690.94	0.0004721
2700.58	0.0006394
2710.23	0.0007486
2719.87	0.0007216
2729.52	0.0008881
2739.16	0.0010342
2748.81	0.0010699
2758.45	0.0008208
2768.1	0.0007695
2777.74	0.0010264
2787.39	0.001325
2797.03	0.001645
2806.68	0.002295
2816.32	0.003155
2825.97	0.004765
2835.61	0.009565
2845.26	0.012685
2854.9	0.009595
2864.55	0.008035
2874.19	0.007645
2883.84	0.007655
2893.48	0.008575
2903.12	0.011285
2912.77	0.015485
2922.41	0.019365
2932.06	0.023405
2941.7	0.027095
2951.35	0.025945
2960.99	0.020935
2970.64	0.015495
2980.28	0.013095
2989.93	0.013245
2999.57	0.017525
3009.22	0.018065
3018.86	0.012965
3028.51	0.010955
3038.15	0.008315
3047.8	0.007475
3057.44	0.006435
3067.09	0.005475
3076.73	0.004805
3086.38	0.003925
3096.02	0.002995
3105.67	0.002475
3115.31	0.002315
3124.95	0.001835
3134.6	0.001295
3144.24	0.0010029
3153.89	0.0008237
3163.53	0.0005947
3173.18	0.0007483
3182.82	0.0006777
3192.47	0.0005481
3202.11	0.0003163
3211.76	0.0004247
3221.4	0.0005011
3231.05	0.0003469
3240.69	0.00027753
3250.34	0.0003597
3259.98	0.00017653
3269.63	0.000339
3279.27	0.0002266
3288.92	0.0003122
3298.56	6.7e-05
3308.21	0.00023583
3317.85	0.00021635
3327.49	0.0002913
3337.14	7e-05
3346.78	0.00024552
3356.43	0.0004052
3366.07	0.00020289
3375.72	0.00023694
3385.36	0.00027437
3395.01	0.0002937
3404.65	0.00021055
3414.3	0.00020387
3423.94	0.00023925
3433.59	0.00045
3443.23	0.0003174
3452.88	9.25e-05
3462.52	0.0003291
3472.17	0.0002882
3481.81	0.000461
3491.46	0.0005324
3501.1	0.0008932
3510.75	0.001185
3520.39	0.001515
3530.04	0.001755
3539.68	0.003055
3549.32	0.005645
3558.97	0.009755
3568.61	0.030525
3578.26	0.036155
3587.9	0.010835
3597.55	0.004105
3607.19	0.002295
3616.84	0.001305
3626.48	0.0009157
3636.13	0.0006334
3645.77	0.0004502
3655.42	0.000133
3665.06	0.0002691
3674.71	0.0002954
3684.35	0.000424
3694	0.0003065
3703.64	0.000192552
3713.29	0.00024687
3722.93	0.0002427
3732.58	0.00024374
3742.22	0.0003573
3751.86	0.000191749
3761.51	0.0003013
3771.15	0.0006031
3780.8	0.0003985
3790.44	0.00020347
3800.09	0.00022904
3809.73	0.00024526
3819.38	0.0003186
3829.02	0.00026061
3838.67	0.0003181
3848.31	0.0003306
3857.96	0.0002885
3867.6	0.0004267
3877.25	0.0006002
3886.89	0.0004108
3896.54	0.0003721
3906.18	0.00026072
3915.83	0.000426
3925.47	0.0003522
3935.12	0.0004051
3944.76	0.00024652
3954.41	0.0004001
3964.05	0.0003532
3973.69	0.0003524
3983.34	0.0004709
3992.98	0.0006557
