Infrared Spectrum: 1,2-DIMETHYLTETRACHLORODISILANE
Formula: C2 H6 Cl4 Si2
CAS: 4518-98-3
State: SOLUTION (10% IN CCl4 FOR 3800-1230, 2% IN CS2 FOR 1230-600, AND 10% IN CCl4 FOR 600-240 CM^-^1) VS. SOLVENT
Boiling point: 154 C
Class: COBLENTZ III
Instrument: PERKIN-ELMER 521 (GRATING)
Instrument parameters: FILTERS AT 3150, 2500, 2000, 1150, 700, 410. GRATING CHANGES: 2000, 630 CM^-^1
Sampling: TRANSMISSION
Path length: 0.011 CM, 0.011 CM, AND 0.010 CM
Resolution: 2
Origin: DOW CORNING CORP.
1/CM	TRANSMITTANCE
256.604	0.951
266.038	0.957
275.472	0.957
284.906	0.956
294.34	0.955
303.774	0.955
313.208	0.955
322.642	0.964
332.076	0.959
341.51	0.959
350.944	0.971
360.378	0.955
369.812	0.947
379.246	0.815
388.68	0.941
398.114	0.96
407.548	0.955
416.982	0.97
426.416	0.965
435.85	0.956
445.284	0.939
454.718	0.811
464.152	0.2029
473.586	0.052
483.02	0.571
492.454	0.829
501.888	0.912
511.322	0.9
520.756	0.8
530.19	0.56
539.624	0.157
549.058	0.002
558.492	0.048
567.926	0.197
577.36	0.601
586.794	0.783
596.228	0.823
605.662	0.836
615.096	0.864
624.53	0.857
633.964	0.859
643.398	0.87
652.832	0.877
662.266	0.878
671.7	0.888
681.133	0.891
690.567	0.884
700.001	0.878
709.435	0.862
718.869	0.805
728.303	0.528
737.737	0.594
747.171	0.773
756.605	0.791
766.039	0.476
775.473	0.5271
784.907	0.393
794.341	0.676
803.775	0.865
813.209	0.891
822.643	0.902
832.077	0.912
841.511	0.906
850.945	0.903
860.379	0.91
869.813	0.916
879.247	0.92
888.681	0.924
898.115	0.921
907.549	0.923
916.983	0.92
926.417	0.92
935.851	0.918
945.285	0.918
954.719	0.918
964.153	0.918
973.587	0.918
983.021	0.916
992.455	0.914
1001.89	0.91
1011.32	0.907
1020.76	0.906
1030.19	0.9
1039.63	0.902
1049.06	0.9
1058.49	0.896
1067.93	0.9
1077.36	0.896
1086.8	0.893
1096.23	0.902
1105.66	0.919
1115.1	0.921
1124.53	0.924
1133.96	0.937
1143.4	0.943
1152.83	0.946
1162.27	0.935
1171.7	0.93
1181.13	0.93
1190.57	0.93
1200	0.928
1209.44	0.924
1218.87	0.918
1228.3	0.909
1237.74	0.8279
1247.17	0.706
1256.61	0.1401
1266.04	0.778
1275.47	0.868
1284.91	0.891
1294.34	0.893
1303.78	0.893
1313.21	0.892
1322.64	0.889
1332.08	0.884
1341.51	0.879
1350.95	0.875
1360.38	0.871
1369.81	0.869
1379.25	0.855
1388.68	0.813
1398.12	0.5119
1407.55	0.6511
1416.98	0.848
1426.42	0.864
1435.85	0.878
1445.29	0.884
1454.72	0.882
1464.15	0.875
1473.59	0.874
1483.02	0.878
1492.46	0.88
1501.89	0.88
1511.32	0.879
1520.76	0.877
1530.19	0.873
1539.63	0.871
1549.06	0.871
1558.49	0.874
1567.93	0.878
1577.36	0.884
1586.8	0.889
1596.23	0.889
1605.66	0.891
1615.1	0.892
1624.53	0.893
1633.97	0.889
1643.4	0.889
1652.83	0.893
1662.27	0.893
1671.7	0.893
1681.14	0.893
1690.57	0.892
1700	0.893
1709.44	0.891
1718.87	0.887
1728.31	0.88
1737.74	0.888
1747.17	0.891
1756.61	0.892
1766.04	0.895
1775.48	0.896
1784.91	0.9
1794.34	0.9
1803.78	0.901
1813.21	0.901
1822.65	0.9
1832.08	0.901
1841.51	0.901
1850.95	0.897
1860.38	0.898
1869.82	0.9
1879.25	0.9
1888.68	0.9
1898.12	0.901
1907.55	0.9
1916.99	0.902
1926.42	0.902
1935.85	0.901
1945.29	0.896
1954.72	0.892
1964.16	0.891
1973.59	0.882
1983.02	0.855
1992.46	0.868
2001.89	0.886
2011.33	0.892
2020.76	0.892
2030.19	0.892
2039.63	0.892
2049.06	0.888
2058.5	0.889
2067.93	0.893
2077.36	0.8925
2086.8	0.898
2096.23	0.8934
2105.67	0.902
2115.1	0.898
2124.53	0.893
2133.97	0.8922
2143.4	0.895
2152.84	0.892
2162.27	0.8918
2171.7	0.891
2181.14	0.891
2190.57	0.891
2200.01	0.891
2209.44	0.8913
2218.87	0.892
2228.31	0.892
2237.74	0.893
2247.18	0.893
2256.61	0.893
2266.04	0.893
2275.48	0.893
2284.91	0.893
2294.35	0.892
2303.78	0.8916
2313.21	0.891
2322.65	0.891
2332.08	0.889
2341.52	0.889
2350.95	0.889
2360.38	0.889
2369.82	0.889
2379.25	0.889
2388.69	0.889
2398.12	0.889
2407.55	0.889
2416.99	0.889
2426.42	0.889
2435.86	0.889
2445.29	0.889
2454.72	0.889
2464.16	0.8874
2473.59	0.8852
2483.03	0.8784
2492.46	0.8514
2501.89	0.8302
2511.33	0.8793
2520.76	0.886
2530.2	0.886
2539.63	0.886
2549.06	0.886
2558.5	0.886
2567.93	0.886
2577.37	0.886
2586.8	0.884
2596.23	0.8808
2605.67	0.879
2615.1	0.8772
2624.54	0.8732
2633.97	0.87
2643.4	0.8628
2652.84	0.8348
2662.27	0.8527
2671.71	0.8648
2681.14	0.869
2690.57	0.8681
2700.01	0.8651
2709.44	0.8601
2718.88	0.8522
2728.31	0.8561
2737.74	0.8482
2747.18	0.8421
2756.61	0.8332
2766.05	0.833
2775.48	0.8241
2784.91	0.7811
2794.35	0.777
2803.78	0.795
2813.21	0.792
2822.65	0.7679
2832.08	0.765
2841.52	0.7861
2850.95	0.8091
2860.38	0.815
2869.82	0.8139
2879.25	0.7966
2888.69	0.7806
2898.12	0.7117
2907.55	0.5522
2916.99	0.6257
2926.42	0.7232
2935.86	0.7265
2945.29	0.7165
2954.72	0.6745
2964.16	0.5829
2973.59	0.4692
2983.03	0.4692
2992.46	0.692
3001.89	0.7608
3011.33	0.787
3020.76	0.8068
3030.2	0.8183
3039.63	0.8223
3049.06	0.8256
3058.5	0.828
3067.93	0.828
3077.37	0.83
3086.8	0.83
3096.23	0.829
3105.67	0.8276
3115.1	0.824
3124.54	0.82
3133.97	0.823
3143.4	0.8196
3152.84	0.8209
3162.27	0.8309
3171.71	0.833
3181.14	0.8375
3190.57	0.838
3200.01	0.8785
3209.44	0.883
3218.88	0.887
3228.31	0.891
3237.74	0.892
3247.18	0.893
3256.61	0.895
3266.05	0.896
3275.48	0.897
3284.91	0.898
3294.35	0.898
3303.78	0.898
3313.22	0.897
3322.65	0.897
3332.08	0.897
3341.52	0.897
3350.95	0.897
3360.39	0.897
3369.82	0.8967
3379.25	0.897
3388.69	0.897
3398.12	0.897
3407.56	0.897
3416.99	0.897
3426.42	0.897
3435.86	0.897
3445.29	0.897
3454.73	0.898
3464.16	0.898
3473.59	0.898
3483.03	0.898
3492.46	0.898
3501.9	0.898
3511.33	0.898
3520.76	0.9
3530.2	0.9
3539.63	0.9
3549.07	0.9
3558.5	0.9
3567.93	0.9
3577.37	0.901
3586.8	0.901
3596.24	0.9
3605.67	0.897
3615.1	0.897
3624.54	0.8949
3633.97	0.892
3643.41	0.887
3652.84	0.8859
3662.27	0.8799
3671.71	0.877
3681.14	0.8782
3690.58	0.887
3700.01	0.888
3709.44	0.891
3718.88	0.8933
3728.31	0.896
3737.75	0.897
3747.18	0.8958
3756.61	0.893
3766.05	0.8934
3775.48	0.897
3784.92	0.9
3794.35	0.902
