Infrared Spectrum: PHOSPHONIC DIAMIDE, N,N,N',N'-TETRAETHYL-P-PHENYL-
Formula: C14 H25 N2 O P
CAS: 4519-35-1
Boiling point: 134-135 C AT 1 mmHg
Class: COBLENTZ
Instrument: Not specified, most likely a prism, grating, or hybrid spectrometer.
Sampling: TRANSMISSION
Resolution: 4
Origin: TENNESSEE EASTMAN COMPANY, RESEARCH LABORATORIES
MICROMETERS	TRANSMITTANCE
2.048	0.919
2.08793	0.922
2.12787	0.926
2.1678	0.929
2.20773	0.932
2.24767	0.931
2.2876	0.924
2.32753	0.922
2.36746	0.929
2.4074	0.929
2.44733	0.931
2.48726	0.931
2.5272	0.934
2.56713	0.946
2.60706	0.949
2.647	0.946
2.68693	0.948
2.72686	0.939
2.7668	0.939
2.80673	0.924
2.84666	0.901
2.88659	0.871
2.92653	0.869
2.96646	0.889
3.00639	0.897
3.04633	0.907
3.08626	0.919
3.12619	0.922
3.16613	0.922
3.20606	0.924
3.24599	0.907
3.28593	0.827
3.32586	0.805
3.36579	0.393
3.40572	0.527
3.44566	0.562
3.48559	0.559
3.52552	0.78
3.56546	0.855
3.60539	0.894
3.64532	0.902
3.68526	0.902
3.72519	0.904
3.76512	0.909
3.80506	0.929
3.84499	0.932
3.88492	0.941
3.92485	0.948
3.96479	0.951
4.00472	0.956
4.04465	0.958
4.08459	0.959
4.12452	0.958
4.16445	0.958
4.20439	0.959
4.24432	0.978
4.28425	0.983
4.32419	0.973
4.36412	0.949
4.40405	0.959
4.44398	0.964
4.48392	0.964
4.52385	0.961
4.56378	0.968
4.60372	0.968
4.64365	0.968
4.68358	0.968
4.72352	0.971
4.76345	0.973
4.80338	0.973
4.84332	0.973
4.88325	0.973
4.92318	0.974
4.96311	0.969
5.00305	0.971
5.04298	0.963
5.08291	0.959
5.12285	0.961
5.16278	0.964
5.20271	0.964
5.24265	0.956
5.28258	0.958
5.32251	0.961
5.36245	0.963
5.40238	0.963
5.44231	0.956
5.48224	0.956
5.52218	0.964
5.56211	0.968
5.60204	0.961
5.64198	0.963
5.68191	0.959
5.72184	0.961
5.76178	0.949
5.80171	0.931
5.84164	0.932
5.88158	0.938
5.92151	0.917
5.96144	0.912
6.00137	0.901
6.04131	0.901
6.08124	0.897
6.12117	0.891
6.16111	0.897
6.20104	0.899
6.24097	0.902
6.28091	0.894
6.32084	0.914
6.36077	0.919
6.40071	0.921
6.44064	0.911
6.48057	0.921
6.5205	0.914
6.56044	0.911
6.60037	0.901
6.6403	0.892
6.68024	0.887
6.72017	0.802
6.7601	0.757
6.80004	0.619
6.83997	0.624
6.8799	0.666
6.91984	0.663
6.95977	0.711
6.9997	0.852
7.03963	0.869
7.07957	0.874
7.1195	0.85
7.15943	0.752
7.19937	0.586
7.2393	0.437
7.27923	0.514
7.31917	0.639
7.3591	0.676
7.39903	0.668
7.43897	0.661
7.4789	0.748
7.51883	0.84
7.55876	0.876
7.5987	0.882
7.63863	0.847
7.67856	0.814
7.7185	0.742
7.75843	0.767
7.79836	0.839
7.8383	0.854
7.87823	0.859
7.91816	0.857
7.9581	0.844
7.99803	0.834
8.03796	0.814
8.07789	0.747
8.11783	0.552
8.15776	0.283
8.19769	0.244
8.23763	0.316
8.27756	0.311
8.31749	0.35
8.35743	0.331
8.39736	0.269
8.43729	0.35
8.47723	0.391
8.51716	0.422
8.55709	0.412
8.59702	0.408
8.63696	0.489
8.67689	0.648
8.71682	0.743
8.75676	0.778
8.79669	0.785
8.83662	0.783
8.87656	0.735
8.91649	0.604
8.95642	0.386
8.99636	0.442
9.03629	0.557
9.07622	0.616
9.11615	0.701
9.15609	0.738
9.19602	0.743
9.23595	0.731
9.27589	0.695
9.31582	0.661
9.35575	0.638
9.39569	0.619
9.43562	0.616
9.47555	0.695
9.51549	0.72
9.55542	0.705
9.59535	0.618
9.63528	0.469
9.67522	0.398
9.71515	0.338
9.75508	0.289
9.79502	0.246
9.83495	0.289
9.87488	0.463
9.91482	0.594
9.95475	0.663
9.99468	0.708
10.0346	0.748
10.0745	0.78
10.1145	0.802
10.1544	0.812
10.1943	0.82
10.2343	0.827
10.2742	0.832
10.3141	0.832
10.3541	0.83
10.394	0.812
10.4339	0.768
10.4739	0.69
10.5138	0.589
10.5537	0.465
10.5937	0.391
10.6336	0.386
10.6735	0.447
10.7135	0.49
10.7534	0.522
10.7933	0.571
10.8333	0.623
10.8732	0.653
10.9131	0.659
10.9531	0.696
10.993	0.763
11.0329	0.822
11.0729	0.854
11.1128	0.869
11.1527	0.884
11.1927	0.896
11.2326	0.899
11.2725	0.904
11.3125	0.909
11.3524	0.912
11.3923	0.919
11.4323	0.922
11.4722	0.927
11.5121	0.927
11.5521	0.929
11.592	0.929
11.6319	0.929
11.6719	0.929
11.7118	0.929
11.7517	0.931
11.7917	0.931
11.8316	0.931
11.8715	0.931
11.9115	0.931
11.9514	0.931
11.9913	0.931
12.0313	0.931
12.0712	0.931
12.1111	0.929
12.1511	0.924
12.191	0.916
12.2309	0.902
12.2709	0.886
12.3108	0.864
12.3507	0.839
12.3907	0.793
12.4306	0.728
12.4705	0.67
12.5105	0.613
12.5504	0.567
12.5903	0.544
12.6303	0.537
12.6702	0.557
12.7101	0.586
12.7501	0.621
12.79	0.654
12.8299	0.706
12.8699	0.753
12.9098	0.785
12.9497	0.804
12.9897	0.8
13.0296	0.78
13.0695	0.742
13.1095	0.703
13.1494	0.678
13.1893	0.664
13.2293	0.664
13.2692	0.711
13.3091	0.768
13.3491	0.812
13.389	0.839
13.4289	0.85
13.4689	0.85
13.5088	0.849
13.5487	0.835
13.5887	0.804
13.6286	0.747
13.6685	0.658
13.7085	0.517
13.7484	0.391
13.7883	0.353
13.8283	0.39
13.8682	0.482
13.9081	0.556
13.9481	0.572
13.988	0.534
14.0279	0.442
14.0679	0.348
14.1078	0.301
14.1477	0.288
14.1877	0.304
14.2276	0.378
14.2675	0.433
14.3075	0.49
14.3474	0.549
14.3873	0.609
14.4273	0.678
14.4672	0.725
14.5071	0.762
14.5471	0.788
14.587	0.805
14.6269	0.824
14.6669	0.832
14.7068	0.839
14.7467	0.842
14.7867	0.847
14.8266	0.847
14.8665	0.85
14.9065	0.85
14.9464	0.849
14.9863	0.852
15.0263	0.852
15.0662	0.85
15.1061	0.844
15.146	0.84
15.186	0.832
15.2259	0.819
15.2658	0.8
15.3058	0.78
15.3457	0.765
15.3856	0.755
15.4256	0.752
15.4655	0.752
15.5054	0.753
15.5454	0.757
15.5853	0.763
15.6252	0.772
15.6652	0.778
15.7051	0.783
15.745	0.787
15.785	0.79
15.8249	0.792
15.8648	0.793
15.9048	0.795
15.9447	0.795
15.9846	0.795
