Infrared Spectrum: Purine, 2-amino-
Formula: C5 H5 N5
CAS: 452-06-2
State: SOLID (0.9 mg / 650 mg KBr DISC)
Class: COBLENTZ III
Instrument: PERKIN-ELMER 21 (GRATING)
Instrument parameters: FILTER CHANGE ABOUT 1070 CM^-^1
Resolution: 2
Origin: SOUTHERN RESEARCH INSTITUTE
1/CM	TRANSMITTANCE
617.763	0.5608
626.797	0.6599
635.83	0.6795
644.864	0.6468
653.897	0.5792
662.931	0.5607
671.965	0.5529
680.998	0.5461
690.032	0.5409
699.065	0.5366
708.099	0.5413
717.132	0.5675
726.166	0.5498
735.2	0.5134
744.233	0.5679
753.267	0.5825
762.3	0.581
771.334	0.5647
780.368	0.4401
789.401	0.3329
798.435	0.3291
807.468	0.5941
816.502	0.6462
825.536	0.6469
834.569	0.5481
843.603	0.5384
852.636	0.5673
861.67	0.577
870.703	0.6114
879.737	0.6728
888.771	0.735
897.804	0.77
906.838	0.7622
915.871	0.7255
924.905	0.4675
933.939	0.4854
942.972	0.7634
952.006	0.7659
961.039	0.6317
970.073	0.7279
979.106	0.8211
988.14	0.8242
997.174	0.819
1006.21	0.8127
1015.24	0.8065
1024.27	0.802
1033.31	0.7978
1042.34	0.7947
1051.38	0.7927
1060.41	0.7853
1069.44	0.8467
1078.48	0.7703
1087.51	0.7621
1096.54	0.7398
1105.58	0.6452
1114.61	0.5889
1123.64	0.5788
1132.68	0.7438
1141.71	0.7553
1150.74	0.7529
1159.78	0.7312
1168.81	0.7019
1177.85	0.7167
1186.88	0.7093
1195.91	0.665
1204.95	0.7224
1213.98	0.6964
1223.01	0.6274
1232.05	0.5276
1241.08	0.4761
1250.11	0.2618
1259.15	0.594
1268.18	0.5931
1277.21	0.1834
1286.25	0.2329
1295.28	0.3738
1304.32	0.5817
1313.35	0.6871
1322.38	0.7087
1331.42	0.6977
1340.45	0.6759
1349.48	0.6101
1358.52	0.4835
1367.55	0.4665
1376.58	0.3925
1385.62	0.2241
1394.65	0.1526
1403.69	0.191
1412.72	0.3441
1421.75	0.1279
1430.79	0.1331
1439.82	0.4397
1448.85	0.3197
1457.89	0.3734
1466.92	0.4194
1475.95	0.3489
1484.99	0.3287
1494.02	0.3594
1503.05	0.2018
1512.09	0.2745
1521.12	0.5897
1530.16	0.6708
1539.19	0.6684
1548.22	0.5743
1557.26	0.4654
1566.29	0.1861
1575.32	0.1447
1584.36	0.1739
1593.39	0.5095
1602.42	0.3942
1611.46	0.1924
1620.49	0.1395
1629.52	0.1307
1638.56	0.0916
1647.59	0.0817
1656.63	0.2638
1665.66	0.544
1674.69	0.667
1683.73	0.7412
1692.76	0.7724
1701.79	0.7876
1710.83	0.8005
1719.86	0.8088
1728.89	0.8145
1737.93	0.8208
1746.96	0.8311
1756	0.8356
1765.03	0.8332
1774.06	0.8348
1783.1	0.8548
1792.13	0.8688
1801.16	0.8734
1810.2	0.8805
1819.23	0.8857
1828.26	0.8855
1837.3	0.8847
1846.33	0.883
1855.36	0.8813
1864.4	0.8802
1873.43	0.8825
1882.47	0.8914
1891.5	0.9085
1900.53	0.9144
1909.57	0.9112
1918.6	0.9079
1927.63	0.9054
1936.67	0.9078
1945.7	0.9129
1954.73	0.913
1963.77	0.9152
1972.8	0.9163
1981.83	0.9136
1990.87	0.9087
1999.9	0.9059
2008.94	0.9039
2017.97	0.9025
2027	0.9015
2036.04	0.9005
2045.07	0.8999
2054.1	0.8996
2063.14	0.8954
2072.17	0.8903
2081.2	0.888
2090.24	0.8865
2099.27	0.8848
2108.3	0.8802
2117.34	0.8757
2126.37	0.8723
2135.41	0.8691
2144.44	0.866
2153.47	0.8626
2162.51	0.8588
2171.54	0.855
2180.57	0.8529
2189.61	0.8471
2198.64	0.8282
2207.67	0.8221
2216.71	0.8221
2225.74	0.822
2234.78	0.8223
2243.81	0.8253
2252.84	0.8214
2261.88	0.8178
2270.91	0.8161
2279.94	0.8102
2288.98	0.8021
2298.01	0.7945
2307.04	0.7877
2316.08	0.7812
2325.11	0.7773
2334.14	0.7748
2343.18	0.7691
2352.21	0.7677
2361.25	0.7659
2370.28	0.7638
2379.31	0.76
2388.35	0.7437
2397.38	0.7293
2406.41	0.7141
2415.45	0.7007
2424.48	0.6929
2433.51	0.689
2442.55	0.6825
2451.58	0.6724
2460.61	0.6541
2469.65	0.6344
2478.68	0.6266
2487.72	0.609
2496.75	0.595
2505.78	0.5737
2514.82	0.5524
2523.85	0.5492
2532.88	0.5372
2541.92	0.5261
2550.95	0.5156
2559.98	0.5036
2569.02	0.4874
2578.05	0.4603
2587.09	0.4369
2596.12	0.4206
2605.15	0.4089
2614.19	0.4018
2623.22	0.3952
2632.25	0.3907
2641.29	0.3879
2650.32	0.3871
2659.35	0.3844
2668.39	0.3698
2677.42	0.3577
2686.45	0.3455
2695.49	0.3333
2704.52	0.321
2713.56	0.3098
2722.59	0.2996
2731.62	0.2897
2740.66	0.28
2749.69	0.2707
2758.72	0.2639
2767.76	0.2604
2776.79	0.2517
2785.82	0.2524
2794.86	0.2791
2803.89	0.3
2812.92	0.3132
2821.96	0.3194
2830.99	0.3204
2840.03	0.3184
2849.06	0.3144
2858.09	0.3045
2867.13	0.305
2876.16	0.3037
2885.19	0.3001
2894.23	0.2938
2903.26	0.2878
2912.29	0.2895
2921.33	0.2876
2930.36	0.2725
2939.39	0.2573
2948.43	0.2325
2957.46	0.1924
2966.5	0.1676
2975.53	0.1571
2984.56	0.1521
2993.6	0.1501
3002.63	0.1503
3011.66	0.1504
3020.7	0.15
3029.73	0.1469
3038.76	0.1393
3047.8	0.1287
3056.83	0.118
3065.87	0.1103
3074.9	0.1104
3083.93	0.1171
3092.97	0.1161
3102	0.1085
3111.03	0.093
3120.07	0.0754
3129.1	0.0687
3138.13	0.0706
3147.17	0.0848
3156.2	0.1107
3165.23	0.1422
3174.27	0.175
3183.3	0.2064
3192.34	0.2317
3201.37	0.2533
3210.4	0.2639
3219.44	0.2617
3228.47	0.2548
3237.5	0.2415
3246.54	0.2245
3255.57	0.2081
3264.6	0.2003
3273.64	0.1979
3282.67	0.1913
3291.7	0.1954
3300.74	0.2043
3309.77	0.2131
3318.81	0.2164
3327.84	0.2053
3336.87	0.1895
3345.91	0.173
3354.94	0.157
3363.97	0.1522
3373.01	0.189
3382.04	0.2552
3391.07	0.3153
3400.11	0.3549
3409.14	0.3881
3418.18	0.4091
3427.21	0.4323
3436.24	0.4576
3445.28	0.4862
3454.31	0.5158
3463.34	0.5427
3472.38	0.5721
3481.41	0.6137
3490.44	0.638
3499.48	0.6572
3508.51	0.6754
3517.54	0.6879
3526.58	0.7002
3535.61	0.714
3544.65	0.7271
3553.68	0.7415
3562.71	0.7627
3571.75	0.8078
3580.78	0.8405
3589.81	0.8469
3598.85	0.8525
3607.88	0.8574
3616.91	0.8626
3625.95	0.8679
3634.98	0.8726
3644.01	0.8767
3653.05	0.8809
3662.08	0.8838
3671.12	0.8859
3680.15	0.8871
3689.18	0.8875
3698.22	0.8871
3707.25	0.8868
3716.28	0.8846
3725.32	0.8813
3734.35	0.8778
3743.38	0.8763
3752.42	0.8761
3761.45	0.877
3770.48	0.8766
3779.52	0.8683
3788.55	0.8666
3797.59	0.8667
3806.62	0.8675
3815.65	0.868
3824.69	0.8685
3833.72	0.8682
3842.75	0.8652
3851.79	0.8632
3860.82	0.8666
3869.85	0.8671
3878.89	0.8652
3887.92	0.863
3896.96	0.8606
3905.99	0.858
