Infrared Spectrum: 2-Chloro-4-fluortoluene
Formula: C 7 H 6 Cl F
CAS: 452-73-3
State: gas
Origin: EPA-IR VAPOR PHASE LIBRARY
1/CM	ABSORBANCE
549.8	0.0009926
559.445	0.002807
569.09	0.004437
578.734	0.004757
588.379	0.002857
598.024	0.0010157
607.669	0.000215
617.313	0.000212
626.958	0.00041404
636.603	0.000128
646.248	0.000275
655.893	0.000577
665.537	0.001497
675.182	0.004637
684.827	0.010427
694.472	0.009867
704.116	0.004287
713.761	0.002277
723.406	0.002977
733.051	0.016397
742.695	0.023947
752.34	0.014397
761.985	0.003227
771.63	0.003317
781.275	0.005337
790.919	0.015507
800.564	0.032427
810.209	0.027687
819.854	0.016747
829.498	0.005587
839.143	0.006937
848.788	0.022217
858.433	0.044807
868.078	0.037567
877.722	0.035967
887.367	0.031037
897.012	0.056307
906.657	0.081847
916.301	0.057157
925.946	0.009657
935.591	0.005317
945.236	0.003717
954.88	0.003247
964.525	0.004277
974.17	0.005767
983.815	0.008457
993.46	0.012227
1003.1	0.011237
1012.75	0.008347
1022.39	0.008727
1032.04	0.020377
1041.68	0.043727
1051.33	0.042637
1060.97	0.011197
1070.62	0.004737
1080.26	0.002267
1089.91	0.002177
1099.55	0.002077
1109.2	0.002807
1118.84	0.003307
1128.49	0.003417
1138.13	0.003017
1147.78	0.004387
1157.42	0.005687
1167.07	0.011577
1176.71	0.023317
1186.36	0.024997
1196	0.010347
1205.64	0.006427
1215.29	0.009767
1224.93	0.033277
1234.58	0.066777
1244.22	0.069097
1253.87	0.042577
1263.51	0.046917
1273.16	0.044567
1282.8	0.023417
1292.45	0.009117
1302.09	0.003227
1311.74	0.002417
1321.38	0.002227
1331.03	0.001997
1340.67	0.002017
1350.32	0.002497
1359.96	0.004327
1369.61	0.008357
1379.25	0.011827
1388.9	0.014527
1398.54	0.011877
1408.18	0.008267
1417.83	0.008207
1427.47	0.015987
1437.12	0.021177
1446.76	0.021117
1456.41	0.019497
1466.05	0.023077
1475.7	0.049387
1485.34	0.145937
1494.99	0.185867
1504.63	0.111157
1514.28	0.028407
1523.92	0.012937
1533.57	0.009277
1543.21	0.009447
1552.86	0.012307
1562.5	0.019007
1572.15	0.030677
1581.79	0.043037
1591.44	0.059397
1601.08	0.090617
1610.73	0.089207
1620.37	0.038647
1630.01	0.010457
1639.66	0.006307
1649.3	0.005357
1658.95	0.003757
1668.59	0.002557
1678.24	0.002027
1687.88	0.001887
1697.53	0.002377
1707.17	0.003507
1716.82	0.004717
1726.46	0.005257
1736.11	0.004017
1745.75	0.002347
1755.4	0.0011373
1765.04	0.000775
1774.69	0.0006672
1784.33	0.0007415
1793.98	0.0008284
1803.62	0.0007775
1813.27	0.0007333
1822.91	0.0006616
1832.55	0.0007861
1842.2	0.0011418
1851.84	0.002197
1861.49	0.003777
1871.13	0.003617
1880.78	0.002037
1890.42	0.0009066
1900.07	0.0006314
1909.71	0.0006202
1919.36	0.0007757
1929	0.0008329
1938.65	0.0009274
1948.29	0.0010459
1957.94	0.0011843
1967.58	0.0012475
1977.23	0.0012932
1986.87	0.0010882
1996.52	0.000578
2006.16	0.0005808
2015.81	0.0005134
2025.45	0.0005171
2035.1	0.0005145
2044.74	0.0004655
2054.38	0.000542
2064.03	0.0006648
2073.67	0.0008765
2083.32	0.0009101
2092.96	0.0009637
2102.61	0.0006233
2112.25	0.0006137
2121.9	0.0009085
2131.54	0.0011333
2141.19	0.0012129
2150.83	0.0010426
2160.48	0.0007657
2170.12	0.0008258
2179.77	0.0007504
2189.41	0.0005065
2199.06	0.00041501
2208.7	0.000316796
2218.35	0.00039895
2227.99	0.0004311
2237.64	0.00040314
2247.28	0.0005153
2256.92	0.0004923
2266.57	0.0005888
2276.21	0.0005608
2285.86	0.0006754
2295.5	0.0007185
2305.15	0.0007439
2314.79	0.0006755
2324.44	0.0006786
2334.08	0.0006989
2343.73	0.0005087
2353.37	0.0005872
2363.02	0.0006025
2372.66	0.0006401
2382.31	0.0008268
2391.95	0.0010919
2401.6	0.001276
2411.24	0.0010777
2420.89	0.0009543
2430.53	0.0007603
2440.18	0.0007355
2449.82	0.0009099
2459.47	0.0010121
2469.11	0.0011273
2478.75	0.0011865
2488.4	0.0012047
2498.04	0.001487
2507.69	0.001547
2517.33	0.0011463
2526.98	0.0007761
2536.62	0.0007675
2546.27	0.0007359
2555.91	0.0007195
2565.56	0.0006082
2575.2	0.0005319
2584.85	0.00040224
2594.49	0.0004218
2604.14	0.0004746
2613.78	0.0006561
2623.43	0.0007269
2633.07	0.0007591
2642.72	0.0006713
2652.36	0.0006711
2662.01	0.0007481
2671.65	0.0007209
2681.29	0.0006117
2690.94	0.0004768
2700.58	0.0005316
2710.23	0.0005121
2719.87	0.0007892
2729.52	0.0009562
2739.16	0.0011468
2748.81	0.001547
2758.45	0.001367
2768.1	0.0008674
2777.74	0.0008075
2787.39	0.0006939
2797.03	0.0007372
2806.68	0.0007475
2816.32	0.0010711
2825.97	0.001497
2835.61	0.002157
2845.26	0.002897
2854.9	0.004087
2864.55	0.005847
2874.19	0.007057
2883.84	0.006907
2893.48	0.006257
2903.12	0.006267
2912.77	0.007167
2922.41	0.010527
2932.06	0.016567
2941.7	0.018997
2951.35	0.015387
2960.99	0.011687
2970.64	0.012257
2980.28	0.012517
2989.93	0.011287
2999.57	0.008567
3009.22	0.005817
3018.86	0.005407
3028.51	0.008027
3038.15	0.010867
3047.8	0.010317
3057.44	0.007127
3067.09	0.006857
3076.73	0.007727
3086.38	0.006717
3096.02	0.004167
3105.67	0.002647
3115.31	0.001917
3124.95	0.001507
3134.6	0.0009225
3144.24	0.0008798
3153.89	0.0007615
3163.53	0.0006486
3173.18	0.0007926
3182.82	0.0007077
3192.47	0.0007645
3202.11	0.0004328
3211.76	0.00039663
3221.4	0.00049
3231.05	0.0003398
3240.69	0.00031129
3250.34	0.00041346
3259.98	0.00031305
3269.63	0.0003984
3279.27	0.0002908
3288.92	0.000318982
3298.56	0.00037302
3308.21	0.000191
3317.85	0.00033505
3327.49	0.0002923
3337.14	0.00038896
3346.78	0.0002558
3356.43	0.00037456
3366.07	0.0004333
3375.72	0.0003036
3385.36	0.000225
3395.01	0.000318599
3404.65	0.0002242
3414.3	0.000163
3423.94	0.00039879
3433.59	0.000158
3443.23	0.0002203
3452.88	0.0004473
3462.52	0.000396
3472.17	0.00041472
3481.81	0.0002422
3491.46	0.0004861
3501.1	0.000476
3510.75	0.0002436
3520.39	0.0005099
3530.04	0.0002594
3539.68	0.00033585
3549.32	0.00037044
3558.97	0.00031125
3568.61	0.0002976
3578.26	0.00035097
3587.9	0.0004698
3597.55	0.000117
3607.19	0.0005197
3616.84	0.0002492
3626.48	0.0005095
3636.13	0.000152
3645.77	0.000302
3655.42	0.00012
3665.06	0.00037967
3674.71	0.00033735
3684.35	0.00037395
3694	0.0004882
3703.64	0.00040092
3713.29	0.000492
3722.93	0.0005395
3732.58	0.0006039
3742.22	0.0006188
3751.86	0.00037668
3761.51	0.0004644
3771.15	0.00040716
3780.8	0.0003742
3790.44	0.0005752
3800.09	0.00039243
3809.73	0.0004156
3819.38	0.0005432
3829.02	0.000691
3838.67	0.0006076
3848.31	0.0005674
3857.96	0.0004999
3867.6	0.00040358
3877.25	0.0004411
3886.89	0.0005717
3896.54	0.00041192
3906.18	0.0004745
3915.83	0.0002479
3925.47	0.00036366
3935.12	0.00035551
3944.76	0.0004599
3954.41	0.00040822
3964.05	0.0005233
3973.69	0.0004856
3983.34	0.0008595
3992.98	0.0005223
