Infrared Spectrum: BENZOTHIAZOLE, 6-ETHOXY-2-SULFONAMIDE-
Formula: C9 H10 N2 O3 S2
CAS: 452-35-7
State: SOLID (KBr DISC) VS KBr
Melting point: 188-190 C
Class: COBLENTZ III
Instrument: PERKIN-ELMER 21 (GRATING)
Instrument parameters: FILTER AT ABOUT 10 MICRONS
Sampling: TRANSMISSION
Resolution: 2
1/CM	TRANSMITTANCE
4000	0.7676
3991	0.7685
3982	0.7693
3973	0.7701
3964	0.7711
3955	0.7718
3946	0.7728
3937	0.7737
3928	0.7743
3919	0.775
3910	0.7757
3901	0.7765
3892	0.7771
3883	0.7778
3874	0.7783
3865	0.7785
3856	0.7787
3847	0.7788
3838	0.7791
3829	0.7792
3820	0.7794
3811	0.7797
3802	0.7805
3793	0.7812
3784	0.7824
3775	0.7844
3766	0.7867
3757	0.7889
3748	0.7908
3739	0.7926
3730	0.7945
3721	0.796
3712	0.7968
3703	0.7976
3694	0.7983
3685	0.7985
3676	0.7986
3667	0.7987
3658	0.7989
3649	0.7991
3640	0.7993
3631	0.8
3622	0.8008
3613	0.8017
3604	0.8025
3595	0.8034
3586	0.8042
3577	0.805
3568	0.8058
3559	0.8065
3550	0.8074
3541	0.8082
3532	0.809
3523	0.8097
3514	0.8105
3505	0.8112
3496	0.8115
3487	0.8112
3478	0.811
3469	0.8106
3460	0.8101
3451	0.8076
3442	0.8033
3433	0.7918
3424	0.7588
3415	0.7239
3406	0.699
3397	0.6557
3388	0.5846
3379	0.5087
3370	0.4324
3361	0.3558
3352	0.2788
3343	0.2013
3334	0.1675
3325	0.1957
3316	0.2508
3307	0.3061
3298	0.3618
3289	0.4178
3280	0.4741
3271	0.5307
3262	0.5668
3253	0.5633
3244	0.5418
3235	0.5175
3226	0.4931
3217	0.4686
3208	0.4439
3199	0.4191
3190	0.3941
3181	0.369
3172	0.3452
3163	0.3432
3154	0.3544
3145	0.3728
3136	0.3914
3127	0.4103
3118	0.4291
3109	0.448
3100	0.4586
3091	0.4564
3082	0.4481
3073	0.4403
3064	0.438
3055	0.4494
3046	0.471
3037	0.493
3028	0.5149
3019	0.5369
3010	0.5516
3001	0.5476
2992	0.5421
2983	0.5382
2974	0.563
2965	0.5878
2956	0.5882
2947	0.5886
2938	0.5887
2929	0.6003
2920	0.6148
2911	0.6212
2902	0.6255
2893	0.6292
2884	0.6366
2875	0.6501
2866	0.6689
2857	0.6905
2848	0.7111
2839	0.7272
2830	0.7401
2821	0.7508
2812	0.7605
2803	0.7694
2794	0.778
2785	0.7846
2776	0.7905
2767	0.7948
2758	0.7978
2749	0.7999
2740	0.8015
2731	0.8024
2722	0.8032
2713	0.8034
2704	0.8033
2695	0.8019
2686	0.7983
2677	0.7915
2668	0.7835
2659	0.7771
2650	0.7737
2641	0.7743
2632	0.7772
2623	0.7801
2614	0.7828
2605	0.7864
2596	0.7904
2587	0.7961
2578	0.8026
2569	0.8165
2560	0.8236
2551	0.8275
2542	0.8268
2533	0.8251
2524	0.8238
2515	0.8236
2506	0.8252
2497	0.8284
2488	0.8321
2479	0.8368
2470	0.8432
2461	0.8486
2452	0.8504
2443	0.8521
2434	0.8539
2425	0.8559
2416	0.858
2407	0.8601
2398	0.8618
2389	0.8634
2380	0.8647
2371	0.8653
2362	0.8658
2353	0.8656
2344	0.8653
2335	0.865
2326	0.8647
2317	0.865
2308	0.8662
2299	0.868
2290	0.8698
2281	0.8717
2272	0.8732
2263	0.8782
2254	0.8792
2245	0.8793
2236	0.8794
2227	0.88
2218	0.8828
2209	0.8871
2200	0.8896
2191	0.89
2182	0.8904
2173	0.8896
2164	0.8888
2155	0.8883
2146	0.8883
2137	0.889
2128	0.8897
2119	0.8899
2110	0.89
2101	0.8902
2092	0.8904
2083	0.8906
2074	0.8966
2065	0.8977
2056	0.8977
2047	0.8981
2038	0.8987
2029	0.8998
2020	0.9008
2011	0.9014
2002	0.9015
1993	0.9018
1984	0.9021
1975	0.9014
1966	0.8996
1957	0.8983
1948	0.8997
1939	0.8975
1930	0.8849
1921	0.8845
1912	0.8927
1903	0.8991
1894	0.903
1885	0.9063
1876	0.9086
1867	0.9109
1858	0.9128
1849	0.9148
1840	0.9162
1831	0.916
1822	0.9137
1813	0.9162
1804	0.913
1795	0.905
1786	0.9021
1777	0.9015
1768	0.9023
1759	0.9039
1750	0.9059
1741	0.9054
1732	0.9027
1723	0.9011
1714	0.8994
1705	0.8987
1696	0.8985
1687	0.8986
1678	0.8975
1669	0.8836
1660	0.8775
1651	0.8728
1642	0.8671
1633	0.8268
1624	0.7478
1615	0.4864
1606	0.271
1597	0.5542
1588	0.7245
1579	0.7565
1570	0.7486
1561	0.6568
1552	0.6069
1543	0.6374
1534	0.739
1525	0.7668
1516	0.7938
1507	0.7714
1498	0.444
1489	0.2033
1480	0.2274
1471	0.3718
1462	0.5717
1453	0.6186
1444	0.5726
1435	0.7358
1426	0.7561
1417	0.6118
1408	0.6981
1399	0.5409
1390	0.5241
1381	0.6341
1372	0.2875
1363	0.0527
1354	0.0996
1345	0.417
1336	0.5178
1327	0.5779
1318	0.7147
1309	0.7728
1300	0.7975
1291	0.7962
1282	0.6417
1273	0.4142
1264	0.0834
1255	0.1958
1246	0.5307
1237	0.6047
1228	0.2296
1219	0.3722
1210	0.6649
1201	0.7558
1192	0.7643
1183	0.659
1174	0.1763
1165	0.0748
1156	0.3242
1147	0.57
1138	0.6475
1129	0.4705
1120	0.6255
1111	0.5548
1102	0.6622
1093	0.7172
1084	0.7198
1075	0.4838
1066	0.4939
1057	0.7044
1048	0.6739
1039	0.2783
1030	0.4753
1021	0.4739
1012	0.7325
1003	0.7988
994	0.861
985	0.849
976	0.8668
967	0.8786
958	0.881
949	0.8535
940	0.572
931	0.7621
922	0.7335
913	0.4194
904	0.2757
895	0.5032
886	0.6001
877	0.6868
868	0.7799
859	0.8111
850	0.7942
841	0.5712
832	0.5745
823	0.1324
814	0.4865
805	0.7595
796	0.7925
787	0.7947
778	0.7748
769	0.748
760	0.7042
751	0.6496
742	0.6021
733	0.5197
724	0.478
715	0.359
706	0.3977
697	0.5677
688	0.5465
679	0.513
