Infrared Spectrum: 4-Fluoro-2-methylphenol
Formula: C 7 H 7 F O
CAS: 452-72-2
State: gas
Origin: EPA-IR VAPOR PHASE LIBRARY
1/CM	ABSORBANCE
549.8	0.00325
559.445	0.0050794
569.09	0.0043929
578.734	0.003691
588.379	0.004308
598.024	0.004712
607.669	0.0050608
617.313	0.004562
626.958	0.003925
636.603	0.00428
646.248	0.004169
655.893	0.00435
665.537	0.004222
675.182	0.004209
684.827	0.004101
694.472	0.0047153
704.116	0.0049805
713.761	0.00602
723.406	0.00634
733.051	0.00574
742.695	0.0050232
752.34	0.0053025
761.985	0.00662
771.63	0.00733
781.275	0.00609
790.919	0.00617
800.564	0.00722
810.209	0.00674
819.854	0.0047694
829.498	0.0050951
839.143	0.00594
848.788	0.005378
858.433	0.00662
868.078	0.00662
877.722	0.00596
887.367	0.0053578
897.012	0.0046113
906.657	0.0051235
916.301	0.0051949
925.946	0.0051461
935.591	0.00558
945.236	0.00553
954.88	0.00584
964.525	0.00582
974.17	0.00572
983.815	0.00548
993.46	0.00619
1003.1	0.00624
1012.75	0.00557
1022.39	0.00563
1032.04	0.0051097
1041.68	0.0047427
1051.33	0.004243
1060.97	0.003549
1070.62	0.0054257
1080.26	0.0047229
1089.91	0.00633
1099.55	0.00328
1109.2	0.00239
1118.84	0
1128.49	0.00255
1138.13	0.003545
1147.78	0.004082
1157.42	0.00891
1167.07	0.01206
1176.71	0.01144
1186.36	0.00613
1196	0.00672
1205.64	0.00587
1215.29	0.00558
1224.93	0.00565
1234.58	0.0050627
1244.22	0.00566
1253.87	0.00599
1263.51	0.00603
1273.16	0.00618
1282.8	0.0050855
1292.45	0.0057
1302.09	0.00582
1311.74	0.00668
1321.38	0.00619
1331.03	0.005358
1340.67	0.0050644
1350.32	0.0047758
1359.96	0.0048409
1369.61	0.0047392
1379.25	0.0047678
1388.9	0.005103
1398.54	0.0049931
1408.18	0.0052718
1417.83	0.0066
1427.47	0.0072
1437.12	0.00668
1446.76	0.00566
1456.41	0.0053426
1466.05	0.0054431
1475.7	0.00711
1485.34	0.01016
1494.99	0.0158
1504.63	0.01833
1514.28	0.01475
1523.92	0.00792
1533.57	0.00589
1543.21	0.0049974
1552.86	0.0053415
1562.5	0.0049248
1572.15	0.0051571
1581.79	0.0053059
1591.44	0.0048886
1601.08	0.0051157
1610.73	0.0052829
1620.37	0.00565
1630.01	0.0051831
1639.66	0.0047961
1649.3	0.0049317
1658.95	0.0050239
1668.59	0.00444
1678.24	0.0047651
1687.88	0.00446986
1697.53	0.00450684
1707.17	0.0045715
1716.82	0.004784
1726.46	0.0046615
1736.11	0.00446625
1745.75	0.00446189
1755.4	0.00449058
1765.04	0.004216
1774.69	0.0043707
1784.33	0.0045685
1793.98	0.0046398
1803.62	0.00448012
1813.27	0.00449789
1822.91	0.0046345
1832.55	0.0045771
1842.2	0.00454774
1851.84	0.0046204
1861.49	0.00454782
1871.13	0.00453261
1880.78	0.0046671
1890.42	0.0047659
1900.07	0.0045774
1909.71	0.0046089
1919.36	0.0046957
1929	0.00455126
1938.65	0.0048275
1948.29	0.0047661
1957.94	0.0047037
1967.58	0.0046137
1977.23	0.0049304
1986.87	0.0049396
1996.52	0.0050413
2006.16	0.0049096
2015.81	0.0048248
2025.45	0.0049922
2035.1	0.0048905
2044.74	0.0050776
2054.38	0.0048269
2064.03	0.0048879
2073.67	0.0048224
2083.32	0.0048688
2092.96	0.0047797
2102.61	0.0050818
2112.25	0.0049627
2121.9	0.004962
2131.54	0.005151
2141.19	0.0049941
2150.83	0.004817
2160.48	0.0048717
2170.12	0.0052135
2179.77	0.0053516
2189.41	0.0049799
2199.06	0.0051039
2208.7	0.0049684
2218.35	0.0050288
2227.99	0.0047405
2237.64	0.0049647
2247.28	0.0051661
2256.92	0.0050713
2266.57	0.0051361
2276.21	0.004934
2285.86	0.0052295
2295.5	0.0052569
2305.15	0.0052186
2314.79	0.0050692
2324.44	0.0051006
2334.08	0.0051978
2343.73	0.0050121
2353.37	0.0051988
2363.02	0.0052605
2372.66	0.0049493
2382.31	0.0050677
2391.95	0.0053181
2401.6	0.0051843
2411.24	0.0053142
2420.89	0.00548
2430.53	0.0053001
2440.18	0.0052036
2449.82	0.0050208
2459.47	0.0052264
2469.11	0.0053263
2478.75	0.0049318
2488.4	0.0051375
2498.04	0.0052426
2507.69	0.00559
2517.33	0.005434
2526.98	0.005243
2536.62	0.004948
2546.27	0.0053973
2555.91	0.005314
2565.56	0.0049493
2575.2	0.00549
2584.85	0.0053194
2594.49	0.0051872
2604.14	0.005407
2613.78	0.0051791
2623.43	0.0054265
2633.07	0.00555
2642.72	0.0052579
2652.36	0.0050838
2662.01	0.00566
2671.65	0.00553
2681.29	0.0054516
2690.94	0.0052374
2700.58	0.005393
2710.23	0.0054115
2719.87	0.0054396
2729.52	0.0051621
2739.16	0.00553
2748.81	0.00549
2758.45	0.00552
2768.1	0.0054392
2777.74	0.00561
2787.39	0.0048942
2797.03	0.00557
2806.68	0.0054473
2816.32	0.0053433
2825.97	0.0054237
2835.61	0.00572
2845.26	0.00573
2854.9	0.00588
2864.55	0.00563
2874.19	0.00632
2883.84	0.00602
2893.48	0.00583
2903.12	0.00615
2912.77	0.0062
2922.41	0.00634
2932.06	0.00673
2941.7	0.00679
2951.35	0.00605
2960.99	0.00612
2970.64	0.00596
2980.28	0.0062
2989.93	0.0054429
2999.57	0.006
3009.22	0.00572
3018.86	0.00609
3028.51	0.00616
3038.15	0.00635
3047.8	0.00628
3057.44	0.00572
3067.09	0.00558
3076.73	0.0056
3086.38	0.0059
3096.02	0.00563
3105.67	0.0051717
3115.31	0.00571
3124.95	0.0053042
3134.6	0.00547
3144.24	0.0056
3153.89	0.0051716
3163.53	0.0052295
3173.18	0.0048429
3182.82	0.0053413
3192.47	0.0050129
3202.11	0.0048766
3211.76	0.0051854
3221.4	0.0048739
3231.05	0.0053474
3240.69	0.0049829
3250.34	0.00551
3259.98	0.005418
3269.63	0.004797
3279.27	0.0049677
3288.92	0.004964
3298.56	0.0051753
3308.21	0.0053525
3317.85	0.005144
3327.49	0.0050902
3337.14	0.0047483
3346.78	0.0048581
3356.43	0.0052868
3366.07	0.0048526
3375.72	0.0047644
3385.36	0.0046225
3395.01	0.0052539
3404.65	0.0053952
3414.3	0.0048091
3423.94	0.0048948
3433.59	0.0050482
3443.23	0.0046449
3452.88	0.0050842
3462.52	0.005053
3472.17	0.0052919
3481.81	0.00450864
3491.46	0.0052551
3501.1	0.0044399
3510.75	0.0045861
3520.39	0.0046445
3530.04	0.0048857
3539.68	0.0047695
3549.32	0.0053616
3558.97	0.0049231
3568.61	0.0050939
3578.26	0.0051392
3587.9	0.0051927
3597.55	0.0045728
3607.19	0.0051878
3616.84	0.0047516
3626.48	0.0051167
3636.13	0.00635
3645.77	0.00756
3655.42	0.00887
3665.06	0.00764
3674.71	0.00629
3684.35	0.0053684
3694	0.0049071
3703.64	0.0047392
3713.29	0.0050152
3722.93	0.0050515
3732.58	0.0049116
3742.22	0.0049647
3751.86	0.0053781
3761.51	0.00445937
3771.15	0.0054314
3780.8	0.0043679
3790.44	0.00565
3800.09	0.0048457
3809.73	0.0049833
3819.38	0.0047302
3829.02	0.0049029
3838.67	0.0050695
3848.31	0.0052554
3857.96	0.0052066
3867.6	0.0051319
3877.25	0.00553
3886.89	0.0052364
3896.54	0.00452927
3906.18	0.00478
3915.83	0.0052536
3925.47	0.004577
3935.12	0.0047046
3944.76	0.0048934
3954.41	0.00587
3964.05	0.0047431
3973.69	0.0053781
3983.34	0.0050875
3992.98	0.00571
