Infrared Spectrum: 2,3-Diaminopyridine
Formula: C 5 H 7 N 3
CAS: 452-58-4
State: gas
Origin: EPA-IR VAPOR PHASE LIBRARY
1/CM	ABSORBANCE
501.5	0.0057252
513.074	0.0062952
524.648	0.0072952
536.222	0.0084352
547.796	0.0095252
559.37	0.0096052
570.944	0.0093852
582.518	0.0097952
594.092	0.0106552
605.666	0.0118352
617.24	0.0127352
628.814	0.0143652
640.388	0.0160052
651.962	0.0163852
663.536	0.0152552
675.11	0.0134252
686.684	0.0117352
698.258	0.0104452
709.832	0.0095052
721.406	0.0092052
732.98	0.0102552
744.554	0.0127652
756.128	0.0160652
767.702	0.0165752
779.276	0.0172252
790.85	0.0120752
802.423	0.0089652
813.997	0.0070952
825.571	0.0062752
837.145	0.0058252
848.719	0.0053652
860.293	0.0050852
871.867	0.0049152
883.441	0.0046752
895.015	0.0042452
906.589	0.0038352
918.163	0.0034852
929.737	0.0033152
941.311	0.0033252
952.885	0.0031552
964.459	0.0029652
976.033	0.0027752
987.607	0.0027952
999.181	0.0027552
1010.76	0.0028852
1022.33	0.0033252
1033.9	0.0037752
1045.48	0.0043752
1057.05	0.0050152
1068.63	0.0054152
1080.2	0.0053052
1091.77	0.0051152
1103.35	0.0047852
1114.92	0.0041652
1126.49	0.0036452
1138.07	0.0032752
1149.64	0.0029652
1161.22	0.0026952
1172.79	0.0027052
1184.36	0.0029552
1195.94	0.0037752
1207.51	0.0060652
1219.09	0.0104152
1230.66	0.0129452
1242.23	0.0108452
1253.81	0.0063152
1265.38	0.0056852
1276.96	0.0063352
1288.53	0.0068752
1300.1	0.0073652
1311.68	0.0070752
1323.25	0.0049952
1334.83	0.0036652
1346.4	0.0025052
1357.97	0.0018252
1369.55	0.0015752
1381.12	0.0015552
1392.7	0.0017352
1404.27	0.0022152
1415.84	0.0032552
1427.42	0.0059752
1438.99	0.0156052
1450.57	0.0362452
1462.14	0.0521952
1473.71	0.0394252
1485.29	0.0168052
1496.86	0.0065852
1508.44	0.0045452
1520.01	0.0039352
1531.58	0.0037252
1543.16	0.0042452
1554.73	0.0056152
1566.31	0.0079252
1577.88	0.0113352
1589.45	0.0166552
1601.03	0.0265652
1612.6	0.0330852
1624.18	0.0289352
1635.75	0.0161752
1647.32	0.0070752
1658.9	0.0037752
1670.47	0.0026152
1682.05	0.0020752
1693.62	0.0016552
1705.19	0.0013452
1716.77	0.0011452
1728.34	0.0011152
1739.92	0.0011252
1751.49	0.0011752
1763.06	0.0012452
1774.64	0.0013052
1786.21	0.0013652
1797.79	0.0014152
1809.36	0.0013852
1820.93	0.0013052
1832.51	0.0013152
1844.08	0.0014052
1855.66	0.0013252
1867.23	0.0011552
1878.8	0.0011652
1890.38	0.0011252
1901.95	0.0009376
1913.53	0.0006438
1925.1	0.0005434
1936.67	0.0004964
1948.25	0.0004977
1959.82	0.0004979
1971.4	0.0004916
1982.97	0.0005077
1994.54	0.0004923
2006.12	0.0004599
2017.69	0.0004487
2029.27	0.0004669
2040.84	0.0004378
2052.41	0.0004771
2063.99	0.0004775
2075.56	0.0004327
2087.14	0.0004167
2098.71	0.0003952
2110.28	0.0004099
2121.86	0.0004254
2133.43	0.0004728
2145.01	0.0004584
2156.58	0.0004351
2168.15	0.0004319
2179.73	0.0004393
2191.3	0.0004873
2202.88	0.0006252
2214.45	0.0007051
2226.02	0.0006515
2237.6	0.0004973
2249.17	0.000421
2260.74	0.000403
2272.32	0.0003822
2283.89	0.0003673
2295.47	0.0003351
2307.04	0.0003427
2318.61	0.0003426
2330.19	0.0004423
2341.76	0.0004931
2353.34	0.0004936
2364.91	0.0004324
2376.48	0.0004014
2388.06	0.0003274
2399.63	0.0003004
2411.21	0.0002907
2422.78	0.0002778
2434.35	0.0002945
2445.93	0.0002928
2457.5	0.0003073
2469.08	0.0002832
2480.65	0.0003212
2492.22	0.0003188
2503.8	0.0003358
2515.37	0.0003296
2526.95	0.0003189
2538.52	0.0003589
2550.09	0.000424
2561.67	0.0004771
2573.24	0.000519
2584.82	0.0005018
2596.39	0.0004764
2607.96	0.0004184
2619.54	0.000336
2631.11	0.000338
2642.69	0.0002795
2654.26	0.0002388
2665.83	0.0002082
2677.41	0.0002064
2688.98	0.0001832
2700.56	0.0001443
2712.13	0.000154
2723.7	0.0002077
2735.28	0.0001959
2746.85	0.0001744
2758.43	0.0001334
2770	0.0001328
2781.57	0.0001566
2793.15	0.0001876
2804.72	0.0001695
2816.3	0.0001958
2827.87	0.0002056
2839.44	0.0002701
2851.02	0.0002663
2862.59	0.0002992
2874.17	0.0003
2885.74	0.0003308
2897.31	0.0003054
2908.89	0.0003435
2920.46	0.000324
2932.04	0.0002723
2943.61	0.0001777
2955.18	0.0001813
2966.76	0.0002119
2978.33	0.0002363
2989.91	0.000422
3001.48	0.0009365
3013.05	0.0023252
3024.63	0.0042552
3036.2	0.0057152
3047.78	0.0062252
3059.35	0.0059852
3070.92	0.0058052
3082.5	0.0046352
3094.07	0.0028352
3105.65	0.0009388
3117.22	0.0003561
3128.79	0.0002428
3140.37	0.0002267
3151.94	0.0002895
3163.52	0.0003446
3175.09	0.0003684
3186.66	0.0003448
3198.24	0.000316
3209.81	0.0002627
3221.39	0.0003034
3232.96	0.0002458
3244.53	0.000173
3256.11	0.0001362
3267.68	0.00010478
3279.26	6.435e-05
3290.83	6.85e-05
3302.4	9.597e-05
3313.98	3.729e-05
3325.55	9.651e-05
3337.13	0.0002349
3348.7	0.000669
3360.27	0.0016752
3371.85	0.0031652
3383.42	0.0036852
3395	0.0028752
3406.57	0.0016452
3418.14	0.0012252
3429.72	0.0014552
3441.29	0.0024352
3452.86	0.0037852
3464.44	0.0055652
3476.01	0.0055452
3487.59	0.0039852
3499.16	0.0021352
3510.73	0.0011652
3522.31	0.0007335
3533.88	0.0005142
3545.46	0.0004289
3557.03	0.0003647
3568.6	0.0003665
3580.18	0.0003312
3591.75	0.0003453
3603.33	0.0002947
3614.9	0.0002728
3626.47	0.0002695
3638.05	0.0002568
3649.62	0.0002315
3661.2	0.0002516
3672.77	0.0001806
3684.34	0.0003017
3695.92	0.0001795
3707.49	0.0001866
3719.07	0.0001304
3730.64	3.245e-05
3742.21	3.485e-05
3753.79	6.801e-05
3765.36	9.118e-05
3776.94	7.762e-05
3788.51	8.593e-05
3800.08	0.0001726
3811.66	0.0001272
3823.23	0.0001218
3834.81	8.62e-05
3846.38	9.334e-05
3857.95	0.0001158
3869.53	0.00010256
3881.1	0.00010936
3892.68	0.0001425
3904.25	0.0001792
3915.82	0.000143
3927.4	0.0001978
3938.97	0.0002105
3950.55	0.0002478
3962.12	0.0002384
3973.69	0.0002263
3985.27	0.0002645
3996.84	0.0002952
