Infrared Spectrum: 6-Fluoro-m-toluidine
Formula: C7 H8 F N
CAS: 452-84-6
State: SOLUTION (10% CCl4 FOR 3800-1330, 10% CS2 FOR 1330-470 CM^-^1) VS SOLVENT
Class: COBLENTZ III
Instrument: DOW KBr FOREPRISM-GRATING
Instrument parameters: BLAZED AT 3.5, 12.0, 20.0 MICRON AND CHANGED AT 5.0, 7.5, 14.9 MICRON
Sampling: TRANSMISSION
Path length: 0.011 CM, 0.011 CM
Resolution: 2
Origin: DOW CHEMICAL COMPANY
1/CM	TRANSMITTANCE
3798	0.8734
3789	0.8697
3780	0.8668
3771	0.8671
3762	0.8695
3753	0.8725
3744	0.8754
3735	0.8777
3726	0.8792
3717	0.8799
3708	0.8778
3699	0.8755
3690	0.8724
3681	0.8699
3672	0.8692
3663	0.8714
3654	0.8751
3645	0.8775
3636	0.8792
3627	0.8788
3618	0.8784
3609	0.8775
3600	0.8767
3591	0.8755
3582	0.8736
3573	0.871
3564	0.8678
3555	0.8633
3546	0.8561
3537	0.847
3528	0.8333
3519	0.8061
3510	0.7708
3501	0.6065
3492	0.4478
3483	0.41
3474	0.45
3465	0.524
3456	0.5982
3447	0.6721
3438	0.7342
3429	0.7498
3420	0.7306
3411	0.5069
3402	0.3156
3393	0.3284
3384	0.449
3375	0.5691
3366	0.6755
3357	0.7232
3348	0.7558
3339	0.7811
3330	0.803
3321	0.8167
3312	0.8275
3303	0.8361
3294	0.8428
3285	0.8474
3276	0.8492
3267	0.8499
3258	0.849
3249	0.8475
3240	0.8425
3231	0.8271
3222	0.8215
3213	0.8215
3204	0.8175
3195	0.8101
3186	0.8183
3177	0.8316
3168	0.8431
3159	0.8487
3150	0.8508
3141	0.8502
3132	0.8465
3123	0.8431
3114	0.8427
3105	0.8425
3096	0.8408
3087	0.829
3078	0.7789
3069	0.759
3060	0.7271
3051	0.691
3042	0.655
3033	0.6307
3024	0.6348
3015	0.6675
3006	0.723
2997	0.7257
2988	0.7047
2979	0.6761
2970	0.6603
2961	0.6478
2952	0.6288
2943	0.6233
2934	0.572
2925	0.507
2916	0.5514
2907	0.6294
2898	0.7074
2889	0.7393
2880	0.7407
2871	0.6295
2862	0.6908
2853	0.7847
2844	0.8137
2835	0.8321
2826	0.8445
2817	0.8528
2808	0.8588
2799	0.8618
2790	0.865
2781	0.8665
2772	0.8688
2763	0.8704
2754	0.8664
2745	0.8416
2736	0.8307
2727	0.8428
2718	0.8593
2709	0.8695
2700	0.8728
2691	0.8717
2682	0.8694
2673	0.8707
2664	0.8714
2655	0.8697
2646	0.8602
2637	0.8453
2628	0.841
2619	0.8462
2610	0.8511
2601	0.8545
2592	0.8571
2583	0.8596
2574	0.8623
2565	0.865
2556	0.8675
2547	0.8692
2538	0.8707
2529	0.8701
2520	0.8694
2511	0.8684
2502	0.8668
2493	0.8659
2484	0.8657
2475	0.8654
2466	0.8656
2457	0.8658
2448	0.8649
2439	0.8639
2430	0.8634
2421	0.8627
2412	0.8628
2403	0.863
2394	0.8624
2385	0.8612
2376	0.8607
2367	0.8611
2358	0.8616
2349	0.8631
2340	0.8647
2331	0.8656
2322	0.8661
2313	0.8657
2304	0.8633
2295	0.8557
2286	0.8486
2277	0.8506
2268	0.8593
2259	0.8678
2250	0.8682
2241	0.8698
2232	0.8724
2223	0.875
2214	0.8763
2205	0.8775
2196	0.8786
2187	0.8798
2178	0.881
2169	0.8821
2160	0.8832
2151	0.8836
2142	0.884
2133	0.8843
2124	0.8845
2115	0.8846
2106	0.8848
2097	0.8837
2088	0.8771
2079	0.8737
2070	0.8788
2061	0.8835
2052	0.8855
2043	0.8874
2034	0.8884
2025	0.8892
2016	0.8897
2007	0.8897
1998	0.8864
1989	0.8731
1980	0.8745
1971	0.8745
1962	0.8806
1953	0.8835
1944	0.8828
1935	0.8783
1926	0.8765
1917	0.8811
1908	0.8806
1899	0.8741
1890	0.8666
1881	0.8647
1872	0.8705
1863	0.8668
1854	0.8302
1845	0.7983
1836	0.8338
1827	0.8693
1818	0.881
1809	0.8821
1800	0.8828
1791	0.8796
1782	0.8671
1773	0.8582
1764	0.8652
1755	0.8644
1746	0.8637
1737	0.8617
1728	0.8432
1719	0.8132
1710	0.8083
1701	0.8188
1692	0.8335
1683	0.8328
1674	0.7941
1665	0.7093
1656	0.6125
1647	0.4888
1638	0.0809
1629	0.0295
1620	0.3542
1611	0.4388
1602	0.337
1593	0.4957
1584	0.6012
1575	0.6841
1566	0.7226
1557	0.7286
1548	0.7038
1539	0.5608
1530	0.1668
1521	0.0066
1512	0.11
1503	0.3318
1494	0.5943
1485	0.6751
1476	0.6471
1467	0.566
1458	0.4714
1449	0.4609
1440	0.4278
1431	0.4878
1422	0.7161
1413	0.7875
1404	0.8212
1395	0.8294
1386	0.8157
1377	0.7868
1368	0.831
1359	0.847
1350	0.8502
1341	0.8489
1332	0.8387
1323	0.7397
1314	0.3962
1305	0.0453
1296	0.4659
1287	0.6792
1278	0.6192
1269	0.7021
1260	0.7932
1251	0.8141
1242	0.7965
1233	0.734
1224	0.5276
1215	0.0302
1206	0.1119
1197	0.2631
1188	0.6436
1179	0.7458
1170	0.6406
1161	0.3343
1152	0.4776
1143	0.726
1134	0.6173
1125	0.7248
1116	0.7539
1107	0.7815
1098	0.7801
1089	0.7525
1080	0.6738
1071	0.7475
1062	0.7895
1053	0.7986
1044	0.7658
1035	0.7226
1026	0.7798
1017	0.8133
1008	0.8099
999	0.7454
990	0.814
981	0.8277
972	0.8321
963	0.8165
954	0.8089
945	0.5202
936	0.7188
927	0.7171
918	0.6156
909	0.7704
900	0.7836
891	0.7734
882	0.7668
873	0.7453
864	0.6172
855	0.3855
846	0.4919
837	0.6501
828	0.7111
819	0.7058
810	0.6009
801	0.2469
792	0.0121
783	0.5031
774	0.4984
765	0.1944
756	0.5848
747	0.5947
738	0.5799
729	0.4991
720	0.5747
711	0.6525
702	0.6508
693	0.6274
684	0.6058
675	0.6134
666	0.5904
657	0.5689
648	0.5564
639	0.551
630	0.5445
621	0.5296
612	0.5234
603	0.5196
594	0.5046
585	0.4006
576	0.5093
567	0.4842
558	0.4883
549	0.4837
540	0.4814
531	0.4809
522	0.4822
513	0.4821
504	0.4812
495	0.4678
486	0.4888
477	0.5087
468	0.5212
