Infrared Spectrum: 4-Methylcatechol
Formula: C 7 H 8 O 2
CAS: 452-86-8
State: gas
Instrument: HP-GC/MS/IRD
Origin: NIST Mass Spectrometry Data Center
1/CM	ABSORBANCE
550	0.0010557
562	0.0009844
574	0.0019826
586	0.0027025
598	0.001633
610	0.000483
622	0.0001426
634	0.0001863
646	0.0001265
658	0.0001495
670	2.99e-05
682	5.29e-05
694	0.0001955
706	0.0003588
718	0.0008533
730	0.0009706
742	0.0007153
754	0.0009614
766	0.0036593
778	0.0070265
790	0.0083513
802	0.0061732
814	0.0037306
826	0.0018515
838	0.0014559
850	0.0014398
862	0.0016744
874	0.0008993
886	0.0005014
898	0.0005175
910	0.0008694
922	0.0017733
934	0.0030498
946	0.0026657
958	0.0011707
970	0.0008349
982	0.0011155
994	0.0013547
1006	0.0011224
1018	0.0006854
1030	0.0007222
1042	0.0008648
1054	0.0011201
1066	0.001334
1078	0.0020286
1090	0.0056442
1102	0.0110193
1114	0.0100096
1126	0.0045724
1138	0.0052877
1150	0.0085054
1162	0.0148005
1174	0.0160908
1186	0.0125396
1198	0.0108445
1210	0.0080615
1222	0.0064952
1234	0.0075532
1246	0.0153433
1258	0.0194028
1270	0.0181171
1282	0.0228068
1294	0.0190486
1306	0.0093955
1318	0.0080178
1330	0.0052854
1342	0.0032131
1354	0.0030682
1366	0.0029739
1378	0.0021091
1390	0.0015318
1402	0.0014536
1414	0.0020769
1426	0.0033856
1438	0.0042711
1450	0.0035673
1462	0.0022885
1474	0.0021206
1486	0.003565
1498	0.00851
1510	0.0183356
1522	0.0217258
1534	0.0125465
1546	0.0040641
1558	0.0019711
1570	0.0019251
1582	0.0025645
1594	0.0041423
1606	0.0051037
1618	0.0038617
1630	0.0022678
1642	0.0019435
1654	0.0017595
1666	0.0014168
1678	0.0013202
1690	0.0010396
1702	0.0005934
1714	0.0005175
1726	0.0003404
1738	0.0002254
1750	0.0001817
1762	0.000207
1774	0.0001955
1786	0.0001449
1798	0.0001035
1810	0.0001495
1822	0.0002208
1834	0.000253
1846	0.000276
1858	0.0002944
1870	0.0002484
1882	0.000138
1894	7.59e-05
1906	4.14e-05
1918	5.98e-05
1930	3.22e-05
1942	6.44e-05
1954	4.37e-05
1966	3.68e-05
1978	5.06e-05
1990	4.83e-05
2002	4.83e-05
2014	9.66e-05
2026	0.0001587
2038	0.0001771
2050	0.0001748
2062	0.0001679
2074	0.0001196
2086	8.51e-05
2098	5.29e-05
2110	4.37e-05
2122	2.76e-05
2134	1.61e-05
2146	3.22e-05
2158	2.3e-06
2170	3.45e-05
2182	4.6e-05
2194	5.29e-05
2206	7.13e-05
2218	8.51e-05
2230	7.36e-05
2242	5.29e-05
2254	8.51e-05
2266	0.0001104
2278	0.0001656
2290	0.0001817
2302	0.0002024
2314	0.0001771
2326	0.0001564
2338	0.0001472
2350	0.000184
2362	0.0001794
2374	0.0001794
2386	0.0002208
2398	0.0002369
2410	0.0002392
2422	0.0002415
2434	0.000207
2446	0.0001978
2458	0.0002277
2470	0.0002116
2482	0.0001909
2494	0.000184
2506	0.0002024
2518	0.0001518
2530	0.0001564
2542	0.0001702
2554	0.0001702
2566	0.0001426
2578	0.0001035
2590	5.75e-05
2602	8.28e-05
2614	0.0001058
2626	8.97e-05
2638	5.29e-05
2650	5.29e-05
2662	2.3e-05
2674	9.2e-06
2686	2.3e-06
2698	1.15e-05
2710	5.75e-05
2722	9.43e-05
2734	0.0001794
2746	0.0002392
2758	0.0001334
2770	9.43e-05
2782	0.000115
2794	7.82e-05
2806	0.0001426
2818	0.0002369
2830	0.0002944
2842	0.0004439
2854	0.0008073
2866	0.0016031
2878	0.0023391
2890	0.00207
2902	0.0017664
2914	0.0023782
2926	0.0041469
2938	0.0043424
2950	0.002461
2962	0.0014881
2974	0.0012949
2986	0.0014283
2998	0.0018492
3010	0.0025277
3022	0.0031096
3034	0.0037191
3046	0.0038272
3058	0.0029785
3070	0.0016399
3082	0.0009936
3094	0.0005612
3106	0.0003473
3118	0.0002162
3130	0.0002047
3142	0.000138
3154	4.37e-05
3166	3.45e-05
3178	4.37e-05
3190	2.76e-05
3202	5.98e-05
3214	6.21e-05
3226	0
3238	5.29e-05
3250	1.38e-05
3262	6.44e-05
3274	6.21e-05
3286	0.0001219
3298	0.0001656
3310	9.66e-05
3322	2.99e-05
3334	5.75e-05
3346	5.29e-05
3358	2.3e-06
3370	9.43e-05
3382	8.51e-05
3394	7.36e-05
3406	9.66e-05
3418	0.0001564
3430	0.0002783
3442	0.0003404
3454	0.0003933
3466	0.0004163
3478	0.0004554
3490	0.0004163
3502	0.0003818
3514	0.0003312
3526	0.0002921
3538	0.0002484
3550	0.0003427
3562	0.0005152
3574	0.0013547
3586	0.0053452
3598	0.0137218
3610	0.0137379
3622	0.0056741
3634	0.002714
3646	0.0044436
3658	0.0076268
3670	0.0066838
3682	0.0025208
3694	0.0006118
3706	0.000322
3718	0.0002553
3730	0.0002599
3742	0.000299
3754	0.0002668
3766	0.0002438
3778	0.0002323
3790	0.0002392
3802	0.0002645
3814	0.0002323
3826	0.0001886
3838	0.0002392
