Infrared Spectrum: 2-Fluoro-5-iodotoluene
Formula: C 7 H 6 F I
CAS: 452-68-6
State: gas
Origin: EPA-IR VAPOR PHASE LIBRARY
1/CM	ABSORBANCE
549.8	0.008153
559.445	0.004263
569.09	0.0002471
578.734	0.0010901
588.379	0.001343
598.024	0.009563
607.669	0.022673
617.313	0.008443
626.958	0.002443
636.603	0.002203
646.248	0.001773
655.893	0.00034033
665.537	0.0007532
675.182	0.000185
684.827	0.0009857
694.472	0.0007249
704.116	0.0011979
713.761	0.0012117
723.406	0.0011051
733.051	0.001513
742.695	0.003723
752.34	0.011523
761.985	0.008763
771.63	0.002033
781.275	0.002243
790.919	0.006953
800.564	0.019783
810.209	0.035503
819.854	0.020503
829.498	0.006593
839.143	0.003553
848.788	0.005473
858.433	0.010243
868.078	0.010893
877.722	0.007493
887.367	0.003503
897.012	0.001403
906.657	0.000842
916.301	0.001443
925.946	0.001423
935.591	0.001903
945.236	0.0012049
954.88	0.001483
964.525	0.001883
974.17	0.002503
983.815	0.002073
993.46	0.002973
1003.1	0.001803
1012.75	0.0011586
1022.39	0.001643
1032.04	0.0011677
1041.68	0.001593
1051.33	0.003143
1060.97	0.005883
1070.62	0.007343
1080.26	0.006963
1089.91	0.007063
1099.55	0.006473
1109.2	0.011803
1118.84	0.030223
1128.49	0.025053
1138.13	0.014943
1147.78	0.005773
1157.42	0.004733
1167.07	0.019083
1176.71	0.066253
1186.36	0.033843
1196	0.008853
1205.64	0.009093
1215.29	0.008573
1224.93	0.019563
1234.58	0.075553
1244.22	0.100413
1253.87	0.024293
1263.51	0.008573
1273.16	0.006353
1282.8	0.003723
1292.45	0.002903
1302.09	0.003343
1311.74	0.002563
1321.38	0.002013
1331.03	0.001873
1340.67	0.002773
1350.32	0.002963
1359.96	0.003493
1369.61	0.004533
1379.25	0.007813
1388.9	0.012893
1398.54	0.010403
1408.18	0.009183
1417.83	0.009193
1427.47	0.005883
1437.12	0.005893
1446.76	0.006583
1456.41	0.010593
1466.05	0.031163
1475.7	0.068563
1485.34	0.130843
1494.99	0.079853
1504.63	0.015843
1514.28	0.010153
1523.92	0.006383
1533.57	0.004943
1543.21	0.003973
1552.86	0.003993
1562.5	0.004173
1572.15	0.005883
1581.79	0.006633
1591.44	0.004133
1601.08	0.003773
1610.73	0.003663
1620.37	0.003113
1630.01	0.002443
1639.66	0.001763
1649.3	0.001443
1658.95	0.001613
1668.59	0.001643
1678.24	0.001563
1687.88	0.001523
1697.53	0.001333
1707.17	0.0011169
1716.82	0.001533
1726.46	0.002633
1736.11	0.003763
1745.75	0.003113
1755.4	0.001643
1765.04	0.0011401
1774.69	0.0009858
1784.33	0.0011207
1793.98	0.0012709
1803.62	0.001503
1813.27	0.001413
1822.91	0.0011319
1832.55	0.001363
1842.2	0.001683
1851.84	0.002303
1861.49	0.003033
1871.13	0.002813
1880.78	0.001753
1890.42	0.0011971
1900.07	0.00097
1909.71	0.0009645
1919.36	0.0009879
1929	0.0010823
1938.65	0.0010913
1948.29	0.0007869
1957.94	0.0007629
1967.58	0.0009009
1977.23	0.0011767
1986.87	0.001743
1996.52	0.001893
2006.16	0.0012833
2015.81	0.0010557
2025.45	0.0008887
2035.1	0.0009709
2044.74	0.0010648
2054.38	0.0007828
2064.03	0.0009317
2073.67	0.0010402
2083.32	0.0009604
2092.96	0.0010089
2102.61	0.0010688
2112.25	0.0010078
2121.9	0.0010091
2131.54	0.000723
2141.19	0.0008136
2150.83	0.0010928
2160.48	0.0009301
2170.12	0.0009537
2179.77	0.000762
2189.41	0.0009908
2199.06	0.0007552
2208.7	0.0009284
2218.35	0.001109
2227.99	0.0012848
2237.64	0.001553
2247.28	0.001313
2256.92	0.00094
2266.57	0.0009698
2276.21	0.0009472
2285.86	0.0009778
2295.5	0.0011576
2305.15	0.0010265
2314.79	0.0009898
2324.44	0.0010074
2334.08	0.0011637
2343.73	0.0011961
2353.37	0.001323
2363.02	0.000927
2372.66	0.0009752
2382.31	0.0010162
2391.95	0.0011035
2401.6	0.001393
2411.24	0.001663
2420.89	0.001623
2430.53	0.001543
2440.18	0.001383
2449.82	0.001513
2459.47	0.001323
2469.11	0.001503
2478.75	0.001713
2488.4	0.001453
2498.04	0.00127
2507.69	0.0011729
2517.33	0.0010713
2526.98	0.0012442
2536.62	0.0009253
2546.27	0.0008351
2555.91	0.001129
2565.56	0.001016
2575.2	0.0008608
2584.85	0.0010368
2594.49	0.0007214
2604.14	0.000818
2613.78	0.0009917
2623.43	0.001333
2633.07	0.0006213
2642.72	0.0009887
2652.36	0.0010271
2662.01	0.0010416
2671.65	0.0009006
2681.29	0.000606
2690.94	0.0009061
2700.58	0.0010081
2710.23	0.0008546
2719.87	0.001413
2729.52	0.0011093
2739.16	0.001513
2748.81	0.001313
2758.45	0.001793
2768.1	0.001333
2777.74	0.0009467
2787.39	0.0011627
2797.03	0.001453
2806.68	0.000935
2816.32	0.0011295
2825.97	0.001303
2835.61	0.001563
2845.26	0.001973
2854.9	0.002743
2864.55	0.004243
2874.19	0.005523
2883.84	0.005073
2893.48	0.004423
2903.12	0.004693
2912.77	0.004783
2922.41	0.007003
2932.06	0.010433
2941.7	0.012783
2951.35	0.009713
2960.99	0.006573
2970.64	0.005793
2980.28	0.005323
2989.93	0.005693
2999.57	0.004593
3009.22	0.003393
3018.86	0.002943
3028.51	0.002923
3038.15	0.003783
3047.8	0.004763
3057.44	0.005053
3067.09	0.004443
3076.73	0.003813
3086.38	0.002923
3096.02	0.002993
3105.67	0.002363
3115.31	0.001833
3124.95	0.0009951
3134.6	0.0012712
3144.24	0.0006853
3153.89	0.0009594
3163.53	0.0010901
3173.18	0.0004195
3182.82	0.0007512
3192.47	0.0002555
3202.11	0.0004893
3211.76	0.0009646
3221.4	0.0005267
3231.05	0.0006507
3240.69	0.001353
3250.34	0.0011697
3259.98	0.0004896
3269.63	0.0009464
3279.27	0.0008783
3288.92	0.000942
3298.56	0.0005137
3308.21	0.0006019
3317.85	0.0006258
3327.49	0.0011719
3337.14	0.0009689
3346.78	0.0010121
3356.43	0.0006092
3366.07	0.0006413
3375.72	0.0008268
3385.36	0.0008879
3395.01	0.0007616
3404.65	0.0006984
3414.3	0.000832
3423.94	0.000741
3433.59	0.0008836
3443.23	0.0005336
3452.88	0.0007735
3462.52	0.0010769
3472.17	0.00040056
3481.81	0.0012313
3491.46	0.0002563
3501.1	0.0005183
3510.75	0.00035072
3520.39	0.0007639
3530.04	0
3539.68	0.0011062
3549.32	0.0011081
3558.97	0.001703
3568.61	0.0009107
3578.26	0.0005428
3587.9	0.0007046
3597.55	0.001483
3607.19	0.0010697
3616.84	0.0010328
3626.48	0.0006749
3636.13	0.000507
3645.77	0.0007223
3655.42	0.0011399
3665.06	0.0007503
3674.71	0.0007318
3684.35	0.0010335
3694	0.0006083
3703.64	0.0010815
3713.29	0.0010334
3722.93	0.0002225
3732.58	0.0004151
3742.22	0.0011206
3751.86	0.0005504
3761.51	0.000891
3771.15	0.000711
3780.8	0.0006805
3790.44	0.0008355
3800.09	0.000935
3809.73	0.0009015
3819.38	0.0008637
3829.02	0.0007411
3838.67	0.000632
3848.31	0.0007369
3857.96	0.001463
3867.6	0.0009149
3877.25	0.0009708
3886.89	0.0005926
3896.54	0.0009961
3906.18	0.001423
3915.83	0.0011033
3925.47	0.0008659
3935.12	0.0009874
3944.76	0.001383
3954.41	0.0012059
3964.05	0.0012812
3973.69	0.0006013
3983.34	0.0009791
3992.98	0.0010053
