Infrared Spectrum: 2,4-Difluorotoluene
Formula: C 7 H 6 F 2
CAS: 452-76-6
State: gas
Origin: EPA-IR VAPOR PHASE LIBRARY
1/CM	ABSORBANCE
549.8	0.002448
559.445	0.004128
569.09	0.003288
578.734	0.001808
588.379	0.002678
598.024	0.004568
607.669	0.011198
617.313	0.004548
626.958	0.002028
636.603	0.0008138
646.248	0.00039605
655.893	0.000279
665.537	0.0004343
675.182	0.0008558
684.827	0.0010199
694.472	0.001488
704.116	0.001598
713.761	0.004978
723.406	0.009588
733.051	0.011148
742.695	0.005128
752.34	0.007378
761.985	0.006778
771.63	0.004048
781.275	0.007008
790.919	0.013068
800.564	0.027118
810.209	0.013638
819.854	0.008178
829.498	0.009198
839.143	0.023568
848.788	0.043808
858.433	0.030788
868.078	0.018858
877.722	0.004458
887.367	0.0011232
897.012	0.001358
906.657	0.001548
916.301	0.001948
925.946	0.003708
935.591	0.009898
945.236	0.024508
954.88	0.031618
964.525	0.026768
974.17	0.017108
983.815	0.018498
993.46	0.020288
1003.1	0.015388
1012.75	0.007598
1022.39	0.002528
1032.04	0.001718
1041.68	0.002298
1051.33	0.004058
1060.97	0.004718
1070.62	0.005288
1080.26	0.008258
1089.91	0.035518
1099.55	0.068258
1109.2	0.070048
1118.84	0.028058
1128.49	0.046658
1138.13	0.062838
1147.78	0.047958
1157.42	0.008238
1167.07	0.006458
1176.71	0.011378
1186.36	0.010448
1196	0.007398
1205.64	0.004318
1215.29	0.003178
1224.93	0.002788
1234.58	0.003908
1244.22	0.009318
1253.87	0.025318
1263.51	0.043978
1273.16	0.064408
1282.8	0.061578
1292.45	0.045478
1302.09	0.017348
1311.74	0.006258
1321.38	0.003428
1331.03	0.002248
1340.67	0.001748
1350.32	0.001598
1359.96	0.001808
1369.61	0.002778
1379.25	0.005378
1388.9	0.007568
1398.54	0.009008
1408.18	0.011048
1417.83	0.019208
1427.47	0.022598
1437.12	0.021968
1446.76	0.019408
1456.41	0.021498
1466.05	0.019908
1475.7	0.015768
1485.34	0.025678
1494.99	0.071558
1504.63	0.135918
1514.28	0.132358
1523.92	0.060828
1533.57	0.020088
1543.21	0.012798
1552.86	0.009278
1562.5	0.008088
1572.15	0.012818
1581.79	0.025168
1591.44	0.044528
1601.08	0.060588
1610.73	0.068538
1620.37	0.059718
1630.01	0.048048
1639.66	0.032038
1649.3	0.017118
1658.95	0.007548
1668.59	0.003868
1678.24	0.002658
1687.88	0.003258
1697.53	0.004018
1707.17	0.003768
1716.82	0.002768
1726.46	0.002238
1736.11	0.001828
1745.75	0.0012473
1755.4	0.0009845
1765.04	0.0009683
1774.69	0.0009664
1784.33	0.0009706
1793.98	0.0008344
1803.62	0.0006994
1813.27	0.000968
1822.91	0.001598
1832.55	0.002088
1842.2	0.002238
1851.84	0.002978
1861.49	0.003428
1871.13	0.002958
1880.78	0.001458
1890.42	0.0008302
1900.07	0.0006693
1909.71	0.0005197
1919.36	0.0004692
1929	0.0004503
1938.65	0.0004867
1948.29	0.0004461
1957.94	0.0005815
1967.58	0.0006481
1977.23	0.0007532
1986.87	0.0008847
1996.52	0.0010527
2006.16	0.0011661
2015.81	0.000972
2025.45	0.0007652
2035.1	0.0006954
2044.74	0.000792
2054.38	0.0008626
2064.03	0.0008699
2073.67	0.0006436
2083.32	0.0006255
2092.96	0.000666
2102.61	0.0006147
2112.25	0.0005738
2121.9	0.0004957
2131.54	0.0006237
2141.19	0.0007172
2150.83	0.0006401
2160.48	0.0006617
2170.12	0.0004603
2179.77	0.00036352
2189.41	0.0005566
2199.06	0.0005862
2208.7	0.0006119
2218.35	0.0007981
2227.99	0.0010736
2237.64	0.0011485
2247.28	0.000992
2256.92	0.0008628
2266.57	0.0008141
2276.21	0.0008371
2285.86	0.0006601
2295.5	0.0006744
2305.15	0.0005688
2314.79	0.0008038
2324.44	0.0009209
2334.08	0.0011922
2343.73	0.0011566
2353.37	0.0012242
2363.02	0.001378
2372.66	0.001618
2382.31	0.001758
2391.95	0.001598
2401.6	0.001408
2411.24	0.001708
2420.89	0.001478
2430.53	0.0010826
2440.18	0.0007915
2449.82	0.0007232
2459.47	0.0007446
2469.11	0.0007018
2478.75	0.0006511
2488.4	0.0005483
2498.04	0.0006075
2507.69	0.0007008
2517.33	0.0010246
2526.98	0.0011934
2536.62	0.001348
2546.27	0.0013073
2555.91	0.0013041
2565.56	0.0012089
2575.2	0.0010144
2584.85	0.0006476
2594.49	0.0004758
2604.14	0.0005352
2613.78	0.000551
2623.43	0.0004399
2633.07	0.0005361
2642.72	0.0005054
2652.36	0.0005989
2662.01	0.0004792
2671.65	0.0005414
2681.29	0.0006265
2690.94	0.0007171
2700.58	0.0007182
2710.23	0.0007432
2719.87	0.0007236
2729.52	0.0008127
2739.16	0.0010089
2748.81	0.0010943
2758.45	0.0012043
2768.1	0.0009714
2777.74	0.0007079
2787.39	0.0008096
2797.03	0.0009224
2806.68	0.0008738
2816.32	0.0009788
2825.97	0.0010359
2835.61	0.0012853
2845.26	0.001698
2854.9	0.002528
2864.55	0.004528
2874.19	0.006898
2883.84	0.007718
2893.48	0.006698
2903.12	0.006138
2912.77	0.007058
2922.41	0.008488
2932.06	0.013368
2941.7	0.016958
2951.35	0.015238
2960.99	0.009068
2970.64	0.008338
2980.28	0.007928
2989.93	0.007028
2999.57	0.005808
3009.22	0.004478
3018.86	0.004238
3028.51	0.005268
3038.15	0.007888
3047.8	0.009378
3057.44	0.008428
3067.09	0.005748
3076.73	0.004988
3086.38	0.004378
3096.02	0.003458
3105.67	0.001818
3115.31	0.0011927
3124.95	0.0009876
3134.6	0.0006742
3144.24	0.0005951
3153.89	0.0005529
3163.53	0.000339336
3173.18	0.0004623
3182.82	0.000173
3192.47	0.000477
3202.11	0.0003712
3211.76	0.0003
3221.4	0.0003471
3231.05	0.00041489
3240.69	0.0002966
3250.34	0.000214
3259.98	0.00035613
3269.63	0.0003074
3279.27	0.000215
3288.92	0.0002542
3298.56	0.000191
3308.21	0.00037489
3317.85	0.000201
3327.49	0.0004716
3337.14	0.000224
3346.78	0.0002821
3356.43	0.0003154
3366.07	0.000123
3375.72	0.0002819
3385.36	0.0002712
3395.01	0.0002397
3404.65	0
3414.3	0.000207
3423.94	0.00040147
3433.59	0.000182
3443.23	0.0002849
3452.88	0.0002586
3462.52	0.0002936
3472.17	0.000156
3481.81	0.000236
3491.46	0.000342117
3501.1	0.0002958
3510.75	0.00035061
3520.39	0.0002796
3530.04	0.00036253
3539.68	0.00038153
3549.32	0.000123
3558.97	0.000219
3568.61	0.000212
3578.26	0.000232
3587.9	0.000234
3597.55	0.0002553
3607.19	0.0002609
3616.84	0.0003037
3626.48	6.9e-05
3636.13	0.0002415
3645.77	0.0003766
3655.42	0.000221
3665.06	0.0002554
3674.71	0.000122
3684.35	0.000143
3694	0.00024
3703.64	0.00017
3713.29	0.00041479
3722.93	0.0002546
3732.58	0.000237
3742.22	0.000177
3751.86	0.000123
3761.51	0.00040726
3771.15	0.0004563
3780.8	0.000216
3790.44	0.00039433
3800.09	0.0002429
3809.73	0.0002643
3819.38	0.0004817
3829.02	0.0002959
3838.67	0.00042823
3848.31	0.000229
3857.96	0.000236
3867.6	0.0002517
3877.25	0.0002964
3886.89	0.0002688
3896.54	0.00036018
3906.18	0.000171
3915.83	0.0002471
3925.47	0.000103
3935.12	0.000154
3944.76	0.00036558
3954.41	0.000342676
3964.05	0.0002966
3973.69	0.00043442
3983.34	0.0002625
3992.98	0.0004789
