Infrared Spectrum: 2-Bromo-5-fluorotoluene
Formula: C 7 H 6 Br F
CAS: 452-63-1
State: gas
Origin: EPA-IR VAPOR PHASE LIBRARY
1/CM	ABSORBANCE
549.8	0.014087
559.445	0.006417
569.09	0.002187
578.734	0.0009875
588.379	0.0007418
598.024	0.00056332
607.669	0.0007693
617.313	0.0006941
626.958	0.00054086
636.603	0.0005799
646.248	0.0011517
655.893	0.002197
665.537	0.014237
675.182	0.015957
684.827	0.003177
694.472	0.002527
704.116	0.002047
713.761	0.0013492
723.406	0.002197
733.051	0.008517
742.695	0.035597
752.34	0.044897
761.985	0.017387
771.63	0.006727
781.275	0.006757
790.919	0.013187
800.564	0.041017
810.209	0.089637
819.854	0.041407
829.498	0.012627
839.143	0.004997
848.788	0.007107
858.433	0.017827
868.078	0.027117
877.722	0.020307
887.367	0.011487
897.012	0.004257
906.657	0.001857
916.301	0.001907
925.946	0.002517
935.591	0.003727
945.236	0.002597
954.88	0.002067
964.525	0.002317
974.17	0.002717
983.815	0.004387
993.46	0.005377
1003.1	0.004057
1012.75	0.003047
1022.39	0.003367
1032.04	0.007657
1041.68	0.027517
1051.33	0.037287
1060.97	0.018887
1070.62	0.004977
1080.26	0.002877
1089.91	0.002927
1099.55	0.003227
1109.2	0.004007
1118.84	0.007747
1128.49	0.012167
1138.13	0.009807
1147.78	0.003807
1157.42	0.002027
1167.07	0.001727
1176.71	0.002087
1186.36	0.004757
1196	0.008647
1205.64	0.010577
1215.29	0.010687
1224.93	0.014167
1234.58	0.033717
1244.22	0.088627
1253.87	0.104547
1263.51	0.086807
1273.16	0.065807
1282.8	0.014307
1292.45	0.003627
1302.09	0.002567
1311.74	0.002247
1321.38	0.002417
1331.03	0.002767
1340.67	0.002867
1350.32	0.003537
1359.96	0.004117
1369.61	0.004507
1379.25	0.007327
1388.9	0.012037
1398.54	0.014357
1408.18	0.014277
1417.83	0.013367
1427.47	0.010707
1437.12	0.008107
1446.76	0.007537
1456.41	0.009347
1466.05	0.015437
1475.7	0.040967
1485.34	0.114847
1494.99	0.238987
1504.63	0.205507
1514.28	0.055777
1523.92	0.017867
1533.57	0.009717
1543.21	0.007537
1552.86	0.006327
1562.5	0.006077
1572.15	0.007737
1581.79	0.010947
1591.44	0.012877
1601.08	0.013247
1610.73	0.010927
1620.37	0.005357
1630.01	0.003077
1639.66	0.001877
1649.3	0.001497
1658.95	0.0013386
1668.59	0.0011726
1678.24	0.0012513
1687.88	0.0011341
1697.53	0.0012041
1707.17	0.001707
1716.82	0.003107
1726.46	0.004797
1736.11	0.005587
1745.75	0.004477
1755.4	0.002337
1765.04	0.0011586
1774.69	0.0008682
1784.33	0.0011302
1793.98	0.001847
1803.62	0.002487
1813.27	0.001987
1822.91	0.0010448
1832.55	0.0007766
1842.2	0.0009326
1851.84	0.001467
1861.49	0.002757
1871.13	0.004887
1880.78	0.004027
1890.42	0.001497
1900.07	0.0009073
1909.71	0.0007621
1919.36	0.0008093
1929	0.0007151
1938.65	0.0006661
1948.29	0.0006679
1957.94	0.0006241
1967.58	0.0006916
1977.23	0.0008505
1986.87	0.001329
1996.52	0.001807
2006.16	0.001707
2015.81	0.001467
2025.45	0.0010618
2035.1	0.0005694
2044.74	0.000476102
2054.38	0.0004843
2064.03	0.0004084
2073.67	0.00052155
2083.32	0.0004472
2092.96	0.00050208
2102.61	0.0005818
2112.25	0.000678
2121.9	0.0007733
2131.54	0.0009076
2141.19	0.0009082
2150.83	0.0007333
2160.48	0.0006042
2170.12	0.0005981
2179.77	0.00045855
2189.41	0.0003941
2199.06	0.0004506
2208.7	0.00033
2218.35	0.000358
2227.99	0.000471372
2237.64	0.0007547
2247.28	0.0009682
2256.92	0.001
2266.57	0.0007467
2276.21	0.0006515
2285.86	0.0005734
2295.5	0.00056225
2305.15	0.0007498
2314.79	0.0009038
2324.44	0.0008368
2334.08	0.0008927
2343.73	0.0010183
2353.37	0.0011811
2363.02	0.001307
2372.66	0.0011898
2382.31	0.0009933
2391.95	0.0007546
2401.6	0.00052612
2411.24	0.00054403
2420.89	0.00053703
2430.53	0.0006158
2440.18	0.0006587
2449.82	0.0007816
2459.47	0.0007618
2469.11	0.0009067
2478.75	0.0011469
2488.4	0.0013066
2498.04	0.0013539
2507.69	0.001647
2517.33	0.001797
2526.98	0.001577
2536.62	0.0013615
2546.27	0.0011564
2555.91	0.0009287
2565.56	0.00048215
2575.2	0.00049068
2584.85	0.000691
2594.49	0.000594
2604.14	0.000707
2613.78	0.0006759
2623.43	0.0008155
2633.07	0.0006714
2642.72	0.0005727
2652.36	0.00053621
2662.01	0.00046219
2671.65	0.0004149
2681.29	0.000285
2690.94	0.000298
2700.58	0.00033
2710.23	0.000358
2719.87	0.0006835
2729.52	0.0009631
2739.16	0.001487
2748.81	0.001957
2758.45	0.001667
2768.1	0.0012088
2777.74	0.0010726
2787.39	0.0009239
2797.03	0.000976
2806.68	0.0010634
2816.32	0.0014543
2825.97	0.001767
2835.61	0.002447
2845.26	0.003707
2854.9	0.005897
2864.55	0.009307
2874.19	0.012657
2883.84	0.013407
2893.48	0.012987
2903.12	0.012467
2912.77	0.013237
2922.41	0.019317
2932.06	0.030317
2941.7	0.029767
2951.35	0.017507
2960.99	0.010847
2970.64	0.008677
2980.28	0.007507
2989.93	0.008897
2999.57	0.010057
3009.22	0.011587
3018.86	0.012647
3028.51	0.012747
3038.15	0.017607
3047.8	0.020117
3057.44	0.014387
3067.09	0.010237
3076.73	0.008147
3086.38	0.006427
3096.02	0.004757
3105.67	0.003057
3115.31	0.002107
3124.95	0.0014385
3134.6	0.0008979
3144.24	0.0004561
3153.89	0.0005798
3163.53	0.0006957
3173.18	0.0006845
3182.82	0.00055066
3192.47	0.000777
3202.11	0.000466191
3211.76	0.0006286
3221.4	0.0004457
3231.05	0.0004356
3240.69	0.000339
3250.34	0.000148
3259.98	0.000107
3269.63	0.000372
3279.27	0.0005673
3288.92	0.0004341
3298.56	0.000254
3308.21	0.000318
3317.85	0.000315
3327.49	0.0004517
3337.14	0.00046342
3346.78	0.000218
3356.43	0.000335
3366.07	0.000318
3375.72	0.00033
3385.36	0.0004044
3395.01	0.000269
3404.65	0.0003731
3414.3	0.000412
3423.94	0.00047841
3433.59	0.000309
3443.23	0.000267
3452.88	0.000235
3462.52	0.000323
3472.17	0.0004
3481.81	0.000274
3491.46	0.000275
3501.1	0.00035
3510.75	0.000471599
3520.39	0.000263
3530.04	0.000244
3539.68	0.000246
3549.32	0.000466995
3558.97	6.1e-05
3568.61	0.000335
3578.26	0.000273
3587.9	0.000267
3597.55	0.000268
3607.19	0.000316
3616.84	0.000345
3626.48	0.000291
3636.13	0.000346
3645.77	0.000225
3655.42	0.000342
3665.06	0.000235
3674.71	0.000319
3684.35	0.0004303
3694	0.00032
3703.64	0.0005563
3713.29	0.0007613
3722.93	0.00053934
3732.58	0.000366
3742.22	0.0004234
3751.86	0.0004356
3761.51	0.00051555
3771.15	0.00054941
3780.8	0.00052405
3790.44	0.000365
3800.09	0.000472295
3809.73	0.00056237
3819.38	0.0005505
3829.02	0.0004409
3838.67	8e-05
3848.31	0.000292
3857.96	0.00050584
3867.6	0.000316
3877.25	0.0006414
3886.89	0.0004937
3896.54	0.000326
3906.18	0.00052411
3915.83	0.0006295
3925.47	0.0006335
3935.12	0.0005685
3944.76	0.0004201
3954.41	0.00068
3964.05	0.0004276
3973.69	0.0006386
3983.34	0.0004051
3992.98	0.0004001
