Infrared Spectrum: 3-Fluoro-4-methoxyphenylacetic acid
Formula: C 9 H 9 F O 3
CAS: 452-14-2
State: gas
Origin: EPA-IR VAPOR PHASE LIBRARY
1/CM	ABSORBANCE
549.8	0.00899
559.445	0.01425
569.09	0.017
578.734	0.01516
588.379	0.01231
598.024	0.0104
607.669	0.01133
617.313	0.0136
626.958	0.01494
636.603	0.01337
646.248	0.01074
655.893	0.00828
665.537	0.0063
675.182	0.00578
684.827	0.00656
694.472	0.00518
704.116	0.00344
713.761	0.00253
723.406	0.00228
733.051	0.0027
742.695	0.00452
752.34	0.00701
761.985	0.00651
771.63	0.00543
781.275	0.00591
790.919	0.00625
800.564	0.00617
810.209	0.00652
819.854	0.00603
829.498	0.00408
839.143	0.00309
848.788	0.00335
858.433	0.00416
868.078	0.00373
877.722	0.00337
887.367	0.00326
897.012	0.00279
906.657	0.00268
916.301	0.00298
925.946	0.00337
935.591	0.00361
945.236	0.00387
954.88	0.00602
964.525	0.00709
974.17	0.00451
983.815	0.00361
993.46	0.00441
1003.1	0.00661
1012.75	0.01161
1022.39	0.01525
1032.04	0.01272
1041.68	0.00963
1051.33	0.00678
1060.97	0.00549
1070.62	0.00734
1080.26	0.01159
1089.91	0.01974
1099.55	0.03615
1109.2	0.05829
1118.84	0.05696
1128.49	0.04487
1138.13	0.03331
1147.78	0.02076
1157.42	0.01295
1167.07	0.00992
1176.71	0.0101
1186.36	0.01098
1196	0.01263
1205.64	0.01548
1215.29	0.01929
1224.93	0.02478
1234.58	0.02113
1244.22	0.01475
1253.87	0.01568
1263.51	0.02549
1273.16	0.04927
1282.8	0.06005
1292.45	0.04359
1302.09	0.02803
1311.74	0.01968
1321.38	0.01371
1331.03	0.01075
1340.67	0.01046
1350.32	0.01045
1359.96	0.00976
1369.61	0.00828
1379.25	0.006
1388.9	0.00448
1398.54	0.00416
1408.18	0.00485
1417.83	0.00753
1427.47	0.01225
1437.12	0.0152
1446.76	0.01491
1456.41	0.01078
1466.05	0.00917
1475.7	0.00737
1485.34	0.00729
1494.99	0.0132
1504.63	0.03403
1514.28	0.06502
1523.92	0.05105
1533.57	0.01975
1543.21	0.00866
1552.86	0.00581
1562.5	0.00547
1572.15	0.00699
1581.79	0.00913
1591.44	0.00817
1601.08	0.00505
1610.73	0.00409
1620.37	0.00463
1630.01	0.00355
1639.66	0.00219
1649.3	0.00151
1658.95	0.00148
1668.59	0.00156
1678.24	0.00164
1687.88	0.00189
1697.53	0.0024
1707.17	0.00296
1716.82	0.00415
1726.46	0.00596
1736.11	0.00952
1745.75	0.01587
1755.4	0.02525
1765.04	0.03682
1774.69	0.05056
1784.33	0.0522
1793.98	0.04022
1803.62	0.02565
1813.27	0.01319
1822.91	0.0066
1832.55	0.00372
1842.2	0.00247
1851.84	0.00189
1861.49	0.00166
1871.13	0.00141
1880.78	0.00138
1890.42	0.0011873
1900.07	0.0010654
1909.71	0.0009466
1919.36	0.0008731
1929	0.0008068
1938.65	0.000735
1948.29	0.0007978
1957.94	0.000736
1967.58	0.0008501
1977.23	0.0008525
1986.87	0.0009616
1996.52	0.0008879
2006.16	0.0010827
2015.81	0.0012604
2025.45	0.00159
2035.1	0.00166
2044.74	0.00141
2054.38	0.0011944
2064.03	0.0011416
2073.67	0.0010254
2083.32	0.0007499
2092.96	0.000604
2102.61	0.0005621
2112.25	0.0004702
2121.9	0.0005184
2131.54	0.00056
2141.19	0.0004512
2150.83	0.0005199
2160.48	0.00038499
2170.12	0.0005594
2179.77	0.000551
2189.41	0.0005482
2199.06	0.0005902
2208.7	0.0005866
2218.35	0.0005324
2227.99	0.000653
2237.64	0.0007396
2247.28	0.0007663
2256.92	0.0008549
2266.57	0.0009005
2276.21	0.0007874
2285.86	0.0007463
2295.5	0.0007594
2305.15	0.0006587
2314.79	0.0006858
2324.44	0.0007884
2334.08	0.0006903
2343.73	0.0007308
2353.37	0.0007374
2363.02	0.0008075
2372.66	0.0007475
2382.31	0.0006636
2391.95	0.0006458
2401.6	0.0006544
2411.24	0.0005988
2420.89	0.0005074
2430.53	0.0005443
2440.18	0.0006186
2449.82	0.0004477
2459.47	0.000503
2469.11	0.0004346
2478.75	0.0004525
2488.4	0.000598
2498.04	0.0006735
2507.69	0.0006417
2517.33	0.0005429
2526.98	0.0005198
2536.62	0.0007093
2546.27	0.0008383
2555.91	0.0008875
2565.56	0.00085
2575.2	0.0008971
2584.85	0.0007393
2594.49	0.0006832
2604.14	0.0005672
2613.78	0.0005446
2623.43	0.0004575
2633.07	0.00036931
2642.72	0.0004999
2652.36	0.0004801
2662.01	0.00031404
2671.65	0.0004374
2681.29	0.0002656
2690.94	0.00037263
2700.58	0.0004065
2710.23	0.0004235
2719.87	0.00037742
2729.52	0.0004066
2739.16	0.0004749
2748.81	0.0004238
2758.45	0.00034071
2768.1	0.0004353
2777.74	0.000489
2787.39	0.0007296
2797.03	0.0008061
2806.68	0.0010908
2816.32	0.00151
2825.97	0.00207
2835.61	0.00339
2845.26	0.00615
2854.9	0.00516
2864.55	0.00309
2874.19	0.00264
2883.84	0.00254
2893.48	0.00302
2903.12	0.00405
2912.77	0.00529
2922.41	0.00618
2932.06	0.00759
2941.7	0.01034
2951.35	0.0103
2960.99	0.00885
2970.64	0.00713
2980.28	0.00608
2989.93	0.00538
2999.57	0.00581
3009.22	0.00747
3018.86	0.00613
3028.51	0.00384
3038.15	0.00346
3047.8	0.00366
3057.44	0.00322
3067.09	0.00281
3076.73	0.00234
3086.38	0.00193
3096.02	0.00151
3105.67	0.0012328
3115.31	0.000964
3124.95	0.0007262
3134.6	0.0006607
3144.24	0.0005985
3153.89	0.0005875
3163.53	0.0004033
3173.18	0.0002927
3182.82	0.00036278
3192.47	0.0002612
3202.11	0.00039099
3211.76	0.00034446
3221.4	0.0002448
3231.05	0.000143
3240.69	0.0003119
3250.34	7.7e-05
3259.98	0.0002497
3269.63	0.000174
3279.27	0.0002097
3288.92	0.000192
3298.56	0.00031805
3308.21	0.000101
3317.85	0.00031739
3327.49	0.000144
3337.14	0.000159
3346.78	0.000177
3356.43	0.0002806
3366.07	0.000125
3375.72	0.000107
3385.36	0.00031151
3395.01	0.000131
3404.65	0.0002086
3414.3	0.0002668
3423.94	0.0002186
3433.59	0.00029271
3443.23	0.0002844
3452.88	0.0001
3462.52	0.0002184
3472.17	0.0002616
3481.81	0.0002864
3491.46	0.0004311
3501.1	0.0006212
3510.75	0.0007361
3520.39	0.0009292
3530.04	0.0011091
3539.68	0.00191
3549.32	0.00319
3558.97	0.0067
3568.61	0.02126
3578.26	0.02387
3587.9	0.00721
3597.55	0.00296
3607.19	0.00151
3616.84	0.0007312
3626.48	0.0005419
3636.13	0.0004952
3645.77	0.00053
3655.42	0.00037402
3665.06	0.0004342
3674.71	0.00032584
3684.35	0.00036803
3694	0.00034513
3703.64	0.00039335
3713.29	0.0002786
3722.93	0.000183
3732.58	0.00037499
3742.22	0.00032056
3751.86	0.0002298
3761.51	0.0004347
3771.15	0.0002236
3780.8	0.00036445
3790.44	0.00035044
3800.09	0.0002487
3809.73	0.0002266
3819.38	0.0002418
3829.02	0.0002991
3838.67	0.0004106
3848.31	0.0004832
3857.96	0.00032715
3867.6	0.00033088
3877.25	0.00039727
3886.89	0.00034059
3896.54	0.000196
3906.18	0.0002284
3915.83	0.0004067
3925.47	0.00037612
3935.12	0.00030733
3944.76	0.000441
3954.41	0.0004043
3964.05	0.0002019
3973.69	0.0002896
3983.34	0.0003968
3992.98	0.000537
