Infrared Spectrum: ASPARTIC ACID, N-(TRIFLUOROACETYL)-, 1-ETHYL ESTER
Formula: C8 H10 F3 N O5
CAS: 45203-86-9
State: SOLID (0.9 mg / 650 mg, KBr DISC)
Class: COBLENTZ III
Instrument: PERKIN-ELMER 21 (GRATING)
Instrument parameters: FILTER CHANGE AT ABOUT 1090 CM^-^1
Sampling: TRANSMISSION
Resolution: 2
Origin: SOUTHERN RESEARCH INSTITUTE
1/CM	TRANSMITTANCE
609.279	0.872
617.571	0.861
625.863	0.831
634.156	0.787
642.448	0.776
650.74	0.774
659.032	0.763
667.325	0.752
675.617	0.73
683.909	0.722
692.201	0.717
700.493	0.723
708.786	0.74
717.078	0.754
725.37	0.744
733.662	0.615
741.954	0.783
750.247	0.814
758.539	0.799
766.831	0.796
775.123	0.794
783.416	0.796
791.708	0.795
800	0.796
808.292	0.796
816.584	0.799
824.877	0.812
833.169	0.817
841.461	0.781
849.753	0.761
858.046	0.671
866.338	0.696
874.63	0.702
882.922	0.688
891.214	0.694
899.507	0.648
907.799	0.638
916.091	0.638
924.383	0.648
932.676	0.659
940.968	0.672
949.26	0.696
957.552	0.704
965.844	0.706
974.137	0.714
982.429	0.75
990.721	0.749
999.013	0.724
1007.31	0.68
1015.6	0.634
1023.89	0.544
1032.18	0.567
1040.47	0.7
1048.77	0.716
1057.06	0.716
1065.35	0.688
1073.64	0.631
1081.94	0.628
1090.23	0.642
1098.52	0.645
1106.81	0.635
1115.1	0.619
1123.4	0.613
1131.69	0.585
1139.98	0.526
1148.27	0.433
1156.57	0.283
1164.86	0.2131
1173.15	0.161
1181.44	0.097
1189.73	0.105
1198.03	0.1469
1206.32	0.208
1214.61	0.213
1222.9	0.251
1231.2	0.302
1239.49	0.292
1247.78	0.292
1256.07	0.305
1264.36	0.332
1272.66	0.332
1280.95	0.325
1289.24	0.33
1297.53	0.338
1305.83	0.363
1314.12	0.433
1322.41	0.461
1330.7	0.488
1338.99	0.504
1347.29	0.565
1355.58	0.563
1363.87	0.54
1372.16	0.491
1380.46	0.488
1388.75	0.543
1397.04	0.53
1405.33	0.52
1413.62	0.514
1421.92	0.538
1430.21	0.55
1438.5	0.559
1446.79	0.566
1455.09	0.59
1463.38	0.616
1471.67	0.625
1479.96	0.638
1488.25	0.687
1496.55	0.708
1504.84	0.713
1513.13	0.71
1521.42	0.697
1529.72	0.665
1538.01	0.599
1546.3	0.478
1554.59	0.386
1562.88	0.393
1571.18	0.524
1579.47	0.6219
1587.76	0.664
1596.05	0.694
1604.35	0.697
1612.64	0.694
1620.93	0.69
1629.22	0.684
1637.51	0.68
1645.81	0.651
1654.1	0.632
1662.39	0.596
1670.68	0.536
1678.98	0.415
1687.27	0.232
1695.56	0.122
1703.85	0.074
1712.14	0.131
1720.44	0.155
1728.73	0.154
1737.02	0.149
1745.31	0.24
1753.61	0.342
1761.9	0.446
1770.19	0.512
1778.48	0.551
1786.77	0.578
1795.07	0.59
1803.36	0.609
1811.65	0.619
1819.94	0.632
1828.24	0.641
1836.53	0.648
1844.82	0.656
1853.11	0.659
1861.4	0.661
1869.7	0.667
1877.99	0.671
1886.28	0.675
1894.57	0.676
1902.87	0.678
1911.16	0.688
1919.45	0.689
1927.74	0.69
1936.03	0.69
1944.33	0.693
1952.62	0.695
1960.91	0.698
1969.2	0.701
1977.5	0.706
1985.79	0.708
1994.08	0.709
2002.37	0.71
2010.66	0.713
2018.96	0.714
2027.25	0.713
2035.54	0.713
2043.83	0.713
2052.13	0.714
2060.42	0.714
2068.71	0.715
2077	0.717
2085.29	0.72
2093.59	0.72
2101.88	0.721
2110.17	0.722
2118.46	0.723
2126.76	0.724
2135.05	0.726
2143.34	0.727
2151.63	0.728
2159.92	0.7289
2168.22	0.7328
2176.51	0.7341
2184.8	0.7341
2193.09	0.735
2201.38	0.736
2209.68	0.736
2217.97	0.737
2226.26	0.737
2234.55	0.737
2242.85	0.737
2251.14	0.7361
2259.43	0.7352
2267.72	0.7332
2276.01	0.735
2284.31	0.7387
2292.6	0.74
2300.89	0.7345
2309.18	0.7282
2317.48	0.727
2325.77	0.729
2334.06	0.727
2342.35	0.726
2350.64	0.728
2358.94	0.728
2367.23	0.727
2375.52	0.723
2383.81	0.7202
2392.11	0.7162
2400.4	0.7142
2408.69	0.7115
2416.98	0.711
2425.27	0.71
2433.57	0.71
2441.86	0.71
2450.15	0.7097
2458.44	0.7063
2466.74	0.7023
2475.03	0.697
2483.32	0.6903
2491.61	0.6873
2499.9	0.683
2508.2	0.68
2516.49	0.676
2524.78	0.6726
2533.07	0.671
2541.37	0.671
2549.66	0.669
2557.95	0.6657
2566.24	0.661
2574.53	0.658
2582.83	0.658
2591.12	0.658
2599.41	0.657
2607.7	0.656
2616	0.656
2624.29	0.654
2632.58	0.654
2640.87	0.652
2649.16	0.652
2657.46	0.652
2665.75	0.652
2674.04	0.652
2682.33	0.652
2690.63	0.654
2698.92	0.65
2707.21	0.648
2715.5	0.648
2723.79	0.646
2732.09	0.646
2740.38	0.6419
2748.67	0.635
2756.96	0.632
2765.26	0.63
2773.55	0.628
2781.84	0.6225
2790.13	0.619
2798.42	0.615
2806.72	0.6085
2815.01	0.603
2823.3	0.592
2831.59	0.574
2839.89	0.5665
2848.18	0.558
2856.47	0.5475
2864.76	0.5455
2873.05	0.539
2881.35	0.535
2889.64	0.529
2897.93	0.5205
2906.22	0.5091
2914.52	0.5005
2922.81	0.497
2931.1	0.494
2939.39	0.4916
2947.68	0.4856
2955.98	0.4716
2964.27	0.469
2972.56	0.475
2980.85	0.4828
2989.15	0.486
2997.44	0.4864
3005.73	0.487
3014.02	0.485
3022.31	0.485
3030.61	0.484
3038.9	0.4796
3047.19	0.476
3055.48	0.4756
3063.78	0.472
3072.07	0.4666
3080.36	0.466
3088.65	0.467
3096.94	0.472
3105.24	0.4803
3113.53	0.489
3121.82	0.4957
3130.11	0.501
3138.41	0.5
3146.7	0.5
3154.99	0.5003
3163.28	0.504
3171.57	0.504
3179.87	0.5034
3188.16	0.5
3196.45	0.4904
3204.74	0.4817
3213.04	0.4709
3221.33	0.456
3229.62	0.4274
3237.91	0.3955
3246.2	0.3667
3254.5	0.3422
3262.79	0.3227
3271.08	0.3225
3279.37	0.3292
3287.67	0.3447
3295.96	0.3612
3304.25	0.3752
3312.54	0.3869
3320.83	0.4064
3329.13	0.4162
3337.42	0.4226
3345.71	0.4332
3354	0.4392
3362.3	0.446
3370.59	0.447
3378.88	0.448
3387.17	0.449
3395.46	0.4542
3403.76	0.458
3412.05	0.4622
3420.34	0.4672
3428.63	0.4802
3436.93	0.4862
3445.22	0.4933
3453.51	0.505
3461.8	0.5111
3470.09	0.5174
3478.39	0.5261
3486.68	0.536
3494.97	0.5441
3503.26	0.5571
3511.56	0.5612
3519.85	0.57
3528.14	0.573
3536.43	0.574
3544.72	0.5793
3553.02	0.5872
3561.31	0.597
3569.6	0.6052
3577.89	0.616
3586.19	0.6251
3594.48	0.6301
3602.77	0.6351
3611.06	0.641
3619.35	0.642
3627.65	0.642
3635.94	0.643
3644.23	0.644
3652.52	0.645
3660.82	0.646
3669.11	0.649
3677.4	0.652
3685.69	0.655
3693.98	0.656
3702.28	0.657
3710.57	0.658
3718.86	0.658
3727.15	0.657
3735.45	0.658
3743.74	0.6581
3752.03	0.659
3760.32	0.659
3768.61	0.659
3776.91	0.659
3785.2	0.6581
3793.49	0.658
3801.78	0.658
3810.08	0.658
