Infrared Spectrum: 7-Hexadecanone
Formula: C 16 H 32 O
CAS: 45206-91-5
State: gas
Origin: EPA-IR VAPOR PHASE LIBRARY
1/CM	ABSORBANCE
549.9	0.0012208
559.547	0.0008352
569.193	0.000459
578.84	0.00068
588.486	0.00065
598.133	0.000651
607.779	0.0009844
617.426	0.00090582
627.072	0.00096445
636.719	0.0010886
646.365	0.000673
656.012	0.000688
665.658	0.000662
675.305	0.00071
684.951	0.0010027
694.598	0.0016009
704.245	0.002804
713.891	0.004504
723.538	0.005214
733.184	0.004994
742.831	0.004084
752.477	0.003364
762.124	0.002944
771.77	0.002564
781.417	0.002124
791.063	0.0018165
800.71	0.0016027
810.356	0.0016108
820.003	0.0016147
829.649	0.0016863
839.296	0.0018184
848.943	0.001934
858.589	0.002024
868.236	0.002154
877.882	0.002324
887.529	0.002554
897.175	0.002504
906.822	0.002254
916.468	0.002164
926.115	0.002144
935.761	0.002274
945.408	0.002764
955.054	0.003274
964.701	0.003764
974.347	0.004084
983.994	0.004604
993.64	0.005154
1003.29	0.005334
1012.93	0.005574
1022.58	0.006464
1032.23	0.007384
1041.87	0.008194
1051.52	0.009474
1061.17	0.011074
1070.81	0.012124
1080.46	0.011164
1090.11	0.009044
1099.75	0.007664
1109.4	0.008244
1119.05	0.010524
1128.69	0.012934
1138.34	0.012704
1147.99	0.010744
1157.63	0.008674
1167.28	0.008104
1176.92	0.008574
1186.57	0.009424
1196.22	0.010204
1205.86	0.010724
1215.51	0.009934
1225.16	0.008804
1234.8	0.008304
1244.45	0.007874
1254.1	0.008064
1263.74	0.008904
1273.39	0.010084
1283.04	0.010734
1292.68	0.010974
1302.33	0.011684
1311.98	0.011914
1321.62	0.012274
1331.27	0.014134
1340.92	0.018104
1350.56	0.022354
1360.21	0.023534
1369.86	0.018734
1379.5	0.013954
1389.15	0.010924
1398.79	0.009034
1408.44	0.010504
1418.09	0.012694
1427.73	0.012944
1437.38	0.014924
1447.03	0.020104
1456.67	0.026824
1466.32	0.025434
1475.97	0.015584
1485.61	0.008224
1495.26	0.005054
1504.91	0.003544
1514.55	0.002784
1524.2	0.002224
1533.85	0.001855
1543.49	0.0016966
1553.14	0.0014553
1562.79	0.0013872
1572.43	0.001307
1582.08	0.0012613
1591.73	0.0011834
1601.37	0.0012659
1611.02	0.001302
1620.67	0.0013784
1630.31	0.0015262
1639.96	0.0017722
1649.6	0.002004
1659.25	0.002694
1668.9	0.003544
1678.54	0.005384
1688.19	0.008114
1697.84	0.013584
1707.48	0.028074
1717.13	0.058254
1726.78	0.071384
1736.42	0.035664
1746.07	0.014134
1755.72	0.007224
1765.36	0.004404
1775.01	0.002934
1784.66	0.002094
1794.3	0.0015414
1803.95	0.0012789
1813.6	0.0010701
1823.24	0.00096733
1832.89	0.000765
1842.54	0.000734
1852.18	0.000654
1861.83	0.000578
1871.47	0.000472
1881.12	0.000466
1890.77	0.000489
1900.41	0.000412
1910.06	0.000379
1919.71	0.000386
1929.35	0.000317
1939	0.00033
1948.65	0.000306
1958.29	0.000387
1967.94	0.000374
1977.59	0.000311
1987.23	0.000319
1996.88	0.000363
2006.53	0.000429
2016.17	0.000474
2025.82	0.000592
2035.47	0.000618
2045.11	0.000566
2054.76	0.000547
2064.41	0.000492
2074.05	0.000517
2083.7	0.0004
2093.35	0.00041
2102.99	0.000412
2112.64	0.000398
2122.28	0.000422
2131.93	0.000386
2141.58	0.000445
2151.22	0.000462
2160.87	0.000515
2170.52	0.000438
2180.16	0.000484
2189.81	0.000484
2199.46	0.000459
2209.1	0.000399
2218.75	0.000438
2228.4	0.000415
2238.04	0.000376
2247.69	0.00044
2257.34	0.000393
2266.98	0.000447
2276.63	0.000457
2286.28	0.000432
2295.92	0.00046
2305.57	0.00051
2315.22	0.000514
2324.86	0.00049
2334.51	0.000397
2344.16	0.000435
2353.8	0.000383
2363.45	0.000351
2373.09	0.000454
2382.74	0.000474
2392.39	0.000484
2402.03	0.000474
2411.68	0.00046
2421.33	0.000427
2430.97	0.000478
2440.62	0.00046
2450.27	0.000406
2459.91	0.000436
2469.56	0.000425
2479.21	0.000355
2488.85	0.000397
2498.5	0.000452
2508.15	0.000494
2517.79	0.000529
2527.44	0.00068
2537.09	0.0007831
2546.73	0.000805
2556.38	0.0008618
2566.03	0.00091085
2575.67	0.0009893
2585.32	0.0010495
2594.96	0.001123
2604.61	0.0012595
2614.26	0.0013989
2623.9	0.0016014
2633.55	0.0017926
2643.2	0.001964
2652.84	0.002114
2662.49	0.002394
2672.14	0.002644
2681.78	0.002884
2691.43	0.002734
2701.08	0.002604
2710.72	0.002534
2720.37	0.002644
2730.02	0.002844
2739.66	0.003424
2749.31	0.003734
2758.96	0.003804
2768.6	0.004094
2778.25	0.004784
2787.9	0.005844
2797.54	0.007604
2807.19	0.009674
2816.84	0.012234
2826.48	0.015864
2836.13	0.022394
2845.77	0.037744
2855.42	0.074064
2865.07	0.105484
2874.71	0.095224
2884.36	0.085974
2894.01	0.082804
2903.65	0.098994
2913.3	0.137364
2922.95	0.209454
2932.59	0.279624
2942.24	0.241534
2951.89	0.174644
2961.53	0.151244
2971.18	0.126194
2980.83	0.064044
2990.47	0.033544
3000.12	0.021104
3009.77	0.014494
3019.41	0.010914
3029.06	0.008604
3038.71	0.006614
3048.35	0.005294
3058	0.004484
3067.64	0.003684
3077.29	0.003244
3086.94	0.003024
3096.58	0.002594
3106.23	0.002384
3115.88	0.002074
3125.52	0.0018738
3135.17	0.0015132
3144.82	0.0016494
3154.46	0.0016226
3164.11	0.0013467
3173.76	0.0012648
3183.4	0.0012036
3193.05	0.00095441
3202.7	0.00092686
3212.34	0.000879443
3221.99	0.000714
3231.64	0.000399
3241.28	0.000611
3250.93	0.000345
3260.58	0.000545
3270.22	0.000514
3279.87	0.000221
3289.52	0.0002
3299.16	0.000339
3308.81	0.000598
3318.45	0.000461
3328.1	0.000427
3337.75	0.000538
3347.39	0.000508
3357.04	0.000657
3366.69	0.000586
3376.33	0.000476
3385.98	0.00066
3395.63	0.000672
3405.27	0.0009921
3414.92	0.001272
3424.57	0.001472
3434.21	0.0014884
3443.86	0.0011364
3453.51	0.000705
3463.15	0.000366
3472.8	0.00034
3482.45	0.000379
3492.09	0.00034
3501.74	0.000264
3511.39	0.000217
3521.03	0.000322
3530.68	0.000248
3540.33	4.7e-05
3549.97	2.5e-05
3559.62	8.5e-05
3569.26	0.000163
3578.91	0.000236
3588.56	0.000183
3598.2	0.000301
3607.85	0.000259
3617.5	0.000408
3627.14	0.000402
3636.79	0.000365
3646.44	0.000384
3656.08	0.000362
3665.73	0.000363
3675.38	0.000305
3685.02	0.000279
3694.67	0.000448
3704.32	0.00033
3713.96	0.000296
3723.61	0.000292
3733.26	0.000432
3742.9	0.000262
3752.55	0.000236
3762.2	0.000524
3771.84	0.000372
3781.49	0.000496
3791.13	0.000475
3800.78	0.000397
3810.43	0.000506
3820.07	0.000454
3829.72	0.000409
3839.37	0.000424
3849.01	0.00041
3858.66	0.000554
3868.31	0.000671
3877.95	0.000537
3887.6	0.000524
3897.25	0.000597
3906.89	0.000548
3916.54	0.000669
3926.19	0.00056
3935.83	0.000562
3945.48	0.000671
3955.13	0.000503
3964.77	0.000527
3974.42	0.000754
3984.07	0.000746
3993.71	0.000716
