Infrared Spectrum: o-Mercaptobenzyl alcohol
Formula: C 7 H 10 O S
CAS: 4521-31-7
State: gas
Origin: EPA-IR VAPOR PHASE LIBRARY
1/CM	ABSORBANCE
549.8	0.001157
559.445	0.001517
569.09	0.001287
578.734	0.002197
588.379	0.004007
598.024	0.006407
607.669	0.005917
617.313	0.003247
626.958	0.001857
636.603	0.001647
646.248	0.001367
655.893	0.001727
665.537	0.002477
675.182	0.003687
684.827	0.004127
694.472	0.003397
704.116	0.003517
713.761	0.006057
723.406	0.013137
733.051	0.028967
742.695	0.049197
752.34	0.034897
761.985	0.017437
771.63	0.004677
781.275	0.002557
790.919	0.002607
800.564	0.002977
810.209	0.003137
819.854	0.003317
829.498	0.002687
839.143	0.002227
848.788	0.002367
858.433	0.002337
868.078	0.002237
877.722	0.002237
887.367	0.002507
897.012	0.002997
906.657	0.003827
916.301	0.004897
925.946	0.006827
935.591	0.008227
945.236	0.008787
954.88	0.008757
964.525	0.009357
974.17	0.010387
983.815	0.013067
993.46	0.020317
1003.1	0.030507
1012.75	0.039177
1022.39	0.039367
1032.04	0.033537
1041.68	0.025947
1051.33	0.018627
1060.97	0.016397
1070.62	0.015757
1080.26	0.011027
1089.91	0.005927
1099.55	0.005587
1109.2	0.004707
1118.84	0.005737
1128.49	0.006837
1138.13	0.006857
1147.78	0.005817
1157.42	0.006697
1167.07	0.008357
1176.71	0.010157
1186.36	0.012287
1196	0.013647
1205.64	0.012287
1215.29	0.008757
1224.93	0.005807
1234.58	0.005207
1244.22	0.005447
1253.87	0.005727
1263.51	0.006207
1273.16	0.006817
1282.8	0.006847
1292.45	0.006337
1302.09	0.005847
1311.74	0.005657
1321.38	0.005777
1331.03	0.005867
1340.67	0.006407
1350.32	0.007107
1359.96	0.009147
1369.61	0.012057
1379.25	0.014417
1388.9	0.014077
1398.54	0.010937
1408.18	0.007737
1417.83	0.006777
1427.47	0.008527
1437.12	0.013557
1446.76	0.014637
1456.41	0.014177
1466.05	0.015007
1475.7	0.013747
1485.34	0.008827
1494.99	0.004347
1504.63	0.002267
1514.28	0.001337
1523.92	0.001127
1533.57	0.0010881
1543.21	0.001237
1552.86	0.001787
1562.5	0.002917
1572.15	0.004347
1581.79	0.006087
1591.44	0.006257
1601.08	0.004547
1610.73	0.002277
1620.37	0.001317
1630.01	0.000909
1639.66	0.0006358
1649.3	0.0007162
1658.95	0.0007771
1668.59	0.0009501
1678.24	0.001267
1687.88	0.001277
1697.53	0.001187
1707.17	0.001327
1716.82	0.001307
1726.46	0.0007616
1736.11	0.0006788
1745.75	0.0005684
1755.4	0.0005796
1765.04	0.0005176
1774.69	0.0008031
1784.33	0.0010548
1793.98	0.001347
1803.62	0.001267
1813.27	0.0010168
1822.91	0.001117
1832.55	0.001187
1842.2	0.0008916
1851.84	0.0006664
1861.49	0.0006319
1871.13	0.0008037
1880.78	0.000942
1890.42	0.0010424
1900.07	0.001437
1909.71	0.001727
1919.36	0.001417
1929	0.001317
1938.65	0.001637
1948.29	0.001507
1957.94	0.0009977
1967.58	0.0006118
1977.23	0.0006071
1986.87	0.0005102
1996.52	0.0006263
2006.16	0.0005968
2015.81	0.0007547
2025.45	0.0005991
2035.1	0.000552
2044.74	0.000445
2054.38	0.0003925
2064.03	0.0004055
2073.67	0.0003997
2083.32	0.0003575
2092.96	0.0003829
2102.61	0.0003449
2112.25	0.0003404
2121.9	0.000312
2131.54	0.0002382
2141.19	0.000302
2150.83	0.0002987
2160.48	0.0003334
2170.12	0.00020555
2179.77	0.00027
2189.41	0.0003187
2199.06	0.0003193
2208.7	0.0003019
2218.35	0.0003617
2227.99	0.0003479
2237.64	0.0003438
2247.28	0.0004024
2256.92	0.0003778
2266.57	0.0003387
2276.21	0.000339
2285.86	0.0005159
2295.5	0.0005666
2305.15	0.0005358
2314.79	0.0006529
2324.44	0.0006161
2334.08	0.0006557
2343.73	0.0003905
2353.37	0.0004886
2363.02	0.0004822
2372.66	0.0004186
2382.31	0.0003924
2391.95	0.0006135
2401.6	0.0005889
2411.24	0.0005221
2420.89	0.0005804
2430.53	0.0004893
2440.18	0.0005265
2449.82	0.0004825
2459.47	0.0005303
2469.11	0.0005495
2478.75	0.000521
2488.4	0.0005955
2498.04	0.0006317
2507.69	0.0006584
2517.33	0.0006356
2526.98	0.0005305
2536.62	0.0005893
2546.27	0.000705
2555.91	0.0007691
2565.56	0.0010965
2575.2	0.002097
2584.85	0.002667
2594.49	0.002297
2604.14	0.001257
2613.78	0.0009216
2623.43	0.0008672
2633.07	0.0008946
2642.72	0.000854
2652.36	0.0008804
2662.01	0.000947
2671.65	0.0008346
2681.29	0.000787
2690.94	0.0008381
2700.58	0.0008231
2710.23	0.0008247
2719.87	0.0008247
2729.52	0.000948
2739.16	0.0009853
2748.81	0.0010104
2758.45	0.000977
2768.1	0.001207
2777.74	0.001257
2787.39	0.001347
2797.03	0.001397
2806.68	0.001607
2816.32	0.001797
2825.97	0.002437
2835.61	0.002887
2845.26	0.003817
2854.9	0.005047
2864.55	0.006847
2874.19	0.009337
2883.84	0.011587
2893.48	0.011697
2903.12	0.009797
2912.77	0.008697
2922.41	0.008827
2932.06	0.009927
2941.7	0.010407
2951.35	0.009807
2960.99	0.008437
2970.64	0.006227
2980.28	0.004597
2989.93	0.003357
2999.57	0.003647
3009.22	0.005497
3018.86	0.006917
3028.51	0.006017
3038.15	0.004207
3047.8	0.005167
3057.44	0.011657
3067.09	0.020987
3076.73	0.020607
3086.38	0.010467
3096.02	0.004127
3105.67	0.001847
3115.31	0.001177
3124.95	0.00106
3134.6	0.001307
3144.24	0.001307
3153.89	0.0007857
3163.53	0.0005602
3173.18	0.0002553
3182.82	0.0004238
3192.47	0.0002895
3202.11	0.0004304
3211.76	0.00017694
3221.4	0.0002679
3231.05	0.0003584
3240.69	0.0003634
3250.34	0.0002214
3259.98	0.0004479
3269.63	0.0003069
3279.27	0.00016946
3288.92	0.00019763
3298.56	0.0004826
3308.21	0.0003714
3317.85	0.0003952
3327.49	0.0004497
3337.14	0.0003535
3346.78	0.0003046
3356.43	0.0002897
3366.07	0.0004256
3375.72	0.0002772
3385.36	0.0004498
3395.01	0.0003946
3404.65	0.0006451
3414.3	0.0004066
3423.94	0.0005665
3433.59	0.0005117
3443.23	0.0007471
3452.88	0.0005708
3462.52	0.0006002
3472.17	0.0007373
3481.81	0.0010466
3491.46	0.0007811
3501.1	0.0008755
3510.75	0.0010815
3520.39	0.0009962
3530.04	0.0008492
3539.68	0.0007485
3549.32	0.0007099
3558.97	0.001327
3568.61	0.001287
3578.26	0.001327
3587.9	0.001617
3597.55	0.001987
3607.19	0.002547
3616.84	0.003077
3626.48	0.004377
3636.13	0.006337
3645.77	0.008837
3655.42	0.008517
3665.06	0.007217
3674.71	0.005847
3684.35	0.004067
3694	0.002607
3703.64	0.001787
3713.29	0.001357
3722.93	0.0010793
3732.58	0.0009642
3742.22	0.0010976
3751.86	0.0007083
3761.51	0.0006849
3771.15	0.0007257
3780.8	0.0007393
3790.44	0.0005013
3800.09	0.0005607
3809.73	0.0008572
3819.38	0.0008042
3829.02	0.0004781
3838.67	0.0007112
3848.31	0.0006606
3857.96	0.0008972
3867.6	0.0009065
3877.25	0.0008021
3886.89	0.0008804
3896.54	0.0006299
3906.18	0.0006717
3915.83	0.0005486
3925.47	0.0006663
3935.12	0.0006268
3944.76	0.0005278
3954.41	0.0004425
3964.05	0.0006665
3973.69	0.0005725
3983.34	0.00019184
3992.98	0.0004054
