Infrared Spectrum: 5-Nitrothiophene-2-carboxaldehyde
Formula: C 5 H 3 N O 3 S
CAS: 4521-33-9
State: gas
Origin: EPA-IR VAPOR PHASE LIBRARY
1/CM	ABSORBANCE
549.8	0.001198
559.445	0.0013534
569.09	0.0009952
578.735	0.000651
588.38	0.000654
598.025	0.0011136
607.67	0.0012319
617.315	0.001816
626.96	0.002106
636.605	0.002136
646.251	0.002176
655.896	0.005426
665.541	0.009736
675.186	0.007776
684.831	0.002686
694.476	0.0014639
704.121	0.001886
713.766	0.004596
723.411	0.007926
733.056	0.007186
742.701	0.005166
752.346	0.003776
761.991	0.006346
771.636	0.006286
781.281	0.004526
790.926	0.009796
800.571	0.019736
810.216	0.038036
819.861	0.034726
829.507	0.013976
839.152	0.003936
848.797	0.001424
858.442	0.000627
868.087	0.000541
877.732	0.000469
887.377	0.000616
897.022	0.0007245
906.667	0.000643
916.312	0.000463
925.957	0.000349
935.602	0.000446
945.247	0.000545
954.892	0.000684
964.537	0.00082242
974.182	0.0010599
983.827	0.0012586
993.472	0.0013106
1003.12	0.001779
1012.76	0.003166
1022.41	0.004676
1032.05	0.005056
1041.7	0.003746
1051.34	0.0017309
1060.99	0.0012999
1070.63	0.001896
1080.28	0.002926
1089.92	0.005036
1099.57	0.009666
1109.21	0.012676
1118.86	0.007966
1128.5	0.004446
1138.15	0.004696
1147.79	0.004846
1157.44	0.006336
1167.08	0.009726
1176.73	0.020446
1186.37	0.041656
1196.02	0.041436
1205.66	0.016826
1215.31	0.013416
1224.95	0.012286
1234.6	0.004596
1244.24	0.002506
1253.89	0.001826
1263.53	0.001886
1273.18	0.002906
1282.82	0.004176
1292.47	0.004386
1302.11	0.005636
1311.76	0.011336
1321.4	0.026656
1331.05	0.053756
1340.69	0.079766
1350.34	0.074876
1359.98	0.034036
1369.63	0.009386
1379.27	0.005266
1388.92	0.004206
1398.56	0.003666
1408.21	0.003696
1417.85	0.004456
1427.5	0.005616
1437.14	0.006136
1446.79	0.005886
1456.43	0.005016
1466.08	0.004446
1475.73	0.004536
1485.37	0.005096
1495.02	0.006306
1504.66	0.011536
1514.31	0.028056
1523.95	0.046276
1533.6	0.049636
1543.24	0.048996
1552.89	0.047356
1562.53	0.033556
1572.18	0.020796
1581.82	0.013286
1591.47	0.007406
1601.11	0.005016
1610.76	0.004526
1620.4	0.004226
1630.05	0.003666
1639.69	0.002956
1649.34	0.002766
1658.98	0.003086
1668.63	0.004326
1678.27	0.007266
1687.92	0.017656
1697.56	0.061136
1707.21	0.103366
1716.85	0.069426
1726.5	0.013236
1736.14	0.005206
1745.79	0.002646
1755.43	0.001886
1765.08	0.001826
1774.72	0.001751
1784.37	0.001826
1794.01	0.002086
1803.66	0.002016
1813.3	0.0016068
1822.95	0.0014571
1832.59	0.002086
1842.24	0.002466
1851.88	0.002186
1861.53	0.001846
1871.17	0.0013798
1880.82	0.0010269
1890.46	0.00079658
1900.11	0.000664
1909.75	0.000642
1919.4	0.000696
1929.04	0.0007741
1938.69	0.0007113
1948.33	0.000596
1957.98	0.00063
1967.62	0.000553
1977.27	0.000495
1986.91	0.00039
1996.56	0.000342
2006.2	0.000339
2015.85	0.000346
2025.49	0.00038
2035.14	0.000465
2044.78	0.000479
2054.43	0.000542
2064.07	0.000471
2073.72	0.000447
2083.36	0.000413
2093.01	0.00043
2102.65	0.000383
2112.3	0.000383
2121.94	0.000375
2131.59	0.000417
2141.23	0.000446
2150.88	0.000456
2160.52	0.000335
2170.17	0.00031
2179.81	0.000323
2189.46	0.0003
2199.1	0.00035
2208.75	0.000346
2218.39	0.00037
2228.04	0.000329
2237.68	0.000403
2247.33	0.000318
2256.97	0.000301
2266.62	0.000277
2276.26	0.000263
2285.91	0.000274
2295.55	0.00024
2305.2	0.000237
2314.84	0.000333
2324.49	0.000395
2334.13	0.00052
2343.78	0.000579
2353.42	0.000572
2363.07	0.000682
2372.72	0.000569
2382.36	0.000579
2392.01	0.000397
2401.65	0.000343
2411.3	0.000308
2420.94	0.000392
2430.59	0.00042
2440.23	0.000567
2449.88	0.00058
2459.52	0.000582
2469.17	0.000424
2478.81	0.000301
2488.46	0.000417
2498.1	0.00043
2507.75	0.000589
2517.39	0.0007672
2527.04	0.0010656
2536.68	0.0012339
2546.33	0.0011812
2555.97	0.0009393
2565.62	0.000674
2575.26	0.000525
2584.91	0.000418
2594.55	0.000523
2604.2	0.000578
2613.84	0.000601
2623.49	0.0007956
2633.13	0.00088801
2642.78	0.0011484
2652.42	0.0013987
2662.07	0.001575
2671.71	0.0016852
2681.36	0.001886
2691	0.002106
2700.65	0.002046
2710.29	0.002056
2719.94	0.002606
2729.58	0.003366
2739.23	0.004606
2748.87	0.005236
2758.52	0.004386
2768.16	0.003176
2777.81	0.003036
2787.45	0.005166
2797.1	0.009456
2806.74	0.010836
2816.39	0.009956
2826.03	0.012676
2835.68	0.012766
2845.32	0.008206
2854.97	0.004336
2864.61	0.002836
2874.26	0.002196
2883.9	0.001856
2893.55	0.0015503
2903.19	0.0012117
2912.84	0.0010545
2922.48	0.0009141
2932.13	0.000636
2941.77	0.000471
2951.42	0.000512
2961.06	0.000468
2970.71	0.000551
2980.35	0.000541
2990	0.000375
2999.64	0.000303
3009.29	0.000421
3018.93	0.000317
3028.58	0.000334
3038.22	0.000396
3047.87	0.00035
3057.51	0.000307
3067.16	0.000497
3076.8	0.000584
3086.45	0.0007771
3096.09	0.000928
3105.74	0.0010415
3115.38	0.0012007
3125.03	0.0010102
3134.67	0.000319
3144.32	0.000316
3153.96	0.000202
3163.61	0.000187
3173.25	0.000161
3182.9	0
3192.54	5.9e-05
3202.19	0.00012
3211.83	0.000218
3221.48	0.000193
3231.12	8.9e-05
3240.77	0.000217
3250.41	0.000226
3260.06	0.000313
3269.7	0.00025
3279.35	0.000158
3289	0.000206
3298.64	0.00027
3308.29	0.000193
3317.93	0.000332
3327.58	0.000329
3337.22	0.000303
3346.87	0.00037
3356.51	0.000362
3366.16	0.000419
3375.8	0.00089981
3385.45	0.0017556
3395.09	0.002216
3404.74	0.0015627
3414.38	0.000564
3424.03	0.000128
3433.67	0.000223
3443.32	0.000292
3452.96	0.000347
3462.61	0.000343
3472.25	0.000526
3481.9	0.000351
3491.54	0.000481
3501.19	0.00026
3510.83	0.000375
3520.48	0.000467
3530.12	0.000395
3539.77	0.000481
3549.41	0.000357
3559.06	0.000327
3568.7	0.000306
3578.35	0.00045
3587.99	0.000279
3597.64	0.000331
3607.28	0.000425
3616.93	0.000416
3626.57	0.000551
3636.22	0.000373
3645.86	0.000526
3655.51	0.000309
3665.15	0.000396
3674.8	0.000584
3684.44	0.000413
3694.09	0.000293
3703.73	0.000267
3713.38	0.000351
3723.02	0.000471
3732.67	0.000357
3742.31	0.000534
3751.96	0.000451
3761.6	0.00026
3771.25	0.000354
3780.89	0.000577
3790.54	0.000403
3800.18	0.000508
3809.83	0.000434
3819.47	0.000279
3829.12	0.000462
3838.76	0.000439
3848.41	0.0007076
3858.05	0.000417
3867.7	0.000528
3877.34	0.000437
3886.99	0.000399
3896.63	0.00044
3906.28	0.000255
3915.92	0.00034
3925.57	0.000316
3935.21	0.000336
3944.86	0.00032
3954.5	0.000233
3964.15	0.000382
3973.79	0.000246
3983.44	0.000464
3993.08	0.000344
