Infrared Spectrum: 4-(p-Toly)butyric acid
Formula: C 11 H 14 O 2
CAS: 4521-22-6
State: gas
Origin: EPA-IR VAPOR PHASE LIBRARY
1/CM	ABSORBANCE
549.8	0.005576
559.445	0.006006
569.09	0.006416
578.734	0.005306
588.379	0.005566
598.024	0.006216
607.669	0.005546
617.313	0.006066
626.958	0.005256
636.603	0.004386
646.248	0.002896
655.893	0.003026
665.537	0.002546
675.182	0.002376
684.827	0.002196
694.472	0.002306
704.116	0.002146
713.761	0.001956
723.406	0.001896
733.051	0.002186
742.695	0.002156
752.34	0.002026
761.985	0.002396
771.63	0.002646
781.275	0.003376
790.919	0.003946
800.564	0.004896
810.209	0.004876
819.854	0.004276
829.498	0.002686
839.143	0.002386
848.788	0.001756
858.433	0.001926
868.078	0.0015063
877.722	0.0014821
887.367	0.0015423
897.012	0.0015065
906.657	0.0014003
916.301	0.0013429
925.946	0.001379
935.591	0.0012449
945.236	0.0010534
954.88	0.001696
964.525	0.001696
974.17	0.001786
983.815	0.001646
993.46	0.002546
1003.1	0.002526
1012.75	0.003066
1022.39	0.004076
1032.04	0.004006
1041.68	0.004476
1051.33	0.004326
1060.97	0.004196
1070.62	0.004826
1080.26	0.004606
1089.91	0.006766
1099.55	0.012046
1109.2	0.019486
1118.84	0.023766
1128.49	0.017036
1138.13	0.012216
1147.78	0.009856
1157.42	0.007806
1167.07	0.007836
1176.71	0.007846
1186.36	0.008356
1196	0.006486
1205.64	0.007266
1215.29	0.006036
1224.93	0.004766
1234.58	0.004486
1244.22	0.004506
1253.87	0.004186
1263.51	0.003496
1273.16	0.002826
1282.8	0.003666
1292.45	0.003116
1302.09	0.003146
1311.74	0.002986
1321.38	0.002966
1331.03	0.003396
1340.67	0.003806
1350.32	0.004366
1359.96	0.004486
1369.61	0.005316
1379.25	0.005626
1388.9	0.005086
1398.54	0.003646
1408.18	0.002886
1417.83	0.003176
1427.47	0.003246
1437.12	0.003126
1446.76	0.003166
1456.41	0.003676
1466.05	0.002826
1475.7	0.002066
1485.34	0.001926
1494.99	0.002096
1504.63	0.003866
1514.28	0.006926
1523.92	0.003796
1533.57	0.001656
1543.21	0.0011774
1552.86	0.0011381
1562.5	0.0010401
1572.15	0.0009444
1581.79	0.0009358
1591.44	0.0011354
1601.08	0.0012595
1610.73	0.0012348
1620.37	0.0013291
1630.01	0.0010437
1639.66	0.0012056
1649.3	0.0012113
1658.95	0.0011466
1668.59	0.0012621
1678.24	0.001369
1687.88	0.0014298
1697.53	0.001575
1707.17	0.001856
1716.82	0.002406
1726.46	0.003736
1736.11	0.006086
1745.75	0.009726
1755.4	0.014446
1765.04	0.022706
1774.69	0.031386
1784.33	0.026206
1793.98	0.016286
1803.62	0.009896
1813.27	0.005586
1822.91	0.003346
1832.55	0.002206
1842.2	0.001726
1851.84	0.0014221
1861.49	0.0013025
1871.13	0.0012972
1880.78	0.0015212
1890.42	0.0015007
1900.07	0.0012883
1909.71	0.0010479
1919.36	0.001052
1929	0.0009173
1938.65	0.0008094
1948.29	0.00072
1957.94	0.0008187
1967.58	0.0008804
1977.23	0.000917
1986.87	0.0007637
1996.52	0.0007358
2006.16	0.0008295
2015.81	0.000868
2025.45	0.0008349
2035.1	0.0009645
2044.74	0.0009828
2054.38	0.0007559
2064.03	0.0008279
2073.67	0.00072
2083.32	0.00067064
2092.96	0.000578466
2102.61	0.0007075
2112.25	0.0007658
2121.9	0.0007074
2131.54	0.0007059
2141.19	0.00066597
2150.83	0.0008058
2160.48	0.0008033
2170.12	0.0007691
2179.77	0.0005017
2189.41	0.0007147
2199.06	0.00062858
2208.7	0.0007742
2218.35	0.0007081
2227.99	0.0007621
2237.64	0.0007975
2247.28	0.00065202
2256.92	0.000581993
2266.57	0.0007318
2276.21	0.00064533
2285.86	0.0008106
2295.5	0.0005392
2305.15	0.0008225
2314.79	0.0006958
2324.44	0.000786
2334.08	0.0008183
2343.73	0.0007364
2353.37	0.0006964
2363.02	0.00059697
2372.66	0.0008839
2382.31	0.00067177
2391.95	0.00064383
2401.6	0.0007114
2411.24	0.0008172
2420.89	0.00061074
2430.53	0.000578516
2440.18	0.0005258
2449.82	0.0007371
2459.47	0.0009099
2469.11	0.0007395
2478.75	0.00066273
2488.4	0.0007214
2498.04	0.0010066
2507.69	0.000425
2517.33	0.0007972
2526.98	0.0004924
2536.62	0.000448
2546.27	0.0004869
2555.91	0.00057219
2565.56	0.0007308
2575.2	0.0004921
2584.85	0.000582272
2594.49	0.0007759
2604.14	0.000417
2613.78	0.000282
2623.43	0.000744
2633.07	0.00056765
2642.72	0.0006857
2652.36	0.0007341
2662.01	0.000346
2671.65	0.00064348
2681.29	0.0006458
2690.94	0.0006953
2700.58	0.0007275
2710.23	0.000579052
2719.87	0.0005086
2729.52	0.00062676
2739.16	0.0006928
2748.81	0.0010119
2758.45	0.0008649
2768.1	0.00059513
2777.74	0.0006629
2787.39	0.0005641
2797.03	0.00060956
2806.68	0.0009953
2816.32	0.00069
2825.97	0.0012072
2835.61	0.0014867
2845.26	0.002106
2854.9	0.002906
2864.55	0.004166
2874.19	0.005126
2883.84	0.004756
2893.48	0.003916
2903.12	0.004146
2912.77	0.005496
2922.41	0.008136
2932.06	0.010756
2941.7	0.009806
2951.35	0.008726
2960.99	0.007236
2970.64	0.005386
2980.28	0.004256
2989.93	0.004306
2999.57	0.004136
3009.22	0.005526
3018.86	0.006966
3028.51	0.007016
3038.15	0.004786
3047.8	0.004416
3057.44	0.003906
3067.09	0.002566
3076.73	0.002206
3086.38	0.002066
3096.02	0.001746
3105.67	0.0013166
3115.31	0.0007698
3124.95	0.0008467
3134.6	0.0012878
3144.24	0.0008773
3153.89	0.0009659
3163.53	0.0007706
3173.18	0.000431
3182.82	0.001108
3192.47	0.0006954
3202.11	0.00066414
3211.76	0.0006924
3221.4	0.000326
3231.05	0.0006988
3240.69	0.0008077
3250.34	0.0006447
3259.98	0.000401
3269.63	0.000465
3279.27	0.00066148
3288.92	0.000903
3298.56	0.00061875
3308.21	0.0009159
3317.85	0.0005595
3327.49	0.000436
3337.14	0.0007127
3346.78	0.000449
3356.43	0.000398
3366.07	0.0005343
3375.72	0.0007574
3385.36	0.000533
3395.01	0.00059463
3404.65	0.0010315
3414.3	0.0006954
3423.94	0.0006793
3433.59	0.0007675
3443.23	0.0007672
3452.88	0.0007633
3462.52	0.0005299
3472.17	0.0006726
3481.81	0.0009221
3491.46	0.0008983
3501.1	0.000577047
3510.75	0.0010526
3520.39	0.0011087
3530.04	0.0007784
3539.68	0.001676
3549.32	0.002106
3558.97	0.003226
3568.61	0.009926
3578.26	0.012626
3587.9	0.004136
3597.55	0.002116
3607.19	0.0012922
3616.84	0.0007408
3626.48	0.0008993
3636.13	0.0010823
3645.77	0.0007951
3655.42	0.0008298
3665.06	0.0008681
3674.71	0.000547
3684.35	0.0004873
3694	0.0005526
3703.64	0.001279
3713.29	0.0007994
3722.93	0.000554
3732.58	0.0007031
3742.22	0.0007489
3751.86	0.0011255
3761.51	0.000309
3771.15	0.000438
3780.8	0.0005097
3790.44	0.0011794
3800.09	0.0008169
3809.73	0.0008176
3819.38	0.0007706
3829.02	0.0009496
3838.67	0.00057049
3848.31	0.0012624
3857.96	0.0008617
3867.6	0.00061304
3877.25	0.000186
3886.89	0.000156
3896.54	0.00057306
3906.18	0.0008727
3915.83	0.0006974
3925.47	0.000402
3935.12	0.00063833
3944.76	0.0008756
3954.41	0.0007985
3964.05	0.000419
3973.69	0.000298
3983.34	0.0009999
3992.98	0.000418
