Infrared Spectrum: 1,16-Dibromohexadecane
Formula: C 16 H 32 Br 2
CAS: 45223-18-5
State: gas
Origin: EPA-IR VAPOR PHASE LIBRARY
1/CM	ABSORBANCE
501.5	0.000473
513.074	0.00036237
524.648	0.0007296
536.222	0.0010281
547.796	0.002147
559.37	0.004787
570.944	0.007327
582.518	0.003527
594.092	0.001477
605.666	0.0012717
617.24	0.001747
628.814	0.003077
640.388	0.006507
651.962	0.009087
663.536	0.004077
675.11	0.001987
686.684	0.001777
698.258	0.002567
709.832	0.004457
721.406	0.005857
732.98	0.005477
744.554	0.004627
756.128	0.003797
767.702	0.003057
779.276	0.002557
790.85	0.002357
802.423	0.002327
813.997	0.002117
825.571	0.001957
837.145	0.001827
848.719	0.001777
860.293	0.001827
871.867	0.001927
883.441	0.001877
895.015	0.001807
906.589	0.001757
918.163	0.001707
929.737	0.001647
941.311	0.001547
952.885	0.001597
964.459	0.001617
976.033	0.001567
987.607	0.001507
999.181	0.001477
1010.76	0.001537
1022.33	0.001687
1033.9	0.001677
1045.48	0.001707
1057.05	0.001557
1068.63	0.001387
1080.2	0.0012033
1091.77	0.0011271
1103.35	0.0010698
1114.92	0.0009546
1126.49	0.0009662
1138.07	0.0011905
1149.64	0.0011371
1161.22	0.001307
1172.79	0.001617
1184.36	0.002237
1195.94	0.003827
1207.51	0.007147
1219.09	0.010637
1230.66	0.012337
1242.23	0.014507
1253.81	0.016987
1265.38	0.016057
1276.96	0.013387
1288.53	0.011077
1300.1	0.009637
1311.68	0.007577
1323.25	0.005607
1334.83	0.005757
1346.4	0.008087
1357.97	0.008437
1369.55	0.005917
1381.12	0.003027
1392.7	0.001957
1404.27	0.002127
1415.84	0.003037
1427.42	0.005947
1438.99	0.013047
1450.57	0.017817
1462.14	0.019567
1473.71	0.009977
1485.29	0.003827
1496.86	0.002057
1508.44	0.0012753
1520.01	0.0009898
1531.58	0.0008568
1543.16	0.0006304
1554.73	0.000521
1566.31	0.0005172
1577.88	0.0004514
1589.45	0.0004171
1601.03	0.00034563
1612.6	0.00032394
1624.18	0.0002547
1635.75	0.0002395
1647.32	0.000173
1658.9	0.000184
1670.47	0.000146
1682.05	5e-05
1693.62	6.7e-05
1705.19	6.1e-05
1716.77	0
1728.34	9.2e-05
1739.92	9.6e-05
1751.49	6.5e-05
1763.06	0.000103
1774.64	7.7e-05
1786.21	0.000116
1797.79	0.000152
1809.36	0.000159
1820.93	0.000153
1832.51	0.000134
1844.08	0.000132
1855.66	0.000187
1867.23	0.000156
1878.8	0.000194
1890.38	0.000191
1901.95	0.0002103
1913.53	0.0002249
1925.1	0.0002646
1936.67	0.0002592
1948.25	0.0002848
1959.82	0.0002764
1971.4	0.00033673
1982.97	0.00034609
1994.54	0.00034626
2006.12	0.000428
2017.69	0.0005227
2029.27	0.000577
2040.84	0.0005892
2052.41	0.000573
2063.99	0.0005183
2075.56	0.0004909
2087.14	0.0004817
2098.71	0.0004493
2110.28	0.0004312
2121.86	0.0004298
2133.43	0.0004596
2145.01	0.0004799
2156.58	0.0005197
2168.15	0.0005292
2179.73	0.0005191
2191.3	0.0005151
2202.88	0.0005358
2214.45	0.0005422
2226.02	0.0005249
2237.6	0.0005562
2249.17	0.0005529
2260.74	0.0005637
2272.32	0.0005426
2283.89	0.0005288
2295.47	0.0005211
2307.04	0.0005293
2318.61	0.0005113
2330.19	0.0005088
2341.76	0.0005194
2353.34	0.0005238
2364.91	0.0004839
2376.48	0.0005069
2388.06	0.000577
2399.63	0.0005733
2411.21	0.0005518
2422.78	0.0005259
2434.35	0.0005648
2445.93	0.0005699
2457.5	0.0005938
2469.08	0.0005884
2480.65	0.0006041
2492.22	0.0006395
2503.8	0.000652
2515.37	0.0007319
2526.95	0.0008054
2538.52	0.0008707
2550.09	0.0008441
2561.67	0.0008947
2573.24	0.000938
2584.82	0.0010576
2596.39	0.0011821
2607.96	0.001327
2619.54	0.001487
2631.11	0.001667
2642.69	0.001847
2654.26	0.002077
2665.83	0.002327
2677.41	0.002597
2688.98	0.002737
2700.56	0.002507
2712.13	0.002307
2723.7	0.002247
2735.28	0.002297
2746.85	0.002487
2758.43	0.002717
2770	0.003117
2781.57	0.003717
2793.15	0.004827
2804.72	0.006247
2816.3	0.008347
2827.87	0.011877
2839.44	0.019607
2851.02	0.043987
2862.59	0.092897
2874.17	0.061247
2885.74	0.040197
2897.31	0.047047
2908.89	0.073167
2920.46	0.132817
2932.04	0.241427
2943.61	0.173637
2955.18	0.074877
2966.76	0.043347
2978.33	0.027627
2989.91	0.015357
3001.48	0.011927
3013.05	0.013987
3024.63	0.007617
3036.2	0.004457
3047.78	0.003047
3059.35	0.002307
3070.92	0.001847
3082.5	0.001537
3094.07	0.0012452
3105.65	0.0011031
3117.22	0.0010411
3128.79	0.0009617
3140.37	0.0008679
3151.94	0.0008488
3163.52	0.000759
3175.09	0.0007481
3186.66	0.0006993
3198.24	0.0005544
3209.81	0.0005172
3221.39	0.0004539
3232.96	0.0004856
3244.53	0.00037592
3256.11	0.000300943
3267.68	0.000300917
3279.26	0.0002771
3290.83	0.00031571
3302.4	0.0002227
3313.98	0.0002439
3325.55	0.0002542
3337.13	0.0002078
3348.7	0.0002269
3360.27	0.0002152
3371.85	0.000226
3383.42	0.0002176
3395	0.0002244
3406.57	0.000192
3418.14	0.0002536
3429.72	0.000168
3441.29	0.000105
3452.86	8e-05
3464.44	0.000131
3476.01	0.000103
3487.59	5.1e-05
3499.16	0.00014
3510.73	6.5e-05
3522.31	2.5e-05
3533.88	0.000102
3545.46	4.8e-05
3557.03	0.000101
3568.6	5.8e-05
3580.18	0.000168
3591.75	0.000112
3603.33	0.00029148
3614.9	0.0002879
3626.47	0.00031614
3638.05	0.00037604
3649.62	0.00030974
3661.2	0.00031206
3672.77	0.0002293
3684.34	0.00031464
3695.92	0.00031073
3707.49	0.0002848
3719.07	0.000303775
3730.64	0.000296416
3742.21	0.000181
3753.79	0.0002529
3765.36	0.00035454
3776.94	0.0004144
3788.51	0.00039177
3800.08	0.0004041
3811.66	0.00032245
3823.23	0.00034064
3834.81	0.00035763
3846.38	0.00033466
3857.95	0.00033837
3869.53	0.00033581
3881.1	0.0004119
3892.68	0.0004151
3904.25	0.00037579
3915.82	0.00035942
3927.4	0.00037508
3938.97	0.0004605
3950.55	0.0004299
3962.12	0.0004351
3973.69	0.0004808
3985.27	0.0005471
3996.84	0.000591
