Infrared Spectrum: DICHLOROETHYLMETHYLSILANE
Formula: C3 H8 Cl2 Si
CAS: 4525-44-4
State: SOLUTION (10% IN CCl4 FOR 3800-1300, 2% IN CS2 FOR 1300-600, AND 10% IN CCl4 FOR 600-250 CM^-^1)
Boiling point: 99.7 C
Class: COBLENTZ III
Instrument: PERKIN-ELMER 521 (GRATING)
Instrument parameters: FILTERS AT 3150, 2500, 2000, 1150, 700, 410. GRATING CHANGES: 2000, 630 CM^-^1
Sampling: TRANSMISSION
Path length: 0.011 CM, 0.011 CM, AND 0.010 CM
Resolution: 2
Origin: DOW CORNING CORP.
1/CM	TRANSMITTANCE
251.938	0.807
261.192	0.813
270.446	0.799
279.7	0.793
288.954	0.799
298.208	0.793
307.462	0.786
316.715	0.786
325.969	0.781
335.223	0.778
344.477	0.745
353.731	0.611
362.985	0.755
372.239	0.773
381.493	0.762
390.747	0.761
400.001	0.766
409.255	0.764
418.509	0.761
427.762	0.759
437.016	0.744
446.27	0.674
455.524	0.336
464.778	0.237
474.032	0.4011
483.286	0.651
492.54	0.682
501.794	0.667
511.048	0.607
520.302	0.349
529.556	0.017
538.809	0.006
548.063	0.074
557.317	0.481
566.571	0.631
575.825	0.704
585.079	0.721
594.333	0.732
603.587	0.824
612.841	0.827
622.095	0.828
631.349	0.824
640.603	0.812
649.856	0.728
659.11	0.583
668.364	0.687
677.618	0.746
686.872	0.796
696.126	0.842
705.38	0.856
714.634	0.849
723.888	0.82
733.142	0.77
742.396	0.65
751.65	0.715
760.903	0.5399
770.157	0.715
779.411	0.5689
788.665	0.4751
797.919	0.4139
807.173	0.5091
816.427	0.809
825.681	0.841
834.935	0.865
844.189	0.873
853.443	0.871
862.697	0.88
871.95	0.885
881.204	0.891
890.458	0.894
899.712	0.894
908.966	0.892
918.22	0.894
927.474	0.887
936.728	0.885
945.982	0.868
955.236	0.776
964.49	0.842
973.744	0.861
982.997	0.862
992.251	0.847
1001.51	0.754
1010.76	0.733
1020.01	0.795
1029.27	0.862
1038.52	0.872
1047.77	0.858
1057.03	0.856
1066.28	0.847
1075.54	0.848
1084.79	0.854
1094.04	0.868
1103.3	0.889
1112.55	0.899
1121.81	0.897
1131.06	0.91
1140.31	0.912
1149.57	0.914
1158.82	0.91
1168.08	0.906
1177.33	0.907
1186.58	0.905
1195.84	0.901
1205.09	0.894
1214.35	0.872
1223.6	0.851
1232.85	0.829
1242.11	0.843
1251.36	0.7198
1260.62	0.828
1269.87	0.878
1279.12	0.89
1288.38	0.892
1297.63	0.902
1306.88	0.889
1316.14	0.886
1325.39	0.887
1334.65	0.891
1343.9	0.889
1353.15	0.88
1362.41	0.87
1371.66	0.841
1380.92	0.7321
1390.17	0.73
1399.42	0.559
1408.68	0.5111
1417.93	0.8041
1427.19	0.823
1436.44	0.829
1445.69	0.785
1454.95	0.5747
1464.2	0.5721
1473.46	0.7991
1482.71	0.856
1491.96	0.865
1501.22	0.88
1510.47	0.882
1519.72	0.89
1528.98	0.89
1538.23	0.889
1547.49	0.89
1556.74	0.89
1565.99	0.89
1575.25	0.887
1584.5	0.889
1593.76	0.889
1603.01	0.892
1612.26	0.892
1621.52	0.895
1630.77	0.895
1640.03	0.897
1649.28	0.9
1658.53	0.901
1667.79	0.899
1677.04	0.897
1686.3	0.9
1695.55	0.9
1704.8	0.891
1714.06	0.89
1723.31	0.89
1732.56	0.896
1741.82	0.902
1751.07	0.904
1760.33	0.899
1769.58	0.902
1778.83	0.905
1788.09	0.906
1797.34	0.907
1806.6	0.91
1815.85	0.906
1825.1	0.909
1834.36	0.907
1843.61	0.907
1852.87	0.907
1862.12	0.902
1871.37	0.909
1880.63	0.899
1889.88	0.897
1899.14	0.895
1908.39	0.902
1917.64	0.897
1926.9	0.899
1936.15	0.907
1945.4	0.902
1954.66	0.904
1963.91	0.91
1973.17	0.905
1982.42	0.905
1991.67	0.904
2000.93	0.904
2010.18	0.9005
2019.44	0.8964
2028.69	0.8966
2037.94	0.904
2047.2	0.901
2056.45	0.8975
2065.71	0.8943
2074.96	0.9016
2084.21	0.906
2093.47	0.904
2102.72	0.9088
2111.98	0.9089
2121.23	0.904
2130.48	0.906
2139.74	0.9039
2148.99	0.9037
2158.25	0.901
2167.5	0.904
2176.75	0.9036
2186.01	0.896
2195.26	0.901
2204.51	0.8917
2213.77	0.891
2223.02	0.8978
2232.28	0.901
2241.53	0.906
2250.78	0.9015
2260.04	0.901
2269.29	0.904
2278.55	0.905
2287.8	0.905
2297.05	0.9
2306.31	0.9003
2315.56	0.9036
2324.82	0.904
2334.07	0.902
2343.32	0.9
2352.58	0.8971
2361.83	0.9021
2371.09	0.9
2380.34	0.899
2389.59	0.895
2398.85	0.9001
2408.1	0.901
2417.35	0.899
2426.61	0.8918
2435.86	0.8993
2445.12	0.892
2454.37	0.901
2463.62	0.89
2472.88	0.901
2482.13	0.897
2491.39	0.8925
2500.64	0.896
2509.89	0.8944
2519.15	0.896
2528.4	0.899
2537.66	0.9
2546.91	0.8976
2556.16	0.897
2565.42	0.8952
2574.67	0.895
2583.93	0.894
2593.18	0.892
2602.43	0.892
2611.69	0.894
2620.94	0.89
2630.19	0.8898
2639.45	0.8861
2648.7	0.8869
2657.96	0.8902
2667.21	0.891
2676.46	0.8898
2685.72	0.882
2694.97	0.889
2704.23	0.889
2713.48	0.889
2722.73	0.886
2731.99	0.8755
2741.24	0.8605
2750.5	0.877
2759.75	0.8774
2769	0.8714
2778.26	0.854
2787.51	0.849
2796.77	0.852
2806.02	0.856
2815.27	0.857
2824.53	0.8485
2833.78	0.8361
2843.03	0.8516
2852.29	0.8481
2861.54	0.812
2870.8	0.698
2880.05	0.38
2889.3	0.5213
2898.56	0.6047
2907.81	0.6431
2917.07	0.6001
2926.32	0.6525
2935.57	0.4647
2944.83	0.5452
2954.08	0.5609
2963.34	0.3283
2972.59	0.2505
2981.84	0.5405
2991.1	0.7455
3000.35	0.8057
3009.61	0.84
3018.86	0.8503
3028.11	0.8527
3037.37	0.853
3046.62	0.853
3055.88	0.858
3065.13	0.8668
3074.38	0.868
3083.64	0.868
3092.89	0.868
3102.14	0.865
3111.4	0.858
3120.65	0.865
3129.91	0.8647
3139.16	0.8613
3148.41	0.8605
3157.67	0.8626
3166.92	0.871
3176.18	0.8753
3185.43	0.8786
3194.68	0.883
3203.94	0.8854
3213.19	0.8879
3222.45	0.89
3231.7	0.892
3240.95	0.894
3250.21	0.895
3259.46	0.896
3268.72	0.897
3277.97	0.897
3287.22	0.897
3296.48	0.899
3305.73	0.899
3314.98	0.9
3324.24	0.9
3333.49	0.9
3342.75	0.9
3352	0.9
3361.25	0.901
3370.51	0.901
3379.76	0.901
3389.02	0.901
3398.27	0.901
3407.52	0.901
3416.78	0.901
3426.03	0.901
3435.29	0.901
3444.54	0.902
3453.79	0.902
3463.05	0.902
3472.3	0.902
3481.56	0.902
3490.81	0.902
3500.06	0.902
3509.32	0.902
3518.57	0.902
3527.82	0.902
3537.08	0.902
3546.33	0.9002
3555.59	0.897
3564.84	0.8969
3574.09	0.9047
3583.35	0.9051
3592.6	0.904
3601.86	0.902
3611.11	0.902
3620.36	0.901
3629.62	0.8988
3638.87	0.8952
3648.13	0.8992
3657.38	0.896
3666.63	0.8917
3675.89	0.889
3685.14	0.887
3694.4	0.8894
3703.65	0.8914
3712.9	0.895
3722.16	0.897
3731.41	0.9
3740.66	0.9031
3749.92	0.902
3759.17	0.9
3768.43	0.8991
3777.68	0.9007
3786.93	0.9048
3796.19	0.9086
