Infrared Spectrum: 4-Fluoro-3-nitrobenzoic acid
Formula: C 7 H 4 F N O 4
CAS: 453-71-4
State: gas
Origin: EPA-IR VAPOR PHASE LIBRARY
1/CM	ABSORBANCE
549.8	0.00628
559.445	0.0081
569.09	0.00717
578.734	0.00712
588.379	0.00988
598.024	0.0165
607.669	0.01734
617.313	0.00962
626.958	0.0038
636.603	0.00253
646.248	0.00232
655.893	0.00293
665.537	0.00933
675.182	0.01492
684.827	0.00868
694.472	0.00365
704.116	0.00186
713.761	0.0016
723.406	0.00129
733.051	0.00194
742.695	0.00384
752.34	0.00984
761.985	0.01708
771.63	0.01207
781.275	0.00512
790.919	0.00322
800.564	0.00313
810.209	0.00603
819.854	0.00701
829.498	0.00503
839.143	0.00662
848.788	0.00398
858.433	0.00125
868.078	0.0009115
877.722	0.0007676
887.367	0.00131
897.012	0.00284
906.657	0.00514
916.301	0.00485
925.946	0.00307
935.591	0.00152
945.236	0.0008164
954.88	0.0009947
964.525	0.0007211
974.17	0.0008645
983.815	0.0007882
993.46	0.0008038
1003.1	0.0007761
1012.75	0.0011284
1022.39	0.00149
1032.04	0.00174
1041.68	0.00205
1051.33	0.0031
1060.97	0.00475
1070.62	0.00873
1080.26	0.01628
1089.91	0.03087
1099.55	0.03969
1109.2	0.03549
1118.84	0.02087
1128.49	0.01364
1138.13	0.01366
1147.78	0.00877
1157.42	0.00677
1167.07	0.01071
1176.71	0.0214
1186.36	0.02914
1196	0.01971
1205.64	0.01024
1215.29	0.00648
1224.93	0.00516
1234.58	0.00612
1244.22	0.00948
1253.87	0.01313
1263.51	0.02073
1273.16	0.02346
1282.8	0.01289
1292.45	0.01043
1302.09	0.01168
1311.74	0.01404
1321.38	0.01837
1331.03	0.02526
1340.67	0.03718
1350.32	0.04236
1359.96	0.03108
1369.61	0.02181
1379.25	0.01376
1388.9	0.00663
1398.54	0.00507
1408.18	0.00562
1417.83	0.00529
1427.47	0.00316
1437.12	0.00208
1446.76	0.00198
1456.41	0.00185
1466.05	0.00204
1475.7	0.0028
1485.34	0.00448
1494.99	0.00829
1504.63	0.00995
1514.28	0.00846
1523.92	0.01102
1533.57	0.01553
1543.21	0.02238
1552.86	0.0384
1562.5	0.03716
1572.15	0.0202
1581.79	0.01692
1591.44	0.01527
1601.08	0.01927
1610.73	0.02748
1620.37	0.02729
1630.01	0.01644
1639.66	0.00813
1649.3	0.00392
1658.95	0.00237
1668.59	0.00201
1678.24	0.0019
1687.88	0.00162
1697.53	0.00173
1707.17	0.00303
1716.82	0.00518
1726.46	0.00499
1736.11	0.00466
1745.75	0.00868
1755.4	0.03255
1765.04	0.09104
1774.69	0.07233
1784.33	0.01464
1793.98	0.00499
1803.62	0.00388
1813.27	0.00495
1822.91	0.00475
1832.55	0.00256
1842.2	0.00142
1851.84	0.0010904
1861.49	0.0007896
1871.13	0.0007618
1880.78	0.0006646
1890.42	0.000779
1900.07	0.0009034
1909.71	0.0010038
1919.36	0.0010325
1929	0.0010974
1938.65	0.000905
1948.29	0.0007658
1957.94	0.00065
1967.58	0.0005581
1977.23	0.0005022
1986.87	0.0005978
1996.52	0.0006206
2006.16	0.0004934
2015.81	0.0003464
2025.45	0.0004445
2035.1	0.00022049
2044.74	0.0003488
2054.38	0.0002854
2064.03	0.0003856
2073.67	0.0003532
2083.32	0.0005561
2092.96	0.0006161
2102.61	0.0004479
2112.25	0.000347
2121.9	0.0003414
2131.54	0.0002944
2141.19	0.0003232
2150.83	0.0004483
2160.48	0.0004351
2170.12	0.0004454
2179.77	0.0004215
2189.41	0.0003123
2199.06	0.00026932
2208.7	0.0004227
2218.35	0.0004753
2227.99	0.0003897
2237.64	0.0003999
2247.28	0.0003774
2256.92	0.0003375
2266.57	0.0003533
2276.21	0.0004604
2285.86	0.0003751
2295.5	0.000369
2305.15	0.0003465
2314.79	0.0003887
2324.44	0.0004362
2334.08	0.0004154
2343.73	0.0004731
2353.37	0.0004155
2363.02	0.0004131
2372.66	0.0006352
2382.31	0.0003815
2391.95	0.0003698
2401.6	0.0003916
2411.24	0.0004757
2420.89	0.0004806
2430.53	0.0004361
2440.18	0.0005411
2449.82	0.0005262
2459.47	0.0005731
2469.11	0.0005554
2478.75	0.0004517
2488.4	0.0003937
2498.04	0.0004538
2507.69	0.0005204
2517.33	0.0004744
2526.98	0.0003704
2536.62	0.0004284
2546.27	0.0004004
2555.91	0.0003981
2565.56	0.0004776
2575.2	0.0004254
2584.85	0.0004101
2594.49	0.0005723
2604.14	0.0004644
2613.78	0.0004422
2623.43	0.0004564
2633.07	0.000426
2642.72	0.0003679
2652.36	0.0004071
2662.01	0.0004382
2671.65	0.0004454
2681.29	0.0004973
2690.94	0.000603
2700.58	0.0005398
2710.23	0.0003918
2719.87	0.000412
2729.52	0.0003461
2739.16	0.0003375
2748.81	0.0004442
2758.45	0.0004283
2768.1	0.0005531
2777.74	0.0004764
2787.39	0.0004017
2797.03	0.0005475
2806.68	0.0004427
2816.32	0.0004487
2825.97	0.000538
2835.61	0.0006494
2845.26	0.0005708
2854.9	0.0007372
2864.55	0.0009164
2874.19	0.0009592
2883.84	0.0011203
2893.48	0.00128
2903.12	0.00121
2912.77	0.001034
2922.41	0.0009653
2932.06	0.0009071
2941.7	0.000825
2951.35	0.0005426
2960.99	0.0008468
2970.64	0.0007303
2980.28	0.0008406
2989.93	0.0005701
2999.57	0.0006419
3009.22	0.000459
3018.86	0.0004464
3028.51	0.000366
3038.15	0.0004336
3047.8	0.0005324
3057.44	0.0003759
3067.09	0.0006146
3076.73	0.0010115
3086.38	0.00181
3096.02	0.00185
3105.67	0.0009811
3115.31	0.0008184
3124.95	0.000632
3134.6	0.0005079
3144.24	0.0003791
3153.89	0.0003853
3163.53	0.0003648
3173.18	0.000141
3182.82	0.0003635
3192.47	0.00020806
3202.11	0.0001391
3211.76	0.00018282
3221.4	0.00022222
3231.05	0.0002796
3240.69	0.00021903
3250.34	0.0002178
3259.98	0.00018358
3269.63	0.00022164
3279.27	0.0003587
3288.92	0.0001481
3298.56	0.00023374
3308.21	0.00016152
3317.85	0.0003015
3327.49	0.0001208
3337.14	0.00024983
3346.78	0.000172889
3356.43	0.0004106
3366.07	0.0003328
3375.72	0.0003097
3385.36	0.0003307
3395.01	0.0003219
3404.65	0.0001166
3414.3	0.0002963
3423.94	0.0004064
3433.59	8.6e-05
3443.23	0.00016422
3452.88	0.0003033
3462.52	0.00019346
3472.17	0.00026483
3481.81	0.00021634
3491.46	0.0003138
3501.1	0.0004048
3510.75	0.00083
3520.39	0.0010802
3530.04	0.0007186
3539.68	0.0007475
3549.32	0.0008725
3558.97	0.00172
3568.61	0.00777
3578.26	0.03374
3587.9	0.02918
3597.55	0.00381
3607.19	0.0009876
3616.84	0.0008081
3626.48	0.000459
3636.13	0.000429
3645.77	0.0003197
3655.42	0.0003882
3665.06	0.0003392
3674.71	0.0003097
3684.35	0.0002757
3694	0.00024215
3703.64	0.0004285
3713.29	0.0002713
3722.93	0.0003116
3732.58	0.0003804
3742.22	0.0001548
3751.86	0.0005436
3761.51	0.00020179
3771.15	0.00021001
3780.8	0.0003988
3790.44	9.67e-05
3800.09	0.0003463
3809.73	0.0003414
3819.38	0.0003064
3829.02	9.59e-05
3838.67	0.00022471
3848.31	0.00023484
3857.96	0.000348
3867.6	0.000159
3877.25	0.00023274
3886.89	5.2e-05
3896.54	0.0004777
3906.18	8.3e-05
3915.83	0.000272
3925.47	8.21e-05
3935.12	0.0002855
3944.76	0.00022141
3954.41	0.0003359
3964.05	0.00021887
3973.69	0.0001437
3983.34	0.0003002
3992.98	0.00016702
