Infrared Spectrum: 4-Ethylcyclohexanol
Formula: C 8 H 16 O
CAS: 4534-74-1
State: gas
Instrument: HP-GC/MS/IRD
Origin: NIST Mass Spectrometry Data Center
1/CM	ABSORBANCE
550	0.0002478
562	5.04e-05
574	3.36e-05
586	7.14e-05
598	9.24e-05
610	5.88e-05
622	0.0001554
634	0.0002982
646	0.0003234
658	7.14e-05
670	0.0001596
682	0.0003318
694	0.0001596
706	0.0001512
718	0.0001176
730	5.46e-05
742	0.0001596
754	0.000294
766	0.0003276
778	0.0002688
790	0.000315
802	0.0004536
814	0.0004158
826	0.0003402
838	0.000189
850	0.0001932
862	0.0002352
874	0.0004704
886	0.0010962
898	0.0016254
910	0.0013524
922	0.0012936
934	0.002205
946	0.0040992
958	0.0048006
970	0.003717
982	0.0032802
994	0.0033684
1006	0.0024654
1018	0.0024528
1030	0.0037968
1042	0.004704
1054	0.0045318
1066	0.0039186
1078	0.0032046
1090	0.0019572
1102	0.0015624
1114	0.001869
1126	0.0026166
1138	0.003213
1150	0.0026502
1162	0.0017346
1174	0.0012978
1186	0.0014238
1198	0.0019236
1210	0.0027636
1222	0.003654
1234	0.0034104
1246	0.0026292
1258	0.0021756
1270	0.0017304
1282	0.0015162
1294	0.0013524
1306	0.0012138
1318	0.0013608
1330	0.0016212
1342	0.0018942
1354	0.0023352
1366	0.0029232
1378	0.003192
1390	0.0025872
1402	0.001491
1414	0.001071
1426	0.0015666
1438	0.0029484
1450	0.0041748
1462	0.0037086
1474	0.0021882
1486	0.0009744
1498	0.0004704
1510	0.0003234
1522	0.0001974
1534	0.00021
1546	0.000189
1558	0.0001134
1570	0.0001554
1582	0.0001512
1594	0.0001344
1606	0.0001302
1618	0.000105
1630	0.0001134
1642	9.24e-05
1654	3.78e-05
1666	7.98e-05
1678	6.72e-05
1690	5.88e-05
1702	3.36e-05
1714	7.14e-05
1726	8.4e-05
1738	3.78e-05
1750	5.88e-05
1762	7.14e-05
1774	2.94e-05
1786	5.04e-05
1798	3.78e-05
1810	6.3e-05
1822	7.14e-05
1834	5.46e-05
1846	5.88e-05
1858	6.3e-05
1870	5.46e-05
1882	7.56e-05
1894	7.56e-05
1906	6.72e-05
1918	5.04e-05
1930	6.3e-05
1942	6.3e-05
1954	3.36e-05
1966	3.78e-05
1978	3.78e-05
1990	2.52e-05
2002	2.52e-05
2014	3.36e-05
2026	3.36e-05
2038	5.04e-05
2050	2.94e-05
2062	3.36e-05
2074	5.46e-05
2086	6.3e-05
2098	4.62e-05
2110	6.3e-05
2122	6.3e-05
2134	3.78e-05
2146	5.46e-05
2158	4.2e-05
2170	3.78e-05
2182	5.46e-05
2194	7.56e-05
2206	5.88e-05
2218	5.46e-05
2230	5.04e-05
2242	5.46e-05
2254	6.3e-05
2266	5.46e-05
2278	6.3e-05
2290	7.14e-05
2302	5.04e-05
2314	3.78e-05
2326	2.1e-05
2338	2.52e-05
2350	6.72e-05
2362	3.36e-05
2374	6.72e-05
2386	8.4e-05
2398	7.98e-05
2410	8.4e-05
2422	8.82e-05
2434	0.000105
2446	0.000105
2458	9.66e-05
2470	0.0001134
2482	9.66e-05
2494	0.0001008
2506	0.0001218
2518	0.0001302
2530	0.0001344
2542	0.0001554
2554	0.0001806
2566	0.0001932
2578	0.0002184
2590	0.0002436
2602	0.0002898
2614	0.0003612
2626	0.0004074
2638	0.0004746
2650	0.0005628
2662	0.0006468
2674	0.0007224
2686	0.000714
2698	0.0006804
2710	0.0006552
2722	0.0006342
2734	0.0006048
2746	0.0006594
2758	0.0006804
2770	0.0007602
2782	0.0008274
2794	0.0009618
2806	0.0011886
2818	0.0015036
2830	0.002394
2842	0.0052878
2854	0.0110082
2866	0.0146496
2878	0.0156744
2890	0.016149
2902	0.0165438
2914	0.0244356
2926	0.0374976
2938	0.0408366
2950	0.0265986
2962	0.0155946
2974	0.011697
2986	0.0052962
2998	0.0020034
3010	0.0011886
3022	0.000882
3034	0.000735
3046	0.000588
3058	0.0005124
3070	0.0004914
3082	0.000399
3094	0.0003654
3106	0.0002898
3118	0.000273
3130	0.0002982
3142	0.0002856
3154	0.0002478
3166	0.0001974
3178	0.000147
3190	0.0001092
3202	7.14e-05
3214	7.56e-05
3226	4.62e-05
3238	2.94e-05
3250	4.2e-06
3262	3.36e-05
3274	9.66e-05
3286	8.4e-05
3298	7.98e-05
3310	0.000105
3322	7.56e-05
3334	5.88e-05
3346	7.14e-05
3358	6.72e-05
3370	7.98e-05
3382	0.0001092
3394	0.0001302
3406	9.66e-05
3418	0.000105
3430	0.0001344
3442	0.0001008
3454	5.88e-05
3466	8.82e-05
3478	9.66e-05
3490	5.88e-05
3502	5.04e-05
3514	6.72e-05
3526	0.000147
3538	0.0001008
3550	9.24e-05
3562	8.82e-05
3574	4.62e-05
3586	6.72e-05
3598	8.4e-05
3610	0.0001722
3622	0.0002646
3634	0.0007896
3646	0.001869
3658	0.0020622
3670	0.0008652
3682	0.0003612
3694	0.0001932
3706	8.4e-05
3718	0.0001008
3730	7.56e-05
3742	5.04e-05
3754	4.2e-05
3766	7.98e-05
3778	0.0001764
3790	0.0001722
3802	0.0001302
3814	0.0001344
3826	0.0001512
3838	0.0001344
