Infrared Spectrum: m-(Trifluoromethyl)benzoic acid
Formula: C 8 H 5 F 3 O 2
CAS: 454-92-2
State: gas
Origin: EPA-IR VAPOR PHASE LIBRARY
1/CM	ABSORBANCE
549.8	0.0183869
559.445	0.0205369
569.09	0.0170169
578.734	0.0114869
588.379	0.0106269
598.024	0.0086869
607.669	0.0112169
617.313	0.0214469
626.958	0.0453069
636.603	0.0454069
646.248	0.0140369
655.893	0.0404769
665.537	0.0448269
675.182	0.0081269
684.827	0.0105269
694.472	0.0206769
704.116	0.0137269
713.761	0.0054469
723.406	0.0034569
733.051	0.0067369
742.695	0.0161369
752.34	0.0332869
761.985	0.0425469
771.63	0.0201669
781.275	0.0065369
790.919	0.0041669
800.564	0.0049069
810.209	0.0066169
819.854	0.0060269
829.498	0.0041869
839.143	0.0068869
848.788	0.0044369
858.433	0.0015669
868.078	0.0015069
877.722	0.0015469
887.367	0.0012469
897.012	0.0014769
906.657	0.0032369
916.301	0.0073269
925.946	0.0089369
935.591	0.0053069
945.236	0.0023669
954.88	0.0017069
964.525	0.0020469
974.17	0.0025769
983.815	0.0023169
993.46	0.0022869
1003.1	0.0027769
1012.75	0.0032769
1022.39	0.0046369
1032.04	0.0060269
1041.68	0.0079769
1051.33	0.0151769
1060.97	0.0410369
1070.62	0.0829469
1080.26	0.0790269
1089.91	0.0540869
1099.55	0.0598269
1109.2	0.0381369
1118.84	0.0357269
1128.49	0.0516269
1138.13	0.111727
1147.78	0.212697
1157.42	0.229667
1167.07	0.210307
1176.71	0.255427
1186.36	0.207197
1196	0.0858169
1205.64	0.0390869
1215.29	0.0247869
1224.93	0.0202969
1234.58	0.0208969
1244.22	0.0207069
1253.87	0.0188169
1263.51	0.0227869
1273.16	0.0459069
1282.8	0.0751169
1292.45	0.0750369
1302.09	0.109647
1311.74	0.123157
1321.38	0.146147
1331.03	0.112797
1340.67	0.0494869
1350.32	0.0392769
1359.96	0.0466069
1369.61	0.0425569
1379.25	0.0243169
1388.9	0.0138869
1398.54	0.0076869
1408.18	0.0048469
1417.83	0.0044469
1427.47	0.0062369
1437.12	0.0101669
1446.76	0.0088569
1456.41	0.0042169
1466.05	0.0027369
1475.7	0.0028369
1485.34	0.0034669
1494.99	0.0031769
1504.63	0.0021369
1514.28	0.0017869
1523.92	0.0015669
1533.57	0.0012269
1543.21	0.0010787
1552.86	0.0011169
1562.5	0.0012969
1572.15	0.0018569
1581.79	0.0025569
1591.44	0.0039769
1601.08	0.0059269
1610.73	0.0083769
1620.37	0.0095969
1630.01	0.0065969
1639.66	0.0039069
1649.3	0.0023269
1658.95	0.0017169
1668.59	0.0019569
1678.24	0.0023069
1687.88	0.0027969
1697.53	0.0037869
1707.17	0.0070369
1716.82	0.0130069
1726.46	0.0129669
1736.11	0.0129669
1745.75	0.0273169
1755.4	0.104217
1765.04	0.239457
1774.69	0.135877
1784.33	0.0245369
1793.98	0.0096869
1803.62	0.0100769
1813.27	0.0129969
1822.91	0.0088969
1832.55	0.0042169
1842.2	0.0029069
1851.84	0.0023569
1861.49	0.0019669
1871.13	0.0016969
1880.78	0.0017369
1890.42	0.0021569
1900.07	0.0021369
1909.71	0.0026269
1919.36	0.0030069
1929	0.0020269
1938.65	0.0011469
1948.29	0.0009202
1957.94	0.0011169
1967.58	0.0013969
1977.23	0.0011369
1986.87	0.0008343
1996.52	0.000842
2006.16	0.0009563
2015.81	0.0008725
2025.45	0.0007403
2035.1	0.0005515
2044.74	0.0004413
2054.38	0.000423
2064.03	0.0004641
2073.67	0.0003508
2083.32	0.0002306
2092.96	0.0002234
2102.61	0.0001996
2112.25	0.0002347
2121.9	0.0003437
2131.54	0.0004991
2141.19	0.0005856
2150.83	0.0006913
2160.48	0.0007759
2170.12	0.0009323
2179.77	0.0009348
2189.41	0.000812
2199.06	0.0006649
2208.7	0.0006895
2218.35	0.0006942
2227.99	0.0007576
2237.64	0.00073
2247.28	0.0008172
2256.92	0.0008595
2266.57	0.0008303
2276.21	0.0009665
2285.86	0.0011269
2295.5	0.0009463
2305.15	0.0006803
2314.79	0.0006879
2324.44	0.0009024
2334.08	0.0009868
2343.73	0.0011369
2353.37	0.0010816
2363.02	0.0008924
2372.66	0.0007353
2382.31	0.000568
2391.95	0.0005564
2401.6	0.0004949
2411.24	0.0005004
2420.89	0.0005558
2430.53	0.0005439
2440.18	0.0006433
2449.82	0.000587
2459.47	0.0005082
2469.11	0.0004788
2478.75	0.0004411
2488.4	0.0004403
2498.04	0.0003617
2507.69	0.0004038
2517.33	0.0003364
2526.98	0.0002294
2536.62	0.0002997
2546.27	0.0002251
2555.91	0.00018523
2565.56	0.0002072
2575.2	0.0002217
2584.85	0.0002537
2594.49	0.0003123
2604.14	0.0004171
2613.78	0.0004141
2623.43	0.0003541
2633.07	0.00017661
2642.72	0.00018077
2652.36	0.00019664
2662.01	0.0002301
2671.65	0.0001993
2681.29	0.00017738
2690.94	8.761e-05
2700.58	3.75e-05
2710.23	8.59e-05
2719.87	8.64e-05
2729.52	0.0001369
2739.16	0.0002232
2748.81	0.0002376
2758.45	0.000229
2768.1	0.0002387
2777.74	0.000233
2787.39	0.000226
2797.03	0.0003037
2806.68	0.00018575
2816.32	0.00018847
2825.97	0.00017171
2835.61	0.0002374
2845.26	0.0002704
2854.9	0.0003463
2864.55	0.0004471
2874.19	0.0002635
2883.84	0.000214
2893.48	0.00013556
2903.12	0.0003681
2912.77	0.0002346
2922.41	0.0004441
2932.06	0.0005095
2941.7	0.0006576
2951.35	0.0006256
2960.99	0.000625
2970.64	0.0006394
2980.28	0.0005709
2989.93	0.000329
2999.57	0.0003467
3009.22	0.0003901
3018.86	0.0005245
3028.51	0.0006425
3038.15	0.0006258
3047.8	0.0010134
3057.44	0.0014369
3067.09	0.0022069
3076.73	0.0041269
3086.38	0.0051469
3096.02	0.0034869
3105.67	0.0011969
3115.31	0.0007106
3124.95	0.0006222
3134.6	0.0002708
3144.24	0.0002868
3153.89	0.00016657
3163.53	0.0002066
3173.18	0.00019626
3182.82	0.0002372
3192.47	0.0003018
3202.11	0.0003273
3211.76	0.000356
3221.4	0.00019504
3231.05	0.0002098
3240.69	0.00012275
3250.34	0.0002517
3259.98	9.9406e-05
3269.63	0.00013549
3279.27	0.0002159
3288.92	0.00015152
3298.56	0.00012621
3308.21	0.00011684
3317.85	0.00011988
3327.49	7.54e-05
3337.14	0.0003241
3346.78	0.0003155
3356.43	0.0003558
3366.07	0.0003676
3375.72	0.0003775
3385.36	0.0003442
3395.01	0.0003699
3404.65	0.0002477
3414.3	0.0003031
3423.94	0.0002979
3433.59	0.000349
3443.23	0.0002515
3452.88	0.0004898
3462.52	0.0005514
3472.17	0.0005163
3481.81	0.0004906
3491.46	0.0006036
3501.1	0.0012269
3510.75	0.0021569
3520.39	0.0021469
3530.04	0.0014169
3539.68	0.0011769
3549.32	0.0015969
3558.97	0.0036469
3568.61	0.0176869
3578.26	0.0709969
3587.9	0.0678969
3597.55	0.0117469
3607.19	0.0023869
3616.84	0.0012469
3626.48	0.0009073
3636.13	0.000856
3645.77	0.0004808
3655.42	0.0003987
3665.06	0.0004039
3674.71	0.000402
3684.35	0.0004273
3694	0.000561
3703.64	0.0007615
3713.29	0.0004265
3722.93	0.0003834
3732.58	0.000513
3742.22	0.0005449
3751.86	0.0005275
3761.51	0.0003435
3771.15	0.0003161
3780.8	0.0003237
3790.44	0.0004352
3800.09	0.000246
3809.73	0.0002594
3819.38	0.0003716
3829.02	0.0003726
3838.67	0.0004325
3848.31	0.00017346
3857.96	0.0003508
3867.6	0.0002418
3877.25	0.0003337
3886.89	0.0003485
3896.54	0.0002313
3906.18	0.0001994
3915.83	0.0002668
3925.47	0.0003037
3935.12	0.0002613
3944.76	0.0002737
3954.41	0.0002368
3964.05	0.0004206
3973.69	0.0003226
3983.34	0.0004631
3992.98	0.0003589
