Infrared Spectrum: m-(FLUOROSULFONYL)BENZOIC ACID
Formula: C7 H5 F O4 S
CAS: 454-95-5
State: SOLID (SPLIT MULL), FLUOROLUBE FOR 3800-1330 CM^-^1, NUJOL FOR 1330-460 CM^-^1
Class: COBLENTZ III
Instrument: DOW KBr FOREPRISM-GRATING
Instrument parameters: BLAZED AT 3.5, 12.0, 20.0 MICRON AND CHANGED AT 5.0, 7.5, 14.9 MICRON
Sampling: TRANSMISSION
Resolution: 2
Origin: DOW CHEMICAL COMPANY
1/CM	TRANSMITTANCE
469.175	0.829
477.858	0.849
486.541	0.853
495.224	0.837
503.907	0.826
512.59	0.868
521.274	0.878
529.957	0.853
538.64	0.747
547.323	0.547
556.006	0.308
564.689	0.383
573.372	0.579
582.055	0.49
590.738	0.009
599.421	0.072
608.104	0.744
616.787	0.831
625.471	0.913
634.154	0.948
642.837	0.939
651.52	0.857
660.203	0.05
668.886	0.782
677.569	0.245
686.252	0.9
694.935	0.967
703.618	0.946
712.301	0.818
720.984	0.392
729.668	0.233
738.351	0.599
747.034	0.543
755.717	0.051
764.4	0.314
773.083	0.157
781.766	0.154
790.449	0.131
799.132	0.042
807.815	0.217
816.498	0.592
825.182	0.523
833.865	0.693
842.548	0.711
851.231	0.661
859.914	0.221
868.597	0.289
877.28	0.674
885.963	0.724
894.646	0.68
903.329	0.612
912.012	0.523
920.695	0.422
929.379	0.497
938.062	0.515
946.745	0.616
955.428	0.565
964.111	0.71
972.794	0.771
981.477	0.806
990.16	0.826
998.843	0.752
1007.53	0.786
1016.21	0.819
1024.89	0.816
1033.58	0.815
1042.26	0.819
1050.94	0.826
1059.62	0.818
1068.31	0.77
1076.99	0.588
1085.67	0.579
1094.36	0.241
1103.04	0.65
1111.72	0.77
1120.41	0.762
1129.09	0.71
1137.77	0.55
1146.46	0.312
1155.14	0.665
1163.82	0.673
1172.5	0.319
1181.19	0.494
1189.87	0.474
1198.55	0.353
1207.24	0.061
1215.92	0.009
1224.6	0.02
1233.29	0.371
1241.97	0.441
1250.65	0.5
1259.34	0.489
1268.02	0.42
1276.7	0.263
1285.39	0.096
1294.07	0.017
1302.75	0.039
1311.43	0.114
1320.12	0.161
1328.8	0.278
1337.48	0.625
1346.17	0.681
1354.85	0.728
1363.53	0.734
1372.22	0.691
1380.9	0.613
1389.58	0.508
1398.27	0.306
1406.95	0.161
1415.63	0.025
1424.31	0.054
1433	0.262
1441.68	0.357
1450.36	0.2701
1459.05	0.653
1467.73	0.78
1476.41	0.883
1485.1	0.79
1493.78	0.948
1502.46	0.961
1511.15	0.95
1519.83	0.953
1528.51	0.953
1537.19	0.935
1545.88	0.898
1554.56	0.862
1563.24	0.834
1571.93	0.743
1580.61	0.576
1589.29	0.737
1597.98	0.58
1606.66	0.203
1615.34	0.81
1624.03	0.789
1632.71	0.736
1641.39	0.674
1650.07	0.621
1658.76	0.591
1667.44	0.484
1676.12	0.311
1684.81	0.148
1693.49	0.016
1702.17	0.005
1710.86	0.025
1719.54	0.207
1728.22	0.412
1736.91	0.771
1745.59	0.905
1754.27	0.96
1762.95	0.96
1771.64	0.933
1780.32	0.92
1789	0.919
1797.69	0.913
1806.37	0.911
1815.05	0.905
1823.74	0.896
1832.42	0.893
1841.1	0.916
1849.79	0.923
1858.47	0.916
1867.15	0.912
1875.83	0.911
1884.52	0.911
1893.2	0.904
1901.88	0.897
1910.57	0.901
1919.25	0.901
1927.93	0.896
1936.62	0.885
1945.3	0.863
1953.98	0.866
1962.67	0.886
1971.35	0.897
1980.03	0.898
1988.72	0.935
1997.4	0.935
2006.08	0.9281
2014.76	0.923
2023.45	0.9312
2032.13	0.9437
2040.81	0.948
2049.5	0.9474
2058.18	0.9427
2066.86	0.9378
2075.55	0.9293
2084.23	0.9198
2092.91	0.912
2101.6	0.9076
2110.28	0.9007
2118.96	0.8939
2127.64	0.882
2136.33	0.872
2145.01	0.855
2153.69	0.8464
2162.38	0.8402
2171.06	0.8363
2179.74	0.8313
2188.43	0.825
2197.11	0.8212
2205.79	0.815
2214.48	0.814
2223.16	0.808
2231.84	0.8004
2240.52	0.7912
2249.21	0.7793
2257.89	0.7714
2266.57	0.7595
2275.26	0.7456
2283.94	0.7338
2292.62	0.725
2301.31	0.7155
2309.99	0.7026
2318.67	0.6884
2327.36	0.6791
2336.04	0.668
2344.72	0.6603
2353.4	0.6508
2362.09	0.646
2370.77	0.6429
2379.45	0.637
2388.14	0.6359
2396.82	0.6309
2405.5	0.618
2414.19	0.6121
2422.87	0.5943
2431.55	0.5871
2440.24	0.5773
2448.92	0.5696
2457.6	0.5602
2466.28	0.5399
2474.97	0.5273
2483.65	0.5086
2492.33	0.4903
2501.02	0.4664
2509.7	0.4511
2518.38	0.4393
2527.07	0.4208
2535.75	0.3989
2544.43	0.3781
2553.12	0.3518
2561.8	0.337
2570.48	0.3374
2579.16	0.3735
2587.85	0.4056
2596.53	0.4423
2605.21	0.4432
2613.9	0.4223
2622.58	0.4074
2631.26	0.398
2639.95	0.3929
2648.63	0.3772
2657.31	0.346
2666	0.3369
2674.68	0.325
2683.36	0.325
2692.05	0.3456
2700.73	0.3768
2709.41	0.4323
2718.09	0.4514
2726.78	0.4538
2735.46	0.4532
2744.14	0.4453
2752.83	0.4314
2761.51	0.4126
2770.19	0.4037
2778.88	0.3881
2787.56	0.3704
2796.24	0.3579
2804.93	0.3383
2813.61	0.316
2822.29	0.3035
2830.97	0.2981
2839.66	0.2942
2848.34	0.2913
2857.02	0.289
2865.71	0.2906
2874.39	0.292
2883.07	0.29
2891.76	0.288
2900.44	0.2892
2909.12	0.2996
2917.81	0.3153
2926.49	0.3306
2935.17	0.3451
2943.85	0.3571
2952.54	0.359
2961.22	0.3481
2969.9	0.3332
2978.59	0.3181
2987.27	0.316
2995.95	0.316
3004.64	0.316
3013.32	0.316
3022	0.316
3030.69	0.3251
3039.37	0.34
3048.05	0.3523
3056.73	0.357
3065.42	0.3556
3074.1	0.359
3082.78	0.3245
3091.47	0.3126
3100.15	0.3435
3108.83	0.3926
3117.52	0.375
3126.2	0.4154
3134.88	0.4573
3143.57	0.4887
3152.25	0.5097
3160.93	0.5329
3169.61	0.5562
3178.3	0.5734
3186.98	0.5902
3195.66	0.6023
3204.35	0.6181
3213.03	0.6331
3221.71	0.646
3230.4	0.6609
3239.08	0.6729
3247.76	0.6849
3256.45	0.6976
3265.13	0.7068
3273.81	0.7166
3282.49	0.7235
3291.18	0.7297
3299.86	0.7354
3308.54	0.74
3317.23	0.743
3325.91	0.743
3334.59	0.7446
3343.28	0.7461
3351.96	0.75
3360.64	0.7529
3369.33	0.756
3378.01	0.7568
3386.69	0.758
3395.37	0.758
3404.06	0.756
3412.74	0.755
3421.42	0.754
3430.11	0.752
3438.79	0.751
3447.47	0.7497
3456.16	0.747
3464.84	0.744
3473.52	0.7429
3482.21	0.74
3490.89	0.737
3499.57	0.7341
3508.26	0.7321
3516.94	0.7291
3525.62	0.7263
3534.3	0.7242
3542.99	0.722
3551.67	0.719
3560.35	0.7173
3569.04	0.715
3577.72	0.713
3586.4	0.71
3595.09	0.7078
3603.77	0.706
3612.45	0.703
3621.14	0.7
3629.82	0.6985
3638.5	0.6956
3647.18	0.693
3655.87	0.692
3664.55	0.689
3673.23	0.687
3681.92	0.683
3690.6	0.6795
3699.28	0.676
3707.97	0.674
3716.65	0.672
3725.33	0.6699
3734.02	0.668
3742.7	0.6659
3751.38	0.661
3760.06	0.658
3768.75	0.657
3777.43	0.6531
3786.11	0.65
3794.8	0.65
3803.48	0.65
