Infrared Spectrum: 2,2,5,5,-Tetramethylcyclopentanone
Formula: C 9 H 16 O
CAS: 4541-35-9
State: gas
Instrument: HP-GC/MS/IRD
Origin: NIST Mass Spectrometry Data Center
1/CM	ABSORBANCE
550	0.001197
562	0.000441
574	0.0003024
586	0.0004284
598	0.0002268
610	0.0001008
622	7.56e-05
634	0.000105
646	3.36e-05
658	0.0001848
670	9.66e-05
682	0.000105
694	5.46e-05
706	0.0001302
718	0.0001344
730	0.0001554
742	0.0003696
754	0.0003318
766	0.0001932
778	0.000168
790	0.0001218
802	0.0001722
814	0.0002058
826	0.0005418
838	0.0006174
850	0.0004872
862	0.000609
874	0.0015456
886	0.0026922
898	0.001764
910	0.0007014
922	0.0004536
934	0.0005082
946	0.0008736
958	0.0012096
970	0.0011844
982	0.0011256
994	0.0018774
1006	0.0050946
1018	0.0130242
1030	0.0129066
1042	0.0049476
1054	0.0020496
1066	0.0012978
1078	0.0014742
1090	0.001323
1102	0.0007056
1114	0.0007728
1126	0.0010584
1138	0.0008568
1150	0.0004872
1162	0.0004578
1174	0.000399
1186	0.0004872
1198	0.0007266
1210	0.0015582
1222	0.0026292
1234	0.0027636
1246	0.00231
1258	0.0023646
1270	0.001428
1282	0.0005838
1294	0.000546
1306	0.001029
1318	0.0016926
1330	0.0012222
1342	0.0008358
1354	0.0022008
1366	0.0051366
1378	0.0062076
1390	0.004767
1402	0.0017472
1414	0.0009408
1426	0.0010752
1438	0.0018942
1450	0.005082
1462	0.0092358
1474	0.0073416
1486	0.002961
1498	0.001029
1510	0.0006468
1522	0.0004704
1534	0.0003738
1546	0.000315
1558	0.0002394
1570	0.000231
1582	0.0002352
1594	0.0002898
1606	0.0003066
1618	0.0003066
1630	0.0003738
1642	0.0003612
1654	0.0003948
1666	0.000441
1678	0.0006132
1690	0.0009576
1702	0.001386
1714	0.0022638
1726	0.0080388
1738	0.0222432
1750	0.0253638
1762	0.0110208
1774	0.0045276
1786	0.0027258
1798	0.0015582
1810	0.0008064
1822	0.0004494
1834	0.000357
1846	0.000294
1858	0.0002436
1870	0.0001848
1882	0.00021
1894	0.0002478
1906	0.0003318
1918	0.0003024
1930	0.0001806
1942	0.0001302
1954	0.0001008
1966	0.0001092
1978	8.4e-05
1990	7.56e-05
2002	6.72e-05
2014	6.3e-05
2026	7.98e-05
2038	0.0001176
2050	0.0001386
2062	6.72e-05
2074	5.88e-05
2086	3.78e-05
2098	6.72e-05
2110	6.72e-05
2122	8.82e-05
2134	7.98e-05
2146	9.66e-05
2158	7.56e-05
2170	3.78e-05
2182	3.78e-05
2194	5.04e-05
2206	6.72e-05
2218	7.98e-05
2230	3.36e-05
2242	7.56e-05
2254	7.56e-05
2266	0.0001008
2278	0.0001134
2290	0.000105
2302	9.24e-05
2314	7.14e-05
2326	7.56e-05
2338	2.94e-05
2350	5.04e-05
2362	6.3e-05
2374	5.88e-05
2386	9.24e-05
2398	0.000105
2410	0.000126
2422	6.72e-05
2434	7.98e-05
2446	6.72e-05
2458	7.56e-05
2470	6.72e-05
2482	6.72e-05
2494	5.46e-05
2506	4.62e-05
2518	2.1e-05
2530	7.56e-05
2542	5.46e-05
2554	8.4e-05
2566	0.0001092
2578	6.72e-05
2590	7.56e-05
2602	0.0001302
2614	0.0001554
2626	0.0001554
2638	0.0001302
2650	0.0001092
2662	0.0001092
2674	0.000126
2686	0.0001974
2698	0.00021
2710	0.000273
2722	0.0003318
2734	0.000378
2746	0.000378
2758	0.0004452
2770	0.0005082
2782	0.0005334
2794	0.0005796
2806	0.000735
2818	0.0009702
2830	0.0012348
2842	0.0017262
2854	0.0033894
2866	0.0098826
2878	0.0158214
2890	0.0124656
2902	0.0100464
2914	0.0107352
2926	0.0148218
2938	0.0239736
2950	0.0354942
2962	0.042
2974	0.0329994
2986	0.0148386
2998	0.004368
3010	0.0015582
3022	0.0009492
3034	0.0006678
3046	0.0005796
3058	0.0005208
3070	0.0005208
3082	0.0005418
3094	0.000588
3106	0.0005418
3118	0.0005208
3130	0.0004578
3142	0.0004956
3154	0.0005334
3166	0.000504
3178	0.0004746
3190	0.00042
3202	0.0002604
3214	0.0002016
3226	0.0001554
3238	9.66e-05
3250	7.98e-05
3262	2.94e-05
3274	6.72e-05
3286	5.04e-05
3298	7.56e-05
3310	9.24e-05
3322	0.000168
3334	0.0001554
3346	0.0001218
3358	5.46e-05
3370	1.26e-05
3382	4.62e-05
3394	2.94e-05
3406	8.4e-06
3418	2.94e-05
3430	8.4e-06
3442	9.24e-05
3454	0.0002436
3466	0.0005082
3478	0.0005922
3490	0.0004032
3502	0.0002268
3514	0.000252
3526	0.0001134
3538	5.88e-05
3550	9.66e-05
3562	3.78e-05
3574	9.66e-05
3586	6.72e-05
3598	6.72e-05
3610	7.56e-05
3622	5.04e-05
3634	4.2e-05
3646	0.0001092
3658	4.62e-05
3670	5.04e-05
3682	0.000105
3694	3.36e-05
3706	7.98e-05
3718	0.0001176
3730	0.000105
3742	0.000126
3754	0.0001008
3766	0.0001302
3778	6.72e-05
3790	9.66e-05
3802	0.0001344
3814	0.0001428
3826	0.0001722
3838	0.0001764
