Infrared Spectrum: 2,2-Dimethylcyclopentanone
Formula: C 7 H 12 O
CAS: 4541-32-6
State: gas
Instrument: HP-GC/MS/IRD
Origin: NIST Mass Spectrometry Data Center
1/CM	ABSORBANCE
550	5.04e-05
562	0.0002058
574	0.0001785
586	9.24e-05
598	2.52e-05
610	6.51e-05
622	0.0001008
634	0.0001155
646	4.62e-05
658	7.35e-05
670	0.0001722
682	0.0001554
694	0.0001008
706	4.41e-05
718	4.41e-05
730	2.31e-05
742	0
754	2.31e-05
766	0.0001638
778	0.0004809
790	0.0008148
802	0.0008064
814	0.0004158
826	0.0002331
838	0.0001365
850	9.45e-05
862	0.0001113
874	0.0001575
886	0.0002079
898	0.0002961
910	0.0003906
922	0.0005103
934	0.0005397
946	0.0006342
958	0.000525
970	0.0003087
982	0.0002625
994	0.0004137
1006	0.0005586
1018	0.0006846
1030	0.0008064
1042	0.0012012
1054	0.0019698
1066	0.0038346
1078	0.0048867
1090	0.0034356
1102	0.001302
1114	0.0006825
1126	0.000588
1138	0.0007539
1150	0.0013377
1162	0.0016527
1174	0.0011865
1186	0.0006657
1198	0.0008232
1210	0.001008
1222	0.0008694
1234	0.0007791
1246	0.0009198
1258	0.0010941
1270	0.0009471
1282	0.0004746
1294	0.0004074
1306	0.0006594
1318	0.0008358
1330	0.0006258
1342	0.0004452
1354	0.0007791
1366	0.0016023
1378	0.00168
1390	0.0014826
1402	0.0013881
1414	0.0015099
1426	0.0013188
1438	0.0011004
1450	0.0018942
1462	0.0028476
1474	0.0025473
1486	0.0014658
1498	0.000504
1510	0.0002247
1522	0.0001449
1534	0.0001008
1546	0.0001008
1558	6.93e-05
1570	0.0001176
1582	0.0001176
1594	0.0001239
1606	0.0001323
1618	0.0001323
1630	0.0001554
1642	0.0001848
1654	0.0002331
1666	0.0003066
1678	0.0004305
1690	0.0006153
1702	0.0008715
1714	0.0014364
1726	0.0034104
1738	0.01071
1750	0.019236
1762	0.0180054
1774	0.0071463
1786	0.0017766
1798	0.0009807
1810	0.000735
1822	0.0005901
1834	0.0003864
1846	0.0002751
1858	0.0002142
1870	0.0001995
1882	0.0002121
1894	0.0001407
1906	0.0001428
1918	0.0001386
1930	0.0001386
1942	0.0001323
1954	0.000126
1966	0.0001092
1978	9.66e-05
1990	0.0001008
2002	7.56e-05
2014	5.88e-05
2026	6.51e-05
2038	9.03e-05
2050	7.35e-05
2062	6.09e-05
2074	2.52e-05
2086	2.94e-05
2098	3.15e-05
2110	4.2e-05
2122	5.88e-05
2134	5.88e-05
2146	5.04e-05
2158	7.56e-05
2170	3.99e-05
2182	6.72e-05
2194	7.14e-05
2206	6.72e-05
2218	6.51e-05
2230	7.98e-05
2242	9.45e-05
2254	7.14e-05
2266	9.03e-05
2278	6.51e-05
2290	8.61e-05
2302	7.35e-05
2314	6.09e-05
2326	6.3e-05
2338	4.2e-05
2350	3.57e-05
2362	3.57e-05
2374	3.99e-05
2386	3.57e-05
2398	4.62e-05
2410	4.83e-05
2422	7.56e-05
2434	6.3e-05
2446	4.41e-05
2458	5.04e-05
2470	4.83e-05
2482	3.99e-05
2494	3.99e-05
2506	2.52e-05
2518	3.57e-05
2530	0
2542	1.47e-05
2554	4.41e-05
2566	6.3e-05
2578	5.67e-05
2590	7.35e-05
2602	5.25e-05
2614	9.24e-05
2626	6.93e-05
2638	7.35e-05
2650	7.14e-05
2662	7.56e-05
2674	7.77e-05
2686	9.66e-05
2698	8.61e-05
2710	0.0001113
2722	0.0001491
2734	0.0001953
2746	0.0002016
2758	0.000231
2770	0.0002604
2782	0.0002457
2794	0.0003108
2806	0.0004305
2818	0.0005313
2830	0.0006342
2842	0.0008883
2854	0.0017682
2866	0.0037107
2878	0.0054432
2890	0.0055482
2902	0.0050442
2914	0.0052017
2926	0.0065646
2938	0.0086982
2950	0.012054
2962	0.0172284
2974	0.016758
2986	0.0088158
2998	0.0026649
3010	0.0009639
3022	0.0007014
3034	0.0005796
3046	0.0004494
3058	0.0003486
3070	0.0002667
3082	0.0002835
3094	0.0002625
3106	0.0002667
3118	0.0002457
3130	0.0002121
3142	0.0002163
3154	0.0002373
3166	0.0002352
3178	0.0002352
3190	0.0001785
3202	0.0001365
3214	0.0001596
3226	0.0001176
3238	7.77e-05
3250	7.98e-05
3262	7.77e-05
3274	0.0001134
3286	6.3e-05
3298	9.03e-05
3310	0.0001134
3322	6.93e-05
3334	0.0001428
3346	9.45e-05
3358	7.14e-05
3370	2.31e-05
3382	3.36e-05
3394	4.2e-05
3406	6.3e-05
3418	5.88e-05
3430	0.000105
3442	0.0001113
3454	0.0001344
3466	0.0002268
3478	0.000357
3490	0.0004578
3502	0.000399
3514	0.0001701
3526	0.0001596
3538	9.87e-05
3550	7.56e-05
3562	6.3e-05
3574	3.57e-05
3586	6.72e-05
3598	1.89e-05
3610	2.94e-05
3622	6.3e-05
3634	9.24e-05
3646	2.31e-05
3658	5.46e-05
3670	4.62e-05
3682	4.2e-05
3694	4.62e-05
3706	2.1e-05
3718	5.67e-05
3730	4.2e-05
3742	4.41e-05
3754	2.52e-05
3766	4.41e-05
3778	4.83e-05
3790	7.35e-05
3802	8.19e-05
3814	9.45e-05
3826	9.03e-05
3838	4.2e-05
