Infrared Spectrum: DIMETHOXYBORANE
Formula: C2 H7 O2 B
CAS: 4542-61-4
State: VAPOR AT 24.5 mmHg PRESSURE;
Class: COBLENTZ
Instrument: Not specified, most likely a prism, grating, or hybrid spectrometer.
Sampling: TRANSMISSION
Path length: 5 CM
Resolution: 4
Origin: KALLERY CHEMICAL COMPANY
MICROMETERS	TRANSMITTANCE
2.019	0.816
2.05641	0.819
2.09382	0.819
2.13123	0.819
2.16864	0.82
2.20605	0.822
2.24346	0.817
2.28087	0.813
2.31828	0.811
2.35569	0.813
2.3931	0.817
2.43052	0.817
2.46793	0.819
2.50534	0.82
2.54275	0.822
2.58016	0.823
2.61757	0.822
2.65498	0.825
2.69239	0.83
2.7298	0.831
2.76721	0.831
2.80462	0.828
2.84203	0.825
2.87944	0.823
2.91685	0.823
2.95426	0.822
2.99167	0.823
3.02908	0.825
3.06649	0.826
3.1039	0.828
3.14131	0.826
3.17872	0.825
3.21613	0.811
3.25355	0.77
3.29096	0.467
3.32837	0.362
3.36578	0.341
3.40319	0.511
3.4406	0.47
3.47801	0.473
3.51542	0.716
3.55283	0.75
3.59024	0.771
3.62765	0.788
3.66506	0.797
3.70247	0.802
3.73988	0.803
3.77729	0.799
3.8147	0.787
3.85211	0.777
3.88952	0.663
3.92693	0.502
3.96434	0.37
4.00175	0.43
4.03916	0.539
4.07658	0.629
4.11399	0.712
4.1514	0.767
4.18881	0.793
4.22622	0.805
4.26363	0.808
4.30104	0.805
4.33845	0.805
4.37586	0.796
4.41327	0.787
4.45068	0.793
4.48809	0.803
4.5255	0.808
4.56291	0.813
4.60032	0.817
4.63773	0.82
4.67514	0.822
4.71255	0.819
4.74996	0.807
4.78737	0.802
4.82478	0.802
4.8622	0.808
4.89961	0.816
4.93702	0.822
4.97443	0.828
5.01184	0.825
5.04925	0.822
5.08666	0.82
5.12407	0.81
5.16148	0.805
5.19889	0.813
5.2363	0.822
5.27371	0.83
5.31112	0.834
5.34853	0.83
5.38594	0.826
5.42335	0.83
5.46076	0.831
5.49817	0.831
5.53558	0.831
5.57299	0.833
5.6104	0.833
5.64781	0.834
5.68523	0.834
5.72264	0.836
5.76005	0.839
5.79746	0.837
5.83487	0.836
5.87228	0.833
5.90969	0.831
5.9471	0.831
5.98451	0.83
6.02192	0.828
6.05933	0.828
6.09674	0.826
6.13415	0.822
6.17156	0.816
6.20897	0.811
6.24638	0.799
6.28379	0.784
6.3212	0.773
6.35861	0.764
6.39602	0.748
6.43343	0.728
6.47084	0.715
6.50826	0.696
6.54567	0.427
6.58308	0.192
6.62049	0.162
6.6579	0.047
6.69531	0.036
6.73272	0.049
6.77013	0.243
6.80754	0.491
6.84495	0.554
6.88236	0.637
6.91977	0.672
6.95718	0.684
6.99459	0.686
7.032	0.672
7.06941	0.583
7.10682	0.323
7.14423	0.136
7.18164	0.099
7.21905	0.059
7.25646	0.022
7.29387	0.026
7.33129	0.027
7.3687	0.029
7.40611	0.102
7.44352	0.275
7.48093	0.359
7.51834	0.424
7.55575	0.467
7.59316	0.496
7.63057	0.522
7.66798	0.516
7.70539	0.43
7.7428	0.338
7.78021	0.275
7.81762	0.248
7.85503	0.243
7.89244	0.246
7.92985	0.275
7.96726	0.369
8.00467	0.454
8.04208	0.532
8.07949	0.588
8.11691	0.6
8.15432	0.614
8.19173	0.617
8.22914	0.614
8.26655	0.603
8.30396	0.597
8.34137	0.597
8.37878	0.584
8.41619	0.58
8.4536	0.578
8.49101	0.577
8.52842	0.571
8.56583	0.569
8.60324	0.572
8.64065	0.577
8.67806	0.584
8.71547	0.595
8.75288	0.603
8.79029	0.612
8.8277	0.612
8.86511	0.563
8.90252	0.517
8.93994	0.494
8.97735	0.49
9.01476	0.491
9.05217	0.509
9.08958	0.581
9.12699	0.635
9.1644	0.695
9.20181	0.735
9.23922	0.751
9.27663	0.762
9.31404	0.771
9.35145	0.773
9.38886	0.777
9.42627	0.781
9.46368	0.779
9.50109	0.777
9.5385	0.771
9.57591	0.751
9.61332	0.732
9.65073	0.721
9.68814	0.71
9.72555	0.695
9.76297	0.676
9.80038	0.655
9.83779	0.578
9.8752	0.47
9.91261	0.35
9.95002	0.264
9.98743	0.263
10.0248	0.271
10.0622	0.281
10.0997	0.286
10.1371	0.312
10.1745	0.395
10.2119	0.496
10.2493	0.571
10.2867	0.614
10.3241	0.646
10.3615	0.672
10.3989	0.69
10.4364	0.704
10.4738	0.715
10.5112	0.716
10.5486	0.715
10.586	0.71
10.6234	0.696
10.6608	0.663
10.6982	0.646
10.7356	0.627
10.773	0.6
10.8105	0.584
10.8479	0.554
10.8853	0.537
10.9227	0.535
10.9601	0.534
10.9975	0.528
11.0349	0.506
11.0723	0.5
11.1097	0.522
11.1472	0.554
11.1846	0.583
11.222	0.6
11.2594	0.617
11.2968	0.638
11.3342	0.656
11.3716	0.672
11.409	0.698
11.4464	0.716
11.4838	0.732
11.5213	0.75
11.5587	0.765
11.5961	0.777
11.6335	0.791
11.6709	0.797
11.7083	0.805
11.7457	0.81
11.7831	0.816
11.8205	0.82
11.858	0.822
11.8954	0.825
11.9328	0.828
11.9702	0.831
12.0076	0.833
12.045	0.833
12.0824	0.836
12.1198	0.839
12.1572	0.84
12.1946	0.842
12.2321	0.842
12.2695	0.842
12.3069	0.842
12.3443	0.84
12.3817	0.839
12.4191	0.837
12.4565	0.837
12.4939	0.839
12.5313	0.839
12.5687	0.839
12.6062	0.839
12.6436	0.839
12.681	0.837
12.7184	0.836
12.7558	0.836
12.7932	0.837
12.8306	0.836
12.868	0.834
12.9054	0.834
12.9429	0.836
12.9803	0.836
13.0177	0.836
13.0551	0.834
13.0925	0.836
13.1299	0.837
13.1673	0.836
13.2047	0.834
13.2421	0.833
13.2795	0.831
13.317	0.828
13.3544	0.823
13.3918	0.822
13.4292	0.817
13.4666	0.816
13.504	0.813
13.5414	0.807
13.5788	0.802
13.6162	0.8
13.6537	0.797
13.6911	0.797
13.7285	0.796
13.7659	0.794
13.8033	0.791
13.8407	0.787
13.8781	0.785
13.9155	0.784
13.9529	0.781
13.9903	0.774
14.0278	0.774
14.0652	0.774
14.1026	0.773
14.14	0.771
14.1774	0.77
14.2148	0.771
14.2522	0.771
14.2896	0.774
14.327	0.774
14.3645	0.773
14.4019	0.774
14.4393	0.774
14.4767	0.774
14.5141	0.774
14.5515	0.771
14.5889	0.771
14.6263	0.771
14.6637	0.764
14.7011	0.761
14.7386	0.759
14.776	0.756
14.8134	0.751
14.8508	0.747
14.8882	0.745
14.9256	0.742
14.963	0.741
15.0004	0.738
