Infrared Spectrum: 1,10-Dicyanodecane
Formula: C 12 H 20 N 2
CAS: 4543-66-2
State: gas
Instrument: HP-GC/MS/IRD
Origin: NIST Mass Spectrometry Data Center
1/CM	ABSORBANCE
550	0.0001118
562	7.28e-05
574	7.28e-05
586	5.98e-05
598	3.64e-05
610	6.24e-05
622	6.5e-05
634	6.24e-05
646	0.0001664
658	9.1e-05
670	0.0001274
682	0.0001846
694	0.000221
706	0.0004212
718	0.0006448
730	0.000715
742	0.0005616
754	0.0004186
766	0.0002912
778	0.0002574
790	0.0002262
802	0.000221
814	0.000195
826	0.0002106
838	0.000221
850	0.0001742
862	0.0001872
874	0.0001794
886	9.62e-05
898	0.0001352
910	9.36e-05
922	9.36e-05
934	0.000169
946	0.0001326
958	0.000104
970	4.16e-05
982	7.02e-05
994	3.12e-05
1006	7.02e-05
1018	9.36e-05
1030	0.000195
1042	0.000117
1054	0.0001014
1066	0.0001976
1078	0.0001924
1090	0.0001846
1102	0.0001482
1114	0.0001638
1126	0.0002392
1138	0.00026
1150	0.0002522
1162	0.0002808
1174	0.0003666
1186	0.0004368
1198	0.0003978
1210	0.0004186
1222	0.000442
1234	0.0004628
1246	0.000468
1258	0.0004576
1270	0.0005018
1282	0.0005226
1294	0.000637
1306	0.0008112
1318	0.0008892
1330	0.0009646
1342	0.0010868
1354	0.0013182
1366	0.001001
1378	0.000663
1390	0.0004056
1402	0.0004108
1414	0.0006318
1426	0.0013806
1438	0.0026702
1450	0.0027196
1462	0.0030992
1474	0.0017186
1486	0.000611
1498	0.0002808
1510	8.84e-05
1522	6.24e-05
1534	7.02e-05
1546	4.16e-05
1558	5.46e-05
1570	6.24e-05
1582	3.64e-05
1594	4.94e-05
1606	4.94e-05
1618	4.16e-05
1630	4.42e-05
1642	3.9e-05
1654	5.72e-05
1666	4.16e-05
1678	3.64e-05
1690	2.86e-05
1702	1.82e-05
1714	2.08e-05
1726	3.64e-05
1738	3.9e-05
1750	0
1762	3.9e-05
1774	5.2e-06
1786	3.12e-05
1798	3.64e-05
1810	1.56e-05
1822	3.64e-05
1834	2.6e-05
1846	3.38e-05
1858	5.98e-05
1870	4.42e-05
1882	5.2e-05
1894	6.5e-05
1906	2.86e-05
1918	4.42e-05
1930	3.38e-05
1942	5.2e-06
1954	4.16e-05
1966	3.12e-05
1978	5.2e-05
1990	2.6e-05
2002	2.6e-05
2014	5.72e-05
2026	6.76e-05
2038	6.5e-05
2050	6.24e-05
2062	5.2e-05
2074	5.72e-05
2086	4.16e-05
2098	1.04e-05
2110	5.2e-05
2122	3.64e-05
2134	5.46e-05
2146	3.38e-05
2158	7.02e-05
2170	2.6e-05
2182	6.24e-05
2194	5.2e-05
2206	3.38e-05
2218	7.8e-05
2230	0.0001534
2242	0.0003744
2254	0.0005538
2266	0.00026
2278	0.0001222
2290	8.06e-05
2302	6.24e-05
2314	3.9e-05
2326	0
2338	0
2350	2.6e-06
2362	1.82e-05
2374	0
2386	3.64e-05
2398	2.6e-05
2410	3.38e-05
2422	3.12e-05
2434	2.6e-05
2446	1.56e-05
2458	2.6e-06
2470	1.3e-05
2482	3.12e-05
2494	7.8e-06
2506	2.86e-05
2518	2.86e-05
2530	4.68e-05
2542	6.24e-05
2554	4.16e-05
2566	3.64e-05
2578	6.5e-05
2590	9.62e-05
2602	0.000117
2614	0.00013
2626	0.0001482
2638	0.0001456
2650	0.0001976
2662	0.0001846
2674	0.0002002
2686	0.000247
2698	0.0002314
2710	0.0002132
2722	0.0002002
2734	0.0002262
2746	0.0002236
2758	0.0002444
2770	0.0002886
2782	0.0003484
2794	0.0004784
2806	0.0006032
2818	0.0009204
2830	0.0012844
2842	0.0021476
2854	0.0050934
2866	0.0096512
2878	0.0076154
2890	0.0049452
2902	0.005408
2914	0.0092014
2926	0.0181116
2938	0.026
2950	0.0210548
2962	0.012584
2974	0.0052052
2986	0.0022022
2998	0.001235
3010	0.0007722
3022	0.0006084
3034	0.0004394
3046	0.0003536
3058	0.0002678
3070	0.000195
3082	0.0001586
3094	0.0001482
3106	0.0001326
3118	0.000104
3130	9.88e-05
3142	0.000169
3154	0.0001066
3166	0.0001742
3178	0.0001222
3190	9.36e-05
3202	0.0001196
3214	8.58e-05
3226	7.02e-05
3238	0.0001092
3250	6.5e-05
3262	8.06e-05
3274	2.6e-05
3286	6.76e-05
3298	8.58e-05
3310	6.76e-05
3322	6.5e-05
3334	5.46e-05
3346	8.32e-05
3358	0.0001066
3370	2.34e-05
3382	8.06e-05
3394	7.28e-05
3406	5.98e-05
3418	0.000104
3430	0.000117
3442	6.76e-05
3454	0.000104
3466	7.28e-05
3478	2.86e-05
3490	7.54e-05
3502	5.46e-05
3514	0.0001144
3526	8.84e-05
3538	7.02e-05
3550	8.32e-05
3562	8.06e-05
3574	8.06e-05
3586	3.38e-05
3598	9.1e-05
3610	0.0001274
3622	9.1e-05
3634	0.0001248
3646	0.0001534
3658	0.000143
3670	0.00013
3682	0.0001274
3694	0.0001404
3706	0.0001248
3718	7.54e-05
3730	7.02e-05
3742	0.0001534
3754	0.0001196
3766	0.0001352
3778	8.06e-05
3790	9.1e-05
3802	0.0001534
3814	0.0001248
3826	0.0001638
3838	6.24e-05
