Infrared Spectrum: 4-(n-Butoxy)phenylacetic acid
Formula: C 12 H 16 O 3
CAS: 4547-57-3
State: gas
Origin: EPA-IR VAPOR PHASE LIBRARY
1/CM	ABSORBANCE
549.8	0.011121
559.445	0.015331
569.09	0.023161
578.734	0.032691
588.379	0.030661
598.024	0.028291
607.669	0.026741
617.313	0.022081
626.958	0.017871
636.603	0.015101
646.248	0.011701
655.893	0.009441
665.537	0.008311
675.182	0.008151
684.827	0.007211
694.472	0.006831
704.116	0.005281
713.761	0.004551
723.406	0.004091
733.051	0.004141
742.695	0.004161
752.34	0.004611
761.985	0.004701
771.63	0.006471
781.275	0.007751
790.919	0.010561
800.564	0.012461
810.209	0.015531
819.854	0.016181
829.498	0.012561
839.143	0.009181
848.788	0.008421
858.433	0.007731
868.078	0.007961
877.722	0.008381
887.367	0.006971
897.012	0.005351
906.657	0.005141
916.301	0.004981
925.946	0.005321
935.591	0.005731
945.236	0.006611
954.88	0.008121
964.525	0.009811
974.17	0.010751
983.815	0.009941
993.46	0.009751
1003.1	0.012241
1012.75	0.021331
1022.39	0.023051
1032.04	0.021651
1041.68	0.017731
1051.33	0.013681
1060.97	0.019181
1070.62	0.026701
1080.26	0.028931
1089.91	0.040651
1099.55	0.064931
1109.2	0.095221
1118.84	0.085991
1128.49	0.053351
1138.13	0.037171
1147.78	0.025571
1157.42	0.020641
1167.07	0.028761
1176.71	0.048251
1186.36	0.025491
1196	0.026261
1205.64	0.036001
1215.29	0.053301
1224.93	0.069221
1234.58	0.089411
1244.22	0.120111
1253.87	0.083701
1263.51	0.046081
1273.16	0.034311
1282.8	0.034161
1292.45	0.033361
1302.09	0.028241
1311.74	0.021661
1321.38	0.016921
1331.03	0.016181
1340.67	0.017201
1350.32	0.018541
1359.96	0.017961
1369.61	0.015351
1379.25	0.015341
1388.9	0.016541
1398.54	0.010681
1408.18	0.008031
1417.83	0.008581
1427.47	0.009911
1437.12	0.010701
1446.76	0.010331
1456.41	0.011071
1466.05	0.015851
1475.7	0.021711
1485.34	0.015041
1494.99	0.021431
1504.63	0.073351
1514.28	0.107101
1523.92	0.029231
1533.57	0.010931
1543.21	0.006581
1552.86	0.005411
1562.5	0.005731
1572.15	0.006851
1581.79	0.010011
1591.44	0.009981
1601.08	0.015641
1610.73	0.027391
1620.37	0.019101
1630.01	0.006861
1639.66	0.004181
1649.3	0.003281
1658.95	0.002911
1668.59	0.003011
1678.24	0.003061
1687.88	0.003401
1697.53	0.004321
1707.17	0.005281
1716.82	0.007401
1726.46	0.011331
1736.11	0.017881
1745.75	0.030001
1755.4	0.046961
1765.04	0.065091
1774.69	0.088301
1784.33	0.086081
1793.98	0.063631
1803.62	0.040531
1813.27	0.021091
1822.91	0.010941
1832.55	0.006181
1842.2	0.004291
1851.84	0.003481
1861.49	0.003111
1871.13	0.003161
1880.78	0.003211
1890.42	0.002671
1900.07	0.002601
1909.71	0.002071
1919.36	0.001831
1929	0.001691
1938.65	0.001731
1948.29	0.001881
1957.94	0.002051
1967.58	0.001971
1977.23	0.002051
1986.87	0.002131
1996.52	0.002231
2006.16	0.002111
2015.81	0.002091
2025.45	0.002061
2035.1	0.002341
2044.74	0.002141
2054.38	0.001971
2064.03	0.001761
2073.67	0.001801
2083.32	0.001641
2092.96	0.0015387
2102.61	0.0011941
2112.25	0.0013479
2121.9	0.0014
2131.54	0.0012103
2141.19	0.0009487
2150.83	0.001084
2160.48	0.000997
2170.12	0.0011438
2179.77	0.0012044
2189.41	0.0010904
2199.06	0.0011601
2208.7	0.0013004
2218.35	0.0013746
2227.99	0.0012773
2237.64	0.0012085
2247.28	0.0010484
2256.92	0.0011313
2266.57	0.0010963
2276.21	0.0012374
2285.86	0.0010685
2295.5	0.0013131
2305.15	0.0013277
2314.79	0.0014973
2324.44	0.001591
2334.08	0.001581
2343.73	0.0014682
2353.37	0.001701
2363.02	0.001701
2372.66	0.0015131
2382.31	0.0014024
2391.95	0.0013333
2401.6	0.0014544
2411.24	0.0014367
2420.89	0.0013813
2430.53	0.0014051
2440.18	0.0013128
2449.82	0.001671
2459.47	0.001711
2469.11	0.001781
2478.75	0.001641
2488.4	0.001831
2498.04	0.0012788
2507.69	0.0015192
2517.33	0.0015093
2526.98	0.001601
2536.62	0.001741
2546.27	0.0015246
2555.91	0.0012874
2565.56	0.0011423
2575.2	0.0010765
2584.85	0.0010233
2594.49	0.0013912
2604.14	0.0012514
2613.78	0.0009767
2623.43	0.000886
2633.07	0.0007836
2642.72	0.0010146
2652.36	0.0009948
2662.01	0.0009501
2671.65	0.0009367
2681.29	0.0011031
2690.94	0.0009744
2700.58	0.0010084
2710.23	0.0012162
2719.87	0.0013609
2729.52	0.001761
2739.16	0.001871
2748.81	0.002031
2758.45	0.002091
2768.1	0.001751
2777.74	0.002091
2787.39	0.001821
2797.03	0.001931
2806.68	0.002881
2816.32	0.002971
2825.97	0.003681
2835.61	0.005081
2845.26	0.007111
2854.9	0.010081
2864.55	0.014201
2874.19	0.020961
2883.84	0.026341
2893.48	0.023691
2903.12	0.023591
2912.77	0.027781
2922.41	0.032621
2932.06	0.038091
2941.7	0.046331
2951.35	0.045721
2960.99	0.047721
2970.64	0.049141
2980.28	0.030421
2989.93	0.017631
2999.57	0.011851
3009.22	0.009131
3018.86	0.008101
3028.51	0.009561
3038.15	0.012771
3047.8	0.009091
3057.44	0.006061
3067.09	0.006031
3076.73	0.006021
3086.38	0.004601
3096.02	0.004711
3105.67	0.003451
3115.31	0.002581
3124.95	0.002071
3134.6	0.002151
3144.24	0.0012403
3153.89	0.0010121
3163.53	0.0008607
3173.18	0.0010035
3182.82	0.0008028
3192.47	0.0006787
3202.11	0.00058625
3211.76	0.0005404
3221.4	0.00061939
3231.05	0.00063658
3240.69	0.0007122
3250.34	0.0006575
3259.98	0.000341
3269.63	0.0009703
3279.27	0.0007284
3288.92	0.000560963
3298.56	0.0007079
3308.21	0.000414
3317.85	0.0008517
3327.49	0.0008882
3337.14	0.0010034
3346.78	0.0004512
3356.43	0.000363
3366.07	0.000633
3375.72	0.0010968
3385.36	0.00062154
3395.01	0.000551729
3404.65	0.00018
3414.3	0.0007728
3423.94	0.0007913
3433.59	0.0008556
3443.23	0.0004615
3452.88	0.0005884
3462.52	0.000295
3472.17	0.000265
3481.81	0.001427
3491.46	0.00060428
3501.1	0.0012379
3510.75	0.0013832
3520.39	0.001771
3530.04	0.002691
3539.68	0.002581
3549.32	0.006111
3558.97	0.011851
3568.61	0.031731
3578.26	0.038791
3587.9	0.013081
3597.55	0.005231
3607.19	0.002581
3616.84	0.001851
3626.48	0.001601
3636.13	0.0010627
3645.77	0.0012098
3655.42	0.0007068
3665.06	0.0011386
3674.71	0.0007831
3684.35	0.0006843
3694	0.0008963
3703.64	0.0006112
3713.29	0.0009965
3722.93	0.0006785
3732.58	0.0009125
3742.22	0.0010954
3751.86	0.0006935
3761.51	0.0008781
3771.15	0.00064829
3780.8	0.0009177
3790.44	0.000376
3800.09	0.0004971
3809.73	0.0004723
3819.38	0.000989
3829.02	0.0007225
3838.67	0.000556472
3848.31	0.00062037
3857.96	0.0011248
3867.6	0.000403
3877.25	0.0008112
3886.89	0.0007211
3896.54	0.000125
3906.18	0.0004543
3915.83	0.0010767
3925.47	0.0008653
3935.12	0.00059208
3944.76	0.001073
3954.41	0.0007787
3964.05	0.0005645
3973.69	0.0012464
3983.34	0.0009222
3992.98	0.0013641
