Infrared Spectrum: 2-Chloro-5-nitropyridine
Formula: C 5 H 3 Cl N 2 O 2
CAS: 4548-45-2
State: gas
Instrument: HP-GC/MS/IRD
Origin: NIST Mass Spectrometry Data Center
1/CM	ABSORBANCE
550	0.0023715
562	0.0007497
574	0.0001989
586	0
598	0.0002754
610	0.0011169
622	0.0016524
634	0.000918
646	0.0001071
658	0.0003213
670	0.0003978
682	0.0001836
694	0.0009486
706	0.0022032
718	0.0021573
730	0.004284
742	0.0110313
754	0.0139842
766	0.0067932
778	0.0019431
790	0.0013005
802	0.0020043
814	0.0065025
826	0.0156978
838	0.025857
850	0.0568854
862	0.047583
874	0.0041157
886	0.0020043
898	0.0015147
910	0.0014688
922	0.002601
934	0.0044217
946	0.0047889
958	0.0029682
970	0.0020655
982	0.0016524
994	0.0030141
1006	0.0069462
1018	0.008109
1030	0.0052938
1042	0.0047889
1054	0.0059211
1066	0.0054468
1078	0.0048654
1090	0.0112455
1102	0.0486081
1114	0.0508266
1126	0.0706554
1138	0.0720783
1150	0.0067932
1162	0.0023868
1174	0.0016983
1186	0.0018207
1198	0.0028305
1210	0.0037638
1222	0.0057681
1234	0.0087516
1246	0.0095166
1258	0.0080784
1270	0.0141984
1282	0.0066555
1294	0.0034578
1306	0.0045747
1318	0.0130968
1330	0.0420138
1342	0.111399
1354	0.148471
1366	0.0591651
1378	0.0340731
1390	0.0191862
1402	0.0095319
1414	0.0097767
1426	0.0214965
1438	0.0514539
1450	0.0558909
1462	0.0243882
1474	0.011169
1486	0.0092259
1498	0.0106182
1510	0.0201807
1522	0.0450891
1534	0.0655452
1546	0.0646578
1558	0.0625923
1570	0.0780759
1582	0.098226
1594	0.104774
1606	0.069921
1618	0.0214812
1630	0.0065484
1642	0.0054009
1654	0.0055998
1666	0.0042993
1678	0.002601
1690	0.0014994
1702	0.0008262
1714	0.0006732
1726	0.0006885
1738	0.0005661
1750	0.0006273
1762	0.0005355
1774	0.0003672
1786	0.0004131
1798	0.0007497
1810	0.0008262
1822	0.0003519
1834	0.0003825
1846	0.0008415
1858	0.0017442
1870	0.002142
1882	0.002142
1894	0.0012852
1906	0.0005967
1918	0.0005814
1930	0.0009639
1942	0.001071
1954	0.0007344
1966	0.0003978
1978	0.0002448
1990	0.0002907
2002	0.0001836
2014	0.000153
2026	0.0001989
2038	9.18e-05
2050	4.59e-05
2062	6.12e-05
2074	6.12e-05
2086	0.0001071
2098	0.0001683
2110	0.0001836
2122	0.0001377
2134	0.0002295
2146	0.0002448
2158	0.0001224
2170	7.65e-05
2182	7.65e-05
2194	0.0001071
2206	0.000153
2218	0.0001224
2230	0.0002448
2242	0.0003978
2254	0.0004743
2266	0.0004131
2278	0.0003672
2290	0.0002448
2302	0.0001683
2314	0.000153
2326	0.000153
2338	0.0001989
2350	0.0002295
2362	0.0002295
2374	0.0004437
2386	0.0004896
2398	0.0004896
2410	0.0003825
2422	0.0003672
2434	0.000459
2446	0.0007803
2458	0.0010557
2470	0.0013311
2482	0.0017289
2494	0.0016371
2506	0.0009639
2518	0.0004437
2530	0.0001224
2542	4.59e-05
2554	0.0001224
2566	0.0002754
2578	0.0004131
2590	0.0004896
2602	0.0005202
2614	0.0003519
2626	0.0001071
2638	0.000153
2650	0.0002295
2662	0.0004437
2674	0.000765
2686	0.0010251
2698	0.0009792
2710	0.0006273
2722	0.0003825
2734	0.0002142
2746	7.65e-05
2758	0
2770	4.59e-05
2782	6.12e-05
2794	0.0001377
2806	0.0001836
2818	0.0002754
2830	0.0005814
2842	0.0009027
2854	0.0012699
2866	0.0016524
2878	0.0017289
2890	0.00153
2902	0.0013617
2914	0.0012087
2926	0.001071
2938	0.0009945
2950	0.0008109
2962	0.0004743
2974	0.000306
2986	0.0002142
2998	0.0002448
3010	0.0001836
3022	7.65e-05
3034	9.18e-05
3046	0.0001377
3058	0.0002907
3070	0.0008109
3082	0.0016983
3094	0.0017901
3106	0.0011781
3118	0.0003213
3130	0.000153
3142	0.0002142
3154	0.0002907
3166	0.0003366
3178	0.0003366
3190	0.0004131
3202	0.000306
3214	0.000153
3226	0.0001071
3238	9.18e-05
3250	7.65e-05
3262	4.59e-05
3274	7.65e-05
3286	9.18e-05
3298	7.65e-05
3310	7.65e-05
3322	0.0001224
3334	0.0001071
3346	7.65e-05
3358	0.0001683
3370	0.0001836
3382	0.0001989
3394	0.0001989
3406	0.0001989
3418	0.0001989
3430	0.0002601
3442	0.0002142
3454	0.0002295
3466	0.0001989
3478	0.0001683
3490	0.0002754
3502	0.0001683
3514	0.0002448
3526	0.0002295
3538	0.0002754
3550	0.0002754
3562	0.000306
3574	0.0002907
3586	0.0002601
3598	0.0003213
3610	0.0003213
3622	0.0003213
3634	0.0003672
3646	0.0002907
3658	0.0003825
3670	0.0003213
3682	0.0004131
3694	0.0004437
3706	0.0004743
3718	0.0004131
3730	0.0004437
3742	0.0003672
3754	0.0003672
3766	0.0004131
3778	0.0003825
3790	0.0004437
3802	0.0004284
3814	0.000459
3826	0.000459
3838	0.0005967
