Infrared Spectrum: 3-Fluoropropiophenone
Formula: C 9 H 9 F O
CAS: 455-67-4
State: gas
Origin: EPA-IR VAPOR PHASE LIBRARY
1/CM	ABSORBANCE
549.8	0.006514
559.445	0.007024
569.09	0.007654
578.734	0.006784
588.379	0.007004
598.024	0.005114
607.669	0.003264
617.313	0.002654
626.958	0.005164
636.603	0.006634
646.248	0.007614
655.893	0.009104
665.537	0.014484
675.182	0.026214
684.827	0.028914
694.472	0.019484
704.116	0.013084
713.761	0.014684
723.406	0.020934
733.051	0.023814
742.695	0.018344
752.34	0.017384
761.985	0.026274
771.63	0.045724
781.275	0.058704
790.919	0.048384
800.564	0.025264
810.209	0.012504
819.854	0.010114
829.498	0.013174
839.143	0.026294
848.788	0.055494
858.433	0.077354
868.078	0.070674
877.722	0.070274
887.367	0.054044
897.012	0.028994
906.657	0.017544
916.301	0.009364
925.946	0.006584
935.591	0.008314
945.236	0.011504
954.88	0.017084
964.525	0.020564
974.17	0.018804
983.815	0.011214
993.46	0.011014
1003.1	0.018564
1012.75	0.020344
1022.39	0.015744
1032.04	0.010754
1041.68	0.008074
1051.33	0.006244
1060.97	0.010514
1070.62	0.013424
1080.26	0.013304
1089.91	0.010954
1099.55	0.009824
1109.2	0.009224
1118.84	0.009164
1128.49	0.010584
1138.13	0.017054
1147.78	0.038034
1157.42	0.060304
1167.07	0.078674
1176.71	0.076134
1186.36	0.044984
1196	0.023344
1205.64	0.018114
1215.29	0.023124
1224.93	0.041544
1234.58	0.085714
1244.22	0.171294
1253.87	0.219564
1263.51	0.187424
1273.16	0.148264
1282.8	0.089844
1292.45	0.048444
1302.09	0.041494
1311.74	0.047104
1321.38	0.048204
1331.03	0.045734
1340.67	0.048244
1350.32	0.050724
1359.96	0.037654
1369.61	0.022654
1379.25	0.020364
1388.9	0.019134
1398.54	0.015864
1408.18	0.018824
1417.83	0.032744
1427.47	0.069024
1437.12	0.113874
1446.76	0.101464
1456.41	0.056944
1466.05	0.053544
1475.7	0.064214
1485.34	0.061214
1494.99	0.039474
1504.63	0.019174
1514.28	0.011774
1523.92	0.010124
1533.57	0.009824
1543.21	0.010564
1552.86	0.015124
1562.5	0.027334
1572.15	0.054964
1581.79	0.101404
1591.44	0.113454
1601.08	0.072114
1610.73	0.035994
1620.37	0.018934
1630.01	0.011394
1639.66	0.009484
1649.3	0.010414
1658.95	0.014764
1668.59	0.023084
1678.24	0.036174
1687.88	0.069924
1697.53	0.155404
1707.17	0.214954
1716.82	0.144634
1726.46	0.055144
1736.11	0.027854
1745.75	0.020154
1755.4	0.013014
1765.04	0.007924
1774.69	0.005764
1784.33	0.005534
1793.98	0.005584
1803.62	0.004344
1813.27	0.003764
1822.91	0.003074
1832.55	0.002794
1842.2	0.003094
1851.84	0.004254
1861.49	0.004604
1871.13	0.003994
1880.78	0.003544
1890.42	0.002834
1900.07	0.001954
1909.71	0.002124
1919.36	0.002834
1929	0.003724
1938.65	0.003454
1948.29	0.002794
1957.94	0.002374
1967.58	0.001794
1977.23	0.001804
1986.87	0.001554
1996.52	0.001454
2006.16	0.001644
2015.81	0.001514
2025.45	0.001594
2035.1	0.001594
2044.74	0.001564
2054.38	0.001309
2064.03	0.0013044
2073.67	0.001484
2083.32	0.0013145
2092.96	0.001444
2102.61	0.0012447
2112.25	0.001344
2121.9	0.001424
2131.54	0.001454
2141.19	0.001654
2150.83	0.0012774
2160.48	0.0011859
2170.12	0.001121
2179.77	0.0012817
2189.41	0.0010204
2199.06	0.0008336
2208.7	0.0009343
2218.35	0.0009792
2227.99	0.0011096
2237.64	0.0010243
2247.28	0.0009477
2256.92	0.0010063
2266.57	0.0010086
2276.21	0.0010358
2285.86	0.001092
2295.5	0.001384
2305.15	0.001754
2314.79	0.002434
2324.44	0.002244
2334.08	0.002084
2343.73	0.001874
2353.37	0.001784
2363.02	0.001594
2372.66	0.001434
2382.31	0.001564
2391.95	0.0012789
2401.6	0.001307
2411.24	0.001344
2420.89	0.001404
2430.53	0.001674
2440.18	0.002034
2449.82	0.002344
2459.47	0.002174
2469.11	0.001544
2478.75	0.001354
2488.4	0.001614
2498.04	0.001824
2507.69	0.001644
2517.33	0.001714
2526.98	0.001434
2536.62	0.001464
2546.27	0.001464
2555.91	0.0012927
2565.56	0.0012855
2575.2	0.001484
2584.85	0.001594
2594.49	0.001624
2604.14	0.001364
2613.78	0.001434
2623.43	0.0013074
2633.07	0.0010375
2642.72	0.001344
2652.36	0.0009497
2662.01	0.0009759
2671.65	0.001434
2681.29	0.0013101
2690.94	0.0012781
2700.58	0.001454
2710.23	0.0012451
2719.87	0.001524
2729.52	0.001774
2739.16	0.001604
2748.81	0.001844
2758.45	0.002334
2768.1	0.002024
2777.74	0.002104
2787.39	0.002214
2797.03	0.002194
2806.68	0.002844
2816.32	0.003284
2825.97	0.004394
2835.61	0.004584
2845.26	0.005184
2854.9	0.006234
2864.55	0.008384
2874.19	0.011504
2883.84	0.017704
2893.48	0.021694
2903.12	0.022214
2912.77	0.028524
2922.41	0.030404
2932.06	0.026924
2941.7	0.036524
2951.35	0.045904
2960.99	0.033504
2970.64	0.030724
2980.28	0.048504
2989.93	0.054644
2999.57	0.034704
3009.22	0.018014
3018.86	0.012384
3028.51	0.010354
3038.15	0.011474
3047.8	0.011884
3057.44	0.012114
3067.09	0.015474
3076.73	0.023574
3086.38	0.023604
3096.02	0.014444
3105.67	0.007514
3115.31	0.004984
3124.95	0.002854
3134.6	0.002224
3144.24	0.002274
3153.89	0.001874
3163.53	0.001914
3173.18	0.001784
3182.82	0.001754
3192.47	0.0010206
3202.11	0.0007128
3211.76	0.0008927
3221.4	0.001384
3231.05	0.0008514
3240.69	0.0006862
3250.34	0.0009023
3259.98	0.0004867
3269.63	0.0010835
3279.27	0.0010525
3288.92	0.0008243
3298.56	0.0005284
3308.21	0.000693
3317.85	0.000884
3327.49	0.0010454
3337.14	0.0009576
3346.78	0.0008285
3356.43	0.0009011
3366.07	0.001904
3375.72	0.002804
3385.36	0.003864
3395.01	0.004074
3404.65	0.003414
3414.3	0.002184
3423.94	0.001302
3433.59	0.0011464
3443.23	0.0010482
3452.88	0.0006889
3462.52	0.0009258
3472.17	0.000765
3481.81	0.0004258
3491.46	0.00033561
3501.1	0.00034959
3510.75	0.000208
3520.39	6.7e-05
3530.04	0.000333506
3539.68	0.0006519
3549.32	0.00037464
3558.97	0.0012108
3568.61	0.000522
3578.26	0.00035724
3587.9	0.0009749
3597.55	0.0006196
3607.19	0.0002608
3616.84	0.0006624
3626.48	0.0008514
3636.13	0.0006886
3645.77	0.0002248
3655.42	0.0002
3665.06	0.000252
3674.71	0.000434
3684.35	0.000208
3694	0.0002906
3703.64	0.0008719
3713.29	0.0006642
3722.93	0.0008011
3732.58	0.0005828
3742.22	0.0008222
3751.86	0.0005527
3761.51	0.0007045
3771.15	0.0007078
3780.8	0.000949
3790.44	0.000108
3800.09	0.0004674
3809.73	0.0007569
3819.38	0.000324782
3829.02	0.0009134
3838.67	0.0007821
3848.31	0.0002611
3857.96	0.0002764
3867.6	0.0002824
3877.25	0.0007595
3886.89	0.0006706
3896.54	0.0011992
3906.18	0.0010769
3915.83	0.0011818
3925.47	0.0005344
3935.12	0.0006726
3944.76	0.0012001
3954.41	0.0008308
3964.05	0.001424
3973.69	0.001544
3983.34	0.0011803
3992.98	0.0009087
