Infrared Spectrum: 4-Aminobenzotrifluoride
Formula: C 7 H 6 F 3 N
CAS: 455-14-1
State: gas
Instrument: HP-GC/MS/IRD
Origin: NIST Mass Spectrometry Data Center
1/CM	ABSORBANCE
550	0.0016915
562	0.002567
574	0.003162
586	0.0048875
598	0.010217
610	0.005168
622	0.001428
634	0.0018275
646	0.0027965
658	0.0034425
670	0.0055845
682	0.005865
694	0.0038845
706	0.002618
718	0.002057
730	0.0017425
742	0.0015045
754	0.0019465
766	0.0020825
778	0.001632
790	0.0017085
802	0.002958
814	0.0064685
826	0.0102
838	0.0081855
850	0.004012
862	0.0012835
874	0.0005525
886	0.000255
898	0.0002125
910	0.000255
922	0.0002125
934	0.000289
946	0.000357
958	0.000408
970	0.0002975
982	0.0001105
994	0.000221
1006	0.002295
1018	0.0033065
1030	0.000986
1042	0.001343
1054	0.005253
1066	0.0280755
1078	0.022984
1090	0.005763
1102	0.0082535
1114	0.0187425
1126	0.040953
1138	0.0590835
1150	0.0368645
1162	0.038318
1174	0.029138
1186	0.0193035
1198	0.0054485
1210	0.002414
1222	0.002023
1234	0.0016235
1246	0.0019805
1258	0.004131
1270	0.0115685
1282	0.0242165
1294	0.0208505
1306	0.022831
1318	0.065535
1330	0.0752675
1342	0.0184875
1354	0.0100895
1366	0.004522
1378	0.001547
1390	0.000765
1402	0.000646
1414	0.000969
1426	0.001275
1438	0.0011985
1450	0.0008075
1462	0.000374
1474	0.0003145
1486	0.0004165
1498	0.000595
1510	0.0017935
1522	0.0057885
1534	0.004641
1546	0.001445
1558	0.0010625
1570	0.001156
1582	0.0021845
1594	0.0051425
1606	0.0110075
1618	0.021437
1630	0.029053
1642	0.0146625
1654	0.005032
1666	0.00323
1678	0.0021505
1690	0.001309
1702	0.000918
1714	0.0006545
1726	0.000442
1738	0.0003655
1750	0.000476
1762	0.00051
1774	0.000187
1786	5.1e-05
1798	0
1810	3.4e-05
1822	4.25e-05
1834	8.5e-05
1846	0.0001105
1858	0.0002295
1870	0.000476
1882	0.00085
1894	0.000765
1906	0.000459
1918	0.000306
1930	0.0002295
1942	0.0002465
1954	0.000204
1966	0.0001785
1978	0.0001275
1990	8.5e-05
2002	0.000119
2014	0.0001955
2026	0.000221
2038	0.0001615
2050	0.0001615
2062	0.0002295
2074	0.0003145
2086	0.000272
2098	0.0002125
2110	0.000221
2122	0.0002295
2134	0.0002125
2146	0.0001615
2158	0.000102
2170	0.0001615
2182	0.00017
2194	0.000272
2206	0.000323
2218	0.0002635
2230	0.000255
2242	0.000272
2254	0.000272
2266	0.0002975
2278	0.000289
2290	0.000272
2302	0.000272
2314	0.000289
2326	0.0002465
2338	0.000238
2350	0.0001955
2362	0.0001785
2374	0.0002125
2386	0.000153
2398	0.0001785
2410	0.000153
2422	0.00017
2434	0.0002125
2446	0.0002805
2458	0.0002975
2470	0.0002295
2482	0.0001955
2494	0.0001615
2506	0.0001615
2518	0.0001105
2530	0.0001275
2542	0.00017
2554	0.000221
2566	0.0002125
2578	0.000204
2590	0.0002465
2602	0.0003315
2614	0.000374
2626	0.000408
2638	0.0005355
2650	0.0004675
2662	0.000306
2674	0.000221
2686	0.0001615
2698	0.00017
2710	0.0001445
2722	0.0001785
2734	0.0001615
2746	0.0001445
2758	0.0001105
2770	0.0001445
2782	0.000153
2794	0.0001615
2806	0.0001445
2818	0.0001785
2830	0.0002125
2842	0.0002805
2854	0.000255
2866	0.000204
2878	0.000187
2890	0.0002295
2902	0.000357
2914	0.000391
2926	0.0004335
2938	0.000425
2950	0.0003655
2962	0.0003145
2974	0.0002805
2986	0.0003145
2998	0.000476
3010	0.000952
3022	0.0016235
3034	0.002329
3046	0.002856
3058	0.0023715
3070	0.0013005
3082	0.0010795
3094	0.0008245
3106	0.000629
3118	0.0004675
3130	0.0005185
3142	0.000425
3154	0.0003315
3166	0.000272
3178	0.0003315
3190	0.00034
3202	0.000391
3214	0.000561
3226	0.0005185
3238	0.000425
3250	0.000408
3262	0.000255
3274	0.0002125
3286	0.0001785
3298	0.0002125
3310	0.000187
3322	0.000238
3334	0.0002125
3346	0.000221
3358	0.0002635
3370	0.0003315
3382	0.0004335
3394	0.000969
3406	0.00204
3418	0.0033915
3430	0.003094
3442	0.001853
3454	0.0006715
3466	0.000578
3478	0.000799
3490	0.0012665
3502	0.0016065
3514	0.0017
3526	0.0013855
3538	0.000901
3550	0.0004335
3562	0.0002295
3574	0.000221
3586	0.0002295
3598	9.35e-05
3610	0.0001615
3622	0.000187
3634	0.0001615
3646	0.0001275
3658	0.0002635
3670	0.0001615
3682	0.000204
3694	0.000238
3706	0.0001785
3718	0.00017
3730	0.000221
3742	0.0001785
3754	0.000204
3766	0.0002295
3778	0.000255
3790	0.0002125
3802	0.00017
3814	0.000238
3826	0.0002125
3838	0.0004165
