Infrared Spectrum: 3,4-Difluorobenzoic acid
Formula: C 7 H 4 F 2 O 2
CAS: 455-86-7
State: gas
Origin: EPA-IR VAPOR PHASE LIBRARY
1/CM	ABSORBANCE
549.8	0.004666
559.445	0.002956
569.09	0.005646
578.734	0.007426
588.379	0.009036
598.024	0.012586
607.669	0.019026
617.313	0.015796
626.958	0.006856
636.603	0.002946
646.248	0.001746
655.893	0.001746
665.537	0.001596
675.182	0.0010498
684.827	0.0008822
694.472	0.002306
704.116	0.003876
713.761	0.009376
723.406	0.009636
733.051	0.002886
742.695	0.004266
752.34	0.010676
761.985	0.020986
771.63	0.022296
781.275	0.017126
790.919	0.006816
800.564	0.002426
810.209	0.002096
819.854	0.003646
829.498	0.004946
839.143	0.003186
848.788	0.001916
858.433	0.0011956
868.078	0.001366
877.722	0.002316
887.367	0.004486
897.012	0.006796
906.657	0.005356
916.301	0.006356
925.946	0.008416
935.591	0.006306
945.236	0.002246
954.88	0.001666
964.525	0.0010949
974.17	0.0008896
983.815	0.000898
993.46	0.001366
1003.1	0.0012357
1012.75	0.001386
1022.39	0.001726
1032.04	0.001466
1041.68	0.001786
1051.33	0.004096
1060.97	0.012186
1070.62	0.018536
1080.26	0.015426
1089.91	0.006846
1099.55	0.010826
1109.2	0.020696
1118.84	0.024476
1128.49	0.015586
1138.13	0.020356
1147.78	0.046066
1157.42	0.051306
1167.07	0.028656
1176.71	0.015596
1186.36	0.011466
1196	0.009866
1205.64	0.009596
1215.29	0.010566
1224.93	0.008406
1234.58	0.004656
1244.22	0.004426
1253.87	0.004936
1263.51	0.006896
1273.16	0.018266
1282.8	0.034486
1292.45	0.038196
1302.09	0.024296
1311.74	0.011436
1321.38	0.010566
1331.03	0.014686
1340.67	0.019416
1350.32	0.021136
1359.96	0.018086
1369.61	0.016216
1379.25	0.012586
1388.9	0.005336
1398.54	0.004076
1408.18	0.006406
1417.83	0.013206
1427.47	0.022816
1437.12	0.021276
1446.76	0.009546
1456.41	0.003486
1466.05	0.002676
1475.7	0.003396
1485.34	0.005366
1494.99	0.007636
1504.63	0.014136
1514.28	0.034316
1523.92	0.037326
1533.57	0.014176
1543.21	0.004646
1552.86	0.003626
1562.5	0.004036
1572.15	0.005416
1581.79	0.006866
1591.44	0.008076
1601.08	0.012336
1610.73	0.017366
1620.37	0.015466
1630.01	0.007366
1639.66	0.002586
1649.3	0.001966
1658.95	0.002006
1668.59	0.001946
1678.24	0.001516
1687.88	0.001966
1697.53	0.002856
1707.17	0.004236
1716.82	0.004786
1726.46	0.004816
1736.11	0.006566
1745.75	0.018026
1755.4	0.060096
1765.04	0.085906
1774.69	0.052536
1784.33	0.013086
1793.98	0.005516
1803.62	0.003926
1813.27	0.004146
1822.91	0.003976
1832.55	0.002256
1842.2	0.001356
1851.84	0.0012165
1861.49	0.0012626
1871.13	0.001476
1880.78	0.001396
1890.42	0.001244
1900.07	0.001306
1909.71	0.0010922
1919.36	0.000981
1929	0.0007365
1938.65	0.0009734
1948.29	0.0009067
1957.94	0.0006864
1967.58	0.0007151
1977.23	0.0006176
1986.87	0.0006447
1996.52	0.0006554
2006.16	0.0007221
2015.81	0.0006083
2025.45	0.0005413
2035.1	0.0007164
2044.74	0.0009261
2054.38	0.0010374
2064.03	0.0010411
2073.67	0.0009035
2083.32	0.0009598
2092.96	0.0008205
2102.61	0.0008623
2112.25	0.0006766
2121.9	0.0006397
2131.54	0.0008134
2141.19	0.000842
2150.83	0.0006424
2160.48	0.0006317
2170.12	0.0006446
2179.77	0.0006388
2189.41	0.0006464
2199.06	0.0004465
2208.7	0.0007021
2218.35	0.0006244
2227.99	0.0009079
2237.64	0.0008819
2247.28	0.0007988
2256.92	0.0007476
2266.57	0.0006695
2276.21	0.0008953
2285.86	0.0007902
2295.5	0.0009718
2305.15	0.000712
2314.79	0.0007356
2324.44	0.0005685
2334.08	0.0006094
2343.73	0.0005182
2353.37	0.0005854
2363.02	0.0007166
2372.66	0.0007029
2382.31	0.0006762
2391.95	0.0008629
2401.6	0.0008502
2411.24	0.0006888
2420.89	0.0006929
2430.53	0.0006712
2440.18	0.0007597
2449.82	0.0006925
2459.47	0.0007189
2469.11	0.0008406
2478.75	0.0007171
2488.4	0.0009726
2498.04	0.0006786
2507.69	0.0006536
2517.33	0.0008399
2526.98	0.0008443
2536.62	0.0007323
2546.27	0.0008637
2555.91	0.000882
2565.56	0.0007432
2575.2	0.0008618
2584.85	0.0009867
2594.49	0.001306
2604.14	0.001038
2613.78	0.0008559
2623.43	0.0007791
2633.07	0.0006024
2642.72	0.0005826
2652.36	0.000608
2662.01	0.0006773
2671.65	0.0007977
2681.29	0.00035769
2690.94	0.0006062
2700.58	0.0006004
2710.23	0.0007992
2719.87	0.0006213
2729.52	0.0006348
2739.16	0.0005453
2748.81	0.000179
2758.45	0.0005721
2768.1	0.0006228
2777.74	0.0007179
2787.39	0.0006111
2797.03	0.0005297
2806.68	0.0005826
2816.32	0.0005689
2825.97	0.0005687
2835.61	0.0006236
2845.26	0.0007685
2854.9	0.0007073
2864.55	0.0004752
2874.19	0.0007941
2883.84	0.0009331
2893.48	0.0007568
2903.12	0.0004449
2912.77	0.0004434
2922.41	0.0009023
2932.06	0.0007087
2941.7	0.0006175
2951.35	0.0003871
2960.99	0.000425
2970.64	0.0004916
2980.28	0.0006143
2989.93	0.0006746
2999.57	0.0008291
3009.22	0.0007386
3018.86	0.000489
3028.51	0.0006567
3038.15	0.0006009
3047.8	0.0007506
3057.44	0.0006828
3067.09	0.0008795
3076.73	0.000968
3086.38	0.002156
3096.02	0.0011961
3105.67	0.0009035
3115.31	0.0006583
3124.95	0.0006348
3134.6	0.0005864
3144.24	0.0005651
3153.89	0.0005942
3163.53	0.0006743
3173.18	0.0004573
3182.82	0.00048
3192.47	0.0004637
3202.11	0.00038586
3211.76	0.0005168
3221.4	0.00032612
3231.05	0.0002469
3240.69	0.000129
3250.34	0.00034286
3259.98	0.0005765
3269.63	0.000157
3279.27	0.0005093
3288.92	0.0006594
3298.56	0.0005099
3308.21	0.000748
3317.85	0.0006812
3327.49	0.00031952
3337.14	0.00031192
3346.78	0.0005782
3356.43	0.0006618
3366.07	0.0006421
3375.72	0.0006521
3385.36	0.000486
3395.01	0.0006231
3404.65	0.0006336
3414.3	0.0004246
3423.94	0.0005772
3433.59	0.0003871
3443.23	0.0007985
3452.88	0.0006142
3462.52	0.0005706
3472.17	0.0007695
3481.81	0.0010576
3491.46	0.0007414
3501.1	0.0010514
3510.75	0.0009417
3520.39	0.0009599
3530.04	0.0008626
3539.68	0.0005289
3549.32	0.0008272
3558.97	0.001277
3568.61	0.006356
3578.26	0.028626
3587.9	0.029776
3597.55	0.006416
3607.19	0.001346
3616.84	0.0008526
3626.48	0.000796
3636.13	0.0006807
3645.77	0.0008998
3655.42	0.0004963
3665.06	0.0004063
3674.71	0.0004092
3684.35	0.0005806
3694	0.000246
3703.64	0.0006351
3713.29	0.0005373
3722.93	0.0005082
3732.58	0.00037708
3742.22	0.0002349
3751.86	0.00029842
3761.51	0.0005446
3771.15	0.0004219
3780.8	0.0002333
3790.44	0.0006237
3800.09	0.0004678
3809.73	0.0005988
3819.38	0.0005703
3829.02	0.0006247
3838.67	0.0004889
3848.31	0.0004167
3857.96	0.0004652
3867.6	0.000290449
3877.25	0.0006466
3886.89	0.0001975
3896.54	0.0002232
3906.18	0.00038469
3915.83	0.0004676
3925.47	0.0004027
3935.12	0.000108
3944.76	0.0002289
3954.41	0.00015
3964.05	0.0004455
3973.69	0.0002315
3983.34	0.0008011
3992.98	0.0005024
