Infrared Spectrum: Acetophenone, 3'-fluoro-
Formula: C8 H7 F O
CAS: 455-36-7
State: SOLUTION (10% CCl4 FOR 3800-1330, 10% CS2 FOR 1330-400 CM^-^1)
Class: COBLENTZ III
Instrument: DOW KBr FOREPRISM-GRATING
Instrument parameters: BLAZED AT 3.5, 12.0, 20.0 MICRON AND CHANGED AT 5.0, 7.5, 14.9 MICRON
Sampling: TRANSMISSION
Path length: 0.011 CM, 0.010 CM
Resolution: 2
Origin: DOW CHEMICAL COMPANY
1/CM	TRANSMITTANCE
385	0.1392
394	0.1707
403	0.3287
412	0.5427
421	0.7051
430	0.7412
439	0.7653
448	0.7819
457	0.7899
466	0.7841
475	0.7628
484	0.7503
493	0.7201
502	0.6787
511	0.7381
520	0.6331
529	0.7062
538	0.7504
547	0.816
556	0.8161
565	0.7994
574	0.7641
583	0.3824
592	0.667
601	0.5952
610	0.7937
619	0.7945
628	0.8269
637	0.8245
646	0.8028
655	0.8019
664	0.7887
673	0.6566
682	0.0376
691	0.6868
700	0.2857
709	0.8179
718	0.8605
727	0.8778
736	0.8882
745	0.8883
754	0.845
763	0.8591
772	0.8276
781	0.4679
790	0.2402
799	0.4828
808	0.8238
817	0.8769
826	0.8936
835	0.8797
844	0.8458
853	0.7657
862	0.6533
871	0.1826
880	0.264
889	0.3339
898	0.1622
907	0.7435
916	0.8459
925	0.8751
934	0.8797
943	0.8594
952	0.5698
961	0.7786
970	0.8055
979	0.82
988	0.8689
997	0.8415
1006	0.846
1015	0.7442
1024	0.8179
1033	0.855
1042	0.8522
1051	0.847
1060	0.8068
1069	0.686
1078	0.7398
1087	0.7218
1096	0.7808
1105	0.7967
1114	0.7997
1123	0.8088
1132	0.8101
1141	0.7948
1150	0.6967
1159	0.5978
1168	0.7453
1177	0.6629
1186	0.1753
1195	0.2944
1204	0.5643
1213	0.7
1222	0.7437
1231	0.7046
1240	0.6577
1249	0.546
1258	0.2313
1267	0.0162
1276	0.0652
1285	0.0592
1294	0.2727
1303	0.595
1312	0.5956
1321	0.674
1330	0.7232
1339	0.7036
1348	0.6209
1357	0.0552
1366	0.351
1375	0.673
1384	0.7365
1393	0.7231
1402	0.689
1411	0.6224
1420	0.4403
1429	0.3058
1438	0.1024
1447	0.0211
1456	0.5326
1465	0.6422
1474	0.6185
1483	0.2768
1492	0.4474
1501	0.612
1510	0.63
1519	0.6013
1528	0.5528
1537	0.4951
1546	0.4296
1555	0.4191
1564	0.4563
1573	0.4419
1582	0.23
1591	0.025
1600	0.1968
1609	0.5778
1618	0.6811
1627	0.7505
1636	0.7569
1645	0.7414
1654	0.6657
1663	0.6632
1672	0.5793
1681	0.2478
1690	0.0224
1699	0.0423
1708	0.4257
1717	0.6666
1726	0.6653
1735	0.6976
1744	0.739
1753	0.7506
1762	0.7796
1771	0.782
1780	0.7755
1789	0.7747
1798	0.7954
1807	0.8233
1816	0.8296
1825	0.8377
1834	0.8397
1843	0.8302
1852	0.8193
1861	0.8094
1870	0.8141
1879	0.822
1888	0.8141
1897	0.8356
1906	0.8503
1915	0.8537
1924	0.8545
1933	0.8371
1942	0.8156
1951	0.8446
1960	0.8449
1969	0.8321
1978	0.8437
1987	0.8493
1996	0.8453
2005	0.8452
2014	0.8465
2023	0.8385
2032	0.8282
2041	0.8376
2050	0.8387
2059	0.8353
2068	0.8204
2077	0.8236
2086	0.8372
2095	0.8492
2104	0.8556
2113	0.8572
2122	0.8567
2131	0.8544
2140	0.852
2149	0.8478
2158	0.8472
2167	0.8486
2176	0.8508
2185	0.8537
2194	0.8574
2203	0.8587
2212	0.8572
2221	0.8532
2230	0.847
2239	0.8423
2248	0.8408
2257	0.8389
2266	0.8372
2275	0.8354
2284	0.8339
2293	0.8334
2302	0.8328
2311	0.8287
2320	0.8283
2329	0.8277
2338	0.8319
2347	0.8371
2356	0.838
2365	0.8359
2374	0.8392
2383	0.8478
2392	0.8513
2401	0.8534
2410	0.8553
2419	0.8559
2428	0.8555
2437	0.8544
2446	0.8503
2455	0.84
2464	0.8365
2473	0.8522
2482	0.8568
2491	0.8573
2500	0.8572
2509	0.8567
2518	0.8557
2527	0.8538
2536	0.8515
2545	0.8497
2554	0.8513
2563	0.854
2572	0.8538
2581	0.8512
2590	0.8506
2599	0.8512
2608	0.852
2617	0.8523
2626	0.8526
2635	0.8535
2644	0.8551
2653	0.8572
2662	0.8591
2671	0.8601
2680	0.8607
2689	0.8607
2698	0.8605
2707	0.8611
2716	0.864
2725	0.8641
2734	0.8634
2743	0.8617
2752	0.8599
2761	0.8584
2770	0.8581
2779	0.8593
2788	0.8636
2797	0.8651
2806	0.8646
2815	0.8617
2824	0.858
2833	0.8541
2842	0.8501
2851	0.846
2860	0.8422
2869	0.8385
2878	0.8416
2887	0.8424
2896	0.8381
2905	0.8304
2914	0.8202
2923	0.8142
2932	0.8266
2941	0.8243
2950	0.8136
2959	0.782
2968	0.7751
2977	0.8082
2986	0.8136
2995	0.7891
3004	0.728
3013	0.7636
3022	0.8129
3031	0.8098
3040	0.7929
3049	0.8
3058	0.777
3067	0.6925
3076	0.6543
3085	0.7474
3094	0.7848
3103	0.8265
3112	0.8385
3121	0.8499
3130	0.859
3139	0.863
3148	0.8667
3157	0.8701
3166	0.8728
3175	0.8751
3184	0.877
3193	0.8788
3202	0.8805
3211	0.8817
3220	0.883
3229	0.8835
3238	0.884
3247	0.8846
3256	0.8853
3265	0.8856
3274	0.8858
3283	0.8861
3292	0.8868
3301	0.8875
3310	0.8884
3319	0.8884
3328	0.8868
3337	0.8791
3346	0.8619
3355	0.8411
3364	0.8241
3373	0.825
3382	0.8619
3391	0.8817
3400	0.892
3409	0.8945
3418	0.8945
3427	0.8942
3436	0.8939
3445	0.8932
3454	0.8917
3463	0.8901
3472	0.8886
3481	0.887
3490	0.8855
3499	0.8838
3508	0.8822
3517	0.8808
3526	0.8796
3535	0.8784
3544	0.878
3553	0.8774
3562	0.8773
3571	0.8777
3580	0.8783
3589	0.8793
3598	0.8803
3607	0.8807
3616	0.8809
3625	0.8806
3634	0.8803
3643	0.8799
3652	0.8796
3661	0.8789
3670	0.8764
3679	0.8739
3688	0.8748
3697	0.8812
3706	0.8804
3715	0.8792
3724	0.8783
3733	0.8782
3742	0.8784
3751	0.8786
3760	0.8787
3769	0.8787
3778	0.8793
3787	0.8796
3796	0.8793
