Infrared Spectrum: 4-AMINO-3-FLUOROBENZOIC ACID
Formula: C7 H6 F N O2
CAS: 455-87-8
State: SOLID (KBr DISC)
Class: COBLENTZ III
Instrument: PERKIN-ELMER 21 (GRATING)
Instrument parameters: FILTER CHANGE AT ABOUT 1090 CM^-^1.
Sampling: TRANSMISSION
Resolution: 2
Origin: SOUTHERN RESEARCH INSTITUTE
1/CM	TRANSMITTANCE
605.441	0.646
614.488	0.646
623.535	0.6263
632.582	0.609
641.628	0.6252
650.675	0.7604
659.722	0.7379
668.769	0.7165
677.816	0.6976
686.863	0.6803
695.91	0.6687
704.956	0.6556
714.003	0.644
723.05	0.6326
732.097	0.616
741.144	0.5736
750.191	0.5102
759.238	0.3385
768.284	0.1664
777.331	0.586
786.378	0.6481
795.425	0.653
804.472	0.6496
813.519	0.6249
822.565	0.5724
831.612	0.4566
840.659	0.5927
849.706	0.603
858.753	0.596
867.8	0.5881
876.847	0.5672
885.893	0.4977
894.94	0.3995
903.987	0.496
913.034	0.4511
922.081	0.3896
931.128	0.3244
940.175	0.3205
949.221	0.5243
958.268	0.5638
967.315	0.6109
976.362	0.6271
985.409	0.632
994.456	0.6251
1003.5	0.623
1012.55	0.6145
1021.6	0.6033
1030.64	0.595
1039.69	0.5809
1048.74	0.564
1057.78	0.562
1066.83	0.562
1075.88	0.5389
1084.92	0.4901
1093.97	0.471
1103.02	0.5307
1112.06	0.5261
1121.11	0.4973
1130.16	0.4733
1139.21	0.4313
1148.25	0.3461
1157.3	0.2984
1166.35	0.4967
1175.39	0.4786
1184.44	0.4089
1193.49	0.3442
1202.53	0.2399
1211.58	0.2148
1220.63	0.3673
1229.67	0.3385
1238.72	0.3121
1247.77	0.2285
1256.81	0.151
1265.86	0.337
1274.91	0.2341
1283.96	0.1674
1293	0.0936
1302.05	0.0995
1311.1	0.1239
1320.14	0.1887
1329.19	0.1677
1338.24	0.1643
1347.28	0.3048
1356.33	0.327
1365.38	0.4129
1374.42	0.5564
1383.47	0.579
1392.52	0.5186
1401.56	0.4664
1410.61	0.3898
1419.66	0.3817
1428.7	0.5103
1437.75	0.5586
1446.8	0.3966
1455.85	0.2301
1464.89	0.2461
1473.94	0.5308
1482.99	0.6322
1492.03	0.6281
1501.08	0.5948
1510.13	0.52
1519.17	0.4225
1528.22	0.3127
1537.27	0.3363
1546.31	0.511
1555.36	0.46
1564.41	0.3538
1573.45	0.2586
1582.5	0.2474
1591.55	0.3292
1600.59	0.2254
1609.64	0.1858
1618.69	0.1263
1627.74	0.0754
1636.78	0.0998
1645.83	0.1974
1654.88	0.2632
1663.92	0.1871
1672.97	0.136
1682.02	0.1614
1691.06	0.1888
1700.11	0.3075
1709.16	0.4353
1718.2	0.5561
1727.25	0.6016
1736.3	0.6702
1745.34	0.697
1754.39	0.706
1763.44	0.7012
1772.49	0.6872
1781.53	0.6888
1790.58	0.704
1799.63	0.7065
1808.67	0.709
1817.72	0.707
1826.77	0.7017
1835.81	0.7
1844.86	0.7
1853.91	0.7
1862.95	0.7
1872	0.7
1881.05	0.698
1890.09	0.697
1899.14	0.696
1908.19	0.7
1917.23	0.704
1926.28	0.705
1935.33	0.705
1944.38	0.704
1953.42	0.704
1962.47	0.701
1971.52	0.7002
1980.56	0.701
1989.61	0.698
1998.66	0.696
2007.7	0.693
2016.75	0.691
2025.8	0.686
2034.84	0.682
2043.89	0.678
2052.94	0.674
2061.98	0.673
2071.03	0.673
2080.08	0.668
2089.12	0.665
2098.17	0.66
2107.22	0.658
2116.27	0.654
2125.31	0.646
2134.36	0.639
2143.41	0.63
2152.45	0.622
2161.5	0.618
2170.55	0.6101
2179.59	0.604
2188.64	0.6001
2197.69	0.596
2206.73	0.594
2215.78	0.593
2224.83	0.589
2233.87	0.581
2242.92	0.5771
2251.97	0.577
2261.02	0.576
2270.06	0.5661
2279.11	0.556
2288.16	0.548
2297.2	0.544
2306.25	0.5281
2315.3	0.52
2324.34	0.511
2333.39	0.502
2342.44	0.4941
2351.48	0.4891
2360.53	0.484
2369.58	0.479
2378.62	0.475
2387.67	0.473
2396.72	0.469
2405.76	0.464
2414.81	0.4571
2423.86	0.45
2432.91	0.443
2441.95	0.436
2451	0.4242
2460.05	0.415
2469.09	0.408
2478.14	0.4
2487.19	0.395
2496.23	0.391
2505.28	0.3871
2514.33	0.385
2523.37	0.381
2532.42	0.377
2541.47	0.377
2550.51	0.377
2559.56	0.377
2568.61	0.381
2577.66	0.386
2586.7	0.391
2595.75	0.397
2604.8	0.401
2613.84	0.401
2622.89	0.401
2631.94	0.4011
2640.98	0.403
2650.03	0.408
2659.08	0.411
2668.12	0.4169
2677.17	0.423
2686.22	0.429
2695.26	0.433
2704.31	0.434
2713.36	0.433
2722.4	0.4291
2731.45	0.426
2740.5	0.424
2749.55	0.427
2758.59	0.422
2767.64	0.4131
2776.69	0.403
2785.73	0.4
2794.78	0.397
2803.83	0.396
2812.87	0.397
2821.92	0.404
2830.97	0.41
2840.01	0.415
2849.06	0.413
2858.11	0.408
2867.15	0.4011
2876.2	0.401
2885.25	0.399
2894.29	0.395
2903.34	0.3831
2912.39	0.383
2921.44	0.387
2930.48	0.392
2939.53	0.396
2948.58	0.4011
2957.62	0.404
2966.67	0.406
2975.72	0.413
2984.76	0.413
2993.81	0.42
3002.86	0.427
3011.9	0.4359
3020.95	0.44
3030	0.442
3039.04	0.443
3048.09	0.443
3057.14	0.447
3066.19	0.452
3075.23	0.456
3084.28	0.4689
3093.33	0.4909
3102.37	0.503
3111.42	0.52
3120.47	0.534
3129.51	0.543
3138.56	0.548
3147.61	0.548
3156.65	0.548
3165.7	0.548
3174.75	0.549
3183.79	0.5509
3192.84	0.552
3201.89	0.5559
3210.93	0.5609
3219.98	0.568
3229.03	0.576
3238.08	0.581
3247.12	0.582
3256.17	0.582
3265.22	0.581
3274.26	0.576
3283.31	0.571
3292.36	0.566
3301.4	0.558
3310.45	0.551
3319.5	0.547
3328.54	0.539
3337.59	0.525
3346.64	0.5111
3355.68	0.4941
3364.73	0.4712
3373.78	0.4382
3382.83	0.3894
3391.87	0.3155
3400.92	0.2602
3409.97	0.248
3419.01	0.2716
3428.06	0.3593
3437.11	0.5012
3446.15	0.543
3455.2	0.543
3464.25	0.5202
3473.29	0.4892
3482.34	0.4522
3491.39	0.4042
3500.43	0.377
3509.48	0.4336
3518.53	0.5016
3527.57	0.5538
3536.62	0.5857
3545.67	0.6168
3554.72	0.6349
3563.76	0.646
3572.81	0.6529
3581.86	0.656
3590.9	0.66
3599.95	0.661
3609	0.66
3618.04	0.661
3627.09	0.661
3636.14	0.66
3645.18	0.658
3654.23	0.655
3663.28	0.655
3672.32	0.656
3681.37	0.656
3690.42	0.656
3699.46	0.655
3708.51	0.654
3717.56	0.653
3726.61	0.6471
3735.65	0.642
3744.7	0.637
3753.75	0.636
3762.79	0.636
3771.84	0.635
3780.89	0.635
3789.93	0.635
3798.98	0.632
3808.03	0.63
3817.07	0.627
3826.12	0.623
3835.17	0.621
3844.21	0.619
3853.26	0.617
3862.31	0.616
3871.36	0.614
3880.4	0.614
3889.45	0.614
3898.5	0.612
3907.54	0.61
3916.59	0.608
3925.64	0.609
3934.68	0.613
3943.73	0.614
3952.78	0.612
3961.82	0.608
3970.87	0.603
3979.92	0.6
3988.96	0.598
3998.01	0.591
4007.06	0.585
