Infrared Spectrum: p-Tolunitrile, Alpha,Alpha,Alpha-trifluoro-
Formula: C8 H4 F3 N
CAS: 455-18-5
State: SOLUTION (10% CCl4 FOR 3800-1340, 10% CS2 FOR 1340-400 CM^-^1)
Class: COBLENTZ III
Instrument: DOW KBr FOREPRISM-GRATING
Instrument parameters: BLAZED AT 3.5, 12.0, 20.0 MICRON AND CHANGED AT 5.0, 7.5, 14.9 MICRON
Sampling: TRANSMISSION
Path length: 0.010 CM, 0.011 CM
Resolution: 2
Origin: DOW CHEMICAL COMPANY
1/CM	TRANSMITTANCE
393	0.1151
402	0.1623
411	0.301
420	0.5986
429	0.6886
438	0.7289
447	0.7457
456	0.7534
465	0.7551
474	0.7861
483	0.7952
492	0.8002
501	0.7987
510	0.7833
519	0.7924
528	0.7825
537	0.5606
546	0.51
555	0.7459
564	0.7958
573	0.7971
582	0.7772
591	0.712
600	0.3364
609	0.5419
618	0.7806
627	0.822
636	0.8157
645	0.7556
654	0.7909
663	0.8188
672	0.8472
681	0.8401
690	0.844
699	0.8473
708	0.8461
717	0.8386
726	0.8113
735	0.2901
744	0.8198
753	0.8268
762	0.8186
771	0.8323
780	0.8153
789	0.8087
798	0.8173
807	0.8127
816	0.7994
825	0.7699
834	0.6726
843	0.035
852	0.2157
861	0.5159
870	0.6605
879	0.7234
888	0.7625
897	0.7829
906	0.7891
915	0.7863
924	0.7774
933	0.7847
942	0.7854
951	0.7692
960	0.7536
969	0.7673
978	0.7705
987	0.7705
996	0.7663
1005	0.7548
1014	0.5943
1023	0.6503
1032	0.7337
1041	0.7144
1050	0.6677
1059	0.2313
1068	0.0445
1077	0.3565
1086	0.6119
1095	0.599
1104	0.2923
1113	0.2842
1122	0.2692
1131	0.1177
1140	0.0001
1149	0.0129
1158	0.1093
1167	0.0906
1176	0.0001
1185	0.0634
1194	0.3669
1203	0.5731
1212	0.6517
1221	0.6586
1230	0.6267
1239	0.6993
1248	0.7207
1257	0.7243
1266	0.699
1275	0.6239
1284	0.6404
1293	0.5544
1302	0.3935
1311	0.0988
1320	0.0003
1329	0.0196
1338	0.262
1347	0.4925
1356	0.4283
1365	0.6179
1374	0.7138
1383	0.7284
1392	0.677
1401	0.6074
1410	0.3949
1419	0.5022
1428	0.7451
1437	0.7703
1446	0.7812
1455	0.7892
1464	0.7821
1473	0.7899
1482	0.7836
1491	0.7622
1500	0.7259
1509	0.6828
1518	0.6412
1527	0.5957
1536	0.545
1545	0.4725
1554	0.4462
1563	0.4937
1572	0.5337
1581	0.4887
1590	0.5763
1599	0.6318
1608	0.6877
1617	0.6552
1626	0.5552
1635	0.7796
1644	0.7961
1653	0.8012
1662	0.8017
1671	0.7876
1680	0.7407
1689	0.7813
1698	0.8149
1707	0.8202
1716	0.8221
1725	0.8256
1734	0.825
1743	0.8241
1752	0.8217
1761	0.8272
1770	0.8318
1779	0.8308
1788	0.8242
1797	0.7845
1806	0.7952
1815	0.8215
1824	0.8319
1833	0.8359
1842	0.8377
1851	0.835
1860	0.829
1869	0.824
1878	0.8347
1887	0.8392
1896	0.8383
1905	0.8335
1914	0.8265
1923	0.806
1932	0.7277
1941	0.8104
1950	0.8337
1959	0.8408
1968	0.838
1977	0.8365
1986	0.8346
1995	0.8327
2004	0.839
2013	0.842
2022	0.8416
2031	0.8407
2040	0.8381
2049	0.8362
2058	0.8393
2067	0.8429
2076	0.8461
2085	0.8463
2094	0.8449
2103	0.8423
2112	0.8405
2121	0.8377
2130	0.8392
2139	0.8444
2148	0.8468
2157	0.8442
2166	0.8431
2175	0.8422
2184	0.8404
2193	0.8383
2202	0.8318
2211	0.8271
2220	0.8276
2229	0.8138
2238	0.3937
2247	0.5957
2256	0.8198
2265	0.8198
2274	0.8167
2283	0.8103
2292	0.8056
2301	0.8054
2310	0.8176
2319	0.8266
2328	0.8311
2337	0.8341
2346	0.8353
2355	0.8362
2364	0.8371
2373	0.8374
2382	0.8376
2391	0.8389
2400	0.8417
2409	0.845
2418	0.8459
2427	0.8455
2436	0.8444
2445	0.8434
2454	0.8413
2463	0.8395
2472	0.8415
2481	0.8407
2490	0.8388
2499	0.8414
2508	0.8446
2517	0.8475
2526	0.8488
2535	0.8494
2544	0.8494
2553	0.8489
2562	0.8485
2571	0.8473
2580	0.8452
2589	0.8418
2598	0.8432
2607	0.8426
2616	0.8405
2625	0.838
2634	0.8353
2643	0.8421
2652	0.847
2661	0.8481
2670	0.8482
2679	0.8468
2688	0.8457
2697	0.8452
2706	0.8447
2715	0.8441
2724	0.8437
2733	0.8441
2742	0.8446
2751	0.8442
2760	0.8435
2769	0.8417
2778	0.8412
2787	0.8419
2796	0.8405
2805	0.8387
2814	0.8316
2823	0.8304
2832	0.8321
2841	0.8351
2850	0.8378
2859	0.8383
2868	0.8377
2877	0.8365
2886	0.8346
2895	0.8323
2904	0.83
2913	0.8276
2922	0.8255
2931	0.8235
2940	0.8229
2949	0.8335
2958	0.8375
2967	0.8378
2976	0.8382
2985	0.8379
2994	0.8371
3003	0.8355
3012	0.834
3021	0.8338
3030	0.8345
3039	0.8327
3048	0.8238
3057	0.8105
3066	0.7992
3075	0.7998
3084	0.8032
3093	0.8135
3102	0.8094
3111	0.8017
3120	0.8197
3129	0.826
3138	0.8284
3147	0.8301
3156	0.8318
3165	0.8325
3174	0.8337
3183	0.8349
3192	0.8359
3201	0.8366
3210	0.8374
3219	0.8379
3228	0.8384
3237	0.8388
3246	0.8393
3255	0.8397
3264	0.8404
3273	0.8413
3282	0.8422
3291	0.8431
3300	0.8437
3309	0.8441
3318	0.8446
3327	0.8449
3336	0.8452
3345	0.8455
3354	0.8458
3363	0.8458
3372	0.8457
3381	0.8455
3390	0.8444
3399	0.8405
3408	0.8357
3417	0.836
3426	0.8392
3435	0.8425
3444	0.8456
3453	0.8482
3462	0.8488
3471	0.8496
3480	0.8509
3489	0.8521
3498	0.8528
3507	0.853
3516	0.8532
3525	0.8536
3534	0.8541
3543	0.8545
3552	0.855
3561	0.8554
3570	0.8555
3579	0.8549
3588	0.8558
3597	0.8621
3606	0.8655
3615	0.867
3624	0.868
3633	0.8687
3642	0.8688
3651	0.8689
3660	0.8689
3669	0.8688
3678	0.8687
3687	0.8685
3696	0.8683
3705	0.8673
3714	0.8691
3723	0.872
3732	0.8728
3741	0.8728
3750	0.8727
3759	0.8736
3768	0.8756
3777	0.8777
3786	0.8793
3795	0.8802
3804	0.88
