Infrared Spectrum: 4-Trifluoromethylbenzoic acid
Formula: C 8 H 5 F 3 O 2
CAS: 455-24-3
State: gas
Origin: EPA-IR VAPOR PHASE LIBRARY
1/CM	ABSORBANCE
549.8	0.062103
559.445	0.074433
569.09	0.066113
578.734	0.044283
588.379	0.027473
598.024	0.019713
607.669	0.014723
617.313	0.011223
626.958	0.010113
636.603	0.015243
646.248	0.049843
655.893	0.048923
665.537	0.010823
675.182	0.011193
684.827	0.020913
694.472	0.047893
704.116	0.082793
713.761	0.087243
723.406	0.064743
733.051	0.094103
742.695	0.113933
752.34	0.023523
761.985	0.034633
771.63	0.061123
781.275	0.066613
790.919	0.045203
800.564	0.023923
810.209	0.013773
819.854	0.008483
829.498	0.008823
839.143	0.016903
848.788	0.035643
858.433	0.057073
868.078	0.046973
877.722	0.022143
887.367	0.007153
897.012	0.005783
906.657	0.006123
916.301	0.006063
925.946	0.005463
935.591	0.003883
945.236	0.003553
954.88	0.003723
964.525	0.004043
974.17	0.004703
983.815	0.004583
993.46	0.006553
1003.1	0.015353
1012.75	0.110553
1022.39	0.133613
1032.04	0.027493
1041.68	0.027173
1051.33	0.048463
1060.97	0.163323
1070.62	0.357903
1080.26	0.561963
1089.91	0.423873
1099.55	0.136823
1109.2	0.092683
1118.84	0.104833
1128.49	0.142613
1138.13	0.253653
1147.78	0.489623
1157.42	0.640053
1167.07	0.582723
1176.71	0.655463
1186.36	0.428773
1196	0.229863
1205.64	0.099813
1215.29	0.056963
1224.93	0.048663
1234.58	0.055793
1244.22	0.061893
1253.87	0.071783
1263.51	0.075943
1273.16	0.067623
1282.8	0.070003
1292.45	0.093183
1302.09	0.171073
1311.74	0.440343
1321.38	0.847513
1331.03	0.563423
1340.67	0.145553
1350.32	0.097863
1359.96	0.108113
1369.61	0.092123
1379.25	0.039483
1388.9	0.028123
1398.54	0.042643
1408.18	0.073883
1417.83	0.068693
1427.47	0.031913
1437.12	0.014763
1446.76	0.009283
1456.41	0.007183
1466.05	0.005903
1475.7	0.005903
1485.34	0.005593
1494.99	0.006543
1504.63	0.014843
1514.28	0.022903
1523.92	0.012483
1533.57	0.008733
1543.21	0.007223
1552.86	0.007843
1562.5	0.009993
1572.15	0.016233
1581.79	0.020913
1591.44	0.015083
1601.08	0.007103
1610.73	0.005513
1620.37	0.005973
1630.01	0.005533
1639.66	0.005293
1649.3	0.005453
1658.95	0.005443
1668.59	0.005573
1678.24	0.006763
1687.88	0.010343
1697.53	0.016433
1707.17	0.022723
1716.82	0.027303
1726.46	0.030773
1736.11	0.044163
1745.75	0.111583
1755.4	0.322183
1765.04	0.633253
1774.69	0.390973
1784.33	0.110783
1793.98	0.034793
1803.62	0.024783
1813.27	0.029563
1822.91	0.027603
1832.55	0.016953
1842.2	0.008303
1851.84	0.004463
1861.49	0.003573
1871.13	0.003873
1880.78	0.004683
1890.42	0.004643
1900.07	0.004453
1909.71	0.006403
1919.36	0.007333
1929	0.007973
1938.65	0.007983
1948.29	0.006243
1957.94	0.004063
1967.58	0.003323
1977.23	0.003043
1986.87	0.002943
1996.52	0.002893
2006.16	0.002383
2015.81	0.001903
2025.45	0.001463
2035.1	0.0012403
2044.74	0.0012346
2054.38	0.001693
2064.03	0.002053
2073.67	0.001643
2083.32	0.001473
2092.96	0.001553
2102.61	0.001733
2112.25	0.002023
2121.9	0.001913
2131.54	0.001983
2141.19	0.002103
2150.83	0.002623
2160.48	0.002843
2170.12	0.002473
2179.77	0.001993
2189.41	0.001633
2199.06	0.001823
2208.7	0.001983
2218.35	0.002383
2227.99	0.002563
2237.64	0.002463
2247.28	0.002393
2256.92	0.002403
2266.57	0.002603
2276.21	0.002913
2285.86	0.003473
2295.5	0.003913
2305.15	0.003543
2314.79	0.003333
2324.44	0.003343
2334.08	0.003323
2343.73	0.003583
2353.37	0.003533
2363.02	0.003213
2372.66	0.002793
2382.31	0.002453
2391.95	0.002133
2401.6	0.002073
2411.24	0.001823
2420.89	0.001983
2430.53	0.001963
2440.18	0.002173
2449.82	0.001823
2459.47	0.001673
2469.11	0.001673
2478.75	0.001893
2488.4	0.001803
2498.04	0.001683
2507.69	0.001583
2517.33	0.0012146
2526.98	0.001087
2536.62	0.0009475
2546.27	0.0009565
2555.91	0.0009724
2565.56	0.0009341
2575.2	0.0009033
2584.85	0.0009506
2594.49	0.0009743
2604.14	0.0009096
2613.78	0.0009436
2623.43	0.0012301
2633.07	0.001883
2642.72	0.002173
2652.36	0.001443
2662.01	0.0008502
2671.65	0.0008241
2681.29	0.0007984
2690.94	0.0009541
2700.58	0.0008578
2710.23	0.0006723
2719.87	0.0007907
2729.52	0.0007378
2739.16	0.0004935
2748.81	0.00036636
2758.45	0.0002743
2768.1	0.0007266
2777.74	0.0007317
2787.39	0.00094
2797.03	0.0008701
2806.68	0.0010448
2816.32	0.0011193
2825.97	0.001363
2835.61	0.001763
2845.26	0.001853
2854.9	0.001783
2864.55	0.001393
2874.19	0.001413
2883.84	0.0012334
2893.48	0.0010478
2903.12	0.0009232
2912.77	0.0009501
2922.41	0.001513
2932.06	0.002333
2941.7	0.002583
2951.35	0.001803
2960.99	0.0011196
2970.64	0.0009055
2980.28	0.0008521
2989.93	0.0011829
2999.57	0.0011983
3009.22	0.0013196
3018.86	0.001583
3028.51	0.001403
3038.15	0.0013148
3047.8	0.0012746
3057.44	0.001843
3067.09	0.003153
3076.73	0.004003
3086.38	0.004423
3096.02	0.003723
3105.67	0.002733
3115.31	0.002493
3124.95	0.002143
3134.6	0.001803
3144.24	0.001413
3153.89	0.0008239
3163.53	0.00041262
3173.18	0.00039866
3182.82	0.0005908
3192.47	0.0004354
3202.11	0.00012
3211.76	0.0005107
3221.4	0.00035461
3231.05	0.00041555
3240.69	0.0004278
3250.34	0.00038674
3259.98	0.000196
3269.63	0.0002559
3279.27	0.00046
3288.92	0.0004688
3298.56	0.00038222
3308.21	0.000251
3317.85	0.00033139
3327.49	0.0002589
3337.14	0.000574
3346.78	0.0007066
3356.43	0.0005235
3366.07	0.0006185
3375.72	0.0006195
3385.36	0.0008859
3395.01	0.0008074
3404.65	0.0007138
3414.3	0.0004503
3423.94	0.0005167
3433.59	0.0006018
3443.23	0.0004815
3452.88	0.000442
3462.52	0.0003084
3472.17	0.0008723
3481.81	0.0011874
3491.46	0.002013
3501.1	0.004313
3510.75	0.006523
3520.39	0.006143
3530.04	0.003713
3539.68	0.002533
3549.32	0.003753
3558.97	0.011133
3568.61	0.054653
3578.26	0.237343
3587.9	0.190173
3597.55	0.019423
3607.19	0.005013
3616.84	0.002773
3626.48	0.002243
3636.13	0.002053
3645.77	0.001953
3655.42	0.001793
3665.06	0.001311
3674.71	0.0007872
3684.35	0.0009274
3694	0.0009654
3703.64	0.0011734
3713.29	0.0008772
3722.93	0.0008415
3732.58	0.0006084
3742.22	0.0005366
3751.86	0.0004411
3761.51	0.0004494
3771.15	0.0004647
3780.8	0.000611
3790.44	0.00039647
3800.09	0.000164
3809.73	0.00032952
3819.38	0.000337838
3829.02	0.0002824
3838.67	0.0002508
3848.31	0.00039386
3857.96	8.9e-05
3867.6	0.000123
3877.25	0.000195
3886.89	0.000109
3896.54	0.000171
3906.18	0.00041017
3915.83	0.0002346
3925.47	0.00036943
3935.12	0.00036087
3944.76	0.0003121
3954.41	0.0002781
3964.05	0.0003213
3973.69	0.00037624
3983.34	0.000203
3992.98	3.9e-05
