Infrared Spectrum: 4-Trifluoromethylbenzaldehyde
Formula: C 8 H 5 F 3 O
CAS: 455-19-6
State: gas
Origin: EPA-IR VAPOR PHASE LIBRARY
1/CM	ABSORBANCE
549.9	0.0030004
559.547	0.0033495
569.193	0.00378
578.84	0.00497
588.486	0.00624
598.133	0.00724
607.779	0.00615
617.426	0.00418
627.072	0.0031286
636.719	0.0027993
646.365	0.002265
656.012	0.002485
665.658	0.0029413
675.305	0.0028954
684.951	0.0026025
694.598	0.0025878
704.245	0.0032108
713.891	0.00455
723.538	0.00561
733.184	0.00596
742.831	0.00718
752.477	0.02438
762.124	0.03026
771.77	0.00731
781.417	0.00403
791.063	0.00553
800.71	0.0086
810.356	0.01305
820.003	0.02844
829.649	0.06214
839.296	0.059
848.943	0.0294
858.589	0.01418
868.236	0.00554
877.882	0.0027974
887.529	0.002266
897.175	0.002232
906.822	0.002235
916.468	0.001923
926.115	0.001815
935.761	0.001948
945.408	0.002529
955.054	0.0034133
964.701	0.0034774
974.347	0.0033873
983.994	0.0038
993.64	0.00415
1003.29	0.00606
1012.93	0.02474
1022.58	0.02297
1032.23	0.00507
1041.87	0.00532
1051.52	0.0185
1061.17	0.09504
1070.81	0.11191
1080.46	0.0255
1090.11	0.01696
1099.75	0.01906
1109.4	0.02518
1119.05	0.03079
1128.69	0.04546
1138.34	0.08449
1147.99	0.161
1157.63	0.20565
1167.28	0.20162
1176.92	0.18838
1186.57	0.09938
1196.22	0.06435
1205.86	0.04801
1215.51	0.01524
1225.16	0.01019
1234.8	0.00858
1244.45	0.00804
1254.1	0.00794
1263.74	0.00895
1273.39	0.00943
1283.04	0.01161
1292.68	0.02299
1302.33	0.0654
1311.98	0.16433
1321.62	0.29078
1331.27	0.18685
1340.92	0.04631
1350.56	0.01952
1360.21	0.01248
1369.86	0.01182
1379.5	0.01461
1389.15	0.01399
1398.79	0.01032
1408.44	0.01017
1418.09	0.01106
1427.73	0.01032
1437.38	0.00663
1447.03	0.00382
1456.67	0.0027485
1466.32	0.002474
1475.97	0.002188
1485.61	0.002443
1495.26	0.0038
1504.91	0.01002
1514.55	0.0116
1524.2	0.00374
1533.85	0.002301
1543.49	0.002303
1553.14	0.00263991
1562.79	0.003209
1572.43	0.00482
1582.08	0.00781
1591.73	0.00766
1601.37	0.00507
1611.02	0.00482
1620.67	0.00437
1630.31	0.0032797
1639.96	0.0035403
1649.6	0.00471
1659.25	0.00628
1668.9	0.00734
1678.54	0.00802
1688.19	0.00955
1697.84	0.01275
1707.48	0.02511
1717.13	0.08064
1726.78	0.16223
1736.42	0.0781
1746.07	0.01767
1755.72	0.0064
1765.36	0.00379
1775.01	0.00384
1784.66	0.00417
1794.3	0.00409
1803.95	0.0041
1813.6	0.00423
1823.24	0.0034009
1832.89	0.00268428
1842.54	0.002511
1852.18	0.002518
1861.83	0.002416
1871.47	0.002407
1881.12	0.002427
1890.77	0.002314
1900.41	0.0026275
1910.06	0.003144
1919.71	0.0035015
1929.35	0.0034532
1939	0.0029623
1948.65	0.002534
1958.29	0.002437
1967.94	0.002312
1977.59	0.002085
1987.23	0.002037
1996.88	0.002002
2006.53	0.002104
2016.17	0.002037
2025.82	0.002237
2035.47	0.002105
2045.11	0.001771
2054.76	0.001695
2064.41	0.00176
2074.05	0.002005
2083.7	0.002151
2093.35	0.001834
2102.99	0.0016
2112.64	0.00155
2122.28	0.00149
2131.93	0.00154
2141.58	0.00156
2151.22	0.00153
2160.87	0.00156
2170.52	0.00159
2180.16	0.00156
2189.81	0.00162
2199.46	0.001736
2209.1	0.001857
2218.75	0.001963
2228.4	0.001967
2238.04	0.002006
2247.69	0.001886
2257.34	0.001885
2266.98	0.002105
2276.63	0.002307
2286.28	0.002476
2295.92	0.002328
2305.57	0.00216
2315.22	0.002038
2324.86	0.002189
2334.51	0.00223
2344.16	0.002331
2353.8	0.002211
2363.45	0.002135
2373.09	0.002191
2382.74	0.001983
2392.39	0.001887
2402.03	0.001726
2411.68	0.001689
2421.33	0.00156
2430.97	0.00157
2440.62	0.00161
2450.27	0.00164
2459.91	0.00157
2469.56	0.001713
2479.21	0.001864
2488.85	0.001848
2498.5	0.001805
2508.15	0.001701
2517.79	0.00155
2527.44	0.00151
2537.09	0.00147
2546.73	0.0015
2556.38	0.00152
2566.03	0.001721
2575.67	0.001737
2585.32	0.001831
2594.96	0.001888
2604.61	0.001887
2614.26	0.001917
2623.9	0.001957
2633.55	0.002163
2643.2	0.002219
2652.84	0.002147
2662.49	0.002514
2672.14	0.0032732
2681.78	0.00437
2691.43	0.00536
2701.08	0.00711
2710.72	0.01078
2720.37	0.01612
2730.02	0.01799
2739.66	0.01456
2749.31	0.01032
2758.96	0.00779
2768.6	0.00759
2778.25	0.00942
2787.9	0.01223
2797.54	0.01512
2807.19	0.01872
2816.84	0.02378
2826.48	0.02241
2836.13	0.01442
2845.77	0.00777
2855.42	0.00445
2865.07	0.0032484
2874.71	0.0025808
2884.36	0.002174
2894.01	0.001851
2903.65	0.001846
2913.3	0.001819
2922.95	0.002013
2932.59	0.002246
2942.24	0.002251
2951.89	0.001846
2961.53	0.00149
2971.18	0.00115
2980.83	0.00107
2990.47	0.00113
3000.12	0.00109
3009.77	0.00116
3019.41	0.001694
3029.06	0.002306
3038.71	0.0031495
3048.35	0.0033877
3058	0.0028015
3067.64	0.002445
3077.29	0.002141
3086.94	0.002041
3096.58	0.001887
3106.23	0.001945
3115.88	0.00147
3125.52	0.00122
3135.17	0.00098
3144.82	0.00067
3154.46	0.00034
3164.11	0.00026
3173.76	0.0003
3183.4	0.00025
3193.05	0.00018
3202.7	9e-05
3212.34	0.00033
3221.99	0.00014
3231.64	0.00035
3241.28	8e-05
3250.93	0.00027
3260.58	0.00022
3270.22	0.00012
3279.87	0.00029
3289.52	0.00024
3299.16	0.00019
3308.81	0.00032
3318.45	0.00025
3328.1	0.00022
3337.75	0.00026
3347.39	0.00032
3357.04	0.00039
3366.69	0.00032
3376.33	0.00058
3385.98	0.00064
3395.63	0.00099
3405.27	0.00116
3414.92	0.00145
3424.57	0.002217
3434.21	0.0028665
3443.86	0.002314
3453.51	0.00118
3463.15	0.00074
3472.8	0.00053
3482.45	0.00059
3492.09	0.00047
3501.74	0.00071
3511.39	0.00068
3521.03	0.00058
3530.68	0.00056
3540.33	0.0007
3549.97	0.00086
3559.62	0.0007
3569.26	0.00066
3578.91	0.00104
3588.56	0.00107
3598.2	0.00092
3607.85	0.00084
3617.5	0.00082
3627.14	0.00103
3636.79	0.00099
3646.44	0.00116
3656.08	0.00114
3665.73	0.00122
3675.38	0.00126
3685.02	0.00133
3694.67	0.00117
3704.32	0.00129
3713.96	0.00115
3723.61	0.00135
3733.26	0.00118
3742.9	0.00136
3752.55	0.00114
3762.2	0.00132
3771.84	0.00111
3781.49	0.00124
3791.13	0.00128
3800.78	0.00125
3810.43	0.00126
3820.07	0.00126
3829.72	0.00121
3839.37	0.00127
3849.01	0.00125
3858.66	0.00124
3868.31	0.00136
3877.95	0.00137
3887.6	0.0013
3897.25	0.0013
3906.89	0.00146
3916.54	0.00142
3926.19	0.00149
3935.83	0.00128
3945.48	0.00143
3955.13	0.00143
3964.77	0.00134
3974.42	0.00146
3984.07	0.00135
3993.71	0.00133
