Infrared Spectrum: Benzoic acid, m-fluoro-
Formula: C7 H5 F O2
CAS: 455-38-9
State: SOLID (SPLIT MULL), FLUOROLUBE FOR 3800-1330 CM^-^1, NUJOL FOR 1330-460 CM^-^1
Class: COBLENTZ III
Instrument: DOW KBr FOREPRISM-GRATING
Instrument parameters: BLAZED AT 3.5, 12.0, 20.0 MICRON AND CHANGED AT 5.0, 7.5, 14.9 MICRON
Sampling: TRANSMISSION
Resolution: 2
Origin: DOW CHEMICAL COMPANY
1/CM	TRANSMITTANCE
3786	0.7808
3777	0.7818
3768	0.7828
3759	0.7839
3750	0.7861
3741	0.7858
3732	0.7868
3723	0.7882
3714	0.7895
3705	0.7908
3696	0.7921
3687	0.7933
3678	0.7946
3669	0.7958
3660	0.7971
3651	0.7988
3642	0.8007
3633	0.8024
3624	0.8037
3615	0.8042
3606	0.8043
3597	0.8028
3588	0.8099
3579	0.8039
3570	0.7914
3561	0.8091
3552	0.8118
3543	0.8128
3534	0.8138
3525	0.8144
3516	0.815
3507	0.8157
3498	0.8171
3489	0.8184
3480	0.8196
3471	0.8207
3462	0.8218
3453	0.8228
3444	0.8241
3435	0.8252
3426	0.8264
3417	0.8271
3408	0.8281
3399	0.8289
3390	0.8292
3381	0.829
3372	0.8288
3363	0.8281
3354	0.8274
3345	0.8255
3336	0.8236
3327	0.821
3318	0.8182
3309	0.8144
3300	0.8103
3291	0.8055
3282	0.8001
3273	0.7939
3264	0.7871
3255	0.7799
3246	0.7721
3237	0.7637
3228	0.7543
3219	0.7428
3210	0.7315
3201	0.7184
3192	0.7054
3183	0.6928
3174	0.6794
3165	0.6637
3156	0.6478
3147	0.6326
3138	0.6176
3129	0.5992
3120	0.5802
3111	0.5608
3102	0.5389
3093	0.5137
3084	0.4841
3075	0.4735
3066	0.4765
3057	0.4734
3048	0.48
3039	0.4865
3030	0.4774
3021	0.46
3012	0.4453
3003	0.4396
2994	0.4393
2985	0.4407
2976	0.443
2967	0.4446
2958	0.4465
2949	0.4502
2940	0.4592
2931	0.4689
2922	0.4721
2913	0.4675
2904	0.4624
2895	0.4515
2886	0.4394
2877	0.4372
2868	0.4414
2859	0.4509
2850	0.458
2841	0.4564
2832	0.4398
2823	0.4415
2814	0.4582
2805	0.481
2796	0.4983
2787	0.5182
2778	0.5379
2769	0.556
2760	0.5695
2751	0.5745
2742	0.5775
2733	0.5768
2724	0.5734
2715	0.5628
2706	0.5462
2697	0.5396
2688	0.5312
2679	0.5135
2670	0.4935
2661	0.4993
2652	0.5178
2643	0.5359
2634	0.542
2625	0.5377
2616	0.5331
2607	0.5364
2598	0.541
2589	0.5423
2580	0.5362
2571	0.519
2562	0.5046
2553	0.5132
2544	0.5355
2535	0.5648
2526	0.5794
2517	0.5858
2508	0.5906
2499	0.6023
2490	0.6196
2481	0.6358
2472	0.6486
2463	0.6607
2454	0.6706
2445	0.6778
2436	0.6844
2427	0.6908
2418	0.6965
2409	0.7018
2400	0.7075
2391	0.7131
2382	0.7188
2373	0.7244
2364	0.73
2355	0.7355
2346	0.7408
2337	0.746
2328	0.7514
2319	0.7567
2310	0.7619
2301	0.7672
2292	0.7718
2283	0.7762
2274	0.7808
2265	0.7853
2256	0.7898
2247	0.7943
2238	0.7992
2229	0.8043
2220	0.8083
2211	0.8065
2202	0.8047
2193	0.8089
2184	0.8167
2175	0.8255
2166	0.8337
2157	0.8413
2148	0.8462
2139	0.8451
2130	0.8465
2121	0.8518
2112	0.8566
2103	0.8608
2094	0.8628
2085	0.8635
2076	0.8627
2067	0.8612
2058	0.8593
2049	0.858
2040	0.8594
2031	0.8649
2022	0.8696
2013	0.8701
2004	0.87
1995	0.8701
1986	0.8704
1977	0.8714
1968	0.8711
1959	0.8536
1950	0.8585
1941	0.8647
1932	0.8662
1923	0.8673
1914	0.8671
1905	0.8614
1896	0.8463
1887	0.8441
1878	0.8418
1869	0.8404
1860	0.8477
1851	0.8548
1842	0.8543
1833	0.8505
1824	0.8497
1815	0.8543
1806	0.8496
1797	0.8436
1788	0.8467
1779	0.8331
1770	0.8397
1761	0.865
1752	0.866
1743	0.8596
1734	0.8202
1725	0.7086
1716	0.5448
1707	0.1303
1698	0.0585
1689	0.053
1680	0.0771
1671	0.2298
1662	0.4985
1653	0.5843
1644	0.6614
1635	0.7376
1626	0.7844
1617	0.7558
1608	0.7715
1599	0.2721
1590	0.3045
1581	0.6582
1572	0.754
1563	0.7999
1554	0.8291
1545	0.8463
1536	0.8487
1527	0.8378
1518	0.8228
1509	0.7981
1500	0.7949
1491	0.6042
1482	0.7732
1473	0.7014
1464	0.3403
1455	0.2234
1446	0.614
1437	0.7054
1428	0.5241
1419	0.3959
1410	0.4829
1401	0.6782
1392	0.7521
1383	0.7925
1374	0.8099
1365	0.822
1356	0.8041
1347	0.7039
1338	0.6228
1329	0.4359
1320	0.2109
1311	0.1864
1302	0.088
1293	0.3021
1284	0.4634
1275	0.5464
1266	0.3054
1257	0.6482
1248	0.7108
1239	0.7089
1230	0.4034
1221	0.5785
1212	0.495
1203	0.7332
1194	0.7732
1185	0.7897
1176	0.7812
1167	0.7875
1158	0.6928
1149	0.7886
1140	0.8001
1131	0.8019
1122	0.8137
1113	0.8111
1104	0.7717
1095	0.704
1086	0.7537
1077	0.7651
1068	0.7333
1059	0.7925
1050	0.8056
1041	0.8095
1032	0.8054
1023	0.8051
1014	0.8133
1005	0.8106
996	0.8046
987	0.813
978	0.8034
969	0.8021
960	0.7861
951	0.7681
942	0.7395
933	0.6465
924	0.4614
915	0.3248
906	0.5154
897	0.649
888	0.3778
879	0.7584
870	0.7918
861	0.8014
852	0.8026
843	0.8
834	0.8033
825	0.815
816	0.8248
807	0.7581
798	0.7901
789	0.8238
780	0.8138
771	0.5174
762	0.534
753	0.0805
744	0.7253
735	0.8168
726	0.8171
717	0.8017
708	0.8451
699	0.8583
690	0.8598
681	0.8578
672	0.7955
663	0.6097
654	0.7921
645	0.8139
636	0.8168
627	0.818
618	0.8158
609	0.8086
600	0.8055
591	0.799
582	0.7833
573	0.6775
564	0.5564
555	0.7578
546	0.7807
537	0.7828
528	0.7598
519	0.7495
510	0.7081
501	0.7401
492	0.7593
483	0.7668
474	0.7678
465	0.7617
456	0.7558
