Infrared Spectrum: cis-Bicyclo[4.3.0]nonane
Formula: C 9 H 16
CAS: 4551-51-3
State: gas
Instrument: HP-GC/MS/IRD
Origin: NIST Mass Spectrometry Data Center
1/CM	ABSORBANCE
550	0.0007965
562	0.0004158
574	0.00027
586	0.0003294
598	0.000162
610	0.0001161
622	0.0001404
634	3.51e-05
646	0.0001161
658	0.0001836
670	3.78e-05
682	6.48e-05
694	7.56e-05
706	9.18e-05
718	6.75e-05
730	8.1e-05
742	5.13e-05
754	0.0001161
766	8.37e-05
778	7.83e-05
790	0.000135
802	0.0001809
814	0.0001701
826	0.0002484
838	0.0001809
850	0.0001998
862	0.0001971
874	0.0001323
886	0.0002943
898	0.0003807
910	0.0002997
922	0.0001782
934	0.0001755
946	0.0001512
958	0.0001782
970	0.0002457
982	0.0002349
994	0.0001863
1006	0.0001701
1018	0.0001917
1030	0.0002403
1042	0.000297
1054	0.0003159
1066	0.0003078
1078	0.0003186
1090	0.0002997
1102	0.0002916
1114	0.0003078
1126	0.0003375
1138	0.0003294
1150	0.0003213
1162	0.0003483
1174	0.0003348
1186	0.0003537
1198	0.000378
1210	0.0003726
1222	0.0004104
1234	0.0004941
1246	0.0004941
1258	0.0005346
1270	0.0004806
1282	0.0005238
1294	0.0005049
1306	0.0004995
1318	0.0004617
1330	0.0005292
1342	0.0004212
1354	0.0006183
1366	0.0005805
1378	0.0004833
1390	0.0003672
1402	0.0004158
1414	0.0004077
1426	0.0005994
1438	0.0010152
1450	0.0018522
1462	0.0019845
1474	0.0014175
1486	0.0009855
1498	0.0005454
1510	5.13e-05
1522	0.0001215
1534	0.0002997
1546	0.0001998
1558	4.59e-05
1570	0.0003672
1582	0.0004347
1594	0.0004212
1606	0.0004239
1618	0.0003213
1630	0.0003537
1642	0.0002808
1654	4.59e-05
1666	0.0002646
1678	0.0002133
1690	0.0002403
1702	4.59e-05
1714	7.83e-05
1726	0.0002754
1738	0.0001539
1750	7.02e-05
1762	0.0002025
1774	0.000189
1786	0.0002025
1798	0.000189
1810	0.00027
1822	0.0002214
1834	0.0002241
1846	0.0001566
1858	0.0002592
1870	0.0002052
1882	0.0002457
1894	0.000243
1906	0.0002511
1918	0.0002052
1930	0.0002538
1942	0.0002052
1954	0.0002214
1966	0.0002241
1978	0.0002322
1990	0.0002052
2002	0.0002187
2014	0.0002079
2026	0.0002214
2038	0.0001998
2050	0.0001863
2062	0.0001917
2074	0.000189
2086	0.0001863
2098	0.0001863
2110	0.0002079
2122	0.0001647
2134	0.0001512
2146	0.0001944
2158	0.0001647
2170	0.0001431
2182	0.0001539
2194	0.000162
2206	0.0001431
2218	0.0001296
2230	0.0001269
2242	0.0001188
2254	0.0001296
2266	9.45e-05
2278	8.1e-05
2290	7.83e-05
2302	5.13e-05
2314	2.43e-05
2326	1.62e-05
2338	7.56e-05
2350	4.86e-05
2362	4.05e-05
2374	5.13e-05
2386	7.02e-05
2398	9.18e-05
2410	8.91e-05
2422	9.99e-05
2434	9.72e-05
2446	0.000108
2458	0.0001215
2470	0.000108
2482	0.0001404
2494	0.0001431
2506	0.000135
2518	0.0001458
2530	0.0001539
2542	0.0001701
2554	0.0002079
2566	0.0002133
2578	0.000216
2590	0.0002376
2602	0.0002565
2614	0.00027
2626	0.0002943
2638	0.0003402
2650	0.0004131
2662	0.000459
2674	0.0004131
2686	0.0003591
2698	0.0003105
2710	0.0003429
2722	0.0003537
2734	0.0003294
2746	0.0003564
2758	0.0003888
2770	0.000432
2782	0.0005049
2794	0.0005508
2806	0.0007128
2818	0.0008856
2830	0.0011205
2842	0.002295
2854	0.0059643
2866	0.0094176
2878	0.0099738
2890	0.0087966
2902	0.0098226
2914	0.0157032
2926	0.0243864
2938	0.025542
2950	0.0197397
2962	0.0136593
2974	0.0060237
2986	0.0020304
2998	0.0012312
3010	0.0009342
3022	0.000729
3034	0.0005913
3046	0.0004752
3058	0.0004509
3070	0.000405
3082	0.0003915
3094	0.0003456
3106	0.0003186
3118	0.000324
3130	0.0002646
3142	0.00027
3154	0.0002241
3166	0.0002295
3178	0.0002538
3190	0.0002457
3202	0.0002322
3214	0.0002889
3226	0.0002592
3238	0.000243
3250	0.0002214
3262	0.0002808
3274	0.0002565
3286	0.0002592
3298	0.0002511
3310	0.0002214
3322	0.0002538
3334	0.0002241
3346	0.0002376
3358	0.0002079
3370	0.0002565
3382	0.000243
3394	0.0002349
3406	0.0002484
3418	0.0002106
3430	0.0002484
3442	0.0002322
3454	0.0002241
3466	0.0002511
3478	0.0002187
3490	0.0002376
3502	0.0001728
3514	0.0002619
3526	0.0001755
3538	0.0002403
3550	0.0002052
3562	0.0001836
3574	0.0002484
3586	7.29e-05
3598	0.000216
3610	6.75e-05
3622	0.0001566
3634	0.0001728
3646	0.0001161
3658	0.0002565
3670	0.0001134
3682	0.0002862
3694	0.0002781
3706	0.0002646
3718	0.0002376
3730	0.000162
3742	0.0001053
3754	0.0001431
3766	0.0002862
3778	0.0003726
3790	0.0003861
3802	0.0002727
3814	0.000297
3826	0.0003078
3838	0.000216
