Infrared Spectrum: 5-PIPERONYLIDENEBARBITURIC ACID
Formula: C12 H8 N2 O5
CAS: 4551-03-5
State: SOLID (SPLIT MULL), FLUOROLUBE FOR 3800-1330 CM^-^1, NUJOL FOR 1330-400 CM^-^1
Melting point: MORE THAN 330 C
Class: COBLENTZ III
Instrument: DOW KBr FOREPRISM-GRATING
Instrument parameters: BLAZED AT 3.5, 12.0, 20.0 MICRON AND CHANGED AT 5.0, 7.5, 14.9 MICRON
Sampling: TRANSMISSION
Resolution: 2
Origin: DOW CHEMICAL COMPANY
1/CM	TRANSMITTANCE
414.826	0.7
423.721	0.777
432.617	0.801
441.512	0.869
450.408	0.872
459.303	0.922
468.199	0.936
477.094	0.937
485.99	0.925
494.885	0.723
503.781	0.654
512.676	0.873
521.572	0.645
530.467	0.92
539.363	0.983
548.258	0.991
557.154	0.991
566.049	0.97
574.944	0.969
583.84	0.984
592.735	0.861
601.631	0.838
610.526	0.991
619.422	0.994
628.317	0.994
637.213	0.99
646.108	0.968
655.004	0.983
663.899	0.98
672.795	0.976
681.69	0.979
690.586	0.959
699.481	0.95
708.377	0.979
717.272	0.955
726.167	0.945
735.063	0.906
743.958	0.97
752.854	0.965
761.749	0.956
770.645	0.926
779.54	0.913
788.436	0.865
797.331	0.63
806.227	0.559
815.122	0.49
824.018	0.57
832.913	0.787
841.809	0.795
850.704	0.661
859.6	0.868
868.495	0.916
877.39	0.941
886.286	0.922
895.181	0.775
904.077	0.904
912.972	0.615
921.868	0.905
930.763	0.965
939.659	0.955
948.554	0.973
957.45	0.97
966.345	0.963
975.241	0.937
984.136	0.948
993.032	0.961
1001.93	0.948
1010.82	0.927
1019.72	0.855
1028.61	0.545
1037.51	0.648
1046.4	0.919
1055.3	0.968
1064.2	0.979
1073.09	0.961
1081.99	0.969
1090.88	0.968
1099.78	0.945
1108.67	0.788
1117.57	0.697
1126.46	0.895
1135.36	0.918
1144.25	0.887
1153.15	0.969
1162.05	0.966
1170.94	0.963
1179.84	0.955
1188.73	0.886
1197.63	0.773
1206.52	0.65
1215.42	0.779
1224.31	0.92
1233.21	0.904
1242.1	0.786
1251	0.451
1259.9	0.2591
1268.79	0.695
1277.69	0.343
1286.58	0.823
1295.48	0.893
1304.37	0.88
1313.27	0.834
1322.16	0.68
1331.06	0.329
1339.95	0.629
1348.85	0.725
1357.75	0.604
1366.64	0.831
1375.54	0.809
1384.43	0.758
1393.33	0.683
1402.22	0.443
1411.12	0.298
1420.01	0.593
1428.91	0.491
1437.81	0.431
1446.7	0.427
1455.6	0.175
1464.49	0.2621
1473.39	0.745
1482.28	0.773
1491.18	0.575
1500.07	0.554
1508.97	0.662
1517.86	0.794
1526.76	0.726
1535.66	0.445
1544.55	0.39
1553.45	0.28
1562.34	0.652
1571.24	0.813
1580.13	0.809
1589.03	0.82
1597.92	0.769
1606.82	0.801
1615.71	0.786
1624.61	0.752
1633.51	0.693
1642.4	0.58
1651.3	0.418
1660.19	0.225
1669.09	0.087
1677.98	0.325
1686.88	0.245
1695.77	0.2631
1704.67	0.69
1713.56	0.718
1722.46	0.375
1731.36	0.238
1740.25	0.4041
1749.15	0.83
1758.04	0.958
1766.94	0.969
1775.83	0.966
1784.73	0.979
1793.62	0.98
1802.52	0.983
1811.41	0.979
1820.31	0.976
1829.21	0.98
1838.1	0.98
1847	0.981
1855.89	0.986
1864.79	0.986
1873.68	0.983
1882.58	0.97
1891.47	0.977
1900.37	0.977
1909.27	0.976
1918.16	0.976
1927.06	0.975
1935.95	0.976
1944.85	0.973
1953.74	0.959
1962.64	0.966
1971.53	0.966
1980.43	0.963
1989.32	0.956
1998.22	0.965
2007.12	0.966
2016.01	0.963
2024.91	0.959
2033.8	0.958
2042.7	0.958
2051.59	0.955
2060.49	0.951
2069.38	0.95
2078.28	0.951
2087.17	0.9479
2096.07	0.9439
2104.97	0.9338
2113.86	0.933
2122.76	0.937
2131.65	0.937
2140.55	0.936
2149.44	0.934
2158.34	0.931
2167.23	0.93
2176.13	0.929
2185.02	0.926
2193.92	0.923
2202.82	0.923
2211.71	0.9217
2220.61	0.9177
2229.5	0.913
2238.4	0.9106
2247.29	0.9076
2256.19	0.9048
2265.08	0.8978
2273.98	0.894
2282.87	0.893
2291.77	0.894
2300.67	0.895
2309.56	0.895
2318.46	0.895
2327.35	0.894
2336.25	0.894
2345.14	0.8937
2354.04	0.893
2362.93	0.893
2371.83	0.8924
2380.73	0.89
2389.62	0.888
2398.52	0.89
2407.41	0.89
2416.31	0.89
2425.2	0.891
2434.1	0.89
2442.99	0.8877
2451.89	0.8837
2460.78	0.88
2469.68	0.8756
2478.58	0.875
2487.47	0.875
2496.37	0.879
2505.26	0.88
2514.16	0.881
2523.05	0.881
2531.95	0.881
2540.84	0.88
2549.74	0.8782
2558.63	0.877
2567.53	0.877
2576.43	0.875
2585.32	0.875
2594.22	0.8725
2603.11	0.8706
2612.01	0.869
2620.9	0.869
2629.8	0.868
2638.69	0.868
2647.59	0.866
2656.48	0.866
2665.38	0.8655
2674.28	0.864
2683.17	0.862
2692.07	0.858
2700.96	0.855
2709.86	0.855
2718.75	0.854
2727.65	0.851
2736.54	0.844
2745.44	0.8404
2754.33	0.837
2763.23	0.836
2772.13	0.8348
2781.02	0.8304
2789.92	0.8264
2798.81	0.8118
2807.71	0.7809
2816.6	0.7754
2825.5	0.7783
2834.39	0.7915
2843.29	0.805
2852.19	0.806
2861.08	0.804
2869.98	0.805
2878.87	0.805
2887.77	0.804
2896.66	0.801
2905.56	0.8
2914.45	0.795
2923.35	0.79
2932.24	0.787
2941.14	0.7833
2950.04	0.78
2958.93	0.776
2967.83	0.7723
2976.72	0.7652
2985.62	0.755
2994.51	0.7417
3003.41	0.7301
3012.3	0.7207
3021.2	0.7094
3030.09	0.697
3038.99	0.6742
3047.89	0.6486
3056.78	0.6234
3065.68	0.5966
3074.57	0.5547
3083.47	0.5325
3092.36	0.4806
3101.26	0.477
3110.15	0.4809
3119.05	0.4943
3127.94	0.5146
3136.84	0.5586
3145.74	0.565
3154.63	0.5681
3163.53	0.5583
3172.42	0.5336
3181.32	0.4889
3190.21	0.4581
3199.11	0.3716
3208	0.2893
3216.9	0.2192
3225.79	0.2645
3234.69	0.4041
3243.59	0.5623
3252.48	0.6173
3261.38	0.6499
3270.27	0.6898
3279.17	0.7629
3288.06	0.809
3296.96	0.829
3305.85	0.837
3314.75	0.851
3323.65	0.858
3332.54	0.861
3341.44	0.856
3350.33	0.8539
3359.23	0.852
3368.12	0.852
3377.02	0.852
3385.91	0.8509
3394.81	0.8471
3403.7	0.8448
3412.6	0.843
3421.5	0.8409
3430.39	0.838
3439.29	0.838
3448.18	0.837
3457.08	0.836
3465.97	0.834
3474.87	0.833
3483.76	0.8309
3492.66	0.8287
3501.55	0.826
3510.45	0.8247
3519.35	0.82
3528.24	0.8176
3537.14	0.816
3546.03	0.816
3554.93	0.815
3563.82	0.812
3572.72	0.811
3581.61	0.808
3590.51	0.8075
3599.4	0.805
3608.3	0.804
3617.2	0.804
3626.09	0.804
3634.99	0.802
3643.88	0.8
3652.78	0.798
3661.67	0.797
3670.57	0.797
3679.46	0.795
3688.36	0.7937
3697.25	0.7924
3706.15	0.7907
3715.05	0.788
3723.94	0.788
3732.84	0.787
3741.73	0.786
3750.63	0.7836
3759.52	0.781
3768.42	0.779
3777.31	0.7782
3786.21	0.776
3795.1	0.775
3804	0.775
