Infrared Spectrum: Phenylthiotrimethylsilane
Formula: C 9 H 14 S Si
CAS: 4551-15-9
State: gas
Origin: EPA-IR VAPOR PHASE LIBRARY
1/CM	ABSORBANCE
549.9	0.0012768
559.547	0.0016392
569.193	0.0015593
578.84	0.0017131
588.486	0.0017181
598.133	0.0020491
607.779	0.00425
617.426	0.01583
627.072	0.02971
636.719	0.01718
646.365	0.0071
656.012	0.00662
665.658	0.00836
675.305	0.0135
684.951	0.02781
694.598	0.04457
704.245	0.03707
713.891	0.01979
723.538	0.01921
733.184	0.03419
742.831	0.04079
752.477	0.02934
762.124	0.02599
771.77	0.01864
781.417	0.01272
791.063	0.01207
800.71	0.01552
810.356	0.025
820.003	0.04708
829.649	0.08403
839.296	0.13854
848.943	0.14989
858.589	0.09511
868.236	0.05694
877.882	0.03669
887.529	0.02596
897.175	0.0204
906.822	0.01689
916.468	0.01249
926.115	0.0086
935.761	0.0062
945.408	0.00459
955.054	0.00347
964.701	0.0028
974.347	0.00269
983.994	0.00261
993.64	0.00264
1003.29	0.00312
1012.93	0.00439
1022.58	0.01115
1032.23	0.00762
1041.87	0.002317
1051.52	0.00281
1061.17	0.0044
1070.81	0.00629
1080.46	0.00954
1090.11	0.0077
1099.75	0.0046
1109.4	0.00439
1119.05	0.00297
1128.69	0.001463
1138.34	0.0012568
1147.99	0.001171
1157.63	0.0012692
1167.28	0.0015597
1176.92	0.0016969
1186.57	0.001623
1196.22	0.00143231
1205.86	0.0015191
1215.51	0.00259
1225.16	0.00562
1234.8	0.01314
1244.45	0.02997
1254.1	0.04878
1263.74	0.03958
1273.39	0.01967
1283.04	0.00728
1292.68	0.00485
1302.33	0.00476
1311.98	0.00486
1321.62	0.00454
1331.27	0.0036
1340.92	0.00265
1350.56	0.00237
1360.21	0.00267
1369.86	0.0032
1379.5	0.00379
1389.15	0.00454
1398.79	0.00538
1408.44	0.00582
1418.09	0.00562
1427.73	0.00695
1437.38	0.00849
1447.03	0.00733
1456.67	0.00809
1466.32	0.01316
1475.97	0.02022
1485.61	0.0153
1495.26	0.00478
1504.91	0.00271
1514.55	0.0023174
1524.2	0.00238
1533.85	0.0023201
1543.49	0.00239
1553.14	0.00297
1562.79	0.00461
1572.43	0.00992
1582.08	0.01555
1591.73	0.00887
1601.37	0.00324
1611.02	0.0021621
1620.67	0.0017038
1630.31	0.0017073
1639.96	0.0018658
1649.6	0.0018246
1659.25	0.0015555
1668.9	0.001195
1678.54	0.00117
1688.19	0.001177
1697.84	0.001231
1707.48	0.00141609
1717.13	0.00135312
1726.78	0.0014889
1736.42	0.0015819
1746.07	0.0016204
1755.72	0.0012977
1765.36	0.00138285
1775.01	0.0015611
1784.66	0.0019395
1794.3	0.0023318
1803.95	0.0020477
1813.6	0.0016873
1823.24	0.00136269
1832.89	0.001212
1842.54	0.0013648
1852.18	0.0016825
1861.83	0.00234
1871.47	0.00298
1881.12	0.00301
1890.77	0.0023211
1900.41	0.0016314
1910.06	0.0014859
1919.71	0.0018173
1929.35	0.00246
1939	0.00307
1948.65	0.00324
1958.29	0.00253
1967.94	0.0017901
1977.59	0.0015002
1987.23	0.0013096
1996.88	0.00135708
2006.53	0.0013045
2016.17	0.00133224
2025.82	0.0013053
2035.47	0.001168
2045.11	0.001119
2054.76	0.001073
2064.41	0.001117
2074.05	0.001119
2083.7	0.001194
2093.35	0.00122
2102.99	0.0012545
2112.64	0.0013036
2122.28	0.0012577
2131.93	0.001185
2141.58	0.001131
2151.22	0.0011
2160.87	0.001057
2170.52	0.001069
2180.16	0.001033
2189.81	0.000971
2199.46	0.000986
2209.1	0.000999
2218.75	0.001013
2228.4	0.001007
2238.04	0.001014
2247.69	0.001053
2257.34	0.001054
2266.98	0.001063
2276.63	0.001032
2286.28	0.000992
2295.92	0.001026
2305.57	0.001137
2315.22	0.001181
2324.86	0.00109
2334.51	0.001092
2344.16	0.001023
2353.8	0.000895
2363.45	0.000933
2373.09	0.000973
2382.74	0.000973
2392.39	0.000959
2402.03	0.000994
2411.68	0.00103
2421.33	0.000958
2430.97	0.000902
2440.62	0.000868
2450.27	0.000934
2459.91	0.000953
2469.56	0.000915
2479.21	0.001025
2488.85	0.001006
2498.5	0.001049
2508.15	0.001034
2517.79	0.000986
2527.44	0.000928
2537.09	0.000921
2546.73	0.000896
2556.38	0.000931
2566.03	0.000864
2575.67	0.000946
2585.32	0.000924
2594.96	0.000976
2604.61	0.00097
2614.26	0.000922
2623.9	0.000944
2633.55	0.000799
2643.2	0.000955
2652.84	0.000965
2662.49	0.001029
2672.14	0.00098
2681.78	0.000905
2691.43	0.000914
2701.08	0.000823
2710.72	0.000887
2720.37	0.000951
2730.02	0.001091
2739.66	0.001083
2749.31	0.001138
2758.96	0.0011
2768.6	0.00142193
2778.25	0.0017614
2787.9	0.002111
2797.54	0.00239
2807.19	0.0024
2816.84	0.00239
2826.48	0.0026
2836.13	0.00266
2845.77	0.003
2855.42	0.0032
2865.07	0.00351
2874.71	0.00423
2884.36	0.00601
2894.01	0.00984
2903.65	0.01359
2913.3	0.01091
2922.95	0.0063
2932.59	0.00513
2942.24	0.00736
2951.89	0.01534
2961.53	0.02694
2971.18	0.02522
2980.83	0.01541
2990.47	0.00836
3000.12	0.00614
3009.77	0.00636
3019.41	0.00695
3029.06	0.00691
3038.71	0.00615
3048.35	0.00832
3058	0.01582
3067.64	0.02594
3077.29	0.02426
3086.94	0.0169
3096.58	0.0079
3106.23	0.00371
3115.88	0.00273
3125.52	0.00254
3135.17	0.0022854
3144.82	0.002013
3154.46	0.00140159
3164.11	0.000861
3173.76	0.000749
3183.4	0.000746
3193.05	0.000764
3202.7	0.000848
3212.34	0.000814
3221.99	0.000402
3231.64	0.00049
3241.28	0.00037
3250.93	0.000474
3260.58	0.0003
3270.22	8e-05
3279.87	0.00018
3289.52	0.00027
3299.16	0.0003
3308.81	9e-05
3318.45	0.00026
3328.1	0.0002
3337.75	0.0001
3347.39	0.00031
3357.04	0.00031
3366.69	0.00026
3376.33	0.00021
3385.98	0.000435
3395.63	0.00018
3405.27	0.00012
3414.92	0.000371
3424.57	0.000404
3434.21	0.000448
3443.86	0.000352
3453.51	0.000377
3463.15	0.000457
3472.8	0.000365
3482.45	0.00053
3492.09	0.000568
3501.74	0.00037
3511.39	0.00034
3521.03	0.000517
3530.68	0.000592
3540.33	0.000584
3549.97	0.000432
3559.62	0.000736
3569.26	0.000549
3578.91	0.000792
3588.56	0.000697
3598.2	0.000743
3607.85	0.000818
3617.5	0.000943
3627.14	0.000798
3636.79	0.000998
3646.44	0.0012423
3656.08	0.001108
3665.73	0.001061
3675.38	0.001228
3685.02	0.001013
3694.67	0.00114
3704.32	0.001199
3713.96	0.00113
3723.61	0.0012978
3733.26	0.0012699
3742.9	0.00121
3752.55	0.0014448
3762.2	0.0012601
3771.84	0.001225
3781.49	0.001166
3791.13	0.001111
3800.78	0.001066
3810.43	0.001107
3820.07	0.000966
3829.72	0.000737
3839.37	0.000788
3849.01	0.00084
3858.66	0.00077
3868.31	0.000728
3877.95	0.00063
3887.6	0.00073
3897.25	0.00066
3906.89	0.000707
3916.54	0.000682
3926.19	0.000843
3935.83	0.000709
3945.48	0.000775
3955.13	0.000715
3964.77	0.000752
3974.42	0.000663
3984.07	0.000682
3993.71	0.000865
