Infrared Spectrum: 5-Bromo-1-hexene
Formula: C 6 H 11 Br
CAS: 4558-27-4
State: gas
Instrument: HP-GC/MS/IRD
Origin: NIST Mass Spectrometry Data Center
1/CM	ABSORBANCE
550	0.001803
562	0.001106
574	0.000973
586	0.001044
598	0.001112
610	0.001786
622	0.002108
634	0.001587
646	0.001049
658	0.000518
670	0.000373
682	0.00023
694	0.00015
706	9.8e-05
718	6.5e-05
730	6.5e-05
742	8.5e-05
754	0.000181
766	0.000405
778	0.000537
790	0.000561
802	0.000728
814	0.000849
826	0.000879
838	0.000606
850	0.000656
862	0.000952
874	0.001337
886	0.001903
898	0.003156
910	0.006269
922	0.007167
934	0.003934
946	0.002334
958	0.001925
970	0.00213
982	0.00326
994	0.004222
1006	0.00326
1018	0.002166
1030	0.001674
1042	0.001351
1054	0.001187
1066	0.001103
1078	0.001084
1090	0.001119
1102	0.001359
1114	0.00183
1126	0.001979
1138	0.002091
1150	0.002017
1162	0.002127
1174	0.002941
1186	0.003678
1198	0.003194
1210	0.002519
1222	0.003093
1234	0.003667
1246	0.003368
1258	0.002541
1270	0.001818
1282	0.001439
1294	0.001613
1306	0.001373
1318	0.001027
1330	0.00083
1342	0.0007
1354	0.000853
1366	0.001251
1378	0.002291
1390	0.002359
1402	0.001281
1414	0.001376
1426	0.002035
1438	0.003367
1450	0.004159
1462	0.002937
1474	0.0014
1486	0.000577
1498	0.000301
1510	0.000249
1522	0.000228
1534	0.000227
1546	0.000261
1558	0.000196
1570	0.000194
1582	0.000207
1594	0.000246
1606	0.000419
1618	0.000833
1630	0.001968
1642	0.003069
1654	0.001566
1666	0.000492
1678	0.000258
1690	0.000181
1702	0.000123
1714	8e-05
1726	5.8e-05
1738	5.4e-05
1750	6.5e-05
1762	6e-05
1774	5.6e-05
1786	7.5e-05
1798	0.000103
1810	0.000195
1822	0.000408
1834	0.00072
1846	0.000556
1858	0.000264
1870	0.000108
1882	7.8e-05
1894	0.000105
1906	8.1e-05
1918	4.1e-05
1930	5.1e-05
1942	5.1e-05
1954	5.7e-05
1966	0.000108
1978	0.000142
1990	9e-05
2002	3.7e-05
2014	3.8e-05
2026	2.9e-05
2038	5.1e-05
2050	5.3e-05
2062	6.8e-05
2074	3.8e-05
2086	6e-06
2098	2.4e-05
2110	2.6e-05
2122	2.3e-05
2134	2.2e-05
2146	4e-05
2158	3.4e-05
2170	2.6e-05
2182	4.2e-05
2194	4.4e-05
2206	6.1e-05
2218	7.1e-05
2230	4.4e-05
2242	8.5e-05
2254	6.5e-05
2266	7.7e-05
2278	4.8e-05
2290	5e-05
2302	3.7e-05
2314	3e-05
2326	1.2e-05
2338	4e-06
2350	9e-06
2362	3.8e-05
2374	3.9e-05
2386	2.3e-05
2398	1.7e-05
2410	3.9e-05
2422	1.2e-05
2434	4.8e-05
2446	5.7e-05
2458	4.5e-05
2470	4.1e-05
2482	4.6e-05
2494	6.5e-05
2506	4.9e-05
2518	3.4e-05
2530	5.4e-05
2542	5.7e-05
2554	6.5e-05
2566	5.5e-05
2578	8e-05
2590	6.1e-05
2602	7.5e-05
2614	5.3e-05
2626	5.7e-05
2638	5.4e-05
2650	0.000101
2662	6.9e-05
2674	5.5e-05
2686	0.000128
2698	0.000141
2710	0.000155
2722	0.000168
2734	0.000253
2746	0.000243
2758	0.000272
2770	0.000241
2782	0.000247
2794	0.00033
2806	0.000463
2818	0.000653
2830	0.001153
2842	0.002021
2854	0.002758
2866	0.003127
2878	0.003535
2890	0.00414
2902	0.00524
2914	0.006799
2926	0.009179
2938	0.009756
2950	0.007533
2962	0.007107
2974	0.009447
2986	0.00986
2998	0.007831
3010	0.004395
3022	0.002174
3034	0.001367
3046	0.001256
3058	0.00149
3070	0.002292
3082	0.004093
3094	0.003753
3106	0.001295
3118	0.0006
3130	0.000414
3142	0.000379
3154	0.000323
3166	0.000236
3178	0.00023
3190	0.000274
3202	0.000252
3214	0.000237
3226	0.000163
3238	0.000148
3250	9e-05
3262	0.000124
3274	0.000107
3286	5.7e-05
3298	6.9e-05
3310	6e-05
3322	5.2e-05
3334	3.2e-05
3346	2.1e-05
3358	4.2e-05
3370	2.5e-05
3382	5.7e-05
3394	7.5e-05
3406	4.7e-05
3418	8.7e-05
3430	4.5e-05
3442	6.7e-05
3454	7.4e-05
3466	6.9e-05
3478	4.7e-05
3490	5.9e-05
3502	3.6e-05
3514	3.5e-05
3526	5.5e-05
3538	1.7e-05
3550	7.4e-05
3562	9.8e-05
3574	6.3e-05
3586	4e-06
3598	9.8e-05
3610	9.9e-05
3622	0.000111
3634	2.2e-05
3646	9e-06
3658	7.3e-05
3670	7.7e-05
3682	4.4e-05
3694	9.7e-05
3706	6.5e-05
3718	6.9e-05
3730	3.7e-05
3742	0.000102
3754	5.9e-05
3766	5.4e-05
3778	9.3e-05
3790	6.5e-05
3802	1.2e-05
3814	8.9e-05
3826	0.000117
3838	0.000135
