Infrared Spectrum: Phenyl trifluoromethyl sulphide
Formula: C 7 H 5 F 3 S
CAS: 456-56-4
State: gas
Origin: EPA-IR VAPOR PHASE LIBRARY
1/CM	ABSORBANCE
549.8	0.002885
559.445	0.003545
569.09	0.004125
578.734	0.002345
588.379	0.002245
598.024	0.001745
607.669	0.001405
617.313	0.001465
626.958	0.0009902
636.603	0.001875
646.248	0.001495
655.893	0.003595
665.537	0.005985
675.182	0.010395
684.827	0.019175
694.472	0.021665
704.116	0.016905
713.761	0.009825
723.406	0.006655
733.051	0.010865
742.695	0.021585
752.34	0.030485
761.985	0.024455
771.63	0.008485
781.275	0.003865
790.919	0.002325
800.564	0.001775
810.209	0.002085
819.854	0.002325
829.498	0.0013333
839.143	0.0008641
848.788	0.001495
858.433	0.0011533
868.078	0.0013365
877.722	0.001695
887.367	0.001565
897.012	0.0011307
906.657	0.0013674
916.301	0.0013103
925.946	0.0011981
935.591	0.001385
945.236	0.001415
954.88	0.002125
964.525	0.001475
974.17	0.001635
983.815	0.001735
993.46	0.004395
1003.1	0.006005
1012.75	0.005915
1022.39	0.013365
1032.04	0.012105
1041.68	0.005025
1051.33	0.008445
1060.97	0.015465
1070.62	0.033595
1080.26	0.070915
1089.91	0.067305
1099.55	0.059695
1109.2	0.133515
1118.84	0.268575
1128.49	0.334465
1138.13	0.248605
1147.78	0.183785
1157.42	0.182135
1167.07	0.192045
1176.71	0.108375
1186.36	0.040565
1196	0.019545
1205.64	0.013065
1215.29	0.011705
1224.93	0.007195
1234.58	0.006385
1244.22	0.004195
1253.87	0.004255
1263.51	0.003715
1273.16	0.003035
1282.8	0.003005
1292.45	0.003345
1302.09	0.003325
1311.74	0.003425
1321.38	0.003505
1331.03	0.003125
1340.67	0.002565
1350.32	0.002025
1359.96	0.001895
1369.61	0.001835
1379.25	0.001935
1388.9	0.001735
1398.54	0.001725
1408.18	0.002005
1417.83	0.002495
1427.47	0.004085
1437.12	0.007445
1446.76	0.007645
1456.41	0.004545
1466.05	0.006125
1475.7	0.011225
1485.34	0.010225
1494.99	0.004095
1504.63	0.001725
1514.28	0.001565
1523.92	0.001565
1533.57	0.001515
1543.21	0.0011284
1552.86	0.001495
1562.5	0.001815
1572.15	0.002945
1581.79	0.004355
1591.44	0.003215
1601.08	0.002065
1610.73	0.001705
1620.37	0.001425
1630.01	0.001595
1639.66	0.0013163
1649.3	0.001725
1658.95	0.002155
1668.59	0.001885
1678.24	0.001685
1687.88	0.001635
1697.53	0.0011855
1707.17	0.001455
1716.82	0.001575
1726.46	0.002095
1736.11	0.001685
1745.75	0.001885
1755.4	0.002035
1765.04	0.001705
1774.69	0.001565
1784.33	0.001935
1793.98	0.002225
1803.62	0.002395
1813.27	0.001845
1822.91	0.001565
1832.55	0.0013679
1842.2	0.0013731
1851.84	0.001735
1861.49	0.002175
1871.13	0.002785
1880.78	0.003195
1890.42	0.002985
1900.07	0.002585
1909.71	0.001895
1919.36	0.001515
1929	0.001875
1938.65	0.002055
1948.29	0.002525
1957.94	0.002555
1967.58	0.002115
1977.23	0.001515
1986.87	0.0013025
1996.52	0.0010674
2006.16	0.0010991
2015.81	0.000954
2025.45	0.001045
2035.1	0.0009326
2044.74	0.0009967
2054.38	0.0006829
2064.03	0.0009564
2073.67	0.0009876
2083.32	0.0007229
2092.96	0.0010369
2102.61	0.0010064
2112.25	0.0009427
2121.9	0.0010775
2131.54	0.0009176
2141.19	0.0009184
2150.83	0.0011451
2160.48	0.001
2170.12	0.0009466
2179.77	0.0009832
2189.41	0.0011306
2199.06	0.0011702
2208.7	0.001455
2218.35	0.001485
2227.99	0.001785
2237.64	0.002145
2247.28	0.002285
2256.92	0.002255
2266.57	0.002285
2276.21	0.002375
2285.86	0.002515
2295.5	0.002225
2305.15	0.002085
2314.79	0.002335
2324.44	0.001895
2334.08	0.001885
2343.73	0.001575
2353.37	0.001475
2363.02	0.00107
2372.66	0.001201
2382.31	0.001021
2391.95	0.0011799
2401.6	0.0010533
2411.24	0.0012092
2420.89	0.0008758
2430.53	0.0009073
2440.18	0.0010762
2449.82	0.0011849
2459.47	0.0008481
2469.11	0.0008141
2478.75	0.0012186
2488.4	0.0009683
2498.04	0.0009978
2507.69	0.0010464
2517.33	0.0008455
2526.98	0.0009131
2536.62	0.0009034
2546.27	0.000926
2555.91	0.0012165
2565.56	0.0010677
2575.2	0.0010021
2584.85	0.0012829
2594.49	0.0011175
2604.14	0.001575
2613.78	0.0011571
2623.43	0.0011725
2633.07	0.0007452
2642.72	0.0007284
2652.36	0.001545
2662.01	0.0013397
2671.65	0.0010795
2681.29	0.0008429
2690.94	0.0009762
2700.58	0.0010537
2710.23	0.0010387
2719.87	0.0006724
2729.52	0.0008857
2739.16	0.0010593
2748.81	0.0007215
2758.45	0.0010279
2768.1	0.0012515
2777.74	0.0008437
2787.39	0.0009442
2797.03	0.000812
2806.68	0.0011965
2816.32	0.0012411
2825.97	0.001127
2835.61	0.0013081
2845.26	0.0012567
2854.9	0.0010412
2864.55	0.0011249
2874.19	0.0010991
2883.84	0.0010612
2893.48	0.0011924
2903.12	0.0010457
2912.77	0.0007297
2922.41	0.0011984
2932.06	0.001268
2941.7	0.0012896
2951.35	0.001525
2960.99	0.001435
2970.64	0.0009238
2980.28	0.0010933
2989.93	0.0012543
2999.57	0.002175
3009.22	0.002545
3018.86	0.003575
3028.51	0.003725
3038.15	0.003645
3047.8	0.003995
3057.44	0.007155
3067.09	0.013995
3076.73	0.016965
3086.38	0.012365
3096.02	0.008475
3105.67	0.003845
3115.31	0.002245
3124.95	0.001485
3134.6	0.001485
3144.24	0.001395
3153.89	0.001535
3163.53	0.001485
3173.18	0.001505
3182.82	0.0010746
3192.47	0.001485
3202.11	0.0009231
3211.76	0.0008939
3221.4	0.0010647
3231.05	0.0010287
3240.69	0.001405
3250.34	0.0005871
3259.98	0.0008842
3269.63	0.0008213
3279.27	0.0012881
3288.92	0.001363
3298.56	0.0010791
3308.21	0.0011801
3317.85	0.001221
3327.49	0.0002787
3337.14	0.0005428
3346.78	0.0012296
3356.43	0.0008254
3366.07	0.000273
3375.72	0.0013411
3385.36	0.001675
3395.01	0.001645
3404.65	0.0007237
3414.3	0.0010936
3423.94	0.001385
3433.59	0.001395
3443.23	0.0008419
3452.88	0.0013293
3462.52	0.0011817
3472.17	0.0007251
3481.81	0.0006114
3491.46	0.0008823
3501.1	0.001226
3510.75	0.0010133
3520.39	0.001545
3530.04	0.000798
3539.68	0.0007544
3549.32	0.0004737
3558.97	0.0012405
3568.61	0.001144
3578.26	0.0011222
3587.9	0.0009262
3597.55	0.0013274
3607.19	0.0007842
3616.84	0.0010998
3626.48	0.000886
3636.13	0.0010046
3645.77	0.0011873
3655.42	0.000636
3665.06	0.0005671
3674.71	0.0010289
3684.35	0.0009089
3694	0.0010422
3703.64	0.0011687
3713.29	0.001535
3722.93	0.0009911
3732.58	0.001495
3742.22	0.001535
3751.86	0.0009975
3761.51	0.0012422
3771.15	0.001435
3780.8	0.0010932
3790.44	0.001085
3800.09	0.0009751
3809.73	0.0011046
3819.38	0.001545
3829.02	0.0013489
3838.67	0.0007154
3848.31	0.0005409
3857.96	0.0007795
3867.6	0.0012926
3877.25	0.001625
3886.89	0.0010497
3896.54	0.0010757
3906.18	0.001445
3915.83	0.0005045
3925.47	0.0013298
3935.12	0.0011612
3944.76	0.0010767
3954.41	0.000948
3964.05	0.0013302
3973.69	0.0006142
3983.34	0.0010491
3992.98	0.0011118
