Infrared Spectrum: 3-Fluoroanisole
Formula: C 7 H 7 F O
CAS: 456-49-5
State: gas
Instrument: HP-GC/MS/IRD
Origin: NIST Mass Spectrometry Data Center
1/CM	ABSORBANCE
550	0.0006572
562	0.000954
574	0.0004664
586	0.0002279
598	0
610	8.48e-05
622	0.0001272
634	9.01e-05
646	0.0003498
658	0.0015211
670	0.0044838
682	0.0076426
694	0.0037895
706	0.0013568
718	0.0015158
730	0.0020458
742	0.003498
754	0.0077592
766	0.0110081
778	0.0059148
790	0.0017967
802	0.0006148
814	0.0016218
826	0.0042877
838	0.0075631
850	0.008162
862	0.0063123
874	0.0030369
886	0.0010918
898	0.0012985
910	0.003657
922	0.0077274
934	0.0111035
946	0.0093757
958	0.0035086
970	0.0014681
982	0.0014946
994	0.0019398
1006	0.002385
1018	0.0043884
1030	0.0104622
1042	0.0134143
1054	0.0094605
1066	0.0066409
1078	0.0055703
1090	0.0032648
1102	0.0029256
1114	0.0060632
1126	0.0278303
1138	0.0521414
1150	0.0377148
1162	0.0182055
1174	0.0134885
1186	0.0111035
1198	0.0107166
1210	0.0052258
1222	0.0026341
1234	0.0035669
1246	0.0069907
1258	0.0157357
1270	0.0258269
1282	0.0289327
1294	0.0235373
1306	0.0154813
1318	0.0108173
1330	0.0061374
1342	0.0027931
1354	0.0012614
1366	0.0009487
1378	0.000954
1390	0.0012667
1402	0.0020193
1414	0.0031005
1426	0.0063176
1438	0.0104887
1450	0.0137747
1462	0.0179458
1474	0.0208237
1486	0.0367184
1498	0.0334483
1510	0.0103297
1522	0.0052311
1534	0.0047011
1546	0.0054272
1558	0.0066038
1570	0.0107007
1582	0.0240567
1594	0.0443186
1606	0.0524117
1618	0.0362202
1630	0.0166526
1642	0.0060632
1654	0.0035033
1666	0.0024009
1678	0.0016748
1690	0.0013674
1702	0.0013727
1714	0.0014098
1726	0.0011554
1738	0.0008533
1750	0.0005141
1762	0.0003339
1774	0.0002703
1786	0.0002332
1798	0.0003286
1810	0.000424
1822	0.0004929
1834	0.0003975
1846	0.0004028
1858	0.0007102
1870	0.0007632
1882	0.00053
1894	0.0005565
1906	0.0007155
1918	0.0006572
1930	0.0003233
1942	0.0001802
1954	0.0002279
1966	0.0002915
1978	0.0002862
1990	0.0003392
2002	0.0003869
2014	0.0004452
2026	0.0003869
2038	0.0004134
2050	0.0004187
2062	0.0004823
2074	0.0004611
2086	0.0003657
2098	0.0002014
2110	0.0001166
2122	9.01e-05
2134	5.83e-05
2146	7.42e-05
2158	8.48e-05
2170	0.0002014
2182	0.000371
2194	0.0005194
2206	0.0005724
2218	0.0004929
2230	0.0002756
2242	7.95e-05
2254	4.24e-05
2266	0
2278	1.06e-05
2290	1.59e-05
2302	0.000106
2314	0.0002438
2326	0.0003445
2338	0.0003286
2350	0.0002756
2362	0.0002332
2374	0.000265
2386	0.0003233
2398	0.0004452
2410	0.0005459
2422	0.0005512
2434	0.000424
2446	0.0002809
2458	0.0002385
2470	0.0001643
2482	0.0001007
2494	8.48e-05
2506	9.01e-05
2518	0.0001272
2530	0.0001378
2542	0.0001643
2554	0.0002491
2566	0.000371
2578	0.0003869
2590	0.0003816
2602	0.0002809
2614	0.0002385
2626	0.0001802
2638	0.0001166
2650	0.0001219
2662	0.0001113
2674	5.83e-05
2686	5.83e-05
2698	0.0001166
2710	0.0001219
2722	0.0001961
2734	0.0002385
2746	0.0003021
2758	0.000371
2770	0.0004081
2782	0.0004664
2794	0.0005936
2806	0.0007473
2818	0.0012031
2830	0.002544
2842	0.0049131
2854	0.0048654
2866	0.0028779
2878	0.0025387
2890	0.0029574
2902	0.0037577
2914	0.0046587
2926	0.0054007
2938	0.0070755
2950	0.0091584
2962	0.0090789
2974	0.0056604
2986	0.0040227
2998	0.0049979
3010	0.0067628
3022	0.0050191
3034	0.002809
3046	0.0025599
3058	0.0024168
3070	0.0025546
3082	0.0029627
3094	0.0027666
3106	0.0019504
3118	0.0010706
3130	0.0006254
3142	0.0003763
3154	0.0003339
3166	0.0002703
3178	0.0002067
3190	0.0002385
3202	0.0002385
3214	0.0002014
3226	0.0001537
3238	0.000106
3250	8.48e-05
3262	6.89e-05
3274	4.24e-05
3286	4.77e-05
3298	2.12e-05
3310	4.24e-05
3322	0.0001007
3334	9.54e-05
3346	1.06e-05
3358	7.42e-05
3370	5.83e-05
3382	0.0001219
3394	2.12e-05
3406	0
3418	5.3e-06
3430	0.0001325
3442	0.0001378
3454	0.0001484
3466	0.0001219
3478	0.0001272
3490	5.83e-05
3502	7.95e-05
3514	0.0001219
3526	6.89e-05
3538	2.12e-05
3550	7.42e-05
3562	0.0001113
3574	0.0001484
3586	0.0001537
3598	0.0001272
3610	0.0001802
3622	0.0001855
3634	0.0001643
3646	0.0001166
3658	0.0001378
3670	0.0001007
3682	7.42e-05
3694	0.0001113
3706	0.0001378
3718	0.0001537
3730	0.0001537
3742	0.0001749
3754	0.0002173
3766	0.0001431
3778	0.0001272
3790	0.0001113
3802	0.0002067
3814	0.000212
3826	0.0002014
3838	0.0002809
