Infrared Spectrum: 3-Fluorobenzaldehyde
Formula: C 7 H 5 F O
CAS: 456-48-4
State: gas
Origin: EPA-IR VAPOR PHASE LIBRARY
1/CM	ABSORBANCE
549.9	0.001055
559.547	0.000979
569.193	0.000886
578.84	0.000879
588.486	0.000862
598.133	0.000858
607.779	0.001071
617.426	0.0018842
627.072	0.00439
636.719	0.00568
646.365	0.00565
656.012	0.00603
665.658	0.00817
675.305	0.01552
684.951	0.00826
694.598	0.00477
704.245	0.0021012
713.891	0.0017571
723.538	0.0022822
733.184	0.00682
742.831	0.01668
752.477	0.02107
762.124	0.01926
771.77	0.02364
781.417	0.0345
791.063	0.02904
800.71	0.01392
810.356	0.00533
820.003	0.0020966
829.649	0.0014251
839.296	0.00142832
848.943	0.0023031
858.589	0.00392
868.236	0.00677
877.882	0.00671
887.529	0.0076
897.175	0.0062
906.822	0.00447
916.468	0.0047
926.115	0.00556
935.761	0.00547
945.408	0.00422
955.054	0.00307
964.701	0.00272
974.347	0.0019035
983.994	0.0019685
993.64	0.00257
1003.29	0.002303
1012.93	0.0016859
1022.58	0.001031
1032.23	0.000846
1041.87	0.000857
1051.52	0.001068
1061.17	0.0018379
1070.81	0.0020094
1080.46	0.0018876
1090.11	0.0016335
1099.75	0.0023208
1109.4	0.00578
1119.05	0.01401
1128.69	0.01578
1138.34	0.01333
1147.99	0.00601
1157.63	0.00427
1167.28	0.00361
1176.92	0.0013864
1186.57	0.001191
1196.22	0.00142589
1205.86	0.00288
1215.51	0.00545
1225.16	0.00866
1234.8	0.01897
1244.45	0.04187
1254.1	0.06845
1263.74	0.06827
1273.39	0.03695
1283.04	0.0205
1292.68	0.00715
1302.33	0.00506
1311.98	0.00407
1321.62	0.0027
1331.27	0.00243
1340.92	0.00258
1350.56	0.00247
1360.21	0.0026
1369.86	0.0053
1379.5	0.0093
1389.15	0.01036
1398.79	0.00667
1408.44	0.00386
1418.09	0.00403
1427.73	0.00695
1437.38	0.01428
1447.03	0.02424
1456.67	0.02377
1466.32	0.01492
1475.97	0.01761
1485.61	0.01823
1495.26	0.01349
1504.91	0.00488
1514.55	0.0037
1524.2	0.00356
1533.85	0.00299
1543.49	0.0023893
1553.14	0.00289
1562.79	0.00545
1572.43	0.01205
1582.08	0.02395
1591.73	0.03169
1601.37	0.02706
1611.02	0.01196
1620.67	0.00603
1630.31	0.00327
1639.96	0.00267
1649.6	0.00256
1659.25	0.00284
1668.9	0.00404
1678.54	0.0066
1688.19	0.01165
1697.84	0.01917
1707.48	0.03492
1717.13	0.0776
1726.78	0.09368
1736.42	0.06905
1746.07	0.01461
1755.72	0.00473
1765.36	0.00357
1775.01	0.00318
1784.66	0.00267
1794.3	0.0023252
1803.95	0.0020413
1813.6	0.0021071
1823.24	0.0020803
1832.89	0.0019974
1842.54	0.0017265
1852.18	0.0017692
1861.83	0.0020384
1871.47	0.0020685
1881.12	0.0018962
1890.77	0.0015901
1900.41	0.0015491
1910.06	0.0015928
1919.71	0.0017325
1929.35	0.0019022
1939	0.0018413
1948.65	0.0015241
1958.29	0.001244
1967.94	0.001084
1977.59	0.001065
1987.23	0.001116
1996.88	0.001202
2006.53	0.001173
2016.17	0.001142
2025.82	0.001274
2035.47	0.0013327
2045.11	0.001292
2054.76	0.001244
2064.41	0.001219
2074.05	0.001184
2083.7	0.001142
2093.35	0.001105
2102.99	0.000957
2112.64	0.000984
2122.28	0.000952
2131.93	0.000958
2141.58	0.000974
2151.22	0.000944
2160.87	0.000952
2170.52	0.001059
2180.16	0.001182
2189.81	0.001125
2199.46	0.001052
2209.1	0.001117
2218.75	0.001069
2228.4	0.001084
2238.04	0.001223
2247.69	0.001249
2257.34	0.001204
2266.98	0.001083
2276.63	0.000959
2286.28	0.000897
2295.92	0.000884
2305.57	0.000908
2315.22	0.000898
2324.86	0.000988
2334.51	0.000912
2344.16	0.00091
2353.8	0.000896
2363.45	0.000941
2373.09	0.000968
2382.74	0.001049
2392.39	0.001133
2402.03	0.001163
2411.68	0.001084
2421.33	0.001002
2430.97	0.000972
2440.62	0.000891
2450.27	0.000865
2459.91	0.000879
2469.56	0.000922
2479.21	0.000924
2488.85	0.001057
2498.5	0.001152
2508.15	0.001287
2517.79	0.0013608
2527.44	0.001287
2537.09	0.001125
2546.73	0.001109
2556.38	0.001138
2566.03	0.001111
2575.67	0.001156
2585.32	0.001242
2594.96	0.001284
2604.61	0.00148309
2614.26	0.0016193
2623.9	0.0016467
2633.55	0.0015894
2643.2	0.0015024
2652.84	0.0015117
2662.49	0.00149315
2672.14	0.0015572
2681.78	0.0016609
2691.43	0.00255
2701.08	0.00574
2710.72	0.01339
2720.37	0.01743
2730.02	0.01581
2739.66	0.00822
2749.31	0.00387
2758.96	0.00282
2768.6	0.00341
2778.25	0.00611
2787.9	0.01089
2797.54	0.01483
2807.19	0.01936
2816.84	0.01881
2826.48	0.01417
2836.13	0.0088
2845.77	0.00528
2855.42	0.00279
2865.07	0.0018685
2874.71	0.00149726
2884.36	0.00149482
2894.01	0.001509
2903.65	0.00149408
2913.3	0.0015081
2922.95	0.00145111
2932.59	0.0013498
2942.24	0.001026
2951.89	0.000899
2961.53	0.000809
2971.18	0.000783
2980.83	0.000799
2990.47	0.000907
3000.12	0.000986
3009.77	0.001085
3019.41	0.001199
3029.06	0.0016343
3038.71	0.0023351
3048.35	0.00299
3058	0.00354
3067.64	0.00459
3077.29	0.00544
3086.94	0.00485
3096.58	0.00299
3106.23	0.0016745
3115.88	0.001067
3125.52	0.000502
3135.17	0.00029
3144.82	0.00025
3154.46	0.0003
3164.11	0.00024
3173.76	0.00033
3183.4	0.00021
3193.05	0.00014
3202.7	0.00024
3212.34	0.00011
3221.99	0.00013
3231.64	0.00013
3241.28	0.0001
3250.93	0.00023
3260.58	0.00012
3270.22	0.00011
3279.87	0.0002
3289.52	8e-05
3299.16	9e-05
3308.81	0.00021
3318.45	0.00028
3328.1	0.00013
3337.75	0.00014
3347.39	0.00026
3357.04	5e-05
3366.69	0.00025
3376.33	0.00039
3385.98	0.00029
3395.63	0.000667
3405.27	0.001024
3414.92	0.0017265
3424.57	0.0018112
3434.21	0.0014874
3443.86	0.000893
3453.51	0.000812
3463.15	0.000406
3472.8	0.0003
3482.45	0.00031
3492.09	0.00029
3501.74	0.00033
3511.39	0.00036
3521.03	0.00026
3530.68	0.00037
3540.33	0.00035
3549.97	0.0003
3559.62	0.000444
3569.26	0.00036
3578.91	0.000439
3588.56	0.000535
3598.2	0.00045
3607.85	0.000533
3617.5	0.000458
3627.14	0.000507
3636.79	0.000486
3646.44	0.000533
3656.08	0.000666
3665.73	0.000509
3675.38	0.000538
3685.02	0.000623
3694.67	0.000678
3704.32	0.00064
3713.96	0.000546
3723.61	0.000538
3733.26	0.000657
3742.9	0.000509
3752.55	0.000591
3762.2	0.00067
3771.84	0.000684
3781.49	0.000621
3791.13	0.00071
3800.78	0.000717
3810.43	0.0006
3820.07	0.00069
3829.72	0.000745
3839.37	0.00067
3849.01	0.000725
3858.66	0.000719
3868.31	0.000651
3877.95	0.000697
3887.6	0.000727
3897.25	0.000733
3906.89	0.000568
3916.54	0.000644
3926.19	0.00071
3935.83	0.000716
3945.48	0.000741
3955.13	0.000776
3964.77	0.000619
3974.42	0.000764
3984.07	0.000848
3993.71	0.000832
