Infrared Spectrum: .alpha.-Chloro-4-fluoroacetophenone
Formula: C 8 H 6 Cl F O
CAS: 456-04-2
State: gas
Origin: EPA-IR VAPOR PHASE LIBRARY
1/CM	ABSORBANCE
549.9	0.01592
559.547	0.01274
569.193	0.01049
578.84	0.01222
588.486	0.01249
598.133	0.01134
607.779	0.0131
617.426	0.0235
627.072	0.02125
636.719	0.00951
646.365	0.00465
656.012	0.00346
665.658	0.00382
675.305	0.00478
684.951	0.00475
694.598	0.00408
704.245	0.00493
713.891	0.00984
723.538	0.012
733.184	0.00962
742.831	0.0082
752.477	0.00618
762.124	0.00542
771.77	0.00626
781.417	0.00834
791.063	0.01281
800.71	0.01656
810.356	0.01758
820.003	0.01966
829.649	0.03744
839.296	0.05304
848.943	0.04581
858.589	0.02135
868.236	0.00746
877.882	0.0045
887.529	0.00337
897.175	0.00252
906.822	0.0021572
916.468	0.00247
926.115	0.00257
935.761	0.0022177
945.408	0.00243
955.054	0.00255
964.701	0.00293
974.347	0.00366
983.994	0.00642
993.64	0.01001
1003.29	0.0117
1012.93	0.01622
1022.58	0.01594
1032.23	0.01519
1041.87	0.00648
1051.52	0.00298
1061.17	0.00252
1070.81	0.00242
1080.46	0.00271
1090.11	0.0042
1099.75	0.00608
1109.4	0.00563
1119.05	0.00478
1128.69	0.00802
1138.34	0.01666
1147.99	0.02507
1157.63	0.06729
1167.28	0.0411
1176.92	0.01038
1186.57	0.01382
1196.22	0.02957
1205.86	0.03928
1215.51	0.03273
1225.16	0.04019
1234.8	0.09444
1244.45	0.1436
1254.1	0.07501
1263.74	0.06023
1273.39	0.10015
1283.04	0.07598
1292.68	0.03501
1302.33	0.02703
1311.98	0.02286
1321.62	0.01355
1331.27	0.00812
1340.92	0.00604
1350.56	0.0055
1360.21	0.00413
1369.86	0.00321
1379.5	0.00317
1389.15	0.00427
1398.79	0.00886
1408.44	0.01383
1418.09	0.01283
1427.73	0.01757
1437.38	0.02072
1447.03	0.01003
1456.67	0.00592
1466.32	0.00572
1475.97	0.00669
1485.61	0.00853
1495.26	0.01831
1504.91	0.04935
1514.55	0.04419
1524.2	0.01005
1533.85	0.00501
1543.49	0.00495
1553.14	0.00593
1562.79	0.00823
1572.43	0.01459
1582.08	0.03371
1591.73	0.08409
1601.37	0.11174
1611.02	0.0576
1620.67	0.01934
1630.31	0.00952
1639.96	0.00669
1649.6	0.00684
1659.25	0.00807
1668.9	0.0096
1678.54	0.01542
1688.19	0.04017
1697.84	0.09152
1707.48	0.1026
1717.13	0.05754
1726.78	0.0315
1736.42	0.01709
1746.07	0.00947
1755.72	0.00615
1765.36	0.00477
1775.01	0.00429
1784.66	0.00333
1794.3	0.0026
1803.95	0.0022832
1813.6	0.0020203
1823.24	0.0017271
1832.89	0.001626
1842.54	0.0015689
1852.18	0.0015471
1861.83	0.0016427
1871.47	0.0019686
1881.12	0.00254
1890.77	0.00263
1900.41	0.00243
1910.06	0.00237
1919.71	0.00235
1929.35	0.00237
1939	0.0021465
1948.65	0.0016735
1958.29	0.0015389
1967.94	0.0014946
1977.59	0.0014555
1987.23	0.0016326
1996.88	0.0016221
2006.53	0.00113
2016.17	0.001054
2025.82	0.001123
2035.47	0.001147
2045.11	0.0012364
2054.76	0.001463
2064.41	0.0016674
2074.05	0.0015911
2083.7	0.00133778
2093.35	0.000962
2102.99	0.000858
2112.64	0.000795
2122.28	0.000686
2131.93	0.000616
2141.58	0.000617
2151.22	0.000636
2160.87	0.000589
2170.52	0.000622
2180.16	0.000632
2189.81	0.000607
2199.46	0.000581
2209.1	0.000504
2218.75	0.000606
2228.4	0.000655
2238.04	0.000599
2247.69	0.000775
2257.34	0.000897
2266.98	0.000959
2276.63	0.000933
2286.28	0.000804
2295.92	0.000764
2305.57	0.000725
2315.22	0.000764
2324.86	0.000777
2334.51	0.000751
2344.16	0.000731
2353.8	0.000608
2363.45	0.000587
2373.09	0.000576
2382.74	0.000651
2392.39	0.000997
2402.03	0.00136638
2411.68	0.00131244
2421.33	0.0011968
2430.97	0.0012684
2440.62	0.001159
2450.27	0.000855
2459.91	0.000957
2469.56	0.001186
2479.21	0.00137797
2488.85	0.0012131
2498.5	0.00084
2508.15	0.000715
2517.79	0.000751
2527.44	0.000804
2537.09	0.000785
2546.73	0.000861
2556.38	0.000938
2566.03	0.0012244
2575.67	0.0014719
2585.32	0.0014362
2594.96	0.00131201
2604.61	0.000922
2614.26	0.000603
2623.9	0.000448
2633.55	0.00027
2643.2	0.00026
2652.84	0.0002
2662.49	0.00028
2672.14	0.00027
2681.78	0.000363
2691.43	0.000309
2701.08	0.00028
2710.72	0.00028
2720.37	0.000319
2730.02	0.000355
2739.66	0.000314
2749.31	0.000335
2758.96	0.00026
2768.6	4e-05
2778.25	0.00021
2787.9	0.00019
2797.54	0.00021
2807.19	0.0003
2816.84	0.00016
2826.48	0.00012
2836.13	0.00022
2845.77	0.000294
2855.42	0.000365
2865.07	0.000291
2874.71	0.00026
2884.36	0.000295
2894.01	0.00012
2903.65	6e-05
2913.3	0.00028
2922.95	0.000616
2932.59	0.00138761
2942.24	0.00305
2951.89	0.0048
2961.53	0.00527
2971.18	0.00497
2980.83	0.00273
2990.47	0.001058
3000.12	0.000686
3009.77	0.000715
3019.41	0.001078
3029.06	0.0015825
3038.71	0.0011991
3048.35	0.0016406
3058	0.00269
3067.64	0.00338
3077.29	0.004
3086.94	0.00388
3096.58	0.0017463
3106.23	0.001148
3115.88	0.00129378
3125.52	0.000916
3135.17	0.000372
3144.82	2e-05
3154.46	0.0002
3164.11	0.000321
3173.76	0.000385
3183.4	0.000291
3193.05	0.000429
3202.7	0.00027
3212.34	0.000293
3221.99	0.00016
3231.64	0.0002
3241.28	0.00019
3250.93	0.00031
3260.58	0.000327
3270.22	0.00028
3279.87	0.000448
3289.52	0.000436
3299.16	0.000588
3308.81	0.000644
3318.45	0.000758
3328.1	0.000745
3337.75	0.000774
3347.39	0.000942
3357.04	0.001143
3366.69	0.001454
3376.33	0.0019485
3385.98	0.00242
3395.63	0.00231
3405.27	0.0016958
3414.92	0.0015365
3424.57	0.0015454
3434.21	0.0012266
3443.86	0.001189
3453.51	0.001038
3463.15	0.000832
3472.8	0.001085
3482.45	0.001013
3492.09	0.001016
3501.74	0.001037
3511.39	0.000959
3521.03	0.000901
3530.68	0.001068
3540.33	0.001058
3549.97	0.000948
3559.62	0.00109
3569.26	0.000944
3578.91	0.001015
3588.56	0.001055
3598.2	0.001009
3607.85	0.001105
3617.5	0.000941
3627.14	0.001067
3636.79	0.001041
3646.44	0.001078
3656.08	0.001006
3665.73	0.001032
3675.38	0.001073
3685.02	0.001083
3694.67	0.0012113
3704.32	0.001176
3713.96	0.001069
3723.61	0.001079
3733.26	0.001085
3742.9	0.001128
3752.55	0.001071
3762.2	0.001018
3771.84	0.000982
3781.49	0.000865
3791.13	0.00091
3800.78	0.000915
3810.43	0.000957
3820.07	0.000872
3829.72	0.000994
3839.37	0.000998
3849.01	0.000981
3858.66	0.000893
3868.31	0.000883
3877.95	0.001017
3887.6	0.001007
3897.25	0.000986
3906.89	0.000992
3916.54	0.000925
3926.19	0.000955
3935.83	0.000864
3945.48	0.000901
3955.13	0.000987
3964.77	0.000854
3974.42	0.000806
3984.07	0.000785
3993.71	0.00068
