Infrared Spectrum: 4-(Trifluoromethoxy)benzamide
Formula: C 8 H 6 F 3 N O 2
CAS: 456-71-3
State: gas
Origin: EPA-IR VAPOR PHASE LIBRARY
1/CM	ABSORBANCE
549.8	0.00604
559.445	0.00422
569.09	0.00432
578.734	0.00462
588.379	0.00516
598.024	0.00508
607.669	0.00626
617.313	0.00989
626.958	0.00876
636.603	0.00722
646.248	0.00734
655.893	0.00809
665.537	0.00947
675.182	0.01257
684.827	0.01525
694.472	0.01953
704.116	0.01806
713.761	0.013
723.406	0.01124
733.051	0.01255
742.695	0.01227
752.34	0.01372
761.985	0.01577
771.63	0.01533
781.275	0.01212
790.919	0.00983
800.564	0.01067
810.209	0.01413
819.854	0.01589
829.498	0.01527
839.143	0.01421
848.788	0.01726
858.433	0.01964
868.078	0.01572
877.722	0.01043
887.367	0.00846
897.012	0.00746
906.657	0.00691
916.301	0.00841
925.946	0.01024
935.591	0.00889
945.236	0.00786
954.88	0.0074
964.525	0.00638
974.17	0.00662
983.815	0.00575
993.46	0.00668
1003.1	0.00777
1012.75	0.01572
1022.39	0.01558
1032.04	0.00703
1041.68	0.00645
1051.33	0.00723
1060.97	0.01159
1070.62	0.01708
1080.26	0.01328
1089.91	0.00918
1099.55	0.01063
1109.2	0.01165
1118.84	0.01566
1128.49	0.0158
1138.13	0.01733
1147.78	0.02467
1157.42	0.0417
1167.07	0.08197
1176.71	0.12856
1186.36	0.18348
1196	0.19676
1205.64	0.18233
1215.29	0.24383
1224.93	0.28746
1234.58	0.20399
1244.22	0.16186
1253.87	0.25936
1263.51	0.45788
1273.16	0.40082
1282.8	0.15932
1292.45	0.08286
1302.09	0.05418
1311.74	0.03829
1321.38	0.03441
1331.03	0.04888
1340.67	0.10125
1350.32	0.09946
1359.96	0.03948
1369.61	0.01878
1379.25	0.01313
1388.9	0.01085
1398.54	0.00964
1408.18	0.00993
1417.83	0.00945
1427.47	0.0063
1437.12	0.00464
1446.76	0.00435
1456.41	0.00438
1466.05	0.00482
1475.7	0.00569
1485.34	0.00771
1494.99	0.01585
1504.63	0.03748
1514.28	0.03116
1523.92	0.01114
1533.57	0.00835
1543.21	0.00862
1552.86	0.00995
1562.5	0.01336
1572.15	0.02331
1581.79	0.04779
1591.44	0.06148
1601.08	0.05161
1610.73	0.03993
1620.37	0.02238
1630.01	0.01277
1639.66	0.00908
1649.3	0.00782
1658.95	0.00821
1668.59	0.01019
1678.24	0.01535
1687.88	0.02187
1697.53	0.03093
1707.17	0.06185
1716.82	0.13333
1726.46	0.15076
1736.11	0.06907
1745.75	0.02838
1755.4	0.01918
1765.04	0.01412
1774.69	0.00851
1784.33	0.00539
1793.98	0.00421
1803.62	0.00348
1813.27	0.0028
1822.91	0.00271
1832.55	0.00233
1842.2	0.00242
1851.84	0.00236
1861.49	0.00197
1871.13	0.00234
1880.78	0.00281
1890.42	0.00297
1900.07	0.0028
1909.71	0.00275
1919.36	0.00247
1929	0.00227
1938.65	0.0022
1948.29	0.00192
1957.94	0.00176
1967.58	0.00189
1977.23	0.00188
1986.87	0.00192
1996.52	0.00167
2006.16	0.00186
2015.81	0.00218
2025.45	0.00246
2035.1	0.00256
2044.74	0.00228
2054.38	0.00202
2064.03	0.00209
2073.67	0.00218
2083.32	0.0021
2092.96	0.00191
2102.61	0.00179
2112.25	0.00161
2121.9	0.00178
2131.54	0.0017
2141.19	0.00175
2150.83	0.0017
2160.48	0.0016
2170.12	0.0013871
2179.77	0.001359
2189.41	0.00153
2199.06	0.00139
2208.7	0.0010126
2218.35	0.0008966
2227.99	0.000817
2237.64	0.0009419
2247.28	0.0007665
2256.92	0.0009696
2266.57	0.0011266
2276.21	0.0008133
2285.86	0.001268
2295.5	0.0010684
2305.15	0.0009867
2314.79	0.0010062
2324.44	0.0013605
2334.08	0.0011189
2343.73	0.0011472
2353.37	0.0013244
2363.02	0.0012677
2372.66	0.001238
2382.31	0.0012895
2391.95	0.00167
2401.6	0.00195
2411.24	0.00254
2420.89	0.0026
2430.53	0.00283
2440.18	0.00323
2449.82	0.00326
2459.47	0.0027
2469.11	0.00214
2478.75	0.00245
2488.4	0.00257
2498.04	0.00212
2507.69	0.00179
2517.33	0.00156
2526.98	0.00162
2536.62	0.00139
2546.27	0.0011624
2555.91	0.0011505
2565.56	0.0013711
2575.2	0.0010716
2584.85	0.0008717
2594.49	0.0007625
2604.14	0.00039548
2613.78	0.0009542
2623.43	0.0007829
2633.07	0.0007556
2642.72	0.0008845
2652.36	0.0008102
2662.01	0.0006986
2671.65	0.00086
2681.29	0.0006859
2690.94	0.0010584
2700.58	0.0007812
2710.23	0.0011893
2719.87	0.0005376
2729.52	0.0008716
2739.16	0.000289
2748.81	0.0006452
2758.45	0.000256
2768.1	0.0009565
2777.74	0.0005156
2787.39	0.0010686
2797.03	0.0010305
2806.68	0.0009346
2816.32	0.0009145
2825.97	0.0005383
2835.61	0.0006013
2845.26	0.00046718
2854.9	0.0007655
2864.55	0.00042228
2874.19	0.0006507
2883.84	0.0006635
2893.48	0.0007283
2903.12	0.0008364
2912.77	0.0006798
2922.41	0.0009753
2932.06	0.0011251
2941.7	0.0007665
2951.35	0.0005196
2960.99	0.000397776
2970.64	0.0008421
2980.28	0.0006474
2989.93	0.0007476
2999.57	0.000915
3009.22	0.0011639
3018.86	0.0007016
3028.51	0.0012567
3038.15	0.002
3047.8	0.00339
3057.44	0.00357
3067.09	0.003
3076.73	0.00224
3086.38	0.00195
3096.02	0.00189
3105.67	0.00172
3115.31	0.0014
3124.95	0.0012662
3134.6	0.001043
3144.24	0.00152
3153.89	0.0012947
3163.53	0.0010844
3173.18	0.000739
3182.82	0.000621
3192.47	0.0006631
3202.11	0.0009805
3211.76	0.0008554
3221.4	0.0005362
3231.05	0.000168
3240.69	0.0007617
3250.34	0.000127
3259.98	0.000231
3269.63	0.0008673
3279.27	0.0009879
3288.92	0.0006779
3298.56	0.0008575
3308.21	0.000918
3317.85	0.0009172
3327.49	0.0008693
3337.14	1.7e-05
3346.78	0.00044359
3356.43	0.0011516
3366.07	0.0012549
3375.72	0.0013805
3385.36	0.00242
3395.01	0.00282
3404.65	0.00475
3414.3	0.00831
3423.94	0.01385
3433.59	0.01902
3443.23	0.01345
3452.88	0.00563
3462.52	0.00351
3472.17	0.00261
3481.81	0.0016
3491.46	0.00219
3501.1	0.00258
3510.75	0.00312
3520.39	0.00478
3530.04	0.00722
3539.68	0.01025
3549.32	0.01369
3558.97	0.01034
3568.61	0.00421
3578.26	0.00219
3587.9	0.00178
3597.55	0.00145
3607.19	0.0009003
3616.84	0.0008913
3626.48	0.0003097
3636.13	0.0006381
3645.77	0.0005934
3655.42	0.0010576
3665.06	0.0005784
3674.71	0.0006791
3684.35	0.0010428
3694	0.0006038
3703.64	0.0009779
3713.29	0.0003348
3722.93	0.0006725
3732.58	0.0009148
3742.22	0.0006611
3751.86	0.0008022
3761.51	0.0005908
3771.15	0.00048351
3780.8	0.0009766
3790.44	0.000686
3800.09	0.0005232
3809.73	0.0007058
3819.38	0.0008156
3829.02	0.0010456
3838.67	0.0009264
3848.31	0.00041641
3857.96	0.00041737
3867.6	0.0009597
3877.25	0.0008134
3886.89	0.0006774
3896.54	0.00047408
3906.18	0.0012816
3915.83	0.00048069
3925.47	0.0005332
3935.12	0.0008979
3944.76	0.0012485
3954.41	0.0006586
3964.05	0.0007128
3973.69	0.0006862
3983.34	0.0007742
3992.98	0.000222
