Infrared Spectrum: GLYCINONITRILE, N-METHYLENE-,CYCLICTRIMER
Formula: C9 H12 N6
CAS: 4560-87-6
State: SOLID (OIL MULL)
Class: COBLENTZ III
Instrument: PERKIN-ELMER 521 (GRATING)
Instrument parameters: FILTERS AT 3150, 2500, 2000, 1150, 700, 410. GRATING CHANGES: 2000, 630
Sampling: TRANSMISSION
Path length: CsBr PLATES
Resolution: 2
Origin: STANDARD OIL OF OHIO
1/CM	TRANSMITTANCE
3906	0.8775
3896	0.8777
3886	0.8778
3876	0.8781
3866	0.8854
3856	0.8896
3846	0.8871
3836	0.8856
3826	0.8844
3816	0.8833
3806	0.8828
3796	0.8839
3786	0.8853
3776	0.8868
3766	0.8916
3756	0.8937
3746	0.8939
3736	0.8938
3726	0.8936
3716	0.8935
3706	0.8935
3696	0.8935
3686	0.8935
3676	0.8935
3666	0.8935
3656	0.8937
3646	0.894
3636	0.8943
3626	0.8946
3616	0.8952
3606	0.896
3596	0.8967
3586	0.8975
3576	0.8977
3566	0.8975
3556	0.8973
3546	0.8971
3536	0.8966
3526	0.8961
3516	0.895
3506	0.8939
3496	0.8918
3486	0.8891
3476	0.8862
3466	0.8833
3456	0.8805
3446	0.8778
3436	0.8751
3426	0.8714
3416	0.8678
3406	0.8671
3396	0.8678
3386	0.8687
3376	0.8695
3366	0.8704
3356	0.8715
3346	0.8728
3336	0.8742
3326	0.8756
3316	0.8784
3306	0.8811
3296	0.8828
3286	0.8841
3276	0.8847
3266	0.8846
3256	0.8843
3246	0.884
3236	0.8842
3226	0.8845
3216	0.8854
3206	0.8821
3196	0.8752
3186	0.873
3176	0.8715
3166	0.8705
3156	0.8699
3146	0.8704
3136	0.8727
3126	0.8741
3116	0.874
3106	0.8703
3096	0.8567
3086	0.8496
3076	0.8468
3066	0.8418
3056	0.8349
3046	0.8248
3036	0.811
3026	0.7894
3016	0.7536
3006	0.7046
2996	0.5234
2986	0.4054
2976	0.2469
2966	0.1215
2956	0.1052
2946	0.1051
2936	0.0596
2926	0.0477
2916	0.0704
2906	0.1024
2896	0.1595
2886	0.2103
2876	0.1828
2866	0.1405
2856	0.1046
2846	0.2644
2836	0.4669
2826	0.631
2816	0.7037
2806	0.7565
2796	0.786
2786	0.794
2776	0.7849
2766	0.8357
2756	0.8364
2746	0.832
2736	0.7764
2726	0.7495
2716	0.7628
2706	0.7914
2696	0.8115
2686	0.7734
2676	0.7042
2666	0.6496
2656	0.7525
2646	0.805
2636	0.8263
2626	0.8345
2616	0.8356
2606	0.8435
2596	0.8592
2586	0.8631
2576	0.8724
2566	0.8893
2556	0.8995
2546	0.9094
2536	0.9138
2526	0.9162
2516	0.9183
2506	0.9197
2496	0.9213
2486	0.9212
2476	0.9188
2466	0.9204
2456	0.9223
2446	0.9256
2436	0.9294
2426	0.9325
2416	0.935
2406	0.9344
2396	0.9335
2386	0.9328
2376	0.9325
2366	0.9325
2356	0.9327
2346	0.9328
2336	0.9335
2326	0.9348
2316	0.9371
2306	0.9391
2296	0.9402
2286	0.9399
2276	0.9392
2266	0.9343
2256	0.87
2246	0.9117
2236	0.7811
2226	0.9212
2216	0.9328
2206	0.9341
2196	0.9433
2186	0.9441
2176	0.9451
2166	0.9484
2156	0.9513
2146	0.9521
2136	0.9539
2126	0.9559
2116	0.9577
2106	0.958
2096	0.9584
2086	0.9588
2076	0.9591
2066	0.9594
2056	0.9597
2046	0.9592
2036	0.9586
2026	0.9568
2016	0.9562
2006	0.9564
1996	0.961
1986	0.961
1976	0.9577
1966	0.9547
1956	0.9533
1946	0.9557
1936	0.9612
1926	0.9581
1916	0.9585
1906	0.9599
1896	0.963
1886	0.9652
1876	0.965
1866	0.9598
1856	0.9615
1846	0.9627
1836	0.9639
1826	0.9648
1816	0.9653
1806	0.9648
1796	0.9621
1786	0.9617
1776	0.9625
1766	0.9637
1756	0.9648
1746	0.9659
1736	0.9658
1726	0.9654
1716	0.9656
1706	0.9658
1696	0.9643
1686	0.9611
1676	0.9584
1666	0.9564
1656	0.9539
1646	0.9511
1636	0.9408
1626	0.94
1616	0.9409
1606	0.9427
1596	0.94
1586	0.9381
1576	0.9374
1566	0.9377
1556	0.9405
1546	0.9437
1536	0.943
1526	0.9361
1516	0.9334
1506	0.9328
1496	0.9204
1486	0.8989
1476	0.8474
1466	0.5927
1456	0.3347
1446	0.2664
1436	0.4569
1426	0.516
1416	0.5212
1406	0.388
1396	0.6768
1386	0.6389
1376	0.7432
1366	0.4758
1356	0.5398
1346	0.6451
1336	0.7269
1326	0.631
1316	0.5994
1306	0.4138
1296	0.7325
1286	0.6891
1276	0.7853
1266	0.7285
1256	0.8237
1246	0.8515
1236	0.6921
1226	0.8336
1216	0.875
1206	0.8567
1196	0.8751
1186	0.857
1176	0.6544
1166	0.3046
1156	0.6387
1146	0.2834
1136	0.8039
1126	0.8227
1116	0.5844
1106	0.288
1096	0.7953
1086	0.7389
1076	0.7892
1066	0.8739
1056	0.8977
1046	0.8625
1036	0.8953
1026	0.8775
1016	0.7192
1006	0.3666
996	0.8592
986	0.8843
976	0.8738
966	0.7918
956	0.6725
946	0.8288
936	0.8425
926	0.3984
916	0.7801
906	0.8373
896	0.7062
886	0.4872
876	0.8628
866	0.8702
856	0.7137
846	0.4712
836	0.8062
826	0.8833
816	0.8925
806	0.9238
796	0.9303
786	0.9363
776	0.9353
766	0.9263
756	0.9154
746	0.9103
736	0.9137
726	0.8904
716	0.8396
706	0.8664
696	0.9178
686	0.8312
676	0.9394
666	0.9625
656	0.9528
646	0.924
636	0.9034
626	0.9473
616	0.964
606	0.959
596	0.9411
586	0.9566
576	0.9611
566	0.9636
556	0.9638
546	0.9646
536	0.9611
526	0.9494
516	0.8465
506	0.9175
496	0.9441
486	0.8855
476	0.8765
466	0.9451
456	0.9467
446	0.9374
436	0.9641
426	0.9725
416	0.9738
406	0.9447
396	0.9828
386	0.9828
376	0.9675
366	0.9527
356	0.9428
346	0.8995
336	0.6561
326	0.9416
316	0.9754
306	0.9757
296	0.9384
286	0.9504
276	0.9512
266	0.9084
256	0.8487
246	0.8824
