Infrared Spectrum: TOLUENESULFONAMIDE, Alpha-
Formula: C7 H9 N O2 S
CAS: 4563-33-1
State: SOLID (SPLIT MULL), FLUOROLUBE FOR 3800-1330 CM^-^1, NUJOL FOR 1330-450 CM^-^1
Class: COBLENTZ III
Instrument: DOW KBr FOREPRISM-GRATING
Instrument parameters: BLAZED AT 3.5, 12.0, 20.0 MICRON AND CHANGED AT 5.0, 7.5, 14.9 MICRON
Sampling: TRANSMISSION
Resolution: 2
Origin: DOW CHEMICAL COMPANY
1/CM	TRANSMITTANCE
454	0.6422
463	0.62
472	0.5602
481	0.4715
490	0.3838
499	0.5686
508	0.6951
517	0.7241
526	0.7267
535	0.714
544	0.5259
553	0.3494
562	0.5904
571	0.6568
580	0.6721
589	0.6807
598	0.6697
607	0.3512
616	0.6252
625	0.6691
634	0.6961
643	0.7211
652	0.7283
661	0.7281
670	0.7439
679	0.7338
688	0.5869
697	0.0783
706	0.4076
715	0.6471
724	0.6958
733	0.7504
742	0.7401
751	0.6784
760	0.4866
769	0.5526
778	0.2193
787	0.6214
796	0.4257
805	0.2892
814	0.526
823	0.6237
832	0.602
841	0.6934
850	0.6742
859	0.7043
868	0.7638
877	0.7317
886	0.6882
895	0.6043
904	0.553
913	0.4032
922	0.4625
931	0.5987
940	0.7876
949	0.8193
958	0.8544
967	0.855
976	0.8632
985	0.8609
994	0.8635
1003	0.8497
1012	0.8407
1021	0.8025
1030	0.6339
1039	0.8011
1048	0.7834
1057	0.7645
1066	0.7012
1075	0.6744
1084	0.7158
1093	0.6434
1102	0.5567
1111	0.436
1120	0.0764
1129	0.1272
1138	0.2896
1147	0.1171
1156	0.3536
1165	0.2773
1174	0.3625
1183	0.5798
1192	0.8074
1201	0.6861
1210	0.8221
1219	0.8467
1228	0.8343
1237	0.8103
1246	0.7638
1255	0.6751
1264	0.541
1273	0.5016
1282	0.5086
1291	0.3966
1300	0.221
1309	0.0865
1318	0.0571
1327	0.0794
1336	0.1835
1345	0.5292
1354	0.7019
1363	0.7658
1372	0.7938
1381	0.8184
1390	0.8067
1399	0.7914
1408	0.663
1417	0.7941
1426	0.8204
1435	0.819
1444	0.8004
1453	0.551
1462	0.8193
1471	0.8164
1480	0.7819
1489	0.6807
1498	0.4642
1507	0.7925
1516	0.7674
1525	0.7187
1534	0.634
1543	0.6544
1552	0.7144
1561	0.7593
1570	0.7728
1579	0.7681
1588	0.7583
1597	0.7506
1606	0.7715
1615	0.8003
1624	0.8158
1633	0.8254
1642	0.8321
1651	0.8374
1660	0.8412
1669	0.8444
1678	0.8487
1687	0.8494
1696	0.8497
1705	0.8525
1714	0.8566
1723	0.8564
1732	0.8551
1741	0.8518
1750	0.8471
1759	0.8402
1768	0.8304
1777	0.8408
1786	0.8443
1795	0.8434
1804	0.8381
1813	0.8253
1822	0.8275
1831	0.8367
1840	0.8386
1849	0.8391
1858	0.8368
1867	0.8348
1876	0.8283
1885	0.8175
1894	0.8171
1903	0.8209
1912	0.8235
1921	0.825
1930	0.8217
1939	0.8148
1948	0.8051
1957	0.8001
1966	0.8161
1975	0.8143
1984	0.8178
1993	0.8265
2002	0.8367
2011	0.8365
2020	0.8339
2029	0.8309
2038	0.8278
2047	0.8251
2056	0.8234
2065	0.8225
2074	0.8216
2083	0.8207
2092	0.8188
2101	0.8167
2110	0.8144
2119	0.8119
2128	0.8099
2137	0.8078
2146	0.8057
2155	0.8034
2164	0.8011
2173	0.7986
2182	0.7956
2191	0.7924
2200	0.7894
2209	0.7864
2218	0.7836
2227	0.7808
2236	0.7775
2245	0.7732
2254	0.7675
2263	0.7611
2272	0.7589
2281	0.7568
2290	0.7517
2299	0.7481
2308	0.7478
2317	0.7506
2326	0.756
2335	0.7569
2344	0.7556
2353	0.7543
2362	0.7532
2371	0.7525
2380	0.7507
2389	0.7481
2398	0.7454
2407	0.7428
2416	0.7399
2425	0.7365
2434	0.7322
2443	0.728
2452	0.7267
2461	0.7276
2470	0.7286
2479	0.7288
2488	0.7283
2497	0.7272
2506	0.7255
2515	0.7234
2524	0.7207
2533	0.7175
2542	0.7146
2551	0.7112
2560	0.7076
2569	0.7039
2578	0.7
2587	0.6988
2596	0.6983
2605	0.6972
2614	0.6958
2623	0.6939
2632	0.6919
2641	0.69
2650	0.6882
2659	0.6864
2668	0.6846
2677	0.6828
2686	0.681
2695	0.6793
2704	0.6775
2713	0.6757
2722	0.674
2731	0.6721
2740	0.6703
2749	0.6683
2758	0.6662
2767	0.6639
2776	0.6603
2785	0.6565
2794	0.653
2803	0.6489
2812	0.6443
2821	0.6397
2830	0.6357
2839	0.6316
2848	0.6269
2857	0.6214
2866	0.6165
2875	0.6119
2884	0.6082
2893	0.6003
2902	0.5907
2911	0.5782
2920	0.5621
2929	0.5643
2938	0.5615
2947	0.578
2956	0.5741
2965	0.5593
2974	0.5516
2983	0.5578
2992	0.5419
3001	0.5491
3010	0.5505
3019	0.5394
3028	0.5176
3037	0.5101
3046	0.5186
3055	0.5038
3064	0.506
3073	0.5229
3082	0.531
3091	0.5272
3100	0.5231
3109	0.5187
3118	0.5132
3127	0.5074
3136	0.5016
3145	0.4943
3154	0.4852
3163	0.4755
3172	0.4635
3181	0.451
3190	0.4382
3199	0.4249
3208	0.4084
3217	0.3898
3226	0.3689
3235	0.3292
3244	0.2385
3253	0.2859
3262	0.289
3271	0.2548
3280	0.2688
3289	0.296
3298	0.2758
3307	0.1748
3316	0.1867
3325	0.2114
3334	0.2862
3343	0.355
3352	0.3487
3361	0.3144
3370	0.2784
3379	0.2591
3388	0.2926
3397	0.323
3406	0.32
3415	0.3373
3424	0.4068
3433	0.5076
3442	0.5488
3451	0.5601
3460	0.5669
3469	0.571
3478	0.5702
3487	0.5686
3496	0.5667
3505	0.5648
3514	0.5624
3523	0.5599
3532	0.5573
3541	0.5549
3550	0.5525
3559	0.5499
3568	0.5426
3577	0.5408
3586	0.5431
3595	0.5419
3604	0.54
3613	0.5381
3622	0.5364
3631	0.5348
3640	0.5332
3649	0.5314
3658	0.5293
3667	0.5271
3676	0.525
3685	0.5226
3694	0.5202
3703	0.5177
3712	0.5153
3721	0.5129
3730	0.5105
3739	0.508
3748	0.5056
3757	0.5027
3766	0.4998
3775	0.497
3784	0.4945
