Infrared Spectrum: 2,2,5-Trimethylcyclopentanone
Formula: C 8 H 14 O
CAS: 4573-09-5
State: gas
Instrument: HP-GC/MS/IRD
Origin: NIST Mass Spectrometry Data Center
1/CM	ABSORBANCE
550	0.0002407
562	0.0001624
574	0.0001131
586	0.0001015
598	6.67e-05
610	0.0001247
622	0.0001015
634	9.86e-05
646	0.000145
658	0.0001421
670	7.54e-05
682	6.38e-05
694	0.0001015
706	0.0001624
718	0.0001943
730	0.0003016
742	0.0002291
754	0.0001798
766	0.0002697
778	0.0002262
790	0.0001595
802	0.0002639
814	0.0001131
826	0.0001537
838	0.0002813
850	0.0004727
862	0.0005278
874	0.0008787
886	0.0018908
898	0.0021547
910	0.0012992
922	0.0009541
934	0.0010121
946	0.0011165
958	0.0016153
970	0.0019198
982	0.0019836
994	0.0031349
1006	0.0041673
1018	0.0028826
1030	0.0013427
1042	0.0010266
1054	0.0013398
1066	0.0024418
1078	0.0032219
1090	0.0025201
1102	0.0019343
1114	0.0015776
1126	0.0012702
1138	0.0013021
1150	0.0010904
1162	0.0010469
1174	0.0015051
1186	0.0013456
1198	0.0009077
1210	0.0009831
1222	0.0009541
1234	0.000986
1246	0.0014152
1258	0.0015022
1270	0.0010759
1282	0.0008497
1294	0.000725
1306	0.0008497
1318	0.0012267
1330	0.0013108
1342	0.0010585
1354	0.0013485
1366	0.0026825
1378	0.0034626
1390	0.0026477
1402	0.0010005
1414	0.0006235
1426	0.0008323
1438	0.0016182
1450	0.003828
1462	0.0058174
1474	0.0045646
1486	0.0020126
1498	0.0006902
1510	0.0004292
1522	0.0002987
1534	0.000232
1546	0.0001827
1558	0.0001769
1570	0.0001914
1582	0.0002059
1594	0.0002204
1606	0.0002204
1618	0.0002581
1630	0.0002262
1642	0.0002378
1654	0.0002755
1666	0.000319
1678	0.0004582
1690	0.000783
1702	0.0013601
1714	0.0021228
1726	0.0056057
1738	0.0164169
1750	0.0238148
1762	0.0151728
1774	0.0047183
1786	0.0023925
1798	0.0015921
1810	0.0008555
1822	0.0004611
1834	0.0003161
1846	0.0002407
1858	0.0001827
1870	0.0001653
1882	0.0001537
1894	0.0001653
1906	0.0001566
1918	0.0001363
1930	8.7e-05
1942	8.12e-05
1954	7.25e-05
1966	9.57e-05
1978	6.67e-05
1990	4.35e-05
2002	4.06e-05
2014	3.77e-05
2026	2.9e-05
2038	5.8e-05
2050	5.22e-05
2062	5.22e-05
2074	1.45e-05
2086	3.77e-05
2098	0
2110	1.74e-05
2122	2.03e-05
2134	4.06e-05
2146	2.03e-05
2158	2.32e-05
2170	2.61e-05
2182	3.19e-05
2194	6.09e-05
2206	4.06e-05
2218	6.09e-05
2230	3.48e-05
2242	3.48e-05
2254	5.22e-05
2266	4.35e-05
2278	5.22e-05
2290	4.64e-05
2302	4.35e-05
2314	4.06e-05
2326	5.22e-05
2338	6.09e-05
2350	6.67e-05
2362	7.25e-05
2374	5.22e-05
2386	6.67e-05
2398	4.93e-05
2410	6.96e-05
2422	5.8e-05
2434	6.09e-05
2446	4.35e-05
2458	3.48e-05
2470	4.64e-05
2482	4.35e-05
2494	5.22e-05
2506	4.64e-05
2518	4.35e-05
2530	4.64e-05
2542	3.19e-05
2554	6.96e-05
2566	4.35e-05
2578	5.51e-05
2590	9.28e-05
2602	0.0001102
2614	0.0001102
2626	8.41e-05
2638	8.99e-05
2650	9.57e-05
2662	8.99e-05
2674	0.0001102
2686	0.0001421
2698	0.0001479
2710	0.0001972
2722	0.0002755
2734	0.0003074
2746	0.0003538
2758	0.0003219
2770	0.0003683
2782	0.0004089
2794	0.0004611
2806	0.0006148
2818	0.0008178
2830	0.0011049
2842	0.001508
2854	0.0030682
2866	0.0075748
2878	0.0117711
2890	0.009947
2902	0.007163
2914	0.0074298
2926	0.0107387
2938	0.0160022
2950	0.0221705
2962	0.0286462
2974	0.0243687
2986	0.0116986
2998	0.0039034
3010	0.0014239
3022	0.0008642
3034	0.0006351
3046	0.0005075
3058	0.0004814
3070	0.0005191
3082	0.0005249
3094	0.0005539
3106	0.0004872
3118	0.0004495
3130	0.0004408
3142	0.0003915
3154	0.0003857
3166	0.0004263
3178	0.0004118
3190	0.0003045
3202	0.0002581
3214	0.0002059
3226	0.0001595
3238	0.0001276
3250	0.0001334
3262	0.0001537
3274	0.0001392
3286	0.0001102
3298	7.25e-05
3310	0.0002146
3322	0.0001769
3334	0.0001015
3346	0.0001421
3358	7.25e-05
3370	0.0001102
3382	5.8e-05
3394	5.8e-05
3406	6.38e-05
3418	6.38e-05
3430	8.12e-05
3442	0.000116
3454	0.0001595
3466	0.0003654
3478	0.0005046
3490	0.0004901
3502	0.000261
3514	0.0001856
3526	0.0001334
3538	7.54e-05
3550	4.06e-05
3562	5.22e-05
3574	6.96e-05
3586	4.93e-05
3598	6.09e-05
3610	5.8e-05
3622	9.57e-05
3634	4.64e-05
3646	3.48e-05
3658	7.83e-05
3670	0.0001015
3682	1.16e-05
3694	2.9e-05
3706	4.06e-05
3718	6.09e-05
3730	0.0001044
3742	8.7e-05
3754	8.12e-05
3766	9.57e-05
3778	0.0001015
3790	8.7e-05
3802	0.000116
3814	0.000116
3826	9.86e-05
3838	0.0001015
