Infrared Spectrum: 4-Bromo-2-ethylaniline
Formula: C 8 H 10 Br N
CAS: 45762-41-2
State: gas
Origin: EPA-IR VAPOR PHASE LIBRARY
1/CM	ABSORBANCE
549.9	0.01812
559.547	0.01841
569.193	0.01965
578.84	0.02187
588.486	0.02264
598.133	0.02296
607.779	0.02676
617.426	0.03721
627.072	0.05199
636.719	0.03505
646.365	0.02034
656.012	0.02192
665.658	0.02313
675.305	0.02312
684.951	0.02235
694.598	0.02142
704.245	0.02046
713.891	0.01966
723.538	0.01875
733.184	0.01766
742.831	0.01682
752.477	0.01542
762.124	0.01491
771.77	0.01509
781.417	0.01973
791.063	0.03504
800.71	0.05433
810.356	0.05054
820.003	0.02966
829.649	0.01669
839.296	0.01386
848.943	0.02458
858.589	0.03583
868.236	0.02883
877.882	0.03115
887.529	0.01964
897.175	0.01083
906.822	0.00827
916.468	0.00771
926.115	0.00765
935.761	0.0074
945.408	0.00746
955.054	0.00848
964.701	0.01079
974.347	0.01113
983.994	0.00918
993.64	0.00789
1003.29	0.007
1012.93	0.0069
1022.58	0.00745
1032.23	0.00921
1041.87	0.01313
1051.52	0.01894
1061.17	0.02076
1070.81	0.01967
1080.46	0.02062
1090.11	0.02092
1099.75	0.01562
1109.4	0.01037
1119.05	0.00912
1128.69	0.00982
1138.34	0.01581
1147.99	0.02591
1157.63	0.01927
1167.28	0.01024
1176.92	0.01513
1186.57	0.02217
1196.22	0.01872
1205.86	0.01024
1215.51	0.00715
1225.16	0.00795
1234.8	0.01046
1244.45	0.01658
1254.1	0.03376
1263.74	0.07166
1273.39	0.08357
1283.04	0.03938
1292.68	0.02296
1302.33	0.01834
1311.98	0.01328
1321.62	0.01211
1331.27	0.00996
1340.92	0.00918
1350.56	0.00929
1360.21	0.00825
1369.86	0.00813
1379.5	0.01079
1389.15	0.01457
1398.79	0.02492
1408.44	0.04045
1418.09	0.02849
1427.73	0.01471
1437.38	0.01633
1447.03	0.02466
1456.67	0.03821
1466.32	0.04695
1475.97	0.07796
1485.61	0.17301
1495.26	0.1531
1504.91	0.04313
1514.55	0.01764
1524.2	0.0112
1533.85	0.00864
1543.49	0.00762
1553.14	0.00782
1562.79	0.00929
1572.43	0.011
1582.08	0.01253
1591.73	0.01559
1601.37	0.02221
1611.02	0.04004
1620.67	0.07527
1630.31	0.07448
1639.96	0.03498
1649.6	0.01601
1659.25	0.00955
1668.9	0.00685
1678.54	0.00551
1688.19	0.00471
1697.84	0.00431
1707.48	0.00436
1717.13	0.00479
1726.78	0.00522
1736.42	0.0052
1746.07	0.0056
1755.72	0.00528
1765.36	0.00381
1775.01	0.00303
1784.66	0.00288
1794.3	0.00298
1803.95	0.00319
1813.6	0.00307
1823.24	0.00277
1832.89	0.00322
1842.54	0.00485
1852.18	0.00626
1861.83	0.00487
1871.47	0.00305
1881.12	0.002562
1890.77	0.0025381
1900.41	0.002431
1910.06	0.0022263
1919.71	0.0020929
1929.35	0.002165
1939	0.0021591
1948.65	0.0020579
1958.29	0.001958
1967.94	0.0019814
1977.59	0.0019915
1987.23	0.0020551
1996.88	0.0021421
2006.53	0.0022788
2016.17	0.0022914
2025.82	0.0021341
2035.47	0.0020651
2045.11	0.0019433
2054.76	0.0018185
2064.41	0.0018597
2074.05	0.0018919
2083.7	0.0018822
2093.35	0.0019064
2102.99	0.0018731
2112.64	0.0019228
2122.28	0.0018534
2131.93	0.00175835
2141.58	0.0016364
2151.22	0.0016119
2160.87	0.0015717
2170.52	0.001487
2180.16	0.001497
2189.81	0.0015708
2199.46	0.0016097
2209.1	0.00165008
2218.75	0.00171097
2228.4	0.00172268
2238.04	0.001787
2247.69	0.00173883
2257.34	0.0016499
2266.98	0.0015925
2276.63	0.0015893
2286.28	0.001544
2295.92	0.0016047
2305.57	0.0016578
2315.22	0.0016379
2324.86	0.00167323
2334.51	0.00169995
2344.16	0.0018076
2353.8	0.00172471
2363.45	0.0016109
2373.09	0.00152
2382.74	0.001453
2392.39	0.001486
2402.03	0.001396
2411.68	0.00144
2421.33	0.001525
2430.97	0.001632
2440.62	0.00170844
2450.27	0.0016105
2459.91	0.001451
2469.56	0.001379
2479.21	0.001327
2488.85	0.00131
2498.5	0.001482
2508.15	0.00144
2517.79	0.0016005
2527.44	0.0018231
2537.09	0.0018577
2546.73	0.0018406
2556.38	0.00174711
2566.03	0.0017433
2575.67	0.00166256
2585.32	0.001505
2594.96	0.001481
2604.61	0.00166221
2614.26	0.00169152
2623.9	0.0018149
2633.55	0.0018208
2643.2	0.0015911
2652.84	0.0015926
2662.49	0.0015968
2672.14	0.0016465
2681.78	0.00165549
2691.43	0.00165445
2701.08	0.001514
2710.72	0.001507
2720.37	0.0016163
2730.02	0.0018496
2739.66	0.0021584
2749.31	0.0023086
2758.96	0.0022438
2768.6	0.0023569
2778.25	0.0024592
2787.9	0.0026553
2797.54	0.00298
2807.19	0.0034
2816.84	0.00402
2826.48	0.00477
2836.13	0.00627
2845.77	0.00878
2855.42	0.01252
2865.07	0.01925
2874.71	0.02894
2884.36	0.03646
2894.01	0.03299
2903.65	0.02533
2913.3	0.0225
2922.95	0.02439
2932.59	0.03372
2942.24	0.04612
2951.89	0.04414
2961.53	0.04457
2971.18	0.07384
2980.83	0.07254
2990.47	0.02975
3000.12	0.0153
3009.77	0.01425
3019.41	0.01997
3029.06	0.02126
3038.71	0.01367
3048.35	0.00976
3058	0.00852
3067.64	0.00839
3077.29	0.00913
3086.94	0.00869
3096.58	0.0064
3106.23	0.0042
3115.88	0.0027
3125.52	0.0022461
3135.17	0.0018959
3144.82	0.00166233
3154.46	0.001324
3164.11	0.001182
3173.76	0.001074
3183.4	0.001256
3193.05	0.001248
3202.7	0.001228
3212.34	0.001322
3221.99	0.001387
3231.64	0.00151
3241.28	0.001344
3250.93	0.001098
3260.58	0.000669
3270.22	0.00042
3279.87	0.00026
3289.52	0.00022
3299.16	0.00019
3308.81	0.00017
3318.45	0.00011
3328.1	0.0001
3337.75	5e-05
3347.39	0.0001
3357.04	0.00025
3366.69	0.0005
3376.33	0.00131
3385.98	0.0025294
3395.63	0.00548
3405.27	0.01316
3414.92	0.01554
3424.57	0.00697
3434.21	0.00267
3443.86	0.0018024
3453.51	0.0019368
3463.15	0.00297
3472.8	0.00507
3482.45	0.00982
3492.09	0.0147
3501.74	0.01267
3511.39	0.00643
3521.03	0.00285
3530.68	0.0017063
3540.33	0.001007
3549.97	0.000955
3559.62	0.000762
3569.26	0.000696
3578.91	0.00064
3588.56	0.00066
3598.2	0.00057
3607.85	0.00055
3617.5	0.00056
3627.14	0.000733
3636.79	0.00074
3646.44	0.000856
3656.08	0.000912
3665.73	0.000871
3675.38	0.000907
3685.02	0.000725
3694.67	0.000897
3704.32	0.000975
3713.96	0.000962
3723.61	0.000975
3733.26	0.001115
3742.9	0.001095
3752.55	0.000988
3762.2	0.00103
3771.84	0.000924
3781.49	0.000823
3791.13	0.000798
3800.78	0.000843
3810.43	0.00088
3820.07	0.000931
3829.72	0.001007
3839.37	0.001069
3849.01	0.001128
3858.66	0.001171
3868.31	0.001238
3877.95	0.001283
3887.6	0.001342
3897.25	0.001499
3906.89	0.0016205
3916.54	0.0017771
3926.19	0.0019863
3935.83	0.0020106
3945.48	0.0017649
3955.13	0.0016414
3964.77	0.0016295
3974.42	0.0015841
3984.07	0.0016281
3993.71	0.00172884
