Infrared Spectrum: 3-METHYLENECYCLOPROPANE-1,2-DICARBOXYLIC ACID
Formula: C6 H6 O4
CAS: 45786-15-0
State: SOLID (KBr PELLET)
Class: COBLENTZ
Instrument: PERKIN-ELMER
Sampling: TRANSMISSION
Resolution: 4
Origin: ABBOTT LABORATORIES - WASHBURN
MICROMETERS	TRANSMITTANCE
2.037	0.908
2.07067	0.913
2.10434	0.9111
2.13801	0.9211
2.17168	0.9269
2.20535	0.931
2.23902	0.931
2.27269	0.927
2.30636	0.9311
2.34003	0.9309
2.3737	0.927
2.40737	0.9308
2.44104	0.932
2.47471	0.929
2.50838	0.9213
2.54205	0.9249
2.57572	0.9189
2.60939	0.9231
2.64306	0.913
2.67673	0.917
2.7104	0.9089
2.74407	0.9078
2.77774	0.8862
2.81141	0.8467
2.84508	0.7749
2.87875	0.714
2.91242	0.6421
2.94609	0.5905
2.97976	0.5531
3.01343	0.5451
3.0471	0.5419
3.08077	0.5189
3.11444	0.4618
3.14811	0.4036
3.18178	0.3602
3.21545	0.3232
3.24912	0.273
3.28279	0.2349
3.31646	0.1927
3.35013	0.1972
3.3838	0.2139
3.41747	0.2289
3.45114	0.235
3.48481	0.229
3.51848	0.2289
3.55215	0.2426
3.58582	0.2679
3.61949	0.3058
3.65316	0.3542
3.68683	0.381
3.7205	0.3879
3.75417	0.3978
3.78784	0.3901
3.82151	0.3731
3.85518	0.386
3.88885	0.3789
3.92252	0.3786
3.95619	0.4106
3.98986	0.417
4.02353	0.4001
4.0572	0.4004
4.09087	0.4542
4.12454	0.5125
4.15821	0.5432
4.19188	0.5818
4.22555	0.6029
4.25922	0.6181
4.29289	0.628
4.32656	0.6407
4.36023	0.6692
4.3939	0.681
4.42757	0.678
4.46124	0.6891
4.49491	0.704
4.52858	0.7138
4.56225	0.72
4.59592	0.722
4.62959	0.729
4.66326	0.7391
4.69693	0.749
4.7306	0.75
4.76427	0.7411
4.79794	0.745
4.83161	0.743
4.86528	0.741
4.89895	0.7391
4.93262	0.7429
4.96629	0.7469
4.99996	0.749
5.03363	0.7431
5.0673	0.741
5.10097	0.741
5.13464	0.7414
5.16831	0.7375
5.20198	0.7282
5.23565	0.714
5.26932	0.7066
5.30299	0.6996
5.33666	0.6897
5.37033	0.6818
5.404	0.6729
5.43767	0.6595
5.47134	0.6401
5.50501	0.6312
5.53868	0.6136
5.57235	0.5914
5.60602	0.5608
5.63969	0.5362
5.67336	0.4505
5.70703	0.3595
5.7407	0.3067
5.77437	0.1695
5.80804	0.0575
5.84171	0.0208
5.87538	0.015
5.90905	0.024
5.94272	0.0169
5.97639	0.0413
6.01006	0.1298
6.04373	0.1842
6.0774	0.2462
6.11107	0.3176
6.14474	0.3952
6.17841	0.4525
6.21208	0.5096
6.24575	0.5635
6.27942	0.5946
6.31309	0.6276
6.34676	0.6524
6.38043	0.674
6.4141	0.685
6.44777	0.7021
6.48144	0.7112
6.51511	0.7336
6.54878	0.75
6.58245	0.7526
6.61612	0.7598
6.64979	0.7581
6.68346	0.756
6.71713	0.7559
6.7508	0.754
6.78447	0.7435
6.81814	0.7211
6.85181	0.6776
6.88548	0.6406
6.91915	0.5544
6.95282	0.4679
6.98649	0.37
7.02016	0.2919
7.05383	0.2269
7.0875	0.1601
7.12117	0.1069
7.15484	0.1179
7.18851	0.2078
7.22218	0.3074
7.25585	0.415
7.28952	0.4829
7.32319	0.5274
7.35686	0.564
7.39053	0.572
7.4242	0.5526
7.45787	0.4977
7.49154	0.4422
7.52521	0.3854
7.55888	0.358
7.59255	0.363
7.62622	0.3275
7.65989	0.2561
7.69356	0.2034
7.72723	0.1802
7.7609	0.1555
7.79457	0.143
7.82824	0.145
7.86191	0.1526
7.89558	0.1447
7.92925	0.132
7.96292	0.166
7.99659	0.2455
8.03026	0.314
8.06393	0.3
8.0976	0.3574
8.13127	0.4165
8.16494	0.4366
8.19861	0.4332
8.23228	0.3868
8.26595	0.2994
8.29962	0.219
8.33329	0.2144
8.36696	0.235
8.40063	0.2369
8.4343	0.2863
8.46797	0.3919
8.50164	0.4595
8.53531	0.5065
8.56898	0.5333
8.60265	0.5695
8.63632	0.5955
8.66999	0.6273
8.70366	0.6585
8.73734	0.6868
8.77101	0.7072
8.80468	0.7256
8.83835	0.742
8.87202	0.75
8.90569	0.754
8.93936	0.7553
8.97303	0.7338
9.0067	0.6653
9.04037	0.5074
9.07404	0.2763
9.10771	0.168
9.14138	0.2504
9.17505	0.3882
9.20872	0.4928
9.24239	0.5364
9.27606	0.553
9.30973	0.5776
9.3434	0.6271
9.37707	0.6652
9.41074	0.6886
9.44441	0.7033
9.47808	0.706
9.51175	0.697
9.54542	0.6791
9.57909	0.6628
9.61276	0.647
9.64643	0.6445
9.6801	0.628
9.71377	0.5979
9.74744	0.587
9.78111	0.5948
9.81478	0.6461
9.84845	0.6817
9.88212	0.7002
9.91579	0.7065
9.94946	0.708
9.98313	0.708
10.0168	0.704
10.0505	0.7028
10.0841	0.697
10.1178	0.6908
10.1515	0.6829
10.1851	0.672
10.2188	0.6641
10.2525	0.6452
10.2862	0.6211
10.3198	0.5878
10.3535	0.5474
10.3872	0.472
10.4208	0.3994
10.4545	0.3393
10.4882	0.3281
10.5218	0.351
10.5555	0.3719
10.5892	0.3633
10.6229	0.332
10.6565	0.3112
10.6902	0.2992
10.7239	0.2855
10.7575	0.2681
10.7912	0.2418
10.8249	0.2155
10.8585	0.192
10.8922	0.158
10.9259	0.1195
10.9596	0.0927
10.9932	0.0612
11.0269	0.04
11.0606	0.0543
11.0942	0.0873
11.1279	0.1133
11.1616	0.1427
11.1952	0.1927
11.2289	0.2337
11.2626	0.2624
11.2963	0.2932
11.3299	0.3126
11.3636	0.3266
11.3973	0.3451
11.4309	0.353
11.4646	0.356
11.4983	0.3698
11.5319	0.3757
11.5656	0.3886
11.5993	0.402
11.633	0.4154
11.6666	0.4321
11.7003	0.4484
11.734	0.4674
11.7676	0.4826
11.8013	0.4985
11.835	0.5151
11.8686	0.524
11.9023	0.5398
11.936	0.5563
11.9697	0.5679
12.0033	0.5736
12.037	0.58
12.0707	0.584
12.1043	0.5893
12.138	0.602
12.1717	0.6215
12.2053	0.6321
12.239	0.64
12.2727	0.647
12.3064	0.6541
12.34	0.661
12.3737	0.674
12.4074	0.6748
12.441	0.6747
12.4747	0.681
12.5084	0.6871
12.542	0.691
12.5757	0.693
12.6094	0.6952
12.6431	0.6971
12.6767	0.695
12.7104	0.689
12.7441	0.685
12.7777	0.6561
12.8114	0.6185
12.8451	0.5621
12.8787	0.5283
12.9124	0.5236
12.9461	0.5607
12.9798	0.5972
13.0134	0.6325
13.0471	0.6543
13.0808	0.6713
13.1144	0.678
13.1481	0.693
13.1818	0.699
13.2154	0.704
13.2491	0.706
13.2828	0.712
13.3165	0.714
13.3501	0.714
13.3838	0.7055
13.4175	0.6986
13.4511	0.6867
13.4848	0.687
13.5185	0.6892
13.5521	0.689
13.5858	0.695
13.6195	0.6987
13.6532	0.6952
13.6868	0.6853
13.7205	0.6709
13.7542	0.6555
13.7878	0.6497
13.8215	0.6837
13.8552	0.7095
13.8888	0.7375
13.9225	0.7443
13.9562	0.754
13.9899	0.758
14.0235	0.761
14.0572	0.7669
14.0909	0.7708
14.1245	0.772
14.1582	0.777
14.1919	0.779
14.2255	0.779
14.2592	0.787
14.2929	0.785
14.3266	0.7809
14.3602	0.781
14.3939	0.7771
14.4276	0.773
14.4612	0.773
14.4949	0.7662
14.5286	0.768
14.5622	0.764
14.5959	0.7676
14.6296	0.7595
14.6633	0.764
14.6969	0.76
14.7306	0.768
14.7643	0.768
14.7979	0.766
14.8316	0.7642
14.8653	0.768
14.8989	0.7572
14.9326	0.7357
14.9663	0.7583
15	0.764
15.0336	0.7587
15.0673	0.7526
15.101	0.7498
15.1346	0.7426
15.1683	0.737
15.202	0.7302
15.2356	0.7118
15.2693	0.6931
15.303	0.6742
15.3367	0.6332
15.3703	0.5819
15.404	0.5591
