Infrared Spectrum: (+)-1-(4-Bromophenyl)ethylamine
Formula: C 8 H 10 Br N
CAS: 45791-36-4
State: gas
Origin: EPA-IR VAPOR PHASE LIBRARY
1/CM	ABSORBANCE
549.8	0.00681
559.445	0.00557
569.09	0.00481
578.734	0.0045
588.379	0.00576
598.024	0.00611
607.669	0.00853
617.313	0.00747
626.958	0.00571
636.603	0.00578
646.248	0.00513
655.893	0.00439
665.537	0.00492
675.182	0.00411
684.827	0.00536
694.472	0.00575
704.116	0.00628
713.761	0.00837
723.406	0.00965
733.051	0.00991
742.695	0.0125
752.34	0.01518
761.985	0.01764
771.63	0.01765
781.275	0.01793
790.919	0.01927
800.564	0.02084
810.209	0.02508
819.854	0.02723
829.498	0.02377
839.143	0.01521
848.788	0.00861
858.433	0.00635
868.078	0.00472
877.722	0.00449
887.367	0.00492
897.012	0.00486
906.657	0.00505
916.301	0.00408
925.946	0.00377
935.591	0.00275
945.236	0.00328
954.88	0.00295
964.525	0.00369
974.17	0.00312
983.815	0.00388
993.46	0.0058
1003.1	0.01812
1012.75	0.0279
1022.39	0.00844
1032.04	0.00558
1041.68	0.00526
1051.33	0.00748
1060.97	0.0101
1070.62	0.02241
1080.26	0.02172
1089.91	0.0127
1099.55	0.01094
1109.2	0.00999
1118.84	0.00651
1128.49	0.0062
1138.13	0.00443
1147.78	0.0047
1157.42	0.00254
1167.07	0.00436
1176.71	0.00365
1186.36	0.00589
1196	0.00401
1205.64	0.00627
1215.29	0.0066
1224.93	0.00651
1234.58	0.00615
1244.22	0.00606
1253.87	0.00467
1263.51	0.00512
1273.16	0.0054
1282.8	0.00496
1292.45	0.00704
1302.09	0.00638
1311.74	0.00585
1321.38	0.00702
1331.03	0.00766
1340.67	0.00757
1350.32	0.00846
1359.96	0.00935
1369.61	0.0098
1379.25	0.00888
1388.9	0.00851
1398.54	0.00872
1408.18	0.00887
1417.83	0.00678
1427.47	0.00489
1437.12	0.00494
1446.76	0.00606
1456.41	0.00775
1466.05	0.00912
1475.7	0.01286
1485.34	0.03037
1494.99	0.02451
1504.63	0.00621
1514.28	0.0038
1523.92	0.00321
1533.57	0.00329
1543.21	0.00311
1552.86	0.00295
1562.5	0.00395
1572.15	0.00474
1581.79	0.00687
1591.44	0.00925
1601.08	0.00864
1610.73	0.00772
1620.37	0.00893
1630.01	0.00863
1639.66	0.00677
1649.3	0.0056
1658.95	0.00388
1668.59	0.0031
1678.24	0.00271
1687.88	0.0022808
1697.53	0.0022937
1707.17	0.00241
1716.82	0.0023192
1726.46	0.0020083
1736.11	0.0019216
1745.75	0.0023041
1755.4	0.00239
1765.04	0.00252
1774.69	0.00259
1784.33	0.00256
1793.98	0.0020312
1803.62	0.0018155
1813.27	0.0019861
1822.91	0.0017882
1832.55	0.0016393
1842.2	0.0016572
1851.84	0.0017225
1861.49	0.0019451
1871.13	0.002213
1880.78	0.00267
1890.42	0.00283
1900.07	0.00262
1909.71	0.0022346
1919.36	0.0020857
1929	0.001755
1938.65	0.0016974
1948.29	0.0016502
1957.94	0.00139852
1967.58	0.00138995
1977.23	0.0013681
1986.87	0.0013343
1996.52	0.001249
2006.16	0.0012701
2015.81	0.001231
2025.45	0.00136026
2035.1	0.001228
2044.74	0.0016055
2054.38	0.000967
2064.03	0.00140679
2073.67	0.0013351
2083.32	0.0012722
2092.96	0.00140764
2102.61	0.000968
2112.25	0.001145
2121.9	0.001216
2131.54	0.0012923
2141.19	0.0013167
2150.83	0.0015309
2160.48	0.001237
2170.12	0.00124
2179.77	0.00111
2189.41	0.00102
2199.06	0.0015331
2208.7	0.001215
2218.35	0.000948
2227.99	0.00097
2237.64	0.001219
2247.28	0.001219
2256.92	0.0014891
2266.57	0.001199
2276.21	0.0016825
2285.86	0.00140718
2295.5	0.000853
2305.15	0.00143583
2314.79	0.0013364
2324.44	0.00122
2334.08	0.0015112
2343.73	0.0016058
2353.37	0.0015683
2363.02	0.001057
2372.66	0.000987
2382.31	0.001016
2391.95	0.0017004
2401.6	0.001032
2411.24	0.0013197
2420.89	0.001213
2430.53	0.001253
2440.18	0.001147
2449.82	0.0013138
2459.47	0.00138739
2469.11	0.0015124
2478.75	0.001228
2488.4	0.00138161
2498.04	0.001114
2507.69	0.0017653
2517.33	0.0015911
2526.98	0.0012916
2536.62	0.0015732
2546.27	0.001003
2555.91	0.0017967
2565.56	0.0016843
2575.2	0.0017399
2584.85	0.0018707
2594.49	0.001643
2604.14	0.0017279
2613.78	0.0017075
2623.43	0.0018395
2633.07	0.001686
2642.72	0.0016069
2652.36	0.0016491
2662.01	0.00145565
2671.65	0.0016674
2681.29	0.0016698
2690.94	0.0015332
2700.58	0.0017247
2710.23	0.0018497
2719.87	0.0021213
2729.52	0.00139621
2739.16	0.0015241
2748.81	0.00165
2758.45	0.001968
2768.1	0.0020261
2777.74	0.0023283
2787.39	0.0018268
2797.03	0.0017486
2806.68	0.0023305
2816.32	0.00291
2825.97	0.00345
2835.61	0.00381
2845.26	0.00575
2854.9	0.00672
2864.55	0.00787
2874.19	0.00922
2883.84	0.00865
2893.48	0.00809
2903.12	0.00797
2912.77	0.00791
2922.41	0.00804
2932.06	0.0106
2941.7	0.0087
2951.35	0.00767
2960.99	0.01458
2970.64	0.02462
2980.28	0.01839
2989.93	0.01166
2999.57	0.00569
3009.22	0.00355
3018.86	0.00478
3028.51	0.0059
3038.15	0.0056
3047.8	0.0046
3057.44	0.00353
3067.09	0.00408
3076.73	0.00469
3086.38	0.00541
3096.02	0.00428
3105.67	0.00249
3115.31	0.0015872
3124.95	0.0016673
3134.6	0.0019107
3144.24	0.0015352
3153.89	0.0015366
3163.53	0.001511
3173.18	0.0015906
3182.82	0.000687
3192.47	0.0020213
3202.11	0.001981
3211.76	0.001102
3221.4	0.0019684
3231.05	0.0013016
3240.69	0.00094
3250.34	0.0016404
3259.98	0.000942
3269.63	0.001152
3279.27	0.000868
3288.92	0.0014789
3298.56	0.00144107
3308.21	0.001693
3317.85	0.000851
3327.49	0.0014919
3337.14	0.0014805
3346.78	0.0018829
3356.43	0.0016358
3366.07	0.000975
3375.72	0.0021415
3385.36	0.000824
3395.01	0.001027
3404.65	0.0013282
3414.3	0.0014958
3423.94	0.0015181
3433.59	0.00144287
3443.23	0.000736
3452.88	0.00141152
3462.52	0.00140187
3472.17	0.0016713
3481.81	0.0012673
3491.46	0.001211
3501.1	0.00137873
3510.75	0.001028
3520.39	0.0014943
3530.04	0.0015012
3539.68	0.0018064
3549.32	0.001038
3558.97	0.0020438
3568.61	0.0016918
3578.26	0.001724
3587.9	0.0015747
3597.55	0.001208
3607.19	0.00116
3616.84	0.0014702
3626.48	0.0013485
3636.13	0.0015147
3645.77	0.0014611
3655.42	0.001227
3665.06	0.0011
3674.71	0.001888
3684.35	0.000891
3694	0.00091
3703.64	0.00143622
3713.29	0.000805
3722.93	0.000778
3732.58	0.00031
3742.22	0.00145552
3751.86	0.000613
3761.51	0.0015367
3771.15	0.0017912
3780.8	0.0022471
3790.44	0.00139738
3800.09	0.001137
3809.73	0.0015582
3819.38	0.00018
3829.02	0.001233
3838.67	0.0015591
3848.31	0.0014714
3857.96	0.00109
3867.6	0.0019864
3877.25	0.0014786
3886.89	0.0016287
3896.54	0.000683
3906.18	0.0019243
3915.83	0.0016671
3925.47	0.001205
3935.12	0.001088
3944.76	0.0012982
3954.41	0.001319
3964.05	0.0013099
3973.69	0.0016643
3983.34	0.000895
3992.98	0.000592
