Infrared Spectrum: 3-Fluorocinnamic acid
Formula: C 9 H 7 F O 2
CAS: 458-46-8
State: gas
Origin: EPA-IR VAPOR PHASE LIBRARY
1/CM	ABSORBANCE
549.9	0.06649
559.547	0.09035
569.193	0.11269
578.84	0.10116
588.486	0.05833
598.133	0.03658
607.779	0.02165
617.426	0.01716
627.072	0.01774
636.719	0.02793
646.365	0.03989
656.012	0.0509
665.658	0.05497
675.305	0.0619
684.951	0.04037
694.598	0.01896
704.245	0.01051
713.891	0.00793
723.538	0.00753
733.184	0.00859
742.831	0.01085
752.477	0.01702
762.124	0.03349
771.77	0.06118
781.417	0.08201
791.063	0.05298
800.71	0.02231
810.356	0.01187
820.003	0.00885
829.649	0.00888
839.296	0.01445
848.943	0.03109
858.589	0.04716
868.236	0.03539
877.882	0.02559
887.529	0.02324
897.175	0.02145
906.822	0.01917
916.468	0.0173
926.115	0.02115
935.761	0.03133
945.408	0.03566
955.054	0.03683
964.701	0.0579
974.347	0.07562
983.994	0.06061
993.64	0.03166
1003.29	0.01852
1012.93	0.01239
1022.58	0.01035
1032.23	0.00998
1041.87	0.01037
1051.52	0.01269
1061.17	0.01746
1070.81	0.02725
1080.46	0.0371
1090.11	0.0509
1099.75	0.09918
1109.4	0.26113
1119.05	0.41396
1128.69	0.23831
1138.34	0.17422
1147.99	0.21444
1157.63	0.20856
1167.28	0.1244
1176.92	0.05762
1186.57	0.0372
1196.22	0.03228
1205.86	0.04182
1215.51	0.06644
1225.16	0.0739
1234.8	0.08461
1244.45	0.09246
1254.1	0.11358
1263.74	0.12547
1273.39	0.13028
1283.04	0.09328
1292.68	0.06002
1302.33	0.04837
1311.98	0.04905
1321.62	0.04554
1331.27	0.03909
1340.92	0.05123
1350.56	0.09086
1360.21	0.11252
1369.86	0.07156
1379.5	0.0317
1389.15	0.01913
1398.79	0.01682
1408.44	0.01625
1418.09	0.01762
1427.73	0.02797
1437.38	0.05325
1447.03	0.06943
1456.67	0.04084
1466.32	0.03083
1475.97	0.0461
1485.61	0.07022
1495.26	0.05179
1504.91	0.02292
1514.55	0.01554
1524.2	0.0143
1533.85	0.01255
1543.49	0.01435
1553.14	0.02066
1562.79	0.03517
1572.43	0.06671
1582.08	0.10961
1591.73	0.10371
1601.37	0.07377
1611.02	0.06935
1620.67	0.04837
1630.31	0.0585
1639.96	0.11101
1649.6	0.10582
1659.25	0.03065
1668.9	0.01998
1678.54	0.01746
1688.19	0.01442
1697.84	0.01725
1707.48	0.02706
1717.13	0.0451
1726.78	0.07276
1736.42	0.12267
1746.07	0.28025
1755.72	0.46878
1765.36	0.3262
1775.01	0.14428
1784.66	0.09919
1794.3	0.07141
1803.95	0.03931
1813.6	0.02141
1823.24	0.01547
1832.89	0.01342
1842.54	0.01344
1852.18	0.01351
1861.83	0.01086
1871.47	0.00843
1881.12	0.0078
1890.77	0.00706
1900.41	0.00619
1910.06	0.00641
1919.71	0.00789
1929.35	0.0086
1939	0.00669
1948.65	0.0054509
1958.29	0.0052746
1967.94	0.0050053
1977.59	0.004513
1987.23	0.004171
1996.88	0.00402
2006.53	0.004202
2016.17	0.004471
2025.82	0.00487
2035.47	0.0055738
2045.11	0.00628
2054.76	0.00628
2064.41	0.0054078
2074.05	0.004572
2083.7	0.004249
2093.35	0.00382
2102.99	0.00357
2112.64	0.00349
2122.28	0.00344
2131.93	0.00341
2141.58	0.00332
2151.22	0.00331
2160.87	0.0033
2170.52	0.0034
2180.16	0.00349
2189.81	0.00357
2199.46	0.00373
2209.1	0.00395
2218.75	0.004133
2228.4	0.004363
2238.04	0.004212
2247.69	0.00386
2257.34	0.00361
2266.98	0.00345
2276.63	0.00352
2286.28	0.00367
2295.92	0.00386
2305.57	0.00382
2315.22	0.00368
2324.86	0.0036
2334.51	0.00347
2344.16	0.00342
2353.8	0.0034
2363.45	0.00352
2373.09	0.0036
2382.74	0.00339
2392.39	0.00318
2402.03	0.00318
2411.68	0.00328
2421.33	0.00341
2430.97	0.00343
2440.62	0.0034
2450.27	0.00336
2459.91	0.00337
2469.56	0.0034
2479.21	0.00332
2488.85	0.00323
2498.5	0.00309
2508.15	0.00298
2517.79	0.00292
2527.44	0.00281
2537.09	0.00278
2546.73	0.00281
2556.38	0.00279
2566.03	0.00279
2575.67	0.003
2585.32	0.00292
2594.96	0.00261
2604.61	0.00239
2614.26	0.00225
2623.9	0.00208
2633.55	0.00199
2643.2	0.00181
2652.84	0.00174
2662.49	0.00166
2672.14	0.00168
2681.78	0.00174
2691.43	0.00197
2701.08	0.00192
2710.72	0.00192
2720.37	0.00174
2730.02	0.00161
2739.66	0.00158
2749.31	0.00154
2758.96	0.00163
2768.6	0.00154
2778.25	0.00133
2787.9	0.0014
2797.54	0.00131
2807.19	0.00104
2816.84	0.0009
2826.48	0.00084
2836.13	0.00089
2845.77	0.00103
2855.42	0.00118
2865.07	0.00141
2874.71	0.00147
2884.36	0.00146
2894.01	0.00137
2903.65	0.00125
2913.3	0.00116
2922.95	0.00113
2932.59	0.0011
2942.24	0.00123
2951.89	0.00121
2961.53	0.0013
2971.18	0.0014
2980.83	0.00153
2990.47	0.00188
3000.12	0.00183
3009.77	0.00198
3019.41	0.0025
3029.06	0.00432
3038.71	0.00792
3048.35	0.01037
3058	0.01166
3067.64	0.01534
3077.29	0.01705
3086.94	0.01389
3096.58	0.00755
3106.23	0.004477
3115.88	0.0028
3125.52	0.00118
3135.17	0.00039
3144.82	0.00011
3154.46	4e-05
3164.11	4e-05
3173.76	2e-05
3183.4	7e-05
3193.05	0.00012
3202.7	0.00024
3212.34	0.00017
3221.99	0.00021
3231.64	0.00032
3241.28	0.00026
3250.93	0.00041
3260.58	0.00049
3270.22	0.00049
3279.87	0.00037
3289.52	0.00063
3299.16	0.00062
3308.81	0.00074
3318.45	0.00091
3328.1	0.00088
3337.75	0.00113
3347.39	0.00125
3357.04	0.00136
3366.69	0.0015
3376.33	0.00159
3385.98	0.00203
3395.63	0.00203
3405.27	0.00206
3414.92	0.0019
3424.57	0.00187
3434.21	0.00206
3443.86	0.00229
3453.51	0.00251
3463.15	0.00323
3472.8	0.0037
3482.45	0.00458
3492.09	0.0058136
3501.74	0.00646
3511.39	0.00504204
3521.03	0.0039
3530.68	0.00371
3540.33	0.004091
3549.97	0.0055464
3559.62	0.00944
3569.26	0.03885
3578.91	0.17779
3588.56	0.1434
3598.2	0.02326
3607.85	0.00735
3617.5	0.00508791
3627.14	0.004313
3636.79	0.00382
3646.44	0.00375
3656.08	0.00397
3665.73	0.00441
3675.38	0.00369
3685.02	0.00343
3694.67	0.00352
3704.32	0.00346
3713.96	0.00335
3723.61	0.0031
3733.26	0.00316
3742.9	0.00313
3752.55	0.00301
3762.2	0.00294
3771.84	0.00294
3781.49	0.00288
3791.13	0.00302
3800.78	0.00311
3810.43	0.00316
3820.07	0.00314
3829.72	0.00311
3839.37	0.00323
3849.01	0.00312
3858.66	0.00307
3868.31	0.00297
3877.95	0.00298
3887.6	0.00296
3897.25	0.00288
3906.89	0.00291
3916.54	0.00296
3926.19	0.00295
3935.83	0.0029
3945.48	0.00277
3955.13	0.00288
3964.77	0.00285
3974.42	0.00299
3984.07	0.00291
3993.71	0.00295
