Infrared Spectrum: 2-Amino-5-chloropyrimidine-4-carboxylic acid
Formula: C 5 H 4 Cl N 3 O 2
CAS: 45867-11-6
State: gas
Instrument: HP-GC/MS/IRD
Origin: NIST Mass Spectrometry Data Center
1/CM	ABSORBANCE
550	0.00114
562	0.000915
574	0.000765
586	0.000565
598	0.000545
610	0.00063
622	0.000735
634	0.0007925
646	0.0011075
658	0.001615
670	0.0025675
682	0.00217
694	0.000785
706	0.0004075
718	0.000565
730	0.0009025
742	0.001405
754	0.001255
766	0.00105
778	0.001305
790	0.0015575
802	0.001535
814	0.00133
826	0.0009225
838	0.00069
850	0.00053
862	0.0005325
874	0.0004575
886	0.00037
898	0.0003675
910	0.0004225
922	0.000625
934	0.000935
946	0.0006825
958	0.0003825
970	0.000125
982	5.5e-05
994	7.75e-05
1006	0.00048
1018	0.0009275
1030	0.00083
1042	0.0002675
1054	0.0002
1066	0.000125
1078	0.00018
1090	0.00013
1102	0.0001925
1114	0.000265
1126	0.001295
1138	0.002345
1150	0.001355
1162	0.0007825
1174	0.0011325
1186	0.00136
1198	0.00116
1210	0.0008075
1222	0.0004875
1234	0.0004075
1246	0.00034
1258	0.0002475
1270	0.000215
1282	0.00023
1294	0.0002225
1306	0.000205
1318	0.00017
1330	0.000155
1342	0.000265
1354	0.0003225
1366	0.0003375
1378	0.0004775
1390	0.000505
1402	0.000645
1414	0.001155
1426	0.0030925
1438	0.0126725
1450	0.025
1462	0.0159025
1474	0.0022275
1486	0.0008325
1498	0.0006225
1510	0.0008
1522	0.0014825
1534	0.0027775
1546	0.003385
1558	0.003465
1570	0.0032925
1582	0.0041225
1594	0.010395
1606	0.0198025
1618	0.014035
1630	0.0039
1642	0.0016325
1654	0.0006175
1666	0.0003425
1678	0.000295
1690	0.00027
1702	0.0001725
1714	0.0001775
1726	0.0001725
1738	0.000115
1750	9.25e-05
1762	8.25e-05
1774	9e-05
1786	0.000115
1798	0.0001325
1810	0.0001225
1822	0.0001075
1834	9.75e-05
1846	0.0001025
1858	0.0001575
1870	0.000175
1882	0.00023
1894	0.0002125
1906	0.00018
1918	0.000135
1930	0.000105
1942	9.75e-05
1954	9.5e-05
1966	7.75e-05
1978	0.0001025
1990	9.5e-05
2002	0.00011
2014	0.000125
2026	0.0001425
2038	0.0001325
2050	9e-05
2062	8e-05
2074	0.0001075
2086	0.00016
2098	0.0001675
2110	0.00016
2122	0.0001375
2134	9e-05
2146	0.0001125
2158	7.75e-05
2170	5e-05
2182	6.75e-05
2194	5.75e-05
2206	8e-05
2218	0.0001025
2230	0.0001375
2242	0.00011
2254	0.0001025
2266	7.75e-05
2278	0.0001025
2290	0.0001125
2302	0.0001125
2314	0.0001475
2326	0.0001225
2338	7e-05
2350	5.5e-05
2362	4.25e-05
2374	6.75e-05
2386	5.25e-05
2398	5e-05
2410	8e-05
2422	7e-05
2434	0.00012
2446	0.0001025
2458	0.0001575
2470	0.000185
2482	0.0001775
2494	8e-05
2506	4.5e-05
2518	3.25e-05
2530	2.5e-05
2542	7.5e-05
2554	4.75e-05
2566	6e-05
2578	9e-05
2590	7.25e-05
2602	6.25e-05
2614	8e-05
2626	7e-05
2638	4.5e-05
2650	5.25e-05
2662	5.25e-05
2674	5.25e-05
2686	8.25e-05
2698	0.00012
2710	0.00016
2722	0.00017
2734	0.0001125
2746	8e-05
2758	4.5e-05
2770	7.25e-05
2782	8.25e-05
2794	5.5e-05
2806	3e-05
2818	2.75e-05
2830	3e-05
2842	4e-05
2854	1e-05
2866	1.75e-05
2878	2.5e-05
2890	0
2902	3e-05
2914	5e-05
2926	6.75e-05
2938	7.75e-05
2950	9.5e-05
2962	5.25e-05
2974	5e-05
2986	5e-05
2998	0.000105
3010	0.00017
3022	0.0002175
3034	0.00048
3046	0.00084
3058	0.0006675
3070	0.00019
3082	0.0001175
3094	0.0001275
3106	0.0001275
3118	8e-05
3130	9.5e-05
3142	0.00013
3154	0.0001625
3166	0.0001575
3178	0.000195
3190	0.0001025
3202	0.0001075
3214	9.75e-05
3226	0.0001125
3238	0.000105
3250	7.75e-05
3262	0.0001125
3274	8e-05
3286	4.5e-05
3298	8.5e-05
3310	0.0001075
3322	0.0001025
3334	0.0001325
3346	8.25e-05
3358	9e-05
3370	0.0001375
3382	0.000145
3394	0.00023
3406	0.000405
3418	0.0009525
3430	0.00189
3442	0.0021675
3454	0.0025375
3466	0.00216
3478	0.00063
3490	0.0003325
3502	0.000335
3514	0.000545
3526	0.0008075
3538	0.0011125
3550	0.0011225
3562	0.001165
3574	0.0012475
3586	0.001005
3598	0.00053
3610	0.0002475
3622	0.000165
3634	0.00013
3646	0.000125
3658	8.25e-05
3670	0.0001075
3682	0.0001125
3694	9.75e-05
3706	5.5e-05
3718	8.25e-05
3730	8.25e-05
3742	8e-05
3754	9.5e-05
3766	0.0001325
3778	0.000105
3790	6.5e-05
3802	5e-05
3814	5.25e-05
3826	8e-05
3838	5.5e-05
