Infrared Spectrum: 2-Methyl-1-octene
Formula: C 9 H 18
CAS: 4588-18-5
State: gas
Instrument: HP-GC/MS/IRD
Origin: NIST Mass Spectrometry Data Center
1/CM	ABSORBANCE
550	0.0007296
562	0.0004218
574	0.000285
586	0.0001482
598	0.000114
610	7.22e-05
622	0.0001026
634	0.0001026
646	6.46e-05
658	0.0001596
670	9.88e-05
682	0.0001938
694	0.0002242
706	0.000399
718	0.00057
730	0.000551
742	0.0004864
754	0.000361
766	0.0003154
778	0.0002204
790	0.0001406
802	0.0002584
814	0.0002432
826	0.000399
838	0.0004902
850	0.0007372
862	0.0014288
874	0.0034466
886	0.0073568
898	0.005985
910	0.002242
922	0.0010108
934	0.0006156
946	0.0004446
958	0.000361
970	0.000247
982	0.000266
994	0.00019
1006	0.000171
1018	0.000209
1030	0.0002204
1042	0.0002774
1054	0.0002546
1066	0.0003002
1078	0.0003496
1090	0.0004256
1102	0.0005168
1114	0.0004902
1126	0.0003496
1138	0.0002432
1150	0.0002698
1162	0.0002622
1174	0.0003306
1186	0.0003686
1198	0.0004104
1210	0.0005054
1222	0.0006232
1234	0.000779
1246	0.0008246
1258	0.0009462
1270	0.0010374
1282	0.0010678
1294	0.0009842
1306	0.0009234
1318	0.0008398
1330	0.0010222
1342	0.0011552
1354	0.0015086
1366	0.0019532
1378	0.0029108
1390	0.0021888
1402	0.0014554
1414	0.0014972
1426	0.0020102
1438	0.0030058
1450	0.0045866
1462	0.0048754
1474	0.0031806
1486	0.0016872
1498	0.000931
1510	0.0003724
1522	0.0003192
1534	0.0004256
1546	0.000361
1558	0.0002204
1570	0.0005016
1582	0.0006118
1594	0.000665
1606	0.0007904
1618	0.0010716
1630	0.0018468
1642	0.0029412
1654	0.002622
1666	0.0013566
1678	0.000551
1690	0.0003268
1702	9.5e-05
1714	0.0001064
1726	0.000209
1738	7.98e-05
1750	5.32e-05
1762	0.0002508
1774	0.0004256
1786	0.0005434
1798	0.0003952
1810	0.0002698
1822	0.0001748
1834	0.0001672
1846	8.74e-05
1858	0.0001672
1870	0.0001064
1882	0.0001596
1894	0.000152
1906	0.0001254
1918	0.0001064
1930	0.0001672
1942	8.74e-05
1954	0.000133
1966	0.0001216
1978	0.0001368
1990	9.5e-05
2002	0.000133
2014	0.0001406
2026	0.0001482
2038	0.000171
2050	0.000133
2062	0.0001216
2074	0.0001216
2086	0.000114
2098	0.0001178
2110	0.0001102
2122	0.0001102
2134	0.0001026
2146	0.0001178
2158	9.88e-05
2170	0.0001102
2182	0.0001102
2194	0.0001254
2206	9.5e-05
2218	8.36e-05
2230	7.6e-05
2242	0.0001026
2254	9.12e-05
2266	8.74e-05
2278	6.46e-05
2290	5.32e-05
2302	4.94e-05
2314	1.14e-05
2326	1.14e-05
2338	1.14e-05
2350	1.52e-05
2362	1.14e-05
2374	1.14e-05
2386	5.32e-05
2398	9.88e-05
2410	0.0001216
2422	0.0001026
2434	0.0001026
2446	0.0001064
2458	9.5e-05
2470	0.0001178
2482	0.000133
2494	9.5e-05
2506	0.0001216
2518	0.0001292
2530	0.0001406
2542	0.0001406
2554	0.0001824
2566	0.0001824
2578	0.0002014
2590	0.0002014
2602	0.0002204
2614	0.0002432
2626	0.000266
2638	0.0003344
2650	0.0003534
2662	0.0004104
2674	0.0004484
2686	0.0004332
2698	0.0004674
2710	0.0004826
2722	0.0005852
2734	0.0006764
2746	0.0007258
2758	0.000741
2770	0.0008018
2782	0.0009576
2794	0.0012388
2806	0.0016074
2818	0.0022116
2830	0.0033478
2842	0.0057342
2854	0.0103436
2866	0.0142994
2878	0.0146072
2890	0.0137104
2902	0.0150366
2914	0.0212724
2926	0.0325736
2938	0.038
2950	0.0287698
2962	0.0225644
2974	0.0199272
2986	0.0110352
2998	0.0060344
3010	0.0038228
3022	0.0027132
3034	0.002128
3046	0.0019418
3058	0.0023066
3070	0.0037962
3082	0.005016
3094	0.0027968
3106	0.001311
3118	0.000855
3130	0.0006764
3142	0.0005092
3154	0.0004522
3166	0.0004142
3178	0.0003192
3190	0.0003154
3202	0.0002546
3214	0.0002014
3226	0.0002166
3238	0.00019
3250	0.0001748
3262	0.0002014
3274	0.000171
3286	0.0001938
3298	0.0002052
3310	0.0001938
3322	0.0002014
3334	0.0002204
3346	0.0001824
3358	0.0002508
3370	0.0002166
3382	0.0002052
3394	0.0001976
3406	0.0002014
3418	0.0001596
3430	0.0002204
3442	0.0002204
3454	0.0001976
3466	0.0001938
3478	0.00019
3490	0.0002128
3502	0.0001672
3514	0.000228
3526	0.0001406
3538	0.0001976
3550	0.0001406
3562	0.0001558
3574	0.0001976
3586	7.6e-05
3598	0.0002242
3610	0.000152
3622	0.0002052
3634	0.0002546
3646	0.00019
3658	0.000285
3670	0.0001976
3682	0.0002964
3694	0.0002736
3706	0.0003154
3718	0.000266
3730	0.0002204
3742	0.0001406
3754	0.0001976
3766	0.000342
3778	0.0003686
3790	0.000361
3802	0.000323
3814	0.0002546
3826	0.0003534
3838	0.000266
