Infrared Spectrum: 17-(2,4-DINITROPHENYLHYDRAZONO)-5Beta-ANDROSTAN-3Alpha-OL
Formula: C25 H34 N4 O5
CAS: 4589-93-9
State: SOLID (KBr DISC)
Class: COBLENTZ III
Instrument: BECKMAN IR-7
Sampling: TRANSMISSION
Resolution: 4
Origin: THE WORCESTER FOUNDATION FOR EXPERIMENTAL BIOLOGY, Neal L. McNiven
1/CM	TRANSMITTANCE
603.629	0.722
612.338	0.804
621.047	0.709
629.757	0.698
638.466	0.827
647.175	0.869
655.884	0.858
664.593	0.791
673.302	0.837
682.012	0.811
690.721	0.824
699.43	0.824
708.139	0.6931
716.848	0.802
725.557	0.83
734.267	0.7249
742.976	0.717
751.685	0.782
760.394	0.735
769.103	0.842
777.812	0.847
786.522	0.849
795.231	0.842
803.94	0.836
812.649	0.821
821.358	0.754
830.067	0.381
838.777	0.787
847.486	0.814
856.195	0.785
864.904	0.809
873.613	0.796
882.323	0.8
891.032	0.756
899.741	0.751
908.45	0.55
917.159	0.654
925.868	0.719
934.578	0.781
943.287	0.743
951.996	0.777
960.705	0.748
969.414	0.707
978.123	0.743
986.833	0.7
995.542	0.693
1004.25	0.557
1012.96	0.563
1021.67	0.564
1030.38	0.418
1039.09	0.353
1047.8	0.578
1056.51	0.455
1065.22	0.3849
1073.92	0.504
1082.63	0.337
1091.34	0.434
1100.05	0.495
1108.76	0.45
1117.47	0.443
1126.18	0.377
1134.89	0.395
1143.6	0.6359
1152.31	0.713
1161.02	0.615
1169.73	0.694
1178.43	0.693
1187.14	0.663
1195.85	0.642
1204.56	0.532
1213.27	0.463
1221.98	0.408
1230.69	0.528
1239.4	0.492
1248.11	0.3909
1256.82	0.349
1265.53	0.324
1274.24	0.316
1282.94	0.273
1291.65	0.256
1300.36	0.24
1309.07	0.151
1317.78	0.302
1326.49	0.078
1335.2	0.083
1343.91	0.417
1352.62	0.41
1361.33	0.419
1370.04	0.557
1378.75	0.594
1387.45	0.618
1396.16	0.506
1404.87	0.326
1413.58	0.31
1422.29	0.335
1431	0.491
1439.71	0.439
1448.42	0.55
1457.13	0.522
1465.84	0.572
1474.55	0.61
1483.26	0.589
1491.96	0.42
1500.67	0.285
1509.38	0.125
1518.09	0.2591
1526.8	0.501
1535.51	0.605
1544.22	0.656
1552.93	0.646
1561.64	0.615
1570.35	0.494
1579.06	0.228
1587.77	0.117
1596.47	0.2439
1605.18	0.135
1613.89	0.086
1622.6	0.4
1631.31	0.474
1640.02	0.529
1648.73	0.662
1657.44	0.699
1666.15	0.725
1674.86	0.756
1683.57	0.776
1692.28	0.772
1700.98	0.77
1709.69	0.767
1718.4	0.75
1727.11	0.745
1735.82	0.753
1744.53	0.775
1753.24	0.785
1761.95	0.789
1770.66	0.79
1779.37	0.79
1788.08	0.79
1796.79	0.787
1805.49	0.774
1814.2	0.768
1822.91	0.784
1831.62	0.786
1840.33	0.786
1849.04	0.787
1857.75	0.784
1866.46	0.781
1875.17	0.778
1883.88	0.773
1892.59	0.774
1901.3	0.773
1910	0.77
1918.71	0.764
1927.42	0.759
1936.13	0.759
1944.84	0.759
1953.55	0.759
1962.26	0.759
1970.97	0.757
1979.68	0.757
1988.39	0.756
1997.1	0.754
2005.81	0.753
2014.51	0.753
2023.22	0.752
2031.93	0.751
2040.64	0.751
2049.35	0.75
2058.06	0.749
2066.77	0.749
2075.48	0.749
2084.19	0.748
2092.9	0.748
2101.61	0.747
2110.32	0.746
2119.03	0.745
2127.73	0.7432
2136.44	0.743
2145.15	0.742
2153.86	0.7402
2162.57	0.7392
2171.28	0.7355
2179.99	0.7332
2188.7	0.7255
2197.41	0.7203
2206.12	0.7183
2214.83	0.7149
2223.54	0.7076
2232.24	0.7043
2240.95	0.701
2249.66	0.7003
2258.37	0.6987
2267.08	0.698
2275.79	0.6974
2284.5	0.696
2293.21	0.696
2301.92	0.696
2310.63	0.6944
2319.34	0.6919
2328.05	0.6894
2336.75	0.6875
2345.46	0.685
2354.17	0.6825
2362.88	0.6795
2371.59	0.6775
2380.3	0.675
2389.01	0.6725
2397.72	0.6715
2406.43	0.6696
2415.14	0.667
2423.85	0.665
2432.56	0.664
2441.26	0.664
2449.97	0.665
2458.68	0.6654
2467.39	0.6654
2476.1	0.666
2484.81	0.6657
2493.52	0.664
2502.23	0.6627
2510.94	0.6577
2519.65	0.6557
2528.36	0.654
2537.07	0.6537
2545.77	0.653
2554.48	0.6533
2563.19	0.656
2571.9	0.6558
2580.61	0.6534
2589.32	0.6464
2598.03	0.6376
2606.74	0.6285
2615.45	0.6227
2624.16	0.617
2632.87	0.6137
2641.58	0.6099
2650.28	0.609
2658.99	0.609
2667.7	0.609
2676.41	0.6111
2685.12	0.613
2693.83	0.614
2702.54	0.6139
2711.25	0.612
2719.96	0.61
2728.67	0.607
2737.38	0.604
2746.09	0.602
2754.79	0.5911
2763.5	0.5781
2772.21	0.5701
2780.92	0.5661
2789.63	0.5572
2798.34	0.5474
2807.05	0.5289
2815.76	0.491
2824.47	0.4111
2833.18	0.3509
2841.89	0.3071
2850.6	0.295
2859.3	0.3167
2868.01	0.3629
2876.72	0.3304
2885.43	0.2951
2894.14	0.2559
2902.85	0.2297
2911.56	0.2
2920.27	0.2331
2928.98	0.2819
2937.69	0.3351
2946.4	0.3917
2955.11	0.4417
2963.81	0.4503
2972.52	0.5058
2981.23	0.5518
2989.94	0.5894
2998.65	0.6107
3007.36	0.6136
3016.07	0.6176
3024.78	0.619
3033.49	0.62
3042.2	0.62
3050.91	0.62
3059.62	0.6144
3068.32	0.611
3077.03	0.573
3085.74	0.5055
3094.45	0.5185
3103.16	0.5506
3111.87	0.5822
3120.58	0.6015
3129.29	0.602
3138	0.6015
3146.71	0.5995
3155.42	0.5994
3164.13	0.6
3172.83	0.599
3181.54	0.599
3190.25	0.599
3198.96	0.5976
3207.67	0.5952
3216.38	0.5926
3225.09	0.591
3233.8	0.5907
3242.51	0.589
3251.22	0.5867
3259.93	0.583
3268.64	0.583
3277.34	0.5817
3286.05	0.5691
3294.76	0.542
3303.47	0.4737
3312.18	0.3726
3320.89	0.4825
3329.6	0.5642
3338.31	0.5714
3347.02	0.578
3355.73	0.577
3364.44	0.5738
3373.15	0.5698
3381.86	0.568
3390.56	0.565
3399.27	0.563
3407.98	0.562
3416.69	0.5619
3425.4	0.56
3434.11	0.558
3442.82	0.557
3451.53	0.557
3460.24	0.555
3468.95	0.554
3477.66	0.552
3486.37	0.545
3495.07	0.538
3503.78	0.534
3512.49	0.533
3521.2	0.5004
3529.91	0.4442
3538.62	0.3802
3547.33	0.2897
3556.04	0.2673
3564.75	0.4254
3573.46	0.5231
3582.17	0.5608
3590.88	0.5793
3599.58	0.5905
3608.29	0.5948
3617	0.5978
3625.71	0.6016
3634.42	0.6094
3643.13	0.6104
3651.84	0.6057
3660.55	0.5957
3669.26	0.5902
3677.97	0.5917
3686.68	0.5955
3695.39	0.5987
3704.09	0.6007
3712.8	0.6
3721.51	0.5983
3730.22	0.591
3738.93	0.5877
3747.64	0.5843
3756.35	0.586
3765.06	0.588
3773.77	0.5916
3782.48	0.5942
3791.19	0.596
3799.9	0.5928
3808.6	0.583
3817.31	0.583
3826.02	0.5895
3834.73	0.5833
3843.44	0.5785
3852.15	0.5815
3860.86	0.587
3869.57	0.5895
3878.28	0.589
3886.99	0.588
3895.7	0.5855
3904.41	0.5826
3913.11	0.58
3921.82	0.579
3930.53	0.578
3939.24	0.578
3947.95	0.5784
3956.66	0.579
3965.37	0.578
3974.08	0.578
3982.79	0.573
3991.5	0.5707
4000.21	0.5687
4008.92	0.5697
