Infrared Spectrum: BENZALDEHYDE, 4-FLUORO-
Formula: C7 H5 F O
CAS: 459-57-4
State: SOLUTION (2% IN CCl4 FOR 3800-1330, 2% IN CS2 FOR 1330-400 CM^-^1)
Class: COBLENTZ III
Instrument: DOW KBr FOREPRISM-GRATING
Instrument parameters: BLAZED AT 3.5, 12.0, 20.0 MICRON, CHANGED AT 5.0, 7.5, 14.9 MICRON
Sampling: TRANSMISSION
Path length: 0.011, 0.010 CM
Resolution: 4
Origin: DOW CHEMICAL COMPANY
1/CM	TRANSMITTANCE
380.175	0.243
388.921	0.247
397.668	0.306
406.414	0.577
415.16	0.665
423.907	0.767
432.653	0.797
441.4	0.818
450.146	0.83
458.892	0.838
467.639	0.845
476.385	0.849
485.131	0.841
493.878	0.806
502.624	0.642
511.37	0.849
520.117	0.866
528.863	0.879
537.61	0.882
546.356	0.883
555.102	0.886
563.849	0.883
572.595	0.881
581.341	0.868
590.088	0.751
598.834	0.691
607.581	0.862
616.327	0.867
625.073	0.875
633.82	0.846
642.566	0.868
651.312	0.87
660.059	0.9
668.805	0.918
677.551	0.926
686.298	0.933
695.044	0.938
703.791	0.942
712.537	0.949
721.283	0.957
730.03	0.961
738.776	0.96
747.522	0.965
756.269	0.968
765.015	0.956
773.761	0.894
782.508	0.959
791.254	0.96
800.001	0.956
808.747	0.93
817.493	0.862
826.24	0.591
834.986	0.631
843.732	0.801
852.479	0.575
861.225	0.785
869.971	0.882
878.718	0.927
887.464	0.971
896.211	0.993
904.957	1.001
913.703	1.001
922.45	1
931.196	0.995
939.942	0.993
948.689	0.993
957.435	0.987
966.181	0.986
974.928	0.983
983.674	0.976
992.421	0.965
1001.17	0.942
1009.91	0.913
1018.66	0.953
1027.41	0.953
1036.15	0.945
1044.9	0.942
1053.65	0.939
1062.39	0.935
1071.14	0.93
1079.88	0.913
1088.63	0.811
1097.38	0.893
1106.12	0.894
1114.87	0.897
1123.62	0.897
1132.36	0.893
1141.11	0.75
1149.86	0.795
1158.6	0.898
1167.35	0.901
1176.09	0.882
1184.84	0.862
1193.59	0.74
1202.33	0.668
1211.08	0.762
1219.83	0.736
1228.57	0.222
1237.32	0.284
1246.07	0.751
1254.81	0.878
1263.56	0.896
1272.3	0.898
1281.05	0.889
1289.8	0.6781
1298.54	0.853
1307.29	0.885
1316.04	0.893
1324.78	0.913
1333.53	0.943
1342.28	0.941
1351.02	0.92
1359.77	0.918
1368.51	0.953
1377.26	0.926
1386.01	0.829
1394.75	0.928
1403.5	0.92
1412.25	0.896
1420.99	0.877
1429.74	0.904
1438.49	0.933
1447.23	0.945
1455.98	0.945
1464.72	0.946
1473.47	0.934
1482.22	0.903
1490.96	0.86
1499.71	0.6769
1508.46	0.4721
1517.2	0.685
1525.95	0.659
1534.7	0.571
1543.44	0.502
1552.19	0.493
1560.93	0.577
1569.68	0.637
1578.43	0.635
1587.17	0.551
1595.92	0.2559
1604.67	0.571
1613.41	0.793
1622.16	0.868
1630.91	0.898
1639.65	0.923
1648.4	0.915
1657.14	0.933
1665.89	0.904
1674.64	0.908
1683.38	0.83
1692.13	0.561
1700.88	0.25
1709.62	0.243
1718.37	0.4633
1727.12	0.857
1735.86	0.918
1744.61	0.933
1753.35	0.946
1762.1	0.952
1770.85	0.948
1779.59	0.939
1788.34	0.959
1797.09	0.956
1805.83	0.953
1814.58	0.956
1823.33	0.959
1832.07	0.957
1840.82	0.96
1849.56	0.961
1858.31	0.963
1867.06	0.963
1875.8	0.956
1884.55	0.963
1893.3	0.96
1902.04	0.937
1910.79	0.957
1919.54	0.964
1928.28	0.964
1937.03	0.968
1945.77	0.972
1954.52	0.971
1963.27	0.964
1972.01	0.957
1980.76	0.96
1989.51	0.954
1998.25	0.957
2007	0.961
2015.75	0.967
2024.49	0.968
2033.24	0.969
2041.98	0.9691
2050.73	0.968
2059.48	0.965
2068.22	0.971
2076.97	0.971
2085.72	0.969
2094.46	0.969
2103.21	0.974
2111.96	0.976
2120.7	0.976
2129.45	0.976
2138.19	0.9778
2146.94	0.9777
2155.69	0.976
2164.43	0.976
2173.18	0.9782
2181.93	0.978
2190.67	0.975
2199.42	0.9777
2208.17	0.978
2216.91	0.978
2225.66	0.976
2234.4	0.9724
2243.15	0.967
2251.9	0.969
2260.64	0.9654
2269.39	0.9602
2278.14	0.954
2286.88	0.953
2295.63	0.9555
2304.38	0.957
2313.12	0.9607
2321.87	0.963
2330.61	0.963
2339.36	0.9637
2348.11	0.967
2356.85	0.968
2365.6	0.972
2374.35	0.9726
2383.09	0.971
2391.84	0.9733
2400.59	0.9747
2409.33	0.9757
2418.08	0.978
2426.82	0.978
2435.57	0.978
2444.32	0.9754
2453.06	0.9698
2461.81	0.9702
2470.56	0.9732
2479.3	0.9786
2488.05	0.98
2496.8	0.9784
2505.54	0.976
2514.29	0.978
2523.03	0.978
2531.78	0.975
2540.53	0.976
2549.27	0.976
2558.02	0.978
2566.77	0.976
2575.51	0.975
2584.26	0.9745
2593.01	0.971
2601.75	0.968
2610.5	0.971
2619.24	0.974
2627.99	0.9745
2636.74	0.976
2645.48	0.976
2654.23	0.975
2662.98	0.969
2671.72	0.9676
2680.47	0.9646
2689.22	0.9557
2697.96	0.9315
2706.71	0.905
2715.45	0.8896
2724.2	0.8562
2732.95	0.8816
2741.69	0.9184
2750.44	0.9425
2759.19	0.9484
2767.93	0.9389
2776.68	0.9069
2785.43	0.888
2794.17	0.922
2802.92	0.9027
2811.66	0.8462
2820.41	0.8462
2829.16	0.9019
2837.9	0.9061
2846.65	0.9403
2855.4	0.9618
2864.14	0.969
2872.89	0.974
2881.64	0.976
2890.38	0.9753
2899.13	0.9765
2907.87	0.979
2916.62	0.9775
2925.37	0.975
2934.11	0.975
2942.86	0.978
2951.61	0.978
2960.35	0.978
2969.1	0.9764
2977.85	0.979
2986.59	0.979
2995.34	0.978
3004.08	0.976
3012.83	0.979
3021.58	0.9777
3030.32	0.976
3039.07	0.971
3047.82	0.974
3056.56	0.9722
3065.31	0.9708
3074.06	0.9671
3082.8	0.9741
3091.55	0.978
3100.29	0.98
3109.04	0.982
3117.79	0.984
3126.53	0.986
3135.28	0.986
3144.03	0.989
3152.77	0.989
3161.52	0.987
3170.27	0.989
3179.01	0.987
3187.76	0.986
3196.5	0.986
3205.25	0.989
3214	0.989
3222.74	0.989
3231.49	0.986
3240.24	0.989
3248.98	0.986
3257.73	0.986
3266.48	0.986
3275.22	0.986
3283.97	0.987
3292.71	0.986
3301.46	0.986
3310.21	0.984
3318.95	0.9858
3327.7	0.983
3336.45	0.983
3345.19	0.9839
3353.94	0.986
3362.69	0.983
3371.43	0.9803
3380.18	0.9725
3388.92	0.9642
3397.67	0.965
3406.42	0.976
3415.16	0.979
3423.91	0.982
3432.66	0.9828
3441.4	0.98
3450.15	0.9836
3458.9	0.984
3467.64	0.983
3476.39	0.983
3485.13	0.983
3493.88	0.984
3502.63	0.984
3511.37	0.983
3520.12	0.983
3528.87	0.983
3537.61	0.982
3546.36	0.983
3555.11	0.984
3563.85	0.9846
3572.6	0.9833
3581.34	0.9837
3590.09	0.9853
3598.84	0.986
3607.58	0.983
3616.33	0.986
3625.08	0.984
3633.82	0.984
3642.57	0.983
3651.32	0.9836
3660.06	0.986
3668.81	0.984
3677.55	0.983
3686.3	0.983
3695.05	0.986
3703.79	0.983
3712.54	0.982
3721.29	0.982
3730.03	0.9826
3738.78	0.98
3747.53	0.98
3756.27	0.98
3765.02	0.98
3773.76	0.98
3782.51	0.98
3791.26	0.98
