Infrared Spectrum: 4-Fluoroanisole
Formula: C 7 H 7 F O
CAS: 459-60-9
State: gas
Instrument: HP-GC/MS/IRD
Origin: NIST Mass Spectrometry Data Center
1/CM	ABSORBANCE
550	0.0006292
562	0.0004664
574	0.0003212
586	0.0001848
598	0.0002024
610	0.0002112
622	0.0001232
634	7.48e-05
646	0.0001144
658	0.0001232
670	0.0002068
682	0.0002288
694	0.0004796
706	0.0020108
718	0.0077396
730	0.0076648
742	0.0017776
754	0.0006512
766	0.0004224
778	0.0004532
790	0.0007216
802	0.0016016
814	0.0041008
826	0.008074
838	0.0073172
850	0.0040876
862	0.001518
874	0.000682
886	0.0004092
898	0.0002552
910	0.0002288
922	0.00022
934	0.000242
946	0.0001716
958	0.0002684
970	0.0005148
982	0.000682
994	0.0010384
1006	0.001694
1018	0.003102
1030	0.0055836
1042	0.006842
1054	0.0044924
1066	0.0020108
1078	0.0017468
1090	0.0021076
1102	0.00187
1114	0.0010208
1126	0.0007964
1138	0.0009768
1150	0.0014476
1162	0.0019316
1174	0.0037928
1186	0.0058784
1198	0.008932
1210	0.0169972
1222	0.0322784
1234	0.0275308
1246	0.0115192
1258	0.007832
1270	0.0035948
1282	0.003674
1294	0.0035728
1306	0.0022
1318	0.001166
1330	0.000616
1342	0.0004488
1354	0.0003916
1366	0.0003476
1378	0.0004004
1390	0.00044
1402	0.0005896
1414	0.0010604
1426	0.001628
1438	0.0026048
1450	0.003366
1462	0.0041272
1474	0.0041008
1486	0.0057552
1498	0.0277728
1510	0.0435732
1522	0.0179432
1534	0.003762
1546	0.00143
1558	0.000858
1570	0.000726
1582	0.0006688
1594	0.0007876
1606	0.0009592
1618	0.0007964
1630	0.0006776
1642	0.0005104
1654	0.00044
1666	0.0003784
1678	0.000286
1690	0.0002684
1702	0.0002244
1714	0.0003916
1726	0.0004136
1738	0.00033
1750	0.0002244
1762	0.000198
1774	0.0001672
1786	0.000132
1798	0.0001716
1810	0.0002596
1822	0.0003564
1834	0.0004708
1846	0.0005412
1858	0.0006028
1870	0.0005324
1882	0.0004004
1894	0.0002244
1906	0.0001848
1918	0.0001452
1930	0.000176
1942	0.0001892
1954	0.00033
1966	0.0004972
1978	0.0004884
1990	0.0003476
2002	0.0003168
2014	0.000352
2026	0.0003696
2038	0.0004048
2050	0.0004972
2062	0.0005236
2074	0.000462
2086	0.0003388
2098	0.0002288
2110	0.000132
2122	8.36e-05
2134	7.04e-05
2146	9.24e-05
2158	7.04e-05
2170	7.92e-05
2182	8.36e-05
2194	4.84e-05
2206	8.8e-05
2218	0.0001188
2230	0.0001892
2242	0.000154
2254	0.0001188
2266	0.0001276
2278	0.0001452
2290	0.0001452
2302	0.0001672
2314	0.000198
2326	0.0002728
2338	0.0003036
2350	0.0002596
2362	0.0001892
2374	0.0001672
2386	0.0001144
2398	7.04e-05
2410	0.0001144
2422	0.0001496
2434	0.000154
2446	0.0001716
2458	0.0002508
2470	0.000308
2482	0.0002816
2494	0.0002464
2506	0.000242
2518	0.0001628
2530	0.0001892
2542	0.0001628
2554	0.000176
2566	9.24e-05
2578	0.0001144
2590	9.68e-05
2602	0.0001188
2614	9.68e-05
2626	7.04e-05
2638	6.6e-05
2650	0.0001188
2662	0.0001012
2674	8.36e-05
2686	5.28e-05
2698	0.00011
2710	9.68e-05
2722	0.0001056
2734	0.00011
2746	0.0001584
2758	0.000154
2770	0.000154
2782	0.0003036
2794	0.0003256
2806	0.0004928
2818	0.000748
2830	0.0015708
2842	0.00264
2854	0.0022176
2866	0.00132
2878	0.001122
2890	0.0013464
2902	0.0018876
2914	0.0026224
2926	0.0028512
2938	0.0035948
2950	0.004048
2962	0.003476
2974	0.0023672
2986	0.0019448
2998	0.002772
3010	0.0032604
3022	0.0018524
3034	0.00099
3046	0.0011528
3058	0.0015532
3070	0.0014564
3082	0.0010032
3094	0.0007964
3106	0.000572
3118	0.0005676
3130	0.000506
3142	0.00033
3154	0.0002288
3166	0.0001584
3178	0.0001584
3190	0.0001496
3202	8.8e-05
3214	0.0001012
3226	0.0001056
3238	0.0001144
3250	8.8e-05
3262	0.0001056
3274	6.16e-05
3286	3.96e-05
3298	0.0001188
3310	0.0001012
3322	6.6e-05
3334	9.68e-05
3346	0.0001276
3358	0.000132
3370	9.68e-05
3382	0.0001144
3394	9.24e-05
3406	0.0001496
3418	0.0001804
3430	0.000198
3442	0.0001452
3454	0.000198
3466	0.0001496
3478	0.0001276
3490	0.0001408
3502	0.0002068
3514	0.00022
3526	0.0002112
3538	4.84e-05
3550	0.0001452
3562	0.0001628
3574	0.0001936
3586	0.000132
3598	0.0001232
3610	0.000154
3622	0.0001408
3634	0.0001716
3646	0.0002156
3658	0.0001144
3670	0.0002156
3682	0.000154
3694	0.0002376
3706	0.000176
3718	0.0002112
3730	0.0002068
3742	0.000242
3754	0.0002156
3766	0.0002156
3778	0.0002024
3790	0.0002992
3802	0.0002464
3814	0.0001848
3826	0.00022
3838	0.0002772
