Infrared Spectrum: 2,6-OCTADIENOIC ACID, 3,7-DIMETHYL-
Formula: C10 H16 O2
CAS: 459-80-3
State: SOLUTION (10% CCl4 FOR 3800-1330, 10% CS2 FOR 1330-460 CM^-^1)
Class: COBLENTZ III
Instrument: DOW KBr FOREPRISM-GRATING
Instrument parameters: BLAZED AT 3.5, 12.0, 20.0 MICRON AND CHANGED AT 5.0, 7.5, 14.9 MICRON
Sampling: TRANSMISSION
Path length: 0.010 CM, 0.010 CM
Resolution: 2
Origin: DOW CHEMICAL COMPANY
1/CM	TRANSMITTANCE
457	0.6547
466	0.6875
475	0.7256
484	0.7315
493	0.7311
502	0.7315
511	0.725
520	0.7149
529	0.7186
538	0.7392
547	0.7596
556	0.7771
565	0.7743
574	0.7642
583	0.7503
592	0.735
601	0.7901
610	0.8088
619	0.8167
628	0.8148
637	0.7975
646	0.7771
655	0.7688
664	0.7804
673	0.8001
682	0.7735
691	0.6711
700	0.5651
709	0.4868
718	0.6112
727	0.7391
736	0.7753
745	0.7778
754	0.7843
763	0.8018
772	0.8055
781	0.796
790	0.7684
799	0.7328
808	0.6882
817	0.5931
826	0.5707
835	0.6273
844	0.5499
853	0.3923
862	0.3391
871	0.3293
880	0.4417
889	0.4327
898	0.4273
907	0.4036
916	0.3586
925	0.3199
934	0.3245
943	0.3779
952	0.477
961	0.5429
970	0.6049
979	0.6
988	0.6541
997	0.7067
1006	0.7236
1015	0.7336
1024	0.7337
1033	0.7025
1042	0.716
1051	0.6653
1060	0.6651
1069	0.7425
1078	0.7493
1087	0.7305
1096	0.6712
1105	0.5282
1114	0.6583
1123	0.6719
1132	0.6226
1141	0.5664
1150	0.5036
1159	0.4005
1168	0.2846
1177	0.2806
1186	0.4696
1195	0.525
1204	0.4776
1213	0.433
1222	0.3548
1231	0.2895
1240	0.0979
1249	0.03
1258	0.0473
1267	0.2596
1276	0.3443
1285	0.2347
1294	0.2221
1303	0.3614
1312	0.4491
1321	0.4521
1330	0.556
1339	0.6032
1348	0.5072
1357	0.5543
1366	0.5526
1375	0.3194
1384	0.3623
1393	0.5339
1402	0.4375
1411	0.251
1420	0.181
1429	0.1929
1438	0.1579
1447	0.1835
1456	0.2665
1465	0.5014
1474	0.5897
1483	0.6387
1492	0.6464
1501	0.6305
1510	0.6042
1519	0.5724
1528	0.5439
1537	0.4891
1546	0.412
1555	0.4082
1564	0.4762
1573	0.5047
1582	0.5028
1591	0.5118
1600	0.5152
1609	0.4778
1618	0.3718
1627	0.2033
1636	0.0137
1645	0.0184
1654	0.0835
1663	0.1982
1672	0.1508
1681	0.01
1690	0.0001
1699	0.0054
1708	0.0919
1717	0.3026
1726	0.398
1735	0.4821
1744	0.614
1753	0.6604
1762	0.6756
1771	0.6821
1780	0.6821
1789	0.6986
1798	0.7069
1807	0.7161
1816	0.7269
1825	0.7393
1834	0.7464
1843	0.7503
1852	0.7535
1861	0.7558
1870	0.7578
1879	0.7599
1888	0.7617
1897	0.7634
1906	0.7631
1915	0.7642
1924	0.7681
1933	0.7717
1942	0.7735
1951	0.7787
1960	0.7775
1969	0.7839
1978	0.7868
1987	0.7887
1996	0.7908
2005	0.8344
2014	0.8373
2023	0.8386
2032	0.8403
2041	0.8416
2050	0.8432
2059	0.8451
2068	0.8461
2077	0.8493
2086	0.8494
2095	0.8483
2104	0.8462
2113	0.8433
2122	0.8407
2131	0.8381
2140	0.8364
2149	0.8342
2158	0.8321
2167	0.8299
2176	0.8294
2185	0.8292
2194	0.8289
2203	0.8278
2212	0.8245
2221	0.8216
2230	0.819
2239	0.8157
2248	0.8125
2257	0.8074
2266	0.8014
2275	0.7965
2284	0.7918
2293	0.7883
2302	0.7851
2311	0.7815
2320	0.7776
2329	0.7738
2338	0.7703
2347	0.7658
2356	0.7597
2365	0.7506
2374	0.7428
2383	0.7351
2392	0.7272
2401	0.7195
2410	0.7118
2419	0.7014
2428	0.6893
2437	0.6746
2446	0.6588
2455	0.6418
2464	0.6208
2473	0.5926
2482	0.572
2491	0.5616
2500	0.5537
2509	0.5403
2518	0.5278
2527	0.5147
2536	0.4947
2545	0.4714
2554	0.4414
2563	0.4094
2572	0.3899
2581	0.3884
2590	0.3982
2599	0.4114
2608	0.4201
2617	0.4207
2626	0.4151
2635	0.4029
2644	0.3899
2653	0.3779
2662	0.3707
2671	0.3709
2680	0.3721
2689	0.3748
2698	0.3834
2707	0.3914
2716	0.388
2725	0.378
2734	0.3712
2743	0.3716
2752	0.3698
2761	0.3658
2770	0.3664
2779	0.355
2788	0.3382
2797	0.3191
2806	0.3
2815	0.282
2824	0.2613
2833	0.2322
2842	0.1899
2851	0.1238
2860	0.1096
2869	0.1083
2878	0.1003
2887	0.0952
2896	0.09
2905	0.0669
2914	0.0513
2923	0.0492
2932	0.0512
2941	0.0654
2950	0.0785
2959	0.0703
2968	0.0505
2977	0.0633
2986	0.0926
2995	0.1225
3004	0.1394
3013	0.1465
3022	0.1505
3031	0.1539
3040	0.1579
3049	0.1659
3058	0.1784
3067	0.1884
3076	0.192
3085	0.1957
3094	0.2029
3103	0.2196
3112	0.2334
3121	0.25
3130	0.2659
3139	0.2822
3148	0.2987
3157	0.3149
3166	0.3325
3175	0.3503
3184	0.3686
3193	0.388
3202	0.4121
3211	0.4326
3220	0.4527
3229	0.473
3238	0.4916
3247	0.5087
3256	0.5267
3265	0.5436
3274	0.5615
3283	0.5806
3292	0.6
3301	0.615
3310	0.6314
3319	0.6475
3328	0.6618
3337	0.6758
3346	0.6924
3355	0.7093
3364	0.7221
3373	0.734
3382	0.7447
3391	0.754
3400	0.7621
3409	0.7705
3418	0.7785
3427	0.7858
3436	0.7921
3445	0.7968
3454	0.8026
3463	0.8084
3472	0.8132
3481	0.8181
3490	0.821
3499	0.8223
3508	0.8212
3517	0.8172
3526	0.8099
3535	0.808
3544	0.8349
3553	0.8428
3562	0.8473
3571	0.8408
3580	0.8525
3589	0.8538
3598	0.8575
3607	0.8632
3616	0.8675
3625	0.8705
3634	0.8712
3643	0.8701
3652	0.8682
3661	0.8666
3670	0.8663
3679	0.8675
3688	0.8703
3697	0.8737
3706	0.8766
3715	0.8794
3724	0.8818
3733	0.881
3742	0.877
3751	0.877
3760	0.8773
3769	0.8771
3778	0.877
3787	0.8768
3796	0.8771
