Infrared Spectrum: 3-(4-Fluorophenyl)propionic acid
Formula: C 9 H 9 F O 2
CAS: 459-31-4
State: gas
Origin: EPA-IR VAPOR PHASE LIBRARY
1/CM	ABSORBANCE
549.8	0.021738
559.445	0.022278
569.09	0.019088
578.734	0.016848
588.379	0.016258
598.024	0.015328
607.669	0.016068
617.313	0.015638
626.958	0.014488
636.603	0.011468
646.248	0.008898
655.893	0.006738
665.537	0.005948
675.182	0.005388
684.827	0.004978
694.472	0.004758
704.116	0.005568
713.761	0.006048
723.406	0.008858
733.051	0.007638
742.695	0.004438
752.34	0.004118
761.985	0.006128
771.63	0.006158
781.275	0.003938
790.919	0.004068
800.564	0.006188
810.209	0.011468
819.854	0.021298
829.498	0.029658
839.143	0.023758
848.788	0.011748
858.433	0.004768
868.078	0.003038
877.722	0.002818
887.367	0.002648
897.012	0.002728
906.657	0.002748
916.301	0.002878
925.946	0.003078
935.591	0.003398
945.236	0.003998
954.88	0.004278
964.525	0.003828
974.17	0.003458
983.815	0.003748
993.46	0.003958
1003.1	0.005038
1012.75	0.008168
1022.39	0.009058
1032.04	0.007028
1041.68	0.006438
1051.33	0.005958
1060.97	0.007458
1070.62	0.011148
1080.26	0.019148
1089.91	0.029448
1099.55	0.038038
1109.2	0.055678
1118.84	0.078738
1128.49	0.067148
1138.13	0.041158
1147.78	0.030988
1157.42	0.033828
1167.07	0.023438
1176.71	0.018588
1186.36	0.018918
1196	0.018788
1205.64	0.019498
1215.29	0.024408
1224.93	0.041488
1234.58	0.084068
1244.22	0.056868
1253.87	0.018968
1263.51	0.012598
1273.16	0.010338
1282.8	0.009418
1292.45	0.008698
1302.09	0.008128
1311.74	0.007538
1321.38	0.007338
1331.03	0.007518
1340.67	0.008218
1350.32	0.009358
1359.96	0.011658
1369.61	0.014688
1379.25	0.016818
1388.9	0.014558
1398.54	0.010378
1408.18	0.008178
1417.83	0.007778
1427.47	0.008218
1437.12	0.007848
1446.76	0.007628
1456.41	0.007588
1466.05	0.005328
1475.7	0.004268
1485.34	0.005168
1494.99	0.012308
1504.63	0.053098
1514.28	0.085188
1523.92	0.027238
1533.57	0.007618
1543.21	0.003698
1552.86	0.002618
1562.5	0.002398
1572.15	0.002938
1581.79	0.004558
1591.44	0.008158
1601.08	0.012278
1610.73	0.012758
1620.37	0.007548
1630.01	0.004578
1639.66	0.003268
1649.3	0.002398
1658.95	0.001778
1668.59	0.001698
1678.24	0.001698
1687.88	0.002028
1697.53	0.002718
1707.17	0.003898
1716.82	0.006048
1726.46	0.009818
1736.11	0.016388
1745.75	0.026148
1755.4	0.040338
1765.04	0.065688
1774.69	0.096228
1784.33	0.087738
1793.98	0.054148
1803.62	0.031298
1813.27	0.018198
1822.91	0.009818
1832.55	0.005578
1842.2	0.003718
1851.84	0.002968
1861.49	0.002898
1871.13	0.003238
1880.78	0.003138
1890.42	0.002408
1900.07	0.001758
1909.71	0.001518
1919.36	0.001358
1929	0.0011596
1938.65	0.0010486
1948.29	0.0009571
1957.94	0.0010366
1967.58	0.0009784
1977.23	0.0009409
1986.87	0.0009067
1996.52	0.0010222
2006.16	0.0008939
2015.81	0.0008249
2025.45	0.0007847
2035.1	0.0007218
2044.74	0.0007696
2054.38	0.0008254
2064.03	0.0008863
2073.67	0.0008621
2083.32	0.0008602
2092.96	0.0006614
2102.61	0.0006446
2112.25	0.0005453
2121.9	0.0005096
2131.54	0.0005057
2141.19	0.0006165
2150.83	0.0006288
2160.48	0.0005565
2170.12	0.0005597
2179.77	0.0005432
2189.41	0.0005863
2199.06	0.0006732
2208.7	0.0006736
2218.35	0.0007311
2227.99	0.0007779
2237.64	0.0008362
2247.28	0.0008454
2256.92	0.0007886
2266.57	0.0007139
2276.21	0.0007396
2285.86	0.0006333
2295.5	0.0006294
2305.15	0.0007235
2314.79	0.0007274
2324.44	0.0006819
2334.08	0.0008182
2343.73	0.0008358
2353.37	0.0008423
2363.02	0.0007616
2372.66	0.0007209
2382.31	0.0007548
2391.95	0.0009002
2401.6	0.0007824
2411.24	0.0007157
2420.89	0.0006799
2430.53	0.0007452
2440.18	0.0008778
2449.82	0.0009156
2459.47	0.0011098
2469.11	0.001057
2478.75	0.0008418
2488.4	0.0005553
2498.04	0.0005404
2507.69	0.0005255
2517.33	0.0004712
2526.98	0.0005195
2536.62	0.0004704
2546.27	0.0004892
2555.91	0.0005491
2565.56	0.0005164
2575.2	0.0006933
2584.85	0.0005491
2594.49	0.0003998
2604.14	0.0004936
2613.78	0.0004161
2623.43	0.0003547
2633.07	0.0003579
2642.72	0.0004496
2652.36	0.0004335
2662.01	0.0004251
2671.65	0.000559
2681.29	0.0003787
2690.94	0.0004684
2700.58	0.0004306
2710.23	0.0003538
2719.87	0.0004549
2729.52	0.0004851
2739.16	0.0005255
2748.81	0.0004747
2758.45	0.0004789
2768.1	0.0004288
2777.74	0.0005653
2787.39	0.0006263
2797.03	0.000581
2806.68	0.0004535
2816.32	0.0005316
2825.97	0.0006713
2835.61	0.000959
2845.26	0.001268
2854.9	0.001638
2864.55	0.002498
2874.19	0.003078
2883.84	0.003158
2893.48	0.002818
2903.12	0.002808
2912.77	0.003598
2922.41	0.005858
2932.06	0.009038
2941.7	0.010358
2951.35	0.008788
2960.99	0.007308
2970.64	0.006488
2980.28	0.005188
2989.93	0.004518
2999.57	0.004088
3009.22	0.003778
3018.86	0.003238
3028.51	0.004028
3038.15	0.006778
3047.8	0.007548
3057.44	0.004478
3067.09	0.003288
3076.73	0.003508
3086.38	0.002618
3096.02	0.001668
3105.67	0.001488
3115.31	0.001378
3124.95	0.001408
3134.6	0.0010393
3144.24	0.0007168
3153.89	0.0004558
3163.53	0.0004538
3173.18	0.0003977
3182.82	0.0004711
3192.47	0.0004896
3202.11	0.0003426
3211.76	0.0002046
3221.4	0.0001639
3231.05	0.0001601
3240.69	0.000353
3250.34	0.000238928
3259.98	0.0004282
3269.63	0.000152
3279.27	0.00028239
3288.92	0.0001497
3298.56	0.00029859
3308.21	0.00025778
3317.85	0.00029765
3327.49	9.3e-05
3337.14	0.0003417
3346.78	0.000136
3356.43	0.00026604
3366.07	0.0003606
3375.72	0.00028545
3385.36	0.00023446
3395.01	0.00027056
3404.65	0.00030033
3414.3	0.0005435
3423.94	0.0003667
3433.59	0.00029401
3443.23	0.0004206
3452.88	0.0003749
3462.52	0.00033034
3472.17	0.0004014
3481.81	0.0005716
3491.46	0.0006582
3501.1	0.0007876
3510.75	0.0011738
3520.39	0.001588
3530.04	0.001698
3539.68	0.002448
3549.32	0.003928
3558.97	0.009018
3568.61	0.034068
3578.26	0.040868
3587.9	0.010228
3597.55	0.003528
3607.19	0.002038
3616.84	0.001338
3626.48	0.0011826
3636.13	0.0009405
3645.77	0.0004066
3655.42	0.0005792
3665.06	0.0005186
3674.71	0.00030957
3684.35	0.0004706
3694	0.0005342
3703.64	0.000468
3713.29	0.000368
3722.93	0.0002058
3732.58	0.0004953
3742.22	0.0005587
3751.86	0.0004312
3761.51	0.00026522
3771.15	0.0004164
3780.8	0.0004365
3790.44	0.00025654
3800.09	0.0003405
3809.73	0.0001683
3819.38	0.0003767
3829.02	0.0004449
3838.67	0.0003899
3848.31	0.0003427
3857.96	0.0003938
3867.6	0.000466
3877.25	0.0003742
3886.89	0.0003663
3896.54	0.000285
3906.18	0.000237587
3915.83	0.0003707
3925.47	0.00026907
3935.12	0.00025832
3944.76	0.0002083
3954.41	0.000407
3964.05	0.000424
3973.69	0.0002279
3983.34	0.0003595
3992.98	0.000237685
