Infrared Spectrum: p-Fluorocinnamic acid
Formula: C 9 H 7 F O 2
CAS: 459-32-5
State: gas
Origin: EPA-IR VAPOR PHASE LIBRARY
1/CM	ABSORBANCE
549.8	0.009758
559.445	0.010498
569.09	0.009518
578.734	0.007778
588.379	0.004608
598.024	0.002408
607.669	0.002188
617.313	0.003378
626.958	0.004478
636.603	0.005268
646.248	0.004148
655.893	0.0011721
665.537	0.0010071
675.182	0.0009317
684.827	0.0012286
694.472	0.001468
704.116	0.001358
713.761	0.001338
723.406	0.0009658
733.051	0.0009956
742.695	0.0010933
752.34	0.0011169
761.985	0.001448
771.63	0.002018
781.275	0.003438
790.919	0.002528
800.564	0.002018
810.209	0.003998
819.854	0.008728
829.498	0.013688
839.143	0.009998
848.788	0.006058
858.433	0.004318
868.078	0.002408
877.722	0.001868
887.367	0.002158
897.012	0.002668
906.657	0.002348
916.301	0.001878
925.946	0.001858
935.591	0.002768
945.236	0.003558
954.88	0.002528
964.525	0.003958
974.17	0.006008
983.815	0.006238
993.46	0.003818
1003.1	0.001988
1012.75	0.002238
1022.39	0.001608
1032.04	0.0008892
1041.68	0.001398
1051.33	0.001458
1060.97	0.001808
1070.62	0.002828
1080.26	0.004548
1089.91	0.008518
1099.55	0.015088
1109.2	0.033918
1118.84	0.053878
1128.49	0.026618
1138.13	0.017988
1147.78	0.023918
1157.42	0.032808
1167.07	0.013868
1176.71	0.005958
1186.36	0.005148
1196	0.005108
1205.64	0.004348
1215.29	0.005518
1224.93	0.009018
1234.58	0.029218
1244.22	0.039158
1253.87	0.009408
1263.51	0.005848
1273.16	0.005598
1282.8	0.005868
1292.45	0.005948
1302.09	0.006008
1311.74	0.005718
1321.38	0.004518
1331.03	0.004078
1340.67	0.005738
1350.32	0.010908
1359.96	0.013648
1369.61	0.008068
1379.25	0.003248
1388.9	0.002208
1398.54	0.002368
1408.18	0.004158
1417.83	0.004758
1427.47	0.002588
1437.12	0.001998
1446.76	0.001668
1456.41	0.001298
1466.05	0.001249
1475.7	0.001288
1485.34	0.001978
1494.99	0.005188
1504.63	0.022358
1514.28	0.029508
1523.92	0.008158
1533.57	0.002558
1543.21	0.001668
1552.86	0.001408
1562.5	0.001448
1572.15	0.001988
1581.79	0.003918
1591.44	0.009728
1601.08	0.014508
1610.73	0.009438
1620.37	0.006718
1630.01	0.009218
1639.66	0.013768
1649.3	0.014328
1658.95	0.004478
1668.59	0.002528
1678.24	0.002228
1687.88	0.002138
1697.53	0.002388
1707.17	0.003598
1716.82	0.005478
1726.46	0.008628
1736.11	0.017038
1745.75	0.039288
1755.4	0.057288
1765.04	0.040858
1774.69	0.017478
1784.33	0.009498
1793.98	0.007278
1803.62	0.004828
1813.27	0.002608
1822.91	0.001678
1832.55	0.001398
1842.2	0.0012367
1851.84	0.0011206
1861.49	0.0010516
1871.13	0.0011683
1880.78	0.001588
1890.42	0.001528
1900.07	0.0010342
1909.71	0.0007137
1919.36	0.0006997
1929	0.0006424
1938.65	0.0007879
1948.29	0.0007714
1957.94	0.00076
1967.58	0.0006983
1977.23	0.0006024
1986.87	0.0005129
1996.52	0.0005244
2006.16	0.0005948
2015.81	0.0007249
2025.45	0.0007174
2035.1	0.0006127
2044.74	0.0006875
2054.38	0.0007582
2064.03	0.0006872
2073.67	0.0005497
2083.32	0.0005787
2092.96	0.000598
2102.61	0.0005413
2112.25	0.0004916
2121.9	0.00035328
2131.54	0.00036025
2141.19	0.0004041
2150.83	0.0003894
2160.48	0.0004494
2170.12	0.0003763
2179.77	0.0003941
2189.41	0.0004576
2199.06	0.0004777
2208.7	0.0004869
2218.35	0.0004715
2227.99	0.000484
2237.64	0.0005741
2247.28	0.0005048
2256.92	0.0004819
2266.57	0.0004339
2276.21	0.0004395
2285.86	0.0004939
2295.5	0.0005695
2305.15	0.0004694
2314.79	0.0004477
2324.44	0.0003503
2334.08	0.00034701
2343.73	0.00032123
2353.37	0.00036724
2363.02	0.0003964
2372.66	0.0004393
2382.31	0.000441
2391.95	0.0004627
2401.6	0.0005598
2411.24	0.0004622
2420.89	0.0004118
2430.53	0.0004631
2440.18	0.0005399
2449.82	0.0005391
2459.47	0.0006376
2469.11	0.000787
2478.75	0.0007166
2488.4	0.0005617
2498.04	0.000423
2507.69	0.0004937
2517.33	0.0004078
2526.98	0.0004411
2536.62	0.0004706
2546.27	0.0004995
2555.91	0.0004782
2565.56	0.0005545
2575.2	0.0006752
2584.85	0.0005299
2594.49	0.0004656
2604.14	0.0004012
2613.78	0.00034222
2623.43	0.00037456
2633.07	0.000467
2642.72	0.00035005
2652.36	0.0004118
2662.01	0.00037625
2671.65	0.00032326
2681.29	0.00036869
2690.94	0.0003864
2700.58	0.0004289
2710.23	0.00037002
2719.87	0.0004346
2729.52	0.00037618
2739.16	0.00037098
2748.81	0.0004293
2758.45	0.00038366
2768.1	0.0004755
2777.74	0.0004568
2787.39	0.0004387
2797.03	0.00038147
2806.68	0.00035602
2816.32	0.00033274
2825.97	0.00033874
2835.61	0.0004146
2845.26	0.0004738
2854.9	0.0004774
2864.55	0.0004437
2874.19	0.0004294
2883.84	0.0004405
2893.48	0.00031345
2903.12	0.000487
2912.77	0.000451
2922.41	0.000399
2932.06	0.0004914
2941.7	0.0004939
2951.35	0.0005532
2960.99	0.000432
2970.64	0.0004118
2980.28	0.0004791
2989.93	0.0006285
2999.57	0.0007096
3009.22	0.0007892
3018.86	0.0007225
3028.51	0.0007576
3038.15	0.001408
3047.8	0.002198
3057.44	0.002168
3067.09	0.001588
3076.73	0.001668
3086.38	0.001338
3096.02	0.0009278
3105.67	0.0008223
3115.31	0.000771
3124.95	0.000735
3134.6	0.0005214
3144.24	0.0004214
3153.89	0.00032433
3163.53	0.00036196
3173.18	0.0005039
3182.82	0.00038207
3192.47	0.00030772
3202.11	0.00037413
3211.76	0.0002731
3221.4	0.0004432
3231.05	0.0003989
3240.69	0.0003964
3250.34	0.000213
3259.98	0.00030648
3269.63	0.0002253
3279.27	0.0002703
3288.92	0.00033151
3298.56	0.00029729
3308.21	0.00031679
3317.85	0.0002502
3327.49	0.00028462
3337.14	0.000536
3346.78	0.000259
3356.43	0.00032055
3366.07	0.00037195
3375.72	0.00025
3385.36	0.00034502
3395.01	0.000414
3404.65	0.00039
3414.3	0.00030006
3423.94	0.00033776
3433.59	0.0002616
3443.23	0.0003058
3452.88	0.0004147
3462.52	0.0003927
3472.17	0.0005586
3481.81	0.0007
3491.46	0.0007134
3501.1	0.0006739
3510.75	0.0006654
3520.39	0.0006705
3530.04	0.0005254
3539.68	0.0005419
3549.32	0.0005321
3558.97	0.0008068
3568.61	0.003458
3578.26	0.019828
3587.9	0.019848
3597.55	0.003178
3607.19	0.0008413
3616.84	0.0005345
3626.48	0.0005706
3636.13	0.00031444
3645.77	0.0004934
3655.42	0.0004357
3665.06	0.00037428
3674.71	0.00037447
3684.35	0.00037499
3694	0.0004525
3703.64	0.00038291
3713.29	0.0004655
3722.93	0.00036227
3732.58	0.0002189
3742.22	0.00031252
3751.86	4.9e-05
3761.51	0.00030657
3771.15	0.00036017
3780.8	0.0002729
3790.44	0.00037382
3800.09	0.0002466
3809.73	0.00034374
3819.38	0.00029635
3829.02	0.00031902
3838.67	0.00035261
3848.31	0.00035997
3857.96	0.0004416
3867.6	8.5e-05
3877.25	0.0003904
3886.89	0.0002649
3896.54	0.00028576
3906.18	0.00037671
3915.83	0.0002528
3925.47	0.0002197
3935.12	0.0002625
3944.76	0.00028236
3954.41	0.0002729
3964.05	0.000292084
3973.69	0.0002395
3983.34	0.00029925
3992.98	0.0002428
