Infrared Spectrum: p-FLUOROPHENETOLE
Formula: C8 H9 F O
CAS: 459-26-7
State: SOLUTION (10% IN CCl4 FOR 5000-1350 CM^-^1, 10% IN CS2 FOR 1350-625 CM^-^1)
Class: COBLENTZ
Instrument: Not specified, most likely a prism, grating, or hybrid spectrometer.
Sampling: TRANSMISSION
Path length: 0.01 CM, 0.01 CM
Resolution: 4
Origin: DOW CHEMICAL COMPANY
MICROMETERS	TRANSMITTANCE
2.086	0.91
2.12518	0.909
2.16435	0.914
2.20353	0.914
2.24271	0.902
2.28188	0.894
2.32106	0.901
2.36023	0.912
2.39941	0.907
2.43859	0.894
2.47776	0.912
2.51694	0.912
2.55612	0.914
2.59529	0.915
2.63447	0.91
2.67365	0.918
2.71282	0.912
2.752	0.915
2.79117	0.912
2.83035	0.914
2.86953	0.914
2.9087	0.914
2.94788	0.915
2.98706	0.912
3.02623	0.909
3.06541	0.902
3.10459	0.893
3.14376	0.891
3.18294	0.876
3.22211	0.855
3.26129	0.805
3.30047	0.768
3.33964	0.617
3.37882	0.529
3.418	0.513
3.45717	0.505
3.49635	0.695
3.53553	0.833
3.5747	0.868
3.61388	0.871
3.65305	0.873
3.69223	0.899
3.73141	0.907
3.77058	0.909
3.80976	0.909
3.84894	0.907
3.88811	0.905
3.92729	0.897
3.96647	0.897
4.00564	0.901
4.04482	0.884
4.08399	0.889
4.12317	0.91
4.16235	0.92
4.20152	0.914
4.2407	0.893
4.27988	0.881
4.31905	0.894
4.35823	0.902
4.39741	0.909
4.43658	0.912
4.47576	0.925
4.51493	0.93
4.55411	0.933
4.59329	0.935
4.63246	0.923
4.67164	0.928
4.71082	0.931
4.74999	0.931
4.78917	0.928
4.82835	0.917
4.86752	0.896
4.9067	0.871
4.94588	0.899
4.98505	0.907
5.02423	0.862
5.0634	0.884
5.10258	0.894
5.14176	0.901
5.18093	0.912
5.22011	0.922
5.25929	0.905
5.29846	0.889
5.33764	0.87
5.37682	0.841
5.41599	0.836
5.45517	0.876
5.49434	0.896
5.53352	0.914
5.5727	0.92
5.61187	0.918
5.65105	0.912
5.69023	0.905
5.7294	0.904
5.76858	0.886
5.80776	0.881
5.84693	0.901
5.88611	0.904
5.92528	0.902
5.96446	0.893
6.00364	0.88
6.04281	0.878
6.08199	0.867
6.12117	0.826
6.16034	0.769
6.19952	0.727
6.2387	0.628
6.27787	0.612
6.31705	0.575
6.35622	0.546
6.3954	0.505
6.43458	0.431
6.47375	0.403
6.51293	0.393
6.55211	0.343
6.59128	0.239
6.63046	0.105
6.66964	0.15
6.70881	0.4
6.74799	0.26
6.78716	0.423
6.82634	0.658
6.86552	0.638
6.90469	0.588
6.94387	0.648
6.98305	0.711
7.02222	0.696
7.0614	0.713
7.10058	0.692
7.13975	0.495
7.17893	0.35
7.2181	0.658
7.25728	0.769
7.29646	0.815
7.33563	0.849
7.37481	0.876
7.41399	0.87
7.45316	0.867
7.49234	0.858
7.53152	0.818
7.57069	0.734
7.60987	0.612
7.64904	0.56
7.68822	0.518
7.7274	0.46
7.76657	0.52
7.80575	0.607
7.84493	0.672
7.8841	0.666
7.92328	0.526
7.96246	0.27
8.00163	0.094
8.04081	0.149
8.07998	0.316
8.11916	0.28
8.15834	0.069
8.19751	0.019
8.23669	0.024
8.27587	0.027
8.31504	0.058
8.35422	0.176
8.3934	0.405
8.43257	0.62
8.47175	0.698
8.51092	0.721
8.5501	0.719
8.58928	0.69
8.62845	0.662
8.66763	0.632
8.70681	0.654
8.74598	0.735
8.78516	0.764
8.82434	0.764
8.86351	0.734
8.90269	0.636
8.94186	0.41
8.98104	0.222
9.02022	0.431
9.05939	0.565
9.09857	0.536
9.13775	0.364
9.17692	0.324
9.2161	0.486
9.25528	0.619
9.29445	0.661
9.33363	0.661
9.3728	0.64
9.41198	0.598
9.45116	0.47
9.49033	0.254
9.52951	0.1
9.56869	0.132
9.60786	0.286
9.64704	0.44
9.68622	0.56
9.72539	0.643
9.76457	0.703
9.80374	0.764
9.84292	0.781
9.8821	0.752
9.92127	0.69
9.96045	0.802
9.99963	0.862
10.0388	0.88
10.078	0.886
10.1172	0.894
10.1563	0.897
10.1955	0.901
10.2347	0.904
10.2739	0.905
10.313	0.905
10.3522	0.905
10.3914	0.902
10.4306	0.899
10.4697	0.896
10.5089	0.889
10.5481	0.881
10.5873	0.87
10.6264	0.852
10.6656	0.821
10.7048	0.782
10.744	0.705
10.7832	0.578
10.8223	0.431
10.8615	0.484
10.9007	0.609
10.9399	0.659
10.979	0.693
11.0182	0.732
11.0574	0.747
11.0966	0.742
11.1357	0.748
11.1749	0.764
11.2141	0.769
11.2533	0.761
11.2924	0.753
11.3316	0.748
11.3708	0.739
11.41	0.724
11.4492	0.703
11.4883	0.683
11.5275	0.667
11.5667	0.651
11.6059	0.633
11.645	0.614
11.6842	0.578
11.7234	0.539
11.7626	0.5
11.8017	0.486
11.8409	0.494
11.8801	0.468
11.9193	0.398
11.9584	0.267
11.9976	0.152
12.0368	0.071
12.076	0.047
12.1152	0.03
12.1543	0.016
12.1935	0.016
12.2327	0.094
12.2719	0.28
12.311	0.452
12.3502	0.555
12.3894	0.617
12.4286	0.651
12.4677	0.667
12.5069	0.666
12.5461	0.649
12.5853	0.622
12.6244	0.568
12.6636	0.567
12.7028	0.623
12.742	0.679
12.7811	0.713
12.8203	0.745
12.8595	0.756
12.8987	0.764
12.9379	0.768
12.977	0.769
13.0162	0.766
13.0554	0.76
13.0946	0.75
13.1337	0.73
13.1729	0.696
13.2121	0.649
13.2513	0.581
13.2904	0.474
13.3296	0.316
13.3688	0.144
13.408	0.05
13.4471	0.103
13.4863	0.275
13.5255	0.452
13.5647	0.564
13.6039	0.62
13.643	0.651
13.6822	0.667
13.7214	0.672
13.7606	0.669
13.7997	0.654
13.8389	0.63
13.8781	0.591
13.9173	0.546
13.9564	0.507
13.9956	0.491
14.0348	0.505
14.074	0.546
14.1131	0.581
14.1523	0.612
14.1915	0.632
14.2307	0.645
14.2699	0.646
14.309	0.649
14.3482	0.654
14.3874	0.661
14.4266	0.666
14.4657	0.667
14.5049	0.666
14.5441	0.661
14.5833	0.659
14.6224	0.653
14.6616	0.648
14.7008	0.64
14.74	0.633
14.7791	0.625
14.8183	0.619
14.8575	0.609
14.8967	0.599
14.9358	0.589
14.975	0.586
15.0142	0.583
15.0534	0.572
15.0926	0.557
15.1317	0.549
15.1709	0.539
15.2101	0.525
15.2493	0.513
15.2884	0.505
15.3276	0.499
15.3668	0.491
15.406	0.482
15.4451	0.476
15.4843	0.47
15.5235	0.463
15.5627	0.457
15.6018	0.45
15.641	0.442
15.6802	0.435
15.7194	0.427
15.7586	0.419
15.7977	0.413
15.8369	0.408
15.8761	0.403
