Infrared Spectrum: 4-Fluorophenylacetone
Formula: C 9 H 9 F O
CAS: 459-03-0
State: gas
Origin: EPA-IR VAPOR PHASE LIBRARY
1/CM	ABSORBANCE
549.8	0.003906
559.445	0.003636
569.09	0.003906
578.734	0.006526
588.379	0.008116
598.024	0.007666
607.669	0.004496
617.313	0.002186
626.958	0.002246
636.603	0.0011109
646.248	0.0010922
655.893	0.0009044
665.537	0.0005892
675.182	0.0006379
684.827	0.0008739
694.472	0.001986
704.116	0.001636
713.761	0.001676
723.406	0.001726
733.051	0.001706
742.695	0.005096
752.34	0.008966
761.985	0.010476
771.63	0.011876
781.275	0.014106
790.919	0.013576
800.564	0.011756
810.209	0.012506
819.854	0.019576
829.498	0.029126
839.143	0.032856
848.788	0.026806
858.433	0.013736
868.078	0.006626
877.722	0.004706
887.367	0.003786
897.012	0.003636
906.657	0.002526
916.301	0.002136
925.946	0.002406
935.591	0.002856
945.236	0.002486
954.88	0.001636
964.525	0.003166
974.17	0.004286
983.815	0.004326
993.46	0.003926
1003.1	0.004966
1012.75	0.007946
1022.39	0.007696
1032.04	0.003696
1041.68	0.003436
1051.33	0.002756
1060.97	0.002416
1070.62	0.003306
1080.26	0.003866
1089.91	0.006766
1099.55	0.009476
1109.2	0.008546
1118.84	0.008596
1128.49	0.011086
1138.13	0.020806
1147.78	0.038216
1157.42	0.050976
1167.07	0.030146
1176.71	0.013466
1186.36	0.014456
1196	0.015646
1205.64	0.026326
1215.29	0.045096
1224.93	0.077586
1234.58	0.132616
1244.22	0.100906
1253.87	0.022946
1263.51	0.012826
1273.16	0.011246
1282.8	0.012356
1292.45	0.012096
1302.09	0.011336
1311.74	0.011576
1321.38	0.011726
1331.03	0.011546
1340.67	0.014246
1350.32	0.023556
1359.96	0.031906
1369.61	0.024126
1379.25	0.013356
1388.9	0.009036
1398.54	0.008606
1408.18	0.009846
1417.83	0.012216
1427.47	0.013546
1437.12	0.013476
1446.76	0.009876
1456.41	0.007186
1466.05	0.006206
1475.7	0.006386
1485.34	0.009876
1494.99	0.031196
1504.63	0.111006
1514.28	0.128566
1523.92	0.046146
1533.57	0.014296
1543.21	0.008076
1552.86	0.006166
1562.5	0.006116
1572.15	0.006256
1581.79	0.006986
1591.44	0.012056
1601.08	0.021066
1610.73	0.022926
1620.37	0.012156
1630.01	0.006536
1639.66	0.005286
1649.3	0.005416
1658.95	0.005406
1668.59	0.006026
1678.24	0.007936
1687.88	0.012006
1697.53	0.018356
1707.17	0.030486
1716.82	0.054946
1726.46	0.083666
1736.11	0.079736
1745.75	0.053716
1755.4	0.035606
1765.04	0.021466
1774.69	0.011716
1784.33	0.006626
1793.98	0.004436
1803.62	0.003116
1813.27	0.002466
1822.91	0.002056
1832.55	0.001836
1842.2	0.001976
1851.84	0.002116
1861.49	0.002846
1871.13	0.003646
1880.78	0.003956
1890.42	0.003326
1900.07	0.002216
1909.71	0.001576
1919.36	0.001366
1929	0.001346
1938.65	0.001406
1948.29	0.001406
1957.94	0.001296
1967.58	0.0011027
1977.23	0.0012936
1986.87	0.0013348
1996.52	0.001696
2006.16	0.001556
2015.81	0.001396
2025.45	0.0013169
2035.1	0.0012409
2044.74	0.0013348
2054.38	0.0011135
2064.03	0.0011818
2073.67	0.001436
2083.32	0.001616
2092.96	0.001466
2102.61	0.0010493
2112.25	0.0012297
2121.9	0.0010842
2131.54	0.0010427
2141.19	0.0010603
2150.83	0.0009028
2160.48	0.000923
2170.12	0.0008952
2179.77	0.0008582
2189.41	0.0009007
2199.06	0.001034
2208.7	0.0007768
2218.35	0.0007892
2227.99	0.0010635
2237.64	0.0008636
2247.28	0.0011095
2256.92	0.0012247
2266.57	0.000911
2276.21	0.0007732
2285.86	0.0010082
2295.5	0.000789
2305.15	0.0005415
2314.79	0.0012001
2324.44	0.0011313
2334.08	0.0011218
2343.73	0.001226
2353.37	0.001426
2363.02	0.0011135
2372.66	0.0009021
2382.31	0.0011676
2391.95	0.001396
2401.6	0.0011036
2411.24	0.0010474
2420.89	0.0009832
2430.53	0.0009086
2440.18	0.0012405
2449.82	0.001566
2459.47	0.001726
2469.11	0.001706
2478.75	0.0013381
2488.4	0.0008357
2498.04	0.0010308
2507.69	0.0008878
2517.33	0.0008241
2526.98	0.0006692
2536.62	0.0008491
2546.27	0.0007292
2555.91	0.0010557
2565.56	0.0011299
2575.2	0.0011365
2584.85	0.0007502
2594.49	0.0007809
2604.14	0.0006511
2613.78	0.0007976
2623.43	0.0006907
2633.07	0.0004385
2642.72	0.000844
2652.36	0.0008661
2662.01	0.0006438
2671.65	0.0008411
2681.29	0.000727
2690.94	0.0008816
2700.58	0.0009197
2710.23	0.0007421
2719.87	0.0012366
2729.52	0.0012202
2739.16	0.0010951
2748.81	0.001147
2758.45	0.0007666
2768.1	0.0006833
2777.74	0.0011441
2787.39	0.0009233
2797.03	0.0007257
2806.68	0.0009597
2816.32	0.0010827
2825.97	0.002106
2835.61	0.002276
2845.26	0.002326
2854.9	0.002246
2864.55	0.003016
2874.19	0.003216
2883.84	0.004116
2893.48	0.005316
2903.12	0.007286
2912.77	0.009266
2922.41	0.011656
2932.06	0.011416
2941.7	0.008706
2951.35	0.007996
2960.99	0.008356
2970.64	0.007496
2980.28	0.005856
2989.93	0.005736
2999.57	0.007036
3009.22	0.008796
3018.86	0.008266
3028.51	0.007496
3038.15	0.010636
3047.8	0.012556
3057.44	0.008696
3067.09	0.006116
3076.73	0.006266
3086.38	0.005316
3096.02	0.003726
3105.67	0.003116
3115.31	0.003656
3124.95	0.002456
3134.6	0.002016
3144.24	0.001726
3153.89	0.0010141
3163.53	0.0011809
3173.18	0.000543
3182.82	0.0007187
3192.47	0.0010941
3202.11	0.0004098
3211.76	0.000587
3221.4	0.0010698
3231.05	0.0008754
3240.69	0.0003382
3250.34	0.0006924
3259.98	0.0005351
3269.63	0.0009312
3279.27	0.0008285
3288.92	0.0006387
3298.56	0.0010812
3308.21	0.0006445
3317.85	0.00038035
3327.49	0.0006703
3337.14	0.0009866
3346.78	0.0005354
3356.43	0.000134
3366.07	0.0007827
3375.72	0.0007592
3385.36	0.0010717
3395.01	0.000947
3404.65	0.001109
3414.3	0.001386
3423.94	0.001986
3433.59	0.002276
3443.23	0.002266
3452.88	0.001966
3462.52	0.002086
3472.17	0.0012383
3481.81	0.0010593
3491.46	0.001406
3501.1	0.0004768
3510.75	0.0009271
3520.39	0.0009952
3530.04	0.0007489
3539.68	0.0006972
3549.32	0.000802
3558.97	0.00038871
3568.61	0.00040222
3578.26	0.0005419
3587.9	0.00065
3597.55	0.0007711
3607.19	0.0006157
3616.84	0.000247
3626.48	0.000201
3636.13	0.0005561
3645.77	0.0007787
3655.42	0.000944
3665.06	0.0010502
3674.71	0.0008302
3684.35	0.0009465
3694	0.0006836
3703.64	0.000949
3713.29	0.0005998
3722.93	0.0006175
3732.58	0.000878
3742.22	0.0007097
3751.86	0.0005021
3761.51	0.0007933
3771.15	0.0005815
3780.8	0.0009508
3790.44	0.0005731
3800.09	0.000893
3809.73	0.0009568
3819.38	0
3829.02	0.0008863
3838.67	0.0007527
3848.31	0.00014
3857.96	0.000465
3867.6	0.0010716
3877.25	0.0006215
3886.89	0.0010131
3896.54	0.0006988
3906.18	0.0007515
3915.83	0.000815
3925.47	0.0009814
3935.12	0.001103
3944.76	0.000213
3954.41	0.000186
3964.05	0.000737
3973.69	0.0009889
3983.34	0.0009792
3992.98	0.0008862
