Infrared Spectrum: p-Ethylfluorobenzene
Formula: C 8 H 9 F
CAS: 459-47-2
State: gas
Instrument: HP-GC/MS/IRD
Origin: NIST Mass Spectrometry Data Center
1/CM	ABSORBANCE
550	0.0011778
562	0.0007566
574	0.0001209
586	0.0001404
598	0.0001443
610	0.0001599
622	0.0001131
634	4.29e-05
646	7.02e-05
658	0.0001989
670	0.0003237
682	0.0007059
694	0.0020709
706	0.0034281
718	0.003237
730	0.0020826
742	0.0007917
754	0.0005694
766	0.0007371
778	0.0009282
790	0.0014937
802	0.0039585
814	0.0089193
826	0.0142272
838	0.0145938
850	0.0076401
862	0.0023322
874	0.0009282
886	0.0006201
898	0.0004485
910	0.0004446
922	0.0004563
934	0.0005226
946	0.0004251
958	0.0004992
970	0.0006474
982	0.0005187
994	0.0005031
1006	0.0012558
1018	0.001599
1030	0.000975
1042	0.0009009
1054	0.0013806
1066	0.0015015
1078	0.0010803
1090	0.001482
1102	0.0018681
1114	0.0014313
1126	0.0007215
1138	0.0007254
1150	0.0042549
1162	0.0054288
1174	0.0012636
1186	0.0005538
1198	0.0014703
1210	0.0051831
1222	0.017355
1234	0.03666
1246	0.0224367
1258	0.0026247
1270	0.0011076
1282	0.000897
1294	0.0009282
1306	0.0012012
1318	0.0017589
1330	0.0016809
1342	0.0009711
1354	0.0006942
1366	0.0006279
1378	0.0008853
1390	0.0011232
1402	0.0012051
1414	0.0013845
1426	0.0015795
1438	0.0019695
1450	0.0027534
1462	0.0033306
1474	0.0031707
1486	0.0039039
1498	0.0170391
1510	0.039
1522	0.0234273
1534	0.0040638
1546	0.0016263
1558	0.0010725
1570	0.0012168
1582	0.0023673
1594	0.0054249
1606	0.006825
1618	0.0040092
1630	0.0021489
1642	0.0013494
1654	0.0008268
1666	0.0003978
1678	0.0002457
1690	0.0002106
1702	0.0001911
1714	0.0002067
1726	0.0002301
1738	0.0004329
1750	0.0007371
1762	0.0005382
1774	0.000156
1786	8.19e-05
1798	3.51e-05
1810	6.63e-05
1822	6.24e-05
1834	0.0001404
1846	0.0002574
1858	0.0006786
1870	0.00117
1882	0.001131
1894	0.0005382
1906	0.0002262
1918	0.0001872
1930	0.0001911
1942	0.0002106
1954	0.0001872
1966	0.0001287
1978	0.0001014
1990	0.0001014
2002	0.0001053
2014	0.0001092
2026	0.000156
2038	0.0001755
2050	0.0002574
2062	0.0002418
2074	0.0002379
2086	0.0001248
2098	7.41e-05
2110	3.51e-05
2122	2.73e-05
2134	0
2146	2.34e-05
2158	2.34e-05
2170	2.73e-05
2182	1.95e-05
2194	3.12e-05
2206	7.41e-05
2218	7.41e-05
2230	8.58e-05
2242	0.0001209
2254	0.0001404
2266	0.0001209
2278	0.0001209
2290	8.97e-05
2302	0.0001131
2314	0.0001521
2326	0.000195
2338	0.0002106
2350	0.000195
2362	0.0001365
2374	0.0001131
2386	0.0001521
2398	0.0001677
2410	0.0001482
2422	0.0001638
2434	0.0001911
2446	0.0002496
2458	0.0002847
2470	0.0002379
2482	8.58e-05
2494	5.46e-05
2506	7.02e-05
2518	8.58e-05
2530	4.68e-05
2542	9.75e-05
2554	0.0001482
2566	0.0001482
2578	0.0001599
2590	0.0001443
2602	0.0001092
2614	9.36e-05
2626	0.0001716
2638	0.0001872
2650	0.0001443
2662	0.0001599
2674	0.0001365
2686	0.0001482
2698	0.0001443
2710	0.0001716
2722	0.0002457
2734	0.0003432
2746	0.0004485
2758	0.0004602
2770	0.0004719
2782	0.0004836
2794	0.0005265
2806	0.0005811
2818	0.0006903
2830	0.0010101
2842	0.0015015
2854	0.002301
2866	0.003744
2878	0.00546
2890	0.0058734
2902	0.0054717
2914	0.0054327
2926	0.0066066
2938	0.0094419
2950	0.0099606
2962	0.0111579
2974	0.0158301
2986	0.0106938
2998	0.0050349
3010	0.0037089
3022	0.0030537
3034	0.0043134
3046	0.0050193
3058	0.0033657
3070	0.0024414
3082	0.0020163
3094	0.0014469
3106	0.001209
3118	0.0011193
3130	0.0009282
3142	0.0005499
3154	0.0004485
3166	0.0004797
3178	0.0004524
3190	0.0004134
3202	0.0003003
3214	0.0002652
3226	0.0002028
3238	0.0002106
3250	0.0002067
3262	0.000195
3274	0.0001755
3286	7.02e-05
3298	0.0001716
3310	0.0002028
3322	0.0001521
3334	0.0001599
3346	0.0001794
3358	0.0001638
3370	0.0001404
3382	0.0001248
3394	0.0001326
3406	0.0001443
3418	8.58e-05
3430	0.0001326
3442	0.0001833
3454	9.75e-05
3466	0.0001638
3478	0.0001443
3490	0.0001404
3502	7.8e-05
3514	0.0001521
3526	0.0001053
3538	0.0001248
3550	5.85e-05
3562	4.68e-05
3574	0.0001326
3586	0.0001404
3598	0.0001365
3610	0.0001755
3622	0.0001599
3634	0.0001482
3646	0.0001092
3658	0.0001833
3670	0.0002262
3682	0.0002184
3694	0.0002496
3706	0.0001872
3718	0.0002613
3730	0.0002496
3742	0.0002301
3754	0.0001716
3766	0.0002067
3778	0.0002301
3790	0.0001872
3802	0.0001755
3814	0.0002418
3826	0.0002613
3838	0.0002145
