Infrared Spectrum: PHOSPHOROUS ACID, CYCLIC o-PHENYLENE-, ISOBUTYL ESTER
Formula: C10 H13 O3 P
CAS: 4591-39-3
State: LIQUID
Class: COBLENTZ
Instrument: Not specified, most likely a grating spectrometer.
Sampling: TRANSMISSION
Path length: 0.0015 CM
Resolution: 4
Origin: STANDARD OIL OF OHIO
MICROMETERS	TRANSMITTANCE
2.034	0.977
2.06777	0.979
2.10153	0.979
2.1353	0.972
2.16907	0.972
2.20283	0.974
2.2366	0.972
2.27037	0.957
2.30413	0.954
2.3379	0.955
2.37167	0.955
2.40543	0.959
2.4392	0.957
2.47297	0.966
2.50673	0.962
2.5405	0.957
2.57427	0.961
2.60803	0.967
2.6418	0.969
2.67557	0.972
2.70933	0.972
2.7431	0.972
2.77686	0.974
2.81063	0.969
2.8444	0.966
2.87816	0.964
2.91193	0.962
2.9457	0.959
2.97946	0.955
3.01323	0.952
3.047	0.945
3.08076	0.932
3.11453	0.923
3.1483	0.922
3.18206	0.903
3.21583	0.822
3.2496	0.822
3.28336	0.85
3.31713	0.466
3.3509	0.184
3.38466	0.322
3.41843	0.467
3.4522	0.477
3.48596	0.805
3.51973	0.891
3.5535	0.915
3.58726	0.925
3.62103	0.927
3.6548	0.922
3.68856	0.928
3.72233	0.935
3.7561	0.938
3.78986	0.942
3.82363	0.947
3.8574	0.925
3.89116	0.916
3.92493	0.942
3.9587	0.952
3.99246	0.95
4.02623	0.94
4.05999	0.916
4.09376	0.92
4.12753	0.933
4.16129	0.944
4.19506	0.944
4.22883	0.945
4.26259	0.945
4.29636	0.937
4.33013	0.923
4.36389	0.932
4.39766	0.942
4.43143	0.944
4.46519	0.95
4.49896	0.952
4.53273	0.952
4.56649	0.949
4.60026	0.95
4.63403	0.952
4.66779	0.95
4.70156	0.952
4.73533	0.952
4.76909	0.944
4.80286	0.932
4.83663	0.923
4.87039	0.932
4.90416	0.92
4.93793	0.908
4.97169	0.922
5.00546	0.933
5.03923	0.937
5.07299	0.932
5.10676	0.927
5.14053	0.927
5.17429	0.915
5.20806	0.922
5.24183	0.933
5.27559	0.906
5.30936	0.894
5.34313	0.916
5.37689	0.922
5.41066	0.915
5.44442	0.905
5.47819	0.9
5.51196	0.901
5.54572	0.906
5.57949	0.906
5.61326	0.889
5.64702	0.864
5.68079	0.877
5.71456	0.918
5.74832	0.93
5.78209	0.92
5.81586	0.906
5.84962	0.905
5.88339	0.911
5.91716	0.923
5.95092	0.928
5.98469	0.925
6.01846	0.925
6.05222	0.932
6.08599	0.932
6.11976	0.925
6.15352	0.747
6.18729	0.823
6.22106	0.85
6.25482	0.774
6.28859	0.8
6.32236	0.859
6.35612	0.889
6.38989	0.901
6.42366	0.905
6.45742	0.905
6.49119	0.893
6.52496	0.847
6.55872	0.828
6.59249	0.811
6.62626	0.749
6.66002	0.511
6.69379	0.25
6.72755	0.01
6.76132	0.006
6.79509	0.033
6.82885	0.216
6.86262	0.447
6.89639	0.667
6.93015	0.766
6.96392	0.822
6.99769	0.832
7.03145	0.805
7.06522	0.728
7.09899	0.71
7.13275	0.627
7.16652	0.528
7.20029	0.742
7.23405	0.749
7.26782	0.508
7.30159	0.625
7.33535	0.766
7.36912	0.752
7.40289	0.642
7.43665	0.496
7.47042	0.271
7.50419	0.438
7.53795	0.722
7.57172	0.842
7.60549	0.866
7.63925	0.861
7.67302	0.818
7.70679	0.793
7.74055	0.781
7.77432	0.737
7.80809	0.674
7.84185	0.611
7.87562	0.589
7.90939	0.552
7.94315	0.528
7.97692	0.483
8.01069	0.362
8.04445	0.084
8.07822	0.003
8.11198	0.001
8.14575	0.011
8.17952	0.2
8.21328	0.376
8.24705	0.586
8.28082	0.703
8.31458	0.759
8.34835	0.783
8.38212	0.784
8.41588	0.761
8.44965	0.727
8.48342	0.723
8.51718	0.73
8.55095	0.713
8.58472	0.71
8.61848	0.715
8.65225	0.671
8.68602	0.652
8.71978	0.771
8.75355	0.813
8.78732	0.815
8.82108	0.774
8.85485	0.757
8.88862	0.783
8.92238	0.825
8.95615	0.835
8.98992	0.832
9.02368	0.798
9.05745	0.713
9.09122	0.506
9.12498	0.371
9.15875	0.655
9.19252	0.728
9.22628	0.73
9.26005	0.722
9.29382	0.718
9.32758	0.716
9.36135	0.708
9.39511	0.691
9.42888	0.654
9.46265	0.615
9.49641	0.588
9.53018	0.535
9.56395	0.459
9.59771	0.379
9.63148	0.266
9.66525	0.167
9.69901	0.098
9.73278	0.033
9.76655	0.006
9.80031	0.003
9.83408	0.001
9.86785	0.001
9.90161	0.001
9.93538	0.001
9.96915	0.001
10.0029	0.005
10.0367	0.025
10.0704	0.125
10.1042	0.205
10.138	0.281
10.1717	0.332
10.2055	0.359
10.2393	0.381
10.273	0.394
10.3068	0.389
10.3406	0.296
10.3743	0.218
10.4081	0.249
10.4419	0.332
10.4756	0.359
10.5094	0.401
10.5432	0.467
10.5769	0.544
10.6107	0.601
10.6445	0.649
10.6782	0.7
10.712	0.723
10.7458	0.722
10.7795	0.691
10.8133	0.632
10.8471	0.562
10.8808	0.527
10.9146	0.522
10.9484	0.54
10.9821	0.586
11.0159	0.655
11.0497	0.713
11.0834	0.769
11.1172	0.796
11.151	0.808
11.1847	0.81
11.2185	0.806
11.2523	0.796
11.286	0.774
11.3198	0.75
11.3536	0.722
11.3873	0.688
11.4211	0.645
11.4549	0.581
11.4886	0.518
11.5224	0.44
11.5562	0.357
11.5899	0.266
11.6237	0.201
11.6575	0.159
11.6912	0.128
11.725	0.11
11.7588	0.071
11.7925	0.033
11.8263	0.01
11.8601	0.005
11.8938	0.001
11.9276	0.001
11.9614	0.001
11.9951	0.001
12.0289	0.001
12.0627	0.001
12.0964	0.001
12.1302	0.001
12.164	0.001
12.1977	0.005
12.2315	0.016
12.2653	0.028
12.299	0.032
12.3328	0.033
12.3666	0.037
12.4003	0.057
12.4341	0.088
12.4679	0.132
12.5016	0.159
12.5354	0.2
12.5692	0.232
12.6029	0.261
12.6367	0.279
12.6705	0.284
12.7042	0.288
12.738	0.289
12.7718	0.301
12.8055	0.31
12.8393	0.322
12.8731	0.333
12.9068	0.347
12.9406	0.367
12.9744	0.396
13.0081	0.422
13.0419	0.433
13.0757	0.432
13.1094	0.396
13.1432	0.33
13.177	0.264
13.2107	0.232
13.2445	0.191
13.2783	0.135
13.312	0.081
13.3458	0.035
13.3796	0.01
13.4133	0.005
13.4471	0.001
13.4809	0
13.5146	0
13.5484	0.003
13.5822	0.013
13.6159	0.047
13.6497	0.101
13.6835	0.169
13.7172	0.271
13.751	0.4
13.7848	0.528
13.8185	0.581
13.8523	0.623
13.8861	0.652
13.9198	0.661
13.9536	0.649
13.9874	0.6
14.0211	0.493
14.0549	0.42
14.0887	0.377
14.1224	0.347
14.1562	0.281
14.19	0.2
14.2237	0.132
14.2575	0.108
14.2913	0.108
14.325	0.122
14.3588	0.166
14.3926	0.245
14.4263	0.338
14.4601	0.452
14.4939	0.55
14.5276	0.608
14.5614	0.657
14.5952	0.688
14.6289	0.715
14.6627	0.733
14.6965	0.752
14.7302	0.764
14.764	0.772
14.7978	0.779
14.8315	0.786
14.8653	0.791
14.8991	0.793
14.9328	0.796
14.9666	0.798
15.0004	0.801
15.0341	0.803
15.0679	0.805
15.1017	0.806
15.1354	0.806
15.1692	0.808
15.203	0.808
15.2367	0.808
15.2705	0.808
15.3043	0.805
15.338	0.803
15.3718	0.801
