Infrared Spectrum: 2-Bromopyrimidine
Formula: C 4 H 3 Br N 2
CAS: 4595-60-2
State: gas
Origin: EPA-IR VAPOR PHASE LIBRARY
1/CM	ABSORBANCE
549.8	0.001307
559.445	0.001143
569.09	0.001284
578.734	0.001675
588.379	0.00282
598.024	0.0059
607.669	0.01084
617.313	0.01758
626.958	0.01764
636.603	0.01019
646.248	0.00565
655.893	0.00415
665.537	0.00288
675.182	0.0021585
684.827	0.0014562
694.472	0.001298
704.116	0.00146926
713.761	0.00364
723.406	0.03333
733.051	0.06169
742.695	0.06927
752.34	0.01757
761.985	0.01813
771.63	0.01892
781.275	0.02306
790.919	0.02679
800.564	0.04324
810.209	0.02523
819.854	0.01509
829.498	0.00582
839.143	0.00334
848.788	0.0021126
858.433	0.0023851
868.078	0.0019743
877.722	0.00276
887.367	0.0025
897.012	0.00377
906.657	0.00379
916.301	0.00485
925.946	0.00332
935.591	0.00302
945.236	0.00268
954.88	0.0017124
964.525	0.001345
974.17	0.000922
983.815	0.001099
993.46	0.001207
1003.1	0.00155011
1012.75	0.0014418
1022.39	0.0017877
1032.04	0.00148673
1041.68	0.00279
1051.33	0.00795
1060.97	0.01327
1070.62	0.01086
1080.26	0.0039
1089.91	0.00296
1099.55	0.00251
1109.2	0.0028
1118.84	0.0048
1128.49	0.01094
1138.13	0.02823
1147.78	0.15348
1157.42	0.34885
1167.07	0.35319
1176.71	0.03565
1186.36	0.00665
1196	0.00446
1205.64	0.00288
1215.29	0.0026
1224.93	0.00309
1234.58	0.00496
1244.22	0.00668
1253.87	0.00946
1263.51	0.00842
1273.16	0.00659
1282.8	0.00407
1292.45	0.00296
1302.09	0.00278
1311.74	0.00305
1321.38	0.00297
1331.03	0.00343
1340.67	0.00584
1350.32	0.01765
1359.96	0.06019
1369.61	0.21152
1379.25	0.41204
1388.9	0.35299
1398.54	0.05559
1408.18	0.01675
1417.83	0.01665
1427.47	0.01451
1437.12	0.01123
1446.76	0.00831
1456.41	0.00487
1466.05	0.00366
1475.7	0.00434
1485.34	0.00696
1494.99	0.00883
1504.63	0.00972
1514.28	0.01733
1523.92	0.03799
1533.57	0.08483
1543.21	0.18374
1552.86	0.32007
1562.5	0.24354
1572.15	0.05679
1581.79	0.01457
1591.44	0.00836
1601.08	0.00643
1610.73	0.00483
1620.37	0.00321
1630.01	0.00271
1639.66	0.0024538
1649.3	0.0020072
1658.95	0.002243
1668.59	0.002293
1678.24	0.00253
1687.88	0.00291
1697.53	0.00335
1707.17	0.00409
1716.82	0.00434
1726.46	0.00337
1736.11	0.0021313
1745.75	0.0023631
1755.4	0.00282
1765.04	0.00388
1774.69	0.00469
1784.33	0.004
1793.98	0.00254
1803.62	0.0021565
1813.27	0.0021041
1822.91	0.0020451
1832.55	0.0019887
1842.2	0.0018129
1851.84	0.00151883
1861.49	0.0015743
1871.13	0.0018146
1880.78	0.0024303
1890.42	0.00345
1900.07	0.00338
1909.71	0.0022666
1919.36	0.0022715
1929	0.00282
1938.65	0.00374
1948.29	0.00469
1957.94	0.00512
1967.58	0.00411
1977.23	0.00271
1986.87	0.0020311
1996.52	0.0019454
2006.16	0.0017255
2015.81	0.0016038
2025.45	0.0014506
2035.1	0.00153547
2044.74	0.0017717
2054.38	0.0017791
2064.03	0.0018142
2073.67	0.0014351
2083.32	0.00150787
2092.96	0.0017404
2102.61	0.0021571
2112.25	0.00248
2121.9	0.0023763
2131.54	0.00262
2141.19	0.00281
2150.83	0.00268
2160.48	0.00261
2170.12	0.0024467
2179.77	0.0024331
2189.41	0.0023249
2199.06	0.0024403
2208.7	0.0022123
2218.35	0.00281
2227.99	0.00365
2237.64	0.00379
2247.28	0.00337
2256.92	0.0023402
2266.57	0.0020061
2276.21	0.0022863
2285.86	0.00247
2295.5	0.0020966
2305.15	0.0019623
2314.79	0.0022404
2324.44	0.0023202
2334.08	0.00293
2343.73	0.00395
2353.37	0.0052
2363.02	0.00547
2372.66	0.0044
2382.31	0.0023715
2391.95	0.00275
2401.6	0.00359
2411.24	0.00375
2420.89	0.00318
2430.53	0.0023233
2440.18	0.0018272
2449.82	0.0021106
2459.47	0.0021266
2469.11	0.0021425
2478.75	0.0017344
2488.4	0.0019265
2498.04	0.002276
2507.69	0.00271
2517.33	0.00342
2526.98	0.00461
2536.62	0.0052
2546.27	0.00367
2555.91	0.0023852
2565.56	0.0025
2575.2	0.00259
2584.85	0.0022671
2594.49	0.0021899
2604.14	0.0023503
2613.78	0.00248
2623.43	0.00256
2633.07	0.00252
2642.72	0.0023744
2652.36	0.0019129
2662.01	0.0019223
2671.65	0.0017818
2681.29	0.00217
2690.94	0.00268
2700.58	0.00273
2710.23	0.00274
2719.87	0.0023143
2729.52	0.0017117
2739.16	0.0016316
2748.81	0.00153782
2758.45	0.00153925
2768.1	0.00147155
2777.74	0.00149813
2787.39	0.001753
2797.03	0.0020788
2806.68	0.0019628
2816.32	0.0016445
2825.97	0.001331
2835.61	0.001251
2845.26	0.0017077
2854.9	0.00152669
2864.55	0.00150899
2874.19	0.0015158
2883.84	0.0013874
2893.48	0.0016326
2903.12	0.0018856
2912.77	0.0025
2922.41	0.00295
2932.06	0.00328
2941.7	0.00354
2951.35	0.00357
2960.99	0.0042
2970.64	0.00354
2980.28	0.00265
2989.93	0.0020953
2999.57	0.0018273
3009.22	0.0022072
3018.86	0.0039
3028.51	0.00972
3038.15	0.02309
3047.8	0.02853
3057.44	0.02307
3067.09	0.01589
3076.73	0.01017
3086.38	0.00664
3096.02	0.00801
3105.67	0.01117
3115.31	0.0123
3124.95	0.00854
3134.6	0.00364
3144.24	0.0020409
3153.89	0.0013759
3163.53	0.0017091
3173.18	0.0017861
3182.82	0.00147117
3192.47	0.0015774
3202.11	0.0014047
3211.76	0.001295
3221.4	0.0013945
3231.05	0.00156464
3240.69	0.001164
3250.34	0.001369
3259.98	0.0016431
3269.63	0.0013873
3279.27	0.0016293
3288.92	0.0013929
3298.56	0.001358
3308.21	0.001325
3317.85	0.001336
3327.49	0.0017156
3337.14	0.001198
3346.78	0.00148315
3356.43	0.001233
3366.07	0.0016334
3375.72	0.0015421
3385.36	0.001274
3395.01	0.00154249
3404.65	0.0013936
3414.3	0.0016081
3423.94	0.001259
3433.59	0.0013867
3443.23	0.0013889
3452.88	0.0017364
3462.52	0.001249
3472.17	0.001094
3481.81	0.001276
3491.46	0.00113
3501.1	0.00153044
3510.75	0.0016917
3520.39	0.0017067
3530.04	0.001304
3539.68	0.001251
3549.32	0.0013731
3558.97	0.001345
3568.61	0.0013818
3578.26	0.001327
3587.9	0.001271
3597.55	0.001217
3607.19	0.001331
3616.84	0.0016211
3626.48	0.0013908
3636.13	0.001279
3645.77	0.001265
3655.42	0.001353
3665.06	0.001344
3674.71	0.001302
3684.35	0.001099
3694	0.001238
3703.64	0.0014058
3713.29	0.0013867
3722.93	0.001351
3732.58	0.0013813
3742.22	0.0014572
3751.86	0.001343
3761.51	0.0015828
3771.15	0.00156556
3780.8	0.0018843
3790.44	0.00151419
3800.09	0.0013979
3809.73	0.0021618
3819.38	0.0015225
3829.02	0.00155414
3838.67	0.0020034
3848.31	0.001573
3857.96	0.00153891
3867.6	0.001198
3877.25	0.000988
3886.89	0.0016268
3896.54	0.00152503
3906.18	0.00159
3915.83	0.00136
3925.47	0.001258
3935.12	0.001166
3944.76	0.0014215
3954.41	0.001252
3964.05	0.00153178
3973.69	0.001146
3983.34	0.00151718
3992.98	0.001221
