Infrared Spectrum: Pyrimidine, 5-bromo-
Formula: C4 H3 Br N2
CAS: 4595-59-9
State: SOLUTION (CCl4 FOR 4000-1320, CS2 FOR 1320-600 CM^-^1)
Class: COBLENTZ III
Instrument: PERKIN-ELMER 21 (GRATING)
Instrument parameters: FILTER CHANGE ABOUT 1020 CM^-^1
Sampling: TRANSMISSION
Path length: 0.010 CM, 0.010 CM
Resolution: 2
Origin: SOUTHERN RESEARCH INSTITUTE
1/CM	TRANSMITTANCE
598.283	0.7649
607.316	0.7645
616.349	0.7639
625.382	0.7629
634.415	0.7611
643.448	0.7588
652.481	0.7556
661.513	0.7519
670.546	0.7481
679.579	0.7374
688.612	0.7103
697.645	0.6575
706.678	0.3347
715.711	0.4284
724.744	0.7142
733.777	0.7675
742.81	0.8285
751.843	0.8379
760.876	0.844
769.909	0.8487
778.941	0.8528
787.974	0.856
797.007	0.8593
806.04	0.862
815.073	0.8646
824.106	0.8686
833.139	0.8902
842.172	0.891
851.205	0.886
860.238	0.8775
869.271	0.8655
878.304	0.8445
887.337	0.7099
896.369	0.6997
905.402	0.8557
914.435	0.86
923.468	0.8591
932.501	0.8572
941.534	0.8537
950.567	0.8485
959.6	0.8404
968.633	0.8329
977.666	0.8243
986.699	0.8099
995.732	0.7615
1004.76	0.401
1013.8	0.3736
1022.83	0.862
1031.86	0.8658
1040.9	0.8669
1049.93	0.8633
1058.96	0.8601
1068	0.8538
1077.03	0.8331
1086.06	0.8078
1095.09	0.8348
1104.13	0.7886
1113.16	0.5845
1122.19	0.4799
1131.23	0.7168
1140.26	0.5831
1149.29	0.2392
1158.32	0.6586
1167.36	0.757
1176.39	0.6554
1185.42	0.5057
1194.46	0.842
1203.49	0.8808
1212.52	0.8987
1221.55	0.9027
1230.59	0.9032
1239.62	0.9026
1248.65	0.9029
1257.69	0.9047
1266.72	0.9072
1275.75	0.9082
1284.79	0.901
1293.82	0.8843
1302.85	0.8559
1311.88	0.8435
1320.92	0.8488
1329.95	0.7703
1338.98	0.8606
1348.02	0.8571
1357.05	0.8439
1366.08	0.8288
1375.11	0.8215
1384.15	0.7888
1393.18	0.1448
1402.21	0.1831
1411.25	0.3668
1420.28	0.4471
1429.31	0.421
1438.34	0.8381
1447.38	0.8716
1456.41	0.8759
1465.44	0.8729
1474.48	0.8667
1483.51	0.8643
1492.54	0.8625
1501.58	0.8553
1510.61	0.8427
1519.64	0.8205
1528.67	0.7528
1537.71	0.4249
1546.74	0.2429
1555.77	0.7875
1564.81	0.8409
1573.84	0.8739
1582.87	0.8931
1591.9	0.8954
1600.94	0.8947
1609.97	0.895
1619	0.8968
1628.04	0.8999
1637.07	0.9029
1646.1	0.9055
1655.14	0.9014
1664.17	0.898
1673.2	0.8965
1682.23	0.8956
1691.27	0.8956
1700.3	0.8953
1709.33	0.8948
1718.37	0.8964
1727.4	0.9004
1736.43	0.9031
1745.46	0.9031
1754.5	0.9021
1763.53	0.9014
1772.56	0.9007
1781.6	0.9001
1790.63	0.8995
1799.66	0.8986
1808.69	0.8972
1817.73	0.8958
1826.76	0.8907
1835.79	0.8808
1844.83	0.8758
1853.86	0.8737
1862.89	0.8736
1871.93	0.876
1880.96	0.8931
1889.99	0.9025
1899.02	0.9025
1908.06	0.9017
1917.09	0.9003
1926.12	0.8966
1935.16	0.892
1944.19	0.8868
1953.22	0.8813
1962.25	0.8805
1971.29	0.8967
1980.32	0.9082
1989.35	0.9109
1998.39	0.9128
2007.42	0.914
2016.45	0.9151
2025.48	0.916
2034.52	0.9168
2043.55	0.9168
2052.58	0.9162
2061.62	0.9155
2070.65	0.9148
2079.68	0.9142
2088.72	0.9135
2097.75	0.9125
2106.78	0.9108
2115.81	0.9092
2124.85	0.9096
2133.88	0.912
2142.91	0.914
2151.95	0.9156
2160.98	0.9169
2170.01	0.9177
2179.04	0.917
2188.08	0.9164
2197.11	0.916
2206.14	0.9159
2215.18	0.9158
2224.21	0.9154
2233.24	0.9131
2242.28	0.9105
2251.31	0.9071
2260.34	0.9054
2269.37	0.9061
2278.41	0.9069
2287.44	0.9092
2296.47	0.9146
2305.51	0.9217
2314.54	0.9319
2323.57	0.9362
2332.6	0.9364
2341.64	0.9361
2350.67	0.9354
2359.7	0.9306
2368.74	0.926
2377.77	0.923
2386.8	0.9238
2395.83	0.9263
2404.87	0.9263
2413.9	0.9264
2422.93	0.9261
2431.97	0.9257
2441	0.9251
2450.03	0.9244
2459.07	0.9238
2468.1	0.9229
2477.13	0.9221
2486.16	0.9212
2495.2	0.9203
2504.23	0.9194
2513.26	0.9184
2522.3	0.9175
2531.33	0.9168
2540.36	0.9164
2549.39	0.9159
2558.43	0.9151
2567.46	0.9135
2576.49	0.9119
2585.53	0.9087
2594.56	0.9058
2603.59	0.9045
2612.62	0.9032
2621.66	0.902
2630.69	0.9015
2639.72	0.9009
2648.76	0.9019
2657.79	0.9038
2666.82	0.9057
2675.86	0.9088
2684.89	0.9151
2693.92	0.9193
2702.95	0.9226
2711.99	0.9225
2721.02	0.9223
2730.05	0.9203
2739.09	0.918
2748.12	0.9157
2757.15	0.9135
2766.18	0.9113
2775.22	0.9091
2784.25	0.9065
2793.28	0.9039
2802.32	0.9013
2811.35	0.8986
2820.38	0.8967
2829.42	0.8953
2838.45	0.8939
2847.48	0.8925
2856.51	0.891
2865.55	0.8895
2874.58	0.8881
2883.61	0.8871
2892.65	0.8861
2901.68	0.8851
2910.71	0.8838
2919.74	0.8819
2928.78	0.8799
2937.81	0.8781
2946.84	0.8762
2955.88	0.8731
2964.91	0.8696
2973.94	0.8662
2982.97	0.8606
2992.01	0.8549
3001.04	0.8476
3010.07	0.8396
3019.11	0.828
3028.14	0.8165
3037.17	0.8183
3046.21	0.8332
3055.24	0.8588
3064.27	0.866
3073.3	0.8693
3082.34	0.8761
3091.37	0.8861
3100.4	0.8965
3109.44	0.9043
3118.47	0.9074
3127.5	0.91
3136.53	0.9108
3145.57	0.9113
3154.6	0.9118
3163.63	0.9119
3172.67	0.912
3181.7	0.9121
3190.73	0.9113
3199.76	0.9105
3208.8	0.9097
3217.83	0.9089
3226.86	0.9089
3235.9	0.9089
3244.93	0.9088
3253.96	0.9088
3263	0.9087
3272.03	0.9088
3281.06	0.9089
3290.09	0.909
3299.13	0.9091
3308.16	0.9092
3317.19	0.9093
3326.23	0.9094
3335.26	0.9105
3344.29	0.9115
3353.32	0.9125
3362.36	0.9135
3371.39	0.9145
3380.42	0.9155
3389.46	0.9165
3398.49	0.9176
3407.52	0.9188
3416.56	0.9199
3425.59	0.921
3434.62	0.9222
3443.65	0.9233
3452.69	0.9244
3461.72	0.9245
3470.75	0.9245
3479.79	0.9244
3488.82	0.9244
3497.85	0.9243
3506.88	0.9245
3515.92	0.9253
3524.95	0.9262
3533.98	0.927
3543.02	0.9279
3552.05	0.9287
3561.08	0.9295
3570.11	0.9298
3579.15	0.9296
3588.18	0.9294
3597.21	0.9292
3606.25	0.929
3615.28	0.9279
3624.31	0.9268
3633.35	0.9257
3642.38	0.9246
3651.41	0.924
3660.44	0.924
3669.48	0.924
3678.51	0.924
3687.54	0.9246
3696.58	0.9251
3705.61	0.9256
3714.64	0.9262
3723.67	0.9273
3732.71	0.9284
3741.74	0.9305
3750.77	0.9305
3759.81	0.9314
3768.84	0.9321
3777.87	0.9323
3786.9	0.9313
3795.94	0.9298
3804.97	0.9294
