Infrared Spectrum: 3,7,11-Trimethyl-2,6,10-dodecatrien-1-ol
Formula: C 15 H 26 O
CAS: 4602-84-0
State: gas
Instrument: HP-GC/MS/IRD
Origin: NIST Mass Spectrometry Data Center
1/CM	ABSORBANCE
550	0.0003033
562	0.0003249
574	0.0002754
586	0.0003006
598	0.0002322
610	0.0001701
622	0.0001134
634	8.82e-05
646	4.95e-05
658	1.44e-05
670	6.84e-05
682	5.4e-05
694	6.3e-05
706	3.24e-05
718	9.27e-05
730	0.0001098
742	0.0002178
754	0.0001872
766	0.0003141
778	0.0003204
790	0.0003537
802	0.0005022
814	0.0007884
826	0.0009963
838	0.0009261
850	0.0006048
862	0.0004689
874	0.0004068
886	0.0005283
898	0.0005256
910	0.0004968
922	0.0006048
934	0.0007659
946	0.0010386
958	0.0014283
970	0.0018144
982	0.0023895
994	0.0029844
1006	0.0030195
1018	0.0023517
1030	0.0017721
1042	0.0012978
1054	0.0010107
1066	0.0009306
1078	0.0008883
1090	0.0009558
1102	0.0009549
1114	0.0008316
1126	0.0005391
1138	0.0005571
1150	0.0005346
1162	0.000576
1174	0.000549
1186	0.0006408
1198	0.00072
1210	0.000738
1222	0.0007398
1234	0.0007506
1246	0.0006165
1258	0.0005841
1270	0.0005184
1282	0.0005373
1294	0.0005715
1306	0.0007083
1318	0.0008055
1330	0.00081
1342	0.0009216
1354	0.0011259
1366	0.0014589
1378	0.0024777
1390	0.0022536
1402	0.0013473
1414	0.001026
1426	0.001089
1438	0.0015966
1450	0.0018585
1462	0.0014688
1474	0.0009108
1486	0.0005949
1498	0.0004014
1510	0.000324
1522	0.0002943
1534	0.0002862
1546	0.0002907
1558	0.0002493
1570	0.0002556
1582	0.0002511
1594	0.000243
1606	0.0002439
1618	0.000243
1630	0.0002916
1642	0.0003933
1654	0.0006246
1666	0.0007173
1678	0.0003078
1690	0.000135
1702	7.56e-05
1714	4.86e-05
1726	5.85e-05
1738	2.79e-05
1750	3.87e-05
1762	4.05e-05
1774	3.87e-05
1786	4.86e-05
1798	6.39e-05
1810	5.58e-05
1822	6.39e-05
1834	5.94e-05
1846	3.78e-05
1858	2.25e-05
1870	2.7e-06
1882	1.44e-05
1894	1.71e-05
1906	2.25e-05
1918	2.34e-05
1930	3.6e-05
1942	1.17e-05
1954	3.33e-05
1966	4.59e-05
1978	4.59e-05
1990	5.67e-05
2002	5.94e-05
2014	3.69e-05
2026	3.6e-05
2038	3.33e-05
2050	4.41e-05
2062	4.5e-05
2074	2.34e-05
2086	1.98e-05
2098	4.14e-05
2110	3.06e-05
2122	1.98e-05
2134	2.43e-05
2146	2.79e-05
2158	9e-07
2170	4.41e-05
2182	2.79e-05
2194	4.5e-05
2206	4.86e-05
2218	3.06e-05
2230	1.08e-05
2242	1.8e-05
2254	2.25e-05
2266	2.52e-05
2278	4.05e-05
2290	2.34e-05
2302	2.43e-05
2314	3.51e-05
2326	2.7e-05
2338	5.13e-05
2350	5.31e-05
2362	4.95e-05
2374	7.02e-05
2386	7.74e-05
2398	5.13e-05
2410	9.09e-05
2422	9.54e-05
2434	0.0001071
2446	5.85e-05
2458	7.2e-05
2470	7.74e-05
2482	8.55e-05
2494	9e-05
2506	7.74e-05
2518	0.0001143
2530	7.92e-05
2542	6.57e-05
2554	9.36e-05
2566	8.82e-05
2578	6.12e-05
2590	0.0001206
2602	0.0001152
2614	9.81e-05
2626	0.0001413
2638	0.0001476
2650	0.0001413
2662	0.0001494
2674	0.0001791
2686	0.0001926
2698	0.0001872
2710	0.000216
2722	0.000306
2734	0.0004176
2746	0.0004464
2758	0.0003834
2770	0.0003636
2782	0.0004248
2794	0.0005553
2806	0.0006624
2818	0.0009387
2830	0.0013716
2842	0.00225
2854	0.0038664
2866	0.005274
2878	0.0052713
2890	0.0055341
2902	0.0062433
2914	0.0077193
2926	0.009
2938	0.0081
2950	0.0066159
2962	0.006102
2974	0.0062874
2986	0.0047997
2998	0.0033552
3010	0.0023931
3022	0.0019503
3034	0.0016614
3046	0.0013239
3058	0.001017
3070	0.0007776
3082	0.0006039
3094	0.0004896
3106	0.0003798
3118	0.0003474
3130	0.000225
3142	0.00018
3154	0.0001935
3166	0.0001386
3178	0.0001422
3190	0.0001206
3202	0.0001098
3214	0.0001098
3226	9.81e-05
3238	8.73e-05
3250	8.1e-05
3262	0.000126
3274	0.0001116
3286	9.72e-05
3298	0
3310	7.47e-05
3322	0.0001098
3334	6.12e-05
3346	0.0001314
3358	0.0001071
3370	9e-05
3382	0.0001062
3394	9e-05
3406	0.0001242
3418	9.18e-05
3430	0.0001215
3442	0.0001449
3454	9.36e-05
3466	8.91e-05
3478	6.39e-05
3490	0.0001125
3502	0.0001116
3514	0.000144
3526	0.0001242
3538	0.0001278
3550	0.0001359
3562	0.0001296
3574	0.0001242
3586	0.0001215
3598	0.0001656
3610	0.0002286
3622	0.0002349
3634	0.0003321
3646	0.0005094
3658	0.0005643
3670	0.0004158
3682	0.0002556
3694	0.0001485
3706	0.0001431
3718	0.0001341
3730	0.0001431
3742	0.0001332
3754	0.0001548
3766	0.0001467
3778	0.0001341
3790	0.0001269
3802	9.63e-05
3814	5.67e-05
3826	0.0001764
3838	9.54e-05
