Infrared Spectrum: Ethylcyclopropane carboxylate
Formula: C 6 H 10 O 2
CAS: 4606-07-9
State: gas
Origin: EPA-IR VAPOR PHASE LIBRARY
1/CM	ABSORBANCE
501.5	0.001199
513.074	0.0007444
524.648	0.0005536
536.222	0.000588
547.796	0.0006311
559.37	0.0006236
570.944	0.0004597
582.518	0.0008269
594.092	0.0006561
605.666	0.0007071
617.24	0.0007593
628.814	0.001239
640.388	0.001789
651.962	0.002109
663.536	0.001729
675.11	0.0011315
686.684	0.0008044
698.258	0.0007944
709.832	0.0009417
721.406	0.001419
732.98	0.002629
744.554	0.003789
756.128	0.004309
767.702	0.004689
779.276	0.004869
790.85	0.004289
802.423	0.004369
813.997	0.006299
825.571	0.008579
837.145	0.010439
848.719	0.013949
860.293	0.013199
871.867	0.008279
883.441	0.005959
895.015	0.004629
906.589	0.004099
918.163	0.005829
929.737	0.010499
941.311	0.011839
952.885	0.007659
964.459	0.003899
976.033	0.003109
987.607	0.003279
999.181	0.004659
1010.76	0.008609
1022.33	0.017849
1033.9	0.024869
1045.48	0.022339
1057.05	0.021229
1068.63	0.033719
1080.2	0.040139
1091.77	0.038839
1103.35	0.033349
1114.92	0.021449
1126.49	0.017429
1138.07	0.024789
1149.64	0.053259
1161.22	0.130949
1172.79	0.216079
1184.36	0.191729
1195.94	0.099329
1207.51	0.048789
1219.09	0.021879
1230.66	0.017499
1242.23	0.025059
1253.81	0.046469
1265.38	0.049789
1276.96	0.027209
1288.53	0.010889
1300.1	0.010359
1311.68	0.010119
1323.25	0.008339
1334.83	0.010019
1346.4	0.019059
1357.97	0.028829
1369.55	0.039689
1381.12	0.054289
1392.7	0.052629
1404.27	0.037089
1415.84	0.025989
1427.42	0.015469
1438.99	0.013309
1450.57	0.015559
1462.14	0.016549
1473.71	0.013719
1485.29	0.009039
1496.86	0.005699
1508.44	0.004109
1520.01	0.003379
1531.58	0.002949
1543.16	0.002609
1554.73	0.002249
1566.31	0.002069
1577.88	0.002109
1589.45	0.002139
1601.03	0.002029
1612.6	0.001929
1624.18	0.002079
1635.75	0.002529
1647.32	0.002859
1658.9	0.003059
1670.47	0.003519
1682.05	0.004829
1693.62	0.007149
1705.19	0.011819
1716.77	0.024839
1728.34	0.058119
1739.92	0.109919
1751.49	0.122859
1763.06	0.079739
1774.64	0.027439
1786.21	0.009819
1797.79	0.006219
1809.36	0.004799
1820.93	0.003509
1832.51	0.002619
1844.08	0.002239
1855.66	0.002109
1867.23	0.002179
1878.8	0.002199
1890.38	0.002089
1901.95	0.001879
1913.53	0.001719
1925.1	0.001639
1936.67	0.001579
1948.25	0.001669
1959.82	0.001709
1971.4	0.001489
1982.97	0.001239
1994.54	0.0011555
2006.12	0.001259
2017.69	0.001579
2029.27	0.001939
2040.84	0.002109
2052.41	0.001869
2063.99	0.001619
2075.56	0.001649
2087.14	0.001699
2098.71	0.001699
2110.28	0.001499
2121.86	0.001299
2133.43	0.0010701
2145.01	0.0008015
2156.58	0.0006675
2168.15	0.0005769
2179.73	0.0006012
2191.3	0.0006053
2202.88	0.0006404
2214.45	0.0006607
2226.02	0.0007142
2237.6	0.0007316
2249.17	0.0007528
2260.74	0.0006877
2272.32	0.0006515
2283.89	0.0006551
2295.47	0.0006681
2307.04	0.0006938
2318.61	0.0007997
2330.19	0.0009485
2341.76	0.001087
2353.34	0.0010064
2364.91	0.0008432
2376.48	0.000692
2388.06	0.0006497
2399.63	0.0005756
2411.21	0.000515
2422.78	0.0004433
2434.35	0.0004054
2445.93	0.0004236
2457.5	0.0004737
2469.08	0.0005264
2480.65	0.0006477
2492.22	0.0006665
2503.8	0.0005426
2515.37	0.0004303
2526.95	0.0004342
2538.52	0.0004123
2550.09	0.0004289
2561.67	0.000352
2573.24	0.0003899
2584.82	0.0004198
2596.39	0.0004919
2607.96	0.0005279
2619.54	0.0004612
2631.11	0.0003198
2642.69	0.00020956
2654.26	0.00020519
2665.83	0.00022476
2677.41	0.00025592
2688.98	0.00026117
2700.56	0.00024892
2712.13	0.0002902
2723.7	0.0002908
2735.28	0.0004434
2746.85	0.0005013
2758.43	0.0006238
2770	0.0006567
2781.57	0.000729
2793.15	0.0007922
2804.72	0.0008891
2816.3	0.0011056
2827.87	0.001319
2839.44	0.001629
2851.02	0.002129
2862.59	0.002909
2874.17	0.004579
2885.74	0.006259
2897.31	0.007299
2908.89	0.008279
2920.46	0.009269
2932.04	0.012389
2943.61	0.016379
2955.18	0.017329
2966.76	0.019519
2978.33	0.028439
2989.91	0.030909
3001.48	0.024179
3013.05	0.020249
3024.63	0.019279
3036.2	0.014049
3047.78	0.007079
3059.35	0.004039
3070.92	0.003439
3082.5	0.003569
3094.07	0.005319
3105.65	0.006669
3117.22	0.004939
3128.79	0.002009
3140.37	0.0010656
3151.94	0.0008156
3163.52	0.0006272
3175.09	0.0005323
3186.66	0.0005245
3198.24	0.0004532
3209.81	0.0004486
3221.39	0.0003533
3232.96	0.00026874
3244.53	0.00015
3256.11	0.00018585
3267.68	8.2e-05
3279.26	9.85e-05
3290.83	0.0001302
3302.4	4.2e-05
3313.98	9.5e-05
3325.55	0.0001013
3337.13	8.1e-05
3348.7	0.0001645
3360.27	0.0001407
3371.85	0.0001308
3383.42	0.00020472
3395	0.00020396
3406.57	0.0002138
3418.14	0.0001448
3429.72	0.0002834
3441.29	0.0004324
3452.86	0.0007307
3464.44	0.0011262
3476.01	0.001369
3487.59	0.0011563
3499.16	0.0008023
3510.73	0.0004459
3522.31	0.0004046
3533.88	0.00028668
3545.46	0.0001671
3557.03	0.0001262
3568.6	0.0001193
3580.18	9.11e-05
3591.75	0.0001045
3603.33	8e-05
3614.9	0.0001553
3626.47	0.0001227
3638.05	8.2e-05
3649.62	9.8e-05
3661.2	5e-06
3672.77	0.0001276
3684.34	9.97e-05
3695.92	3.9e-05
3707.49	0.00020221
3719.07	0.0001339
3730.64	0.00022343
3742.21	0.00022643
3753.79	0.0001707
3765.36	0.00020764
3776.94	0.00026184
3788.51	0.00021003
3800.08	0.00021787
3811.66	0.0001629
3823.23	0.00020561
3834.81	0.0002776
3846.38	0.00023901
3857.95	0.00026603
3869.53	0.00025969
3881.1	0.000196105
3892.68	0.0003084
3904.25	0.0003202
3915.82	0.0003249
3927.4	0.00020615
3938.97	0.0003398
3950.55	0.00026003
3962.12	0.00023464
3973.69	0.0002712
3985.27	0.0003122
3996.84	0.00022365
