Infrared Spectrum: 1-NITRO DECANE
Formula: C10 H21 N O2
CAS: 4609-87-4
State: SOLID (PELLET)
Class: COBLENTZ
Instrument: Not specified, most likely a prism, grating, or hybrid spectrometer.
Sampling: TRANSMISSION
Resolution: 4
MICROMETERS	TRANSMITTANCE
2.02	0.91
2.05992	0.91
2.09983	0.91
2.13975	0.911
2.17967	0.913
2.21959	0.911
2.2595	0.901
2.29942	0.891
2.33934	0.886
2.37926	0.888
2.41917	0.893
2.45909	0.898
2.49901	0.901
2.53892	0.91
2.57884	0.913
2.61876	0.911
2.65868	0.911
2.69859	0.913
2.73851	0.903
2.77843	0.908
2.81835	0.901
2.85826	0.91
2.89818	0.903
2.9381	0.905
2.97801	0.901
3.01793	0.901
3.05785	0.906
3.09777	0.905
3.13768	0.903
3.1776	0.901
3.21752	0.896
3.25744	0.885
3.29735	0.861
3.33727	0.798
3.37719	0.425
3.4171	0.079
3.45702	0.169
3.49694	0.307
3.53686	0.316
3.57677	0.758
3.61669	0.845
3.65661	0.865
3.69653	0.873
3.73644	0.881
3.77636	0.883
3.81628	0.895
3.85619	0.901
3.89611	0.908
3.93603	0.913
3.97595	0.916
4.01586	0.918
4.05578	0.918
4.0957	0.916
4.13562	0.913
4.17553	0.915
4.21545	0.923
4.25537	0.931
4.29528	0.926
4.3352	0.908
4.37512	0.911
4.41504	0.918
4.45495	0.92
4.49487	0.92
4.53479	0.923
4.57471	0.925
4.61462	0.925
4.65454	0.925
4.69446	0.925
4.73437	0.93
4.77429	0.928
4.81421	0.93
4.85413	0.928
4.89404	0.928
4.93396	0.925
4.97388	0.925
5.0138	0.931
5.05371	0.93
5.09363	0.933
5.13355	0.933
5.17346	0.93
5.21338	0.936
5.2533	0.931
5.29322	0.94
5.33313	0.933
5.37305	0.931
5.41297	0.936
5.45289	0.931
5.4928	0.935
5.53272	0.933
5.57264	0.936
5.61255	0.933
5.65247	0.931
5.69239	0.925
5.73231	0.925
5.77222	0.913
5.81214	0.911
5.85206	0.923
5.89198	0.928
5.93189	0.913
5.97181	0.915
6.01173	0.908
6.05164	0.903
6.09156	0.898
6.13148	0.883
6.1714	0.85
6.21131	0.82
6.25123	0.798
6.29115	0.758
6.33107	0.657
6.37098	0.537
6.4109	0.136
6.45082	0.049
6.49073	0.056
6.53065	0.369
6.57057	0.599
6.61049	0.645
6.6504	0.74
6.69032	0.767
6.73024	0.783
6.77016	0.765
6.81007	0.597
6.84999	0.349
6.88991	0.409
6.92982	0.525
6.96974	0.459
7.00966	0.5
7.04958	0.685
7.08949	0.752
7.12941	0.77
7.16933	0.717
7.20925	0.459
7.24916	0.276
7.28908	0.331
7.329	0.477
7.36891	0.595
7.40883	0.618
7.44875	0.668
7.48867	0.702
7.52858	0.778
7.5685	0.811
7.60842	0.82
7.64834	0.813
7.68825	0.81
7.72817	0.808
7.76809	0.808
7.808	0.808
7.84792	0.806
7.88784	0.826
7.92776	0.828
7.96767	0.828
8.00759	0.831
8.04751	0.84
8.08743	0.84
8.12734	0.831
8.16726	0.823
8.20718	0.813
8.24709	0.811
8.28701	0.813
8.32693	0.82
8.36685	0.823
8.40676	0.82
8.44668	0.823
8.4866	0.826
8.52652	0.833
8.56643	0.826
8.60635	0.835
8.64627	0.848
8.68618	0.856
8.7261	0.851
8.76602	0.831
8.80594	0.801
8.84585	0.801
8.88577	0.816
8.92569	0.835
8.96561	0.865
9.00552	0.883
9.04544	0.89
9.08536	0.891
9.12527	0.891
9.16519	0.885
9.20511	0.876
9.24503	0.87
9.28494	0.865
9.32486	0.865
9.36478	0.873
9.4047	0.876
9.44461	0.88
9.48453	0.881
9.52445	0.886
9.56436	0.885
9.60428	0.888
9.6442	0.891
9.68412	0.893
9.72403	0.895
9.76395	0.895
9.80387	0.896
9.84379	0.898
9.8837	0.9
9.92362	0.9
9.96354	0.901
10.0035	0.903
10.0434	0.905
10.0833	0.905
10.1232	0.905
10.1631	0.905
10.203	0.905
10.243	0.913
10.2829	0.91
10.3228	0.913
10.3627	0.91
10.4026	0.911
10.4425	0.913
10.4825	0.916
10.5224	0.921
10.5623	0.921
10.6022	0.921
10.6421	0.921
10.682	0.918
10.722	0.916
10.7619	0.915
10.8018	0.915
10.8417	0.911
10.8816	0.908
10.9216	0.905
10.9615	0.9
11.0014	0.88
11.0413	0.876
11.0812	0.876
11.1211	0.886
11.1611	0.886
11.201	0.888
11.2409	0.886
11.2808	0.883
11.3207	0.881
11.3606	0.876
11.4006	0.868
11.4405	0.861
11.4804	0.855
11.5203	0.855
11.5602	0.865
11.6001	0.871
11.6401	0.873
11.68	0.876
11.7199	0.881
11.7598	0.888
11.7997	0.888
11.8396	0.893
11.8796	0.9
11.9195	0.901
11.9594	0.901
11.9993	0.896
12.0392	0.895
12.0792	0.888
12.1191	0.885
12.159	0.878
12.1989	0.876
12.2388	0.876
12.2787	0.883
12.3187	0.886
12.3586	0.891
12.3985	0.893
12.4384	0.895
12.4783	0.895
12.5182	0.896
12.5582	0.893
12.5981	0.891
12.638	0.883
12.6779	0.878
12.7178	0.876
12.7577	0.87
12.7977	0.865
12.8376	0.861
12.8775	0.858
12.9174	0.856
12.9573	0.856
12.9973	0.861
13.0372	0.863
13.0771	0.86
13.117	0.855
13.1569	0.848
13.1968	0.841
13.2368	0.831
13.2767	0.826
13.3166	0.821
13.3565	0.815
13.3964	0.81
13.4363	0.803
13.4763	0.797
13.5162	0.79
13.5561	0.775
13.596	0.767
13.6359	0.755
13.6758	0.748
13.7158	0.733
13.7557	0.725
13.7956	0.702
13.8355	0.677
13.8754	0.657
13.9153	0.657
13.9553	0.683
13.9952	0.71
14.0351	0.725
14.075	0.738
14.1149	0.748
14.1549	0.757
14.1948	0.765
14.2347	0.768
14.2746	0.777
14.3145	0.777
14.3544	0.778
14.3944	0.777
14.4343	0.783
14.4742	0.785
14.5141	0.785
14.554	0.785
14.5939	0.78
14.6339	0.78
14.6738	0.775
14.7137	0.773
14.7536	0.768
14.7935	0.767
14.8334	0.762
14.8734	0.755
14.9133	0.75
14.9532	0.752
14.9931	0.75
15.033	0.735
15.0729	0.718
15.1129	0.718
15.1528	0.713
15.1927	0.707
15.2326	0.7
15.2725	0.693
15.3125	0.687
15.3524	0.68
15.3923	0.67
15.4322	0.667
15.4721	0.657
15.512	0.652
15.552	0.643
15.5919	0.642
15.6318	0.64
15.6717	0.635
15.7116	0.63
15.7515	0.625
15.7915	0.623
15.8314	0.618
15.8713	0.615
