Infrared Spectrum: 6-Azauracil
Formula: C 3 H 3 N 3 O 2
CAS: 461-89-2
State: gas
Origin: EPA-IR VAPOR PHASE LIBRARY
1/CM	ABSORBANCE
549.8	0.00452
559.445	0.0044
569.09	0.00465
578.734	0.00496
588.379	0.00373
598.024	0.00296
607.669	0.00235
617.313	0.00224
626.958	0.00282
636.603	0.00426
646.248	0.00647
655.893	0.00786
665.537	0.00851
675.182	0.00624
684.827	0.00519
694.472	0.00374
704.116	0.0032
713.761	0.00309
723.406	0.00303
733.051	0.00365
742.695	0.00349
752.34	0.00491
761.985	0.00332
771.63	0.00245
781.275	0.0019
790.919	0.00185
800.564	0.00167
810.209	0.00171
819.854	0.00165
829.498	0.00149
839.143	0.00157
848.788	0.00158
858.433	0.00204
868.078	0.00241
877.722	0.00369
887.367	0.00238
897.012	0.00186
906.657	0.00149
916.301	0.00136
925.946	0.00144
935.591	0.00193
945.236	0.00295
954.88	0.00335
964.525	0.00342
974.17	0.00229
983.815	0.00202
993.46	0.00239
1003.1	0.00246
1012.75	0.00225
1022.39	0.00163
1032.04	0.00127
1041.68	0.00145
1051.33	0.00141
1060.97	0.00182
1070.62	0.00274
1080.26	0.00362
1089.91	0.00379
1099.55	0.00272
1109.2	0.00167
1118.84	0.00104
1128.49	0.00133
1138.13	0.00146
1147.78	0.00176
1157.42	0.00218
1167.07	0.00223
1176.71	0.00197
1186.36	0.00224
1196	0.00263
1205.64	0.00355
1215.29	0.0044
1224.93	0.00426
1234.58	0.00338
1244.22	0.00214
1253.87	0.00173
1263.51	0.00172
1273.16	0.00178
1282.8	0.0018
1292.45	0.00189
1302.09	0.00227
1311.74	0.00362
1321.38	0.00469
1331.03	0.00513
1340.67	0.00429
1350.32	0.0037
1359.96	0.00374
1369.61	0.00453
1379.25	0.006
1388.9	0.0082
1398.54	0.00847
1408.18	0.00792
1417.83	0.00562
1427.47	0.004
1437.12	0.00274
1446.76	0.0016
1456.41	0.00135
1466.05	0.00142
1475.7	0.00161
1485.34	0.0018
1494.99	0.00191
1504.63	0.00174
1514.28	0.00156
1523.92	0.00132
1533.57	0.00124
1543.21	0.00116
1552.86	0.00116
1562.5	0.00118
1572.15	0.00149
1581.79	0.00208
1591.44	0.00245
1601.08	0.00262
1610.73	0.00226
1620.37	0.00193
1630.01	0.00164
1639.66	0.00168
1649.3	0.00193
1658.95	0.0025
1668.59	0.00328
1678.24	0.00391
1687.88	0.00451
1697.53	0.00533
1707.17	0.00835
1716.82	0.01513
1726.46	0.02368
1736.11	0.03192
1745.75	0.03549
1755.4	0.03753
1765.04	0.04037
1774.69	0.04283
1784.33	0.03881
1793.98	0.0269
1803.62	0.01054
1813.27	0.00476
1822.91	0.00299
1832.55	0.00226
1842.2	0.00204
1851.84	0.00194
1861.49	0.00186
1871.13	0.00181
1880.78	0.00174
1890.42	0.00166
1900.07	0.00165
1909.71	0.00164
1919.36	0.0018
1929	0.00187
1938.65	0.00182
1948.29	0.00164
1957.94	0.0015
1967.58	0.00131
1977.23	0.00108
1986.87	0.00104
1996.52	0.00105
2006.16	0.00101
2015.81	0.00102
2025.45	0.0009887
2035.1	0.0009567
2044.74	0.0009734
2054.38	0.0008453
2064.03	0.0008297
2073.67	0.0008185
2083.32	0.0007547
2092.96	0.0007303
2102.61	0.0007084
2112.25	0.0006976
2121.9	0.0007103
2131.54	0.0006903
2141.19	0.0007123
2150.83	0.0007085
2160.48	0.0007812
2170.12	0.0007208
2179.77	0.0007271
2189.41	0.0006917
2199.06	0.0007043
2208.7	0.0006815
2218.35	0.0006466
2227.99	0.0006128
2237.64	0.0006478
2247.28	0.000657
2256.92	0.0006618
2266.57	0.0006945
2276.21	0.0007172
2285.86	0.0006818
2295.5	0.0007403
2305.15	0.000775
2314.79	0.0007929
2324.44	0.0007574
2334.08	0.0006821
2343.73	0.000682
2353.37	0.0007347
2363.02	0.000655
2372.66	0.0006547
2382.31	0.000711
2391.95	0.0006887
2401.6	0.0006987
2411.24	0.0007415
2420.89	0.0007195
2430.53	0.0007993
2440.18	0.0007816
2449.82	0.0007319
2459.47	0.0007771
2469.11	0.0007843
2478.75	0.0008188
2488.4	0.0008331
2498.04	0.0007605
2507.69	0.0007905
2517.33	0.0007699
2526.98	0.0007274
2536.62	0.0006826
2546.27	0.0006915
2555.91	0.0007228
2565.56	0.0006997
2575.2	0.0007527
2584.85	0.0006897
2594.49	0.0007671
2604.14	0.0007803
2613.78	0.0007677
2623.43	0.0007689
2633.07	0.0007208
2642.72	0.0006914
2652.36	0.0006857
2662.01	0.0007355
2671.65	0.0007805
2681.29	0.0007979
2690.94	0.000783
2700.58	0.0007235
2710.23	0.0006891
2719.87	0.0008028
2729.52	0.0007884
2739.16	0.0007524
2748.81	0.000799
2758.45	0.0007672
2768.1	0.0006898
2777.74	0.0008471
2787.39	0.0007499
2797.03	0.0008027
2806.68	0.0008067
2816.32	0.000815
2825.97	0.000875
2835.61	0.0007952
2845.26	0.0007519
2854.9	0.0007423
2864.55	0.0007344
2874.19	0.0007541
2883.84	0.0007295
2893.48	0.0008275
2903.12	0.000932
2912.77	0.0009089
2922.41	0.0007933
2932.06	0.0007651
2941.7	0.0007516
2951.35	0.0007276
2960.99	0.0007677
2970.64	0.0007021
2980.28	0.0007076
2989.93	0.0006686
2999.57	0.0007531
3009.22	0.0007319
3018.86	0.0008889
3028.51	0.0008906
3038.15	0.000911
3047.8	0.00102
3057.44	0.0009498
3067.09	0.000838
3076.73	0.000939
3086.38	0.0009865
3096.02	0.0009337
3105.67	0.0009383
3115.31	0.0008725
3124.95	0.0008282
3134.6	0.0007671
3144.24	0.0008476
3153.89	0.0007619
3163.53	0.000843
3173.18	0.0007776
3182.82	0.0008026
3192.47	0.0008391
3202.11	0.000788
3211.76	0.0007927
3221.4	0.0007134
3231.05	0.0006667
3240.69	0.0006978
3250.34	0.0007878
3259.98	0.0006237
3269.63	0.0007573
3279.27	0.0007205
3288.92	0.0007994
3298.56	0.0006632
3308.21	0.0007988
3317.85	0.0006956
3327.49	0.0007508
3337.14	0.0008508
3346.78	0.0006757
3356.43	0.0007826
3366.07	0.0006977
3375.72	0.0007747
3385.36	0.0008259
3395.01	0.00115
3404.65	0.00221
3414.3	0.00392
3423.94	0.00555
3433.59	0.00511
3443.23	0.00435
3452.88	0.00347
3462.52	0.00516
3472.17	0.00793
3481.81	0.00803
3491.46	0.0061
3501.1	0.00268
3510.75	0.00141
3520.39	0.00102
3530.04	0.0009197
3539.68	0.0008826
3549.32	0.000888
3558.97	0.0008528
3568.61	0.0008552
3578.26	0.0006777
3587.9	0.0006264
3597.55	0.0006437
3607.19	0.0006672
3616.84	0.0005806
3626.48	0.0006859
3636.13	0.0006885
3645.77	0.0006447
3655.42	0.0006881
3665.06	0.0005347
3674.71	0.0005056
3684.35	0.0005524
3694	0.0006116
3703.64	0.0005783
3713.29	0.0006164
3722.93	0.0005759
3732.58	0.0005926
3742.22	0.0006581
3751.86	0.0005618
3761.51	0.0006187
3771.15	0.0004774
3780.8	0.0006136
3790.44	0.0006108
3800.09	0.0004826
3809.73	0.0005818
3819.38	0.0005412
3829.02	0.000574
3838.67	0.0005686
3848.31	0.000662
3857.96	0.0005219
3867.6	0.0005571
3877.25	0.0005096
3886.89	0.0005145
3896.54	0.0005576
3906.18	0.0005049
3915.83	0.0006097
3925.47	0.0005637
3935.12	0.0006171
3944.76	0.0006039
3954.41	0.0004379
3964.05	0.0004525
3973.69	0.0005624
3983.34	0.0006697
3992.98	0.0006481
