Infrared Spectrum: (3-Carboxy-2-hydroxypropyl)trimethylammonium chloride
Formula: C7 H16 Cl N O3
CAS: 461-05-2
State: SOLID (SPLIT MULL), FLUOROLUBE FOR 3800-1330 CM^-^1, NUJOL FOR 1330-400 CM^-^1;
Melting point: 195 C (DECOMPOSES)
Class: COBLENTZ II
Instrument: DOW KBr FOREPRISM-GRATING
Instrument parameters: BLAZED AT 3.5, 12.0, 20.0 MICRON AND CHANGED AT 5.0, 7.5, 14.9 MICRON
Sampling: TRANSMISSION
Resolution: 2
Origin: DOW CHEMICAL COMPANY
1/CM	TRANSMITTANCE
3800	0.7838
3791	0.7839
3782	0.7867
3773	0.7926
3764	0.7985
3755	0.8018
3746	0.7993
3737	0.7975
3728	0.7968
3719	0.7965
3710	0.7975
3701	0.7985
3692	0.7995
3683	0.8006
3674	0.8017
3665	0.8028
3656	0.804
3647	0.8051
3638	0.8064
3629	0.8074
3620	0.8084
3611	0.8089
3602	0.8091
3593	0.8091
3584	0.808
3575	0.8044
3566	0.8043
3557	0.8061
3548	0.8075
3539	0.8078
3530	0.8081
3521	0.8074
3512	0.8068
3503	0.8062
3494	0.8065
3485	0.8055
3476	0.8024
3467	0.7947
3458	0.7848
3449	0.7775
3440	0.7755
3431	0.7744
3422	0.7715
3413	0.7594
3404	0.7451
3395	0.7431
3386	0.7421
3377	0.74
3368	0.736
3359	0.7256
3350	0.6928
3341	0.6621
3332	0.6257
3323	0.5845
3314	0.5229
3305	0.4047
3296	0.3348
3287	0.2484
3278	0.1634
3269	0.0897
3260	0.0802
3251	0.1909
3242	0.2379
3233	0.3148
3224	0.384
3215	0.4495
3206	0.5018
3197	0.5291
3188	0.5494
3179	0.5647
3170	0.5757
3161	0.5827
3152	0.5898
3143	0.5962
3134	0.5992
3125	0.5974
3116	0.5921
3107	0.584
3098	0.5777
3089	0.5718
3080	0.5634
3071	0.5525
3062	0.5347
3053	0.5096
3044	0.521
3035	0.5187
3026	0.4707
3017	0.4807
3008	0.4917
2999	0.4124
2990	0.4604
2981	0.4588
2972	0.4247
2963	0.3887
2954	0.3744
2945	0.3627
2936	0.2894
2927	0.2376
2918	0.2656
2909	0.258
2900	0.2369
2891	0.2147
2882	0.196
2873	0.1833
2864	0.1796
2855	0.184
2846	0.1987
2837	0.2278
2828	0.2461
2819	0.2719
2810	0.293
2801	0.3128
2792	0.3338
2783	0.3575
2774	0.379
2765	0.3997
2756	0.4193
2747	0.4406
2738	0.4589
2729	0.47
2720	0.4678
2711	0.4746
2702	0.4904
2693	0.5057
2684	0.53
2675	0.541
2666	0.5362
2657	0.5274
2648	0.5412
2639	0.5673
2630	0.5788
2621	0.5784
2612	0.577
2603	0.5755
2594	0.5774
2585	0.5933
2576	0.6047
2567	0.6077
2558	0.6054
2549	0.5921
2540	0.5836
2531	0.6297
2522	0.648
2513	0.6182
2504	0.594
2495	0.6012
2486	0.6408
2477	0.6674
2468	0.6841
2459	0.6796
2450	0.6819
2441	0.7025
2432	0.725
2423	0.7422
2414	0.7464
2405	0.7478
2396	0.7494
2387	0.7557
2378	0.7618
2369	0.7633
2360	0.7618
2351	0.7605
2342	0.7597
2333	0.7621
2324	0.7638
2315	0.7695
2306	0.7798
2297	0.7889
2288	0.7971
2279	0.7995
2270	0.7992
2261	0.8045
2252	0.8142
2243	0.8187
2234	0.8165
2225	0.8192
2216	0.8289
2207	0.8356
2198	0.8371
2189	0.8375
2180	0.8375
2171	0.8371
2162	0.8397
2153	0.8435
2144	0.8462
2135	0.848
2126	0.849
2117	0.8494
2108	0.8514
2099	0.8575
2090	0.864
2081	0.8677
2072	0.866
2063	0.8675
2054	0.8696
2045	0.8718
2036	0.875
2027	0.8777
2018	0.8805
2009	0.8805
2000	0.8775
1991	0.8701
1982	0.8713
1973	0.8746
1964	0.8783
1955	0.8777
1946	0.878
1937	0.8797
1928	0.8808
1919	0.8821
1910	0.8834
1901	0.8834
1892	0.8835
1883	0.8834
1874	0.8811
1865	0.8736
1856	0.8688
1847	0.8663
1838	0.8623
1829	0.8587
1820	0.8542
1811	0.8471
1802	0.8346
1793	0.823
1784	0.8119
1775	0.8054
1766	0.7961
1757	0.7744
1748	0.6778
1739	0.5001
1730	0.2312
1721	0.0541
1712	0.3116
1703	0.5007
1694	0.6476
1685	0.7375
1676	0.7636
1667	0.7885
1658	0.8088
1649	0.8275
1640	0.8424
1631	0.8525
1622	0.8605
1613	0.8618
1604	0.8654
1595	0.8714
1586	0.875
1577	0.8745
1568	0.8718
1559	0.8712
1550	0.8725
1541	0.8757
1532	0.8763
1523	0.8752
1514	0.8694
1505	0.8496
1496	0.8068
1487	0.2838
1478	0.3912
1469	0.6072
1460	0.6743
1451	0.76
1442	0.7765
1433	0.7315
1424	0.563
1415	0.2558
1406	0.3241
1397	0.5179
1388	0.6632
1379	0.7642
1370	0.7036
1361	0.705
1352	0.795
1343	0.8076
1334	0.7978
1325	0.803
1316	0.7558
1307	0.5835
1298	0.7219
1289	0.7038
1280	0.4014
1271	0.317
1262	0.6248
1253	0.7726
1244	0.7525
1235	0.5303
1226	0.4712
1217	0.3096
1208	0.6178
1199	0.7119
1190	0.3066
1181	0.1267
1172	0.3096
1163	0.5321
1154	0.67
1145	0.7085
1136	0.5048
1127	0.6385
1118	0.7521
1109	0.7757
1100	0.3022
1091	0.3948
1082	0.6475
1073	0.783
1064	0.6571
1055	0.8178
1046	0.7806
1037	0.8421
1028	0.8657
1019	0.8748
1010	0.8727
1001	0.8704
992	0.868
983	0.8637
974	0.7585
965	0.5739
956	0.5265
947	0.7682
938	0.5836
929	0.4416
920	0.7515
911	0.7935
902	0.6149
893	0.5408
884	0.3614
875	0.406
866	0.6846
857	0.7895
848	0.8346
839	0.8488
830	0.873
821	0.8928
812	0.9078
803	0.9163
794	0.9178
785	0.9241
776	0.9185
767	0.9058
758	0.866
749	0.9093
740	0.9025
731	0.8878
722	0.866
713	0.8774
704	0.911
695	0.9212
686	0.9198
677	0.8964
668	0.8171
659	0.8136
650	0.8391
641	0.8533
632	0.857
623	0.8423
614	0.8324
605	0.7921
596	0.5331
587	0.6006
578	0.7233
569	0.5971
560	0.6255
551	0.7411
542	0.7905
533	0.8256
524	0.852
515	0.8649
506	0.8471
497	0.7295
488	0.852
479	0.8674
470	0.8655
461	0.8587
452	0.849
443	0.8352
434	0.8046
425	0.7425
416	0.7387
407	0.7305
398	0.7164
389	0.6975
