Infrared Spectrum: 2-Fluoro-4-methylpyridine
Formula: C6 H6 F N
CAS: 461-87-0
State: gas
Origin: EPA-IR VAPOR PHASE LIBRARY
1/CM	ABSORBANCE
549.8	0.0016699
559.445	0.002712
569.09	0.002852
578.735	0.002172
588.38	0.002902
598.025	0.0014229
607.67	0.0011094
617.315	0.0009004
626.96	0.0006229
636.605	0.0006271
646.251	0.000505
655.896	0.0006068
665.541	0.00074245
675.186	0.00070101
684.831	0.000501
694.476	0.000532
704.121	0.0009244
713.766	0.00068608
723.411	0.0009408
733.056	0.0012388
742.701	0.001942
752.346	0.002512
761.991	0.002942
771.636	0.001732
781.281	0.0012623
790.926	0.002012
800.571	0.004742
810.216	0.007412
819.861	0.017442
829.507	0.008192
839.152	0.006292
848.797	0.003702
858.442	0.003852
868.087	0.002492
877.732	0.002022
887.377	0.0013335
897.022	0.0010955
906.667	0.0012594
916.312	0.002212
925.957	0.006902
935.602	0.010212
945.247	0.010332
954.892	0.005462
964.537	0.002722
974.182	0.002972
983.827	0.003852
993.472	0.003862
1003.12	0.003112
1012.76	0.001942
1022.41	0.0014942
1032.05	0.001742
1041.7	0.001872
1051.34	0.001822
1060.99	0.001488
1070.63	0.0013669
1080.28	0.0012513
1089.92	0.0012727
1099.57	0.0014243
1109.21	0.001661
1118.86	0.002032
1128.5	0.002832
1138.15	0.008762
1147.79	0.011652
1157.44	0.012842
1167.08	0.004442
1176.73	0.0016317
1186.37	0.0011264
1196.02	0.0008476
1205.66	0.0009619
1215.31	0.0010526
1224.95	0.0013757
1234.6	0.001762
1244.24	0.002222
1253.89	0.004162
1263.53	0.005862
1273.18	0.009782
1282.82	0.012942
1292.47	0.017462
1302.11	0.014512
1311.76	0.011472
1321.4	0.006162
1331.05	0.003962
1340.69	0.001932
1350.34	0.0015364
1359.98	0.0016825
1369.63	0.002432
1379.27	0.004882
1388.92	0.012642
1398.56	0.024962
1408.21	0.035912
1417.85	0.033802
1427.5	0.022132
1437.14	0.010672
1446.79	0.008792
1456.43	0.008872
1466.08	0.009022
1475.73	0.009092
1485.37	0.008852
1495.02	0.009162
1504.66	0.007912
1514.31	0.008332
1523.95	0.008312
1533.6	0.009192
1543.24	0.010892
1552.89	0.014062
1562.53	0.017852
1572.18	0.018942
1581.82	0.018942
1591.47	0.021582
1601.11	0.033942
1610.76	0.039012
1620.4	0.030912
1630.05	0.012182
1639.69	0.003892
1649.34	0.001992
1658.98	0.0015829
1668.63	0.0014097
1678.27	0.0015315
1687.92	0.0015843
1697.56	0.0016729
1707.21	0.001892
1716.85	0.001822
1726.5	0.0015156
1736.14	0.0011249
1745.79	0.0011147
1755.43	0.0010075
1765.08	0.0010621
1774.72	0.0010469
1784.37	0.0011187
1794.01	0.0009182
1803.66	0.0009274
1813.3	0.0009366
1822.95	0.0008747
1832.59	0.0008779
1842.24	0.0008144
1851.88	0.0008999
1861.53	0.0009168
1871.17	0.0008644
1880.82	0.0009083
1890.46	0.0009768
1900.11	0.0012804
1909.75	0.0015752
1919.4	0.0015891
1929.04	0.0013745
1938.69	0.0011382
1948.33	0.0009355
1957.98	0.000827
1967.62	0.0008179
1977.27	0.0008462
1986.91	0.0008277
1996.56	0.0008246
2006.2	0.0008047
2015.85	0.0007238
2025.49	0.0007983
2035.14	0.00073784
2044.78	0.0007946
2054.43	0.0008161
2064.07	0.0008089
2073.72	0.0008747
2083.36	0.0008844
2093.01	0.0009201
2102.65	0.0009149
2112.3	0.0008856
2121.94	0.0008439
2131.59	0.0008377
2141.23	0.00079098
2150.88	0.00077506
2160.52	0.0008369
2170.17	0.0008426
2179.81	0.0008587
2189.46	0.0008336
2199.1	0.0008193
2208.75	0.0009578
2218.39	0.0009129
2228.04	0.0010207
2237.68	0.0010026
2247.33	0.0009194
2256.97	0.0008635
2266.62	0.00079131
2276.26	0.0007994
2285.91	0.0008638
2295.55	0.00078826
2305.2	0.0008065
2314.84	0.000835
2324.49	0.0008879
2334.13	0.0008014
2343.78	0.0009111
2353.42	0.0009288
2363.07	0.0008809
2372.72	0.0009234
2382.36	0.0008427
2392.01	0.0008225
2401.65	0.0008657
2411.3	0.0008797
2420.94	0.0009052
2430.59	0.0009591
2440.23	0.0009719
2449.88	0.00075616
2459.52	0.0008282
2469.17	0.000834
2478.81	0.0008161
2488.46	0.0008405
2498.1	0.0008913
2507.75	0.000866
2517.39	0.0008037
2527.04	0.0009746
2536.68	0.000975
2546.33	0.0009717
2555.97	0.000934
2565.62	0.0008626
2575.26	0.00074128
2584.91	0.00070743
2594.55	0.0006781
2604.2	0.00073724
2613.84	0.000584
2623.49	0.0006255
2633.13	0.00072198
2642.78	0.0005951
2652.42	0.000508
2662.07	0.0005966
2671.71	0.0006296
2681.36	0.0006256
2691	0.0006054
2700.65	0.00074795
2710.29	0.0008601
2719.94	0.0008571
2729.58	0.0008523
2739.23	0.00077795
2748.87	0.00068543
2758.52	0.000625
2768.16	0.0006238
2777.81	0.000564
2787.45	0.0006782
2797.1	0.000639
2806.74	0.000616
2816.39	0.0006709
2826.03	0.0008503
2835.68	0.0008874
2845.32	0.0009922
2854.97	0.0012836
2864.61	0.001692
2874.26	0.001912
2883.9	0.001962
2893.55	0.0016873
2903.19	0.001742
2912.84	0.002382
2922.48	0.003642
2932.13	0.004412
2941.77	0.004342
2951.42	0.003822
2961.06	0.002532
2970.71	0.002172
2980.35	0.002082
2990	0.002052
2999.64	0.002522
3009.29	0.002522
3018.93	0.003262
3028.58	0.003892
3038.22	0.004082
3047.87	0.004292
3057.51	0.004382
3067.16	0.005572
3076.8	0.005452
3086.45	0.004572
3096.09	0.002552
3105.74	0.001579
3115.38	0.0010777
3125.03	0.00076364
3134.67	0.0006762
3144.32	0.000456
3153.96	0.000413
3163.61	0.000266
3173.25	0.000521
3182.9	0.000387
3192.54	0.000323
3202.19	0.000461
3211.83	0.000175
3221.48	0.000229
3231.12	0.000391
3240.77	0.000131
3250.41	0.000327
3260.06	0.000239
3269.7	0.000336
3279.35	8.6e-05
3289	0.000233
3298.64	0.000253
3308.29	0.00037
3317.93	0.000378
3327.58	0.000267
3337.22	0.000454
3346.87	0.000343
3356.51	0.000341
3366.16	0.000294
3375.8	0.000256
3385.45	0.000433
3395.09	0.000219
3404.74	0.000234
3414.38	0.000307
3424.03	0.00038
3433.67	0.000464
3443.32	0.000276
3452.96	0.000462
3462.61	0.00029
3472.25	0.000411
3481.9	0.000378
3491.54	0.000376
3501.19	0.000308
3510.83	0.000419
3520.48	0.000295
3530.12	0.000335
3539.77	0.000368
3549.41	0.000519
3559.06	0.000323
3568.7	0.000414
3578.35	0.000579
3587.99	0.000273
3597.64	0.000397
3607.28	0.000279
3616.93	0.000316
3626.57	0.000138
3636.22	0.000581
3645.86	0.000314
3655.51	4e-05
3665.15	0.000322
3674.8	0.000106
3684.44	0.000304
3694.09	0.000371
3703.73	0.000352
3713.38	0.000317
3723.02	0.000153
3732.67	0.000172
3742.31	0.000368
3751.96	0.000134
3761.6	0.000339
3771.25	0.000461
3780.89	0.000583
3790.54	0.000491
3800.18	0.000358
3809.83	0.000213
3819.47	0.00038
3829.12	0.000296
3838.76	0.000336
3848.41	0.00038
3858.05	0.000249
3867.7	0.000372
3877.34	0.000372
3886.99	0.000236
3896.63	0.000435
3906.28	0.000419
3915.92	0.000314
3925.57	0.000377
3935.21	0.000247
3944.86	0.000406
3954.5	0.000526
3964.15	0.000332
3973.79	0.000297
3983.44	0.000441
3993.08	0.000448
