Infrared Spectrum: 4,4,4-Trifluorobutanol
Formula: C 4 H 7 F 3 O
CAS: 461-18-7
State: gas
Origin: EPA-IR VAPOR PHASE LIBRARY
1/CM	ABSORBANCE
549.8	0.00266
559.445	0.0017539
569.09	0.00314
578.734	0.001016
588.379	0.00241
598.024	0.0014804
607.669	0.0014294
617.313	0.000564
626.958	0.00116089
636.603	0.00119857
646.248	0.00238
655.893	0.0017225
665.537	0.0020169
675.182	0.0019889
684.827	0.0018656
694.472	0.0015765
704.116	0.00115508
713.761	0.0019743
723.406	0.0012545
733.051	0.001863
742.695	0.0012436
752.34	0.0013716
761.985	0.0016054
771.63	0.0019525
781.275	0.00112911
790.919	0.0012359
800.564	0.0018766
810.209	0.0014941
819.854	0.00297
829.498	0.00283
839.143	0.00256
848.788	0.00211
858.433	0.0017343
868.078	0.00236
877.722	0.0020963
887.367	0.0017406
897.012	0.0016431
906.657	0.0018517
916.301	0.00088
925.946	0.0017862
935.591	0.0016574
945.236	0.00244
954.88	0.0019275
964.525	0.0012854
974.17	0.0018787
983.815	0.0020063
993.46	0.00353
1003.1	0.00393
1012.75	0.00719
1022.39	0.00987
1032.04	0.01221
1041.68	0.01287
1051.33	0.01214
1060.97	0.01119
1070.62	0.00947
1080.26	0.00516
1089.91	0.00602
1099.55	0.00514
1109.2	0.00499
1118.84	0.00742
1128.49	0.01199
1138.13	0.01535
1147.78	0.01733
1157.42	0.01737
1167.07	0.01327
1176.71	0.00971
1186.36	0.00728
1196	0.00773
1205.64	0.00836
1215.29	0.00988
1224.93	0.00896
1234.58	0.01208
1244.22	0.01546
1253.87	0.02205
1263.51	0.02045
1273.16	0.01313
1282.8	0.00911
1292.45	0.0083
1302.09	0.00713
1311.74	0.00657
1321.38	0.00672
1331.03	0.00698
1340.67	0.00647
1350.32	0.00485
1359.96	0.00448
1369.61	0.00543
1379.25	0.00655
1388.9	0.00688
1398.54	0.0055
1408.18	0.00335
1417.83	0.00265
1427.47	0.00216
1437.12	0.00275
1446.76	0.00329
1456.41	0.00334
1466.05	0.00256
1475.7	0.00215
1485.34	0.0019196
1494.99	0.0017985
1504.63	0.0012485
1514.28	0.0015765
1523.92	0.0015127
1533.57	0.0017035
1543.21	0.0015133
1552.86	0.0017765
1562.5	0.0014496
1572.15	0.0014525
1581.79	0.0015572
1591.44	0.0014219
1601.08	0.0012527
1610.73	0.0013961
1620.37	0.0015765
1630.01	0.001512
1639.66	0.0015401
1649.3	0.0014722
1658.95	0.0017915
1668.59	0.0018034
1678.24	0.0016932
1687.88	0.0013223
1697.53	0.0016789
1707.17	0.0018384
1716.82	0.0016736
1726.46	0.0017354
1736.11	0.001615
1745.75	0.0013278
1755.4	0.0014657
1765.04	0.0015662
1774.69	0.0016088
1784.33	0.0016959
1793.98	0.001523
1803.62	0.0015865
1813.27	0.0016327
1822.91	0.0013532
1832.55	0.0015481
1842.2	0.001532
1851.84	0.0015044
1861.49	0.0015259
1871.13	0.0016568
1880.78	0.0015939
1890.42	0.00129
1900.07	0.0014374
1909.71	0.0017452
1919.36	0.0015736
1929	0.0015834
1938.65	0.0014545
1948.29	0.0014569
1957.94	0.0018066
1967.58	0.0017201
1977.23	0.001359
1986.87	0.0013124
1996.52	0.0014863
2006.16	0.0014898
2015.81	0.0017053
2025.45	0.0013421
2035.1	0.0013701
2044.74	0.000902
2054.38	0.0012836
2064.03	0.0012977
2073.67	0.0015441
2083.32	0.0016162
2092.96	0.0015248
2102.61	0.0017354
2112.25	0.0014174
2121.9	0.0013283
2131.54	0.0012283
2141.19	0.0014921
2150.83	0.0014202
2160.48	0.000857
2170.12	0.0016143
2179.77	0.0015998
2189.41	0.0014799
2199.06	0.0012704
2208.7	0.0015469
2218.35	0.0012684
2227.99	0.0010143
2237.64	0.00116142
2247.28	0.0015479
2256.92	0.0010141
2266.57	0.001672
2276.21	0.0012544
2285.86	0.0012596
2295.5	0.00115926
2305.15	0.0013104
2314.79	0.00113862
2324.44	0.0013807
2334.08	0.0014602
2343.73	0.0015021
2353.37	0.0012244
2363.02	0.000835
2372.66	0.0010255
2382.31	0.0014665
2391.95	0.0014685
2401.6	0.0015849
2411.24	0.0013608
2420.89	0.001391
2430.53	0.0010619
2440.18	0.0013399
2449.82	0.0013476
2459.47	0.0014908
2469.11	0.0015021
2478.75	0.00116313
2488.4	0.0013899
2498.04	0.000877
2507.69	0.0013319
2517.33	0.0012617
2526.98	0.0014917
2536.62	0.00110298
2546.27	0.00118031
2555.91	0.000959
2565.56	0.00112265
2575.2	0.0012707
2584.85	0.00118178
2594.49	0.00110917
2604.14	0.0015165
2613.78	0.000994
2623.43	0.0012217
2633.07	0.000885
2642.72	0.0012868
2652.36	0.0012215
2662.01	0.001666
2671.65	0.0014891
2681.29	0.0016369
2690.94	0.0016834
2700.58	0.0014721
2710.23	0.0012675
2719.87	0.0012039
2729.52	0.001401
2739.16	0.0012411
2748.81	0.0012815
2758.45	0.0012982
2768.1	0.00096
2777.74	0.0015351
2787.39	0.0013119
2797.03	0.0016072
2806.68	0.001593
2816.32	0.0016852
2825.97	0.0017112
2835.61	0.0017417
2845.26	0.0016344
2854.9	0.00239
2864.55	0.00229
2874.19	0.00315
2883.84	0.00401
2893.48	0.00345
2903.12	0.00365
2912.77	0.00352
2922.41	0.00288
2932.06	0.00301
2941.7	0.00418
2951.35	0.00488
2960.99	0.00473
2970.64	0.00404
2980.28	0.00431
2989.93	0.00298
2999.57	0.00222
3009.22	0.00218
3018.86	0.0015141
3028.51	0.0017832
3038.15	0.000757
3047.8	0.0015259
3057.44	0.0012248
3067.09	0.001578
3076.73	0.0015749
3086.38	0.0019324
3096.02	0.0015811
3105.67	0.0015405
3115.31	0.00109809
3124.95	0.0012852
3134.6	0.0016664
3144.24	0.0014068
3153.89	0.0017635
3163.53	0.000896
3173.18	0.00218
3182.82	0.0017723
3192.47	0.0010804
3202.11	0.00112786
3211.76	0.000995
3221.4	0.0012602
3231.05	0.000433
3240.69	0.0010726
3250.34	0.00032
3259.98	0.000836
3269.63	0.001385
3279.27	0.000983
3288.92	0.00110323
3298.56	0.000956
3308.21	0.00113208
3317.85	0.001411
3327.49	0.000207
3337.14	0.000915
3346.78	0.00128
3356.43	0.0014343
3366.07	0.00161
3375.72	0.0015212
3385.36	0.0016597
3395.01	0.0017083
3404.65	0.0012788
3414.3	0.00247
3423.94	0.001717
3433.59	0.0020406
3443.23	0.000979
3452.88	0.0010652
3462.52	0.0013757
3472.17	0.00112102
3481.81	0.000244
3491.46	0.0010341
3501.1	0.0018691
3510.75	0.0019479
3520.39	0.000864
3530.04	0.0015967
3539.68	0.0014925
3549.32	0.0012647
3558.97	0.0014526
3568.61	0.0012636
3578.26	0.000735
3587.9	0.0016312
3597.55	0.000694
3607.19	0.0010654
3616.84	0.00118115
3626.48	0.0019423
3636.13	0.0014231
3645.77	0.00264
3655.42	0.00303
3665.06	0.00329
3674.71	0.00312
3684.35	0.00257
3694	0.00218
3703.64	0.0017441
3713.29	0.0010901
3722.93	0.0016449
3732.58	0.0014563
3742.22	0.0018072
3751.86	0.00113719
3761.51	0.0014128
3771.15	0.0012801
3780.8	0.0016735
3790.44	0.0013271
3800.09	0.000748
3809.73	0.0013989
3819.38	0.0010458
3829.02	0.00245
3838.67	0.00112754
3848.31	0
3857.96	0.00115984
3867.6	0.001942
3877.25	0.0015044
3886.89	0.00119584
3896.54	0.0018566
3906.18	0.0017308
3915.83	0.001967
3925.47	0.000941
3935.12	0.0010086
3944.76	0.0020993
3954.41	0.00061
3964.05	0.0015746
3973.69	0.00111123
3983.34	0.0012301
3992.98	0.00119136
