Infrared Spectrum: 5-Fluoro-m-xylene
Formula: C8 H9 F
CAS: 461-97-2
State: gas
Origin: EPA-IR VAPOR PHASE LIBRARY
1/CM	ABSORBANCE
549.8	0.0006467
559.445	0.003639
569.09	0.006469
578.734	0.006669
588.379	0.001669
598.024	0
607.669	0.000393
617.313	0.0004297
626.958	0.000396
636.603	0.0004274
646.248	0.0005551
655.893	0.002549
665.537	0.007899
675.182	0.020439
684.827	0.007979
694.472	0.004039
704.116	0.001082
713.761	0.0006146
723.406	0.0007244
733.051	9.4e-05
742.695	0.00051082
752.34	0.0004617
761.985	0.00023
771.63	0.00052992
781.275	0.0005618
790.919	0.000879
800.564	0.0008637
810.209	0.0014635
819.854	0.005899
829.498	0.018249
839.143	0.045609
848.788	0.021149
858.433	0.011629
868.078	0.003829
877.722	0.005389
887.367	0.002629
897.012	0.002039
906.657	0.001989
916.301	0.003099
925.946	0.006669
935.591	0.013379
945.236	0.015829
954.88	0.010719
964.525	0.004919
974.17	0.003539
983.815	0.005019
993.46	0.007989
1003.1	0.012079
1012.75	0.015329
1022.39	0.013049
1032.04	0.008059
1041.68	0.005039
1051.33	0.004579
1060.97	0.003929
1070.62	0.002469
1080.26	0.001939
1089.91	0.0011079
1099.55	0.002349
1109.2	0.004519
1118.84	0.016509
1128.49	0.033419
1138.13	0.035309
1147.78	0.016549
1157.42	0.002439
1167.07	0.001579
1176.71	0.0010215
1186.36	0.0013925
1196	0.0010692
1205.64	0.0013812
1215.29	0.0012395
1224.93	0.001619
1234.58	0.0011961
1244.22	0.0013405
1253.87	0.0012809
1263.51	0.001969
1273.16	0.002719
1282.8	0.006419
1292.45	0.022149
1302.09	0.045599
1311.74	0.045029
1321.38	0.018949
1331.03	0.004139
1340.67	0.002479
1350.32	0.002799
1359.96	0.003909
1369.61	0.004659
1379.25	0.004869
1388.9	0.005049
1398.54	0.006599
1408.18	0.007959
1417.83	0.009689
1427.47	0.015219
1437.12	0.021879
1446.76	0.024449
1456.41	0.022269
1466.05	0.019039
1475.7	0.017419
1485.34	0.016569
1494.99	0.016259
1504.63	0.015629
1514.28	0.015579
1523.92	0.015789
1533.57	0.015509
1543.21	0.014809
1552.86	0.014909
1562.5	0.018579
1572.15	0.029249
1581.79	0.040099
1591.44	0.044779
1601.08	0.047249
1610.73	0.064499
1620.37	0.059209
1630.01	0.031539
1639.66	0.010839
1649.3	0.005279
1658.95	0.003409
1668.59	0.002279
1678.24	0.002369
1687.88	0.002789
1697.53	0.003639
1707.17	0.004559
1716.82	0.005069
1726.46	0.003809
1736.11	0.002079
1745.75	0.0012564
1755.4	0.001055
1765.04	0.000904
1774.69	0.0007707
1784.33	0.0006827
1793.98	0.0007743
1803.62	0.0006426
1813.27	0.0007273
1822.91	0.0007636
1832.55	0.0006381
1842.2	0.0007281
1851.84	0.0007023
1861.49	0.0008017
1871.13	0.0009662
1880.78	0.0010844
1890.42	0.0011019
1900.07	0.0009318
1909.71	0.0008476
1919.36	0.0008124
1929	0.000819
1938.65	0.0008108
1948.29	0.0008075
1957.94	0.0008572
1967.58	0.0007519
1977.23	0.00058041
1986.87	0.0006997
1996.52	0.0006152
2006.16	0.0006396
2015.81	0.0005643
2025.45	0.0006111
2035.1	0.00051305
2044.74	0.00055433
2054.38	0.0006482
2064.03	0.0007437
2073.67	0.0010388
2083.32	0.0009465
2092.96	0.0008516
2102.61	0.0007292
2112.25	0.0008125
2121.9	0.0006666
2131.54	0.0008528
2141.19	0.0009561
2150.83	0.0008507
2160.48	0.0009674
2170.12	0.0008059
2179.77	0.0008445
2189.41	0.0009119
2199.06	0.0007965
2208.7	0.00059821
2218.35	0.00058763
2227.99	0.0008387
2237.64	0.0008678
2247.28	0.0010383
2256.92	0.0008901
2266.57	0.0008331
2276.21	0.00059846
2285.86	0.00054809
2295.5	0.00049558
2305.15	0.0008306
2314.79	0.0008158
2324.44	0.0008755
2334.08	0.0008356
2343.73	0.0007183
2353.37	0.0007076
2363.02	0.0006422
2372.66	0.0006873
2382.31	0.0007938
2391.95	0.0009213
2401.6	0.0010733
2411.24	0.0011437
2420.89	0.0013992
2430.53	0.001579
2440.18	0.0014343
2449.82	0.0012552
2459.47	0.0009026
2469.11	0.0007594
2478.75	0.0008606
2488.4	0.0007725
2498.04	0.00059028
2507.69	0.000758
2517.33	0.0007613
2526.98	0.0007646
2536.62	0.0008407
2546.27	0.0009052
2555.91	0.0007175
2565.56	0.0007383
2575.2	0.0006422
2584.85	0.0006317
2594.49	0.0008328
2604.14	0.0007459
2613.78	0.0007532
2623.43	0.00051614
2633.07	0.0006288
2642.72	0.00054342
2652.36	0.00054388
2662.01	0.00054948
2671.65	0.00059652
2681.29	0.0007435
2690.94	0.0009198
2700.58	0.0008475
2710.23	0.00097
2719.87	0.0011212
2729.52	0.0013711
2739.16	0.002099
2748.81	0.002309
2758.45	0.001599
2768.1	0.0012082
2777.74	0.0011185
2787.39	0.001119
2797.03	0.0013379
2806.68	0.0014663
2816.32	0.001769
2825.97	0.002249
2835.61	0.003189
2845.26	0.004439
2854.9	0.006909
2864.55	0.010609
2874.19	0.012789
2883.84	0.012429
2893.48	0.010829
2903.12	0.012099
2912.77	0.016909
2922.41	0.025989
2932.06	0.030889
2941.7	0.027219
2951.35	0.017639
2960.99	0.011629
2970.64	0.008969
2980.28	0.008519
2989.93	0.009769
2999.57	0.011059
3009.22	0.012969
3018.86	0.016339
3028.51	0.018759
3038.15	0.016019
3047.8	0.011459
3057.44	0.010929
3067.09	0.010049
3076.73	0.007699
3086.38	0.004999
3096.02	0.003479
3105.67	0.002319
3115.31	0.001699
3124.95	0.0013521
3134.6	0.001093
3144.24	0.0007348
3153.89	0.0007699
3163.53	0.0009514
3173.18	0.0006369
3182.82	0.0007578
3192.47	0.00051739
3202.11	0.00051354
3211.76	0.0004664
3221.4	0.0004337
3231.05	0.0006603
3240.69	0.0007608
3250.34	0.0007324
3259.98	0.0008717
3269.63	0.0006406
3279.27	0.00059569
3288.92	0.000651
3298.56	0.0006076
3308.21	0.00052257
3317.85	0.0006046
3327.49	0.0005667
3337.14	0.0004848
3346.78	0.0004499
3356.43	0.0004275
3366.07	0.00038
3375.72	0.000303
3385.36	0.00051989
3395.01	0.00057877
3404.65	0.000327
3414.3	0.0004545
3423.94	0.0006183
3433.59	0.0006978
3443.23	0.0006016
3452.88	0.00056453
3462.52	0.0006448
3472.17	0.0006581
3481.81	0.00056221
3491.46	0.0006204
3501.1	0.000309
3510.75	0.0004492
3520.39	0.0007297
3530.04	0.0006315
3539.68	0.00059386
3549.32	0.000631
3558.97	0.0007039
3568.61	0.0006539
3578.26	0.00058434
3587.9	0.000367
3597.55	0.0006639
3607.19	0.0007117
3616.84	0.000344
3626.48	0.00058742
3636.13	0.0007387
3645.77	0.0004554
3655.42	0.00056998
3665.06	0.0004876
3674.71	0.0004328
3684.35	0.0006006
3694	0.000508178
3703.64	0.00050955
3713.29	0.00057975
3722.93	0.00054223
3732.58	0.000384
3742.22	0.00051015
3751.86	0.000367
3761.51	0.000317
3771.15	0.0006051
3780.8	0.0004224
3790.44	0.000388
3800.09	0.000503655
3809.73	0.0005835
3819.38	0.0007044
3829.02	0.00051653
3838.67	0.00052751
3848.31	0.0005752
3857.96	0.0006957
3867.6	0.00055626
3877.25	0.0007139
3886.89	0.0006945
3896.54	0.0006652
3906.18	0.000721
3915.83	0.0006546
3925.47	0.0006392
3935.12	0.00051565
3944.76	0.0006023
3954.41	0.0007585
3964.05	0.000763
3973.69	0.0010307
3983.34	0.00058677
3992.98	0.0009097
