Infrared Spectrum: 4-TRIAZOLECARBOXAMIDE, 5-(3,3-DIMETHYLTRIAZENYL)-
Formula: C5 H9 N7 O
CAS: 46192-24-9
State: SOLID (1 mg / 650 mg KBr DISC)
Class: COBLENTZ III
Instrument: PERKIN-ELMER 521 (GRATING)
Sampling: TRANSMISSION
Resolution: 4
Origin: SOUTHERN RESEARCH INSTITUTE
1/CM	TRANSMITTANCE
250.44	0.171
260.994	0.2179
271.548	0.2698
282.102	0.3348
292.656	0.4208
303.21	0.4769
313.765	0.494
324.319	0.4773
334.873	0.4536
345.427	0.5969
355.981	0.6756
366.535	0.7037
377.089	0.708
387.643	0.708
398.197	0.708
408.751	0.6971
419.305	0.689
429.86	0.689
440.414	0.7059
450.968	0.7046
461.522	0.7386
472.076	0.7403
482.63	0.7352
493.184	0.729
503.738	0.7142
514.292	0.7052
524.846	0.6914
535.4	0.6676
545.954	0.6
556.509	0.6458
567.063	0.6434
577.617	0.6169
588.171	0.5733
598.725	0.4414
609.279	0.3058
619.833	0.2975
630.387	0.456
640.941	0.366
651.495	0.7314
662.049	0.803
672.604	0.8033
683.158	0.7698
693.712	0.6491
704.266	0.8469
714.82	0.874
725.374	0.8653
735.928	0.873
746.482	0.8703
757.036	0.8594
767.59	0.8318
778.144	0.7618
788.699	0.8099
799.253	0.8286
809.807	0.8238
820.361	0.8041
830.915	0.7779
841.469	0.729
852.023	0.6446
862.577	0.6291
873.131	0.7083
883.685	0.7491
894.239	0.6891
904.793	0.5917
915.348	0.8626
925.902	0.865
936.456	0.8625
947.01	0.8575
957.564	0.848
968.118	0.8214
978.672	0.7039
989.226	0.7214
999.78	0.8175
1010.33	0.8205
1020.89	0.7981
1031.44	0.7507
1042	0.7472
1052.55	0.7425
1063.1	0.6964
1073.66	0.5385
1084.21	0.3311
1094.77	0.6301
1105.32	0.6464
1115.88	0.6937
1126.43	0.5554
1136.98	0.7157
1147.54	0.782
1158.09	0.7754
1168.65	0.7405
1179.2	0.6832
1189.75	0.76
1200.31	0.7386
1210.86	0.7036
1221.42	0.6636
1231.97	0.636
1242.52	0.6247
1253.08	0.612
1263.63	0.6074
1274.19	0.6123
1284.74	0.5732
1295.29	0.5288
1305.85	0.4827
1316.4	0.4007
1326.96	0.2412
1337.51	0.1735
1348.07	0.2592
1358.62	0.3543
1369.17	0.447
1379.73	0.395
1390.28	0.3767
1400.84	0.4476
1411.39	0.6552
1421.94	0.5344
1432.5	0.388
1443.05	0.455
1453.61	0.3281
1464.16	0.2429
1474.71	0.1848
1485.27	0.3108
1495.82	0.4493
1506.38	0.6192
1516.93	0.7081
1527.48	0.732
1538.04	0.7259
1548.59	0.6976
1559.15	0.635
1569.7	0.5724
1580.26	0.542
1590.81	0.3895
1601.36	0.2653
1611.92	0.41
1622.47	0.4807
1633.03	0.3902
1643.58	0.1529
1654.13	0.154
1664.69	0.1665
1675.24	0.1757
1685.8	0.2058
1696.35	0.4955
1706.9	0.7053
1717.46	0.7701
1728.01	0.803
1738.57	0.831
1749.12	0.866
1759.67	0.886
1770.23	0.893
1780.78	0.896
1791.34	0.892
1801.89	0.888
1812.45	0.908
1823	0.917
1833.55	0.921
1844.11	0.9249
1854.66	0.925
1865.22	0.922
1875.77	0.918
1886.32	0.9209
1896.88	0.9259
1907.43	0.928
1917.99	0.9241
1928.54	0.921
1939.09	0.9171
1949.65	0.9161
1960.2	0.9121
1970.76	0.91
1981.31	0.91
1991.86	0.91
2002.42	0.91
2012.97	0.9088
2023.53	0.907
2034.08	0.9067
2044.64	0.904
2055.19	0.8973
2065.74	0.895
2076.3	0.893
2086.85	0.893
2097.41	0.893
2107.96	0.891
2118.51	0.888
2129.07	0.8843
2139.62	0.879
2150.18	0.876
2160.73	0.878
2171.28	0.879
2181.84	0.8763
2192.39	0.875
2202.95	0.8732
2213.5	0.871
2224.05	0.871
2234.61	0.869
2245.16	0.8633
2255.72	0.8572
2266.27	0.849
2276.83	0.848
2287.38	0.848
2297.93	0.849
2308.49	0.849
2319.04	0.85
2329.6	0.8463
2340.15	0.8423
2350.7	0.8402
2361.26	0.8333
2371.81	0.832
2382.37	0.831
2392.92	0.825
2403.47	0.8155
2414.03	0.8083
2424.58	0.8012
2435.14	0.795
2445.69	0.7932
2456.24	0.79
2466.8	0.791
2477.35	0.7802
2487.91	0.777
2498.46	0.774
2509.01	0.7722
2519.57	0.764
2530.12	0.7513
2540.68	0.7365
2551.23	0.7233
2561.79	0.7122
2572.34	0.705
2582.89	0.697
2593.45	0.693
2604	0.6872
2614.56	0.6782
2625.11	0.672
2635.66	0.6702
2646.22	0.668
2656.77	0.6547
2667.33	0.6345
2677.88	0.6165
2688.43	0.6032
2698.99	0.598
2709.54	0.5902
2720.1	0.5822
2730.65	0.5693
2741.2	0.5528
2751.76	0.5352
2762.31	0.5262
2772.87	0.5057
2783.42	0.4943
2793.98	0.4842
2804.53	0.4673
2815.08	0.458
2825.64	0.4503
2836.19	0.4332
2846.75	0.4252
2857.3	0.4298
2867.85	0.4407
2878.41	0.443
2888.96	0.443
2899.52	0.4477
2910.07	0.452
2920.62	0.451
2931.18	0.4598
2941.73	0.4747
2952.29	0.4818
2962.84	0.484
2973.39	0.498
2983.95	0.5
2994.5	0.493
3005.06	0.4792
3015.61	0.4798
3026.17	0.481
3036.72	0.4752
3047.27	0.471
3057.83	0.4653
3068.38	0.4582
3078.94	0.4502
3089.49	0.4537
3100.04	0.4628
3110.6	0.4688
3121.15	0.469
3131.71	0.4642
3142.26	0.4463
3152.81	0.4333
3163.37	0.4143
3173.92	0.4
3184.48	0.4
3195.03	0.4042
3205.58	0.3902
3216.14	0.3953
3226.69	0.4375
3237.25	0.439
3247.8	0.441
3258.36	0.4537
3268.91	0.4845
3279.46	0.4825
3290.02	0.4509
3300.57	0.4282
3311.13	0.4252
3321.68	0.402
3332.23	0.3642
3342.79	0.2964
3353.34	0.2327
3363.9	0.202
3374.45	0.2183
3385	0.2715
3395.56	0.3193
3406.11	0.3515
3416.67	0.3777
3427.22	0.4033
3437.77	0.4275
3448.33	0.4575
3458.88	0.4787
3469.44	0.4997
3479.99	0.5175
3490.55	0.5357
3501.1	0.5475
3511.65	0.5637
3522.21	0.5845
3532.76	0.6057
3543.32	0.6297
3553.87	0.6498
3564.42	0.6713
3574.98	0.6996
3585.53	0.7243
3596.09	0.7425
3606.64	0.7675
3617.19	0.793
3627.75	0.8108
3638.3	0.8248
3648.86	0.829
3659.41	0.829
3669.96	0.828
3680.52	0.8318
3691.07	0.844
3701.63	0.846
3712.18	0.846
3722.74	0.845
3733.29	0.846
3743.84	0.845
3754.4	0.845
3764.95	0.8423
3775.51	0.842
3786.06	0.84
3796.61	0.837
3807.17	0.836
3817.72	0.835
3828.28	0.829
3838.83	0.829
3849.38	0.829
3859.94	0.825
3870.49	0.825
3881.05	0.824
3891.6	0.824
3902.15	0.824
3912.71	0.8202
3923.26	0.819
3933.82	0.8192
3944.37	0.816
3954.93	0.815
3965.48	0.816
3976.03	0.8142
3986.59	0.814
3997.14	0.815
