Infrared Spectrum: Diethoxymethane
Formula: C 5 H 12 O 2
CAS: 462-95-3
State: gas
Instrument: HP-GC/MS/IRD
Origin: NIST Mass Spectrometry Data Center
1/CM	ABSORBANCE
550	0.0005076
562	0.0001222
574	7.05e-05
586	0.0001786
598	0.0002444
610	0.0005358
622	0.0003995
634	0.0003666
646	0.0002726
658	0.000235
670	7.99e-05
682	6.58e-05
694	0.0001598
706	0.0001645
718	0.0001645
730	0.0001222
742	0.0002115
754	0.0003384
766	0.0003478
778	0.0004465
790	0.0006251
802	0.0008366
814	0.000987
826	0.0016215
838	0.0024205
850	0.0030409
862	0.0023453
874	0.0015886
886	0.0009447
898	0.0008131
910	0.0008084
922	0.0007426
934	0.0009118
946	0.0012925
958	0.0020633
970	0.0036566
982	0.0068197
994	0.0103588
1006	0.0134702
1018	0.0165722
1030	0.0243742
1042	0.0393719
1054	0.047
1066	0.0401474
1078	0.0329
1090	0.0336003
1102	0.0338494
1114	0.0314336
1126	0.0296711
1138	0.0267665
1150	0.0221981
1162	0.0186731
1174	0.016403
1186	0.0139637
1198	0.0095833
1210	0.0051465
1222	0.0028106
1234	0.0018612
1246	0.0016262
1258	0.0017766
1270	0.0020586
1282	0.0020962
1294	0.0018988
1306	0.0016826
1318	0.0014335
1330	0.0013019
1342	0.0014523
1354	0.0021902
1366	0.0034639
1378	0.0066834
1390	0.0086104
1402	0.0063403
1414	0.0035626
1426	0.0026743
1438	0.0024487
1450	0.0023218
1462	0.0022278
1474	0.0020962
1486	0.0018048
1498	0.0012596
1510	0.0008648
1522	0.0005452
1534	0.0004465
1546	0.0003337
1558	0.0002303
1570	0.0002209
1582	0.0002068
1594	0.0002068
1606	0.0001974
1618	0.0002209
1630	0.0002726
1642	0.000235
1654	0.0002632
1666	0.000235
1678	0.0002585
1690	0.0002773
1702	0.0002444
1714	0.0001739
1726	0.0002068
1738	0.0001128
1750	9.4e-05
1762	0.0001081
1774	6.11e-05
1786	7.05e-05
1798	5.17e-05
1810	0.0001222
1822	9.87e-05
1834	0.0001081
1846	0.0001551
1858	0.0002491
1870	0.0003149
1882	0.0003901
1894	0.0004465
1906	0.0004418
1918	0.0004418
1930	0.0004982
1942	0.0005734
1954	0.0006627
1966	0.0007003
1978	0.0006016
1990	0.0005029
2002	0.0004465
2014	0.0004089
2026	0.0003807
2038	0.0003149
2050	0.0002867
2062	0.0002538
2074	0.0002068
2086	0.0002632
2098	0.0002914
2110	0.0003102
2122	0.0003478
2134	0.0003948
2146	0.0003337
2158	0.0002679
2170	0.0002115
2182	0.0001974
2194	0.0001739
2206	0.0002068
2218	0.0001316
2230	0.0001645
2242	0.000141
2254	0.0001927
2266	0.0002068
2278	0.0001598
2290	0.0001363
2302	0.0001645
2314	0.0001692
2326	0.0001175
2338	0.000141
2350	0.0001034
2362	0.0001504
2374	0.0001598
2386	0.0001222
2398	0.000141
2410	0.0001598
2422	0.0001363
2434	9.4e-05
2446	7.52e-05
2458	7.05e-05
2470	7.52e-05
2482	0.0001269
2494	8.46e-05
2506	0.0001128
2518	9.87e-05
2530	7.99e-05
2542	0.0001081
2554	0.0001692
2566	0.0001457
2578	0.0002397
2590	0.000188
2602	0.0002867
2614	0.0003995
2626	0.0004136
2638	0.0004183
2650	0.0005076
2662	0.00047
2674	0.000517
2686	0.0005452
2698	0.0007332
2710	0.0009118
2722	0.0011797
2734	0.0015557
2746	0.001974
2758	0.0025709
2770	0.0032477
2782	0.0036707
2794	0.0038681
2806	0.004042
2818	0.0041407
2830	0.0047376
2842	0.0062228
2854	0.0092684
2866	0.0141329
2878	0.0188423
2890	0.019928
2902	0.0183582
2914	0.0180339
2926	0.0201301
2938	0.0221182
2950	0.0201724
2962	0.0176203
2974	0.0199421
2986	0.0200408
2998	0.0137334
3010	0.0073508
3022	0.0041313
3034	0.0025897
3046	0.0018424
3058	0.0012925
3070	0.0010669
3082	0.0007379
3094	0.0006627
3106	0.0006533
3118	0.0005499
3130	0.000517
3142	0.0004606
3154	0.0004042
3166	0.0004465
3178	0.0004982
3190	0.0003901
3202	0.0004465
3214	0.0004653
3226	0.0003572
3238	0.0002632
3250	0.0001739
3262	0.0002867
3274	0.0002867
3286	0.0002726
3298	0.0001974
3310	0.0002679
3322	0.0002021
3334	0.000235
3346	0.0001692
3358	0.0002491
3370	0.0001504
3382	0.0001739
3394	0.0001927
3406	0.0001457
3418	0.0002632
3430	0.0002021
3442	0.0001645
3454	0.0001081
3466	0.0002538
3478	0.0001598
3490	0.0001974
3502	0.0001833
3514	0.0002397
3526	0.0001974
3538	8.46e-05
3550	0.0002068
3562	0.0001833
3574	0.0001363
3586	0.0001974
3598	0.0001833
3610	0.0002397
3622	0.0003008
3634	0.0002303
3646	5.17e-05
3658	0.0002444
3670	0.0001927
3682	0.0002162
3694	0.0003525
3706	0.0002209
3718	0.0002726
3730	0.0002538
3742	0.0002115
3754	0.0003337
3766	0.0003243
3778	0.0003008
3790	0.0002914
3802	0.0002538
3814	0.000235
3826	0.0002585
3838	0.000282
