Infrared Spectrum: 1,5-Pentanediamine
Formula: C5 H14 N2
CAS: 462-94-2
State: LIQUID (NEAT)
Class: COBLENTZ III
Instrument: DOW KBr FOREPRISM-GRATING
Instrument parameters: BLAZED AT 3.5, 12.0, 20.0 MICRON AND CHANGED AT 5.0, 7.5, 14.9 MICRON
Sampling: TRANSMISSION
Path length: CAPILLARY
Resolution: 2
Origin: DOW CHEMICAL COMPANY
1/CM	TRANSMITTANCE
3790	0.8678
3781	0.8568
3772	0.8537
3763	0.8525
3754	0.8521
3745	0.8517
3736	0.8513
3727	0.8502
3718	0.8474
3709	0.8438
3700	0.8388
3691	0.8328
3682	0.8258
3673	0.8176
3664	0.8022
3655	0.7985
3646	0.795
3637	0.7887
3628	0.7812
3619	0.7745
3610	0.765
3601	0.7506
3592	0.7358
3583	0.7214
3574	0.7053
3565	0.6878
3556	0.6693
3547	0.6519
3538	0.6354
3529	0.618
3520	0.6005
3511	0.5857
3502	0.5701
3493	0.5564
3484	0.5464
3475	0.5365
3466	0.5265
3457	0.5165
3448	0.5066
3439	0.497
3430	0.4879
3421	0.4782
3412	0.4686
3403	0.4581
3394	0.4429
3385	0.4125
3376	0.3806
3367	0.3554
3358	0.3548
3349	0.3671
3340	0.3779
3331	0.3868
3322	0.3877
3313	0.3779
3304	0.3664
3295	0.3586
3286	0.3555
3277	0.3579
3268	0.365
3259	0.3741
3250	0.3842
3241	0.3945
3232	0.4047
3223	0.411
3214	0.4136
3205	0.4159
3196	0.4177
3187	0.42
3178	0.4246
3169	0.4341
3160	0.4465
3151	0.458
3142	0.4696
3133	0.4789
3124	0.488
3115	0.499
3106	0.5094
3097	0.5182
3088	0.5264
3079	0.5329
3070	0.5389
3061	0.544
3052	0.549
3043	0.5539
3034	0.5575
3025	0.56
3016	0.5619
3007	0.5632
2998	0.5603
2989	0.552
2980	0.532
2971	0.497
2962	0.4088
2953	0.3414
2944	0.2739
2935	0.2199
2926	0.2115
2917	0.2239
2908	0.2476
2899	0.2881
2890	0.3371
2881	0.3594
2872	0.306
2863	0.2615
2854	0.2579
2845	0.2995
2836	0.3716
2827	0.4302
2818	0.4857
2809	0.5285
2800	0.584
2791	0.618
2782	0.6365
2773	0.6444
2764	0.6418
2755	0.6401
2746	0.6467
2737	0.6568
2728	0.6682
2719	0.6815
2710	0.6911
2701	0.6954
2692	0.6996
2683	0.7041
2674	0.7101
2665	0.7161
2656	0.7211
2647	0.7257
2638	0.7301
2629	0.734
2620	0.7381
2611	0.7419
2602	0.7461
2593	0.75
2584	0.754
2575	0.7578
2566	0.7611
2557	0.7637
2548	0.7662
2539	0.7689
2530	0.7715
2521	0.7742
2512	0.7765
2503	0.7788
2494	0.7811
2485	0.783
2476	0.7845
2467	0.7861
2458	0.788
2449	0.7896
2440	0.7908
2431	0.7921
2422	0.7931
2413	0.7938
2404	0.7945
2395	0.7947
2386	0.7953
2377	0.7965
2368	0.7986
2359	0.8007
2350	0.8022
2341	0.799
2332	0.7957
2323	0.7928
2314	0.7904
2305	0.7883
2296	0.7862
2287	0.7844
2278	0.7832
2269	0.7818
2260	0.781
2251	0.7804
2242	0.7797
2233	0.7792
2224	0.7791
2215	0.779
2206	0.7796
2197	0.7801
2188	0.7808
2179	0.7818
2170	0.783
2161	0.7842
2152	0.7856
2143	0.7874
2134	0.7892
2125	0.7908
2116	0.7925
2107	0.7943
2098	0.7962
2089	0.7984
2080	0.7994
2071	0.8004
2062	0.8012
2053	0.8021
2044	0.8037
2035	0.8058
2026	0.8071
2017	0.808
2008	0.8088
1999	0.8091
1990	0.8092
1981	0.8087
1972	0.8065
1963	0.8075
1954	0.8071
1945	0.8061
1936	0.8054
1927	0.8051
1918	0.8046
1909	0.8045
1900	0.8049
1891	0.8058
1882	0.8064
1873	0.8068
1864	0.8068
1855	0.8068
1846	0.8061
1837	0.8055
1828	0.8053
1819	0.8051
1810	0.8028
1801	0.8001
1792	0.7978
1783	0.7958
1774	0.796
1765	0.794
1756	0.7914
1747	0.7841
1738	0.7728
1729	0.7655
1720	0.7578
1711	0.7465
1702	0.7332
1693	0.7144
1684	0.6846
1675	0.6619
1666	0.6425
1657	0.6353
1648	0.6323
1639	0.6129
1630	0.5876
1621	0.5512
1612	0.5134
1603	0.4693
1594	0.4655
1585	0.505
1576	0.5501
1567	0.5968
1558	0.6312
1549	0.6601
1540	0.6865
1531	0.7069
1522	0.7154
1513	0.7168
1504	0.7099
1495	0.6949
1486	0.6688
1477	0.5888
1468	0.5756
1459	0.5488
1450	0.6134
1441	0.6249
1432	0.6581
1423	0.7042
1414	0.7251
1405	0.7039
1396	0.6174
1387	0.5983
1378	0.6383
1369	0.6492
1360	0.6532
1351	0.676
1342	0.6915
1333	0.6778
1324	0.6704
1315	0.6665
1306	0.6755
1297	0.69
1288	0.7081
1279	0.7265
1270	0.7425
1261	0.7478
1252	0.7544
1243	0.7654
1234	0.7738
1225	0.7778
1216	0.7786
1207	0.7783
1198	0.7776
1189	0.7746
1180	0.7601
1171	0.7536
1162	0.7415
1153	0.729
1144	0.715
1135	0.7039
1126	0.6924
1117	0.6792
1108	0.6608
1099	0.6338
1090	0.6198
1081	0.6094
1072	0.5922
1063	0.6095
1054	0.616
1045	0.6162
1036	0.6216
1027	0.6296
1018	0.6266
1009	0.611
1000	0.5966
991	0.582
982	0.5662
973	0.5515
964	0.5362
955	0.5167
946	0.4979
937	0.4833
928	0.468
919	0.451
910	0.4335
901	0.4165
892	0.4145
883	0.4177
874	0.4241
865	0.4312
856	0.4385
847	0.445
838	0.4491
829	0.4499
820	0.4634
811	0.4946
802	0.5234
793	0.5453
784	0.5572
775	0.5715
766	0.5868
757	0.6019
748	0.6076
739	0.5955
730	0.5848
721	0.6146
712	0.6275
703	0.6312
694	0.6326
685	0.6338
676	0.6347
667	0.6257
658	0.6246
649	0.6228
640	0.6216
631	0.6202
622	0.6186
613	0.6187
604	0.6193
595	0.6224
586	0.626
577	0.6284
568	0.6301
559	0.631
550	0.6318
541	0.6323
532	0.6322
523	0.6336
514	0.6373
505	0.6417
496	0.6461
487	0.6515
478	0.6547
469	0.6542
460	0.6519
