Infrared Spectrum: Pyridine, 3-amino-
Formula: C5 H6 N2
CAS: 462-08-8
State: SOLID (1 mg / 650 mg KBr DISC)
Class: COBLENTZ III
Instrument: PERKIN-ELMER 521 (GRATING)
Instrument parameters: FILTERS AT 3150, 2500, 2000, 1150, 700, 410. GRATING CHANGES: 2000, 630
Resolution: 2
Origin: SOUTHERN RESEARCH INSTITUTE
1/CM	TRANSMITTANCE
249.94	0.4509
258.925	0.4811
267.91	0.5498
276.895	0.605
285.88	0.6445
294.865	0.6798
303.85	0.704
312.835	0.7206
321.82	0.7296
330.805	0.7335
339.79	0.7354
348.775	0.7336
357.76	0.7282
366.745	0.7092
375.73	0.6601
384.715	0.448
393.7	0.7543
402.685	0.7378
411.67	0.701
420.655	0.7166
429.64	0.7095
438.625	0.6896
447.61	0.6698
456.595	0.652
465.579	0.6352
474.564	0.6241
483.549	0.6179
492.534	0.611
501.519	0.5921
510.504	0.4827
519.489	0.5164
528.474	0.5625
537.459	0.5009
546.444	0.4149
555.429	0.5988
564.414	0.577
573.399	0.5614
582.384	0.5488
591.369	0.5348
600.354	0.5162
609.339	0.4851
618.324	0.4331
627.309	0.2807
636.294	0.4688
645.279	0.4648
654.264	0.4609
663.249	0.4592
672.234	0.4477
681.219	0.4449
690.204	0.4384
699.189	0.3774
708.174	0.178
717.159	0.5473
726.144	0.6005
735.129	0.6192
744.114	0.6335
753.099	0.6454
762.084	0.6497
771.069	0.6472
780.054	0.6282
789.039	0.487
798.024	0.2743
807.009	0.6868
815.994	0.7787
824.979	0.7985
833.964	0.7852
842.949	0.7502
851.934	0.8384
860.919	0.8483
869.904	0.8484
878.889	0.8453
887.874	0.8199
896.858	0.7413
905.843	0.5721
914.828	0.804
923.813	0.8279
932.798	0.8294
941.783	0.8291
950.768	0.8204
959.753	0.7558
968.738	0.8327
977.723	0.8236
986.708	0.8114
995.693	0.786
1004.68	0.7044
1013.66	0.4947
1022.65	0.6967
1031.63	0.6831
1040.62	0.6163
1049.6	0.8644
1058.59	0.8406
1067.57	0.8047
1076.56	0.7459
1085.54	0.6768
1094.53	0.7287
1103.51	0.7158
1112.5	0.6515
1121.48	0.603
1130.47	0.6499
1139.45	0.7874
1148.44	0.7988
1157.42	0.7935
1166.41	0.7783
1175.39	0.7577
1184.38	0.7122
1193.36	0.7204
1202.35	0.7341
1211.33	0.7228
1220.32	0.6986
1229.3	0.6626
1238.29	0.6175
1247.27	0.5139
1256.26	0.3118
1265.24	0.5606
1274.23	0.4841
1283.21	0.3554
1292.2	0.2587
1301.18	0.5747
1310.17	0.7371
1319.15	0.8664
1328.14	0.8627
1337.12	0.7709
1346.11	0.7402
1355.09	0.8375
1364.08	0.7995
1373.06	0.768
1382.05	0.7483
1391.03	0.714
1400.02	0.6415
1409	0.5651
1417.99	0.4775
1426.97	0.3245
1435.96	0.1484
1444.94	0.6222
1453.93	0.7882
1462.91	0.7174
1471.9	0.5667
1480.88	0.3064
1489.87	0.3733
1498.85	0.8778
1507.84	0.8596
1516.82	0.8195
1525.81	0.7838
1534.79	0.7484
1543.78	0.6885
1552.76	0.5745
1561.75	0.5088
1570.73	0.2084
1579.72	0.3388
1588.7	0.2828
1597.69	0.381
1606.67	0.7119
1615.66	0.5917
1624.64	0.4352
1633.63	0.4097
1642.61	0.6237
1651.6	0.6769
1660.58	0.821
1669.57	0.8934
1678.55	0.9046
1687.54	0.9058
1696.52	0.9065
1705.51	0.9143
1714.49	0.9272
1723.48	0.9272
1732.46	0.9232
1741.45	0.9202
1750.43	0.9147
1759.42	0.9068
1768.4	0.896
1777.39	0.8841
1786.37	0.8599
1795.36	0.8204
1804.34	0.8547
1813.33	0.8616
1822.31	0.8602
1831.3	0.854
1840.28	0.8474
1849.27	0.8411
1858.25	0.8387
1867.24	0.8445
1876.22	0.8554
1885.21	0.8567
1894.19	0.8537
1903.18	0.8451
1912.16	0.8312
1921.15	0.8164
1930.13	0.8208
1939.12	0.8268
1948.1	0.8247
1957.09	0.8203
1966.07	0.8153
1975.06	0.8093
1984.04	0.8025
1993.03	0.7955
2002.01	0.7886
2011	0.78
2019.98	0.7713
2028.97	0.7713
2037.95	0.7717
2046.94	0.7718
2055.92	0.7713
2064.91	0.7697
2073.89	0.7681
2082.88	0.7645
2091.86	0.7601
2100.85	0.7564
2109.83	0.7529
2118.82	0.75
2127.8	0.7473
2136.79	0.7461
2145.77	0.7449
2154.76	0.7436
2163.74	0.7425
2172.73	0.7413
2181.71	0.7401
2190.7	0.7392
2199.68	0.7383
2208.67	0.7371
2217.65	0.7354
2226.64	0.7331
2235.62	0.7307
2244.61	0.7288
2253.59	0.7273
2262.58	0.7261
2271.56	0.7251
2280.55	0.7237
2289.53	0.7221
2298.52	0.7203
2307.5	0.7185
2316.49	0.7176
2325.47	0.7168
2334.46	0.7148
2343.44	0.7113
2352.43	0.7076
2361.41	0.7046
2370.4	0.7023
2379.38	0.7007
2388.36	0.6991
2397.35	0.6976
2406.33	0.6959
2415.32	0.6938
2424.3	0.6921
2433.29	0.6908
2442.27	0.6883
2451.26	0.6857
2460.24	0.6795
2469.23	0.6744
2478.21	0.6696
2487.2	0.665
2496.18	0.659
2505.17	0.6538
2514.15	0.6559
2523.14	0.6679
2532.12	0.6715
2541.11	0.6681
2550.09	0.6636
2559.08	0.6588
2568.06	0.655
2577.05	0.6514
2586.03	0.6513
2595.02	0.6521
2604	0.6491
2612.99	0.6442
2621.97	0.6393
2630.96	0.6343
2639.94	0.6294
2648.93	0.6237
2657.91	0.618
2666.9	0.6122
2675.88	0.6048
2684.87	0.597
2693.85	0.5894
2702.84	0.5863
2711.82	0.5891
2720.81	0.5943
2729.79	0.5967
2738.78	0.5915
2747.76	0.5834
2756.75	0.5815
2765.73	0.5816
2774.72	0.5847
2783.7	0.5925
2792.69	0.5958
2801.67	0.5929
2810.66	0.5853
2819.64	0.5765
2828.63	0.5701
2837.61	0.5674
2846.6	0.5647
2855.58	0.5622
2864.57	0.5588
2873.55	0.5484
2882.54	0.5401
2891.52	0.5322
2900.51	0.5268
2909.49	0.5232
2918.48	0.5229
2927.46	0.5216
2936.45	0.5168
2945.43	0.5057
2954.42	0.4946
2963.4	0.4831
2972.39	0.4704
2981.37	0.4554
2990.36	0.4406
2999.34	0.4259
3008.33	0.4095
3017.31	0.3902
3026.3	0.3628
3035.28	0.3824
3044.27	0.3978
3053.25	0.378
3062.24	0.38
3071.22	0.3818
3080.21	0.3766
3089.19	0.367
3098.18	0.3619
3107.16	0.341
3116.15	0.3214
3125.13	0.302
3134.12	0.2821
3143.1	0.2643
3152.09	0.2624
3161.07	0.2744
3170.06	0.2963
3179.04	0.3347
3188.03	0.3774
3197.01	0.4056
3206	0.429
3214.98	0.4412
3223.97	0.4464
3232.95	0.4444
3241.94	0.4333
3250.92	0.4186
3259.91	0.4025
3268.89	0.3844
3277.88	0.3639
3286.86	0.3447
3295.85	0.327
3304.83	0.3257
3313.82	0.3381
3322.8	0.3496
3331.79	0.3416
3340.77	0.3202
3349.76	0.2897
3358.74	0.2505
3367.73	0.2086
3376.71	0.21
3385.7	0.2551
3394.68	0.3054
3403.67	0.3911
3412.65	0.4347
3421.64	0.4779
3430.62	0.5091
3439.61	0.5288
3448.59	0.5444
3457.58	0.5607
3466.56	0.5722
3475.55	0.5805
3484.53	0.5869
3493.52	0.5945
3502.5	0.6024
3511.49	0.6103
3520.47	0.6178
3529.46	0.6252
3538.44	0.6319
3547.43	0.637
3556.41	0.6421
3565.4	0.6471
3574.38	0.6521
3583.37	0.657
3592.35	0.6614
3601.34	0.6656
3610.32	0.6699
3619.31	0.6731
3628.29	0.6751
3637.28	0.6767
3646.26	0.6773
3655.25	0.6762
3664.23	0.6748
3673.22	0.6739
3682.2	0.6755
3691.19	0.6786
3700.17	0.681
3709.16	0.6814
3718.14	0.6801
3727.13	0.6781
3736.11	0.6758
3745.1	0.6719
3754.08	0.6681
3763.07	0.6638
3772.05	0.661
3781.04	0.6592
3790.02	0.6582
3799.01	0.6572
