Infrared Spectrum: 2-(t-Butylamino)ethanol
Formula: C 6 H 15 N O
CAS: 4620-70-6
State: gas
Origin: EPA-IR VAPOR PHASE LIBRARY
1/CM	ABSORBANCE
549.8	0.00247
559.445	0.00208
569.09	0.00189
578.734	0.00207
588.379	0.00216
598.024	0.00231
607.669	0.00246
617.313	0.00287
626.958	0.00312
636.603	0.00348
646.248	0.00384
655.893	0.00474
665.537	0.00559
675.182	0.00679
684.827	0.00768
694.472	0.00837
704.116	0.00848
713.761	0.0075
723.406	0.00575
733.051	0.00436
742.695	0.00347
752.34	0.00357
761.985	0.00345
771.63	0.00322
781.275	0.00253
790.919	0.00201
800.564	0.00151
810.209	0.00203
819.854	0.00155
829.498	0.00176
839.143	0.00175
848.788	0.00248
858.433	0.00296
868.078	0.00366
877.722	0.00448
887.367	0.00472
897.012	0.00439
906.657	0.00368
916.301	0.00305
925.946	0.003
935.591	0.00295
945.236	0.00369
954.88	0.00402
964.525	0.00416
974.17	0.0041
983.815	0.00371
993.46	0.00436
1003.1	0.00646
1012.75	0.01053
1022.39	0.01414
1032.04	0.01762
1041.68	0.02107
1051.33	0.02361
1060.97	0.02368
1070.62	0.02086
1080.26	0.01433
1089.91	0.01007
1099.55	0.01047
1109.2	0.01049
1118.84	0.00887
1128.49	0.00609
1138.13	0.00481
1147.78	0.00454
1157.42	0.00445
1167.07	0.00556
1176.71	0.0074
1186.36	0.0102
1196	0.01358
1205.64	0.01863
1215.29	0.02591
1224.93	0.02866
1234.58	0.02258
1244.22	0.01448
1253.87	0.00944
1263.51	0.00687
1273.16	0.00556
1282.8	0.00472
1292.45	0.004
1302.09	0.00351
1311.74	0.00345
1321.38	0.00385
1331.03	0.00478
1340.67	0.00659
1350.32	0.01038
1359.96	0.01579
1369.61	0.01874
1379.25	0.01732
1388.9	0.01666
1398.54	0.01484
1408.18	0.0097
1417.83	0.00688
1427.47	0.00614
1437.12	0.0075
1446.76	0.00932
1456.41	0.01079
1466.05	0.01147
1475.7	0.01197
1485.34	0.0102
1494.99	0.00622
1504.63	0.00294
1514.28	0.00171
1523.92	0.00126
1533.57	0.0009945
1543.21	0.0007814
1552.86	0.0006279
1562.5	0.0006159
1572.15	0.0005972
1581.79	0.0005208
1591.44	0.0004908
1601.08	0.0004255
1610.73	0.0004789
1620.37	0.000444
1630.01	0.0004949
1639.66	0.0004336
1649.3	0.0003749
1658.95	0.0004339
1668.59	0.0003736
1678.24	0.0003344
1687.88	0.0002872
1697.53	0.000277
1707.17	0.0003616
1716.82	0.0004021
1726.46	0.0004337
1736.11	0.000385
1745.75	0.0004241
1755.4	0.0003548
1765.04	0.0004102
1774.69	0.000368
1784.33	0.0004165
1793.98	0.0004199
1803.62	0.0003791
1813.27	0.000392
1822.91	0.0002973
1832.55	0.0002449
1842.2	0.0002801
1851.84	0.0002567
1861.49	0.0002436
1871.13	0.0001809
1880.78	0.0002216
1890.42	0.0002285
1900.07	0.0003492
1909.71	0.0003547
1919.36	0.0003502
1929	0.0003869
1938.65	0.0004026
1948.29	0.0003284
1957.94	0.0004163
1967.58	0.0003105
1977.23	0.0002216
1986.87	0.0003012
1996.52	0.0002665
2006.16	0.0002472
2015.81	0.0002658
2025.45	0.0001726
2035.1	0.000226
2044.74	0.0002259
2054.38	0.0002033
2064.03	0.0002766
2073.67	0.0003222
2083.32	0.0002972
2092.96	0.0003433
2102.61	0.0003432
2112.25	0.0003258
2121.9	0.0002026
2131.54	0.0004034
2141.19	0.0002861
2150.83	0.0002994
2160.48	0.0002318
2170.12	0.0002989
2179.77	0.0002428
2189.41	0.0002322
2199.06	0.0002509
2208.7	0.0001465
2218.35	0.0001676
2227.99	0.0002398
2237.64	0.0002104
2247.28	0.0002713
2256.92	0.0002816
2266.57	0.0003515
2276.21	0.0003236
2285.86	0.0004282
2295.5	0.0002903
2305.15	0.0002826
2314.79	0.0003278
2324.44	0.0003203
2334.08	0.0002871
2343.73	0.0003481
2353.37	0.0003306
2363.02	0.0002469
2372.66	0.0003293
2382.31	0.0002975
2391.95	0.0003351
2401.6	0.0002658
2411.24	0.0003369
2420.89	0.0003987
2430.53	0.0002989
2440.18	0.0002522
2449.82	0.0003518
2459.47	0.0002546
2469.11	0.0003153
2478.75	0.0002755
2488.4	0.0003439
2498.04	0.000348
2507.69	0.000345
2517.33	0.0003643
2526.98	0.0003464
2536.62	0.0004375
2546.27	0.0004512
2555.91	0.0004157
2565.56	0.0005248
2575.2	0.0005483
2584.85	0.0005912
2594.49	0.000539
2604.14	0.0006323
2613.78	0.0007344
2623.43	0.0006609
2633.07	0.0007923
2642.72	0.0007964
2652.36	0.00104
2662.01	0.0013
2671.65	0.00157
2681.29	0.00177
2690.94	0.00184
2700.58	0.00181
2710.23	0.00191
2719.87	0.00181
2729.52	0.00204
2739.16	0.00204
2748.81	0.00222
2758.45	0.00239
2768.1	0.00263
2777.74	0.00305
2787.39	0.00377
2797.03	0.00473
2806.68	0.00598
2816.32	0.00779
2825.97	0.01033
2835.61	0.01412
2845.26	0.01775
2854.9	0.02074
2864.55	0.02322
2874.19	0.02557
2883.84	0.02683
2893.48	0.02635
2903.12	0.0266
2912.77	0.02896
2922.41	0.03287
2932.06	0.03701
2941.7	0.04068
2951.35	0.04829
2960.99	0.06492
2970.64	0.07698
2980.28	0.05998
2989.93	0.02757
2999.57	0.00981
3009.22	0.00466
3018.86	0.00297
3028.51	0.00218
3038.15	0.00169
3047.8	0.00149
3057.44	0.00119
3067.09	0.00117
3076.73	0.00104
3086.38	0.00105
3096.02	0.00111
3105.67	0.00101
3115.31	0.0008784
3124.95	0.0009088
3134.6	0.000864
3144.24	0.0008314
3153.89	0.0007749
3163.53	0.0007129
3173.18	0.0008765
3182.82	0.0009944
3192.47	0.0009397
3202.11	0.00102
3211.76	0.0009384
3221.4	0.0008203
3231.05	0.0008181
3240.69	0.000615
3250.34	0.0005678
3259.98	0.0007473
3269.63	0.0003102
3279.27	0.0003365
3288.92	0.0005014
3298.56	0.0005703
3308.21	0.0006798
3317.85	0.0006538
3327.49	0.0005734
3337.14	0.0008199
3346.78	0.0009089
3356.43	0.0006394
3366.07	0.0009587
3375.72	0.0007949
3385.36	0.0008302
3395.01	0.0008407
3404.65	0.0007898
3414.3	0.0008067
3423.94	0.0009831
3433.59	0.0008162
3443.23	0.0009078
3452.88	0.00108
3462.52	0.00113
3472.17	0.00143
3481.81	0.00126
3491.46	0.00117
3501.1	0.00109
3510.75	0.00115
3520.39	0.0011
3530.04	0.00135
3539.68	0.0023
3549.32	0.00353
3558.97	0.00414
3568.61	0.0037
3578.26	0.00305
3587.9	0.00218
3597.55	0.00171
3607.19	0.00134
3616.84	0.00114
3626.48	0.00127
3636.13	0.00146
3645.77	0.00172
3655.42	0.00273
3665.06	0.00333
3674.71	0.0034
3684.35	0.00273
3694	0.00169
3703.64	0.0008661
3713.29	0.0008409
3722.93	0.0007289
3732.58	0.0006056
3742.22	0.0003233
3751.86	0.0003238
3761.51	0.0003466
3771.15	0.0004263
3780.8	0.0003324
3790.44	0.0003645
3800.09	0.0004262
3809.73	0.0003197
3819.38	0.0003933
3829.02	0.0001944
3838.67	0.0002751
3848.31	0.0002251
3857.96	0.0003507
3867.6	0.0003609
3877.25	0.0002245
3886.89	0.0002472
3896.54	0.0006406
3906.18	0.0002256
3915.83	0.0001906
3925.47	0.0005654
3935.12	0.0004
3944.76	0.0003264
3954.41	0.0002617
3964.05	0.0001428
3973.69	0.0002529
3983.34	0.0003218
3992.98	0.0002143
