Infrared Spectrum: 4-Isopropylcyclohexanol
Formula: C 9 H 18 O
CAS: 4621-04-9
State: gas
Origin: EPA-IR VAPOR PHASE LIBRARY
1/CM	ABSORBANCE
549.8	0.0002317
559.445	9.185e-05
569.09	0.0008771
578.734	0.0012765
588.379	0.0014965
598.024	0.0013965
607.669	0.0010574
617.313	0.0005661
626.958	0.0004714
636.603	0.0003189
646.248	0.0004505
655.893	0.0002572
665.537	0.0004696
675.182	0.0003142
684.827	2.28e-05
694.472	0.00034
704.116	0.0003065
713.761	0.0002022
723.406	0.0003449
733.051	0.0002992
742.695	0.00018285
752.34	0.0003172
761.985	0.0005396
771.63	0.000539
781.275	0.0004218
790.919	0.0004575
800.564	0.0002107
810.209	0.0002522
819.854	0.0005214
829.498	0.0006401
839.143	0.0005907
848.788	0.0007752
858.433	0.0005755
868.078	0.0006825
877.722	0.0008265
887.367	0.0014565
897.012	0.0019165
906.657	0.0018565
916.301	0.0015365
925.946	0.0017865
935.591	0.0025265
945.236	0.0032365
954.88	0.0025965
964.525	0.0028465
974.17	0.0028265
983.815	0.0032765
993.46	0.0032065
1003.1	0.0028965
1012.75	0.0035365
1022.39	0.0040565
1032.04	0.0069465
1041.68	0.0159665
1051.33	0.0296665
1060.97	0.0295465
1070.62	0.0192265
1080.26	0.0126565
1089.91	0.0084965
1099.55	0.0044065
1109.2	0.0028765
1118.84	0.0020765
1128.49	0.0028565
1138.13	0.0030665
1147.78	0.0030465
1157.42	0.0024965
1167.07	0.0027565
1176.71	0.0025565
1186.36	0.0035865
1196	0.0035765
1205.64	0.0035765
1215.29	0.0036565
1224.93	0.0034165
1234.58	0.0036165
1244.22	0.0039865
1253.87	0.0046865
1263.51	0.0042365
1273.16	0.0032865
1282.8	0.0031265
1292.45	0.0032565
1302.09	0.0027465
1311.74	0.0027265
1321.38	0.0028265
1331.03	0.0029365
1340.67	0.0031865
1350.32	0.0041865
1359.96	0.0063865
1369.61	0.0080665
1379.25	0.0088265
1388.9	0.0080065
1398.54	0.0050865
1408.18	0.0026665
1417.83	0.0019165
1427.47	0.0022165
1437.12	0.0035865
1446.76	0.0065565
1456.41	0.0084765
1466.05	0.0070565
1475.7	0.0050265
1485.34	0.0028265
1494.99	0.0014065
1504.63	0.0008865
1514.28	0.0007045
1523.92	0.0006091
1533.57	0.0004431
1543.21	0.0005299
1552.86	0.0003737
1562.5	0.0003517
1572.15	0.0004113
1581.79	0.0003086
1591.44	0.0004402
1601.08	0.0003045
1610.73	0.0003065
1620.37	0.000349
1630.01	0.0003614
1639.66	0.0003677
1649.3	0.0002725
1658.95	0.0002649
1668.59	0.0002867
1678.24	0.0003142
1687.88	0.000232
1697.53	0.0002561
1707.17	0.0002547
1716.82	0.00018592
1726.46	0.0003059
1736.11	0.00015102
1745.75	0.0001413
1755.4	0.00017108
1765.04	0.00017086
1774.69	0.00019078
1784.33	0.00016403
1793.98	0.00014789
1803.62	0.00022
1813.27	0.0002255
1822.91	0.0002708
1832.55	0.0003128
1842.2	0.0002359
1851.84	0.0002735
1861.49	0.0002196
1871.13	0.0002416
1880.78	0.0002181
1890.42	0.0002487
1900.07	0.00012845
1909.71	0.0003189
1919.36	0.0002786
1929	0.0003105
1938.65	0.0002195
1948.29	0.00016823
1957.94	0.0002572
1967.58	0.0002809
1977.23	0.0002306
1986.87	0.0002501
1996.52	0.0002189
2006.16	0.0002651
2015.81	0.000272
2025.45	0.0003276
2035.1	0.0003155
2044.74	0.0002097
2054.38	0.0002263
2064.03	0.000258
2073.67	0.00019327
2083.32	0.0002836
2092.96	0.0002546
2102.61	0.0003333
2112.25	0.0002872
2121.9	0.0003999
2131.54	0.000337
2141.19	0.0002831
2150.83	0.000362
2160.48	0.00019369
2170.12	0.0002549
2179.77	0.000291
2189.41	0.0003127
2199.06	0.0003487
2208.7	0.0003575
2218.35	0.0003299
2227.99	0.000384
2237.64	0.000324
2247.28	0.0003781
2256.92	0.0003595
2266.57	0.0002275
2276.21	0.0002918
2285.86	0.0003751
2295.5	0.0002866
2305.15	0.0002883
2314.79	0.0002757
2324.44	0.000376
2334.08	0.0003389
2343.73	0.0003134
2353.37	0.000328
2363.02	0.0003342
2372.66	0.0004079
2382.31	0.0003885
2391.95	0.0003926
2401.6	0.0005235
2411.24	0.0004968
2420.89	0.0003369
2430.53	0.0004187
2440.18	0.000442
2449.82	0.0002761
2459.47	0.0003444
2469.11	0.0004092
2478.75	0.0004352
2488.4	0.0003987
2498.04	0.0004068
2507.69	0.0005045
2517.33	0.0005321
2526.98	0.0004665
2536.62	0.0005102
2546.27	0.0005085
2555.91	0.0006021
2565.56	0.0006724
2575.2	0.0008159
2584.85	0.0007291
2594.49	0.0007191
2604.14	0.0008372
2613.78	0.0009347
2623.43	0.0009579
2633.07	0.0010965
2642.72	0.0011865
2652.36	0.0011665
2662.01	0.0012065
2671.65	0.0011565
2681.29	0.0011965
2690.94	0.0011365
2700.58	0.0012265
2710.23	0.0012065
2719.87	0.0012165
2729.52	0.0013465
2739.16	0.0012865
2748.81	0.0013565
2758.45	0.0014565
2768.1	0.0016765
2777.74	0.0016465
2787.39	0.0018965
2797.03	0.0020265
2806.68	0.0023465
2816.32	0.0027265
2825.97	0.0035965
2835.61	0.0054465
2845.26	0.0109865
2854.9	0.0221865
2864.55	0.0318265
2874.19	0.0319665
2883.84	0.0268465
2893.48	0.0224565
2903.12	0.0229765
2912.77	0.0299465
2922.41	0.0439265
2932.06	0.0598265
2941.7	0.0628365
2951.35	0.0527765
2960.99	0.0478965
2970.64	0.0385865
2980.28	0.0198965
2989.93	0.0092565
2999.57	0.0041765
3009.22	0.0025065
3018.86	0.0016665
3028.51	0.0016165
3038.15	0.0013065
3047.8	0.0011665
3057.44	0.0009242
3067.09	0.0010787
3076.73	0.0007935
3086.38	0.0009386
3096.02	0.0008883
3105.67	0.000852
3115.31	0.0008303
3124.95	0.0007169
3134.6	0.0007073
3144.24	0.0008393
3153.89	0.0009924
3163.53	0.0007789
3173.18	0.0006578
3182.82	0.0007336
3192.47	0.0006972
3202.11	0.0006405
3211.76	0.0005508
3221.4	0.0004953
3231.05	0.000242
3240.69	0.0002886
3250.34	0.0003835
3259.98	0.0002406
3269.63	0.0002517
3279.27	0.00016553
3288.92	0.0001966
3298.56	0.0002476
3308.21	0.0003306
3317.85	0.0002247
3327.49	0.0003949
3337.14	0.0002389
3346.78	0.0003343
3356.43	0.0003132
3366.07	0.00017862
3375.72	0.0005055
3385.36	0.0006084
3395.01	0.0003716
3404.65	0.0005395
3414.3	0.0003303
3423.94	0.0003692
3433.59	0.0003461
3443.23	0.0005333
3452.88	0.0004511
3462.52	0.0005656
3472.17	0.000344
3481.81	0.0003021
3491.46	0.0004341
3501.1	0.0003889
3510.75	0.000105891
3520.39	0.0002854
3530.04	0.0004461
3539.68	0.0002775
3549.32	0.0003897
3558.97	0.0003835
3568.61	0.0003132
3578.26	0.0002865
3587.9	0.0002506
3597.55	0.0003112
3607.19	0.0003931
3616.84	0.0004508
3626.48	0.0009965
3636.13	0.0021565
3645.77	0.0046765
3655.42	0.0045265
3665.06	0.0016165
3674.71	0.0006914
3684.35	0.0004202
3694	0.0003741
3703.64	0.0005728
3713.29	0.0005057
3722.93	0.0005411
3732.58	0.0003801
3742.22	0.0002219
3751.86	0.0004259
3761.51	0.0004058
3771.15	0.0004913
3780.8	0.0005428
3790.44	0.0003638
3800.09	0.0003752
3809.73	0.000438
3819.38	0.0004507
3829.02	0.0006104
3838.67	0.0004039
3848.31	0.00018753
3857.96	0.000466
3867.6	0.0007007
3877.25	0.0003942
3886.89	0.0003724
3896.54	0.0004281
3906.18	0.0003207
3915.83	0.0004817
3925.47	0.0004612
3935.12	0.0005437
3944.76	0.0005384
3954.41	0.0002807
3964.05	0.0002603
3973.69	0.0003233
3983.34	0.0007812
3992.98	0.0003669
