Infrared Spectrum: Purin-6(1H)-one, 2-chloro-8-chloromethyl-7-methyl-
Formula: C7 H6 Cl2 N4 O
CAS: 46292-82-4
State: SOLID (1 mg / 650 mg KBr DISC)
Class: COBLENTZ III
Instrument: PERKIN-ELMER 221 (GRATING)
Instrument parameters: FILTER AT 2490, 980 CM^-^1, GRATING 4000-1428 CM^-^1, NaCl PRISM 1428-650 CM^-^1
Sampling: TRANSMISSION
Resolution: 2
Origin: SOUTHERN RESEARCH INSTITUTE
1/CM	TRANSMITTANCE
633	0.8379
642.04	0.834
651.08	0.7916
660.12	0.8156
669.16	0.7526
678.2	0.7215
687.241	0.7628
696.281	0.8699
705.321	0.8699
714.361	0.8446
723.401	0.7649
732.441	0.8287
741.481	0.8576
750.521	0.8034
759.561	0.6735
768.601	0.5813
777.642	0.7312
786.682	0.7201
795.722	0.7032
804.762	0.8912
813.802	0.8616
822.842	0.7658
831.882	0.5477
840.922	0.5229
849.962	0.5318
859.002	0.6914
868.042	0.8495
877.083	0.851
886.123	0.7715
895.163	0.6782
904.203	0.758
913.243	0.6626
922.283	0.8487
931.323	0.8459
940.363	0.8327
949.403	0.7578
958.443	0.6108
967.484	0.7039
976.524	0.7312
985.564	0.5208
994.604	0.3607
1003.64	0.7626
1012.68	0.7908
1021.72	0.7925
1030.76	0.7343
1039.8	0.625
1048.84	0.6344
1057.88	0.6969
1066.92	0.6795
1075.96	0.5539
1085	0.3435
1094.04	0.4738
1103.08	0.6043
1112.13	0.5273
1121.17	0.5913
1130.21	0.6768
1139.25	0.7076
1148.29	0.7051
1157.33	0.6824
1166.37	0.609
1175.41	0.4926
1184.45	0.5012
1193.49	0.5854
1202.53	0.4956
1211.57	0.3738
1220.61	0.264
1229.65	0.2251
1238.69	0.2243
1247.73	0.1764
1256.77	0.1745
1265.81	0.3569
1274.85	0.3978
1283.89	0.3938
1292.93	0.3783
1301.97	0.4073
1311.01	0.5401
1320.05	0.6449
1329.09	0.5436
1338.13	0.4092
1347.17	0.3042
1356.21	0.2528
1365.25	0.2427
1374.29	0.2068
1383.33	0.1126
1392.37	0.0987
1401.41	0.1867
1410.45	0.3019
1419.49	0.3708
1428.53	0.4945
1437.57	0.5023
1446.61	0.4502
1455.65	0.4548
1464.69	0.3589
1473.73	0.3132
1482.77	0.4521
1491.81	0.5509
1500.85	0.4606
1509.89	0.3364
1518.93	0.27
1527.97	0.2219
1537.01	0.1001
1546.05	0.1255
1555.09	0.1093
1564.13	0.1316
1573.17	0.3775
1582.21	0.6074
1591.25	0.6398
1600.29	0.5324
1609.33	0.385
1618.37	0.2353
1627.41	0.1499
1636.45	0.2845
1645.49	0.4725
1654.53	0.4759
1663.57	0.4015
1672.61	0.235
1681.65	0.1059
1690.69	0.0604
1699.73	0.066
1708.77	0.2114
1717.81	0.3884
1726.85	0.5575
1735.89	0.7017
1744.93	0.7664
1753.97	0.8152
1763.01	0.8545
1772.05	0.8856
1781.09	0.9112
1790.13	0.9317
1799.17	0.9421
1808.21	0.9522
1817.25	0.9642
1826.29	0.9713
1835.33	0.976
1844.37	0.9787
1853.41	0.9822
1862.45	0.9846
1871.49	0.9855
1880.53	0.9881
1889.57	0.987
1898.61	0.9865
1907.65	0.98
1916.69	0.977
1925.73	0.975
1934.77	0.9744
1943.81	0.9724
1952.85	0.9667
1961.89	0.9663
1970.93	0.9656
1979.97	0.9647
1989.01	0.962
1998.05	0.9551
2007.09	0.9553
2016.13	0.956
2025.17	0.9557
2034.21	0.9527
2043.25	0.9476
2052.29	0.9434
2061.34	0.9409
2070.38	0.9398
2079.42	0.9388
2088.46	0.9369
2097.5	0.9349
2106.54	0.9303
2115.58	0.9273
2124.62	0.9262
2133.66	0.9261
2142.7	0.9267
2151.74	0.9271
2160.78	0.9268
2169.82	0.9263
2178.86	0.9251
2187.9	0.9238
2196.94	0.9219
2205.98	0.9184
2215.02	0.9135
2224.06	0.9115
2233.1	0.9103
2242.14	0.9094
2251.18	0.9067
2260.22	0.9036
2269.26	0.9018
2278.3	0.9008
2287.34	0.8998
2296.38	0.8979
2305.42	0.8954
2314.46	0.8929
2323.5	0.8897
2332.54	0.8867
2341.58	0.8837
2350.62	0.8805
2359.66	0.8783
2368.7	0.8762
2377.74	0.874
2386.78	0.872
2395.82	0.8703
2404.86	0.8676
2413.9	0.864
2422.94	0.8605
2431.98	0.8563
2441.02	0.8501
2450.06	0.8424
2459.1	0.8385
2468.14	0.8351
2477.18	0.8228
2486.22	0.8231
2495.26	0.8366
2504.3	0.8375
2513.34	0.8378
2522.38	0.8381
2531.42	0.8387
2540.46	0.8395
2549.5	0.8395
2558.54	0.8391
2567.58	0.8365
2576.62	0.8338
2585.66	0.8305
2594.7	0.8271
2603.74	0.8219
2612.78	0.8166
2621.82	0.8139
2630.86	0.8121
2639.9	0.8097
2648.94	0.8073
2657.98	0.8049
2667.02	0.8032
2676.06	0.8022
2685.1	0.8008
2694.14	0.7994
2703.18	0.798
2712.22	0.7966
2721.26	0.7951
2730.3	0.7936
2739.34	0.7925
2748.38	0.7921
2757.42	0.7916
2766.46	0.7908
2775.5	0.7895
2784.54	0.7872
2793.58	0.7824
2802.62	0.7759
2811.66	0.7702
2820.7	0.7635
2829.74	0.754
2838.78	0.7427
2847.82	0.7376
2856.86	0.7357
2865.9	0.7342
2874.94	0.7317
2883.98	0.7242
2893.02	0.7112
2902.06	0.6995
2911.1	0.6868
2920.14	0.6766
2929.18	0.676
2938.22	0.6837
2947.26	0.697
2956.3	0.706
2965.34	0.7069
2974.38	0.7065
2983.42	0.7061
2992.46	0.7055
3001.5	0.7052
3010.54	0.7051
3019.59	0.7048
3028.63	0.7045
3037.67	0.7039
3046.71	0.7027
3055.75	0.6993
3064.79	0.694
3073.83	0.6864
3082.87	0.6788
3091.91	0.6716
3100.95	0.6624
3109.99	0.6546
3119.03	0.6472
3128.07	0.6363
3137.11	0.6199
3146.15	0.5964
3155.19	0.5677
3164.23	0.547
3173.27	0.5383
3182.31	0.5271
3191.35	0.5112
3200.39	0.4778
3209.43	0.4706
3218.47	0.4869
3227.51	0.5402
3236.55	0.5793
3245.59	0.5767
3254.63	0.5617
3263.67	0.5317
3272.71	0.4982
3281.75	0.4534
3290.79	0.4152
3299.83	0.3986
3308.87	0.3968
3317.91	0.4007
3326.95	0.4182
3335.99	0.4673
3345.03	0.4758
3354.07	0.474
3363.11	0.471
3372.15	0.4639
3381.19	0.4433
3390.23	0.4092
3399.27	0.3961
3408.31	0.4003
3417.35	0.4466
3426.39	0.4774
3435.43	0.4872
3444.47	0.5135
3453.51	0.5485
3462.55	0.5721
3471.59	0.5946
3480.63	0.6121
3489.67	0.6281
3498.71	0.649
3507.75	0.6665
3516.79	0.6816
3525.83	0.6942
3534.87	0.7058
3543.91	0.7124
3552.95	0.7141
3561.99	0.7163
3571.03	0.7188
3580.07	0.7221
3589.11	0.7288
3598.15	0.7351
3607.19	0.7392
3616.23	0.7399
3625.27	0.74
3634.31	0.7399
3643.35	0.7395
3652.39	0.7391
3661.43	0.7386
3670.47	0.7381
3679.51	0.7374
3688.55	0.7364
3697.59	0.7353
3706.63	0.7343
3715.67	0.7333
3724.71	0.7303
3733.75	0.7251
3742.79	0.7238
3751.83	0.7241
3760.87	0.7246
3769.91	0.7253
3778.95	0.7259
3787.99	0.726
3797.03	0.7262
3806.07	0.7266
3815.11	0.7264
3824.15	0.7258
3833.19	0.7248
3842.23	0.7237
3851.27	0.7234
3860.31	0.7232
3869.35	0.723
3878.39	0.7232
3887.43	0.7234
3896.47	0.7236
3905.51	0.7235
3914.55	0.7234
3923.59	0.7234
3932.63	0.7236
3941.67	0.724
3950.71	0.7245
3959.75	0.725
3968.8	0.7253
3977.84	0.7256
3986.88	0.7258
3995.92	0.7261
4004.96	0.7264
4014	0.7266
