Infrared Spectrum: 1-Nitropentane
Formula: C 5 H 11 N O 2
CAS: 463-04-7
State: gas
Origin: EPA-IR VAPOR PHASE LIBRARY
1/CM	ABSORBANCE
549.8	0.0008501
559.445	0.0010898
569.09	0.0014198
578.734	0.0018098
588.379	0.0033498
598.024	0.0044898
607.669	0.0052798
617.313	0.0053598
626.958	0.0051298
636.603	0.0046698
646.248	0.0039298
655.893	0.0031098
665.537	0.0022798
675.182	0.0020898
684.827	0.0021598
694.472	0.0025498
704.116	0.0033598
713.761	0.0048498
723.406	0.0060198
733.051	0.0065198
742.695	0.0064098
752.34	0.0050398
761.985	0.0037298
771.63	0.0029698
781.275	0.0029398
790.919	0.0027498
800.564	0.0026198
810.209	0.0022098
819.854	0.0016598
829.498	0.0015598
839.143	0.0020398
848.788	0.0023998
858.433	0.0030798
868.078	0.0043698
877.722	0.0055298
887.367	0.0050198
897.012	0.0034498
906.657	0.0032198
916.301	0.0026998
925.946	0.0016398
935.591	0.0009131
945.236	0.0006995
954.88	0.0008349
964.525	0.000925
974.17	0.0010109
983.815	0.0015098
993.46	0.0016098
1003.1	0.0014398
1012.75	0.0013798
1022.39	0.0010798
1032.04	0.0011398
1041.68	0.0008339
1051.33	0.0009428
1060.97	0.0007336
1070.62	0.0008427
1080.26	0.0007886
1089.91	0.0009762
1099.55	0.0016398
1109.2	0.0027098
1118.84	0.0037498
1128.49	0.0034198
1138.13	0.0030898
1147.78	0.0023498
1157.42	0.0021898
1167.07	0.0023998
1176.71	0.0031298
1186.36	0.0047698
1196	0.0062498
1205.64	0.0067998
1215.29	0.0063698
1224.93	0.0055698
1234.58	0.0048198
1244.22	0.0043898
1253.87	0.0042798
1263.51	0.0043698
1273.16	0.0047598
1282.8	0.0052798
1292.45	0.0054298
1302.09	0.0058898
1311.74	0.0065498
1321.38	0.0080698
1331.03	0.0112698
1340.67	0.0164298
1350.32	0.0234898
1359.96	0.0332998
1369.61	0.0459398
1379.25	0.0518598
1388.9	0.0395998
1398.54	0.0193598
1408.18	0.0111098
1417.83	0.0104298
1427.47	0.0150298
1437.12	0.0232198
1446.76	0.0257698
1456.41	0.0209898
1466.05	0.0183998
1475.7	0.0145898
1485.34	0.0107598
1494.99	0.0091298
1504.63	0.0101798
1514.28	0.0150098
1523.92	0.0261898
1533.57	0.0471898
1543.21	0.0786298
1552.86	0.11855
1562.5	0.15374
1572.15	0.16015
1581.79	0.1357
1591.44	0.0868198
1601.08	0.0458498
1610.73	0.0210398
1620.37	0.0093898
1630.01	0.0049798
1639.66	0.0030298
1649.3	0.0021198
1658.95	0.0015198
1668.59	0.0011898
1678.24	0.0009457
1687.88	0.0007321
1697.53	0.0006569
1707.17	0.0005579
1716.82	0.0005319
1726.46	0.0004238
1736.11	0.0004046
1745.75	0.0003411
1755.4	0.0002877
1765.04	0.0002914
1774.69	0.0002941
1784.33	0.0002475
1793.98	0.0002324
1803.62	0.0002895
1813.27	0.0002206
1822.91	0.0003346
1832.55	0.0002186
1842.2	0.0002725
1851.84	0.0002334
1861.49	0.0001984
1871.13	0.0002112
1880.78	0.000213
1890.42	0.0001984
1900.07	0.000198
1909.71	0.0001952
1919.36	0.0002154
1929	0.0002042
1938.65	0.0002135
1948.29	0.0002135
1957.94	0.0002743
1967.58	0.000178
1977.23	0.0002209
1986.87	0.0001749
1996.52	0.0002505
2006.16	0.0001862
2015.81	0.0002504
2025.45	0.0002784
2035.1	0.0003254
2044.74	0.0003399
2054.38	0.0003634
2064.03	0.0003235
2073.67	0.000326
2083.32	0.0003098
2092.96	0.0002311
2102.61	0.000257
2112.25	0.0002755
2121.9	0.0002891
2131.54	0.0002477
2141.19	0.0002484
2150.83	0.0002296
2160.48	0.0002001
2170.12	0.0002515
2179.77	0.0002801
2189.41	0.0003348
2199.06	0.000277
2208.7	0.0002521
2218.35	0.0003702
2227.99	0.0003718
2237.64	0.0003747
2247.28	0.0003495
2256.92	0.0003876
2266.57	0.0004679
2276.21	0.0004699
2285.86	0.0004451
2295.5	0.0004092
2305.15	0.0003086
2314.79	0.0004068
2324.44	0.0004092
2334.08	0.0004384
2343.73	0.0003858
2353.37	0.0004618
2363.02	0.000458
2372.66	0.0003946
2382.31	0.0004911
2391.95	0.0005048
2401.6	0.0005478
2411.24	0.0006815
2420.89	0.0007523
2430.53	0.0008454
2440.18	0.0008272
2449.82	0.0008856
2459.47	0.0008363
2469.11	0.0007705
2478.75	0.0007457
2488.4	0.0006175
2498.04	0.0005914
2507.69	0.0005372
2517.33	0.000465
2526.98	0.0004625
2536.62	0.0004804
2546.27	0.0005183
2555.91	0.0005603
2565.56	0.0005288
2575.2	0.0006332
2584.85	0.0007201
2594.49	0.0005487
2604.14	0.0006562
2613.78	0.0005737
2623.43	0.0006667
2633.07	0.0006711
2642.72	0.0007918
2652.36	0.0008729
2662.01	0.0009504
2671.65	0.0010798
2681.29	0.0012398
2690.94	0.0013498
2700.58	0.0014398
2710.23	0.0016298
2719.87	0.0019198
2729.52	0.0022898
2739.16	0.0025198
2748.81	0.0026198
2758.45	0.0024398
2768.1	0.0022898
2777.74	0.0022198
2787.39	0.0024598
2797.03	0.0028198
2806.68	0.0034398
2816.32	0.0040298
2825.97	0.0049498
2835.61	0.0066998
2845.26	0.0098898
2854.9	0.0159898
2864.55	0.0245598
2874.19	0.0324898
2883.84	0.0360798
2893.48	0.0334898
2903.12	0.0308498
2912.77	0.0364798
2922.41	0.0491098
2932.06	0.0651798
2941.7	0.0753798
2951.35	0.0748498
2960.99	0.0754398
2970.64	0.0796798
2980.28	0.0621298
2989.93	0.0323498
2999.57	0.0179898
3009.22	0.0124498
3018.86	0.0096498
3028.51	0.0074798
3038.15	0.0055698
3047.8	0.0041298
3057.44	0.0031298
3067.09	0.0024598
3076.73	0.0023298
3086.38	0.0020898
3096.02	0.0018798
3105.67	0.0016498
3115.31	0.0015598
3124.95	0.0013698
3134.6	0.0012198
3144.24	0.0011698
3153.89	0.0011598
3163.53	0.0010072
3173.18	0.0009181
3182.82	0.0007933
3192.47	0.000739
3202.11	0.0006826
3211.76	0.0006412
3221.4	0.0004998
3231.05	0.0004672
3240.69	0.0003701
3250.34	0.0003063
3259.98	0.0003411
3269.63	0.0003231
3279.27	0.0003096
3288.92	0.0002075
3298.56	0.0002229
3308.21	0.0002079
3317.85	0.0001935
3327.49	0.0003071
3337.14	0.00016032
3346.78	0.00011264
3356.43	0.00015507
3366.07	0.0001904
3375.72	0.0002226
3385.36	0.00016214
3395.01	0.0003289
3404.65	0.00016368
3414.3	0.0002821
3423.94	0.00015366
3433.59	0.00015376
3443.23	0.0002032
3452.88	0.00016586
3462.52	0.00013344
3472.17	0.0002813
3481.81	0.00016731
3491.46	3.85e-05
3501.1	0.00011842
3510.75	0.00012166
3520.39	0.00016769
3530.04	0.000195
3539.68	0.0002573
3549.32	0.00015487
3558.97	0.0002837
3568.61	7.4747e-05
3578.26	0.0002466
3587.9	0.0002256
3597.55	0.000137
3607.19	0.0001458
3616.84	0.0002861
3626.48	0.00035
3636.13	0.0002514
3645.77	0.00016471
3655.42	0.00016565
3665.06	0.000321
3674.71	0.0004944
3684.35	0.0004379
3694	0.0003085
3703.64	0.0002953
3713.29	0.0003631
3722.93	0.000203
3732.58	0.0003737
3742.22	0.0002655
3751.86	0.0002532
3761.51	0.0004103
3771.15	0.0002028
3780.8	0.0004331
3790.44	0.0003441
3800.09	0.0003778
3809.73	0.0004273
3819.38	0.0003055
3829.02	0.0003098
3838.67	0.0003637
3848.31	0.0002762
3857.96	0.0003003
3867.6	0.0003698
3877.25	0.0003501
3886.89	0.0004101
3896.54	0.0004761
3906.18	0.0004433
3915.83	0.0003574
3925.47	0.0002651
3935.12	0.0004535
3944.76	0.0003561
3954.41	0.0003792
3964.05	0.0004584
3973.69	0.0004626
3983.34	0.0004932
3992.98	0.0006101
