Infrared Spectrum: Methyl cyclopentanecarboxylate
Formula: C 7 H 12 O 2
CAS: 4630-80-2
State: gas
Origin: EPA-IR VAPOR PHASE LIBRARY
1/CM	ABSORBANCE
549.8	0.000731
559.445	0.000677
569.09	0.00093379
578.735	0.0010215
588.38	0.0008301
598.025	0.000721
607.67	0.00096553
617.315	0.0009934
626.96	0.00090407
636.605	0.0011251
646.251	0.0012942
655.896	0.0014352
665.541	0.0014623
675.186	0.0014448
684.831	0.0014117
694.476	0.0013861
704.121	0.0014827
713.766	0.0012114
723.411	0.0014533
733.056	0.0015575
742.701	0.002066
752.346	0.002616
761.991	0.003016
771.636	0.003116
781.281	0.002956
790.926	0.002706
800.571	0.002636
810.216	0.002836
819.861	0.003006
829.507	0.003196
839.152	0.003246
848.797	0.002856
858.442	0.002536
868.087	0.002326
877.732	0.002826
887.377	0.003676
897.022	0.004536
906.667	0.004956
916.312	0.004616
925.957	0.003666
935.602	0.002676
945.247	0.002196
954.892	0.002006
964.537	0.0017374
974.182	0.001926
983.827	0.002526
993.472	0.004666
1003.12	0.008866
1012.76	0.010846
1022.41	0.009816
1032.05	0.010336
1041.7	0.011496
1051.34	0.009906
1060.99	0.007616
1070.63	0.007576
1080.28	0.008506
1089.92	0.009256
1099.57	0.009926
1109.21	0.011566
1118.86	0.015276
1128.5	0.021496
1138.15	0.031586
1147.79	0.047736
1157.44	0.067566
1167.08	0.079826
1176.73	0.078276
1186.37	0.073416
1196.02	0.067486
1205.66	0.054216
1215.31	0.037506
1224.95	0.029216
1234.6	0.026876
1244.24	0.027086
1253.89	0.027536
1263.53	0.024926
1273.18	0.018986
1282.82	0.014056
1292.47	0.012306
1302.11	0.012866
1311.76	0.012946
1321.4	0.011286
1331.05	0.009426
1340.69	0.010786
1350.34	0.014446
1359.98	0.016516
1369.63	0.014186
1379.27	0.009456
1388.92	0.006446
1398.56	0.005116
1408.21	0.004806
1417.85	0.005576
1427.5	0.010506
1437.14	0.016856
1446.79	0.016536
1456.43	0.010896
1466.08	0.009406
1475.73	0.007456
1485.37	0.005686
1495.02	0.004266
1504.66	0.003396
1514.31	0.002806
1523.95	0.002506
1533.6	0.002256
1543.24	0.002136
1552.89	0.002076
1562.53	0.001976
1572.18	0.001916
1581.82	0.0017888
1591.47	0.0017312
1601.11	0.0016112
1610.76	0.0014807
1620.4	0.001362
1630.05	0.0013165
1639.69	0.0013243
1649.34	0.0014519
1658.98	0.0015231
1668.63	0.0016555
1678.27	0.002116
1687.92	0.002856
1697.56	0.004506
1707.21	0.007746
1716.85	0.014236
1726.5	0.026576
1736.14	0.048716
1745.79	0.074036
1755.43	0.083636
1765.08	0.063026
1774.72	0.032976
1784.37	0.014516
1794.01	0.006596
1803.66	0.003536
1813.3	0.002356
1822.95	0.0018117
1832.59	0.0015456
1842.24	0.0013376
1851.88	0.001154
1861.53	0.0010269
1871.17	0.0010136
1880.82	0.0008996
1890.46	0.00091421
1900.11	0.0009546
1909.75	0.0010319
1919.4	0.0010942
1929.04	0.0011396
1938.69	0.0010625
1948.33	0.0009946
1957.98	0.0010569
1967.62	0.0010278
1977.27	0.0010676
1986.91	0.0011997
1996.56	0.001271
2006.2	0.0013907
2015.85	0.001415
2025.49	0.0013533
2035.14	0.0014091
2044.78	0.0013915
2054.43	0.001373
2064.07	0.0013206
2073.72	0.0013216
2083.36	0.0012152
2093.01	0.0011602
2102.65	0.0010612
2112.3	0.0011017
2121.94	0.00089089
2131.59	0.00089796
2141.23	0.0008278
2150.88	0.0008158
2160.52	0.0008101
2170.17	0.0007846
2179.81	0.000749
2189.46	0.000736
2199.1	0.000698
2208.75	0.000683
2218.39	0.000638
2228.04	0.000615
2237.68	0.000576
2247.33	0.000632
2256.97	0.000621
2266.62	0.000682
2276.26	0.000644
2285.91	0.000584
2295.55	0.000643
2305.2	0.000597
2314.84	0.000661
2324.49	0.000707
2334.13	0.000826
2343.78	0.0008335
2353.42	0.00089813
2363.07	0.0008153
2372.72	0.000696
2382.36	0.000683
2392.01	0.000587
2401.65	0.000602
2411.3	0.000577
2420.94	0.000446
2430.59	0.000422
2440.23	0.000453
2449.88	0.000451
2459.52	0.000456
2469.17	0.000541
2478.81	0.000444
2488.46	0.000509
2498.1	0.000499
2507.75	0.000431
2517.39	0.000453
2527.04	0.000445
2536.68	0.000422
2546.33	0.000493
2555.97	0.000524
2565.62	0.000572
2575.26	0.000591
2584.91	0.000627
2594.55	0.000603
2604.2	0.000669
2613.84	0.000529
2623.49	0.00054
2633.13	0.000589
2642.78	0.000497
2652.42	0.000628
2662.07	0.000527
2671.71	0.000516
2681.36	0.000452
2691	0.000471
2700.65	0.000423
2710.29	0.000546
2719.94	0.000586
2729.58	0.000607
2739.23	0.000702
2748.87	0.000718
2758.52	0.000706
2768.16	0.00091022
2777.81	0.00093007
2787.45	0.0011786
2797.1	0.0012885
2806.74	0.0014076
2816.39	0.001966
2826.03	0.002776
2835.68	0.004496
2845.32	0.006866
2854.97	0.008986
2864.61	0.012196
2874.26	0.019416
2883.9	0.022826
2893.55	0.020596
2903.19	0.018236
2912.84	0.020266
2922.48	0.024746
2932.13	0.030876
2941.77	0.040926
2951.42	0.061036
2961.06	0.075336
2970.71	0.070696
2980.35	0.049786
2990	0.030736
2999.64	0.019106
3009.29	0.013216
3018.93	0.009846
3028.58	0.007336
3038.22	0.005526
3047.87	0.003826
3057.51	0.002926
3067.16	0.002376
3076.8	0.002126
3086.45	0.001916
3096.09	0.0017509
3105.74	0.0015126
3115.38	0.0012429
3125.03	0.0011258
3134.67	0.0009784
3144.32	0.00086631
3153.96	0.000643
3163.61	0.000554
3173.25	0.000579
3182.9	0.00043
3192.54	0.000411
3202.19	0.000468
3211.83	0.000418
3221.48	0.000388
3231.12	0.000352
3240.77	0.000383
3250.41	0.000369
3260.06	0.000241
3269.7	0.000266
3279.35	0.000206
3289	0.000252
3298.64	0.000148
3308.29	0.000121
3317.93	0.000199
3327.58	0.000139
3337.22	0.000225
3346.87	0.000173
3356.51	6.6e-05
3366.16	0.00022
3375.8	0.000186
3385.45	0.00027
3395.09	0.000274
3404.74	0.000275
3414.38	0.00012
3424.03	0.000126
3433.67	0.000417
3443.32	0.00041
3452.96	0.000376
3462.61	0.000521
3472.25	0.000758
3481.9	0.00096282
3491.54	0.001093
3501.19	0.0008396
3510.83	0.000502
3520.48	0.000312
3530.12	0.000382
3539.77	0.000158
3549.41	0.000247
3559.06	0.000299
3568.7	0.000186
3578.35	0.000168
3587.99	0.000114
3597.64	0.000215
3607.28	0.000195
3616.93	0.000133
3626.57	7.3e-05
3636.22	0.000228
3645.86	0.00027
3655.51	0.000235
3665.15	0.000133
3674.8	0.000122
3684.44	0.00015
3694.09	0.000167
3703.73	6.5e-05
3713.38	0.000187
3723.02	0.000222
3732.67	0.000187
3742.31	0.000321
3751.96	0.000164
3761.6	0.000246
3771.25	0.000283
3780.89	0.000205
3790.54	0.000283
3800.18	0.000383
3809.83	0.000422
3819.47	0.00043
3829.12	0.000303
3838.76	0.000141
3848.41	0.000245
3858.05	0.000263
3867.7	0.000343
3877.34	0.000332
3886.99	0.000357
3896.63	0.000298
3906.28	8e-05
3915.92	0.000296
3925.57	0.000203
3935.21	0.000346
3944.86	0.000159
3954.5	0.000267
3964.15	0.000418
3973.79	0.000283
3983.44	0.00021
3993.08	0.000262
