Infrared Spectrum: 6-Methyl-5-hepten-2-ol
Formula: C 8 H 16 O
CAS: 4630-06-2
State: gas
Origin: EPA-IR VAPOR PHASE LIBRARY
1/CM	ABSORBANCE
549.8	0.00149
559.445	0.00116
569.09	0.00129
578.734	0.0007319
588.379	0.0007043
598.024	0.0008132
607.669	0.0007522
617.313	0.000562
626.958	0.0007476
636.603	0.0005784
646.248	0.0005428
655.893	0.0004911
665.537	0.0004364
675.182	0.0005594
684.827	0.0005504
694.472	0.0005841
704.116	0.0005562
713.761	0.0006692
723.406	0.0007696
733.051	0.00112
742.695	0.00147
752.34	0.00152
761.985	0.0013
771.63	0.00136
781.275	0.00167
790.919	0.00236
800.564	0.00335
810.209	0.00421
819.854	0.00543
829.498	0.00611
839.143	0.00562
848.788	0.00497
858.433	0.00436
868.078	0.0036
877.722	0.00314
887.367	0.00361
897.012	0.00494
906.657	0.00602
916.301	0.006
925.946	0.00627
935.591	0.00757
945.236	0.00851
954.88	0.00819
964.525	0.00701
974.17	0.00674
983.815	0.00707
993.46	0.00713
1003.1	0.00683
1012.75	0.00634
1022.39	0.00662
1032.04	0.00737
1041.68	0.00929
1051.33	0.01162
1060.97	0.01337
1070.62	0.01447
1080.26	0.0156
1089.91	0.0172
1099.55	0.01894
1109.2	0.0197
1118.84	0.01843
1128.49	0.01434
1138.13	0.01022
1147.78	0.008
1157.42	0.00738
1167.07	0.00734
1176.71	0.00739
1186.36	0.007
1196	0.00713
1205.64	0.00727
1215.29	0.00818
1224.93	0.00913
1234.58	0.01012
1244.22	0.01059
1253.87	0.00977
1263.51	0.00836
1273.16	0.00688
1282.8	0.00584
1292.45	0.00533
1302.09	0.00554
1311.74	0.00601
1321.38	0.00616
1331.03	0.00642
1340.67	0.00757
1350.32	0.00968
1359.96	0.01229
1369.61	0.01673
1379.25	0.02115
1388.9	0.01958
1398.54	0.01352
1408.18	0.00906
1417.83	0.0074
1427.47	0.00811
1437.12	0.01027
1446.76	0.01185
1456.41	0.01157
1466.05	0.00928
1475.7	0.0063
1485.34	0.00416
1494.99	0.00296
1504.63	0.00239
1514.28	0.00204
1523.92	0.00186
1533.57	0.00171
1543.21	0.00164
1552.86	0.00158
1562.5	0.00149
1572.15	0.00135
1581.79	0.00131
1591.44	0.00115
1601.08	0.00115
1610.73	0.0011
1620.37	0.00107
1630.01	0.00115
1639.66	0.00118
1649.3	0.00126
1658.95	0.00145
1668.59	0.00158
1678.24	0.00125
1687.88	0.0007985
1697.53	0.0007112
1707.17	0.0005628
1716.82	0.0005018
1726.46	0.0004887
1736.11	0.00039
1745.75	0.0003757
1755.4	0.0003691
1765.04	0.0004527
1774.69	0.0004167
1784.33	0.0004392
1793.98	0.0004059
1803.62	0.0003982
1813.27	0.0003821
1822.91	0.0003751
1832.55	0.0003506
1842.2	0.0003931
1851.84	0.0004034
1861.49	0.0004231
1871.13	0.0003697
1880.78	0.0003632
1890.42	0.0003896
1900.07	0.0003703
1909.71	0.0003278
1919.36	0.0003214
1929	0.0003739
1938.65	0.0003393
1948.29	0.0003786
1957.94	0.0003605
1967.58	0.0003751
1977.23	0.0003236
1986.87	0.0002971
1996.52	0.000298
2006.16	0.0002653
2015.81	0.0002989
2025.45	0.0002664
2035.1	0.0002839
2044.74	0.0002704
2054.38	0.0002723
2064.03	0.0002473
2073.67	0.0002487
2083.32	0.0002631
2092.96	0.0002418
2102.61	0.000281
2112.25	0.0002803
2121.9	0.0002852
2131.54	0.0002994
2141.19	0.0003148
2150.83	0.0003492
2160.48	0.0003325
2170.12	0.000357
2179.77	0.000315
2189.41	0.0003485
2199.06	0.0003418
2208.7	0.0003235
2218.35	0.0003432
2227.99	0.0002942
2237.64	0.0003186
2247.28	0.0003299
2256.92	0.0003203
2266.57	0.0003263
2276.21	0.0003154
2285.86	0.0003795
2295.5	0.0003597
2305.15	0.000411
2314.79	0.0003586
2324.44	0.0004038
2334.08	0.0003844
2343.73	0.0004155
2353.37	0.0003894
2363.02	0.000437
2372.66	0.000453
2382.31	0.0004968
2391.95	0.0004881
2401.6	0.0005547
2411.24	0.000521
2420.89	0.0005808
2430.53	0.0005336
2440.18	0.0005403
2449.82	0.0005547
2459.47	0.0004848
2469.11	0.0005293
2478.75	0.0004992
2488.4	0.0005094
2498.04	0.0005033
2507.69	0.0005078
2517.33	0.0005256
2526.98	0.0004899
2536.62	0.0005779
2546.27	0.0005531
2555.91	0.0005857
2565.56	0.000589
2575.2	0.0006735
2584.85	0.0007102
2594.49	0.0007596
2604.14	0.000883
2613.78	0.0009397
2623.43	0.00104
2633.07	0.00107
2642.72	0.00115
2652.36	0.00125
2662.01	0.00131
2671.65	0.00127
2681.29	0.00131
2690.94	0.00133
2700.58	0.00137
2710.23	0.00151
2719.87	0.00179
2729.52	0.00239
2739.16	0.00281
2748.81	0.00272
2758.45	0.00243
2768.1	0.00243
2777.74	0.00259
2787.39	0.00291
2797.03	0.00348
2806.68	0.00425
2816.32	0.00524
2825.97	0.00691
2835.61	0.0098
2845.26	0.015
2854.9	0.02254
2864.55	0.03074
2874.19	0.03502
2883.84	0.03602
2893.48	0.03712
2903.12	0.04081
2912.77	0.05093
2922.41	0.06388
2932.06	0.06585
2941.7	0.05392
2951.35	0.04299
2960.99	0.04405
2970.64	0.05312
2980.28	0.05176
2989.93	0.036
2999.57	0.02114
3009.22	0.01389
3018.86	0.01053
3028.51	0.00873
3038.15	0.00744
3047.8	0.00642
3057.44	0.00545
3067.09	0.00434
3076.73	0.00353
3086.38	0.00296
3096.02	0.00257
3105.67	0.00219
3115.31	0.00195
3124.95	0.00157
3134.6	0.00142
3144.24	0.00121
3153.89	0.00109
3163.53	0.0009735
3173.18	0.0007696
3182.82	0.0007763
3192.47	0.0007741
3202.11	0.0006905
3211.76	0.0007392
3221.4	0.0006384
3231.05	0.00055
3240.69	0.0005614
3250.34	0.0003854
3259.98	0.000492
3269.63	0.0004444
3279.27	0.0004248
3288.92	0.0004464
3298.56	0.0004732
3308.21	0.0003549
3317.85	0.0005239
3327.49	0.0004394
3337.14	0.0004854
3346.78	0.0004522
3356.43	0.0005625
3366.07	0.0005964
3375.72	0.0005772
3385.36	0.000583
3395.01	0.0005484
3404.65	0.0006851
3414.3	0.0006817
3423.94	0.000599
3433.59	0.0007137
3443.23	0.0006574
3452.88	0.0005963
3462.52	0.000628
3472.17	0.0006372
3481.81	0.0005578
3491.46	0.0005829
3501.1	0.000526
3510.75	0.0004968
3520.39	0.0004921
3530.04	0.0006592
3539.68	0.0004827
3549.32	0.000562
3558.97	0.0005875
3568.61	0.0007044
3578.26	0.0008881
3587.9	0.00134
3597.55	0.00206
3607.19	0.00232
3616.84	0.00267
3626.48	0.00301
3636.13	0.0039
3645.77	0.00537
3655.42	0.00613
3665.06	0.00441
3674.71	0.00239
3684.35	0.00139
3694	0.0008115
3703.64	0.000665
3713.29	0.0006079
3722.93	0.0005746
3732.58	0.0004749
3742.22	0.0005425
3751.86	0.0005602
3761.51	0.0005436
3771.15	0.0005582
3780.8	0.0004289
3790.44	0.0005911
3800.09	0.0006562
3809.73	0.0005827
3819.38	0.0006991
3829.02	0.0007154
3838.67	0.0007595
3848.31	0.0007711
3857.96	0.0007233
3867.6	0.0006378
3877.25	0.0006829
3886.89	0.0006947
3896.54	0.0006031
3906.18	0.0004916
3915.83	0.0004939
3925.47	0.0005701
3935.12	0.0003946
3944.76	0.0005295
3954.41	0.0004236
3964.05	0.0005562
3973.69	0.0004846
3983.34	0.0005292
3992.98	0.0005169
