Infrared Spectrum: 2,2,3-Trimethylbutane
Formula: C 7 H 16
CAS: 464-06-2
State: gas
Instrument: HP-GC/MS/IRD
Origin: NIST Mass Spectrometry Data Center
1/CM	ABSORBANCE
550	0.0002112
562	0.000132
574	0.0001056
586	6.6e-05
598	0.0001848
610	0.0001254
622	0.0002376
634	0.000198
646	0.0001518
658	0.0002178
670	0.0001716
682	0.000198
694	0.0002508
706	0.0001848
718	0.000132
730	0.0001914
742	0.0001518
754	0.0001122
766	0.0001188
778	9.24e-05
790	0.0002046
802	0.0002112
814	0.0003498
826	0.0004356
838	0.0003102
850	0.0002178
862	0.0001716
874	0.000198
886	0.000264
898	0.0003036
910	0.000429
922	0.000495
934	0.000429
946	0.0003168
958	0.00033
970	0.0003432
982	0.0003894
994	0.0005544
1006	0.0006006
1018	0.0005676
1030	0.0004158
1042	0.0003762
1054	0.0004422
1066	0.000825
1078	0.0015576
1090	0.002145
1102	0.001914
1114	0.0011418
1126	0.0006996
1138	0.0013002
1150	0.0020724
1162	0.002112
1174	0.0013662
1186	0.0012276
1198	0.0021186
1210	0.002739
1222	0.0018216
1234	0.0008844
1246	0.0006996
1258	0.0005082
1270	0.0003366
1282	0.0003432
1294	0.0003762
1306	0.0004554
1318	0.0006402
1330	0.0007854
1342	0.0013464
1354	0.0037158
1366	0.0084348
1378	0.0106194
1390	0.0085932
1402	0.004059
1414	0.0017424
1426	0.0015114
1438	0.0023496
1450	0.004323
1462	0.0068772
1474	0.0074712
1486	0.0052998
1498	0.0026004
1510	0.001023
1522	0.0006072
1534	0.0004554
1546	0.0003894
1558	0.0003036
1570	0.0002838
1582	0.0002442
1594	0.0002244
1606	0.0002178
1618	0.0002046
1630	0.0002046
1642	0.0002046
1654	0.0002112
1666	0.0002046
1678	0.0002046
1690	0.0001716
1702	0.0001518
1714	0.0001254
1726	0.000132
1738	0.0001386
1750	0.0001386
1762	0.0001386
1774	0.0001056
1786	0.0001188
1798	9.9e-05
1810	9.9e-05
1822	0.0001254
1834	0.0001254
1846	0.0001122
1858	9.24e-05
1870	7.92e-05
1882	9.9e-05
1894	0.0001122
1906	0.0001056
1918	0.0001056
1930	8.58e-05
1942	7.92e-05
1954	8.58e-05
1966	7.92e-05
1978	7.26e-05
1990	3.96e-05
2002	6.6e-05
2014	6.6e-05
2026	7.26e-05
2038	7.92e-05
2050	0.0001056
2062	9.9e-05
2074	7.26e-05
2086	4.62e-05
2098	6.6e-06
2110	1.32e-05
2122	2.64e-05
2134	1.32e-05
2146	5.28e-05
2158	3.3e-05
2170	3.96e-05
2182	5.28e-05
2194	7.92e-05
2206	6.6e-05
2218	6.6e-05
2230	7.26e-05
2242	5.28e-05
2254	5.94e-05
2266	6.6e-05
2278	0.0001188
2290	0.000132
2302	0.0001122
2314	8.58e-05
2326	7.92e-05
2338	9.9e-05
2350	0.0001254
2362	9.24e-05
2374	0.0001584
2386	0.0001518
2398	0.0001584
2410	0.0002178
2422	0.0001584
2434	0.0001518
2446	0.0001254
2458	0.0001386
2470	0.0001518
2482	0.000132
2494	0.0001188
2506	0.0001452
2518	0.0001452
2530	0.0001386
2542	0.000165
2554	0.0002046
2566	0.0002442
2578	0.0002772
2590	0.0003432
2602	0.0005148
2614	0.0006402
2626	0.000528
2638	0.0004752
2650	0.0004026
2662	0.0003828
2674	0.000462
2686	0.0004818
2698	0.000561
2710	0.0007128
2722	0.0008778
2734	0.0010098
2746	0.0009636
2758	0.0009306
2770	0.001056
2782	0.0011814
2794	0.0013596
2806	0.0015708
2818	0.001815
2830	0.0023364
2842	0.0033924
2854	0.0066858
2866	0.0139788
2878	0.0231396
2890	0.0235092
2902	0.021252
2914	0.020559
2926	0.0237336
2938	0.0312114
2950	0.045309
2962	0.062832
2974	0.0615714
2986	0.0373296
2998	0.0151008
3010	0.0053988
3022	0.0029502
3034	0.002244
3046	0.001881
3058	0.001584
3070	0.0012804
3082	0.0010824
3094	0.001023
3106	0.0009966
3118	0.0009768
3130	0.0010494
3142	0.0010494
3154	0.001056
3166	0.001056
3178	0.0011022
3190	0.00099
3202	0.0009306
3214	0.0007854
3226	0.0006798
3238	0.0005742
3250	0.0004158
3262	0.0003828
3274	0.0003102
3286	0.000264
3298	0.0002442
3310	0.0002772
3322	0.0002904
3334	0.0002904
3346	0.00033
3358	0.0002706
3370	0.0002706
3382	0.0002442
3394	0.0002244
3406	0.0002706
3418	0.0001914
3430	0.000198
3442	0.0001716
3454	0.000165
3466	0.0001122
3478	0.0001254
3490	0.000198
3502	0.000132
3514	7.92e-05
3526	0.0001254
3538	7.26e-05
3550	8.58e-05
3562	0.0001122
3574	4.62e-05
3586	8.58e-05
3598	7.92e-05
3610	0.0001056
3622	0.0001122
3634	0.0001452
3646	0.0001056
3658	0.0001254
3670	5.94e-05
3682	0.0001584
3694	0.0001254
3706	0.0001584
3718	0.000198
3730	0.0001518
3742	0.0001584
3754	0.0001518
3766	0.0001518
3778	0.000231
3790	0.0002376
3802	0.0002442
3814	0.000231
3826	0.0002574
3838	0.0002244
