Infrared Spectrum: Camphor
Formula: C 10 H 16 O
CAS: 464-48-2
State: gas
Instrument: HP-GC/MS/IRD
Origin: NIST Mass Spectrometry Data Center
1/CM	ABSORBANCE
550	0.000448
562	0.000238
574	2.8e-05
586	6.3e-05
598	8.75e-05
610	0.0001575
622	0.0001225
634	0.000343
646	0.0004235
658	8.75e-05
670	4.9e-05
682	0
694	4.9e-05
706	0.000133
718	0.0002065
730	0.0005495
742	0.001155
754	0.000882
766	0.000266
778	7e-05
790	0.000112
802	0.000133
814	0.0001855
826	0.0001855
838	0.000273
850	0.000518
862	0.000441
874	0.000175
886	0.0002275
898	0.000462
910	0.000763
922	0.000791
934	0.0009695
946	0.0008365
958	0.00063
970	0.0003535
982	0.000406
994	0.000602
1006	0.001554
1018	0.003094
1030	0.003626
1042	0.0040005
1054	0.0027405
1066	0.001183
1078	0.001022
1090	0.0010815
1102	0.000728
1114	0.0004935
1126	0.000448
1138	0.000413
1150	0.000539
1162	0.000756
1174	0.0006685
1186	0.000854
1198	0.001085
1210	0.0006825
1222	0.0006685
1234	0.0008085
1246	0.000847
1258	0.0010605
1270	0.001554
1282	0.001344
1294	0.001064
1306	0.001267
1318	0.0016275
1330	0.0010115
1342	0.0005215
1354	0.0006965
1366	0.001883
1378	0.003689
1390	0.003955
1402	0.0025655
1414	0.0022505
1426	0.003003
1438	0.002597
1450	0.0030625
1462	0.0030555
1474	0.002688
1486	0.0020685
1498	0.0010045
1510	0.0004375
1522	0.000294
1534	0.000266
1546	0.0002345
1558	0.000182
1570	0.000266
1582	0.0002695
1594	0.0002835
1606	0.0002835
1618	0.000315
1630	0.000294
1642	0.0003255
1654	0.0003325
1666	0.0003395
1678	0.0004095
1690	0.00056
1702	0.000819
1714	0.001386
1726	0.0023485
1738	0.0070945
1750	0.0246645
1762	0.0348145
1774	0.0151795
1786	0.003682
1798	0.0016835
1810	0.0007805
1822	0.000448
1834	0.000357
1846	0.000343
1858	0.000399
1870	0.000385
1882	0.0003255
1894	0.0002625
1906	0.0001995
1918	0.0001715
1930	0.000147
1942	0.0001295
1954	0.000133
1966	9.45e-05
1978	0.000119
1990	0.000112
2002	0.0001295
2014	0.0001295
2026	0.0001435
2038	0.000147
2050	0.000161
2062	0.0001575
2074	0.000154
2086	0.000147
2098	0.0001225
2110	8.75e-05
2122	0.000119
2134	9.8e-05
2146	8.4e-05
2158	7.35e-05
2170	9.1e-05
2182	4.9e-05
2194	7.7e-05
2206	6.3e-05
2218	9.45e-05
2230	9.1e-05
2242	0.0001015
2254	5.95e-05
2266	8.05e-05
2278	9.1e-05
2290	9.1e-05
2302	0.0001015
2314	9.45e-05
2326	6.65e-05
2338	3.85e-05
2350	6.3e-05
2362	5.25e-05
2374	5.95e-05
2386	4.55e-05
2398	8.05e-05
2410	5.6e-05
2422	4.2e-05
2434	7.35e-05
2446	3.15e-05
2458	8.05e-05
2470	9.8e-05
2482	3.85e-05
2494	7.7e-05
2506	6.65e-05
2518	2.8e-05
2530	2.45e-05
2542	4.9e-05
2554	7.35e-05
2566	5.25e-05
2578	9.1e-05
2590	0.0001015
2602	7.7e-05
2614	8.05e-05
2626	5.95e-05
2638	6.65e-05
2650	9.45e-05
2662	8.05e-05
2674	8.4e-05
2686	0.000112
2698	0.0001435
2710	0.000126
2722	0.0002205
2734	0.00035
2746	0.000378
2758	0.000287
2770	0.000322
2782	0.0003745
2794	0.000441
2806	0.000497
2818	0.000679
2830	0.000903
2842	0.001099
2854	0.0015645
2866	0.0033495
2878	0.007021
2890	0.009051
2902	0.0084
2914	0.0082705
2926	0.011368
2938	0.0171115
2950	0.0229635
2962	0.0293335
2974	0.02513
2986	0.0119735
2998	0.005369
3010	0.002191
3022	0.001113
3034	0.0008225
3046	0.000693
3058	0.0007035
3070	0.000672
3082	0.0006895
3094	0.0006545
3106	0.0005705
3118	0.0005145
3130	0.000455
3142	0.0004165
3154	0.0003115
3166	0.000329
3178	0.000259
3190	0.000224
3202	0.0001785
3214	0.000161
3226	0.0001785
3238	0.000147
3250	0.000119
3262	0.000112
3274	8.75e-05
3286	0.0001085
3298	5.25e-05
3310	5.95e-05
3322	7.35e-05
3334	0.000119
3346	8.05e-05
3358	8.4e-05
3370	8.4e-05
3382	0.0001225
3394	0.0001225
3406	0.0001085
3418	0.000112
3430	8.4e-05
3442	0.0001295
3454	8.75e-05
3466	0.0001505
3478	0.00028
3490	0.0005145
3502	0.0006965
3514	0.0004655
3526	0.0002415
3538	0.0001785
3550	0.0001575
3562	6.3e-05
3574	6.65e-05
3586	9.8e-05
3598	4.9e-05
3610	3.5e-05
3622	2.8e-05
3634	7.35e-05
3646	7.35e-05
3658	8.05e-05
3670	6.3e-05
3682	4.55e-05
3694	8.05e-05
3706	4.55e-05
3718	7e-05
3730	7.35e-05
3742	3.5e-05
3754	5.6e-05
3766	1.05e-05
3778	5.95e-05
3790	0.0001085
3802	9.8e-05
3814	0.0001365
3826	0.0001015
3838	8.4e-05
