Infrared Spectrum: Bornylchloride
Formula: C 10 H 17 Cl
CAS: 464-41-5
State: gas
Instrument: HP-GC/MS/IRD
Origin: NIST Mass Spectrometry Data Center
1/CM	ABSORBANCE
550	0.0002793
562	0.0001292
574	0.0002793
586	0.0001159
598	0.0001729
610	5.51e-05
622	3.23e-05
634	0.0001558
646	0.0001159
658	9.31e-05
670	0.0001824
682	0.0004047
694	0.0014174
706	0.0017936
718	0.0006555
730	0.0001995
742	0.0001596
754	0.0001596
766	0.0002337
778	0.0006935
790	0.0021033
802	0.0014915
814	0.0003914
826	0.0003097
838	0.000361
850	0.0007144
862	0.0010241
874	0.0003648
886	0.0002356
898	0.0007771
910	0.0013946
922	0.0016036
934	0.0018316
946	0.0015903
958	0.0006574
970	0.0002698
982	0.0003344
994	0.0003306
1006	0.0002147
1018	0.0001596
1030	0.0002147
1042	0.0001273
1054	7.22e-05
1066	7.03e-05
1078	0.0001938
1090	0.0002527
1102	0.0006517
1114	0.0005928
1126	0.0003629
1138	0.0003705
1150	0.0002831
1162	0.0001786
1174	0.0002014
1186	0.0004085
1198	0.0005472
1210	0.0003344
1222	0.0003154
1234	0.0002451
1246	0.0002546
1258	0.0005833
1270	0.0009899
1282	0.0011248
1294	0.000779
1306	0.0010659
1318	0.0006821
1330	0.0003401
1342	0.0002603
1354	0.0004123
1366	0.0010811
1378	0.0020843
1390	0.0024054
1402	0.001425
1414	0.0003515
1426	0.00038
1438	0.0007657
1450	0.0019152
1462	0.0029545
1474	0.0026239
1486	0.0017708
1498	0.0007714
1510	0.0003211
1522	0.0002185
1534	0.0001463
1546	0.000133
1558	0.0001368
1570	9.5e-05
1582	7.6e-05
1594	0.0001007
1606	6.46e-05
1618	0.0001235
1630	7.41e-05
1642	0.0001064
1654	0.0001425
1666	7.98e-05
1678	5.89e-05
1690	6.46e-05
1702	6.65e-05
1714	2.09e-05
1726	4.37e-05
1738	1.52e-05
1750	2.66e-05
1762	7.6e-06
1774	4.18e-05
1786	2.66e-05
1798	2.28e-05
1810	2.47e-05
1822	3.99e-05
1834	9.5e-06
1846	3.23e-05
1858	3.23e-05
1870	6.46e-05
1882	2.28e-05
1894	1.14e-05
1906	2.28e-05
1918	1.52e-05
1930	0
1942	5.89e-05
1954	9.5e-06
1966	4.94e-05
1978	3.8e-05
1990	2.28e-05
2002	3.04e-05
2014	3.8e-05
2026	2.47e-05
2038	3.61e-05
2050	3.23e-05
2062	1.9e-05
2074	3.42e-05
2086	4.18e-05
2098	3.8e-06
2110	3.04e-05
2122	4.94e-05
2134	3.04e-05
2146	2.47e-05
2158	1.14e-05
2170	6.27e-05
2182	9.5e-06
2194	2.28e-05
2206	3.23e-05
2218	1.33e-05
2230	2.09e-05
2242	2.47e-05
2254	1.14e-05
2266	5.7e-05
2278	5.89e-05
2290	6.27e-05
2302	7.6e-05
2314	5.13e-05
2326	5.51e-05
2338	6.27e-05
2350	3.04e-05
2362	8.17e-05
2374	4.94e-05
2386	3.8e-05
2398	7.03e-05
2410	4.75e-05
2422	4.94e-05
2434	4.75e-05
2446	2.47e-05
2458	5.7e-05
2470	4.56e-05
2482	6.08e-05
2494	3.8e-05
2506	5.89e-05
2518	6.46e-05
2530	4.75e-05
2542	1.9e-06
2554	5.89e-05
2566	8.17e-05
2578	7.79e-05
2590	2.47e-05
2602	6.65e-05
2614	6.65e-05
2626	6.08e-05
2638	5.51e-05
2650	6.27e-05
2662	3.04e-05
2674	3.8e-05
2686	7.41e-05
2698	0.0001007
2710	9.88e-05
2722	0.0001615
2734	0.0002318
2746	0.0002223
2758	0.0001596
2770	0.0002014
2782	0.0002869
2794	0.0002318
2806	0.000285
2818	0.000361
2830	0.0004883
2842	0.0006289
2854	0.0009424
2866	0.002128
2878	0.0048697
2890	0.0070642
2902	0.0063574
2914	0.0057361
2926	0.0074746
2938	0.0117458
2950	0.0167694
2962	0.019
2974	0.015789
2986	0.0103474
2998	0.005757
3010	0.0023237
3022	0.0009063
3034	0.0005928
3046	0.0005643
3058	0.0004807
3070	0.0004826
3082	0.000418
3094	0.0004237
3106	0.0003344
3118	0.000285
3130	0.0003477
3142	0.0002717
3154	0.0002736
3166	0.0002375
3178	0.0001368
3190	0.0001387
3202	0.0001026
3214	0.0001691
3226	6.84e-05
3238	0.0001444
3250	4.75e-05
3262	9.88e-05
3274	8.74e-05
3286	6.46e-05
3298	0.0001577
3310	9.69e-05
3322	4.75e-05
3334	4.56e-05
3346	9.12e-05
3358	0.0001159
3370	0.0001178
3382	7.22e-05
3394	4.18e-05
3406	8.17e-05
3418	6.84e-05
3430	0.0001463
3442	0.0001102
3454	8.55e-05
3466	2.66e-05
3478	0.000133
3490	0.0001083
3502	0.0001292
3514	0.0001444
3526	8.55e-05
3538	9.69e-05
3550	0.0001558
3562	0.0001121
3574	7.41e-05
3586	9.5e-05
3598	0.0001349
3610	0.0001387
3622	0.0001311
3634	0.0001596
3646	0.0001368
3658	0.0001121
3670	0.0001615
3682	0.0001634
3694	0.0001425
3706	0.0002147
3718	0.0001596
3730	0.0001444
3742	0.0001767
3754	0.0001919
3766	0.0001539
3778	0.0001881
3790	0.0001729
3802	0.0002185
3814	0.0001767
3826	0.0002147
3838	0.00019
