Infrared Spectrum: 3,4-Dichlorobenzoylacetonitrile
Formula: C 9 H 5 Cl 2 N O
CAS: 4640-68-0
State: gas
Origin: EPA-IR VAPOR PHASE LIBRARY
1/CM	ABSORBANCE
549.8	0.00299
559.445	0.00289
569.09	0.00344
578.734	0.0020815
588.379	0.0022354
598.024	0.00433
607.669	0.00246
617.313	0.0019647
626.958	0.00261
636.603	0.001695
646.248	0.0023484
655.893	0.0015218
665.537	0.00238
675.182	0.00479
684.827	0.00373
694.472	0.00245
704.116	0.00265
713.761	0.00292
723.406	0.00295
733.051	0.00367
742.695	0.00295
752.34	0.00286
761.985	0.00269
771.63	0.0021443
781.275	0.00243
790.919	0.00278
800.564	0.00354
810.209	0.0047
819.854	0.00577
829.498	0.00516
839.143	0.00323
848.788	0.00296
858.433	0.00267
868.078	0.00252
877.722	0.00308
887.367	0.00235
897.012	0.00337
906.657	0.00276
916.301	0.00245
925.946	0.0032
935.591	0.00349
945.236	0.00265
954.88	0.00277
964.525	0.00244
974.17	0.00237
983.815	0.00263
993.46	0.0021748
1003.1	0.0041
1012.75	0.00405
1022.39	0.0059
1032.04	0.01233
1041.68	0.01203
1051.33	0.0052
1060.97	0.00407
1070.62	0.00485
1080.26	0.00328
1089.91	0.00139597
1099.55	0.00406
1109.2	0.00307
1118.84	0.00329
1128.49	0.00369
1138.13	0.00461
1147.78	0.00538
1157.42	0.00381
1167.07	0.00465
1176.71	0.00533
1186.36	0.00486
1196	0.00423
1205.64	0.00466
1215.29	0.00901
1224.93	0.00576
1234.58	0.00842
1244.22	0.01087
1253.87	0.00903
1263.51	0.00775
1273.16	0.01092
1282.8	0.00761
1292.45	0.00354
1302.09	0.0034
1311.74	0.00376
1321.38	0.00435
1331.03	0.0035
1340.67	0.00252
1350.32	0.0023237
1359.96	0.00303
1369.61	0.00536
1379.25	0.00719
1388.9	0.00669
1398.54	0.00423
1408.18	0.00368
1417.83	0.00441
1427.47	0.00343
1437.12	0.00277
1446.76	0.00308
1456.41	0.00404
1466.05	0.00549
1475.7	0.00428
1485.34	0.00277
1494.99	0.0021267
1504.63	0.0021842
1514.28	0.0023149
1523.92	0.0022786
1533.57	0.00276
1543.21	0.00391
1552.86	0.00507
1562.5	0.00489
1572.15	0.00488
1581.79	0.00646
1591.44	0.00534
1601.08	0.00331
1610.73	0.00267
1620.37	0.00254
1630.01	0.0023428
1639.66	0.0019179
1649.3	0.0015929
1658.95	0.0022128
1668.59	0.0020603
1678.24	0.00266
1687.88	0.00337
1697.53	0.00602
1707.17	0.01394
1716.82	0.02026
1726.46	0.01354
1736.11	0.0056
1745.75	0.00367
1755.4	0.0027
1765.04	0.00249
1774.69	0.0020658
1784.33	0.0019566
1793.98	0.0020001
1803.62	0.0018352
1813.27	0.0019213
1822.91	0.001878
1832.55	0.001832
1842.2	0.0019923
1851.84	0.0017367
1861.49	0.0016351
1871.13	0.0022144
1880.78	0.0018446
1890.42	0.0016931
1900.07	0.0017609
1909.71	0.0016626
1919.36	0.0019495
1929	0.0017384
1938.65	0.0015349
1948.29	0.001831
1957.94	0.0018594
1967.58	0.002061
1977.23	0.0016378
1986.87	0.0015326
1996.52	0.0018885
2006.16	0.001819
2015.81	0.0017762
2025.45	0.0019104
2035.1	0.0018376
2044.74	0.0017815
2054.38	0.0018909
2064.03	0.0019436
2073.67	0.0016075
2083.32	0.0017825
2092.96	0.0014989
2102.61	0.0016743
2112.25	0.0015693
2121.9	0.0018277
2131.54	0.0015443
2141.19	0.0016082
2150.83	0.0017855
2160.48	0.0017872
2170.12	0.0014957
2179.77	0.0015443
2189.41	0.0016853
2199.06	0.0015489
2208.7	0.0015484
2218.35	0.0014574
2227.99	0.0018836
2237.64	0.0018262
2247.28	0.0015775
2256.92	0.0018039
2266.57	0.0017562
2276.21	0.0019141
2285.86	0.0019932
2295.5	0.001791
2305.15	0.0018699
2314.79	0.00136138
2324.44	0.00139867
2334.08	0.0016092
2343.73	0.00141305
2353.37	0.0015156
2363.02	0.0016776
2372.66	0.0017706
2382.31	0.0020139
2391.95	0.0014887
2401.6	0.0016983
2411.24	0.0018669
2420.89	0.0017091
2430.53	0.0015847
2440.18	0.001746
2449.82	0.001757
2459.47	0.0019032
2469.11	0.0017809
2478.75	0.0018283
2488.4	0.00143179
2498.04	0.0017387
2507.69	0.0017025
2517.33	0.0018845
2526.98	0.0018671
2536.62	0.001488
2546.27	0.0020492
2555.91	0.0018767
2565.56	0.0015655
2575.2	0.001187
2584.85	0.0015413
2594.49	0.0014525
2604.14	0.0016327
2613.78	0.0016384
2623.43	0.0016004
2633.07	0.0014823
2642.72	0.0017104
2652.36	0.0015411
2662.01	0.0018018
2671.65	0.0016743
2681.29	0.00140947
2690.94	0.0014802
2700.58	0.0019415
2710.23	0.0016259
2719.87	0.0014845
2729.52	0.0014734
2739.16	0.0019943
2748.81	0.0015187
2758.45	0.0016925
2768.1	0.0018811
2777.74	0.0020122
2787.39	0.0014555
2797.03	0.0017023
2806.68	0.00119
2816.32	0.0018352
2825.97	0.0014533
2835.61	0.000941
2845.26	0.0012617
2854.9	0.001718
2864.55	0.001226
2874.19	0.0019007
2883.84	0.0017092
2893.48	0.0016307
2903.12	0.00138286
2912.77	0.0017803
2922.41	0.0017904
2932.06	0.0018703
2941.7	0.0014624
2951.35	0.0016878
2960.99	0.0016363
2970.64	0.0015399
2980.28	0.0017813
2989.93	0.0016613
2999.57	0.00135049
3009.22	0.0019464
3018.86	0.001212
3028.51	0.001159
3038.15	0.001701
3047.8	0.001165
3057.44	0.0022898
3067.09	0.0015576
3076.73	0.0021154
3086.38	0.000875
3096.02	0.00235
3105.67	0.001148
3115.31	0.0016845
3124.95	0.001196
3134.6	0.0018656
3144.24	0.001219
3153.89	0.0019281
3163.53	0.0019607
3173.18	0.0017308
3182.82	0.0019242
3192.47	0.0021392
3202.11	0.001155
3211.76	0.0019201
3221.4	0.0021425
3231.05	0.0018752
3240.69	0.001182
3250.34	0.0015209
3259.98	0.0015009
3269.63	0.0017234
3279.27	0.001055
3288.92	0.0017692
3298.56	0.00245
3308.21	0.0017126
3317.85	0.0016905
3327.49	0.0016974
3337.14	0.001023
3346.78	0.0015765
3356.43	0.0019396
3366.07	0.0012628
3375.72	0.0014578
3385.36	0.00248
3395.01	0.0014991
3404.65	0.0018735
3414.3	0.0019691
3423.94	0.0021487
3433.59	0.0015497
3443.23	0.0017715
3452.88	0.0015199
3462.52	0.001944
3472.17	0.0022271
3481.81	0.000791
3491.46	0.0015067
3501.1	0.0018008
3510.75	0.0017089
3520.39	0.0017243
3530.04	0.0022213
3539.68	0.0017148
3549.32	0.00262
3558.97	0.0015823
3568.61	0.0019318
3578.26	0.0016341
3587.9	0.0020498
3597.55	0.000621
3607.19	0.0014581
3616.84	0.0017098
3626.48	0.0017014
3636.13	0.0017963
3645.77	0.0018442
3655.42	0.0022001
3665.06	0.0018361
3674.71	0.0012936
3684.35	0.00143219
3694	0.0016214
3703.64	0.0018896
3713.29	0.0020029
3722.93	0.0021961
3732.58	0.000893
3742.22	0.0019279
3751.86	0.0015354
3761.51	0.0014596
3771.15	0.00253
3780.8	0.0017449
3790.44	0.0019974
3800.09	0.001568
3809.73	0.00136201
3819.38	0.00297
3829.02	0.0017318
3838.67	0.00125
3848.31	0.00144369
3857.96	0.002245
3867.6	0.0021674
3877.25	0.0018569
3886.89	0.0020195
3896.54	0.00109
3906.18	0.001681
3915.83	0.0015574
3925.47	0.0014675
3935.12	0.0016068
3944.76	0.0017904
3954.41	0.001166
3964.05	0.00141934
3973.69	0.001036
3983.34	0.00247
3992.98	0.0015503
