Infrared Spectrum: 4-Chlorobenzoylacetonitrile
Formula: C 9 H 6 Cl N O
CAS: 4640-66-8
State: gas
Origin: EPA-IR VAPOR PHASE LIBRARY
1/CM	ABSORBANCE
549.9	0.00825
559.547	0.00669
569.193	0.00674
578.84	0.00675
588.486	0.00721
598.133	0.00606
607.779	0.00396
617.426	0.00371
627.072	0.00491
636.719	0.005
646.365	0.00434
656.012	0.00443
665.658	0.00551
675.305	0.00693
684.951	0.00538
694.598	0.00371
704.245	0.00354
713.891	0.00458
723.538	0.00668
733.184	0.00766
742.831	0.00765
752.477	0.01201
762.124	0.0212
771.77	0.0157
781.417	0.00995
791.063	0.01001
800.71	0.01271
810.356	0.01813
820.003	0.02398
829.649	0.02952
839.296	0.02458
848.943	0.01141
858.589	0.00561
868.236	0.00406
877.882	0.00388
887.529	0.00417
897.175	0.00577
906.822	0.00918
916.468	0.01431
926.115	0.01572
935.761	0.00993
945.408	0.00602
955.054	0.00481
964.701	0.00399
974.347	0.00437
983.994	0.00636
993.64	0.01484
1003.29	0.0443
1012.93	0.0564
1022.58	0.01983
1032.23	0.01365
1041.87	0.00716
1051.52	0.00635
1061.17	0.00788
1070.81	0.01153
1080.46	0.01991
1090.11	0.06925
1099.75	0.09938
1109.4	0.02193
1119.05	0.00894
1128.69	0.00548
1138.34	0.00368
1147.99	0.00345
1157.63	0.00541
1167.28	0.01535
1176.92	0.02901
1186.57	0.01854
1196.22	0.01885
1205.86	0.03156
1215.51	0.02892
1225.16	0.02087
1234.8	0.02159
1244.45	0.03115
1254.1	0.06009
1263.74	0.09726
1273.39	0.07043
1283.04	0.02656
1292.68	0.01627
1302.33	0.01751
1311.98	0.02325
1321.62	0.0242
1331.27	0.01696
1340.92	0.00992
1350.56	0.00781
1360.21	0.00599
1369.86	0.00569
1379.5	0.00773
1389.15	0.01466
1398.79	0.02148
1408.44	0.02137
1418.09	0.02197
1427.73	0.01319
1437.38	0.00666
1447.03	0.00516
1456.67	0.0049
1466.32	0.00558
1475.97	0.00927
1485.61	0.0208
1495.26	0.01789
1504.91	0.00592
1514.55	0.00386
1524.2	0.00359
1533.85	0.0041
1543.49	0.00544
1553.14	0.00957
1562.79	0.02048
1572.43	0.03356
1582.08	0.04344
1591.73	0.07015
1601.37	0.05846
1611.02	0.01763
1620.67	0.01064
1630.31	0.00884
1639.96	0.00663
1649.6	0.00617
1659.25	0.00725
1668.9	0.00921
1678.54	0.01237
1688.19	0.02009
1697.84	0.0482
1707.48	0.11071
1717.13	0.13319
1726.78	0.07054
1736.42	0.02532
1746.07	0.01257
1755.72	0.00911
1765.36	0.0072
1775.01	0.00539
1784.66	0.00467
1794.3	0.00418
1803.95	0.00355
1813.6	0.00307
1823.24	0.00283
1832.89	0.0026528
1842.54	0.0026682
1852.18	0.0029
1861.83	0.00288
1871.47	0.00272
1881.12	0.003
1890.77	0.00334
1900.41	0.00332
1910.06	0.00301
1919.71	0.00279
1929.35	0.00285
1939	0.00281
1948.65	0.0022402
1958.29	0.00176763
1967.94	0.0016552
1977.59	0.00154
1987.23	0.0015877
1996.88	0.001492
2006.53	0.0016171
2016.17	0.00167945
2025.82	0.00175022
2035.47	0.00170784
2045.11	0.001512
2054.76	0.001417
2064.41	0.001444
2074.05	0.001409
2083.7	0.001501
2093.35	0.001476
2102.99	0.001425
2112.64	0.001414
2122.28	0.001495
2131.93	0.001402
2141.58	0.001398
2151.22	0.001411
2160.87	0.001373
2170.52	0.001379
2180.16	0.00142
2189.81	0.001478
2199.46	0.00171255
2209.1	0.0024944
2218.75	0.0019549
2228.4	0.0016364
2238.04	0.00175776
2247.69	0.0023442
2257.34	0.00304
2266.98	0.0025632
2276.63	0.0019646
2286.28	0.0019311
2295.92	0.0020606
2305.57	0.002045
2315.22	0.0018801
2324.86	0.0018163
2334.51	0.00174628
2344.16	0.0018199
2353.8	0.0018116
2363.45	0.00170068
2373.09	0.0016409
2382.74	0.0016014
2392.39	0.00172884
2402.03	0.0018058
2411.68	0.0018231
2421.33	0.0017721
2430.97	0.001651
2440.62	0.00166049
2450.27	0.0016136
2459.91	0.001516
2469.56	0.001528
2479.21	0.001552
2488.85	0.0015852
2498.5	0.0018268
2508.15	0.0019463
2517.79	0.0022107
2527.44	0.0025456
2537.09	0.00271
2546.73	0.0027
2556.38	0.0026488
2566.03	0.0025102
2575.67	0.0023251
2585.32	0.002158
2594.96	0.0020089
2604.61	0.0019302
2614.26	0.0018149
2623.9	0.00172725
2633.55	0.001523
2643.2	0.001533
2652.84	0.0016362
2662.49	0.001564
2672.14	0.0016315
2681.78	0.0015797
2691.43	0.0015899
2701.08	0.001497
2710.72	0.001461
2720.37	0.001467
2730.02	0.0015955
2739.66	0.0015844
2749.31	0.0016197
2758.96	0.00167664
2768.6	0.001566
2778.25	0.0016308
2787.9	0.0016514
2797.54	0.0016228
2807.19	0.001542
2816.84	0.001538
2826.48	0.001497
2836.13	0.001478
2845.77	0.0015754
2855.42	0.001469
2865.07	0.0015773
2874.71	0.001508
2884.36	0.001362
2894.01	0.001253
2903.65	0.001309
2913.3	0.00166089
2922.95	0.0019331
2932.59	0.00278
2942.24	0.0025443
2951.89	0.0016318
2961.53	0.001434
2971.18	0.001389
2980.83	0.001453
2990.47	0.001405
3000.12	0.001502
3009.77	0.001322
3019.41	0.0015
3029.06	0.0017843
3038.71	0.0022999
3048.35	0.0025017
3058	0.0027
3067.64	0.00323
3077.29	0.00277
3086.94	0.00337
3096.58	0.00398
3106.23	0.00275
3115.88	0.00137
3125.52	0.000939
3135.17	0.001036
3144.82	0.000942
3154.46	0.000736
3164.11	0.000719
3173.76	0.000731
3183.4	0.000851
3193.05	0.000774
3202.7	0.00082
3212.34	0.00065
3221.99	0.00058
3231.64	0.00041
3241.28	0.00054
3250.93	0.00022
3260.58	0.00044
3270.22	0.00032
3279.87	0.00026
3289.52	0.00028
3299.16	0.00034
3308.81	0.00035
3318.45	0.00036
3328.1	0.00032
3337.75	0.00036
3347.39	0.00029
3357.04	0.00059
3366.69	0.0005
3376.33	0.000871
3385.98	0.001149
3395.63	0.0017931
3405.27	0.0021875
3414.92	0.0021853
3424.57	0.001256
3434.21	0.000917
3443.86	0.00063
3453.51	0.00053
3463.15	0.00038
3472.8	0.00037
3482.45	0.00035
3492.09	0.00037
3501.74	0.00042
3511.39	0.00038
3521.03	0.0004
3530.68	0.00035
3540.33	0.001005
3549.97	0.0016064
3559.62	0.000874
3569.26	0.00057
3578.91	0.000817
3588.56	0.000747
3598.2	0.00053
3607.85	0.00058
3617.5	0.00054
3627.14	0.0008
3636.79	0.000773
3646.44	0.00084
3656.08	0.000731
3665.73	0.000813
3675.38	0.00071
3685.02	0.000835
3694.67	0.000825
3704.32	0.000717
3713.96	0.000949
3723.61	0.000992
3733.26	0.00101
3742.9	0.000979
3752.55	0.000673
3762.2	0.00089
3771.84	0.000789
3781.49	0.00093
3791.13	0.000901
3800.78	0.0008
3810.43	0.000906
3820.07	0.000975
3829.72	0.000906
3839.37	0.001018
3849.01	0.00101
3858.66	0.001035
3868.31	0.000977
3877.95	0.001079
3887.6	0.001062
3897.25	0.000888
3906.89	0.00105
3916.54	0.000991
3926.19	0.000957
3935.83	0.000957
3945.48	0.001034
3955.13	0.000926
3964.77	0.001206
3974.42	0.00115
3984.07	0.001164
3993.71	0.001101
