Infrared Spectrum: 2-Octen-4-one
Formula: C 8 H 14 O
CAS: 4643-27-0
State: gas
Instrument: HP-GC/MS/IRD
Origin: NIST Mass Spectrometry Data Center
1/CM	ABSORBANCE
550	0.0010824
562	0.0004422
574	0.0003542
586	0.0002508
598	0.0002112
610	0.0002376
622	0.0001144
634	0.0001188
646	0.0002926
658	0.0002486
670	0.0001518
682	0.0001254
694	7.92e-05
706	0.0001342
718	0.0002288
730	0.0003674
742	0.000451
754	0.000473
766	0.0002882
778	0.0002266
790	0.0001364
802	7.26e-05
814	4.84e-05
826	6.38e-05
838	0.0001452
850	0.000363
862	0.0005852
874	0.000792
886	0.0010098
898	0.0012166
910	0.0016148
922	0.0026884
934	0.003894
946	0.004818
958	0.0066572
970	0.0076252
982	0.0045166
994	0.0017732
1006	0.0011242
1018	0.0014146
1030	0.0024134
1042	0.0039424
1054	0.0049302
1066	0.0038764
1078	0.0023144
1090	0.0016566
1102	0.0018304
1114	0.002332
1126	0.003707
1138	0.0045628
1150	0.0039556
1162	0.004125
1174	0.0049126
1186	0.0056452
1198	0.004389
1210	0.0031944
1222	0.0028072
1234	0.0030844
1246	0.003421
1258	0.0033616
1270	0.00385
1282	0.0058762
1294	0.0067936
1306	0.0054406
1318	0.005335
1330	0.0051898
1342	0.0048356
1354	0.0048004
1366	0.0039138
1378	0.0033528
1390	0.003003
1402	0.002189
1414	0.0024134
1426	0.0029458
1438	0.0041382
1450	0.0056056
1462	0.0049258
1474	0.0030822
1486	0.0017138
1498	0.0011022
1510	0.000836
1522	0.0007128
1534	0.0006402
1546	0.0005676
1558	0.0005566
1570	0.0006072
1582	0.0008382
1594	0.0013618
1606	0.0026752
1618	0.0060412
1630	0.0130218
1642	0.0155518
1654	0.0079772
1666	0.0063118
1678	0.0117216
1690	0.019569
1702	0.0208406
1714	0.0140844
1726	0.0063778
1738	0.0022616
1750	0.0010868
1762	0.000671
1774	0.000495
1786	0.0003806
1798	0.0003102
1810	0.0002486
1822	0.0002134
1834	0.0001452
1846	0.0001166
1858	9.24e-05
1870	9.02e-05
1882	7.04e-05
1894	7.26e-05
1906	6.16e-05
1918	3.96e-05
1930	2.64e-05
1942	2.2e-06
1954	2.2e-05
1966	1.98e-05
1978	1.32e-05
1990	5.72e-05
2002	0.0001408
2014	0.0001232
2026	8.58e-05
2038	7.48e-05
2050	5.72e-05
2062	1.98e-05
2074	4.62e-05
2086	4.4e-05
2098	4.18e-05
2110	3.52e-05
2122	4.84e-05
2134	2.86e-05
2146	6.6e-05
2158	5.28e-05
2170	5.72e-05
2182	5.5e-05
2194	5.28e-05
2206	3.52e-05
2218	2.86e-05
2230	7.48e-05
2242	6.38e-05
2254	7.48e-05
2266	7.92e-05
2278	5.06e-05
2290	7.48e-05
2302	7.48e-05
2314	7.92e-05
2326	0.0001474
2338	0.0001364
2350	0.0001188
2362	0.0001782
2374	0.000132
2386	9.9e-05
2398	0.0001298
2410	0.0001078
2422	0.0001056
2434	0.00011
2446	9.9e-05
2458	0.0001298
2470	0.000121
2482	0.000143
2494	0.0001386
2506	0.0001342
2518	0.0001298
2530	0.0001386
2542	0.0001474
2554	0.000176
2566	0.0001716
2578	0.0001914
2590	0.0001826
2602	0.0001804
2614	0.0001562
2626	0.0001958
2638	0.000231
2650	0.0002552
2662	0.0002838
2674	0.0003036
2686	0.0003322
2698	0.0003168
2710	0.0003674
2722	0.0003872
2734	0.0005566
2746	0.000704
2758	0.0006094
2770	0.0006402
2782	0.0006908
2794	0.0008778
2806	0.0011286
2818	0.0014652
2830	0.001914
2842	0.0027478
2854	0.0046596
2866	0.008173
2878	0.0105468
2890	0.010604
2902	0.0099638
2914	0.0121572
2926	0.0172678
2938	0.0200112
2950	0.0197824
2962	0.0214434
2974	0.0194216
2986	0.0102344
2998	0.005302
3010	0.003707
3022	0.00363
3034	0.004477
3046	0.003872
3058	0.0020548
3070	0.001364
3082	0.0011506
3094	0.0009856
3106	0.000902
3118	0.0007876
3130	0.000726
3142	0.0006248
3154	0.000506
3166	0.00044
3178	0.000341
3190	0.0003784
3202	0.0002992
3214	0.000286
3226	0.0002244
3238	0.0001958
3250	0.0002112
3262	0.0001958
3274	0.000209
3286	0.0002068
3298	0.0001848
3310	0.0002178
3322	0.0002816
3334	0.0002992
3346	0.0003278
3358	0.0003608
3370	0.0003784
3382	0.000418
3394	0.0004334
3406	0.0004312
3418	0.0002882
3430	0.0002156
3442	0.0001386
3454	0.0001606
3466	0.000143
3478	0.00011
3490	0.0001122
3502	9.68e-05
3514	6.16e-05
3526	2.86e-05
3538	0.00011
3550	0.0001188
3562	9.9e-05
3574	7.7e-05
3586	9.02e-05
3598	0.0001386
3610	0.0001408
3622	0.0001628
3634	0.000121
3646	0.0001628
3658	0.0001276
3670	0.0001738
3682	0.0001694
3694	0.0001166
3706	0.0001562
3718	0.0001716
3730	0.0001408
3742	0.0001694
3754	0.0001232
3766	0.0001782
3778	0.000143
3790	0.0001298
3802	0.0001496
3814	0.0002046
3826	0.000154
3838	0.0001826
