Infrared Spectrum: DICYCLOHEXYL ETHER
Formula: C12 H22 O
CAS: 4645-15-2
State: SOLUTION (10% CCl4 FOR 2.5-7.5, 10% CS2 FOR 7.5-16 MICRON)
Class: COBLENTZ
Instrument: Not specified, most likely a prism, grating, or hybrid spectrometer.
Sampling: TRANSMISSION
Path length: 0.01 CM, 0.01 CM
Resolution: 4
Origin: DOW CHEMICAL COMPANY
MICROMETERS	TRANSMITTANCE
2.061	0.894
2.10112	0.892
2.14124	0.891
2.18135	0.892
2.22147	0.889
2.26159	0.867
2.30171	0.863
2.34183	0.859
2.38195	0.863
2.42206	0.866
2.46218	0.872
2.5023	0.876
2.54242	0.879
2.58254	0.889
2.62265	0.884
2.66277	0.882
2.70289	0.881
2.74301	0.881
2.78313	0.879
2.82324	0.879
2.86336	0.874
2.90348	0.867
2.9436	0.869
2.98372	0.882
3.02384	0.881
3.06395	0.881
3.10407	0.881
3.14419	0.881
3.18431	0.881
3.22443	0.881
3.26454	0.872
3.30466	0.836
3.34478	0.688
3.3849	0.259
3.42502	0.069
3.46513	0.16
3.50525	0.136
3.54537	0.643
3.58549	0.757
3.62561	0.82
3.66573	0.834
3.70584	0.808
3.74596	0.754
3.78608	0.798
3.8262	0.83
3.86632	0.851
3.90643	0.881
3.94655	0.879
3.98667	0.877
4.02679	0.882
4.06691	0.887
4.10702	0.882
4.14714	0.884
4.18726	0.886
4.22738	0.896
4.2675	0.904
4.30762	0.881
4.34773	0.871
4.38785	0.874
4.42797	0.879
4.46809	0.881
4.50821	0.884
4.54832	0.882
4.58844	0.881
4.62856	0.879
4.66868	0.874
4.7088	0.879
4.74891	0.886
4.78903	0.889
4.82915	0.889
4.86927	0.886
4.90939	0.876
4.94951	0.872
4.98962	0.877
5.02974	0.887
5.06986	0.887
5.10998	0.882
5.1501	0.882
5.19021	0.882
5.23033	0.882
5.27045	0.882
5.31057	0.882
5.35069	0.882
5.3908	0.881
5.43092	0.884
5.47104	0.881
5.51116	0.882
5.55128	0.884
5.5914	0.884
5.63151	0.884
5.67163	0.884
5.71175	0.881
5.75187	0.867
5.79199	0.856
5.8321	0.853
5.87222	0.877
5.91234	0.886
5.95246	0.884
5.99258	0.884
6.03269	0.884
6.07281	0.881
6.11293	0.871
6.15305	0.853
6.19317	0.821
6.23329	0.759
6.2734	0.665
6.31352	0.615
6.35364	0.574
6.39376	0.503
6.43388	0.442
6.47399	0.462
6.51411	0.557
6.55423	0.607
6.59435	0.661
6.63447	0.706
6.67458	0.755
6.7147	0.775
6.75482	0.744
6.79494	0.595
6.83506	0.427
6.87518	0.153
6.91529	0.437
6.95541	0.65
6.99553	0.754
7.03565	0.788
7.07577	0.801
7.11588	0.806
7.156	0.79
7.19612	0.762
7.23624	0.717
7.27636	0.561
7.31647	0.321
7.35659	0.435
7.39671	0.501
7.43683	0.536
7.47695	0.6
7.51707	0.62
7.55718	0.645
7.5973	0.716
7.63742	0.749
7.67754	0.8
7.71766	0.853
7.75777	0.851
7.79789	0.83
7.83801	0.77
7.87813	0.712
7.91825	0.666
7.95836	0.6
7.99848	0.658
8.0386	0.732
8.07872	0.788
8.11884	0.861
8.15896	0.882
8.19907	0.889
8.23919	0.897
8.27931	0.894
8.31943	0.874
8.35955	0.851
8.39966	0.834
8.43978	0.833
8.4799	0.834
8.52002	0.825
8.56014	0.783
8.60025	0.712
8.64037	0.632
8.68049	0.559
8.72061	0.564
8.76073	0.651
8.80085	0.607
8.84096	0.559
8.88108	0.602
8.9212	0.622
8.96132	0.58
9.00144	0.471
9.04155	0.328
9.08167	0.173
9.12179	0.064
9.16191	0.023
9.20203	0.023
9.24215	0.029
9.28226	0.108
9.32238	0.26
9.3625	0.427
9.40262	0.561
9.44274	0.603
9.48285	0.62
9.52297	0.557
9.56309	0.562
9.60321	0.658
9.64333	0.696
9.68344	0.665
9.72356	0.529
9.76368	0.452
9.8038	0.608
9.84392	0.714
9.88404	0.719
9.92415	0.793
9.96427	0.78
10.0044	0.669
10.0445	0.65
10.0846	0.762
10.1247	0.818
10.1649	0.889
10.205	0.915
10.2451	0.922
10.2852	0.924
10.3253	0.92
10.3655	0.927
10.4056	0.922
10.4457	0.915
10.4858	0.897
10.5259	0.853
10.566	0.737
10.6062	0.592
10.6463	0.465
10.6864	0.566
10.7265	0.722
10.7666	0.783
10.8068	0.79
10.8469	0.797
10.887	0.856
10.9271	0.9
10.9672	0.91
11.0073	0.914
11.0475	0.907
11.0876	0.877
11.1277	0.839
11.1678	0.782
11.2079	0.694
11.2481	0.559
11.2882	0.549
11.3283	0.709
11.3684	0.805
11.4085	0.811
11.4486	0.803
11.4888	0.767
11.5289	0.754
11.569	0.726
11.6091	0.696
11.6492	0.709
11.6894	0.747
11.7295	0.754
11.7696	0.721
11.8097	0.709
11.8498	0.793
11.8899	0.831
11.9301	0.886
11.9702	0.897
12.0103	0.892
12.0504	0.874
12.0905	0.909
12.1307	0.933
12.1708	0.938
12.2109	0.94
12.251	0.942
12.2911	0.942
12.3312	0.932
12.3714	0.917
12.4115	0.905
12.4516	0.9
12.4917	0.891
12.5318	0.879
12.5719	0.874
12.6121	0.886
12.6522	0.891
12.6923	0.887
12.7324	0.871
12.7725	0.894
12.8127	0.91
12.8528	0.922
12.8929	0.924
12.933	0.917
12.9731	0.914
13.0132	0.922
13.0534	0.924
13.0935	0.922
13.1336	0.92
13.1737	0.919
13.2138	0.914
13.254	0.91
13.2941	0.907
13.3342	0.904
13.3743	0.902
13.4144	0.897
13.4545	0.891
13.4947	0.887
13.5348	0.886
13.5749	0.884
13.615	0.881
13.6551	0.876
13.6953	0.871
13.7354	0.866
13.7755	0.861
13.8156	0.856
13.8557	0.849
13.8958	0.846
13.936	0.839
13.9761	0.833
14.0162	0.826
14.0563	0.82
14.0964	0.815
14.1366	0.808
14.1767	0.803
14.2168	0.797
14.2569	0.788
14.297	0.782
14.3371	0.773
14.3773	0.767
14.4174	0.759
14.4575	0.75
14.4976	0.742
14.5377	0.735
14.5779	0.726
14.618	0.716
14.6581	0.706
14.6982	0.696
14.7383	0.684
14.7784	0.674
14.8186	0.665
14.8587	0.651
14.8988	0.641
14.9389	0.636
14.979	0.63
15.0192	0.62
15.0593	0.608
15.0994	0.597
15.1395	0.582
15.1796	0.57
15.2197	0.557
15.2599	0.549
15.3	0.542
15.3401	0.534
15.3802	0.528
15.4203	0.523
15.4605	0.518
15.5006	0.506
15.5407	0.5
15.5808	0.495
15.6209	0.488
15.661	0.483
15.7012	0.48
15.7413	0.468
15.7814	0.463
