Infrared Spectrum: Trimethylsilyl azide
Formula: C 3 H 9 N 3 Si
CAS: 4648-54-8
State: gas
Origin: EPA-IR VAPOR PHASE LIBRARY
1/CM	ABSORBANCE
549.9	0.01769
559.547	0.00791
569.193	0.00802
578.84	0.00858
588.486	0.00898
598.133	0.00824
607.779	0.01058
617.426	0.01962
627.072	0.02411
636.719	0.02007
646.365	0.01022
656.012	0.00896
665.658	0.0118
675.305	0.01982
684.951	0.03309
694.598	0.04678
704.245	0.05227
713.891	0.04819
723.538	0.03795
733.184	0.03189
742.831	0.03328
752.477	0.04268
762.124	0.05306
771.77	0.05199
781.417	0.04141
791.063	0.03104
800.71	0.02943
810.356	0.03895
820.003	0.06624
829.649	0.12659
839.296	0.23577
848.943	0.36545
858.589	0.3302
868.236	0.18931
877.882	0.10707
887.529	0.07211
897.175	0.05186
906.822	0.03642
916.468	0.02452
926.115	0.0161
935.761	0.01074
945.408	0.00768
955.054	0.0060614
964.701	0.005212
974.347	0.004716
983.994	0.00437
993.64	0.00408
1003.29	0.0037
1012.93	0.00334
1022.58	0.00293
1032.23	0.00249
1041.87	0.00198
1051.52	0.00111
1061.17	0.00017
1070.81	0.00019
1080.46	0.0013
1090.11	0.00222
1099.75	0.00239
1109.4	0.00256
1119.05	0.00268
1128.69	0.00292
1138.34	0.0033
1147.99	0.00414
1157.63	0.004903
1167.28	0.005047
1176.92	0.004595
1186.57	0.004652
1196.22	0.00544189
1205.86	0.00713
1215.51	0.00998
1225.16	0.0142
1234.8	0.02432
1244.45	0.0492
1254.1	0.08349
1263.74	0.11024
1273.39	0.08976
1283.04	0.06138
1292.68	0.05845
1302.33	0.094
1311.98	0.15002
1321.62	0.17533
1331.27	0.13961
1340.92	0.08544
1350.56	0.04069
1360.21	0.02388
1369.86	0.01838
1379.5	0.01746
1389.15	0.01818
1398.79	0.01972
1408.44	0.0223
1418.09	0.02614
1427.73	0.02812
1437.38	0.02511
1447.03	0.01911
1456.67	0.01322
1466.32	0.00943
1475.97	0.00728
1485.61	0.0058638
1495.26	0.005098
1504.91	0.004758
1514.55	0.00475
1524.2	0.004629
1533.85	0.004585
1543.49	0.004518
1553.14	0.004409
1562.79	0.00412
1572.43	0.00398
1582.08	0.0038
1591.73	0.0037
1601.37	0.00376
1611.02	0.00367
1620.67	0.00354
1630.31	0.00334
1639.96	0.00318
1649.6	0.00312
1659.25	0.00304
1668.9	0.003
1678.54	0.00292
1688.19	0.00293
1697.84	0.00286
1707.48	0.0029
1717.13	0.00276
1726.78	0.00275
1736.42	0.00285
1746.07	0.00279
1755.72	0.00283
1765.36	0.00278
1775.01	0.00291
1784.66	0.00302
1794.3	0.00313
1803.95	0.00323
1813.6	0.00312
1823.24	0.00307
1832.89	0.00318
1842.54	0.00323
1852.18	0.00345
1861.83	0.00359
1871.47	0.00388
1881.12	0.00418
1890.77	0.00422
1900.41	0.00404
1910.06	0.00386
1919.71	0.00384
1929.35	0.00419
1939	0.004739
1948.65	0.005182
1958.29	0.00539186
1967.94	0.0056163
1977.59	0.0057929
1987.23	0.00651
1996.88	0.00781
2006.53	0.00946
2016.17	0.01085
2025.82	0.01151
2035.47	0.0119
2045.11	0.01307
2054.76	0.01502
2064.41	0.01821
2074.05	0.02426
2083.7	0.03596
2093.35	0.05564
2102.99	0.0896
2112.64	0.15336
2122.28	0.27784
2131.93	0.50337
2141.58	0.70387
2151.22	0.64774
2160.87	0.38951
2170.52	0.12221
2180.16	0.06239
2189.81	0.03167
2199.46	0.01755
2209.1	0.0126
2218.75	0.01126
2228.4	0.01193
2238.04	0.0143
2247.69	0.01618
2257.34	0.01473
2266.98	0.01049
2276.63	0.00647
2286.28	0.004817
2295.92	0.00411
2305.57	0.00377
2315.22	0.00353
2324.86	0.00334
2334.51	0.0033
2344.16	0.00323
2353.8	0.00317
2363.45	0.00316
2373.09	0.00327
2382.74	0.00336
2392.39	0.00333
2402.03	0.00318
2411.68	0.00306
2421.33	0.00298
2430.97	0.00295
2440.62	0.00291
2450.27	0.0029
2459.91	0.00289
2469.56	0.003
2479.21	0.00308
2488.85	0.00318
2498.5	0.00335
2508.15	0.00347
2517.79	0.00366
2527.44	0.00368
2537.09	0.00369
2546.73	0.00363
2556.38	0.00372
2566.03	0.0038
2575.67	0.004
2585.32	0.00433
2594.96	0.004809
2604.61	0.00539143
2614.26	0.0060137
2623.9	0.0063893
2633.55	0.0061913
2643.2	0.0055659
2652.84	0.004782
2662.49	0.00414
2672.14	0.00398
2681.78	0.00392
2691.43	0.0039
2701.08	0.0039
2710.72	0.00381
2720.37	0.00384
2730.02	0.00379
2739.66	0.00377
2749.31	0.00359
2758.96	0.00347
2768.6	0.00352
2778.25	0.0037
2787.9	0.00399
2797.54	0.004622
2807.19	0.0053891
2816.84	0.0059186
2826.48	0.00657
2836.13	0.00714
2845.77	0.00738
2855.42	0.00704
2865.07	0.00652
2874.71	0.0063746
2884.36	0.0071
2894.01	0.00907
2903.65	0.01125
2913.3	0.0115
2922.95	0.00942
2932.59	0.0084
2942.24	0.01193
2951.89	0.0255
2961.53	0.04343
2971.18	0.04841
2980.83	0.03249
2990.47	0.0156
3000.12	0.00752
3009.77	0.004801
3019.41	0.00395
3029.06	0.00372
3038.71	0.00415
3048.35	0.004774
3058	0.005038
3067.64	0.004939
3077.29	0.004553
3086.94	0.00425
3096.58	0.00384
3106.23	0.0032
3115.88	0.0028
3125.52	0.00224
3135.17	0.00158
3144.82	0.00132
3154.46	0.00118
3164.11	0.00117
3173.76	0.00131
3183.4	0.00095
3193.05	0.00084
3202.7	0.001
3212.34	0.00084
3221.99	0.00083
3231.64	0.0009
3241.28	0.00099
3250.93	0.00108
3260.58	0.00104
3270.22	0.00083
3279.87	0.00092
3289.52	0.00105
3299.16	0.00114
3308.81	0.00114
3318.45	0.00152
3328.1	0.00165
3337.75	0.00214
3347.39	0.00241
3357.04	0.00264
3366.69	0.00297
3376.33	0.00349
3385.98	0.00393
3395.63	0.00473
3405.27	0.0057649
3414.92	0.00719
3424.57	0.00922
3434.21	0.01099
3443.86	0.0115
3453.51	0.00993
3463.15	0.00761
3472.8	0.0055673
3482.45	0.00437
3492.09	0.0037
3501.74	0.00339
3511.39	0.00316
3521.03	0.00327
3530.68	0.00343
3540.33	0.00371
3549.97	0.00403
3559.62	0.00427
3569.26	0.00413
3578.91	0.004
3588.56	0.00385
3598.2	0.00375
3607.85	0.00361
3617.5	0.0035
3627.14	0.00354
3636.79	0.00375
3646.44	0.00384
3656.08	0.004
3665.73	0.00405
3675.38	0.00378
3685.02	0.0038
3694.67	0.00367
3704.32	0.00357
3713.96	0.00366
3723.61	0.00395
3733.26	0.00408
3742.9	0.00435
3752.55	0.004468
3762.2	0.004513
3771.84	0.00433
3781.49	0.00412
3791.13	0.00397
3800.78	0.00404
3810.43	0.00393
3820.07	0.0039
3829.72	0.00384
3839.37	0.00361
3849.01	0.00345
3858.66	0.00326
3868.31	0.00323
3877.95	0.00325
3887.6	0.00329
3897.25	0.00332
3906.89	0.00339
3916.54	0.00319
3926.19	0.0033
3935.83	0.00322
3945.48	0.00329
3955.13	0.00323
3964.77	0.00332
3974.42	0.0033
3984.07	0.00327
3993.71	0.00334
