Infrared Spectrum: Furfuryl isothiocyanate
Formula: C 6 H 5 N O S
CAS: 4650-60-6
State: gas
Origin: EPA-IR VAPOR PHASE LIBRARY
1/CM	ABSORBANCE
549.8	0.005869
559.445	0.005679
569.09	0.005549
578.734	0.005259
588.379	0.005269
598.024	0.005669
607.669	0.004649
617.313	0.003739
626.958	0.003069
636.603	0.002329
646.248	0.002049
655.893	0.002219
665.537	0.002449
675.182	0.003589
684.827	0.006469
694.472	0.014129
704.116	0.021489
713.761	0.021079
723.406	0.019709
733.051	0.028179
742.695	0.031819
752.34	0.022629
761.985	0.012439
771.63	0.006339
781.275	0.004319
790.919	0.003789
800.564	0.003909
810.209	0.004889
819.854	0.003359
829.498	0.002219
839.143	0.001659
848.788	0.0012031
858.433	0.001489
868.078	0.001719
877.722	0.003659
887.367	0.005639
897.012	0.005879
906.657	0.006839
916.301	0.007059
925.946	0.006169
935.591	0.004829
945.236	0.003509
954.88	0.002539
964.525	0.002379
974.17	0.002379
983.815	0.002819
993.46	0.004829
1003.1	0.008629
1012.75	0.011009
1022.39	0.007869
1032.04	0.004589
1041.68	0.002759
1051.33	0.002009
1060.97	0.002499
1070.62	0.003639
1080.26	0.004269
1089.91	0.003669
1099.55	0.002609
1109.2	0.002799
1118.84	0.002959
1128.49	0.003799
1138.13	0.006849
1147.78	0.010819
1157.42	0.009449
1167.07	0.005459
1176.71	0.004079
1186.36	0.005249
1196	0.007749
1205.64	0.007599
1215.29	0.006029
1224.93	0.005809
1234.58	0.005719
1244.22	0.004779
1253.87	0.004879
1263.51	0.004599
1273.16	0.004849
1282.8	0.005159
1292.45	0.005929
1302.09	0.006359
1311.74	0.008009
1321.38	0.013859
1331.03	0.034789
1340.67	0.043149
1350.32	0.024279
1359.96	0.008609
1369.61	0.006179
1379.25	0.004439
1388.9	0.003799
1398.54	0.003269
1408.18	0.002489
1417.83	0.002279
1427.47	0.002479
1437.12	0.004579
1446.76	0.007239
1456.41	0.006519
1466.05	0.004049
1475.7	0.003619
1485.34	0.003659
1494.99	0.004549
1504.63	0.005079
1514.28	0.004189
1523.92	0.003169
1533.57	0.002899
1543.21	0.002889
1552.86	0.002579
1562.5	0.002259
1572.15	0.002159
1581.79	0.002339
1591.44	0.002989
1601.08	0.003199
1610.73	0.002869
1620.37	0.002069
1630.01	0.0013781
1639.66	0.0011249
1649.3	0.0012416
1658.95	0.001439
1668.59	0.001449
1678.24	0.0013818
1687.88	0.0011908
1697.53	0.001252
1707.17	0.001529
1716.82	0.001829
1726.46	0.001579
1736.11	0.0010084
1745.75	0.00078
1755.4	0.0007433
1765.04	0.0006612
1774.69	0.0006758
1784.33	0.0005947
1793.98	0.0006991
1803.62	0.0007869
1813.27	0.0008252
1822.91	0.0009877
1832.55	0.0011347
1842.2	0.0012983
1851.84	0.001549
1861.49	0.001949
1871.13	0.002269
1880.78	0.002809
1890.42	0.003319
1900.07	0.003979
1909.71	0.005089
1919.36	0.006469
1929	0.008449
1938.65	0.011009
1948.29	0.014489
1957.94	0.019339
1967.58	0.025719
1977.23	0.034699
1986.87	0.048089
1996.52	0.067939
2006.16	0.095689
2015.81	0.131069
2025.45	0.166469
2035.1	0.191179
2044.74	0.195789
2054.38	0.172689
2064.03	0.141059
2073.67	0.104779
2083.32	0.072809
2092.96	0.052389
2102.61	0.039279
2112.25	0.031349
2121.9	0.026549
2131.54	0.023739
2141.19	0.022579
2150.83	0.023069
2160.48	0.024689
2170.12	0.025899
2179.77	0.025149
2189.41	0.021929
2199.06	0.017859
2208.7	0.014409
2218.35	0.011749
2227.99	0.009729
2237.64	0.007669
2247.28	0.005999
2256.92	0.004879
2266.57	0.004109
2276.21	0.003459
2285.86	0.003009
2295.5	0.002609
2305.15	0.002179
2314.79	0.001909
2324.44	0.001619
2334.08	0.001579
2343.73	0.001326
2353.37	0.0013022
2363.02	0.0012879
2372.66	0.0011823
2382.31	0.0011566
2391.95	0.0011603
2401.6	0.0013604
2411.24	0.0010951
2420.89	0.0010193
2430.53	0.0009197
2440.18	0.0009874
2449.82	0.0008782
2459.47	0.0009463
2469.11	0.0009421
2478.75	0.0009856
2488.4	0.0010265
2498.04	0.0009417
2507.69	0.0010085
2517.33	0.0010543
2526.98	0.001235
2536.62	0.0013505
2546.27	0.001439
2555.91	0.001469
2565.56	0.001449
2575.2	0.001429
2584.85	0.0012953
2594.49	0.001123
2604.14	0.0008704
2613.78	0.00078
2623.43	0.0007777
2633.07	0.000754
2642.72	0.0008779
2652.36	0.0010249
2662.01	0.0010739
2671.65	0.0010771
2681.29	0.0010568
2690.94	0.0010805
2700.58	0.0013047
2710.23	0.001399
2719.87	0.001719
2729.52	0.002139
2739.16	0.002559
2748.81	0.002619
2758.45	0.002659
2768.1	0.002319
2777.74	0.002229
2787.39	0.002259
2797.03	0.001989
2806.68	0.001759
2816.32	0.001499
2825.97	0.001389
2835.61	0.001479
2845.26	0.001649
2854.9	0.001759
2864.55	0.002549
2874.19	0.002989
2883.84	0.002779
2893.48	0.002239
2903.12	0.002009
2912.77	0.002439
2922.41	0.003979
2932.06	0.005709
2941.7	0.006209
2951.35	0.005499
2960.99	0.004409
2970.64	0.003349
2980.28	0.002239
2989.93	0.001499
2999.57	0.0009786
3009.22	0.0007883
3018.86	0.0005509
3028.51	0.00047642
3038.15	0.0003519
3047.8	0.000594
3057.44	0.00041791
3067.09	0.00041926
3076.73	0.000257
3086.38	0.00044521
3096.02	0.00048391
3105.67	0.0008043
3115.31	0.0010772
3124.95	0.001469
3134.6	0.0011261
3144.24	0.0006558
3153.89	0.0007976
3163.53	0.0006359
3173.18	0.00044157
3182.82	0.0002928
3192.47	0.000142
3202.11	0.000239
3211.76	0.0003717
3221.4	0.000331
3231.05	0.000228
3240.69	0.000388474
3250.34	0.000267
3259.98	0.000175
3269.63	0.000111
3279.27	0.000188
3288.92	0.0003129
3298.56	0.000283
3308.21	0.00027
3317.85	0.000168
3327.49	0.000266
3337.14	0.000211
3346.78	0.00040436
3356.43	0.00027
3366.07	0.000149
3375.72	0.0003258
3385.36	0.000221
3395.01	0.000390913
3404.65	0.0003278
3414.3	0.00042232
3423.94	0.0005109
3433.59	0.00041679
3443.23	0.00044991
3452.88	0.0003683
3462.52	0.0005112
3472.17	0.000268
3481.81	0.00042114
3491.46	0.0006231
3501.1	0.0003316
3510.75	0.00041732
3520.39	0.0005358
3530.04	0.0003288
3539.68	0.0005019
3549.32	0.0002911
3558.97	0.0003642
3568.61	0.0002928
3578.26	0.000529
3587.9	0.0003159
3597.55	0.0005943
3607.19	0.0003745
3616.84	0.00045607
3626.48	0.00040398
3636.13	0.0003477
3645.77	0.0003873
3655.42	0.0005093
3665.06	0.00048168
3674.71	0.0003612
3684.35	0.0002944
3694	0.00048741
3703.64	0.0005431
3713.29	0.00040797
3722.93	0.00041836
3732.58	0.000398
3742.22	0.00045799
3751.86	0.0005238
3761.51	0.00041358
3771.15	0.00038436
3780.8	0.00043257
3790.44	0.0005228
3800.09	0.000257
3809.73	0.00047638
3819.38	0.00048826
3829.02	0.0003389
3838.67	0.0005124
3848.31	0.0005069
3857.96	0.0003268
3867.6	0.000594
3877.25	0.0006804
3886.89	0.0005817
3896.54	0.0006955
3906.18	0.0005294
3915.83	0.0005361
3925.47	0.0006538
3935.12	0.0008069
3944.76	0.0008767
3954.41	0.0008222
3964.05	0.0009719
3973.69	0.0010514
3983.34	0.0010752
3992.98	0.001439
