Infrared Spectrum: 5-Acenaphthenamine, 4-nitro-
Formula: C12 H10 N2 O2
CAS: 4657-95-8
State: SOLID (SPLIT MULL), FLUOROLUBE FOR 3800-1330 CM^-^1, NUJOL FOR 1330-460 CM^-^1
Class: COBLENTZ III
Instrument: DOW KBr FOREPRISM-GRATING
Instrument parameters: BLAZED AT 3.5, 12.0, 20.0 MICRON AND CHANGED AT 5.0, 7.5, 14.9 MICRON
Sampling: TRANSMISSION
Resolution: 2
Origin: DOW CHEMICAL COMPANY
1/CM	TRANSMITTANCE
456	0.654
465	0.6335
474	0.6186
483	0.6315
492	0.6075
501	0.5104
510	0.4698
519	0.4992
528	0.5456
537	0.6049
546	0.6894
555	0.5986
564	0.7478
573	0.7607
582	0.8018
591	0.8033
600	0.7178
609	0.8318
618	0.85
627	0.8589
636	0.8556
645	0.8532
654	0.8449
663	0.7965
672	0.8561
681	0.8552
690	0.8297
699	0.8232
708	0.8124
717	0.7794
726	0.7974
735	0.7687
744	0.7918
753	0.7311
762	0.3618
771	0.7538
780	0.6901
789	0.8092
798	0.8214
807	0.8128
816	0.8019
825	0.8011
834	0.803
843	0.7307
852	0.6669
861	0.7296
870	0.7905
879	0.7819
888	0.7672
897	0.7425
906	0.6744
915	0.7393
924	0.7278
933	0.7
942	0.634
951	0.565
960	0.6285
969	0.6367
978	0.6248
987	0.5749
996	0.514
1005	0.4152
1014	0.3181
1023	0.4112
1032	0.5596
1041	0.6099
1050	0.5959
1059	0.5591
1068	0.4947
1077	0.4377
1086	0.499
1095	0.5299
1104	0.536
1113	0.5437
1122	0.556
1131	0.5497
1140	0.5073
1149	0.4675
1158	0.3875
1167	0.3437
1176	0.2866
1185	0.2312
1194	0.0901
1203	0.0457
1212	0.0535
1221	0.0976
1230	0.3042
1239	0.4552
1248	0.2128
1257	0.0598
1266	0.27
1275	0.1319
1284	0.1461
1293	0.3286
1302	0.6272
1311	0.6799
1320	0.6898
1329	0.6645
1338	0.5812
1347	0.3768
1356	0.5312
1365	0.5532
1374	0.3804
1383	0.3649
1392	0.2846
1401	0.1899
1410	0.2863
1419	0.5683
1428	0.5684
1437	0.6203
1446	0.628
1455	0.5728
1464	0.2414
1473	0.8036
1482	0.8043
1491	0.7699
1500	0.7175
1509	0.5355
1518	0.258
1527	0.2904
1536	0.7343
1545	0.7542
1554	0.715
1563	0.6657
1572	0.5295
1581	0.4343
1590	0.2675
1599	0.1163
1608	0.1324
1617	0.5751
1626	0.6091
1635	0.5056
1644	0.8411
1653	0.8595
1662	0.8577
1671	0.841
1680	0.8374
1689	0.8283
1698	0.8103
1707	0.8028
1716	0.8138
1725	0.828
1734	0.8317
1743	0.8305
1752	0.8247
1761	0.8169
1770	0.8121
1779	0.8086
1788	0.8054
1797	0.8017
1806	0.7904
1815	0.7803
1824	0.7958
1833	0.7945
1842	0.7901
1851	0.7848
1860	0.7762
1869	0.7648
1878	0.7632
1887	0.7718
1896	0.7747
1905	0.77
1914	0.7628
1923	0.7533
1932	0.7508
1941	0.7578
1950	0.7587
1959	0.7583
1968	0.755
1977	0.7528
1986	0.75
1995	0.7388
2004	0.7306
2013	0.7282
2022	0.7256
2031	0.7233
2040	0.7215
2049	0.7196
2058	0.7175
2067	0.7151
2076	0.7126
2085	0.71
2094	0.7074
2103	0.7048
2112	0.7021
2121	0.6995
2130	0.6962
2139	0.693
2148	0.6898
2157	0.6861
2166	0.6821
2175	0.6783
2184	0.6744
2193	0.6705
2202	0.6665
2211	0.6628
2220	0.6592
2229	0.6556
2238	0.6521
2247	0.6485
2256	0.6453
2265	0.6418
2274	0.6388
2283	0.6366
2292	0.6345
2301	0.6324
2310	0.6319
2319	0.6316
2328	0.633
2337	0.6337
2346	0.6325
2355	0.6295
2364	0.6272
2373	0.625
2382	0.6226
2391	0.6201
2400	0.618
2409	0.6162
2418	0.6147
2427	0.6131
2436	0.6123
2445	0.6119
2454	0.6108
2463	0.6093
2472	0.6077
2481	0.6054
2490	0.6046
2499	0.6037
2508	0.6024
2517	0.601
2526	0.5994
2535	0.5977
2544	0.5959
2553	0.5942
2562	0.5922
2571	0.5897
2580	0.5874
2589	0.5849
2598	0.5826
2607	0.5806
2616	0.5786
2625	0.5765
2634	0.5745
2643	0.5724
2652	0.5704
2661	0.5682
2670	0.5662
2679	0.5644
2688	0.5616
2697	0.5585
2706	0.556
2715	0.5542
2724	0.5514
2733	0.5485
2742	0.545
2751	0.5417
2760	0.5391
2769	0.5365
2778	0.5339
2787	0.5304
2796	0.527
2805	0.5234
2814	0.5187
2823	0.511
2832	0.5056
2841	0.5042
2850	0.5097
2859	0.5107
2868	0.5051
2877	0.4998
2886	0.4991
2895	0.4987
2904	0.4939
2913	0.4757
2922	0.4265
2931	0.4377
2940	0.4669
2949	0.4714
2958	0.5081
2967	0.5055
2976	0.5012
2985	0.4991
2994	0.4986
3003	0.4977
3012	0.4916
3021	0.4837
3030	0.4781
3039	0.4755
3048	0.4718
3057	0.4682
3066	0.4672
3075	0.4673
3084	0.4659
3093	0.46
3102	0.4564
3111	0.4556
3120	0.4569
3129	0.457
3138	0.4546
3147	0.4472
3156	0.4391
3165	0.4353
3174	0.4327
3183	0.4307
3192	0.4288
3201	0.4262
3210	0.4234
3219	0.4197
3228	0.416
3237	0.4122
3246	0.406
3255	0.3975
3264	0.3889
3273	0.3744
3282	0.3558
3291	0.3295
3300	0.293
3309	0.2305
3318	0.1368
3327	0.0694
3336	0.1017
3345	0.2353
3354	0.4322
3363	0.4469
3372	0.4474
3381	0.4437
3390	0.4378
3399	0.4287
3408	0.4148
3417	0.3946
3426	0.3404
3435	0.2188
3444	0.1002
3453	0.1157
3462	0.4248
3471	0.4615
3480	0.4674
3489	0.4695
3498	0.4691
3507	0.4676
3516	0.466
3525	0.464
3534	0.4612
3543	0.4586
3552	0.4562
3561	0.4534
3570	0.4502
3579	0.4473
3588	0.4446
3597	0.4419
3606	0.4393
3615	0.4368
3624	0.4342
3633	0.4323
3642	0.4304
3651	0.4285
3660	0.4264
3669	0.4242
3678	0.4221
3687	0.4202
3696	0.4183
3705	0.4167
3714	0.4156
3723	0.4145
3732	0.4131
3741	0.4114
3750	0.4097
3759	0.408
3768	0.4062
3777	0.4046
3786	0.403
3795	0.4012
3804	0.3992
