Infrared Spectrum: 2,2,2-Triphenylacetophenone
Formula: C 26 H 20 O
CAS: 466-37-5
State: gas
Instrument: HP-GC/MS/IRD
Origin: NIST Mass Spectrometry Data Center
1/CM	ABSORBANCE
550	0.0001656
562	3.72e-05
574	9.72e-05
586	0.000234
598	0.0012504
610	0.0007824
622	0.0015084
634	0.0034332
646	0.0010512
658	0.0020952
670	0.0014172
682	0.0031872
694	0.0094512
706	0.0093096
718	0.0024912
730	0.0021324
742	0.0046116
754	0.0023868
766	0.0011748
778	0.0011844
790	0.0004044
802	0.00024
814	0.0002772
826	0.0007068
838	0.0021684
850	0.0005004
862	0.0001488
874	1.08e-05
886	0
898	9.72e-05
910	0.00018
922	0.0001824
934	0.0001284
946	0.00012
958	8.04e-05
970	0.0001944
982	0.0004224
994	0.0011472
1006	0.0017196
1018	0.0010092
1030	0.0011256
1042	0.001122
1054	0.0001752
1066	0.000126
1078	0.0003732
1090	0.00027
1102	0.000102
1114	7.92e-05
1126	8.4e-05
1138	0.0002376
1150	0.0004596
1162	0.0009912
1174	0.0019008
1186	0.0040092
1198	0.0042276
1210	0.004962
1222	0.002592
1234	0.0014568
1246	0.000912
1258	0.0005352
1270	0.000366
1282	0.0002268
1294	0.000138
1306	0.0001476
1318	0.0002076
1330	0.000168
1342	0.0001392
1354	7.56e-05
1366	0.0001008
1378	0.0001548
1390	0.0001368
1402	0.0001188
1414	0.0001536
1426	0.0003408
1438	0.0013404
1450	0.0018564
1462	0.0006912
1474	0.0009252
1486	0.0021732
1498	0.0038436
1510	0.0008172
1522	0.0002748
1534	0.000252
1546	0.0002244
1558	0.0002628
1570	0.0005724
1582	0.0011592
1594	0.0019188
1606	0.0011664
1618	0.000396
1630	0.0002856
1642	0.000342
1654	0.0005208
1666	0.0009876
1678	0.0018744
1690	0.0045192
1702	0.0050064
1714	0.001362
1726	0.0005676
1738	0.000294
1750	0.0002808
1762	0.0002448
1774	0.0002376
1786	0.0002592
1798	0.0005196
1810	0.0005184
1822	0.0002544
1834	0.00012
1846	0.0001104
1858	0.0001392
1870	0.0002688
1882	0.0003168
1894	0.0003276
1906	0.0002568
1918	0.0001908
1930	0.0002364
1942	0.0004812
1954	0.0005268
1966	0.0002772
1978	9.96e-05
1990	6.12e-05
2002	2.52e-05
2014	3.84e-05
2026	2.28e-05
2038	2.16e-05
2050	3.6e-05
2062	2.88e-05
2074	1.56e-05
2086	1.68e-05
2098	2.4e-05
2110	1.8e-05
2122	3.6e-06
2134	2.16e-05
2146	2.16e-05
2158	1.56e-05
2170	3.24e-05
2182	2.04e-05
2194	4.32e-05
2206	4.32e-05
2218	2.64e-05
2230	3.6e-05
2242	3.36e-05
2254	1.68e-05
2266	2.76e-05
2278	3.96e-05
2290	3.72e-05
2302	1.32e-05
2314	0.000102
2326	9.24e-05
2338	9.96e-05
2350	9.36e-05
2362	8.76e-05
2374	7.92e-05
2386	7.32e-05
2398	4.32e-05
2410	5.04e-05
2422	5.88e-05
2434	5.16e-05
2446	4.92e-05
2458	4.8e-05
2470	4.92e-05
2482	2.28e-05
2494	1.92e-05
2506	3.96e-05
2518	5.88e-05
2530	3.72e-05
2542	4.08e-05
2554	3.24e-05
2566	2.16e-05
2578	4.56e-05
2590	7.68e-05
2602	7.68e-05
2614	4.68e-05
2626	6.6e-05
2638	5.64e-05
2650	4.32e-05
2662	4.2e-05
2674	5.16e-05
2686	3.48e-05
2698	6e-05
2710	3.72e-05
2722	5.16e-05
2734	5.28e-05
2746	6.84e-05
2758	6.6e-05
2770	3.72e-05
2782	9.48e-05
2794	7.56e-05
2806	7.92e-05
2818	7.32e-05
2830	6.6e-05
2842	7.08e-05
2854	0.0001368
2866	8.76e-05
2878	0.0001308
2890	0.000114
2902	8.76e-05
2914	0.0001536
2926	0.0001524
2938	0.0001668
2950	0.0001692
2962	0.0001872
2974	0.0002016
2986	0.0002652
2998	0.0003924
3010	0.0008124
3022	0.001872
3034	0.002814
3046	0.0024984
3058	0.0046476
3070	0.0076644
3082	0.003528
3094	0.00282
3106	0.0013656
3118	0.0006108
3130	0.0003204
3142	0.000306
3154	0.0003072
3166	0.000252
3178	0.000132
3190	0.0001308
3202	0.0001176
3214	6.48e-05
3226	5.28e-05
3238	7.08e-05
3250	2.04e-05
3262	6.24e-05
3274	6.36e-05
3286	8.04e-05
3298	7.2e-05
3310	4.56e-05
3322	9e-05
3334	0.0001236
3346	0.000114
3358	0.0001536
3370	0.0001416
3382	0.0001704
3394	0.0001776
3406	0.00012
3418	0.0001392
3430	4.8e-05
3442	7.8e-05
3454	0.0001224
3466	9.48e-05
3478	0.000126
3490	0.0001068
3502	0.000102
3514	0.0001104
3526	0.0001188
3538	0.0001248
3550	7.92e-05
3562	9.84e-05
3574	0.0001152
3586	0.00015
3598	0.000108
3610	0.0001644
3622	0.0001392
3634	0.0001716
3646	0.0001488
3658	0.0001404
3670	0.0001716
3682	0.0001548
3694	0.0001608
3706	0.000204
3718	0.0001188
3730	0.0001428
3742	0.0001752
3754	0.0002064
3766	0.0001284
3778	0.0001812
3790	0.0001116
3802	0.0001608
3814	0.000192
3826	0.0001716
3838	0.0001716
