Infrared Spectrum: QUINOLINIMIDE
Formula: C7 H4 N2 O2
CAS: 4664-00-0
State: SOLID (1.0% IN KBr PELLET)
Class: COBLENTZ
Instrument: Not specified, most likely a prism, grating, or hybrid spectrometer.
Sampling: TRANSMISSION
Path length: 0.0355 CM THICK
Resolution: 4
Origin: ANDERSON PHYSICAL LABORATORY
1/CM	TRANSMITTANCE
665.73	0.599
674.157	0.548
682.584	0.528
691.011	0.6529
699.438	0.653
707.865	0.603
716.292	0.546
724.719	0.463
733.146	0.354
741.573	0.418
750	0.408
758.427	0.417
766.854	0.445
775.281	0.5519
783.708	0.659
792.135	0.705
800.562	0.708
808.989	0.69
817.416	0.656
825.843	0.645
834.27	0.651
842.697	0.612
851.124	0.699
859.551	0.725
867.978	0.728
876.405	0.723
884.832	0.717
893.259	0.707
901.686	0.696
910.112	0.696
918.539	0.687
926.966	0.683
935.393	0.678
943.82	0.675
952.247	0.666
960.674	0.653
969.101	0.63
977.528	0.614
985.955	0.605
994.382	0.596
1002.81	0.575
1011.24	0.552
1019.66	0.509
1028.09	0.472
1036.52	0.465
1044.94	0.481
1053.37	0.442
1061.8	0.37
1070.23	0.27
1078.65	0.246
1087.08	0.273
1095.51	0.3838
1103.93	0.5099
1112.36	0.7429
1120.79	0.798
1129.21	0.753
1137.64	0.702
1146.07	0.639
1154.49	0.555
1162.92	0.483
1171.35	0.641
1179.78	0.647
1188.2	0.581
1196.63	0.6179
1205.06	0.705
1213.48	0.693
1221.91	0.677
1230.34	0.653
1238.76	0.618
1247.19	0.585
1255.62	0.575
1264.05	0.53
1272.47	0.513
1280.9	0.581
1289.33	0.527
1297.75	0.472
1306.18	0.441
1314.61	0.462
1323.03	0.444
1331.46	0.412
1339.89	0.352
1348.32	0.252
1356.74	0.264
1365.17	0.318
1373.6	0.325
1382.02	0.378
1390.45	0.561
1398.88	0.669
1407.3	0.605
1415.73	0.477
1424.16	0.5581
1432.59	0.662
1441.01	0.657
1449.44	0.642
1457.87	0.605
1466.29	0.563
1474.72	0.557
1483.15	0.621
1491.57	0.626
1500	0.612
1508.43	0.587
1516.86	0.576
1525.28	0.558
1533.71	0.554
1542.14	0.536
1550.56	0.519
1558.99	0.487
1567.42	0.453
1575.84	0.436
1584.27	0.369
1592.7	0.301
1601.13	0.4
1609.55	0.4419
1617.98	0.518
1626.41	0.477
1634.83	0.45
1643.26	0.411
1651.69	0.387
1660.11	0.351
1668.54	0.327
1676.97	0.277
1685.39	0.225
1693.82	0.186
1702.25	0.15
1710.68	0.148
1719.1	0.151
1727.53	0.15
1735.96	0.163
1744.38	0.184
1752.81	0.229
1761.24	0.238
1769.66	0.232
1778.09	0.265
1786.52	0.337
1794.95	0.48
1803.37	0.582
1811.8	0.687
1820.23	0.779
1828.65	0.834
1837.08	0.866
1845.51	0.927
1853.93	0.948
1862.36	0.951
1870.79	0.945
1879.22	0.924
1887.64	0.923
1896.07	0.923
1904.5	0.911
1912.92	0.905
1921.35	0.911
1929.78	0.918
1938.2	0.915
1946.63	0.906
1955.06	0.899
1963.49	0.879
1971.91	0.875
1980.34	0.876
1988.77	0.878
1997.19	0.884
2005.62	0.879
2014.05	0.8757
2022.47	0.861
2030.9	0.8577
2039.33	0.857
2047.76	0.855
2056.18	0.855
2064.61	0.854
2073.04	0.852
2081.46	0.851
2089.89	0.8458
2098.32	0.8397
2106.74	0.8349
2115.17	0.834
2123.6	0.8277
2132.02	0.8217
2140.45	0.8169
2148.88	0.8152
2157.31	0.8118
2165.73	0.808
2174.16	0.7995
2182.59	0.7925
2191.01	0.7817
2199.44	0.777
2207.87	0.7748
2216.29	0.7732
2224.72	0.7709
2233.15	0.7693
2241.58	0.7632
2250	0.7593
2258.43	0.755
2266.86	0.753
2275.28	0.7524
2283.71	0.75
2292.14	0.7436
2300.56	0.7334
2308.99	0.7228
2317.42	0.7133
2325.85	0.7044
2334.27	0.699
2342.7	0.698
2351.13	0.698
2359.55	0.6982
2367.98	0.699
2376.41	0.699
2384.83	0.699
2393.26	0.69
2401.69	0.6857
2410.12	0.6833
2418.54	0.68
2426.97	0.68
2435.4	0.68
2443.82	0.681
2452.25	0.683
2460.68	0.684
2469.1	0.6835
2477.53	0.6808
2485.96	0.675
2494.39	0.6718
2502.81	0.67
2511.24	0.6683
2519.67	0.668
2528.09	0.666
2536.52	0.663
2544.95	0.6605
2553.37	0.656
2561.8	0.6524
2570.23	0.651
2578.65	0.65
2587.08	0.648
2595.51	0.645
2603.94	0.6429
2612.36	0.6412
2620.79	0.6379
2629.22	0.6341
2637.64	0.6262
2646.07	0.6189
2654.5	0.6108
2662.92	0.603
2671.35	0.5983
2679.78	0.5858
2688.21	0.5756
2696.63	0.5656
2705.06	0.5556
2713.49	0.5493
2721.91	0.5483
2730.34	0.5531
2738.77	0.5703
2747.19	0.5849
2755.62	0.5916
2764.05	0.596
2772.48	0.596
2780.9	0.594
2789.33	0.593
2797.76	0.5892
2806.18	0.585
2814.61	0.5813
2823.04	0.5777
2831.46	0.576
2839.89	0.5737
2848.32	0.5643
2856.75	0.5573
2865.17	0.5501
2873.6	0.5483
2882.03	0.5421
2890.45	0.5386
2898.88	0.5322
2907.31	0.5256
2915.73	0.5212
2924.16	0.5114
2932.59	0.5046
2941.02	0.5016
2949.44	0.498
2957.87	0.4849
2966.3	0.4786
2974.72	0.4703
2983.15	0.463
2991.58	0.4396
3000	0.4275
3008.43	0.4215
3016.86	0.408
3025.29	0.3982
3033.71	0.382
3042.14	0.3697
3050.57	0.3549
3058.99	0.3405
3067.42	0.3314
3075.85	0.328
3084.27	0.328
3092.7	0.3286
3101.13	0.33
3109.55	0.3284
3117.98	0.3248
3126.41	0.3058
3134.84	0.2895
3143.26	0.2738
3151.69	0.265
3160.12	0.2657
3168.54	0.2715
3176.97	0.2842
3185.4	0.2984
3193.82	0.315
3202.25	0.3408
3210.68	0.3753
3219.11	0.3969
3227.53	0.4292
3235.96	0.4548
3244.39	0.4849
3252.81	0.5194
3261.24	0.5441
3269.67	0.566
3278.09	0.5783
3286.52	0.6045
3294.95	0.6396
3303.38	0.6598
3311.8	0.6687
3320.23	0.6742
3328.66	0.6746
3337.08	0.6727
3345.51	0.6692
3353.94	0.6625
3362.36	0.6553
3370.79	0.6433
3379.22	0.6274
3387.65	0.61
3396.07	0.6037
3404.5	0.5993
3412.93	0.5941
3421.35	0.5896
3429.78	0.5875
3438.21	0.5843
3446.63	0.584
3455.06	0.584
3463.49	0.585
3471.92	0.587
3480.34	0.59
3488.77	0.5945
3497.2	0.598
3505.62	0.6022
3514.05	0.608
3522.48	0.6142
3530.9	0.618
3539.33	0.6208
3547.76	0.6241
3556.18	0.6323
3564.61	0.635
3573.04	0.636
3581.47	0.641
3589.89	0.644
3598.32	0.645
3606.75	0.647
3615.17	0.648
3623.6	0.65
3632.03	0.65
3640.45	0.65
3648.88	0.65
3657.31	0.65
3665.74	0.6489
3674.16	0.6472
3682.59	0.6468
3691.02	0.645
3699.44	0.6428
3707.87	0.6385
3716.3	0.6378
3724.72	0.636
3733.15	0.636
3741.58	0.636
3750.01	0.636
3758.43	0.6349
3766.86	0.6294
3775.29	0.627
3783.71	0.627
3792.14	0.627
3800.57	0.627
3808.99	0.6261
3817.42	0.6239
3825.85	0.623
3834.28	0.623
3842.7	0.623
3851.13	0.621
3859.56	0.621
3867.98	0.621
3876.41	0.6211
3884.84	0.62
3893.26	0.62
3901.69	0.62
3910.12	0.62
3918.55	0.618
3926.97	0.6175
3935.4	0.6156
3943.83	0.615
3952.25	0.612
3960.68	0.612
3969.11	0.612
3977.53	0.612
3985.96	0.611
