Infrared Spectrum: 2-(Alpha-TRIFLUOROMETHYL)BENZHYDRYLOXY TRIETHYLAMINE HYDROCHLORIDE
Formula: C20 H25 Cl F3 N O
CAS: 467-75-4
State: SOLID (MINERAL OIL MULL)
Class: COBLENTZ
Instrument: Not specified, most likely a prism, grating, or hybrid spectrometer.
Sampling: TRANSMISSION
Resolution: 4
Origin: DOW CHEMICAL COMPANY
MICROMETERS	TRANSMITTANCE
2.062	0.834
2.10306	0.837
2.14411	0.834
2.18517	0.836
2.22622	0.813
2.26728	0.802
2.30833	0.808
2.34939	0.817
2.39044	0.82
2.4315	0.825
2.47255	0.843
2.51361	0.854
2.55467	0.858
2.59572	0.865
2.63678	0.865
2.67783	0.868
2.71889	0.872
2.75994	0.873
2.801	0.877
2.84205	0.875
2.88311	0.87
2.92416	0.868
2.96522	0.868
3.00628	0.868
3.04733	0.866
3.08839	0.858
3.12944	0.846
3.1705	0.829
3.21155	0.788
3.25261	0.723
3.29366	0.651
3.33472	0.438
3.37577	0.08
3.41683	0.025
3.45789	0.058
3.49894	0.218
3.54	0.709
3.58105	0.767
3.62211	0.757
3.66316	0.757
3.70422	0.767
3.74527	0.708
3.78633	0.665
3.82738	0.634
3.86844	0.549
3.9095	0.459
3.95055	0.508
3.99161	0.469
4.03266	0.307
4.07372	0.174
4.11477	0.168
4.15583	0.255
4.19688	0.36
4.23794	0.515
4.27899	0.641
4.32005	0.694
4.36111	0.715
4.40216	0.744
4.44322	0.771
4.48427	0.803
4.52533	0.827
4.56638	0.849
4.60744	0.866
4.64849	0.868
4.68955	0.878
4.7306	0.882
4.77166	0.887
4.81272	0.895
4.85377	0.899
4.89483	0.901
4.93588	0.902
4.97694	0.895
5.01799	0.877
5.05905	0.889
5.1001	0.895
5.14116	0.895
5.18221	0.897
5.22327	0.897
5.26433	0.899
5.30538	0.901
5.34644	0.904
5.38749	0.904
5.42855	0.904
5.4696	0.904
5.51066	0.904
5.55171	0.906
5.59277	0.909
5.63382	0.909
5.67488	0.909
5.71594	0.909
5.75699	0.909
5.79805	0.904
5.8391	0.901
5.88016	0.897
5.92121	0.895
5.96227	0.897
6.00332	0.897
6.04438	0.897
6.08543	0.897
6.12649	0.892
6.16755	0.883
6.2086	0.868
6.24966	0.861
6.29071	0.861
6.33177	0.861
6.37282	0.861
6.41388	0.861
6.45493	0.86
6.49599	0.86
6.53704	0.856
6.5781	0.849
6.61916	0.81
6.66021	0.716
6.70127	0.61
6.74232	0.58
6.78338	0.389
6.82443	0.162
6.86549	0.153
6.90654	0.194
6.9476	0.522
6.98865	0.72
7.02971	0.747
7.07077	0.696
7.11182	0.668
7.15288	0.648
7.19393	0.592
7.23499	0.368
7.27604	0.407
7.3171	0.547
7.35815	0.672
7.39921	0.713
7.44026	0.728
7.48132	0.74
7.52238	0.752
7.56343	0.747
7.60449	0.745
7.64554	0.744
7.6866	0.718
7.72765	0.627
7.76871	0.587
7.80976	0.532
7.85082	0.436
7.89187	0.394
7.93293	0.46
7.97399	0.573
8.01504	0.665
8.0561	0.704
8.09715	0.708
8.13821	0.716
8.17926	0.692
8.22032	0.706
8.26137	0.709
8.30243	0.627
8.34348	0.488
8.38454	0.464
8.42559	0.527
8.46665	0.477
8.50771	0.373
8.54876	0.172
8.58982	0.018
8.63087	0.013
8.67193	0.044
8.71298	0.441
8.75404	0.624
8.79509	0.674
8.83615	0.684
8.8772	0.679
8.91826	0.626
8.95932	0.597
9.00037	0.571
9.04143	0.433
9.08248	0.291
9.12354	0.377
9.16459	0.59
9.20565	0.479
9.2467	0.377
9.28776	0.423
9.32881	0.46
9.36987	0.453
9.41093	0.53
9.45198	0.638
9.49304	0.622
9.53409	0.627
9.57515	0.663
9.6162	0.605
9.65726	0.482
9.69831	0.37
9.73937	0.416
9.78042	0.447
9.82148	0.416
9.86254	0.438
9.90359	0.6
9.94465	0.689
9.9857	0.691
10.0268	0.691
10.0678	0.721
10.1089	0.779
10.1499	0.812
10.191	0.822
10.232	0.819
10.2731	0.813
10.3141	0.808
10.3552	0.796
10.3963	0.749
10.4373	0.648
10.4784	0.609
10.5194	0.641
10.5605	0.534
10.6015	0.467
10.6426	0.631
10.6836	0.691
10.7247	0.67
10.7658	0.721
10.8068	0.798
10.8479	0.805
10.8889	0.805
10.93	0.8
10.971	0.744
11.0121	0.668
11.0531	0.723
11.0942	0.831
11.1353	0.854
11.1763	0.856
11.2174	0.854
11.2584	0.856
11.2995	0.861
11.3405	0.87
11.3816	0.872
11.4226	0.875
11.4637	0.875
11.5048	0.875
11.5458	0.877
11.5869	0.88
11.6279	0.883
11.669	0.887
11.71	0.883
11.7511	0.878
11.7921	0.878
11.8332	0.883
11.8743	0.889
11.9153	0.89
11.9564	0.89
11.9974	0.89
12.0385	0.882
12.0795	0.846
12.1206	0.808
12.1616	0.798
12.2027	0.815
12.2438	0.856
12.2848	0.87
12.3259	0.877
12.3669	0.882
12.408	0.883
12.449	0.88
12.4901	0.86
12.5311	0.839
12.5722	0.839
12.6133	0.854
12.6543	0.863
12.6954	0.866
12.7364	0.866
12.7775	0.866
12.8185	0.841
12.8596	0.788
12.9006	0.627
12.9417	0.436
12.9828	0.407
13.0238	0.44
13.0649	0.401
13.1059	0.365
13.147	0.377
13.188	0.498
13.2291	0.498
13.2701	0.481
13.3112	0.59
13.3522	0.696
13.3933	0.73
13.4344	0.747
13.4754	0.75
13.5165	0.72
13.5575	0.612
13.5986	0.414
13.6396	0.305
13.6807	0.464
13.7217	0.651
13.7628	0.686
13.8039	0.691
13.8449	0.692
13.886	0.691
13.927	0.668
13.9681	0.609
14.0091	0.532
14.0502	0.418
14.0912	0.313
14.1323	0.259
14.1734	0.266
14.2144	0.3
14.2555	0.29
14.2965	0.262
14.3376	0.286
14.3786	0.441
14.4197	0.564
14.4607	0.638
14.5018	0.667
14.5429	0.674
14.5839	0.677
14.625	0.677
14.666	0.663
14.7071	0.655
14.7481	0.648
14.7892	0.643
14.8302	0.626
14.8713	0.617
14.9124	0.595
14.9534	0.544
14.9945	0.488
15.0355	0.402
15.0766	0.38
15.1176	0.414
15.1587	0.457
15.1997	0.481
15.2408	0.482
15.2819	0.472
15.3229	0.464
15.364	0.46
15.405	0.465
15.4461	0.482
15.4871	0.496
15.5282	0.501
15.5692	0.503
15.6103	0.503
15.6514	0.503
15.6924	0.498
15.7335	0.491
15.7745	0.484
15.8156	0.482
15.8566	0.481
15.8977	0.481
