Infrared Spectrum: TRIS(p-AMINOPHENYL)METHANOL
Formula: C19 H19 N3 O
CAS: 467-62-9
State: SOLID (MINERAL OIL MULL)
Class: COBLENTZ
Instrument: Not specified, most likely a prism, grating, or hybrid spectrometer.
Sampling: TRANSMISSION
Resolution: 4
Origin: WYANDOTTE CHEMICALS CORP., WYANDOTTE, MICHIGAN, USA
MICROMETERS	TRANSMITTANCE
2.025	0.224
2.06213	0.221
2.09927	0.225
2.1364	0.248
2.17353	0.255
2.21067	0.253
2.2478	0.25
2.28493	0.251
2.32207	0.255
2.3592	0.261
2.39633	0.265
2.43347	0.27
2.4706	0.279
2.50773	0.282
2.54487	0.289
2.582	0.319
2.61913	0.299
2.65627	0.327
2.6934	0.344
2.73053	0.341
2.76766	0.338
2.8048	0.34
2.84193	0.335
2.87906	0.323
2.9162	0.214
2.95333	0.18
2.99046	0.183
3.0276	0.081
3.06473	0.057
3.10186	0.057
3.139	0.052
3.17613	0.066
3.21326	0.094
3.2504	0.114
3.28753	0.094
3.32466	0.054
3.3618	0.021
3.39893	0.023
3.43606	0.026
3.4732	0.026
3.51033	0.057
3.54746	0.23
3.5846	0.299
3.62173	0.332
3.65886	0.347
3.696	0.366
3.73313	0.37
3.77026	0.395
3.8074	0.415
3.84453	0.42
3.88166	0.42
3.9188	0.443
3.95593	0.469
3.99306	0.491
4.0302	0.503
4.06733	0.506
4.10446	0.508
4.14159	0.519
4.17873	0.517
4.21586	0.539
4.25299	0.497
4.29013	0.528
4.32726	0.542
4.36439	0.59
4.40153	0.59
4.43866	0.584
4.47579	0.601
4.51293	0.595
4.55006	0.618
4.58719	0.629
4.62433	0.625
4.66146	0.633
4.69859	0.65
4.73573	0.659
4.77286	0.672
4.80999	0.672
4.84713	0.67
4.88426	0.68
4.92139	0.701
4.95853	0.709
4.99566	0.714
5.03279	0.72
5.06993	0.732
5.10706	0.738
5.14419	0.735
5.18133	0.743
5.21846	0.749
5.25559	0.714
5.29273	0.714
5.32986	0.755
5.36699	0.795
5.40413	0.817
5.44126	0.82
5.47839	0.833
5.51553	0.85
5.55266	0.853
5.58979	0.853
5.62692	0.862
5.66406	0.888
5.70119	0.88
5.73832	0.891
5.77546	0.918
5.81259	0.933
5.84972	0.916
5.88686	0.925
5.92399	0.885
5.96112	0.848
5.99826	0.754
6.03539	0.663
6.07252	0.412
6.10966	0.136
6.14679	0.055
6.18392	0.105
6.22106	0.259
6.25819	0.241
6.29532	0.401
6.33246	0.489
6.36959	0.574
6.40672	0.604
6.44386	0.613
6.48099	0.61
6.51812	0.462
6.55526	0.091
6.59239	0.064
6.62952	0.156
6.66666	0.279
6.70379	0.281
6.74092	0.2
6.77806	0.061
6.81519	0.064
6.85232	0.1
6.88946	0.129
6.92659	0.18
6.96372	0.318
7.00085	0.445
7.03799	0.517
7.07512	0.479
7.11225	0.432
7.14939	0.409
7.18652	0.304
7.22365	0.163
7.26079	0.208
7.29792	0.304
7.33505	0.5
7.37219	0.539
7.40932	0.567
7.44645	0.581
7.48359	0.604
7.52072	0.59
7.55785	0.612
7.59499	0.638
7.63212	0.625
7.66925	0.482
7.70639	0.361
7.74352	0.307
7.78065	0.25
7.81779	0.095
7.85492	0.112
7.89205	0.231
7.92919	0.389
7.96632	0.476
8.00345	0.531
8.04059	0.588
8.07772	0.621
8.11485	0.632
8.15199	0.574
8.18912	0.425
8.22625	0.375
8.26339	0.559
8.30052	0.646
8.33765	0.681
8.37478	0.675
8.41192	0.411
8.44905	0.185
8.48618	0.139
8.52332	0.227
8.56045	0.401
8.59758	0.401
8.63472	0.323
8.67185	0.435
8.70898	0.519
8.74612	0.581
8.78325	0.598
8.82038	0.591
8.85752	0.641
8.89465	0.672
8.93178	0.693
8.96892	0.692
9.00605	0.687
9.04318	0.673
9.08032	0.658
9.11745	0.656
9.15458	0.661
9.19172	0.656
9.22885	0.642
9.26598	0.635
9.30312	0.646
9.34025	0.68
9.37738	0.717
9.41452	0.743
9.45165	0.775
9.48878	0.778
9.52592	0.791
9.56305	0.791
9.60018	0.783
9.63732	0.771
9.67445	0.754
9.71158	0.71
9.74871	0.599
9.78585	0.395
9.82298	0.404
9.86011	0.587
9.89725	0.452
9.93438	0.265
9.97151	0.272
10.0086	0.426
10.0458	0.528
10.0829	0.587
10.12	0.598
10.1572	0.598
10.1943	0.562
10.2314	0.494
10.2686	0.408
10.3057	0.459
10.3428	0.568
10.38	0.591
10.4171	0.582
10.4542	0.5
10.4914	0.401
10.5285	0.377
10.5656	0.431
10.6028	0.505
10.6399	0.48
10.677	0.4
10.7142	0.323
10.7513	0.282
10.7884	0.255
10.8256	0.23
10.8627	0.217
10.8998	0.238
10.937	0.262
10.9741	0.268
11.0112	0.238
11.0484	0.231
11.0855	0.278
11.1226	0.319
11.1598	0.353
11.1969	0.389
11.234	0.428
11.2712	0.457
11.3083	0.488
11.3454	0.527
11.3826	0.548
11.4197	0.571
11.4568	0.599
11.494	0.618
11.5311	0.638
11.5682	0.652
11.6054	0.658
11.6425	0.647
11.6796	0.612
11.7168	0.557
11.7539	0.459
11.791	0.313
11.8282	0.183
11.8653	0.143
11.9024	0.134
11.9396	0.114
11.9767	0.072
12.0138	0.064
12.051	0.064
12.0881	0.063
12.1252	0.043
12.1624	0.057
12.1995	0.102
12.2366	0.153
12.2738	0.239
12.3109	0.272
12.348	0.21
12.3852	0.12
12.4223	0.151
12.4594	0.241
12.4966	0.341
12.5337	0.408
12.5708	0.457
12.608	0.506
12.6451	0.54
12.6822	0.576
12.7194	0.596
12.7565	0.608
12.7936	0.622
12.8308	0.633
12.8679	0.635
12.905	0.638
12.9422	0.636
12.9793	0.636
13.0164	0.647
13.0536	0.65
13.0907	0.649
13.1278	0.647
13.165	0.653
13.2021	0.649
13.2392	0.649
13.2764	0.647
13.3135	0.641
13.3506	0.63
13.3878	0.618
13.4249	0.591
13.462	0.548
13.4992	0.502
13.5363	0.472
13.5734	0.448
13.6106	0.415
13.6477	0.397
13.6848	0.404
13.722	0.443
13.7591	0.471
13.7962	0.483
13.8334	0.494
13.8705	0.497
13.9076	0.497
13.9448	0.5
13.9819	0.503
14.019	0.506
14.0562	0.505
14.0933	0.496
14.1304	0.493
14.1676	0.488
14.2047	0.485
14.2418	0.471
14.279	0.449
14.3161	0.445
14.3532	0.437
14.3904	0.429
14.4275	0.426
14.4646	0.417
14.5018	0.409
14.5389	0.401
14.576	0.398
14.6132	0.391
14.6503	0.384
14.6874	0.38
14.7246	0.369
14.7617	0.369
14.7988	0.352
14.836	0.353
14.8731	0.341
14.9102	0.338
14.9474	0.336
14.9845	0.321
15.0216	0.293
15.0588	0.29
15.0959	0.287
15.133	0.281
15.1702	0.287
15.2073	0.284
15.2444	0.289
15.2816	0.292
15.3187	0.295
15.3558	0.289
15.393	0.287
15.4301	0.287
15.4672	0.289
15.5044	0.289
15.5415	0.29
15.5786	0.29
15.6158	0.292
15.6529	0.29
15.69	0.292
15.7272	0.292
15.7643	0.29
15.8014	0.289
15.8386	0.287
15.8757	0.282
15.9128	0.281
15.95	0.281
15.9871	0.281
