Infrared Spectrum: A-(2-PIPERIDYL)-BENZOHYDROL
Formula: C18 H21 N O
CAS: 467-60-7
State: SOLUTION (10% CHCl3)
Class: COBLENTZ
Instrument: Not specified, most likely a grating spectrometer.
Sampling: TRANSMISSION
Path length: 0.01 CM
Resolution: 4
Origin: ABBOTT LABORATORIES
MICROMETERS	TRANSMITTANCE
2.013	0.98
2.05163	0.976
2.09025	0.973
2.12888	0.968
2.16751	0.968
2.20613	0.961
2.24476	0.96
2.28339	0.96
2.32202	0.957
2.36064	0.955
2.39927	0.941
2.4379	0.941
2.47652	0.942
2.51515	0.944
2.55378	0.946
2.5924	0.947
2.63103	0.947
2.66966	0.947
2.70828	0.944
2.74691	0.938
2.78554	0.911
2.82417	0.842
2.86279	0.747
2.90142	0.707
2.94005	0.714
2.97867	0.758
3.0173	0.771
3.05593	0.83
3.09455	0.86
3.13318	0.869
3.17181	0.877
3.21043	0.869
3.24906	0.709
3.28769	0.7
3.32632	0.639
3.36494	0.58
3.40357	0.384
3.4422	0.553
3.48082	0.59
3.51945	0.512
3.55808	0.614
3.5967	0.734
3.63533	0.807
3.67396	0.828
3.71259	0.847
3.75121	0.866
3.78984	0.879
3.82847	0.887
3.86709	0.893
3.90572	0.9
3.94435	0.904
3.98297	0.906
4.0216	0.906
4.06023	0.906
4.09885	0.904
4.13748	0.901
4.17611	0.901
4.21474	0.904
4.25336	0.912
4.29199	0.915
4.33062	0.915
4.36924	0.914
4.40787	0.912
4.4465	0.914
4.48512	0.915
4.52375	0.915
4.56238	0.917
4.601	0.917
4.63963	0.917
4.67826	0.917
4.71689	0.914
4.75551	0.914
4.79414	0.915
4.83277	0.915
4.87139	0.915
4.91002	0.915
4.94865	0.914
4.98727	0.912
5.0259	0.906
5.06453	0.896
5.10315	0.874
5.14178	0.876
5.18041	0.898
5.21904	0.901
5.25766	0.895
5.29629	0.888
5.33492	0.896
5.37354	0.901
5.41217	0.901
5.4508	0.898
5.48942	0.884
5.52805	0.877
5.56668	0.89
5.6053	0.901
5.64393	0.901
5.68256	0.885
5.72119	0.869
5.75981	0.861
5.79844	0.866
5.83707	0.888
5.87569	0.901
5.91432	0.906
5.95295	0.9
5.99157	0.892
6.0302	0.888
6.06883	0.887
6.10746	0.887
6.14608	0.885
6.18471	0.879
6.22334	0.809
6.26196	0.741
6.30059	0.823
6.33922	0.868
6.37784	0.884
6.41647	0.89
6.4551	0.885
6.49372	0.882
6.53235	0.884
6.57098	0.88
6.60961	0.853
6.64823	0.811
6.68686	0.514
6.72549	0.611
6.76411	0.755
6.80274	0.707
6.84137	0.519
6.87999	0.296
6.91862	0.336
6.95725	0.549
6.99587	0.7
7.0345	0.761
7.07313	0.771
7.11176	0.757
7.15038	0.719
7.18901	0.666
7.22764	0.614
7.26626	0.596
7.30489	0.553
7.34352	0.522
7.38214	0.549
7.42077	0.588
7.4594	0.622
7.49802	0.582
7.53665	0.66
7.57528	0.628
7.61391	0.455
7.65253	0.43
7.69116	0.603
7.72979	0.72
7.76841	0.753
7.80704	0.774
7.84567	0.777
7.88429	0.75
7.92292	0.693
7.96155	0.739
8.00017	0.712
8.0388	0.657
8.07743	0.679
8.11606	0.685
8.15468	0.684
8.19331	0.68
8.23194	0.692
8.27056	0.698
8.30919	0.704
8.34782	0.703
8.38644	0.66
8.42507	0.615
8.4637	0.563
8.50232	0.447
8.54095	0.417
8.57958	0.492
8.61821	0.634
8.65683	0.655
8.69546	0.676
8.73409	0.715
8.77271	0.725
8.81134	0.723
8.84997	0.714
8.88859	0.676
8.92722	0.495
8.96585	0.355
9.00448	0.477
9.0431	0.569
9.08173	0.626
9.12036	0.68
9.15898	0.733
9.19761	0.753
9.23624	0.763
9.27486	0.765
9.31349	0.676
9.35212	0.66
9.39074	0.598
9.42937	0.492
9.468	0.579
9.50663	0.65
9.54525	0.711
9.58388	0.747
9.62251	0.765
9.66113	0.752
9.69976	0.641
9.73839	0.682
9.77701	0.734
9.81564	0.75
9.85427	0.736
9.89289	0.723
9.93152	0.733
9.97015	0.755
10.0088	0.741
10.0474	0.765
10.086	0.776
10.1247	0.757
10.1633	0.7
10.2019	0.596
10.2405	0.496
10.2792	0.512
10.3178	0.593
10.3564	0.687
10.395	0.738
10.4337	0.782
10.4723	0.811
10.5109	0.819
10.5496	0.817
10.5882	0.811
10.6268	0.812
10.6654	0.828
10.7041	0.841
10.7427	0.842
10.7813	0.841
10.8199	0.836
10.8586	0.822
10.8972	0.8
10.9358	0.757
10.9744	0.723
11.0131	0.758
11.0517	0.806
11.0903	0.812
11.129	0.823
11.1676	0.833
11.2062	0.834
11.2448	0.826
11.2835	0.803
11.3221	0.78
11.3607	0.78
11.3993	0.787
11.438	0.776
11.4766	0.726
11.5152	0.671
11.5539	0.693
11.5925	0.711
11.6311	0.714
11.6697	0.653
11.7084	0.504
11.747	0.473
11.7856	0.536
11.8242	0.631
11.8629	0.703
11.9015	0.749
11.9401	0.787
11.9787	0.806
12.0174	0.812
12.056	0.814
12.0946	0.795
12.1333	0.765
12.1719	0.744
12.2105	0.768
12.2491	0.796
12.2878	0.806
12.3264	0.8
12.365	0.793
12.4036	0.779
12.4423	0.76
12.4809	0.75
12.5195	0.731
12.5582	0.715
12.5968	0.709
12.6354	0.717
12.674	0.72
12.7127	0.723
12.7513	0.731
12.7899	0.733
12.8285	0.736
12.8672	0.738
12.9058	0.738
12.9444	0.747
12.983	0.747
13.0217	0.747
13.0603	0.749
13.0989	0.75
13.1376	0.757
13.1762	0.76
13.2148	0.761
13.2534	0.766
13.2921	0.768
13.3307	0.774
13.3693	0.779
13.4079	0.779
13.4466	0.787
13.4852	0.793
13.5238	0.793
13.5625	0.796
13.6011	0.803
13.6397	0.804
13.6783	0.809
13.717	0.812
13.7556	0.817
13.7942	0.82
13.8328	0.826
13.8715	0.828
13.9101	0.83
13.9487	0.826
13.9873	0.826
14.026	0.814
14.0646	0.8
14.1032	0.722
14.1419	0.59
14.1805	0.522
14.2191	0.323
14.2577	0.258
14.2964	0.23
14.335	0.223
14.3736	0.228
14.4122	0.242
14.4509	0.33
14.4895	0.422
14.5281	0.503
14.5668	0.592
14.6054	0.649
14.644	0.684
14.6826	0.714
14.7213	0.738
14.7599	0.747
14.7985	0.758
14.8371	0.765
14.8758	0.771
14.9144	0.771
14.953	0.773
14.9916	0.776
15.0303	0.776
15.0689	0.776
15.1075	0.738
15.1462	0.623
15.1848	0.574
15.2234	0.582
15.262	0.631
15.3007	0.717
15.3393	0.769
15.3779	0.8
15.4165	0.823
15.4552	0.834
15.4938	0.844
