Infrared Spectrum: 3,5-Dimethoxyphenylacetic acid
Formula: C 10 H 12 O 4
CAS: 4670-10-4
State: gas
Origin: EPA-IR VAPOR PHASE LIBRARY
1/CM	ABSORBANCE
549.8	0.005383
559.445	0.004673
569.09	0.004823
578.734	0.007333
588.379	0.010053
598.024	0.013323
607.669	0.017713
617.313	0.017713
626.958	0.014183
636.603	0.010543
646.248	0.007993
655.893	0.005973
665.537	0.004963
675.182	0.006093
684.827	0.007363
694.472	0.005003
704.116	0.003423
713.761	0.002753
723.406	0.002463
733.051	0.002293
742.695	0.002303
752.34	0.002203
761.985	0.002313
771.63	0.002113
781.275	0.001483
790.919	0.001533
800.564	0.001883
810.209	0.003073
819.854	0.004273
829.498	0.006093
839.143	0.008223
848.788	0.006903
858.433	0.005663
868.078	0.003913
877.722	0.003183
887.367	0.003213
897.012	0.003493
906.657	0.003953
916.301	0.004553
925.946	0.004233
935.591	0.003773
945.236	0.003943
954.88	0.004003
964.525	0.003773
974.17	0.003043
983.815	0.002743
993.46	0.003303
1003.1	0.003263
1012.75	0.003163
1022.39	0.003463
1032.04	0.004623
1041.68	0.008403
1051.33	0.015603
1060.97	0.025563
1070.62	0.025033
1080.26	0.018463
1089.91	0.020493
1099.55	0.030543
1109.2	0.042973
1118.84	0.038973
1128.49	0.028673
1138.13	0.034923
1147.78	0.057003
1157.42	0.065663
1167.07	0.043363
1176.71	0.023303
1186.36	0.025333
1196	0.037703
1205.64	0.042603
1215.29	0.026893
1224.93	0.013023
1234.58	0.009983
1244.22	0.008703
1253.87	0.008553
1263.51	0.008383
1273.16	0.009273
1282.8	0.013843
1292.45	0.016683
1302.09	0.016083
1311.74	0.018073
1321.38	0.024323
1331.03	0.026353
1340.67	0.021293
1350.32	0.015113
1359.96	0.010393
1369.61	0.008023
1379.25	0.006473
1388.9	0.005553
1398.54	0.005573
1408.18	0.006503
1417.83	0.009933
1427.47	0.019233
1437.12	0.023763
1446.76	0.017233
1456.41	0.021803
1466.05	0.032873
1475.7	0.025323
1485.34	0.011923
1494.99	0.006243
1504.63	0.004613
1514.28	0.004273
1523.92	0.004153
1533.57	0.004463
1543.21	0.004793
1552.86	0.005503
1562.5	0.007383
1572.15	0.012813
1581.79	0.027623
1591.44	0.054373
1601.08	0.072103
1610.73	0.053003
1620.37	0.024873
1630.01	0.011123
1639.66	0.006683
1649.3	0.004783
1658.95	0.003753
1668.59	0.003383
1678.24	0.003133
1687.88	0.003093
1697.53	0.003273
1707.17	0.003533
1716.82	0.004133
1726.46	0.005593
1736.11	0.008583
1745.75	0.014203
1755.4	0.021883
1765.04	0.031673
1774.69	0.041323
1784.33	0.040073
1793.98	0.031063
1803.62	0.020173
1813.27	0.010433
1822.91	0.005593
1832.55	0.003323
1842.2	0.002213
1851.84	0.001683
1861.49	0.001453
1871.13	0.0012152
1880.78	0.0011309
1890.42	0.0010438
1900.07	0.001014
1909.71	0.0009525
1919.36	0.0009703
1929	0.0009143
1938.65	0.0009422
1948.29	0.0009859
1957.94	0.0009868
1967.58	0.0009832
1977.23	0.0010841
1986.87	0.0010142
1996.52	0.0011585
2006.16	0.0010699
2015.81	0.0010585
2025.45	0.0010459
2035.1	0.0009228
2044.74	0.0008962
2054.38	0.0010206
2064.03	0.0011571
2073.67	0.0011158
2083.32	0.0011326
2092.96	0.0012943
2102.61	0.001383
2112.25	0.0013292
2121.9	0.001423
2131.54	0.0011984
2141.19	0.0009682
2150.83	0.0008183
2160.48	0.0008196
2170.12	0.000848
2179.77	0.0007896
2189.41	0.0008927
2199.06	0.0010494
2208.7	0.0011575
2218.35	0.0012145
2227.99	0.0010823
2237.64	0.0010238
2247.28	0.0010019
2256.92	0.0008265
2266.57	0.0007768
2276.21	0.0007928
2285.86	0.0006567
2295.5	0.0006685
2305.15	0.0007543
2314.79	0.0007781
2324.44	0.0006396
2334.08	0.0007149
2343.73	0.0006689
2353.37	0.0007419
2363.02	0.0008587
2372.66	0.000702
2382.31	0.0008584
2391.95	0.0007791
2401.6	0.000804
2411.24	0.000704
2420.89	0.0007489
2430.53	0.0008233
2440.18	0.0007276
2449.82	0.0007345
2459.47	0.0007135
2469.11	0.0007983
2478.75	0.0007556
2488.4	0.0008096
2498.04	0.0007196
2507.69	0.0008612
2517.33	0.0007224
2526.98	0.0006931
2536.62	0.0007124
2546.27	0.0006741
2555.91	0.0006744
2565.56	0.0005744
2575.2	0.0005856
2584.85	0.0006399
2594.49	0.000717
2604.14	0.0006726
2613.78	0.0007515
2623.43	0.0007709
2633.07	0.0008261
2642.72	0.0007195
2652.36	0.0007141
2662.01	0.0005688
2671.65	0.0006003
2681.29	0.0006345
2690.94	0.0005704
2700.58	0.0005931
2710.23	0.0006826
2719.87	0.0005668
2729.52	0.0006575
2739.16	0.0008239
2748.81	0.0006439
2758.45	0.0009426
2768.1	0.0009988
2777.74	0.0010337
2787.39	0.0012937
2797.03	0.001393
2806.68	0.001653
2816.32	0.002073
2825.97	0.003163
2835.61	0.006113
2845.26	0.010393
2854.9	0.008213
2864.55	0.004693
2874.19	0.004233
2883.84	0.004493
2893.48	0.005563
2903.12	0.006663
2912.77	0.008113
2922.41	0.008943
2932.06	0.010523
2941.7	0.015773
2951.35	0.017743
2960.99	0.014343
2970.64	0.009333
2980.28	0.006623
2989.93	0.006813
2999.57	0.011133
3009.22	0.013423
3018.86	0.006953
3028.51	0.003303
3038.15	0.002513
3047.8	0.002033
3057.44	0.002183
3067.09	0.002473
3076.73	0.002523
3086.38	0.002303
3096.02	0.001833
3105.67	0.0012795
3115.31	0.0011406
3124.95	0.0008739
3134.6	0.0007919
3144.24	0.0008702
3153.89	0.0006199
3163.53	0.0005954
3173.18	0.0005312
3182.82	0.0005321
3192.47	0.0003861
3202.11	0.0005821
3211.76	0.00036025
3221.4	0.0004798
3231.05	0.0005182
3240.69	0.0004774
3250.34	0.000166
3259.98	0.00038248
3269.63	0.0003187
3279.27	6.1e-05
3288.92	0.00042076
3298.56	0.0003093
3308.21	0.0005591
3317.85	0.0002705
3327.49	0.0002929
3337.14	0.0003029
3346.78	0.000224
3356.43	0.0002554
3366.07	0.00036287
3375.72	0.000134
3385.36	0.0002
3395.01	0.00037974
3404.65	0.0005134
3414.3	0.00037414
3423.94	0.000344448
3433.59	0.000350332
3443.23	0.0002781
3452.88	0.000236
3462.52	0.0003325
3472.17	0.000342064
3481.81	0.00041768
3491.46	0.0006647
3501.1	0.0004765
3510.75	0.0008483
3520.39	0.0009558
3530.04	0.0013067
3539.68	0.002053
3549.32	0.003233
3558.97	0.005093
3568.61	0.016073
3578.26	0.018783
3587.9	0.005403
3597.55	0.002413
3607.19	0.001343
3616.84	0.0008543
3626.48	0.0007075
3636.13	0.0004561
3645.77	0.00038887
3655.42	0.0002539
3665.06	0.0004672
3674.71	0.0002877
3684.35	0.0004819
3694	0.000259
3703.64	0.000126
3713.29	0.000173
3722.93	1e-06
3732.58	0.0002836
3742.22	0.0002564
3751.86	0.00037293
3761.51	0.0002467
3771.15	0.00036546
3780.8	0.000135
3790.44	0.0003325
3800.09	0.0006003
3809.73	0.000182
3819.38	0.0003167
3829.02	0.000195
3838.67	0.000211
3848.31	0.000205
3857.96	0.0005023
3867.6	0.0002523
3877.25	0.00024
3886.89	0.000343474
3896.54	0.000305
3906.18	0.000164
3915.83	0.0002987
3925.47	0.00033471
3935.12	0.000342504
3944.76	0.00042888
3954.41	0.0002681
3964.05	0.00038786
3973.69	0.0005913
3983.34	0.0004748
3992.98	0.00038521
