Infrared Spectrum: PHOSPHONIC DIAMIDE, N,N'-DIPHENYL
Formula: C12 H13 N2 O P
CAS: 4671-85-6
State: SOLID (KBr PELLET)
Class: COBLENTZ
Instrument: PERKIN-ELMER
Sampling: TRANSMISSION
Resolution: 4
Origin: STANDARD OIL OF OHIO
MICROMETERS	TRANSMITTANCE
1.993	0.761
2.02679	0.761
2.06057	0.763
2.09436	0.764
2.12814	0.763
2.16193	0.759
2.19571	0.764
2.2295	0.771
2.26328	0.773
2.29707	0.773
2.33085	0.776
2.36464	0.775
2.39843	0.778
2.43221	0.776
2.466	0.773
2.49978	0.783
2.53357	0.788
2.56735	0.793
2.60114	0.79
2.63492	0.788
2.66871	0.797
2.7025	0.795
2.73628	0.802
2.77007	0.843
2.80385	0.914
2.83764	0.969
2.87142	1.023
2.90521	1.023
2.93899	0.988
2.97278	0.802
3.00656	0.563
3.04035	0.395
3.07414	0.209
3.10792	0.132
3.14171	0.207
3.17549	0.337
3.20928	0.349
3.24306	0.335
3.27685	0.303
3.31063	0.316
3.34442	0.293
3.37821	0.289
3.41199	0.264
3.44578	0.247
3.47956	0.275
3.51335	0.299
3.54713	0.33
3.58092	0.356
3.6147	0.381
3.64849	0.405
3.68227	0.437
3.71606	0.456
3.74985	0.453
3.78363	0.446
3.81742	0.427
3.8512	0.417
3.88499	0.415
3.91877	0.431
3.95256	0.449
3.98634	0.471
4.02013	0.497
4.05392	0.509
4.0877	0.512
4.12149	0.507
4.15527	0.499
4.18906	0.449
4.22284	0.395
4.25663	0.446
4.29041	0.511
4.3242	0.558
4.35798	0.574
4.39177	0.591
4.42556	0.613
4.45934	0.626
4.49313	0.637
4.52691	0.649
4.5607	0.657
4.59448	0.664
4.62827	0.667
4.66205	0.671
4.69584	0.678
4.72963	0.679
4.76341	0.681
4.7972	0.681
4.83098	0.689
4.86477	0.688
4.89855	0.686
4.93234	0.688
4.96612	0.696
4.99991	0.703
5.03369	0.705
5.06748	0.701
5.10127	0.698
5.13505	0.696
5.16884	0.705
5.20262	0.715
5.23641	0.724
5.27019	0.729
5.30398	0.729
5.33776	0.724
5.37155	0.72
5.40534	0.718
5.43912	0.739
5.47291	0.744
5.50669	0.744
5.54048	0.741
5.57426	0.737
5.60805	0.737
5.64183	0.742
5.67562	0.744
5.7094	0.742
5.74319	0.739
5.77698	0.722
5.81076	0.718
5.84455	0.729
5.87833	0.747
5.91212	0.752
5.9459	0.759
5.97969	0.751
6.01347	0.744
6.04726	0.715
6.08105	0.683
6.11483	0.66
6.14862	0.601
6.1824	0.354
6.21619	0.095
6.24997	0.226
6.28376	0.347
6.31754	0.403
6.35133	0.463
6.38511	0.502
6.4189	0.531
6.45269	0.558
6.48647	0.608
6.52026	0.626
6.55404	0.616
6.58783	0.505
6.62161	0.115
6.6554	0.013
6.68918	0.112
6.72297	0.349
6.75676	0.495
6.79054	0.633
6.82433	0.71
6.85811	0.758
6.8919	0.778
6.92568	0.787
6.95947	0.773
6.99325	0.505
7.02704	0.257
7.06082	0.482
7.09461	0.497
7.1284	0.315
7.16218	0.395
7.19597	0.524
7.22975	0.601
7.26354	0.734
7.29732	0.778
7.33111	0.798
7.36489	0.807
7.39868	0.805
7.43247	0.771
7.46625	0.749
7.50004	0.708
7.53382	0.55
7.56761	0.635
7.60139	0.66
7.63518	0.5
7.66896	0.281
7.70275	0.241
7.73653	0.241
7.77032	0.238
7.80411	0.267
7.83789	0.451
7.87168	0.611
7.90546	0.654
7.93925	0.642
7.97303	0.565
8.00682	0.451
8.0406	0.378
8.07439	0.282
8.10818	0.252
8.14196	0.327
8.17575	0.359
8.20953	0.35
8.24332	0.35
8.2771	0.327
8.31089	0.306
8.34467	0.286
8.37846	0.219
8.41224	0.127
8.44603	0.027
8.47982	0.003
8.5136	0.005
8.54739	0.037
8.58117	0.131
8.61496	0.139
8.64874	0.137
8.68253	0.134
8.71631	0.137
8.7501	0.182
8.78389	0.25
8.81767	0.275
8.85146	0.316
8.88524	0.386
8.91903	0.422
8.95281	0.419
8.9866	0.396
9.02038	0.361
9.05417	0.349
9.08795	0.332
9.12174	0.301
9.15553	0.296
9.18931	0.325
9.2231	0.333
9.25688	0.286
9.29067	0.31
9.32445	0.412
9.35824	0.456
9.39202	0.47
9.42581	0.477
9.4596	0.494
9.49338	0.512
9.52717	0.522
9.56095	0.507
9.59474	0.442
9.62852	0.291
9.66231	0.204
9.69609	0.117
9.72988	0.241
9.76366	0.408
9.79745	0.499
9.83124	0.517
9.86502	0.478
9.89881	0.407
9.93259	0.321
9.96638	0.204
10.0002	0.245
10.0339	0.24
10.0677	0.156
10.1015	0.26
10.1353	0.371
10.1691	0.359
10.2029	0.212
10.2367	0.1
10.2704	0.064
10.3042	0.122
10.338	0.258
10.3718	0.357
10.4056	0.437
10.4394	0.499
10.4732	0.531
10.5069	0.545
10.5407	0.543
10.5745	0.521
10.6083	0.487
10.6421	0.432
10.6759	0.35
10.7097	0.238
10.7434	0.18
10.7772	0.209
10.811	0.308
10.8448	0.417
10.8786	0.521
10.9124	0.558
10.9462	0.58
10.9799	0.599
11.0137	0.613
11.0475	0.618
11.0813	0.618
11.1151	0.601
11.1489	0.551
11.1827	0.5
11.2164	0.485
11.2502	0.477
11.284	0.531
11.3178	0.572
11.3516	0.606
11.3854	0.626
11.4192	0.643
11.4529	0.66
11.4867	0.674
11.5205	0.695
11.5543	0.705
11.5881	0.72
11.6219	0.734
11.6557	0.746
11.6894	0.749
11.7232	0.758
11.757	0.763
11.7908	0.761
11.8246	0.763
11.8584	0.763
11.8922	0.763
11.9259	0.756
11.9597	0.752
11.9935	0.746
12.0273	0.737
12.0611	0.741
12.0949	0.751
12.1286	0.761
12.1624	0.773
12.1962	0.781
12.23	0.787
12.2638	0.792
12.2976	0.793
12.3314	0.793
12.3651	0.793
12.3989	0.792
12.4327	0.792
12.4665	0.788
12.5003	0.783
12.5341	0.771
12.5679	0.758
12.6016	0.746
12.6354	0.746
12.6692	0.758
12.703	0.77
12.7368	0.78
12.7706	0.787
12.8044	0.788
12.8381	0.792
12.8719	0.792
12.9057	0.792
12.9395	0.792
12.9733	0.788
13.0071	0.778
13.0409	0.764
13.0746	0.749
13.1084	0.724
13.1422	0.679
13.176	0.568
13.2098	0.449
13.2436	0.269
13.2774	0.119
13.3111	0.052
13.3449	0.015
13.3787	0.028
13.4125	0.124
13.4463	0.253
13.4801	0.396
13.5139	0.528
13.5476	0.587
13.5814	0.652
13.6152	0.691
13.649	0.73
13.6828	0.752
13.7166	0.766
13.7504	0.775
13.7841	0.78
13.8179	0.783
13.8517	0.785
13.8855	0.788
13.9193	0.79
13.9531	0.79
13.9869	0.79
14.0206	0.79
14.0544	0.79
14.0882	0.785
14.122	0.781
14.1558	0.773
14.1896	0.761
14.2234	0.735
14.2571	0.698
14.2909	0.635
14.3247	0.538
14.3585	0.47
14.3923	0.39
14.4261	0.313
14.4598	0.236
14.4936	0.185
14.5274	0.201
14.5612	0.303
14.595	0.398
14.6288	0.497
14.6626	0.562
14.6963	0.616
14.7301	0.66
14.7639	0.693
14.7977	0.708
14.8315	0.718
14.8653	0.725
14.8991	0.73
14.9328	0.732
14.9666	0.732
15.0004	0.732
15.0342	0.734
15.068	0.737
15.1018	0.741
15.1356	0.742
15.1693	0.741
15.2031	0.737
15.2369	0.737
15.2707	0.735
15.3045	0.732
15.3383	0.729
15.3721	0.725
15.4058	0.718
