Infrared Spectrum: 3,4-Dimethylanisole
Formula: C 9 H 12 O
CAS: 4685-47-6
State: gas
Origin: EPA-IR VAPOR PHASE LIBRARY
1/CM	ABSORBANCE
549.9	0.00438
559.547	0.00642
569.193	0.00616
578.84	0.00462
588.486	0.0037
598.133	0.00267
607.779	0.0021474
617.426	0.0017443
627.072	0.001379
636.719	0.001267
646.365	0.001106
656.012	0.000945
665.658	0.001093
675.305	0.001393
684.951	0.0025102
694.598	0.00521
704.245	0.01153
713.891	0.0128
723.538	0.00733
733.184	0.0024957
742.831	0.0022126
752.477	0.0019841
762.124	0.0019962
771.77	0.00326
781.417	0.00708
791.063	0.01437
800.71	0.01878
810.356	0.02202
820.003	0.01321
829.649	0.00965
839.296	0.01104
848.943	0.01235
858.589	0.01398
868.236	0.01385
877.882	0.00851
887.529	0.00449
897.175	0.00326
906.822	0.0037
916.468	0.00535
926.115	0.00633
935.761	0.00512
945.408	0.00382
955.054	0.00358
964.701	0.00413
974.347	0.00528
983.994	0.00786
993.64	0.01092
1003.29	0.01186
1012.93	0.01177
1022.58	0.01637
1032.23	0.02851
1041.87	0.04889
1051.52	0.05738
1061.17	0.04093
1070.81	0.01919
1080.46	0.01125
1090.11	0.00969
1099.75	0.01509
1109.4	0.02943
1119.05	0.03628
1128.69	0.02554
1138.34	0.01844
1147.99	0.02821
1157.63	0.03977
1167.28	0.0324
1176.92	0.01304
1186.57	0.01541
1196.22	0.03524
1205.86	0.05021
1215.51	0.03791
1225.16	0.02408
1234.8	0.04104
1244.45	0.08871
1254.1	0.11115
1263.74	0.07721
1273.39	0.05302
1283.04	0.06567
1292.68	0.07408
1302.33	0.06058
1311.98	0.0371
1321.62	0.0177
1331.27	0.00832
1340.92	0.00617
1350.56	0.00578
1360.21	0.00671
1369.86	0.0085
1379.5	0.00956
1389.15	0.00984
1398.79	0.01105
1408.44	0.01633
1418.09	0.02034
1427.73	0.02029
1437.38	0.0233
1447.03	0.02897
1456.67	0.03664
1466.32	0.04123
1475.97	0.03929
1485.61	0.04864
1495.26	0.09904
1504.91	0.11993
1514.55	0.0712
1524.2	0.02691
1533.85	0.01673
1543.49	0.01469
1553.14	0.01588
1562.79	0.01984
1572.43	0.02618
1582.08	0.0312
1591.73	0.03501
1601.37	0.04749
1611.02	0.05512
1620.67	0.0412
1630.31	0.02161
1639.96	0.01131
1649.6	0.00747
1659.25	0.00563
1668.9	0.00455
1678.54	0.00386
1688.19	0.00318
1697.84	0.00279
1707.48	0.00287
1717.13	0.00309
1726.78	0.00326
1736.42	0.00318
1746.07	0.00277
1755.72	0.0022227
1765.36	0.0019993
1775.01	0.0017295
1784.66	0.0016339
1794.3	0.0016418
1803.95	0.0018911
1813.6	0.0022354
1823.24	0.00281
1832.89	0.00313
1842.54	0.00322
1852.18	0.00314
1861.83	0.0033
1871.47	0.00302
1881.12	0.0023215
1890.77	0.0016656
1900.41	0.00153793
1910.06	0.0016692
1919.71	0.0017753
1929.35	0.0016245
1939	0.0017365
1948.65	0.0022225
1958.29	0.0026
1967.94	0.00269
1977.59	0.0023052
1987.23	0.0020706
1996.88	0.0021619
2006.53	0.0022818
2016.17	0.0021304
2025.82	0.0020162
2035.47	0.002155
2045.11	0.0021319
2054.76	0.0019785
2064.41	0.0019059
2074.05	0.0020104
2083.7	0.0020944
2093.35	0.0021562
2102.99	0.002002
2112.64	0.0018239
2122.28	0.0015978
2131.93	0.0014334
2141.58	0.001358
2151.22	0.0014346
2160.87	0.00159663
2170.52	0.001868
2180.16	0.0017865
2189.81	0.00159527
2199.46	0.0016211
2209.1	0.0016754
2218.75	0.00151734
2228.4	0.001238
2238.04	0.001112
2247.69	0.000987
2257.34	0.000897
2266.98	0.00092
2276.63	0.000954
2286.28	0.001071
2295.92	0.001184
2305.57	0.001263
2315.22	0.001351
2324.86	0.001255
2334.51	0.001135
2344.16	0.001012
2353.8	0.000908
2363.45	0.000919
2373.09	0.000931
2382.74	0.000967
2392.39	0.000968
2402.03	0.001137
2411.68	0.001197
2421.33	0.001244
2430.97	0.001291
2440.62	0.001281
2450.27	0.001338
2459.91	0.001354
2469.56	0.001269
2479.21	0.001212
2488.85	0.001256
2498.5	0.001238
2508.15	0.001168
2517.79	0.001269
2527.44	0.001319
2537.09	0.0014984
2546.73	0.00159478
2556.38	0.001487
2566.03	0.001347
2575.67	0.001203
2585.32	0.001141
2594.96	0.001081
2604.61	0.001029
2614.26	0.000943
2623.9	0.000926
2633.55	0.000867
2643.2	0.000933
2652.84	0.000906
2662.49	0.000829
2672.14	0.000721
2681.78	0.000865
2691.43	0.001051
2701.08	0.001075
2710.72	0.001373
2720.37	0.00161727
2730.02	0.0022051
2739.66	0.00303
2749.31	0.00282
2758.96	0.0023969
2768.6	0.00263
2778.25	0.00301
2787.9	0.00346
2797.54	0.00447
2807.19	0.00587
2816.84	0.00839
2826.48	0.01415
2836.13	0.02471
2845.77	0.02908
2855.42	0.02618
2865.07	0.02858
2874.71	0.03411
2884.36	0.03493
2894.01	0.03432
2903.65	0.03804
2913.3	0.04685
2922.95	0.05949
2932.59	0.07539
2942.24	0.08014
2951.89	0.06944
2961.53	0.05441
2971.18	0.04494
2980.83	0.03922
2990.47	0.03806
3000.12	0.04426
3009.77	0.04231
3019.41	0.0353
3029.06	0.03264
3038.71	0.0251
3048.35	0.0178
3058	0.01691
3067.64	0.01716
3077.29	0.01542
3086.94	0.0122
3096.58	0.00901
3106.23	0.00654
3115.88	0.00532
3125.52	0.0042
3135.17	0.00329
3144.82	0.0018919
3154.46	0.0014283
3164.11	0.001395
3173.76	0.000742
3183.4	0.000651
3193.05	0.000629
3202.7	0.0005
3212.34	0.0004
3221.99	0.00027
3231.64	0.00015
3241.28	0.0002
3250.93	8e-05
3260.58	0.0002
3270.22	0
3279.87	0.00026
3289.52	0.00037
3299.16	0.00038
3308.81	0.00023
3318.45	0.00013
3328.1	0.00039
3337.75	0.00031
3347.39	0.00034
3357.04	0.00031
3366.69	0.00038
3376.33	0.00043
3385.98	0.00038
3395.63	0.00039
3405.27	0.00049
3414.92	0.00051
3424.57	0.00033
3434.21	0.00034
3443.86	0.0004
3453.51	0.00046
3463.15	0.00046
3472.8	0.0005
3482.45	0.000626
3492.09	0.000639
3501.74	0.000567
3511.39	0.00047
3521.03	0.000666
3530.68	0.00045
3540.33	0.000794
3549.97	0.000579
3559.62	0.000573
3569.26	0.000555
3578.91	0.000643
3588.56	0.00045
3598.2	0.00046
3607.85	0.000525
3617.5	0.00048
3627.14	0.00049
3636.79	0.00038
3646.44	0.0004
3656.08	0.000523
3665.73	0.000579
3675.38	0.00073
3685.02	0.000547
3694.67	0.000559
3704.32	0.000613
3713.96	0.0006
3723.61	0.000757
3733.26	0.000753
3742.9	0.000772
3752.55	0.000722
3762.2	0.000661
3771.84	0.000851
3781.49	0.00064
3791.13	0.000647
3800.78	0.000631
3810.43	0.000643
3820.07	0.00058
3829.72	0.000625
3839.37	0.000665
3849.01	0.000703
3858.66	0.000611
3868.31	0.000724
3877.95	0.000816
3887.6	0.000862
3897.25	0.00083
3906.89	0.000798
3916.54	0.00086
3926.19	0.000852
3935.83	0.000809
3945.48	0.000921
3955.13	0.001018
3964.77	0.000916
3974.42	0.001009
3984.07	0.000938
3993.71	0.000972
