Infrared Spectrum: DOXYLAMINE
Formula: C17 H22 N2 O
CAS: 469-21-6
State: SOLUTION (CS2 FOR 2-15 microns, AND C2Cl4 FOR 5-7.5 microns)
Boiling point: 137-141 C AT 0.5 mmHg
Class: COBLENTZ III
Instrument: PERKIN-ELMER 21 (GRATING)
Instrument parameters: FILTER AT ABOUT 10 MICRONS
Sampling: TRANSMISSION
Path length: 0.1 CM
Resolution: 2
1/CM	TRANSMITTANCE
4000	0.9496
3991	0.9494
3982	0.9493
3973	0.9495
3964	0.95
3955	0.9504
3946	0.9508
3937	0.9516
3928	0.9525
3919	0.9534
3910	0.9546
3901	0.9557
3892	0.957
3883	0.9581
3874	0.9592
3865	0.9601
3856	0.9611
3847	0.9613
3838	0.9616
3829	0.9618
3820	0.9621
3811	0.9623
3802	0.9621
3793	0.962
3784	0.9618
3775	0.9616
3766	0.9614
3757	0.9612
3748	0.9609
3739	0.9607
3730	0.9604
3721	0.9602
3712	0.96
3703	0.96
3694	0.96
3685	0.9599
3676	0.9599
3667	0.9601
3658	0.9603
3649	0.9606
3640	0.9608
3631	0.9612
3622	0.9615
3613	0.9618
3604	0.963
3595	0.9642
3586	0.9654
3577	0.9663
3568	0.9671
3559	0.9681
3550	0.9689
3541	0.9697
3532	0.9703
3523	0.9708
3514	0.9713
3505	0.9705
3496	0.9693
3487	0.9682
3478	0.967
3469	0.9662
3460	0.9655
3451	0.9648
3442	0.964
3433	0.9634
3424	0.9628
3415	0.9625
3406	0.9621
3397	0.9617
3388	0.9614
3379	0.9611
3370	0.9609
3361	0.9607
3352	0.9605
3343	0.9603
3334	0.96
3325	0.9597
3316	0.9594
3307	0.9591
3298	0.9587
3289	0.9584
3280	0.9581
3271	0.9578
3262	0.9575
3253	0.9573
3244	0.957
3235	0.9568
3226	0.9561
3217	0.9549
3208	0.9528
3199	0.9494
3190	0.9468
3181	0.9451
3172	0.9428
3163	0.9406
3154	0.9383
3145	0.9367
3136	0.9349
3127	0.9323
3118	0.9301
3109	0.923
3100	0.873
3091	0.7987
3082	0.7239
3073	0.6487
3064	0.634
3055	0.6428
3046	0.6715
3037	0.7004
3028	0.7139
3019	0.7139
3010	0.6732
3001	0.6121
2992	0.5505
2983	0.4886
2974	0.4485
2965	0.4504
2956	0.4446
2947	0.3873
2938	0.3491
2929	0.3697
2920	0.4179
2911	0.4662
2902	0.515
2893	0.5615
2884	0.5601
2875	0.5385
2866	0.5215
2857	0.5415
2848	0.5846
2839	0.6188
2830	0.6068
2821	0.5412
2812	0.476
2803	0.4686
2794	0.485
2785	0.4978
2776	0.4386
2767	0.3723
2758	0.4395
2749	0.5517
2740	0.6645
2731	0.7292
2722	0.7412
2713	0.7525
2704	0.7903
2695	0.8412
2686	0.8753
2677	0.8949
2668	0.9071
2659	0.9165
2650	0.9198
2641	0.9215
2632	0.925
2623	0.9306
2614	0.9353
2605	0.9396
2596	0.9424
2587	0.9449
2578	0.9471
2569	0.9492
2560	0.951
2551	0.9521
2542	0.9532
2533	0.9539
2524	0.9539
2515	0.9538
2506	0.9538
2497	0.9541
2488	0.9544
2479	0.9548
2470	0.9553
2461	0.955
2452	0.9546
2443	0.9554
2434	0.9583
2425	0.9591
2416	0.9593
2407	0.9595
2398	0.9603
2389	0.9613
2380	0.9623
2371	0.9639
2362	0.9656
2353	0.9673
2344	0.9692
2335	0.9714
2326	0.9734
2317	0.9752
2308	0.9768
2299	0.9782
2290	0.9793
2281	0.9803
2272	0.9811
2263	0.9798
2254	0.975
2245	0.9716
2236	0.9698
2227	0.9693
2218	0.9698
2209	0.9713
2200	0.9733
2191	0.9756
2182	0.9777
2173	0.9796
2164	0.9784
2155	0.9792
2146	0.9801
2137	0.9811
2128	0.9816
2119	0.982
2110	0.982
2101	0.9758
2092	0.9707
2083	0.9671
2074	0.964
2065	0.9616
2056	0.9593
2047	0.9534
2038	0.9496
2029	0.9535
2020	0.9581
2011	0.9589
2002	0.9578
1993	0.9552
1984	0.9509
1975	0.9393
1966	0.939
1957	0.9233
1948	0.8973
1939	0.9051
1930	0.9387
1921	0.9492
1912	0.9437
1903	0.9441
1894	0.9433
1885	0.9266
1876	0.9244
1867	0.9395
1858	0.9544
1849	0.9455
1840	0.9459
1831	0.9542
1822	0.9521
1813	0.9387
1804	0.9325
1795	0.9425
1786	0.9536
1777	0.9561
1768	0.9554
1759	0.9541
1750	0.9544
1741	0.9574
1732	0.9621
1723	0.9675
1714	0.9681
1705	0.9638
1696	0.9613
1687	0.9573
1678	0.9518
1669	0.9514
1660	0.9544
1651	0.9603
1642	0.9612
1633	0.9586
1624	0.9467
1615	0.9184
1606	0.825
1597	0.5622
1588	0.5062
1579	0.7367
1570	0.7641
1561	0.8813
1552	0.9363
1543	0.9421
1534	0.9546
1525	0.9783
1516	0.999
1507	0.9186
1498	0.6181
1489	0.7665
1480	0.6586
1471	0.3389
1462	0.455
1453	0.4925
1444	0.5439
1435	0.4915
1426	0.7822
1417	0.8859
1408	0.8754
1399	0.9018
1390	0.9047
1381	0.8841
1372	0.6284
1363	0.6662
1354	0.868
1345	0.8859
1336	0.8414
1327	0.8536
1318	0.8623
1309	0.7828
1300	0.7665
1291	0.7128
1282	0.715
1273	0.7098
1264	0.7031
1255	0.7278
1246	0.7091
1237	0.6906
1228	0.628
1219	0.6419
1210	0.7045
1201	0.7948
1192	0.741
1183	0.7518
1174	0.7948
1165	0.731
1156	0.5487
1147	0.4883
1138	0.3593
1129	0.2949
1120	0.4846
1111	0.5068
1102	0.4059
1093	0.2926
1084	0.3854
1075	0.4058
1066	0.4353
1057	0.419
1048	0.2849
1039	0.3699
1030	0.4324
1021	0.7478
1012	0.8562
1003	0.8738
994	0.6315
985	0.8797
976	0.8691
967	0.7401
958	0.6505
949	0.8184
940	0.8344
931	0.8928
922	0.873
913	0.7928
904	0.8656
895	0.9009
886	0.8944
877	0.9327
868	0.9243
859	0.8858
850	0.8172
841	0.8014
832	0.8997
823	0.9127
814	0.9061
805	0.8925
796	0.8347
787	0.4438
778	0.6722
769	0.8338
760	0.5651
751	0.3812
742	0.6687
733	0.9049
724	0.903
715	0.8678
706	0.7714
697	0.1164
688	0.8043
679	0.9152
670	0.941
