Infrared Spectrum: Acetoacetamide, N-(2-benzothiazolyl)-
Formula: C11 H10 N2 O2 S
CAS: 4692-94-8
State: SOLID (SPLIT MULL), FLUOROLUBE FOR 3800-1330 CM^-^1, NUJOL FOR 1330-400 CM^-^1
Class: COBLENTZ III
Instrument: DOW KBr FOREPRISM-GRATING
Instrument parameters: BLAZED AT 3.5, 12.0, 20.0 MICRON AND CHANGED AT 5.0, 7.5, 14.9 MICRON
Sampling: TRANSMISSION
Resolution: 2
Origin: DOW CHEMICAL COMPANY
1/CM	TRANSMITTANCE
3794	0.5606
3785	0.5615
3776	0.5626
3767	0.5636
3758	0.5647
3749	0.5658
3740	0.567
3731	0.5681
3722	0.5693
3713	0.5705
3704	0.5718
3695	0.573
3686	0.5742
3677	0.5754
3668	0.5773
3659	0.5792
3650	0.581
3641	0.5829
3632	0.5848
3623	0.5864
3614	0.588
3605	0.5896
3596	0.5912
3587	0.5928
3578	0.5944
3569	0.596
3560	0.5979
3551	0.5998
3542	0.6018
3533	0.6037
3524	0.6056
3515	0.6078
3506	0.6101
3497	0.6124
3488	0.6147
3479	0.6171
3470	0.6196
3461	0.6212
3452	0.6222
3443	0.6224
3434	0.6224
3425	0.6239
3416	0.6254
3407	0.6269
3398	0.6298
3389	0.6329
3380	0.636
3371	0.6394
3362	0.6428
3353	0.6462
3344	0.6496
3335	0.6522
3326	0.6549
3317	0.6572
3308	0.6594
3299	0.6599
3290	0.6571
3281	0.6518
3272	0.6457
3263	0.6373
3254	0.629
3245	0.6009
3236	0.5788
3227	0.5708
3218	0.5639
3209	0.554
3200	0.5327
3191	0.4629
3182	0.4306
3173	0.4265
3164	0.4553
3155	0.4824
3146	0.483
3137	0.4753
3128	0.4826
3119	0.5107
3110	0.5379
3101	0.5457
3092	0.5399
3083	0.4956
3074	0.449
3065	0.4159
3056	0.4162
3047	0.454
3038	0.4898
3029	0.4962
3020	0.4282
3011	0.3784
3002	0.3534
2993	0.353
2984	0.3697
2975	0.3773
2966	0.4066
2957	0.4145
2948	0.421
2939	0.4601
2930	0.4724
2921	0.4759
2912	0.4726
2903	0.4956
2894	0.515
2885	0.521
2876	0.5155
2867	0.5105
2858	0.504
2849	0.5107
2840	0.5317
2831	0.5537
2822	0.5658
2813	0.5746
2804	0.5738
2795	0.5733
2786	0.5832
2777	0.592
2768	0.6004
2759	0.6101
2750	0.6187
2741	0.6271
2732	0.6304
2723	0.6266
2714	0.6272
2705	0.6339
2696	0.6432
2687	0.6512
2678	0.6581
2669	0.6617
2660	0.6656
2651	0.6694
2642	0.674
2633	0.6789
2624	0.6842
2615	0.6895
2606	0.6938
2597	0.6974
2588	0.7007
2579	0.7037
2570	0.7044
2561	0.7039
2552	0.7065
2543	0.7101
2534	0.7142
2525	0.7182
2516	0.7212
2507	0.7197
2498	0.7195
2489	0.7219
2480	0.7242
2471	0.7261
2462	0.7276
2453	0.7291
2444	0.7311
2435	0.7331
2426	0.7351
2417	0.7375
2408	0.7399
2399	0.7421
2390	0.7439
2381	0.7441
2372	0.7433
2363	0.7418
2354	0.7405
2345	0.7396
2336	0.739
2327	0.7395
2318	0.7411
2309	0.7465
2300	0.7528
2291	0.7544
2282	0.7582
2273	0.7621
2264	0.7656
2255	0.769
2246	0.7728
2237	0.7792
2228	0.7838
2219	0.7868
2210	0.7897
2201	0.7914
2192	0.7931
2183	0.7948
2174	0.7965
2165	0.7983
2156	0.801
2147	0.8037
2138	0.8062
2129	0.8092
2120	0.8121
2111	0.8151
2102	0.8181
2093	0.8211
2084	0.824
2075	0.8265
2066	0.8292
2057	0.832
2048	0.8352
2039	0.8386
2030	0.8427
2021	0.8458
2012	0.8478
2003	0.8302
1994	0.8441
1985	0.8499
1976	0.8537
1967	0.8575
1958	0.8583
1949	0.8549
1940	0.8636
1931	0.8666
1922	0.8586
1913	0.8541
1904	0.8678
1895	0.8768
1886	0.8803
1877	0.8836
1868	0.8878
1859	0.8911
1850	0.8944
1841	0.896
1832	0.8875
1823	0.8951
1814	0.8968
1805	0.8806
1796	0.8988
1787	0.9097
1778	0.9174
1769	0.9183
1760	0.9132
1751	0.8998
1742	0.8783
1733	0.8069
1724	0.3012
1715	0.3912
1706	0.5295
1697	0.6047
1688	0.6073
1679	0.4264
1670	0.2625
1661	0.2195
1652	0.4034
1643	0.5424
1634	0.5871
1625	0.6158
1616	0.6224
1607	0.3832
1598	0.4032
1589	0.4702
1580	0.4227
1571	0.2438
1562	0.1355
1553	0.1776
1544	0.2664
1535	0.3516
1526	0.405
1517	0.4428
1508	0.4779
1499	0.5336
1490	0.5443
1481	0.5662
1472	0.6066
1463	0.6195
1454	0.5752
1445	0.2234
1436	0.5117
1427	0.3094
1418	0.4917
1409	0.5504
1400	0.5704
1391	0.5925
1382	0.6017
1373	0.5643
1364	0.4047
1355	0.3918
1346	0.453
1337	0.4818
1328	0.1775
1319	0.3429
1310	0.4415
1301	0.3964
1292	0.5888
1283	0.4646
1274	0.6194
1265	0.6345
1256	0.5241
1247	0.531
1238	0.6595
1229	0.621
1220	0.7111
1211	0.7149
1202	0.7348
1193	0.738
1184	0.7186
1175	0.36
1166	0.4785
1157	0.3702
1148	0.6453
1139	0.7219
1130	0.7036
1121	0.748
1112	0.7646
1103	0.7674
1094	0.7701
1085	0.7733
1076	0.7612
1067	0.7782
1058	0.7832
1049	0.7853
1040	0.7857
1031	0.7845
1022	0.6865
1013	0.6837
1004	0.7755
995	0.7808
986	0.7683
977	0.7489
968	0.7795
959	0.7961
950	0.7968
941	0.761
932	0.8038
923	0.8149
914	0.8205
905	0.8225
896	0.8212
887	0.8012
878	0.7626
869	0.6587
860	0.7689
851	0.7892
842	0.7955
833	0.809
824	0.8026
815	0.7906
806	0.709
797	0.618
788	0.584
779	0.6405
770	0.5449
761	0.1739
752	0.7391
743	0.7804
734	0.5071
725	0.7591
716	0.815
707	0.8371
698	0.8568
689	0.819
680	0.6818
671	0.806
662	0.8668
653	0.873
644	0.8755
635	0.877
626	0.8491
617	0.8589
608	0.8639
599	0.851
590	0.8638
581	0.8583
572	0.8545
563	0.8445
554	0.8278
545	0.8176
536	0.6749
527	0.8171
518	0.7011
509	0.7222
500	0.8174
491	0.8256
482	0.8244
473	0.8121
464	0.8036
455	0.8015
446	0.7934
437	0.6451
428	0.7572
419	0.7585
410	0.7426
401	0.7336
392	0.72
