Infrared Spectrum: 2,4,4-Trimethylcyclopentanone
Formula: C 8 H 14 O
CAS: 4694-12-6
State: gas
Instrument: HP-GC/MS/IRD
Origin: NIST Mass Spectrometry Data Center
1/CM	ABSORBANCE
550	0.0003706
562	0.0004148
574	0.0002686
586	0.0002448
598	0.0002652
610	0.0002482
622	0.0002108
634	0.0001292
646	5.78e-05
658	0.0001088
670	2.38e-05
682	4.76e-05
694	0.0001428
706	0.0002516
718	0.0005372
730	0.0006766
742	0.0004692
754	0.000238
766	0.000102
778	0.0001496
790	0.000153
802	6.46e-05
814	0.0001156
826	8.84e-05
838	0.0001428
850	0.0002822
862	0.0004964
874	0.0006562
886	0.0006868
898	0.0008228
910	0.0007072
922	0.000476
934	0.000391
946	0.0006086
958	0.000748
970	0.0005304
982	0.0004386
994	0.0004794
1006	0.00068
1018	0.0009214
1030	0.0008568
1042	0.0008568
1054	0.0009078
1066	0.0011492
1078	0.0013498
1090	0.0012512
1102	0.00153
1114	0.0022576
1126	0.0030906
1138	0.0035496
1150	0.0030872
1162	0.0024786
1174	0.0027778
1186	0.0030634
1198	0.0019652
1210	0.001088
1222	0.0011764
1234	0.0015436
1246	0.001904
1258	0.0020706
1270	0.0016932
1282	0.001955
1294	0.0026214
1306	0.0017272
1318	0.000918
1330	0.0006324
1342	0.0005644
1354	0.001003
1366	0.0022712
1378	0.0034272
1390	0.0029682
1402	0.0021828
1414	0.0021794
1426	0.0017952
1438	0.0017578
1450	0.003009
1462	0.0041242
1474	0.0031858
1486	0.0015028
1498	0.0006256
1510	0.0003842
1522	0.0002992
1534	0.0002244
1546	0.0001768
1558	0.0001802
1570	0.0001768
1582	0.0001972
1594	0.0002346
1606	0.0002652
1618	0.0002516
1630	0.0002958
1642	0.000323
1654	0.0003604
1666	0.0004624
1678	0.000629
1690	0.0009758
1702	0.0015334
1714	0.0023494
1726	0.0041616
1738	0.0112302
1750	0.0286144
1762	0.0324938
1774	0.0127976
1786	0.0031756
1798	0.001649
1810	0.0011662
1822	0.0007888
1834	0.0005066
1846	0.0003706
1858	0.0002822
1870	0.0002346
1882	0.000221
1894	0.0001768
1906	0.0001394
1918	0.000136
1930	0.000102
1942	8.84e-05
1954	0.0001054
1966	0.0001054
1978	0.0001394
1990	0.0001088
2002	0.0001292
2014	0.0001088
2026	0.000119
2038	0.0001054
2050	8.16e-05
2062	9.18e-05
2074	3.74e-05
2086	6.12e-05
2098	6.8e-05
2110	6.12e-05
2122	3.74e-05
2134	4.08e-05
2146	5.78e-05
2158	7.14e-05
2170	7.82e-05
2182	4.76e-05
2194	3.74e-05
2206	4.42e-05
2218	4.08e-05
2230	4.76e-05
2242	3.06e-05
2254	2.38e-05
2266	4.08e-05
2278	5.1e-05
2290	7.14e-05
2302	5.78e-05
2314	7.48e-05
2326	7.48e-05
2338	6.8e-05
2350	8.16e-05
2362	9.52e-05
2374	8.16e-05
2386	7.82e-05
2398	0.000102
2410	7.48e-05
2422	6.8e-05
2434	4.08e-05
2446	5.44e-05
2458	5.78e-05
2470	5.1e-05
2482	5.44e-05
2494	4.42e-05
2506	4.76e-05
2518	2.38e-05
2530	4.08e-05
2542	5.44e-05
2554	6.46e-05
2566	6.8e-05
2578	5.44e-05
2590	8.5e-05
2602	0.000102
2614	0.0001088
2626	0.0001156
2638	9.86e-05
2650	0.0001394
2662	0.0001428
2674	0.0001292
2686	0.0001428
2698	0.0001632
2710	0.0002074
2722	0.000306
2734	0.000442
2746	0.0004726
2758	0.0003706
2770	0.0003978
2782	0.0004284
2794	0.0004896
2806	0.0006664
2818	0.000884
2830	0.0011934
2842	0.0018428
2854	0.003519
2866	0.0065144
2878	0.009265
2890	0.0095574
2902	0.008925
2914	0.009163
2926	0.0118728
2938	0.0163812
2950	0.0214744
2962	0.0274618
2974	0.0198186
2986	0.007633
2998	0.002805
3010	0.0012648
3022	0.0008874
3034	0.0006052
3046	0.00051
3058	0.0004726
3070	0.0004318
3082	0.0004386
3094	0.000408
3106	0.0003876
3118	0.000357
3130	0.00034
3142	0.0003366
3154	0.0003502
3166	0.000374
3178	0.000374
3190	0.0003502
3202	0.000289
3214	0.000238
3226	0.000204
3238	0.0001836
3250	0.0001394
3262	0.0001598
3274	0.0001054
3286	0.000136
3298	0.0001666
3310	0.0001462
3322	9.18e-05
3334	8.5e-05
3346	8.84e-05
3358	0.0001224
3370	7.82e-05
3382	7.14e-05
3394	3.4e-05
3406	6.12e-05
3418	9.86e-05
3430	8.5e-05
3442	0.0001394
3454	0.0001054
3466	0.0002312
3478	0.0004522
3490	0.0006392
3502	0.000646
3514	0.0004046
3526	0.0002176
3538	0.0001462
3550	9.18e-05
3562	0.0001122
3574	2.04e-05
3586	2.04e-05
3598	0
3610	8.16e-05
3622	5.78e-05
3634	5.78e-05
3646	5.44e-05
3658	5.78e-05
3670	4.08e-05
3682	4.76e-05
3694	8.84e-05
3706	3.74e-05
3718	6.46e-05
3730	9.18e-05
3742	4.76e-05
3754	0.0001088
3766	9.86e-05
3778	2.38e-05
3790	9.18e-05
3802	0.000119
3814	0.0001326
3826	0.0001224
3838	0.0001224
