Infrared Spectrum: d-FENCHONE
Formula: C10 H16 O
CAS: 4695-62-9
State: VAPOR (13 MICROLITER AT 150 C)
Boiling point: 193 C
Class: COBLENTZ
Instrument: PERKIN-ELMER 180
Sampling: TRANSMISSION
Path length: 5 CM KBr CELL, CELL VOLUME: 80 CM^3
Resolution: 2-3 CM^-^1
Origin: PERKIN-ELMER CORP. (M. ZELLER)
1/CM	TRANSMITTANCE
406.774	0.481
416.258	0.552
425.741	0.621
435.225	0.677
444.708	0.732
454.192	0.779
463.675	0.818
473.159	0.848
482.642	0.875
492.126	0.887
501.609	0.887
511.093	0.853
520.576	0.855
530.06	0.879
539.543	0.906
549.027	0.916
558.511	0.925
567.994	0.929
577.478	0.933
586.961	0.932
596.445	0.935
605.928	0.937
615.412	0.941
624.895	0.941
634.379	0.941
643.862	0.933
653.346	0.925
662.829	0.925
672.313	0.925
681.796	0.941
691.28	0.94
700.764	0.936
710.247	0.929
719.731	0.926
729.214	0.922
738.698	0.922
748.181	0.918
757.665	0.921
767.148	0.926
776.632	0.925
786.115	0.922
795.599	0.922
805.082	0.914
814.566	0.899
824.049	0.879
833.533	0.868
843.017	0.889
852.5	0.917
861.984	0.928
871.467	0.933
880.951	0.93
890.434	0.926
899.918	0.929
909.401	0.928
918.885	0.884
928.368	0.83
937.852	0.81
947.335	0.83
956.819	0.844
966.302	0.883
975.786	0.901
985.27	0.852
994.753	0.809
1004.24	0.746
1013.72	0.652
1023.2	0.653
1032.69	0.761
1042.17	0.828
1051.65	0.856
1061.14	0.876
1070.62	0.884
1080.1	0.882
1089.59	0.871
1099.07	0.851
1108.56	0.853
1118.04	0.876
1127.52	0.887
1137.01	0.894
1146.49	0.883
1155.97	0.872
1165.46	0.867
1174.94	0.883
1184.42	0.891
1193.91	0.88
1203.39	0.872
1212.87	0.872
1222.36	0.871
1231.84	0.871
1241.32	0.866
1250.81	0.871
1260.29	0.859
1269.78	0.855
1279.26	0.851
1288.74	0.832
1298.23	0.845
1307.71	0.853
1317.19	0.841
1326.68	0.843
1336.16	0.849
1345.64	0.86
1355.13	0.838
1364.61	0.7801
1374.09	0.728
1383.58	0.649
1393.06	0.6979
1402.54	0.81
1412.03	0.851
1421.51	0.833
1431	0.828
1440.48	0.795
1449.96	0.7139
1459.45	0.635
1468.93	0.642
1478.41	0.7
1487.9	0.752
1497.38	0.811
1506.86	0.86
1516.35	0.871
1525.83	0.875
1535.31	0.875
1544.8	0.871
1554.28	0.868
1563.77	0.871
1573.25	0.867
1582.73	0.872
1592.22	0.867
1601.7	0.861
1611.18	0.864
1620.67	0.864
1630.15	0.87
1639.63	0.874
1649.12	0.866
1658.6	0.871
1668.08	0.864
1677.57	0.863
1687.05	0.864
1696.53	0.838
1706.02	0.82
1715.5	0.788
1724.99	0.692
1734.47	0.4577
1743.95	0.154
1753.44	0.117
1762.92	0.2801
1772.4	0.5799
1781.89	0.763
1791.37	0.833
1800.85	0.855
1810.34	0.87
1819.82	0.872
1829.3	0.875
1838.79	0.874
1848.27	0.876
1857.75	0.887
1867.24	0.893
1876.72	0.889
1886.21	0.894
1895.69	0.886
1905.17	0.889
1914.66	0.894
1924.14	0.89
1933.62	0.889
1943.11	0.89
1952.59	0.891
1962.07	0.887
1971.56	0.89
1981.04	0.887
1990.52	0.886
2000.01	0.887
2009.49	0.8795
2018.97	0.876
2028.46	0.875
2037.94	0.879
2047.43	0.876
2056.91	0.878
2066.39	0.878
2075.88	0.876
2085.36	0.875
2094.84	0.876
2104.33	0.875
2113.81	0.875
2123.29	0.874
2132.78	0.874
2142.26	0.872
2151.74	0.874
2161.23	0.871
2170.71	0.8705
2180.19	0.868
2189.68	0.87
2199.16	0.871
2208.65	0.871
2218.13	0.8709
2227.61	0.868
2237.1	0.868
2246.58	0.8673
2256.06	0.8655
2265.55	0.864
2275.03	0.864
2284.51	0.8632
2294	0.8596
2303.48	0.856
2312.96	0.8526
2322.45	0.8491
2331.93	0.847
2341.41	0.849
2350.9	0.8489
2360.38	0.841
2369.87	0.8453
2379.35	0.8532
2388.83	0.857
2398.32	0.8568
2407.8	0.855
2417.28	0.853
2426.77	0.853
2436.25	0.8527
2445.73	0.852
2455.22	0.8517
2464.7	0.848
2474.18	0.851
2483.67	0.8481
2493.15	0.847
2502.63	0.8509
2512.12	0.849
2521.6	0.844
2531.09	0.8476
2540.57	0.848
2550.05	0.8484
2559.54	0.847
2569.02	0.8457
2578.5	0.844
2587.99	0.841
2597.47	0.84
2606.95	0.843
2616.44	0.841
2625.92	0.8402
2635.4	0.838
2644.89	0.837
2654.37	0.8374
2663.85	0.838
2673.34	0.8375
2682.82	0.836
2692.31	0.8325
2701.79	0.8289
2711.27	0.8268
2720.76	0.8249
2730.24	0.8204
2739.72	0.8153
2749.21	0.8194
2758.69	0.818
2768.17	0.817
2777.66	0.815
2787.14	0.813
2796.62	0.808
2806.11	0.805
2815.59	0.8008
2825.07	0.7911
2834.56	0.7817
2844.04	0.7611
2853.53	0.696
2863.01	0.4939
2872.49	0.3763
2881.98	0.3783
2891.46	0.4236
2900.94	0.4601
2910.43	0.427
2919.91	0.2889
2929.39	0.1964
2938.88	0.1395
2948.36	0.0997
2957.84	0.0764
2967.33	0.1156
2976.81	0.2464
2986.3	0.495
2995.78	0.6533
3005.26	0.7615
3014.75	0.7685
3024.23	0.778
3033.71	0.782
3043.2	0.7799
3052.68	0.7786
3062.16	0.7829
3071.65	0.7794
3081.13	0.7805
3090.61	0.7833
3100.1	0.7788
3109.58	0.7798
3119.06	0.78
3128.55	0.7782
3138.03	0.7757
3147.52	0.778
3157	0.7752
3166.48	0.7749
3175.97	0.7754
3185.45	0.783
3194.93	0.785
3204.42	0.79
3213.9	0.79
3223.38	0.7869
3232.87	0.7866
3242.35	0.788
3251.83	0.79
3261.32	0.787
3270.8	0.79
3280.28	0.79
3289.77	0.7904
3299.25	0.7907
3308.74	0.788
3318.22	0.787
3327.7	0.7831
3337.19	0.7864
3346.67	0.788
3356.15	0.788
3365.64	0.788
3375.12	0.7875
3384.6	0.787
3394.09	0.7864
3403.57	0.782
3413.05	0.7807
3422.54	0.784
3432.02	0.783
3441.5	0.7822
3450.99	0.7807
3460.47	0.7754
3469.96	0.7682
3479.44	0.7586
3488.92	0.755
3498.41	0.7586
3507.89	0.7709
3517.37	0.7745
3526.86	0.7721
3536.34	0.7745
3545.82	0.778
3555.31	0.7769
3564.79	0.772
3574.27	0.771
3583.76	0.7723
3593.24	0.774
3602.72	0.7688
3612.21	0.7665
3621.69	0.7655
3631.18	0.7718
3640.66	0.7697
3650.14	0.765
3659.63	0.7684
3669.11	0.7649
3678.59	0.769
3688.08	0.768
3697.56	0.769
3707.04	0.761
3716.53	0.765
3726.01	0.764
3735.49	0.7622
3744.98	0.757
3754.46	0.764
3763.94	0.76
3773.43	0.7579
3782.91	0.7545
3792.4	0.7528
3801.88	0.7579
3811.36	0.7574
3820.85	0.7543
3830.33	0.7521
3839.81	0.752
3849.3	0.752
3858.78	0.749
3868.26	0.749
3877.75	0.749
3887.23	0.748
3896.71	0.748
3906.2	0.748
3915.68	0.748
3925.16	0.749
3934.65	0.746
3944.13	0.745
3953.62	0.745
3963.1	0.745
3972.58	0.745
3982.07	0.7447
