Infrared Spectrum: 2-Bromo-4,5-dimethoxyphenylacetic acid
Formula: C 10 H 11 Br O 4
CAS: 4697-62-5
State: gas
Origin: EPA-IR VAPOR PHASE LIBRARY
1/CM	ABSORBANCE
549.8	0.004834
559.445	0.005314
569.09	0.008304
578.734	0.010934
588.379	0.013564
598.024	0.013424
607.669	0.009764
617.313	0.007514
626.958	0.006524
636.603	0.006744
646.248	0.006604
655.893	0.006224
665.537	0.005074
675.182	0.004614
684.827	0.004644
694.472	0.003534
704.116	0.002134
713.761	0.001574
723.406	0.001584
733.051	0.001624
742.695	0.001864
752.34	0.002444
761.985	0.002744
771.63	0.001644
781.275	0.001804
790.919	0.003204
800.564	0.006324
810.209	0.006444
819.854	0.003834
829.498	0.003074
839.143	0.004184
848.788	0.004364
858.433	0.004344
868.078	0.003904
877.722	0.004354
887.367	0.003464
897.012	0.002654
906.657	0.002164
916.301	0.002154
925.946	0.002864
935.591	0.003794
945.236	0.004894
954.88	0.006464
964.525	0.005934
974.17	0.004164
983.815	0.003304
993.46	0.004184
1003.1	0.006764
1012.75	0.012114
1022.39	0.018594
1032.04	0.017744
1041.68	0.014274
1051.33	0.008974
1060.97	0.006024
1070.62	0.006684
1080.26	0.009134
1089.91	0.013224
1099.55	0.023764
1109.2	0.044214
1118.84	0.046214
1128.49	0.026254
1138.13	0.021734
1147.78	0.025824
1157.42	0.030634
1167.07	0.024424
1176.71	0.017644
1186.36	0.016624
1196	0.018124
1205.64	0.022984
1215.29	0.028484
1224.93	0.025024
1234.58	0.017214
1244.22	0.015984
1253.87	0.021404
1263.51	0.027364
1273.16	0.029294
1282.8	0.027724
1292.45	0.023844
1302.09	0.020774
1311.74	0.018584
1321.38	0.013974
1331.03	0.010534
1340.67	0.009234
1350.32	0.009374
1359.96	0.011004
1369.61	0.014434
1379.25	0.017364
1388.9	0.011724
1398.54	0.006894
1408.18	0.006014
1417.83	0.006934
1427.47	0.009744
1437.12	0.015544
1446.76	0.015814
1456.41	0.012504
1466.05	0.014494
1475.7	0.016504
1485.34	0.026864
1494.99	0.049694
1504.63	0.047864
1514.28	0.024074
1523.92	0.010804
1533.57	0.006264
1543.21	0.005144
1552.86	0.005564
1562.5	0.006284
1572.15	0.004784
1581.79	0.003644
1591.44	0.004494
1601.08	0.005754
1610.73	0.004324
1620.37	0.002274
1630.01	0.001654
1639.66	0.001384
1649.3	0.001344
1658.95	0.001454
1668.59	0.001574
1678.24	0.001514
1687.88	0.001604
1697.53	0.001854
1707.17	0.002294
1716.82	0.003144
1726.46	0.004594
1736.11	0.007264
1745.75	0.011344
1755.4	0.016444
1765.04	0.024894
1774.69	0.039294
1784.33	0.042914
1793.98	0.025434
1803.62	0.014044
1813.27	0.008254
1822.91	0.004844
1832.55	0.002874
1842.2	0.002014
1851.84	0.001454
1861.49	0.001164
1871.13	0.0010194
1880.78	0.000875
1890.42	0.000828
1900.07	0.000824
1909.71	0.0008865
1919.36	0.0007455
1929	0.000702
1938.65	0.0008038
1948.29	0.0007351
1957.94	0.0008345
1967.58	0.0009177
1977.23	0.001164
1986.87	0.0011173
1996.52	0.0010889
2006.16	0.0010696
2015.81	0.0011309
2025.45	0.001154
2035.1	0.0011333
2044.74	0.0009385
2054.38	0.0010534
2064.03	0.0010281
2073.67	0.0009969
2083.32	0.0009111
2092.96	0.0008516
2102.61	0.0007516
2112.25	0.0006878
2121.9	0.0007575
2131.54	0.0004533
2141.19	0.0003908
2150.83	0.0005386
2160.48	0.0004543
2170.12	0.0005479
2179.77	0.0005721
2189.41	0.000587
2199.06	0.000579
2208.7	0.000533
2218.35	0.0006442
2227.99	0.0006644
2237.64	0.0006055
2247.28	0.0006776
2256.92	0.0006507
2266.57	0.0005341
2276.21	0.0004887
2285.86	0.0005233
2295.5	0.000508
2305.15	0.000649
2314.79	0.0006381
2324.44	0.0006375
2334.08	0.0005501
2343.73	0.0005654
2353.37	0.0005962
2363.02	0.0005341
2372.66	0.0006602
2382.31	0.0004613
2391.95	0.0004115
2401.6	0.0004664
2411.24	0.0005085
2420.89	0.0005003
2430.53	0.0004946
2440.18	0.0004775
2449.82	0.0004795
2459.47	0.0005669
2469.11	0.0004909
2478.75	0.0004701
2488.4	0.000418
2498.04	0.0004418
2507.69	0.0005466
2517.33	0.0004765
2526.98	0.0006944
2536.62	0.0007135
2546.27	0.000622
2555.91	0.0005612
2565.56	0.0008212
2575.2	0.0008574
2584.85	0.0008553
2594.49	0.0007511
2604.14	0.0007463
2613.78	0.0004314
2623.43	0.0004993
2633.07	0.0004848
2642.72	0.0005353
2652.36	0.0005222
2662.01	0.0004089
2671.65	0.0004285
2681.29	0.0002675
2690.94	0.0002933
2700.58	0.0004079
2710.23	0.0004133
2719.87	0.0003794
2729.52	0.0004687
2739.16	0.0004985
2748.81	0.0003605
2758.45	0.0005307
2768.1	0.0006577
2777.74	0.0007049
2787.39	0.000893
2797.03	0.001164
2806.68	0.001494
2816.32	0.002174
2825.97	0.003094
2835.61	0.004824
2845.26	0.008184
2854.9	0.007624
2864.55	0.004594
2874.19	0.003484
2883.84	0.003594
2893.48	0.004194
2903.12	0.005174
2912.77	0.006634
2922.41	0.008044
2932.06	0.010074
2941.7	0.014524
2951.35	0.014364
2960.99	0.011304
2970.64	0.008734
2980.28	0.006574
2989.93	0.006254
2999.57	0.008114
3009.22	0.010464
3018.86	0.006424
3028.51	0.003344
3038.15	0.002484
3047.8	0.002084
3057.44	0.002134
3067.09	0.001884
3076.73	0.001534
3086.38	0.001394
3096.02	0.0011059
3105.67	0.0009975
3115.31	0.0008531
3124.95	0.0007118
3134.6	0.000698
3144.24	0.0005042
3153.89	0.0005146
3163.53	0.0003467
3173.18	0.0004777
3182.82	0.0004411
3192.47	0.000419
3202.11	0.0003357
3211.76	0.0004078
3221.4	0.0004308
3231.05	0.0002574
3240.69	0.000413
3250.34	0.0003116
3259.98	0.00021494
3269.63	8.78e-05
3279.27	0.00023329
3288.92	0.00024061
3298.56	0.0001055
3308.21	0.0004446
3317.85	0.00024217
3327.49	0.0003152
3337.14	0.00019116
3346.78	0.0005907
3356.43	0.00022384
3366.07	0.0004383
3375.72	0.0002949
3385.36	0.00021486
3395.01	0.00016192
3404.65	0.0003723
3414.3	0.0003571
3423.94	0.0002728
3433.59	0.0003082
3443.23	0.0003215
3452.88	0.0003299
3462.52	0.0003098
3472.17	0.0004574
3481.81	0.00016617
3491.46	0.0002841
3501.1	0.000253
3510.75	0.0006585
3520.39	0.0007799
3530.04	0.001184
3539.68	0.001484
3549.32	0.002094
3558.97	0.004394
3568.61	0.015764
3578.26	0.019614
3587.9	0.004884
3597.55	0.001794
3607.19	0.0009059
3616.84	0.0007954
3626.48	0.0005739
3636.13	0.0005378
3645.77	0.0003482
3655.42	0.0004043
3665.06	0.0005158
3674.71	0.0004562
3684.35	0.0002739
3694	0.0003609
3703.64	0.00019353
3713.29	0.0005147
3722.93	0.0003559
3732.58	0.0004289
3742.22	0.0003579
3751.86	0.0002894
3761.51	0.0005103
3771.15	0.00013433
3780.8	0.00023826
3790.44	0.0004149
3800.09	0.0002448
3809.73	0.00046
3819.38	0.0004225
3829.02	0.0003062
3838.67	0.0004301
3848.31	0.0005802
3857.96	0.0002462
3867.6	0.0004755
3877.25	0.00022973
3886.89	0.0002521
3896.54	0.0004325
3906.18	0.0004311
3915.83	0.0003388
3925.47	0.0002735
3935.12	0.0003264
3944.76	0.00017742
3954.41	0.00023355
3964.05	0.0002522
3973.69	0.0006862
3983.34	0.0004833
3992.98	0.0004933
