Infrared Spectrum: CYCLOHEXANECARBOXYLIC ACID, 1,3,4,5-TETRAHYDROXY-
Formula: C7 H12 O6
CAS: 470-63-3
State: SOLID (NUJOL MULL)
Class: COBLENTZ III
Instrument: CARY 90 (GRATING)
Instrument parameters: ORDER CHANGES: 3000, 2000, 1200 CM^-^1
Sampling: TRANSMISSION
Resolution: 2
Origin: WESTERN REGIONAL RES. USDA
1/CM	TRANSMITTANCE
4006	0.9814
3997	0.9774
3988	0.9732
3979	0.9689
3970	0.9645
3961	0.9597
3952	0.9543
3943	0.9491
3934	0.9446
3925	0.9402
3916	0.936
3907	0.932
3898	0.929
3889	0.9274
3880	0.9254
3871	0.9227
3862	0.9198
3853	0.9143
3844	0.9091
3835	0.9042
3826	0.9001
3817	0.8958
3808	0.8912
3799	0.8893
3790	0.8915
3781	0.8942
3772	0.8977
3763	0.9012
3754	0.9038
3745	0.9063
3736	0.9085
3727	0.9104
3718	0.9114
3709	0.9112
3700	0.9096
3691	0.9063
3682	0.9067
3673	0.901
3664	0.8995
3655	0.8993
3646	0.8975
3637	0.8943
3628	0.8913
3619	0.8891
3610	0.8856
3601	0.8761
3592	0.8537
3583	0.8245
3574	0.7882
3565	0.729
3556	0.6581
3547	0.5753
3538	0.3174
3529	0.0738
3520	0.1932
3511	0.1188
3502	0.3687
3493	0.5705
3484	0.6091
3475	0.6178
3466	0.6179
3457	0.6046
3448	0.5818
3439	0.5556
3430	0.5258
3421	0.4598
3412	0.3377
3403	0.1814
3394	0.2052
3385	0.3031
3376	0.3799
3367	0.3614
3358	0.2621
3349	0.1626
3340	0.136
3331	0.2467
3322	0.3574
3313	0.4676
3304	0.5176
3295	0.5474
3286	0.5797
3277	0.6112
3268	0.641
3259	0.6675
3250	0.6884
3241	0.7048
3232	0.7175
3223	0.7253
3214	0.7308
3205	0.7341
3196	0.7351
3187	0.7343
3178	0.7322
3169	0.729
3160	0.7268
3151	0.7261
3142	0.7255
3133	0.725
3124	0.7246
3115	0.7239
3106	0.7225
3097	0.7201
3088	0.7174
3079	0.7133
3070	0.7078
3061	0.6993
3052	0.6908
3043	0.6806
3034	0.6661
3025	0.6512
3016	0.6293
3007	0.6026
2998	0.5762
2989	0.4575
2980	0.3182
2971	0.2013
2962	0.0843
2953	0.0813
2944	0.0861
2935	0.0385
2926	0.0245
2917	0.0532
2908	0.0954
2899	0.151
2890	0.2145
2881	0.2085
2872	0.1466
2863	0.1356
2854	0.1309
2845	0.2777
2836	0.4004
2827	0.45
2818	0.4714
2809	0.4822
2800	0.4923
2791	0.5046
2782	0.517
2773	0.5309
2764	0.5446
2755	0.5601
2746	0.5747
2737	0.5884
2728	0.5897
2719	0.5883
2710	0.5877
2701	0.5862
2692	0.5802
2683	0.5631
2674	0.546
2665	0.5286
2656	0.5112
2647	0.4915
2638	0.4762
2629	0.4724
2620	0.4737
2611	0.4827
2602	0.4959
2593	0.5038
2584	0.5006
2575	0.4995
2566	0.4989
2557	0.4956
2548	0.4855
2539	0.4822
2530	0.4795
2521	0.477
2512	0.4773
2503	0.4818
2494	0.491
2485	0.4991
2476	0.5099
2467	0.5264
2458	0.5439
2449	0.5588
2440	0.5649
2431	0.571
2422	0.5793
2413	0.5923
2404	0.6058
2395	0.6191
2386	0.6323
2377	0.6447
2368	0.6568
2359	0.6688
2350	0.6792
2341	0.6895
2332	0.699
2323	0.7081
2314	0.7169
2305	0.7247
2296	0.7325
2287	0.7407
2278	0.749
2269	0.7574
2260	0.766
2251	0.7745
2242	0.7825
2233	0.7907
2224	0.798
2215	0.8038
2206	0.8087
2197	0.813
2188	0.8151
2179	0.8112
2170	0.8106
2161	0.8164
2152	0.8217
2143	0.8268
2134	0.8306
2125	0.8336
2116	0.8361
2107	0.8384
2098	0.8396
2089	0.8403
2080	0.8406
2071	0.8401
2062	0.8398
2053	0.8394
2044	0.8389
2035	0.8378
2026	0.8368
2017	0.8354
2008	0.8315
1999	0.8028
1990	0.7955
1981	0.7888
1972	0.7833
1963	0.7797
1954	0.7886
1945	0.7911
1936	0.7851
1927	0.7858
1918	0.7807
1909	0.756
1900	0.7371
1891	0.7507
1882	0.7746
1873	0.799
1864	0.8171
1855	0.8331
1846	0.8447
1837	0.8495
1828	0.8504
1819	0.8493
1810	0.8496
1801	0.8511
1792	0.8531
1783	0.8538
1774	0.8534
1765	0.8521
1756	0.8448
1747	0.832
1738	0.8187
1729	0.7965
1720	0.7618
1711	0.7132
1702	0.5648
1693	0.4109
1684	0.0787
1675	0.2149
1666	0.5128
1657	0.7038
1648	0.7687
1639	0.7903
1630	0.8204
1621	0.8399
1612	0.8508
1603	0.8584
1594	0.8639
1585	0.867
1576	0.8652
1567	0.851
1558	0.8562
1549	0.8618
1540	0.8649
1531	0.8654
1522	0.8588
1513	0.8407
1504	0.8049
1495	0.8031
1486	0.7918
1477	0.7614
1468	0.6503
1459	0.3702
1450	0.2874
1441	0.4243
1432	0.5505
1423	0.5902
1414	0.7112
1405	0.5634
1396	0.6203
1387	0.6455
1378	0.4704
1369	0.5843
1360	0.563
1351	0.6468
1342	0.5899
1333	0.5062
1324	0.4119
1315	0.6333
1306	0.526
1297	0.3368
1288	0.5937
1279	0.4565
1270	0.1767
1261	0.3382
1252	0.5346
1243	0.5796
1234	0.2441
1225	0.2564
1216	0.3503
1207	0.554
1198	0.6396
1189	0.6861
1180	0.7326
1171	0.7445
1162	0.7272
1153	0.6917
1144	0.5026
1135	0.1684
1126	0.4449
1117	0.6865
1108	0.6974
1099	0.5653
1090	0.5987
1081	0.2348
1072	0.3666
1063	0.314
1054	0.4404
1045	0.6475
1036	0.7115
1027	0.5935
1018	0.7518
1009	0.7611
1000	0.7176
991	0.5865
982	0.3402
973	0.2233
964	0.501
955	0.5715
946	0.6785
937	0.7211
928	0.7405
919	0.6875
910	0.7631
901	0.7831
892	0.7906
883	0.694
874	0.7724
865	0.8115
856	0.8158
847	0.8161
838	0.8071
829	0.7665
820	0.7345
811	0.5616
802	0.7961
793	0.8149
784	0.8176
775	0.8151
766	0.8104
757	0.7428
748	0.5185
739	0.6099
730	0.7514
721	0.7761
712	0.7918
703	0.8036
694	0.7895
685	0.7661
676	0.7421
667	0.7028
658	0.5992
649	0.6237
640	0.5635
631	0.4954
622	0.4274
613	0.3593
604	0.4247
595	0.5398
586	0.4907
577	0.3909
568	0.3009
559	0.3268
550	0.3612
541	0.3109
532	0.3516
523	0.4789
514	0.5107
505	0.5156
496	0.521
487	0.5086
