Infrared Spectrum: Chlorfenvinphos
Formula: C 12 H 14 Cl 3 O 4 P
CAS: 470-90-6
State: gas
Instrument: HP-GC/MS/IRD
Origin: NIST Mass Spectrometry Data Center
1/CM	ABSORBANCE
550	0.0177568
562	0.008592
574	0.0109548
586	0.0026134
598	0.000179
610	0.0004296
622	0.0040812
634	0.0122436
646	0.0109906
658	0.0040812
670	0.0035084
682	0.0044392
694	0.0071958
706	0.0089142
718	0.009308
730	0.007518
742	0.0099166
754	0.0180074
766	0.022912
778	0.0471844
790	0.0637598
802	0.0359432
814	0.0391652
826	0.0276734
838	0.026313
850	0.078581
862	0.0361938
874	0.0182938
886	0.0101314
898	0.0132102
910	0.0256686
922	0.042244
934	0.0403824
946	0.063366
958	0.0888914
970	0.0788674
982	0.0626858
994	0.0452154
1006	0.0577454
1018	0.134286
1030	0.320804
1042	0.31973
1054	0.198368
1066	0.169513
1078	0.109047
1090	0.0853472
1102	0.070168
1114	0.043318
1126	0.0260624
1138	0.0262414
1150	0.0238786
1162	0.020048
1174	0.0170766
1186	0.0126732
1198	0.0088784
1210	0.0093796
1222	0.0238786
1234	0.0138546
1246	0.0105252
1258	0.01432
1270	0.021301
1282	0.0499768
1294	0.104858
1306	0.104142
1318	0.0651202
1330	0.027208
1342	0.0138546
1354	0.0117066
1366	0.0190098
1378	0.0263846
1390	0.0190814
1402	0.015215
1414	0.0081266
1426	0.0078044
1438	0.0108832
1450	0.0118856
1462	0.02327
1474	0.0338668
1486	0.014678
1498	0.0073032
1510	0.0045466
1522	0.0042602
1534	0.0052626
1546	0.0119572
1558	0.011456
1570	0.0160026
1582	0.042602
1594	0.0231268
1606	0.0078402
1618	0.0092364
1630	0.0124942
1642	0.0143558
1654	0.0097376
1666	0.0040812
1678	0.0021122
1690	0.0014678
1702	0.0013962
1714	0.001432
1726	0.0021838
1738	0.0022912
1750	0.001432
1762	0.0015752
1774	0.001611
1786	0.0014678
1798	0.0017184
1810	0.0018258
1822	0.0018616
1834	0.0017184
1846	0.001611
1858	0.0015394
1870	0.0015394
1882	0.0016468
1894	0.0017184
1906	0.0011814
1918	0.0006086
1930	0.000358
1942	0.0002148
1954	0.0001074
1966	3.58e-05
1978	3.58e-05
1990	3.58e-05
2002	3.58e-05
2014	3.58e-05
2026	0
2038	3.58e-05
2050	3.58e-05
2062	0.0001074
2074	0.0001074
2086	0.0001432
2098	0.0001432
2110	0.000179
2122	0.000179
2134	0.0001432
2146	7.16e-05
2158	0.0001074
2170	0.0001432
2182	0.0001432
2194	0.0001074
2206	0.0001432
2218	7.16e-05
2230	7.16e-05
2242	7.16e-05
2254	0.000179
2266	0.0002148
2278	0.0002506
2290	0.0002864
2302	0.0002864
2314	0.0003938
2326	0.0005012
2338	0.0005012
2350	0.0003938
2362	0.000358
2374	0.0003222
2386	0.0003222
2398	0.0002506
2410	0.0002148
2422	0.000179
2434	0.000179
2446	0.0002506
2458	0.0002148
2470	0.0002148
2482	0.0002148
2494	0.0003222
2506	0.0002864
2518	0.0002506
2530	0.0001074
2542	0.0001074
2554	0.0001432
2566	0.0001432
2578	0.0002148
2590	0.0002506
2602	0.0002506
2614	0.0002506
2626	0.0002148
2638	0.000179
2650	0.000179
2662	0.000179
2674	0.0002506
2686	0.0003222
2698	0.0002864
2710	0.000358
2722	0.0004654
2734	0.000716
2746	0.0006802
2758	0.000716
2770	0.0009308
2782	0.0011814
2794	0.0011098
2806	0.0010024
2818	0.0011814
2830	0.0015036
2842	0.00179
2854	0.0023986
2866	0.00358
2878	0.0061934
2890	0.0071958
2902	0.0086994
2914	0.0124584
2926	0.0142126
2938	0.0222676
2950	0.020227
2962	0.015752
2974	0.0221244
2986	0.036158
2998	0.0301078
3010	0.0178284
3022	0.0105968
3034	0.006265
3046	0.0039738
3058	0.0029356
3070	0.0030788
3082	0.0036158
3094	0.006265
3106	0.0083414
3118	0.002685
3130	0.0013962
3142	0.0010382
3154	0.000895
3166	0.0007518
3178	0.0006802
3190	0.0006086
3202	0.0005012
3214	0.0005012
3226	0.0004654
3238	0.0004296
3250	0.0003938
3262	0.000358
3274	0.0002864
3286	0.0002506
3298	0.0002506
3310	0.0001432
3322	0.000179
3334	0.0001432
3346	0.0001432
3358	0.0001432
3370	0.0001432
3382	0.0001432
3394	7.16e-05
3406	0.0001074
3418	0.0001074
3430	0.0001432
3442	0.0002148
3454	0.000179
3466	0.0002506
3478	0.0001432
3490	0.0002148
3502	0.0001432
3514	0.0001074
3526	0.0001432
3538	0.0001074
3550	0.000179
3562	0.0001432
3574	0.000179
3586	0.0001074
3598	0.0001432
3610	0.0001074
3622	0.0001432
3634	0.0001432
3646	0.0001432
3658	7.16e-05
3670	0.0001432
3682	0.0001432
3694	0.0002148
3706	0.0002148
3718	0.000179
3730	0.0002148
3742	0.0002506
3754	0.0003222
3766	0.000358
3778	0.0002506
3790	0.0002506
3802	0.0002864
3814	0.0002506
3826	0.0002506
3838	0.0003222
