Infrared Spectrum: RHODANINE, 5-(2-FURFURYLIDENE)-
Formula: C8 H5 N O2 S2
CAS: 4703-96-2
State: SOLID (KBr PELLET)
Melting point: 227-230 C DECOMPOSES
Class: COBLENTZ
Instrument: Not specified, most likely a prism, grating, or hybrid spectrometer.
Sampling: TRANSMISSION
Resolution: 4
Origin: TENNESSEE EASTMAN COMPANY, RESEARCH LABORATORIES
MICROMETERS	TRANSMITTANCE
2.014	0.531
2.05503	0.531
2.09606	0.545
2.13709	0.554
2.17812	0.567
2.21915	0.581
2.26018	0.591
2.30121	0.605
2.34224	0.617
2.38327	0.627
2.42429	0.634
2.46532	0.644
2.50635	0.658
2.54738	0.667
2.58841	0.67
2.62944	0.679
2.67047	0.687
2.7115	0.694
2.75253	0.698
2.79356	0.675
2.83459	0.648
2.87562	0.627
2.91665	0.619
2.95768	0.62
2.99871	0.658
3.03974	0.684
3.08077	0.684
3.1218	0.622
3.16283	0.451
3.20385	0.238
3.24488	0.315
3.28591	0.25
3.32694	0.248
3.36797	0.457
3.409	0.511
3.45003	0.49
3.49106	0.404
3.53209	0.466
3.57312	0.608
3.61415	0.658
3.65518	0.675
3.69621	0.706
3.73724	0.737
3.77827	0.761
3.8193	0.766
3.86033	0.789
3.90136	0.821
3.94239	0.837
3.98342	0.837
4.02444	0.843
4.06547	0.85
4.1065	0.862
4.14753	0.876
4.18856	0.881
4.22959	0.883
4.27062	0.883
4.31165	0.885
4.35268	0.891
4.39371	0.907
4.43474	0.91
4.47577	0.922
4.5168	0.927
4.55783	0.945
4.59886	0.943
4.63989	0.945
4.68092	0.948
4.72195	0.95
4.76298	0.951
4.804	0.963
4.84503	0.967
4.88606	0.967
4.92709	0.969
4.96812	0.969
5.00915	0.991
5.05018	0.991
5.09121	0.991
5.13224	0.993
5.17327	1
5.2143	1.001
5.25533	1.001
5.29636	0.993
5.33739	0.991
5.37842	0.991
5.41945	0.993
5.46048	0.993
5.50151	0.993
5.54254	0.945
5.58356	0.946
5.62459	0.943
5.66562	0.914
5.70665	0.914
5.74768	0.818
5.78871	0.689
5.82974	0.514
5.87077	0.241
5.9118	0.037
5.95283	0.166
5.99386	0.507
6.03489	0.711
6.07592	0.735
6.11695	0.723
6.15798	0.701
6.19901	0.413
6.24004	0.051
6.28107	0.169
6.3221	0.385
6.36312	0.62
6.40415	0.708
6.44518	0.74
6.48621	0.799
6.52724	0.837
6.56827	0.861
6.6093	0.878
6.65033	0.902
6.69136	0.9
6.73239	0.758
6.77342	0.44
6.81445	0.142
6.85548	0.277
6.89651	0.08
6.93754	0.132
6.97857	0.456
7.0196	0.615
7.06063	0.734
7.10166	0.801
7.14269	0.831
7.18371	0.775
7.22474	0.792
7.26577	0.831
7.3068	0.831
7.34783	0.838
7.38886	0.84
7.42989	0.828
7.47092	0.801
7.51195	0.675
7.55298	0.25
7.59401	0.186
7.63504	0.428
7.67607	0.485
7.7171	0.526
7.75813	0.66
7.79916	0.703
7.84019	0.698
7.88122	0.727
7.92225	0.728
7.96327	0.523
8.0043	0.55
8.04533	0.416
8.08636	0.087
8.12739	0.034
8.16842	0.036
8.20945	0.109
8.25048	0.385
8.29151	0.521
8.33254	0.452
8.37357	0.445
8.4146	0.355
8.45563	0.205
8.49666	0.481
8.53769	0.732
8.57872	0.806
8.61975	0.852
8.66078	0.854
8.70181	0.833
8.74283	0.871
8.78386	0.922
8.82489	0.931
8.86592	0.939
8.90695	0.941
8.94798	0.943
8.98901	0.943
9.03004	0.936
9.07107	0.907
9.1121	0.876
9.15313	0.493
9.19416	0.404
9.23519	0.71
9.27622	0.689
9.31725	0.605
9.35828	0.596
9.39931	0.735
9.44034	0.842
9.48137	0.895
9.5224	0.905
9.56342	0.85
9.60445	0.713
9.64548	0.737
9.68651	0.775
9.72754	0.71
9.76857	0.572
9.8096	0.531
9.85063	0.643
9.89166	0.804
9.93269	0.871
9.97372	0.919
10.0147	0.943
10.0558	0.953
10.0968	0.96
10.1378	0.965
10.1789	0.965
10.2199	0.967
10.2609	0.97
10.302	0.969
10.343	0.97
10.384	0.97
10.425	0.969
10.4661	0.957
10.5071	0.943
10.5481	0.874
10.5892	0.636
10.6302	0.44
10.6712	0.751
10.7122	0.833
10.7533	0.854
10.7943	0.883
10.8353	0.912
10.8764	0.926
10.9174	0.929
10.9584	0.922
10.9995	0.838
11.0405	0.73
11.0815	0.795
11.1225	0.847
11.1636	0.866
11.2046	0.867
11.2456	0.84
11.2867	0.679
11.3277	0.493
11.3687	0.789
11.4098	0.854
11.4508	0.861
11.4918	0.879
11.5328	0.891
11.5739	0.895
11.6149	0.895
11.6559	0.895
11.697	0.886
11.738	0.876
11.779	0.866
11.82	0.852
11.8611	0.833
11.9021	0.816
11.9431	0.787
11.9842	0.766
12.0252	0.734
12.0662	0.696
12.1073	0.658
12.1483	0.619
12.1893	0.583
12.2303	0.56
12.2714	0.554
12.3124	0.554
12.3534	0.574
12.3945	0.607
12.4355	0.641
12.4765	0.684
12.5175	0.716
12.5586	0.739
12.5996	0.74
12.6406	0.716
12.6817	0.716
12.7227	0.723
12.7637	0.734
12.8048	0.739
12.8458	0.74
12.8868	0.711
12.9278	0.646
12.9689	0.55
13.0099	0.492
13.0509	0.433
13.092	0.356
13.133	0.346
13.174	0.404
13.215	0.483
13.2561	0.567
13.2971	0.665
13.3381	0.727
13.3792	0.754
13.4202	0.771
13.4612	0.775
13.5023	0.77
13.5433	0.732
13.5843	0.718
13.6253	0.747
13.6664	0.795
13.7074	0.842
13.7484	0.885
13.7895	0.919
13.8305	0.943
13.8715	0.957
13.9125	0.96
13.9536	0.963
13.9946	0.967
14.0356	0.965
14.0767	0.965
14.1177	0.965
14.1587	0.963
14.1998	0.955
14.2408	0.927
14.2818	0.878
14.3228	0.809
14.3639	0.71
14.4049	0.639
14.4459	0.631
14.487	0.682
14.528	0.74
14.569	0.742
14.6101	0.689
14.6511	0.6
14.6921	0.5
14.7331	0.38
14.7742	0.322
14.8152	0.301
14.8562	0.325
14.8973	0.399
14.9383	0.461
14.9793	0.506
15.0203	0.567
15.0614	0.619
15.1024	0.677
15.1434	0.708
15.1845	0.735
15.2255	0.746
15.2665	0.749
15.3076	0.749
15.3486	0.749
15.3896	0.746
15.4306	0.739
15.4717	0.739
15.5127	0.739
15.5537	0.74
15.5948	0.74
15.6358	0.74
15.6768	0.737
15.7178	0.735
15.7589	0.73
15.7999	0.72
15.8409	0.711
15.882	0.696
15.923	0.684
15.964	0.674
