Infrared Spectrum: 3-Bromo-1,2-propanediol
Formula: C 3 H 7 Br O 2
CAS: 4704-77-2
State: gas
Origin: EPA-IR VAPOR PHASE LIBRARY
1/CM	ABSORBANCE
549.8	0.0032212
559.445	0.0032112
569.09	0.0028312
578.734	0.0033412
588.379	0.0035512
598.024	0.0030012
607.669	0.0024112
617.313	0.0026212
626.958	0.0025812
636.603	0.0025012
646.248	0.0030112
655.893	0.0043512
665.537	0.0060612
675.182	0.0069312
684.827	0.0058512
694.472	0.0042112
704.116	0.0025612
713.761	0.0021512
723.406	0.0018212
733.051	0.0015612
742.695	0.0012712
752.34	0.0014012
761.985	0.0012112
771.63	0.0012412
781.275	0.0012812
790.919	0.0015812
800.564	0.0021012
810.209	0.0024712
819.854	0.0028112
829.498	0.0025212
839.143	0.0024112
848.788	0.0025712
858.433	0.0032412
868.078	0.0037612
877.722	0.0045712
887.367	0.0044512
897.012	0.0045112
906.657	0.0044912
916.301	0.0045712
925.946	0.0044012
935.591	0.0040112
945.236	0.0031012
954.88	0.0031412
964.525	0.0035112
974.17	0.0045412
983.815	0.0059912
993.46	0.0085312
1003.1	0.0119412
1012.75	0.0154212
1022.39	0.0196512
1032.04	0.0228612
1041.68	0.0261512
1051.33	0.0304512
1060.97	0.0313912
1070.62	0.0265312
1080.26	0.0198212
1089.91	0.0163212
1099.55	0.0132112
1109.2	0.0110112
1118.84	0.0081612
1128.49	0.0070212
1138.13	0.0060812
1147.78	0.0066412
1157.42	0.0069412
1167.07	0.0072712
1176.71	0.0073012
1186.36	0.0078312
1196	0.0081712
1205.64	0.0097312
1215.29	0.0116012
1224.93	0.0120812
1234.58	0.0111612
1244.22	0.0112512
1253.87	0.0116912
1263.51	0.0114912
1273.16	0.0099312
1282.8	0.0080412
1292.45	0.0065312
1302.09	0.0059312
1311.74	0.0058812
1321.38	0.0062812
1331.03	0.0069412
1340.67	0.0076512
1350.32	0.0081412
1359.96	0.0085312
1369.61	0.0089412
1379.25	0.0091412
1388.9	0.0084912
1398.54	0.0072212
1408.18	0.0061112
1417.83	0.0060612
1427.47	0.0064412
1437.12	0.0059712
1446.76	0.0042212
1456.41	0.0034612
1466.05	0.0032612
1475.7	0.0026612
1485.34	0.0018112
1494.99	0.0012112
1504.63	0.0010312
1514.28	0.0009039
1523.92	0.0008732
1533.57	0.0007816
1543.21	0.000766
1552.86	0.0006459
1562.5	0.0005676
1572.15	0.0005487
1581.79	0.0004637
1591.44	0.0004709
1601.08	0.0003681
1610.73	0.0003835
1620.37	0.0003291
1630.01	0.0002781
1639.66	0.0003483
1649.3	0.0001941
1658.95	0.0002678
1668.59	0.0002196
1678.24	0.0002269
1687.88	0.0002705
1697.53	0.0003027
1707.17	0.000316
1716.82	0.0002978
1726.46	0.0002791
1736.11	0.0002496
1745.75	0.0001807
1755.4	0.000155
1765.04	9.597e-05
1774.69	0.0001261
1784.33	0.0001452
1793.98	0.0002286
1803.62	0.0001973
1813.27	0.000212
1822.91	0.0001915
1832.55	0.0001979
1842.2	0.0001799
1851.84	0.000275
1861.49	0.0001861
1871.13	0.0002279
1880.78	0.0002617
1890.42	0.0002931
1900.07	0.0003296
1909.71	0.000221
1919.36	0.0002187
1929	0.00029
1938.65	0.0002196
1948.29	0.0002876
1957.94	0.0002304
1967.58	0.0002343
1977.23	0.0002948
1986.87	0.0003095
1996.52	0.0002245
2006.16	0.0002835
2015.81	0.0002278
2025.45	0.0003015
2035.1	0.0003367
2044.74	0.0003043
2054.38	0.0003698
2064.03	0.0004699
2073.67	0.0004149
2083.32	0.0005408
2092.96	0.0005062
2102.61	0.0005109
2112.25	0.0004824
2121.9	0.0003819
2131.54	0.0003417
2141.19	0.000316
2150.83	0.0002659
2160.48	0.0003064
2170.12	0.0003274
2179.77	0.0003172
2189.41	0.0002952
2199.06	0.0002473
2208.7	0.0003968
2218.35	0.0003217
2227.99	0.0002805
2237.64	0.0003394
2247.28	0.0003628
2256.92	0.0003255
2266.57	0.0002825
2276.21	0.0003391
2285.86	0.0002984
2295.5	0.0003636
2305.15	0.0003102
2314.79	0.0003364
2324.44	0.0002923
2334.08	0.0002705
2343.73	0.0002971
2353.37	0.0003454
2363.02	0.0003633
2372.66	0.0003418
2382.31	0.0003897
2391.95	0.0003124
2401.6	0.0003849
2411.24	0.0003916
2420.89	0.0003919
2430.53	0.0004156
2440.18	0.0003149
2449.82	0.0004019
2459.47	0.0003609
2469.11	0.000363
2478.75	0.0004055
2488.4	0.0003669
2498.04	0.0003331
2507.69	0.0004013
2517.33	0.0002287
2526.98	0.0003452
2536.62	0.0003227
2546.27	0.0002719
2555.91	0.0003021
2565.56	0.0003036
2575.2	0.0002657
2584.85	0.0002458
2594.49	0.0002797
2604.14	0.0003293
2613.78	0.0002621
2623.43	0.0003253
2633.07	0.0004095
2642.72	0.0004537
2652.36	0.0005501
2662.01	0.0005455
2671.65	0.0005219
2681.29	0.0005906
2690.94	0.0005501
2700.58	0.0006256
2710.23	0.0005855
2719.87	0.0006894
2729.52	0.0007038
2739.16	0.0008247
2748.81	0.0009052
2758.45	0.0008896
2768.1	0.0008989
2777.74	0.0008673
2787.39	0.0009334
2797.03	0.0011112
2806.68	0.0012212
2816.32	0.0012512
2825.97	0.0015312
2835.61	0.0017712
2845.26	0.0021912
2854.9	0.0030512
2864.55	0.0042712
2874.19	0.0061912
2883.84	0.0085712
2893.48	0.0095312
2903.12	0.0090012
2912.77	0.0082312
2922.41	0.0086212
2932.06	0.0098512
2941.7	0.0110112
2951.35	0.0112512
2960.99	0.0106512
2970.64	0.0088912
2980.28	0.0063412
2989.93	0.0036312
2999.57	0.0019012
3009.22	0.0013912
3018.86	0.0012312
3028.51	0.0012012
3038.15	0.0007958
3047.8	0.0006322
3057.44	0.0005077
3067.09	0.0001961
3076.73	0.0002604
3086.38	0.0001809
3096.02	0.0001345
3105.67	0.000144
3115.31	0.0001849
3124.95	0.0002537
3134.6	0.0003871
3144.24	2.979e-05
3153.89	0.00010453
3163.53	0.0002165
3173.18	0.0001696
3182.82	0.0003365
3192.47	0.0001223
3202.11	0.0002766
3211.76	0.0001855
3221.4	0.0001323
3231.05	0.0002954
3240.69	0.0003836
3250.34	0.0003729
3259.98	0.0002756
3269.63	0.0003805
3279.27	0.0004256
3288.92	0.0003725
3298.56	0.0003522
3308.21	0.0004161
3317.85	0.0002662
3327.49	0.0004605
3337.14	0.0003572
3346.78	0.0003755
3356.43	0.0003639
3366.07	0.0003795
3375.72	0.0005698
3385.36	0.0004266
3395.01	0.0005195
3404.65	0.0002832
3414.3	0.0005627
3423.94	0.0005355
3433.59	0.0005553
3443.23	0.0007812
3452.88	0.0005762
3462.52	0.0004241
3472.17	0.0005561
3481.81	0.0005504
3491.46	0.0007915
3501.1	0.0009173
3510.75	0.0008826
3520.39	0.0010612
3530.04	0.0012712
3539.68	0.0012712
3549.32	0.0012812
3558.97	0.0014412
3568.61	0.0020812
3578.26	0.0032212
3587.9	0.0046612
3597.55	0.0070412
3607.19	0.0098512
3616.84	0.0113112
3626.48	0.0106612
3636.13	0.0087812
3645.77	0.0072612
3655.42	0.0067412
3665.06	0.0063112
3674.71	0.0059112
3684.35	0.0050312
3694	0.0034012
3703.64	0.0023612
3713.29	0.0017412
3722.93	0.0014512
3732.58	0.0011212
3742.22	0.0011212
3751.86	0.0009457
3761.51	0.0009102
3771.15	0.0007761
3780.8	0.000729
3790.44	0.0007837
3800.09	0.0008017
3809.73	0.000774
3819.38	0.0005299
3829.02	0.0006945
3838.67	0.000421
3848.31	0.0005689
3857.96	0.000501
3867.6	0.0006894
3877.25	0.0006416
3886.89	0.0005355
3896.54	0.0006502
3906.18	0.0006801
3915.83	0.0006742
3925.47	0.0005869
3935.12	0.0006786
3944.76	0.0006522
3954.41	0.0007204
3964.05	0.0003854
3973.69	0.0003313
3983.34	0.0004676
3992.98	0.0005192
