Infrared Spectrum: 2-Tetradecanol
Formula: C 14 H 30 O
CAS: 4706-81-4
State: gas
Instrument: HP-GC/MS/IRD
Origin: NIST Mass Spectrometry Data Center
1/CM	ABSORBANCE
550	0.000272
562	0.000272
574	4.76e-05
586	0.000102
598	0.0001632
610	0.0001224
622	0.000136
634	0.0001088
646	0.0001292
658	6.8e-06
670	9.52e-05
682	0.0001428
694	0.0003876
706	0.0006188
718	0.000952
730	0.0008636
742	0.0006052
754	0.0004556
766	0.0004352
778	0.0003808
790	0.00034
802	0.0004624
814	0.0005372
826	0.0003876
838	0.0007072
850	0.0007344
862	0.0006868
874	0.0006868
886	0.0007888
898	0.000952
910	0.0013124
922	0.0016048
934	0.0019584
946	0.0018564
958	0.0014824
970	0.001394
982	0.0014892
994	0.0017476
1006	0.0018972
1018	0.0019856
1030	0.0023732
1042	0.0027064
1054	0.0028356
1066	0.0029648
1078	0.0033388
1090	0.0036652
1102	0.0038284
1114	0.0034612
1126	0.0033388
1138	0.0029036
1150	0.0021896
1162	0.0017952
1174	0.0015776
1186	0.0014824
1198	0.001598
1210	0.0017408
1222	0.0020944
1234	0.0025296
1246	0.0027336
1258	0.0023664
1270	0.0020128
1282	0.001802
1294	0.0018224
1306	0.0019108
1318	0.001836
1330	0.0020332
1342	0.002754
1354	0.003502
1366	0.00391
1378	0.0046308
1390	0.0037808
1402	0.0024344
1414	0.001734
1426	0.0016796
1438	0.0024888
1450	0.0042364
1462	0.0053312
1474	0.0033932
1486	0.0014688
1498	0.0007956
1510	0.0005168
1522	0.0003536
1534	0.0002856
1546	0.0001972
1558	0.0001632
1570	0.0001496
1582	0.0001428
1594	0.0001224
1606	0.0001088
1618	7.48e-05
1630	7.48e-05
1642	7.48e-05
1654	4.76e-05
1666	6.8e-05
1678	4.76e-05
1690	6.8e-05
1702	2.72e-05
1714	3.4e-05
1726	4.08e-05
1738	4.76e-05
1750	4.08e-05
1762	4.08e-05
1774	6.8e-06
1786	2.04e-05
1798	6.8e-06
1810	3.4e-05
1822	2.72e-05
1834	1.36e-05
1846	3.4e-05
1858	4.76e-05
1870	4.08e-05
1882	4.08e-05
1894	2.72e-05
1906	2.04e-05
1918	2.72e-05
1930	2.72e-05
1942	6.8e-06
1954	2.72e-05
1966	3.4e-05
1978	2.04e-05
1990	2.72e-05
2002	2.04e-05
2014	5.44e-05
2026	7.48e-05
2038	7.48e-05
2050	8.16e-05
2062	4.76e-05
2074	4.76e-05
2086	2.72e-05
2098	2.72e-05
2110	3.4e-05
2122	0
2134	2.72e-05
2146	4.08e-05
2158	2.72e-05
2170	5.44e-05
2182	4.08e-05
2194	2.04e-05
2206	3.4e-05
2218	2.72e-05
2230	0
2242	2.72e-05
2254	4.08e-05
2266	5.44e-05
2278	4.76e-05
2290	5.44e-05
2302	5.44e-05
2314	6.12e-05
2326	3.4e-05
2338	3.4e-05
2350	4.08e-05
2362	2.72e-05
2374	4.76e-05
2386	8.84e-05
2398	5.44e-05
2410	6.12e-05
2422	5.44e-05
2434	8.84e-05
2446	7.48e-05
2458	6.12e-05
2470	4.08e-05
2482	4.76e-05
2494	9.52e-05
2506	0.0001156
2518	0.000136
2530	0.000136
2542	0.0001564
2554	0.0001564
2566	0.0001972
2578	0.000238
2590	0.000272
2602	0.0003332
2614	0.000374
2626	0.0004624
2638	0.0005168
2650	0.000578
2662	0.0006392
2674	0.0007412
2686	0.000748
2698	0.0006596
2710	0.000646
2722	0.00068
2734	0.000782
2746	0.0008636
2758	0.0008976
2770	0.0010608
2782	0.0012376
2794	0.0016456
2806	0.0021284
2818	0.0029172
2830	0.0042568
2842	0.0074732
2854	0.0174692
2866	0.02533
2878	0.0189788
2890	0.0164696
2902	0.0201688
2914	0.0323408
2926	0.0586772
2938	0.0627164
2950	0.0339864
2962	0.0235756
2974	0.0197812
2986	0.0107168
2998	0.0050388
3010	0.0028764
3022	0.0019516
3034	0.0014416
3046	0.0011152
3058	0.000918
3070	0.0007412
3082	0.0006188
3094	0.0005644
3106	0.0004488
3118	0.0004148
3130	0.000374
3142	0.0002924
3154	0.000306
3166	0.0002856
3178	0.0002516
3190	0.0002176
3202	0.00017
3214	0.0001224
3226	0.0001088
3238	7.48e-05
3250	3.4e-05
3262	3.4e-05
3274	2.72e-05
3286	2.04e-05
3298	2.04e-05
3310	4.76e-05
3322	2.04e-05
3334	6.12e-05
3346	3.4e-05
3358	5.44e-05
3370	4.76e-05
3382	7.48e-05
3394	4.76e-05
3406	0.000102
3418	6.12e-05
3430	7.48e-05
3442	0.000102
3454	5.44e-05
3466	4.08e-05
3478	4.08e-05
3490	3.4e-05
3502	3.4e-05
3514	2.72e-05
3526	4.76e-05
3538	5.44e-05
3550	5.44e-05
3562	4.08e-05
3574	0
3586	6.8e-05
3598	0.0001292
3610	0.0002176
3622	0.0003876
3634	0.0007412
3646	0.001292
3658	0.0015436
3670	0.0007684
3682	0.0003604
3694	0.0002244
3706	0.0001428
3718	0.0001292
3730	9.52e-05
3742	8.16e-05
3754	8.84e-05
3766	0.0001428
3778	0.000136
3790	0.0001156
3802	0.000102
3814	0.0001496
3826	0.0001496
3838	0.0001836
