Infrared Spectrum: 5-Isopropyl-m-xylene
Formula: C 11 H 16
CAS: 4706-89-2
State: gas
Instrument: HP-GC/MS/IRD
Origin: NIST Mass Spectrometry Data Center
1/CM	ABSORBANCE
550	0.0001748
562	6.9e-06
574	3.68e-05
586	0.0001932
598	7.59e-05
610	0.0002116
622	8.51e-05
634	0.0002346
646	0.0001909
658	0.0001932
670	0.000253
682	0.0005658
694	0.0023598
706	0.0033557
718	0.0010787
730	0.0002967
742	0.0002277
754	0.0001633
766	0.0001794
778	0.0001633
790	0.0002185
802	0.00023
814	0.0004324
826	0.0011592
838	0.0041216
850	0.0041239
862	0.001173
874	0.000529
886	0.0005865
898	0.0005221
910	0.0006992
922	0.0012052
934	0.0011592
946	0.0008487
958	0.0005106
970	0.0005083
982	0.0007866
994	0.0009269
1006	0.0007521
1018	0.0004991
1030	0.0005566
1042	0.0007314
1054	0.0007797
1066	0.0007544
1078	0.0010028
1090	0.0009338
1102	0.0006555
1114	0.0004853
1126	0.0003772
1138	0.0002392
1150	0.0002139
1162	0.0002645
1174	0.0007222
1186	0.000874
1198	0.0002875
1210	0.0001357
1222	0.000138
1234	0.0001863
1246	0.0003864
1258	0.0005543
1270	0.0004301
1282	0.000483
1294	0.0006348
1306	0.0008717
1318	0.0013363
1330	0.00161
1342	0.0014122
1354	0.0013892
1366	0.0020309
1378	0.0023161
1390	0.0020976
1402	0.0013087
1414	0.0012075
1426	0.0015824
1438	0.0026473
1450	0.0040066
1462	0.0044344
1474	0.0037582
1486	0.0028635
1498	0.0023575
1510	0.0019803
1522	0.0017825
1534	0.0018584
1546	0.0016261
1558	0.0015065
1570	0.0018975
1582	0.0030337
1594	0.0066493
1606	0.0089884
1618	0.0031027
1630	0.0009085
1642	0.0004899
1654	0.0003726
1666	0.0002622
1678	0.0002185
1690	0.0002415
1702	0.0003197
1714	0.000529
1726	0.0006601
1738	0.0004646
1750	0.0006003
1762	0.0005888
1774	0.0003036
1786	0.0001426
1798	9.43e-05
1810	0.0001035
1822	7.36e-05
1834	8.74e-05
1846	8.28e-05
1858	9.89e-05
1870	0.0001173
1882	0.0001564
1894	0.0001219
1906	0.000138
1918	0.0001518
1930	0.0001334
1942	0.0001173
1954	9.89e-05
1966	7.59e-05
1978	9.2e-05
1990	8.05e-05
2002	5.29e-05
2014	3.45e-05
2026	4.6e-05
2038	3.45e-05
2050	2.76e-05
2062	3.22e-05
2074	2.53e-05
2086	1.38e-05
2098	2.99e-05
2110	2.3e-05
2122	3.68e-05
2134	2.53e-05
2146	1.84e-05
2158	2.3e-06
2170	2.76e-05
2182	1.84e-05
2194	5.75e-05
2206	6.44e-05
2218	9.43e-05
2230	5.06e-05
2242	4.6e-05
2254	4.6e-05
2266	4.6e-05
2278	3.68e-05
2290	5.98e-05
2302	6.44e-05
2314	7.59e-05
2326	5.75e-05
2338	4.6e-05
2350	8.05e-05
2362	6.67e-05
2374	0.0001219
2386	0.0001035
2398	9.66e-05
2410	0.0001265
2422	0.0001403
2434	0.0001081
2446	0.0001104
2458	8.97e-05
2470	0.000138
2482	0.0001081
2494	9.43e-05
2506	0.0001173
2518	0.000115
2530	0.0001104
2542	7.59e-05
2554	0.0001058
2566	0.0001472
2578	0.0001127
2590	0.0001679
2602	0.000207
2614	0.0001725
2626	0.0001426
2638	0.0001357
2650	0.0001932
2662	0.0001794
2674	0.0001426
2686	0.0001587
2698	0.0001863
2710	0.0002668
2722	0.0004209
2734	0.0006486
2746	0.0006992
2758	0.0005106
2770	0.0004715
2782	0.0005198
2794	0.0006325
2806	0.0007682
2818	0.0009338
2830	0.0013133
2842	0.0019803
2854	0.0034362
2866	0.0062767
2878	0.0092391
2890	0.0090321
2902	0.0096025
2914	0.0110377
2926	0.0147959
2938	0.0154882
2950	0.0127236
2962	0.0204148
2974	0.0200928
2986	0.0085192
2998	0.0063204
3010	0.0076038
3022	0.0094231
3034	0.0070334
3046	0.0042849
3058	0.0027968
3070	0.0017963
3082	0.0013317
3094	0.0009108
3106	0.000736
3118	0.000598
3130	0.00046
3142	0.0004669
3154	0.0003496
3166	0.0003381
3178	0.000368
3190	0.0003772
3202	0.0003243
3214	0.0002921
3226	0.0002622
3238	0.0002231
3250	0.0001633
3262	0.0001587
3274	0.0002047
3286	0.0002162
3298	0.0001679
3310	0.000138
3322	0.0001357
3334	0.0001104
3346	0.0001219
3358	0.0001242
3370	0.0001449
3382	0.0001196
3394	0.0001288
3406	0.0001449
3418	8.51e-05
3430	0.000115
3442	9.43e-05
3454	4.83e-05
3466	7.36e-05
3478	8.28e-05
3490	9.89e-05
3502	0.0001449
3514	0.0001104
3526	8.97e-05
3538	0.000184
3550	6.21e-05
3562	0.0001219
3574	0.0001012
3586	3.45e-05
3598	1.15e-05
3610	8.51e-05
3622	0.0001219
3634	5.98e-05
3646	2.07e-05
3658	5.29e-05
3670	6.67e-05
3682	0.0001127
3694	9.2e-05
3706	0.0001012
3718	0.0001702
3730	0.0001449
3742	7.59e-05
3754	0.0001288
3766	8.51e-05
3778	0.0001564
3790	0.0001449
3802	0.0001357
3814	0.0001702
3826	0.00023
3838	0.0001794
