Infrared Spectrum: 3,3'-Dithiobis[2-amino-N-(2-naphthyl)propionamide]
Formula: C26 H26 N4 O2 S2
CAS: 4708-24-1
State: SOLID (SPLIT MULL), FLUOROLUBE FOR 3800-1330 CM^-^1, NUJOL FOR 1330-400 CM^-^1
Melting point: 164 C (DECOMPOSES)
Class: COBLENTZ II
Instrument: BECKMAN IR-9 (GRATING)
Instrument parameters: ORDER CHANGES: 670, 1200, 2000 CM^-^1
Sampling: TRANSMISSION
Resolution: 2
Origin: DOW CHEMICAL COMPANY
1/CM	TRANSMITTANCE
3808	0.5771
3799	0.578
3790	0.5807
3781	0.583
3772	0.5853
3763	0.5876
3754	0.5899
3745	0.5915
3736	0.593
3727	0.5944
3718	0.5956
3709	0.5968
3700	0.598
3691	0.599
3682	0.6
3673	0.6009
3664	0.6022
3655	0.6035
3646	0.6052
3637	0.608
3628	0.6105
3619	0.6125
3610	0.6116
3601	0.6095
3592	0.6086
3583	0.6119
3574	0.6158
3565	0.617
3556	0.6178
3547	0.6187
3538	0.6196
3529	0.6204
3520	0.6206
3511	0.6207
3502	0.6205
3493	0.6199
3484	0.6198
3475	0.6203
3466	0.6209
3457	0.6205
3448	0.6172
3439	0.6125
3430	0.6038
3421	0.5856
3412	0.5334
3403	0.5029
3394	0.5248
3385	0.5588
3376	0.5805
3367	0.5905
3358	0.5887
3349	0.5792
3340	0.5489
3331	0.5251
3322	0.5084
3313	0.4909
3304	0.4684
3295	0.446
3286	0.4082
3277	0.374
3268	0.372
3259	0.3844
3250	0.4129
3241	0.4392
3232	0.4655
3223	0.4917
3214	0.518
3205	0.5425
3196	0.558
3187	0.5697
3178	0.5767
3169	0.5804
3160	0.5842
3151	0.5881
3142	0.5927
3133	0.5999
3124	0.6095
3115	0.6186
3106	0.6255
3097	0.6276
3088	0.6259
3079	0.6162
3070	0.5927
3061	0.5535
3052	0.5734
3043	0.5896
3034	0.5888
3025	0.6006
3016	0.619
3007	0.6358
2998	0.6432
2989	0.6491
2980	0.654
2971	0.6587
2962	0.6628
2953	0.6667
2944	0.6698
2935	0.6686
2926	0.6637
2917	0.6632
2908	0.6664
2899	0.6569
2890	0.6575
2881	0.6697
2872	0.6801
2863	0.6889
2854	0.6968
2845	0.7045
2836	0.7101
2827	0.7146
2818	0.7189
2809	0.723
2800	0.7271
2791	0.7314
2782	0.7357
2773	0.7401
2764	0.7449
2755	0.7496
2746	0.7534
2737	0.7568
2728	0.76
2719	0.763
2710	0.7656
2701	0.7672
2692	0.7688
2683	0.7696
2674	0.7706
2665	0.7725
2656	0.7746
2647	0.7765
2638	0.7786
2629	0.7806
2620	0.7824
2611	0.7843
2602	0.7857
2593	0.7869
2584	0.7884
2575	0.7896
2566	0.7907
2557	0.7917
2548	0.7928
2539	0.7938
2530	0.7947
2521	0.7956
2512	0.7965
2503	0.7974
2494	0.7982
2485	0.7988
2476	0.7996
2467	0.8001
2458	0.8006
2449	0.8008
2440	0.801
2431	0.8008
2422	0.8008
2413	0.8008
2404	0.8015
2395	0.8037
2386	0.8061
2377	0.8075
2368	0.8082
2359	0.8088
2350	0.8087
2341	0.8078
2332	0.8065
2323	0.805
2314	0.8049
2305	0.8056
2296	0.8071
2287	0.8092
2278	0.8111
2269	0.8142
2260	0.8174
2251	0.8211
2242	0.8252
2233	0.8295
2224	0.835
2215	0.8402
2206	0.8446
2197	0.8461
2188	0.8477
2179	0.8493
2170	0.851
2161	0.8527
2152	0.8545
2143	0.8571
2134	0.8599
2125	0.8627
2116	0.8655
2107	0.8688
2098	0.8721
2089	0.8751
2080	0.8804
2071	0.885
2062	0.8874
2053	0.8897
2044	0.8921
2035	0.8953
2026	0.8984
2017	0.8999
2008	0.8974
1999	0.8921
1990	0.8893
1981	0.8873
1972	0.8874
1963	0.8831
1954	0.8777
1945	0.8775
1936	0.8774
1927	0.8744
1918	0.8745
1909	0.8804
1900	0.8871
1891	0.8938
1882	0.8997
1873	0.9014
1864	0.8999
1855	0.8983
1846	0.8968
1837	0.8956
1828	0.8984
1819	0.9042
1810	0.9025
1801	0.8999
1792	0.8988
1783	0.8983
1774	0.8904
1765	0.8915
1756	0.8883
1747	0.8795
1738	0.8747
1729	0.8684
1720	0.8547
1711	0.8267
1702	0.7617
1693	0.6224
1684	0.4522
1675	0.2702
1666	0.0669
1657	0.189
1648	0.4281
1639	0.515
1630	0.4034
1621	0.5567
1612	0.6062
1603	0.1899
1594	0.483
1585	0.5489
1576	0.5651
1567	0.578
1558	0.4592
1549	0.1537
1540	0.194
1531	0.3157
1522	0.5139
1513	0.3546
1504	0.297
1495	0.4954
1486	0.6582
1477	0.7011
1468	0.7188
1459	0.7558
1450	0.7622
1441	0.7381
1432	0.4925
1423	0.6998
1414	0.649
1405	0.5915
1396	0.6705
1387	0.7406
1378	0.7558
1369	0.729
1360	0.5746
1351	0.5544
1342	0.5426
1333	0.6611
1324	0.7431
1315	0.7415
1306	0.7241
1297	0.7104
1288	0.704
1279	0.6728
1270	0.5592
1261	0.6725
1252	0.7418
1243	0.7468
1234	0.6758
1225	0.6067
1216	0.6855
1207	0.7441
1198	0.7178
1189	0.7588
1180	0.7637
1171	0.7558
1162	0.748
1153	0.7474
1144	0.7142
1135	0.7547
1126	0.7071
1117	0.7593
1108	0.7275
1099	0.7271
1090	0.7628
1081	0.795
1072	0.8036
1063	0.8085
1054	0.8093
1045	0.8061
1036	0.8011
1027	0.7928
1018	0.7551
1009	0.7747
1000	0.7878
991	0.7958
982	0.785
973	0.7448
964	0.7171
955	0.7092
946	0.644
937	0.7032
928	0.7026
919	0.6705
910	0.6538
901	0.5446
892	0.4514
883	0.4131
874	0.4886
865	0.598
856	0.326
847	0.5062
838	0.7001
829	0.6331
820	0.4543
811	0.3496
802	0.6457
793	0.6875
784	0.6904
775	0.6268
766	0.6035
757	0.526
748	0.3232
739	0.3584
730	0.5322
721	0.5284
712	0.6425
703	0.7297
694	0.7811
685	0.8071
676	0.7796
667	0.6922
658	0.7187
649	0.7764
640	0.7458
631	0.7553
622	0.7896
613	0.769
604	0.8361
595	0.8551
586	0.8633
577	0.8681
568	0.8711
559	0.8712
550	0.8743
541	0.8732
532	0.8706
523	0.8638
514	0.8525
505	0.841
496	0.8215
487	0.7012
478	0.4706
469	0.4662
460	0.7386
451	0.724
442	0.6843
433	0.6302
424	0.5616
415	0.4929
406	0.4653
