Infrared Spectrum: CALCIUM CARBONATE (PRECIPITATED)
Formula: Ca C O3
CAS: 471-34-1
State: SOLID (0.3 mg / 300 mg CsI PELLET)
Class: COBLENTZ
Instrument: Not specified, most likely a grating spectrometer.
Sampling: TRANSMISSION
Resolution: 4
Origin: DESOTO CHEMICAL COATINGS, INC.
1/CM	TRANSMITTANCE
198.67	0.964
209.313	0.964
219.956	0.966
230.599	0.96
241.242	0.938
251.885	0.941
262.528	0.946
273.171	0.957
283.814	0.949
294.457	0.933
305.1	0.885
315.743	0.7841
326.386	0.603
337.029	0.608
347.672	0.66
358.315	0.721
368.959	0.79
379.602	0.849
390.245	0.898
400.888	0.912
411.531	0.925
422.174	0.936
432.817	0.945
443.46	0.95
454.103	0.957
464.746	0.96
475.389	0.962
486.032	0.964
496.675	0.968
507.318	0.974
517.961	0.972
528.604	0.976
539.247	0.977
549.89	0.976
560.533	0.977
571.176	0.978
581.819	0.98
592.462	0.982
603.105	0.98
613.748	0.981
624.391	0.98
635.034	0.981
645.677	0.981
656.32	0.981
666.963	0.982
677.606	0.984
688.25	0.984
698.893	0.98
709.536	0.976
720.179	0.944
730.822	0.969
741.465	0.978
752.108	0.98
762.751	0.981
773.394	0.98
784.037	0.977
794.68	0.978
805.323	0.973
815.966	0.976
826.609	0.973
837.252	0.974
847.895	0.973
858.538	0.969
869.181	0.962
879.824	0.707
890.467	0.945
901.11	0.962
911.753	0.958
922.396	0.961
933.039	0.961
943.682	0.962
954.325	0.962
964.968	0.957
975.611	0.953
986.254	0.953
996.897	0.952
1007.54	0.95
1018.18	0.945
1028.83	0.933
1039.47	0.934
1050.11	0.932
1060.76	0.93
1071.4	0.925
1082.04	0.921
1092.68	0.917
1103.33	0.921
1113.97	0.916
1124.61	0.914
1135.26	0.912
1145.9	0.913
1156.54	0.912
1167.19	0.912
1177.83	0.912
1188.47	0.912
1199.12	0.916
1209.76	0.918
1220.4	0.917
1231.04	0.918
1241.69	0.917
1252.33	0.917
1262.97	0.916
1273.62	0.914
1284.26	0.914
1294.9	0.912
1305.55	0.914
1316.19	0.909
1326.83	0.908
1337.47	0.905
1348.12	0.901
1358.76	0.898
1369.4	0.885
1380.05	0.866
1390.69	0.825
1401.33	0.713
1411.98	0.532
1422.62	0.233
1433.26	0.135
1443.9	0.117
1454.55	0.13
1465.19	0.205
1475.83	0.3521
1486.48	0.5079
1497.12	0.623
1507.76	0.692
1518.41	0.752
1529.05	0.788
1539.69	0.813
1550.34	0.841
1560.98	0.856
1571.62	0.861
1582.26	0.865
1592.91	0.861
1603.55	0.852
1614.19	0.848
1624.84	0.844
1635.48	0.854
1646.12	0.861
1656.77	0.866
1667.41	0.872
1678.05	0.876
1688.69	0.88
1699.34	0.88
1709.98	0.878
1720.62	0.88
1731.27	0.881
1741.91	0.88
1752.55	0.882
1763.2	0.882
1773.84	0.882
1784.48	0.882
1795.12	0.872
1805.77	0.869
1816.41	0.878
1827.05	0.882
1837.7	0.882
1848.34	0.88
1858.98	0.88
1869.63	0.88
1880.27	0.88
1890.91	0.878
1901.56	0.878
1912.2	0.878
1922.84	0.877
1933.48	0.88
1944.13	0.876
1954.77	0.873
1965.41	0.874
1976.06	0.876
1986.7	0.876
1997.34	0.873
2007.99	0.874
2018.63	0.878
2029.27	0.88
2039.91	0.878
2050.56	0.878
2061.2	0.877
2071.84	0.876
2082.49	0.876
2093.13	0.88
2103.77	0.881
2114.42	0.877
2125.06	0.88
2135.7	0.877
2146.34	0.8761
2156.99	0.877
2167.63	0.8781
2178.27	0.876
2188.92	0.873
2199.56	0.872
2210.2	0.872
2220.85	0.8739
2231.49	0.874
2242.13	0.874
2252.78	0.873
2263.42	0.872
2274.06	0.87
2284.7	0.869
2295.35	0.866
2305.99	0.8689
2316.63	0.8718
2327.28	0.874
2337.92	0.872
2348.56	0.873
2359.21	0.872
2369.85	0.8703
2380.49	0.8691
2391.13	0.8681
2401.78	0.865
2412.42	0.8611
2423.06	0.86
2433.71	0.857
2444.35	0.856
2454.99	0.854
2465.64	0.853
2476.28	0.852
2486.92	0.852
2497.57	0.8492
2508.21	0.8415
2518.85	0.8335
2529.49	0.8338
2540.14	0.837
2550.78	0.8408
2561.42	0.8436
2572.07	0.8424
2582.71	0.8412
2593.35	0.841
2604	0.842
2614.64	0.8424
2625.28	0.84
2635.92	0.838
2646.57	0.838
2657.21	0.838
2667.85	0.84
2678.5	0.84
2689.14	0.8372
2699.78	0.836
2710.43	0.834
2721.07	0.834
2731.71	0.8322
2742.35	0.832
2753	0.8305
2763.64	0.83
2774.28	0.83
2784.93	0.83
2795.57	0.83
2806.21	0.829
2816.86	0.829
2827.5	0.8265
2838.14	0.8243
2848.79	0.821
2859.43	0.8173
2870.07	0.813
2880.71	0.8093
2891.36	0.809
2902	0.81
2912.64	0.81
2923.29	0.806
2933.93	0.8043
2944.57	0.8034
2955.22	0.806
2965.86	0.804
2976.5	0.802
2987.14	0.802
2997.79	0.8033
3008.43	0.805
3019.07	0.806
3029.72	0.806
3040.36	0.8043
3051	0.802
3061.65	0.801
3072.29	0.801
3082.93	0.801
3093.57	0.801
3104.22	0.798
3114.86	0.797
3125.5	0.796
3136.15	0.797
3146.79	0.797
3157.43	0.797
3168.08	0.793
3178.72	0.79
3189.36	0.7854
3200.01	0.784
3210.65	0.782
3221.29	0.78
3231.93	0.781
3242.58	0.781
3253.22	0.781
3263.86	0.781
3274.51	0.78
3285.15	0.7734
3295.79	0.772
3306.44	0.7654
3317.08	0.7604
3327.72	0.757
3338.36	0.756
3349.01	0.75
3359.65	0.7459
3370.29	0.7395
3380.94	0.7325
3391.58	0.7264
3402.22	0.7195
3412.87	0.7125
3423.51	0.7085
3434.15	0.702
3444.79	0.6965
3455.44	0.694
3466.08	0.692
3476.72	0.691
3487.37	0.691
3498.01	0.6915
3508.65	0.6925
3519.3	0.6975
3529.94	0.7045
3540.58	0.709
3551.23	0.714
3561.87	0.7219
3572.51	0.7264
3583.15	0.7319
3593.8	0.736
3604.44	0.7414
3615.08	0.7495
3625.73	0.752
3636.37	0.7535
3647.01	0.7604
3657.66	0.76
3668.3	0.76
3678.94	0.7614
3689.58	0.7654
3700.23	0.7656
3710.87	0.7631
3721.51	0.761
3732.16	0.7644
3742.8	0.765
3753.44	0.764
3764.09	0.762
3774.73	0.761
3785.37	0.76
3796.02	0.7604
3806.66	0.7606
3817.3	0.76
3827.94	0.76
3838.59	0.76
3849.23	0.758
3859.87	0.758
3870.52	0.756
3881.16	0.754
3891.8	0.753
3902.45	0.752
3913.09	0.753
3923.73	0.754
3934.37	0.754
3945.02	0.7526
3955.66	0.752
3966.3	0.752
3976.95	0.75
3987.59	0.7513
