Infrared Spectrum: NEOABIETIC ACID
Formula: C20 H30 O2
CAS: 471-77-2
State: SOLUTION (10.3% CCl4 FOR 3800-1300, 10.4% CS2 FOR 1300-260)
Class: COBLENTZ II
Instrument: PERKIN-ELMER 521 (GRATING)
Instrument parameters: FILTERS AT 3150, 2500, 2000, 1150, 700, 410. GRATING CHANGES: 2000, 630
Sampling: TRANSMISSION
Path length: 0.013 CM, 0.012 CM
Resolution: 2
Origin: DOW CORNING CORP.
1/CM	TRANSMITTANCE
3800	0.9151
3791	0.9152
3782	0.9154
3773	0.9156
3764	0.9157
3755	0.9159
3746	0.916
3737	0.9161
3728	0.9164
3719	0.9168
3710	0.9174
3701	0.9174
3692	0.917
3683	0.9165
3674	0.9164
3665	0.9164
3656	0.9164
3647	0.9168
3638	0.9177
3629	0.9186
3620	0.9196
3611	0.9206
3602	0.9208
3593	0.9207
3584	0.9204
3575	0.92
3566	0.9192
3557	0.914
3548	0.9005
3539	0.8813
3530	0.8783
3521	0.884
3512	0.892
3503	0.9001
3494	0.8998
3485	0.8981
3476	0.8961
3467	0.8944
3458	0.8928
3449	0.8912
3440	0.8875
3431	0.8831
3422	0.8737
3413	0.8668
3404	0.8604
3395	0.8548
3386	0.8486
3377	0.8417
3368	0.8348
3359	0.8252
3350	0.8139
3341	0.8022
3332	0.7892
3323	0.7761
3314	0.7634
3305	0.7507
3296	0.7381
3287	0.7255
3278	0.7107
3269	0.6951
3260	0.6788
3251	0.6621
3242	0.6439
3233	0.6248
3224	0.6065
3215	0.5883
3206	0.5682
3197	0.5468
3188	0.5218
3179	0.5014
3170	0.4839
3161	0.4679
3152	0.4502
3143	0.4293
3134	0.4123
3125	0.396
3116	0.379
3107	0.3609
3098	0.342
3089	0.3191
3080	0.3029
3071	0.2944
3062	0.291
3053	0.2784
3044	0.2559
3035	0.2425
3026	0.2178
3017	0.1879
3008	0.1596
2999	0.1282
2990	0.1103
2981	0.0945
2972	0.0976
2963	0.097
2954	0.0612
2945	0.0275
2936	0.0183
2927	0.0135
2918	0.0189
2909	0.0366
2900	0.0725
2891	0.079
2882	0.0885
2873	0.0672
2864	0.0599
2855	0.0843
2846	0.1131
2837	0.1492
2828	0.1835
2819	0.2279
2810	0.2579
2801	0.302
2792	0.338
2783	0.3703
2774	0.3952
2765	0.4185
2756	0.4405
2747	0.4514
2738	0.4594
2729	0.4705
2720	0.491
2711	0.4953
2702	0.4916
2693	0.4837
2684	0.4737
2675	0.4597
2666	0.4339
2657	0.4187
2648	0.4172
2639	0.4237
2630	0.4378
2621	0.4522
2612	0.4679
2603	0.4842
2594	0.5012
2585	0.5164
2576	0.5305
2567	0.5431
2558	0.546
2549	0.5409
2540	0.5291
2531	0.5254
2522	0.5397
2513	0.5627
2504	0.5949
2495	0.6214
2486	0.6435
2477	0.6637
2468	0.6803
2459	0.6911
2450	0.7012
2441	0.7106
2432	0.72
2423	0.7304
2414	0.7408
2405	0.7506
2396	0.7596
2387	0.7684
2378	0.7756
2369	0.7825
2360	0.7888
2351	0.7948
2342	0.8008
2333	0.8068
2324	0.8121
2315	0.8165
2306	0.8211
2297	0.8256
2288	0.8294
2279	0.833
2270	0.8366
2261	0.8399
2252	0.8424
2243	0.8449
2234	0.8478
2225	0.8508
2216	0.8535
2207	0.8562
2198	0.858
2189	0.8596
2180	0.861
2171	0.8617
2162	0.8625
2153	0.8638
2144	0.8654
2135	0.8668
2126	0.868
2117	0.8691
2108	0.8703
2099	0.872
2090	0.8737
2081	0.8738
2072	0.874
2063	0.8743
2054	0.8747
2045	0.8749
2036	0.8743
2027	0.8743
2018	0.8725
2009	0.8691
2000	0.8704
1991	0.8714
1982	0.8692
1973	0.8668
1964	0.8633
1955	0.8599
1946	0.8575
1937	0.8551
1928	0.8512
1919	0.8474
1910	0.8442
1901	0.8414
1892	0.8385
1883	0.8353
1874	0.832
1865	0.8288
1856	0.8254
1847	0.821
1838	0.8171
1829	0.8151
1820	0.8144
1811	0.8143
1802	0.8158
1793	0.8205
1784	0.8212
1775	0.819
1766	0.8106
1757	0.7919
1748	0.7037
1739	0.6259
1730	0.6451
1721	0.623
1712	0.5167
1703	0.1152
1694	0.0011
1685	0.0786
1676	0.3006
1667	0.4632
1658	0.5887
1649	0.6687
1640	0.7181
1631	0.7399
1622	0.7355
1613	0.7592
1604	0.8085
1595	0.8334
1586	0.8414
1577	0.8436
1568	0.8459
1559	0.8442
1550	0.8304
1541	0.825
1532	0.8316
1523	0.837
1514	0.8408
1505	0.8392
1496	0.8312
1487	0.8021
1478	0.7048
1469	0.4983
1460	0.3773
1451	0.4125
1442	0.4362
1433	0.4598
1424	0.6124
1415	0.6721
1406	0.5343
1397	0.5153
1388	0.34
1379	0.5808
1370	0.5342
1361	0.6472
1352	0.7296
1343	0.6811
1334	0.6728
1325	0.7228
1316	0.5717
1307	0.5593
1298	0.4866
1289	0.3207
1280	0.1281
1271	0.1109
1262	0.2738
1253	0.4399
1244	0.6438
1235	0.7734
1226	0.7324
1217	0.5936
1208	0.7411
1199	0.6982
1190	0.6102
1181	0.3894
1172	0.4692
1163	0.7445
1154	0.6199
1145	0.7637
1136	0.7268
1127	0.7403
1118	0.6124
1109	0.6597
1100	0.7196
1091	0.8395
1082	0.8707
1073	0.8254
1064	0.8721
1055	0.8542
1046	0.7747
1037	0.7617
1028	0.7921
1019	0.6522
1010	0.8224
1001	0.7526
992	0.8057
983	0.7176
974	0.6085
965	0.5425
956	0.5402
947	0.4926
938	0.4968
929	0.5812
920	0.6399
911	0.6701
902	0.5402
893	0.6708
884	0.64
875	0.5954
866	0.6086
857	0.6805
848	0.8682
839	0.8689
830	0.7115
821	0.877
812	0.9259
803	0.9405
794	0.9509
785	0.8667
776	0.8977
767	0.9768
758	0.9788
749	0.9214
740	0.9375
731	0.9793
722	0.9496
713	0.8946
704	0.7228
695	0.9001
686	0.9868
677	1.0021
668	1.0034
659	0.9873
650	0.7891
641	0.9601
632	0.9813
623	0.9825
614	0.9675
605	0.9365
596	0.9406
587	0.899
578	0.9199
569	0.9088
560	0.8482
551	0.8357
542	0.8353
533	0.8866
524	0.9315
515	0.9454
506	0.9323
497	0.8847
488	0.8755
479	0.8874
470	0.9025
461	0.9082
452	0.8709
443	0.8896
434	0.8963
425	0.8814
416	0.8782
407	0.8764
398	0.8399
389	0.7975
380	0.8725
371	0.8998
362	0.9125
353	0.9318
344	0.9281
335	0.9196
326	0.9356
317	0.9345
308	0.9195
299	0.9121
290	0.8692
281	0.8516
272	0.8394
263	0.8282
