Infrared Spectrum: .alpha.-Fenchene
Formula: C 10 H 16
CAS: 471-84-1
State: gas
Instrument: HP-GC/MS/IRD
Origin: NIST Mass Spectrometry Data Center
1/CM	ABSORBANCE
550	0.000252
562	0.0005565
574	0.0004585
586	0.0002975
598	0.000161
610	0.0001715
622	9.1e-05
634	0.0001225
646	0.000133
658	7.7e-05
670	6.65e-05
682	6.65e-05
694	3.15e-05
706	0.000105
718	0.000266
730	0.0003745
742	0.0001715
754	0.0002205
766	0.0004095
778	0.000441
790	0.000182
802	0.000147
814	0.000294
826	0.000364
838	0.0005425
850	0.0007945
862	0.002366
874	0.0058345
886	0.005453
898	0.0016485
910	0.000525
922	0.000679
934	0.000602
946	0.0003815
958	0.0003325
970	0.0002975
982	0.000203
994	0.0002415
1006	0.000238
1018	9.45e-05
1030	6.3e-05
1042	0.0001435
1054	0.000189
1066	0.000147
1078	0.0002905
1090	0.0004165
1102	0.0003535
1114	0.00035
1126	0.000469
1138	0.0005565
1150	0.000574
1162	0.00049
1174	0.00056
1186	0.0010745
1198	0.001106
1210	0.0005775
1222	0.000525
1234	0.000497
1246	0.000364
1258	0.0004515
1270	0.0005845
1282	0.000469
1294	0.00056
1306	0.000714
1318	0.0004865
1330	0.000252
1342	0.000259
1354	0.0005145
1366	0.0012005
1378	0.0020545
1390	0.0024535
1402	0.0016345
1414	0.000791
1426	0.0009415
1438	0.001897
1450	0.0029855
1462	0.002744
1474	0.002366
1486	0.0018445
1498	0.000875
1510	0.0003255
1522	0.000203
1534	0.0002065
1546	0.00021
1558	0.0002135
1570	0.000217
1582	0.0002205
1594	0.000266
1606	0.000364
1618	0.0004725
1630	0.0007595
1642	0.00154
1654	0.0030905
1666	0.00329
1678	0.00154
1690	0.0005425
1702	0.000294
1714	0.0002205
1726	0.0002065
1738	0.0002135
1750	0.000378
1762	0.000595
1774	0.000455
1786	0.0001855
1798	0.0001085
1810	9.8e-05
1822	8.05e-05
1834	5.95e-05
1846	7e-05
1858	5.95e-05
1870	5.6e-05
1882	6.65e-05
1894	5.95e-05
1906	4.2e-05
1918	4.9e-05
1930	6.3e-05
1942	5.25e-05
1954	6.3e-05
1966	3.85e-05
1978	3.85e-05
1990	5.25e-05
2002	6.3e-05
2014	4.9e-05
2026	5.95e-05
2038	4.55e-05
2050	4.55e-05
2062	7.7e-05
2074	8.4e-05
2086	8.4e-05
2098	6.65e-05
2110	5.6e-05
2122	8.05e-05
2134	7.7e-05
2146	8.4e-05
2158	7.35e-05
2170	7.35e-05
2182	7e-05
2194	5.25e-05
2206	4.9e-05
2218	7e-05
2230	7e-05
2242	5.25e-05
2254	7.35e-05
2266	3.15e-05
2278	4.55e-05
2290	3.5e-05
2302	5.6e-05
2314	5.6e-05
2326	1.75e-05
2338	3.5e-05
2350	2.8e-05
2362	1.4e-05
2374	1.4e-05
2386	3.85e-05
2398	4.55e-05
2410	5.95e-05
2422	5.6e-05
2434	2.1e-05
2446	3.15e-05
2458	2.8e-05
2470	7.7e-05
2482	1.4e-05
2494	4.55e-05
2506	6.3e-05
2518	4.55e-05
2530	3.15e-05
2542	8.05e-05
2554	8.05e-05
2566	5.6e-05
2578	5.25e-05
2590	6.65e-05
2602	0.000105
2614	7.7e-05
2626	3.15e-05
2638	7.35e-05
2650	8.4e-05
2662	0.0001015
2674	0.000105
2686	0.0001435
2698	0.000126
2710	0.000119
2722	0.0001645
2734	0.000322
2746	0.0003395
2758	0.0002765
2770	0.0003115
2782	0.000371
2794	0.000371
2806	0.000455
2818	0.0006055
2830	0.0008505
2842	0.001232
2854	0.002324
2866	0.004508
2878	0.0082565
2890	0.010507
2902	0.009275
2914	0.0098
2926	0.014399
2938	0.0238105
2950	0.033754
2962	0.0332185
2974	0.0220325
2986	0.0130655
2998	0.008631
3010	0.0034195
3022	0.0014455
3034	0.001057
3046	0.0011095
3058	0.001925
3070	0.0030905
3082	0.002506
3094	0.001176
3106	0.0006405
3118	0.000546
3130	0.000476
3142	0.00042
3154	0.000434
3166	0.000378
3178	0.0002415
3190	0.000154
3202	0.000224
3214	0.000112
3226	0.0001155
3238	0.0002415
3250	0.00014
3262	0.000154
3274	0.0001295
3286	0.0001015
3298	0.0001225
3310	0.000154
3322	0.0001155
3334	0.0001715
3346	0.000112
3358	0.000154
3370	0.0001925
3382	0.0001435
3394	0.000133
3406	0.000147
3418	0.000133
3430	0.000112
3442	0.0001925
3454	0.0001225
3466	0.0001645
3478	0.000112
3490	0.0001365
3502	0.0001085
3514	0.000126
3526	0.0001645
3538	0.0001365
3550	0.000105
3562	0.00021
3574	0.000196
3586	0.0001085
3598	0.000119
3610	5.25e-05
3622	0.0001015
3634	0.0001155
3646	0.0001085
3658	0.0001015
3670	8.75e-05
3682	1.05e-05
3694	0.0001085
3706	5.25e-05
3718	0.0001365
3730	0.000126
3742	0.000189
3754	0.0001295
3766	0.0002205
3778	0.0001995
3790	0.0002205
3802	0.0001785
3814	0.000294
3826	0.0002415
3838	0.000161
