Infrared Spectrum: Bis(trimethylsilylmethyl) sulphide
Formula: C 8 H 22 S Si 2
CAS: 4712-51-0
State: gas
Origin: EPA-IR VAPOR PHASE LIBRARY
1/CM	ABSORBANCE
549.8	0.001953
559.445	0.0011175
569.09	0.0008807
578.734	0.0008521
588.379	0.001623
598.024	0.002353
607.669	0.001743
617.313	0.002653
626.958	0.002663
636.603	0.007233
646.248	0.015383
655.893	0.013293
665.537	0.008393
675.182	0.009873
684.827	0.017243
694.472	0.022283
704.116	0.018493
713.761	0.013313
723.406	0.010423
733.051	0.010143
742.695	0.011203
752.34	0.013703
761.985	0.017343
771.63	0.020873
781.275	0.021263
790.919	0.021023
800.564	0.022623
810.209	0.026833
819.854	0.042223
829.498	0.080593
839.143	0.141283
848.788	0.182373
858.433	0.161733
868.078	0.097663
877.722	0.055603
887.367	0.034613
897.012	0.024463
906.657	0.016493
916.301	0.011353
925.946	0.007353
935.591	0.004663
945.236	0.003033
954.88	0.002683
964.525	0.002313
974.17	0.002273
983.815	0.002083
993.46	0.001803
1003.1	0.000602679
1012.75	0.001643
1022.39	0.001893
1032.04	0.002223
1041.68	0.001693
1051.33	0.002663
1060.97	0.003293
1070.62	0.003733
1080.26	0.002283
1089.91	0.002653
1099.55	0.003643
1109.2	0.003293
1118.84	0.003183
1128.49	0.003573
1138.13	0.004713
1147.78	0.002953
1157.42	0.002833
1167.07	0.0012212
1176.71	0.001683
1186.36	0.001993
1196	0.003173
1205.64	0.003783
1215.29	0.005273
1224.93	0.008783
1234.58	0.016103
1244.22	0.035033
1253.87	0.055723
1263.51	0.055113
1273.16	0.033403
1282.8	0.014793
1292.45	0.009143
1302.09	0.006313
1311.74	0.004863
1321.38	0.004103
1331.03	0.003713
1340.67	0.003873
1350.32	0.004073
1359.96	0.004463
1369.61	0.006173
1379.25	0.009793
1388.9	0.014283
1398.54	0.011723
1408.18	0.007723
1417.83	0.006443
1427.47	0.005143
1437.12	0.003953
1446.76	0.003523
1456.41	0.002873
1466.05	0.002623
1475.7	0.002163
1485.34	0.001963
1494.99	0.0015708
1504.63	0.001593
1514.28	0.0015291
1523.92	0.0012209
1533.57	0.0011732
1543.21	0.0013193
1552.86	0.0011659
1562.5	0.0011923
1572.15	0.001167
1581.79	0.0010879
1591.44	0.0008242
1601.08	0.0009486
1610.73	0.0012899
1620.37	0.0008798
1630.01	0.0011231
1639.66	0.0011559
1649.3	0.0009466
1658.95	0.0008597
1668.59	0.0008041
1678.24	0.0008236
1687.88	0.0007391
1697.53	0.0008239
1707.17	0.0009577
1716.82	0.001206
1726.46	0.0012089
1736.11	0.0008961
1745.75	0.0009822
1755.4	0.0009831
1765.04	0.0008079
1774.69	0.0008263
1784.33	0.0008789
1793.98	0.00066346
1803.62	0.0008524
1813.27	0.0009743
1822.91	0.0008594
1832.55	0.0010824
1842.2	0.00114
1851.84	0.0012339
1861.49	0.0010597
1871.13	0.0009534
1880.78	0.001156
1890.42	0.001253
1900.07	0.0011017
1909.71	0.0010943
1919.36	0.001102
1929	0.001278
1938.65	0.0013746
1948.29	0.001569
1957.94	0.0014177
1967.58	0.0013868
1977.23	0.0012463
1986.87	0.0011022
1996.52	0.000755
2006.16	0.0009711
2015.81	0.0010305
2025.45	0.0007997
2035.1	0.0007446
2044.74	0.0007586
2054.38	0.0010521
2064.03	0.0007397
2073.67	0.0010004
2083.32	0.00068377
2092.96	0.0010715
2102.61	0.0012149
2112.25	0.0010432
2121.9	0.0009957
2131.54	0.001038
2141.19	0.0008389
2150.83	0.0008516
2160.48	0.00065311
2170.12	0.0007847
2179.77	0.0007863
2189.41	0.0007068
2199.06	0.0007425
2208.7	0.0007245
2218.35	0.0007135
2227.99	0.00063151
2237.64	0.0008189
2247.28	0.0007719
2256.92	0.000767
2266.57	0.0007549
2276.21	0.00068704
2285.86	0.0007172
2295.5	0.000856
2305.15	0.000475
2314.79	0.0007697
2324.44	0.00056
2334.08	0.00066364
2343.73	0.0005699
2353.37	0.000222
2363.02	0.000178
2372.66	0.000255
2382.31	0.00061627
2391.95	0.00042
2401.6	0.0005764
2411.24	0.000472
2420.89	0.000458
2430.53	0.0005864
2440.18	0.00068836
2449.82	0.000378
2459.47	0.000566
2469.11	0.000959
2478.75	0.000485
2488.4	0.0008256
2498.04	0.001175
2507.69	0.0009881
2517.33	0.0008074
2526.98	0.0008352
2536.62	0.0007254
2546.27	0.0005366
2555.91	0.000253
2565.56	0.00063429
2575.2	0.000389
2584.85	0.0005329
2594.49	0.000353
2604.14	0.000259
2613.78	0.0006418
2623.43	0.0005434
2633.07	0.000419
2642.72	0.0007085
2652.36	0.0011476
2662.01	0.00064202
2671.65	0.0008365
2681.29	0.0005261
2690.94	0.0008237
2700.58	0.00067509
2710.23	0.0009086
2719.87	0.0010604
2729.52	0.0010798
2739.16	0.0012997
2748.81	0.0015852
2758.45	0.0015816
2768.1	0.002223
2777.74	0.002653
2787.39	0.002343
2797.03	0.003303
2806.68	0.003583
2816.32	0.004363
2825.97	0.004703
2835.61	0.004793
2845.26	0.005323
2854.9	0.006133
2864.55	0.008983
2874.19	0.015803
2883.84	0.028343
2893.48	0.028553
2903.12	0.023733
2912.77	0.020493
2922.41	0.014723
2932.06	0.012603
2941.7	0.016643
2951.35	0.034013
2960.99	0.053663
2970.64	0.034333
2980.28	0.014263
2989.93	0.007523
2999.57	0.005083
3009.22	0.004003
3018.86	0.004023
3028.51	0.004123
3038.15	0.004263
3047.8	0.004663
3057.44	0.005033
3067.09	0.004583
3076.73	0.003993
3086.38	0.004193
3096.02	0.004033
3105.67	0.003213
3115.31	0.002793
3124.95	0.002183
3134.6	0.001953
3144.24	0.001783
3153.89	0.0014972
3163.53	0.0013491
3173.18	0.0015892
3182.82	0.0010908
3192.47	0.001873
3202.11	0.0011376
3211.76	0.0013452
3221.4	0.0014866
3231.05	0.00063186
3240.69	0.0014472
3250.34	0.00066422
3259.98	0.00060695
3269.63	0.0007769
3279.27	0.0007836
3288.92	0.0007488
3298.56	0.00063936
3308.21	0.000488
3317.85	0.00064276
3327.49	0.001
3337.14	0.000427
3346.78	0.000472
3356.43	0.00067058
3366.07	0.0005313
3375.72	0.0006561
3385.36	0.000262
3395.01	0.0008571
3404.65	0.0007585
3414.3	0.0007156
3423.94	0.00066926
3433.59	0.0010504
3443.23	0.000598108
3452.88	0.0008789
3462.52	0.0008018
3472.17	0.0007424
3481.81	0.0014085
3491.46	0.0010747
3501.1	0.0010627
3510.75	0.0010558
3520.39	0.00061541
3530.04	0.0012843
3539.68	0.001205
3549.32	0.0009274
3558.97	0.0011427
3568.61	0.001653
3578.26	0.0015639
3587.9	0.0012231
3597.55	0.0014988
3607.19	0.0014902
3616.84	0.0010309
3626.48	0.001813
3636.13	0.0014795
3645.77	0.0015371
3655.42	0.0014801
3665.06	0.0015148
3674.71	0.001653
3684.35	0.001247
3694	0.0010557
3703.64	0.0009593
3713.29	0.001643
3722.93	0.0015884
3732.58	0.0012554
3742.22	0.001973
3751.86	0.001753
3761.51	0.0015283
3771.15	0.0012972
3780.8	0.0010518
3790.44	0.0015212
3800.09	0.0008501
3809.73	0.0012664
3819.38	0.0013643
3829.02	0.0007242
3838.67	0.000227
3848.31	0.0005872
3857.96	0.000963
3867.6	0.0008362
3877.25	0.000453
3886.89	0.0009794
3896.54	0.0012686
3906.18	0.00062937
3915.83	0.0011912
3925.47	0.0010334
3935.12	0.00062075
3944.76	0.00066309
3954.41	0.0008689
3964.05	0.00066505
3973.69	0.0008875
3983.34	0.0004965
3992.98	0.000595617
