Infrared Spectrum: DIPHENYL HYDROGEN PHOSPHITE
Formula: C12 H11 O3 P
CAS: 4712-55-4
Class: COBLENTZ
Instrument: Not specified, most likely a prism, grating, or hybrid spectrometer.
Sampling: TRANSMISSION
Path length: SMEAR
Resolution: 4
Origin: TENNESSEE EASTMAN COMPANY, RESEARCH LABORATORIES
MICROMETERS	TRANSMITTANCE
2.028	0.861
2.06796	0.866
2.10791	0.866
2.14787	0.867
2.18782	0.876
2.22778	0.876
2.26774	0.876
2.30769	0.879
2.34765	0.882
2.3876	0.882
2.42756	0.881
2.46752	0.876
2.50747	0.886
2.54743	0.887
2.58738	0.887
2.62734	0.886
2.66729	0.886
2.70725	0.884
2.74721	0.884
2.78716	0.887
2.82712	0.887
2.86707	0.887
2.90703	0.867
2.94699	0.829
2.98694	0.774
3.0269	0.757
3.06685	0.78
3.10681	0.821
3.14677	0.827
3.18672	0.836
3.22668	0.794
3.26663	0.692
3.30659	0.795
3.34655	0.837
3.3865	0.839
3.42646	0.842
3.46641	0.844
3.50637	0.849
3.54633	0.856
3.58628	0.857
3.62624	0.857
3.66619	0.857
3.70615	0.861
3.74611	0.864
3.78606	0.866
3.82602	0.867
3.86597	0.867
3.90593	0.867
3.94588	0.867
3.98584	0.867
4.0258	0.857
4.06575	0.814
4.10571	0.769
4.14566	0.782
4.18562	0.824
4.22558	0.859
4.26553	0.817
4.30549	0.824
4.34544	0.866
4.3854	0.877
4.42536	0.879
4.46531	0.874
4.50527	0.881
4.54522	0.886
4.58518	0.891
4.62514	0.892
4.66509	0.892
4.70505	0.892
4.745	0.892
4.78496	0.892
4.82492	0.892
4.86487	0.892
4.90483	0.892
4.94478	0.892
4.98474	0.882
5.0247	0.854
5.06465	0.822
5.10461	0.819
5.14456	0.817
5.18452	0.839
5.22447	0.854
5.26443	0.851
5.30439	0.841
5.34434	0.831
5.3843	0.862
5.42425	0.871
5.46421	0.876
5.50417	0.874
5.54412	0.864
5.58408	0.841
5.62403	0.856
5.66399	0.861
5.70395	0.844
5.7439	0.831
5.78386	0.836
5.82381	0.819
5.86377	0.837
5.90373	0.829
5.94368	0.819
5.98364	0.824
6.02359	0.832
6.06355	0.816
6.10351	0.834
6.14346	0.822
6.18342	0.772
6.22337	0.513
6.26333	0.252
6.30329	0.488
6.34324	0.75
6.3832	0.804
6.42315	0.829
6.46311	0.797
6.50306	0.789
6.54302	0.734
6.58298	0.683
6.62293	0.436
6.66289	0.11
6.70284	0.207
6.7428	0.411
6.78276	0.662
6.82271	0.593
6.86267	0.754
6.90262	0.822
6.94258	0.826
6.98254	0.832
7.02249	0.826
7.06245	0.826
7.1024	0.817
7.14236	0.797
7.18232	0.801
7.22227	0.802
7.26223	0.792
7.30218	0.782
7.34214	0.785
7.3821	0.806
7.42205	0.812
7.46201	0.779
7.50196	0.77
7.54192	0.765
7.58188	0.71
7.62183	0.605
7.66179	0.546
7.70174	0.372
7.7417	0.193
7.78165	0.14
7.82161	0.138
7.86157	0.222
7.90152	0.316
7.94148	0.376
7.98143	0.394
8.02139	0.391
8.06135	0.351
8.1013	0.289
8.14126	0.219
8.18121	0.162
8.22117	0.138
8.26113	0.14
8.30108	0.117
8.34104	0.08
8.38099	0.08
8.42095	0.16
8.46091	0.307
8.50086	0.337
8.54082	0.235
8.58077	0.279
8.62073	0.429
8.66069	0.591
8.70064	0.677
8.7406	0.714
8.78055	0.737
8.82051	0.759
8.86047	0.764
8.90042	0.77
8.94038	0.77
8.98033	0.767
9.02029	0.764
9.06024	0.772
9.1002	0.777
9.14016	0.777
9.18011	0.772
9.22007	0.71
9.26002	0.548
9.29998	0.501
9.33994	0.65
9.37989	0.722
9.41985	0.752
9.4598	0.755
9.49976	0.749
9.53972	0.714
9.57967	0.68
9.61963	0.583
9.65958	0.476
9.69954	0.347
9.7395	0.349
9.77945	0.374
9.81941	0.311
9.85936	0.222
9.89932	0.285
9.93928	0.371
9.97923	0.371
10.0192	0.341
10.0591	0.324
10.0991	0.301
10.1391	0.279
10.179	0.26
10.219	0.252
10.2589	0.242
10.2989	0.207
10.3388	0.162
10.3788	0.122
10.4187	0.09
10.4587	0.073
10.4987	0.061
10.5386	0.056
10.5786	0.055
10.6185	0.055
10.6585	0.06
10.6984	0.066
10.7384	0.078
10.7784	0.096
10.8183	0.148
10.8583	0.234
10.8982	0.307
10.9382	0.356
10.9781	0.362
11.0181	0.341
11.058	0.342
11.098	0.394
11.138	0.481
11.1779	0.561
11.2179	0.6
11.2578	0.613
11.2978	0.615
11.3377	0.615
11.3777	0.615
11.4176	0.613
11.4576	0.615
11.4976	0.615
11.5375	0.61
11.5775	0.605
11.6174	0.613
11.6574	0.647
11.6973	0.683
11.7373	0.714
11.7772	0.734
11.8172	0.745
11.8572	0.747
11.8971	0.744
11.9371	0.73
11.977	0.717
12.017	0.704
12.0569	0.7
12.0969	0.702
12.1369	0.71
12.1768	0.727
12.2168	0.729
12.2567	0.724
12.2967	0.74
12.3366	0.755
12.3766	0.762
12.4165	0.762
12.4565	0.762
12.4965	0.75
12.5364	0.732
12.5764	0.7
12.6163	0.663
12.6563	0.603
12.6962	0.53
12.7362	0.439
12.7761	0.356
12.8161	0.285
12.8561	0.242
12.896	0.217
12.936	0.202
12.9759	0.185
13.0159	0.185
13.0558	0.182
13.0958	0.19
13.1358	0.217
13.1757	0.25
13.2157	0.289
13.2556	0.337
13.2956	0.389
13.3355	0.454
13.3755	0.525
13.4154	0.578
13.4554	0.607
13.4954	0.635
13.5353	0.652
13.5753	0.668
13.6152	0.673
13.6552	0.675
13.6951	0.672
13.7351	0.673
13.775	0.673
13.815	0.682
13.855	0.692
13.8949	0.697
13.9349	0.702
13.9748	0.705
14.0148	0.71
14.0547	0.709
14.0947	0.714
14.1346	0.712
14.1746	0.7
14.2146	0.68
14.2545	0.642
14.2945	0.583
14.3344	0.5
14.3744	0.418
14.4143	0.332
14.4543	0.267
14.4943	0.222
14.5342	0.227
14.5742	0.295
14.6141	0.381
14.6541	0.474
14.694	0.561
14.734	0.613
14.7739	0.65
14.8139	0.675
14.8539	0.687
14.8938	0.692
14.9338	0.692
14.9737	0.692
15.0137	0.697
15.0536	0.697
15.0936	0.697
15.1335	0.697
15.1735	0.697
15.2135	0.697
15.2534	0.693
15.2934	0.692
15.3333	0.693
15.3733	0.693
15.4132	0.693
15.4532	0.693
15.4932	0.69
15.5331	0.69
15.5731	0.69
15.613	0.688
15.653	0.682
15.6929	0.672
15.7329	0.665
15.7728	0.657
15.8128	0.652
15.8528	0.647
15.8927	0.637
15.9327	0.623
15.9726	0.615
