Infrared Spectrum: 1,8-Cyclopentadecadiyne
Formula: C 15 H 22
CAS: 4722-42-3
State: gas
Origin: EPA-IR VAPOR PHASE LIBRARY
1/CM	ABSORBANCE
549.8	0.002109
559.445	0.001949
569.09	0.001739
578.734	0.0008574
588.379	0.001669
598.024	0.001396
607.669	0.0010825
617.313	0.00058463
626.958	0.0014522
636.603	0.0010434
646.248	0.001999
655.893	0.00112
665.537	0.0012649
675.182	0.0014343
684.827	0.0014277
694.472	0.002129
704.116	0.001719
713.761	0.002439
723.406	0.004419
733.051	0.004859
742.695	0.004849
752.34	0.003829
761.985	0.002629
771.63	0.001649
781.275	0.001529
790.919	0.0013935
800.564	0.0014447
810.209	0.0012395
819.854	0.000287
829.498	0.0011977
839.143	0.001669
848.788	0.0014266
858.433	0.001959
868.078	0.001699
877.722	0.001729
887.367	0.001999
897.012	0.001839
906.657	0.0014487
916.301	0.0013098
925.946	0.0009015
935.591	0.0010271
945.236	0.0013564
954.88	0.0014611
964.525	0.001879
974.17	0.002169
983.815	0.002369
993.46	0.001689
1003.1	0.0011125
1012.75	0.0010448
1022.39	0.0009499
1032.04	0.0010205
1041.68	0.0013386
1051.33	0.002179
1060.97	0.001859
1070.62	0.003869
1080.26	0.003239
1089.91	0.001849
1099.55	0.0008052
1109.2	0.002679
1118.84	0.000885
1128.49	0.0014327
1138.13	0.0014239
1147.78	0.0010811
1157.42	0.0014587
1167.07	0.001599
1176.71	0.002139
1186.36	0.0008632
1196	0.002179
1205.64	0.002389
1215.29	0.004189
1224.93	0.004259
1234.58	0.003609
1244.22	0.002739
1253.87	0.003519
1263.51	0.004349
1273.16	0.004749
1282.8	0.006419
1292.45	0.007689
1302.09	0.008339
1311.74	0.010359
1321.38	0.018909
1331.03	0.037069
1340.67	0.035369
1350.32	0.023529
1359.96	0.012589
1369.61	0.007209
1379.25	0.004719
1388.9	0.003029
1398.54	0.003139
1408.18	0.003949
1417.83	0.005689
1427.47	0.011009
1437.12	0.029509
1446.76	0.035419
1456.41	0.026379
1466.05	0.016049
1475.7	0.006479
1485.34	0.003599
1494.99	0.002439
1504.63	0.002039
1514.28	0.001749
1523.92	0.001679
1533.57	0.001519
1543.21	0.0012015
1552.86	0.0013618
1562.5	0.0013533
1572.15	0.0014333
1581.79	0.0014052
1591.44	0.0013226
1601.08	0.0012658
1610.73	0.0012356
1620.37	0.0012639
1630.01	0.0010158
1639.66	0.0011186
1649.3	0.0010211
1658.95	0.0009761
1668.59	0.0008587
1678.24	0.0006347
1687.88	0.0007541
1697.53	0.0008757
1707.17	0.0008101
1716.82	0.0009516
1726.46	0.0007893
1736.11	0.0008435
1745.75	0.000738
1755.4	0.000699
1765.04	0.000793
1774.69	0.0008172
1784.33	0.0008142
1793.98	0.0007484
1803.62	0.0008739
1813.27	0.0006391
1822.91	0.0008562
1832.55	0.0009663
1842.2	0.0008228
1851.84	0.0007897
1861.49	0.0009727
1871.13	0.0009191
1880.78	0.0008558
1890.42	0.0007338
1900.07	0.0009303
1909.71	0.0007006
1919.36	0.0008262
1929	0.0007431
1938.65	0.0007961
1948.29	0.0007227
1957.94	0.00095
1967.58	0.0009159
1977.23	0.0008309
1986.87	0.0009789
1996.52	0.0008135
2006.16	0.001158
2015.81	0.0008895
2025.45	0.0011238
2035.1	0.0009151
2044.74	0.001081
2054.38	0.0010984
2064.03	0.0007832
2073.67	0.0009938
2083.32	0.0009647
2092.96	0.0009869
2102.61	0.0012745
2112.25	0.0012155
2121.9	0.0013508
2131.54	0.0009895
2141.19	0.00113
2150.83	0.0010872
2160.48	0.0012335
2170.12	0.0012331
2179.77	0.0010753
2189.41	0.001166
2199.06	0.0011737
2208.7	0.0011684
2218.35	0.0014273
2227.99	0.0013893
2237.64	0.0012413
2247.28	0.0011331
2256.92	0.0011355
2266.57	0.0010996
2276.21	0.0013022
2285.86	0.001318
2295.5	0.0010711
2305.15	0.0012266
2314.79	0.0010834
2324.44	0.00093
2334.08	0.0011811
2343.73	0.0008685
2353.37	0.0011522
2363.02	0.0008245
2372.66	0.0010978
2382.31	0.0011457
2391.95	0.0011772
2401.6	0.0010692
2411.24	0.0013283
2420.89	0.0010363
2430.53	0.0014326
2440.18	0.0010088
2449.82	0.0010956
2459.47	0.0009512
2469.11	0.0008913
2478.75	0.0008968
2488.4	0.001137
2498.04	0.0012416
2507.69	0.001669
2517.33	0.001819
2526.98	0.0014653
2536.62	0.001619
2546.27	0.0010943
2555.91	0.0013497
2565.56	0.001529
2575.2	0.002009
2584.85	0.001739
2594.49	0.001919
2604.14	0.001769
2613.78	0.001959
2623.43	0.002389
2633.07	0.002719
2642.72	0.003729
2652.36	0.004079
2662.01	0.003859
2671.65	0.003769
2681.29	0.003899
2690.94	0.004219
2700.58	0.003319
2710.23	0.003189
2719.87	0.002849
2729.52	0.002919
2739.16	0.002729
2748.81	0.003179
2758.45	0.003809
2768.1	0.003819
2777.74	0.004139
2787.39	0.004889
2797.03	0.005529
2806.68	0.006839
2816.32	0.008649
2825.97	0.011519
2835.61	0.018479
2845.26	0.040609
2854.9	0.081079
2864.55	0.116929
2874.19	0.079349
2883.84	0.046909
2893.48	0.047609
2903.12	0.073829
2912.77	0.124039
2922.41	0.216519
2932.06	0.333609
2941.7	0.298249
2951.35	0.142099
2960.99	0.053749
2970.64	0.024569
2980.28	0.013959
2989.93	0.009459
2999.57	0.006979
3009.22	0.005909
3018.86	0.005179
3028.51	0.004329
3038.15	0.003489
3047.8	0.003799
3057.44	0.003009
3067.09	0.003379
3076.73	0.003019
3086.38	0.002649
3096.02	0.002339
3105.67	0.002029
3115.31	0.001679
3124.95	0.001769
3134.6	0.0014166
3144.24	0.001859
3153.89	0.001569
3163.53	0.0012601
3173.18	0.0014385
3182.82	0.001669
3192.47	0.0012761
3202.11	0.0011082
3211.76	0.001729
3221.4	0.001839
3231.05	0.0012227
3240.69	0.0006735
3250.34	0.0008954
3259.98	0.0013585
3269.63	0.0011859
3279.27	0.0009862
3288.92	0.0009315
3298.56	0.0012234
3308.21	0.0009227
3317.85	0.001529
3327.49	0.0013996
3337.14	0.0013266
3346.78	0.0008556
3356.43	0.001331
3366.07	0.0013668
3375.72	0.000492447
3385.36	0.0010014
3395.01	0.0014334
3404.65	0.000645
3414.3	0.0007746
3423.94	0.001569
3433.59	0.0012604
3443.23	0.0011193
3452.88	0.00051412
3462.52	0.0008103
3472.17	0.0007813
3481.81	0.0007417
3491.46	0.0006169
3501.1	0.0008239
3510.75	0.0012892
3520.39	0.0010044
3530.04	0.0008834
3539.68	0.00050927
3549.32	0.0006902
3558.97	0.0004432
3568.61	0.0007611
3578.26	0.0007212
3587.9	0.0004269
3597.55	0.0006131
3607.19	0.0008742
3616.84	0.0012986
3626.48	0.00095
3636.13	0.00053663
3645.77	0.0005375
3655.42	0.0009456
3665.06	0.0011246
3674.71	0.001267
3684.35	0.0008877
3694	0.000495612
3703.64	0.0011781
3713.29	0.0008659
3722.93	0.0009008
3732.58	0.0006818
3742.22	0.0006997
3751.86	0.0014733
3761.51	0.0009871
3771.15	0.0012069
3780.8	0.0009965
3790.44	0.0008333
3800.09	0.0011103
3809.73	0.0008543
3819.38	0.0008745
3829.02	0.00038
3838.67	0.0006696
3848.31	0.0009771
3857.96	0.00119
3867.6	0.0008347
3877.25	0.0009245
3886.89	0.0008932
3896.54	0.0008248
3906.18	0.0006188
3915.83	0.0014303
3925.47	0.0012282
3935.12	0.0012616
3944.76	0.0007091
3954.41	0.001218
3964.05	0.0008594
3973.69	0.0012778
3983.34	0.0010514
3992.98	0.0013283
