Infrared Spectrum: Diethyl biphenyl-4,4'-dicarboxylate
Formula: C 18 H 18 O 4
CAS: 47230-38-6
State: gas
Origin: EPA-IR VAPOR PHASE LIBRARY
1/CM	ABSORBANCE
549.8	0.002777
559.445	0.001967
569.09	0.001497
578.734	0.001667
588.379	0.0012091
598.024	0.0011902
607.669	0.0010285
617.313	0.0010396
626.958	0.001507
636.603	0.001867
646.248	0.001237
655.893	0.001237
665.537	0.001807
675.182	0.004857
684.827	0.004637
694.472	0.010137
704.116	0.014527
713.761	0.010007
723.406	0.005837
733.051	0.005397
742.695	0.009667
752.34	0.028737
761.985	0.046187
771.63	0.026167
781.275	0.015687
790.919	0.011277
800.564	0.009417
810.209	0.008127
819.854	0.007447
829.498	0.010287
839.143	0.021187
848.788	0.031897
858.433	0.017337
868.078	0.011977
877.722	0.008557
887.367	0.004747
897.012	0.003567
906.657	0.003287
916.301	0.003237
925.946	0.003277
935.591	0.003537
945.236	0.003867
954.88	0.004157
964.525	0.004697
974.17	0.005597
983.815	0.006737
993.46	0.012977
1003.1	0.045747
1012.75	0.031367
1022.39	0.036197
1032.04	0.046307
1041.68	0.015427
1051.33	0.011837
1060.97	0.015027
1070.62	0.024007
1080.26	0.048397
1089.91	0.122607
1099.55	0.304597
1109.2	0.322757
1118.84	0.134167
1128.49	0.054967
1138.13	0.030367
1147.78	0.022767
1157.42	0.024387
1167.07	0.033177
1176.71	0.067227
1186.36	0.053457
1196	0.029297
1205.64	0.027387
1215.29	0.032177
1224.93	0.054687
1234.58	0.105097
1244.22	0.104977
1253.87	0.217277
1263.51	0.532067
1273.16	0.492307
1282.8	0.199997
1292.45	0.090907
1302.09	0.053137
1311.74	0.045427
1321.38	0.024897
1331.03	0.016207
1340.67	0.013937
1350.32	0.016127
1359.96	0.024657
1369.61	0.054847
1379.25	0.027537
1388.9	0.026167
1398.54	0.030427
1408.18	0.022567
1417.83	0.021017
1427.47	0.013557
1437.12	0.013437
1446.76	0.015667
1456.41	0.017317
1466.05	0.020737
1475.7	0.020947
1485.34	0.013707
1494.99	0.010207
1504.63	0.007737
1514.28	0.006617
1523.92	0.006157
1533.57	0.005857
1543.21	0.006227
1552.86	0.008107
1562.5	0.009777
1572.15	0.009527
1581.79	0.009347
1591.44	0.017097
1601.08	0.046327
1610.73	0.052067
1620.37	0.017557
1630.01	0.010677
1639.66	0.007647
1649.3	0.006687
1658.95	0.006617
1668.59	0.007737
1678.24	0.010237
1687.88	0.014017
1697.53	0.020077
1707.17	0.025417
1716.82	0.043327
1726.46	0.116147
1736.11	0.350097
1745.75	0.231517
1755.4	0.073527
1765.04	0.029827
1774.69	0.018357
1784.33	0.014187
1793.98	0.012407
1803.62	0.011227
1813.27	0.006417
1822.91	0.004497
1832.55	0.003487
1842.2	0.002997
1851.84	0.002867
1861.49	0.002897
1871.13	0.002857
1880.78	0.003087
1890.42	0.002937
1900.07	0.002977
1909.71	0.003427
1919.36	0.004727
1929	0.005257
1938.65	0.004367
1948.29	0.003697
1957.94	0.003387
1967.58	0.003267
1977.23	0.002927
1986.87	0.002367
1996.52	0.001887
2006.16	0.001627
2015.81	0.001597
2025.45	0.001627
2035.1	0.001647
2044.74	0.001707
2054.38	0.001527
2064.03	0.001577
2073.67	0.001657
2083.32	0.001707
2092.96	0.001857
2102.61	0.002087
2112.25	0.002537
2121.9	0.002487
2131.54	0.002057
2141.19	0.001607
2150.83	0.001307
2160.48	0.0012094
2170.12	0.000935
2179.77	0.0009569
2189.41	0.0009808
2199.06	0.0011367
2208.7	0.0011006
2218.35	0.0011367
2227.99	0.001297
2237.64	0.0012026
2247.28	0.0010244
2256.92	0.0011249
2266.57	0.001267
2276.21	0.001407
2285.86	0.001557
2295.5	0.001357
2305.15	0.001247
2314.79	0.0011186
2324.44	0.0008671
2334.08	0.001091
2343.73	0.001297
2353.37	0.001457
2363.02	0.001557
2372.66	0.001877
2382.31	0.001677
2391.95	0.001517
2401.6	0.001427
2411.24	0.0012102
2420.89	0.001257
2430.53	0.0010605
2440.18	0.0010178
2449.82	0.0011001
2459.47	0.0011081
2469.11	0.0009887
2478.75	0.0008468
2488.4	0.0009972
2498.04	0.0010865
2507.69	0.0011055
2517.33	0.0012048
2526.98	0.001397
2536.62	0.001747
2546.27	0.001897
2555.91	0.001347
2565.56	0.001247
2575.2	0.0011747
2584.85	0.0011849
2594.49	0.0011238
2604.14	0.0010608
2613.78	0.001237
2623.43	0.001136
2633.07	0.0008395
2642.72	0.0005367
2652.36	0.0006018
2662.01	0.0007
2671.65	0.0007614
2681.29	0.0005097
2690.94	0.0007226
2700.58	0.0007486
2710.23	0.0006881
2719.87	0.0009048
2729.52	0.0011191
2739.16	0.0010866
2748.81	0.001257
2758.45	0.001467
2768.1	0.001707
2777.74	0.001757
2787.39	0.001767
2797.03	0.001767
2806.68	0.001807
2816.32	0.002187
2825.97	0.002597
2835.61	0.002827
2845.26	0.003427
2854.9	0.004117
2864.55	0.005467
2874.19	0.007947
2883.84	0.011497
2893.48	0.011047
2903.12	0.011857
2912.77	0.014967
2922.41	0.014227
2932.06	0.016687
2941.7	0.027387
2951.35	0.024687
2960.99	0.023197
2970.64	0.030607
2980.28	0.048327
2989.93	0.052027
2999.57	0.030427
3009.22	0.020937
3018.86	0.013217
3028.51	0.009327
3038.15	0.010837
3047.8	0.012617
3057.44	0.009297
3067.09	0.007117
3076.73	0.007907
3086.38	0.008087
3096.02	0.008327
3105.67	0.005527
3115.31	0.003677
3124.95	0.002997
3134.6	0.002587
3144.24	0.001967
3153.89	0.001427
3163.53	0.001317
3173.18	0.001257
3182.82	0.0011656
3192.47	0.0010204
3202.11	0.000864
3211.76	0.0012
3221.4	0.0009355
3231.05	0.0007315
3240.69	0.000713
3250.34	0.0007091
3259.98	0.0006018
3269.63	0.0005093
3279.27	0.0005039
3288.92	0.0006274
3298.56	0.0004544
3308.21	0.000496
3317.85	0.0006574
3327.49	0.0003811
3337.14	0.0007996
3346.78	0.0009453
3356.43	0.0008676
3366.07	0.0006747
3375.72	0.0006224
3385.36	0.0004777
3395.01	0.0004916
3404.65	0.0007361
3414.3	0.0003964
3423.94	0.0007367
3433.59	0.0007891
3443.23	0.001557
3452.88	0.003007
3462.52	0.003007
3472.17	0.001687
3481.81	0.0010561
3491.46	0.0009541
3501.1	0.0006801
3510.75	0.0004978
3520.39	0.0004748
3530.04	0.0005812
3539.68	0.0004889
3549.32	0.0003176
3558.97	0.0003594
3568.61	0.000113
3578.26	0.0001594
3587.9	0.0004222
3597.55	0.0003949
3607.19	0.0003223
3616.84	0.0003902
3626.48	0.00030528
3636.13	0.0004642
3645.77	0.0004134
3655.42	0.0003634
3665.06	0.0005682
3674.71	0.0004562
3684.35	0.0003284
3694	0.0005136
3703.64	0.0003957
3713.29	0.0003546
3722.93	0.0007761
3732.58	0.0005307
3742.22	0.0005317
3751.86	0.0004058
3761.51	0.0005261
3771.15	0.0005742
3780.8	0.0006069
3790.44	0.0004381
3800.09	0.0004439
3809.73	0.0003413
3819.38	0.0005185
3829.02	0.0004877
3838.67	0.000653
3848.31	0.0003182
3857.96	9.8e-05
3867.6	0.0005239
3877.25	0.0005179
3886.89	0.00028152
3896.54	0.0005179
3906.18	0.0005741
3915.83	0.0001452
3925.47	0.0004206
3935.12	0.0005272
3944.76	0.0006419
3954.41	0.0004448
3964.05	0.0004578
3973.69	0.0004057
3983.34	0.0004923
3992.98	0.0003641
