Infrared Spectrum: 1,3,5,5-Tetramethyl-1,3-cyclohexadiene
Formula: C 10 H 16
CAS: 4724-89-4
State: gas
Instrument: HP-GC/MS/IRD
Origin: NIST Mass Spectrometry Data Center
1/CM	ABSORBANCE
550	0.000897
562	0.001278
574	0.001593
586	0.000957
598	0.000246
610	0.000171
622	0.000129
634	0.000132
646	0.00021
658	0.000129
670	0.000102
682	7.8e-05
694	9.3e-05
706	7.2e-05
718	0.000132
730	2.1e-05
742	0.000144
754	7.8e-05
766	0.000141
778	0.000399
790	0.001488
802	0.004191
814	0.00486
826	0.002331
838	0.001455
850	0.000747
862	0.000633
874	0.00057
886	0.000462
898	0.000486
910	0.00084
922	0.000909
934	0.000567
946	0.000507
958	0.000402
970	0.000261
982	0.000321
994	0.000756
1006	0.001062
1018	0.00087
1030	0.000738
1042	0.000384
1054	0.000189
1066	0.000108
1078	3.6e-05
1090	8.7e-05
1102	0.000192
1114	0.00039
1126	0.000675
1138	0.001281
1150	0.001326
1162	0.000645
1174	0.000396
1186	0.000381
1198	0.000453
1210	0.000768
1222	0.001251
1234	0.001203
1246	0.000774
1258	0.000678
1270	0.001131
1282	0.001248
1294	0.000726
1306	0.000507
1318	0.000642
1330	0.001206
1342	0.002493
1354	0.003957
1366	0.004707
1378	0.004083
1390	0.003018
1402	0.001314
1414	0.001728
1426	0.003021
1438	0.004428
1450	0.005397
1462	0.004944
1474	0.003348
1486	0.001554
1498	0.000627
1510	0.000399
1522	0.000324
1534	0.000336
1546	0.000366
1558	0.000435
1570	0.000606
1582	0.000939
1594	0.001494
1606	0.001593
1618	0.001101
1630	0.000762
1642	0.000966
1654	0.002085
1666	0.002643
1678	0.001233
1690	0.000438
1702	0.000312
1714	0.000234
1726	0.000213
1738	0.000153
1750	0.000141
1762	0.000123
1774	8.1e-05
1786	0.000126
1798	0.00012
1810	0.000114
1822	0.000126
1834	0.000141
1846	0.000126
1858	9e-05
1870	8.4e-05
1882	8.4e-05
1894	4.8e-05
1906	9.3e-05
1918	5.4e-05
1930	6.9e-05
1942	7.8e-05
1954	5.1e-05
1966	3.9e-05
1978	3.3e-05
1990	3e-06
2002	4.8e-05
2014	3.3e-05
2026	5.7e-05
2038	5.1e-05
2050	5.4e-05
2062	2.7e-05
2074	4.5e-05
2086	3.6e-05
2098	3.6e-05
2110	3.3e-05
2122	2.4e-05
2134	2.4e-05
2146	5.4e-05
2158	3e-05
2170	3.3e-05
2182	4.5e-05
2194	9e-06
2206	0
2218	3.9e-05
2230	3e-06
2242	3.6e-05
2254	6.6e-05
2266	9e-05
2278	8.4e-05
2290	7.8e-05
2302	5.7e-05
2314	8.4e-05
2326	4.8e-05
2338	7.2e-05
2350	3.3e-05
2362	0.000105
2374	7.8e-05
2386	7.8e-05
2398	5.7e-05
2410	7.2e-05
2422	4.8e-05
2434	2.7e-05
2446	3.6e-05
2458	2.7e-05
2470	7.8e-05
2482	7.2e-05
2494	9.3e-05
2506	6.6e-05
2518	5.1e-05
2530	3.3e-05
2542	2.7e-05
2554	2.7e-05
2566	5.4e-05
2578	4.2e-05
2590	6.3e-05
2602	9.9e-05
2614	0.000126
2626	7.5e-05
2638	3.3e-05
2650	3e-05
2662	6.6e-05
2674	0.000132
2686	0.000207
2698	0.000318
2710	0.000462
2722	0.000651
2734	0.000885
2746	0.000744
2758	0.000552
2770	0.000576
2782	0.000756
2794	0.001305
2806	0.0027
2818	0.004734
2830	0.004434
2842	0.005043
2854	0.010323
2866	0.015822
2878	0.015336
2890	0.013674
2902	0.017232
2914	0.021711
2926	0.021897
2938	0.01989
2950	0.022179
2962	0.03
2974	0.020991
2986	0.009726
2998	0.007275
3010	0.00753
3022	0.006417
3034	0.00405
3046	0.002652
3058	0.001899
3070	0.001554
3082	0.001299
3094	0.001032
3106	0.000729
3118	0.000582
3130	0.000438
3142	0.000357
3154	0.000324
3166	0.000309
3178	0.000267
3190	0.000366
3202	0.000357
3214	0.00033
3226	0.000285
3238	0.000213
3250	0.000186
3262	0.000111
3274	0.000135
3286	0.00012
3298	0.000204
3310	0.000156
3322	9.3e-05
3334	0.000105
3346	9e-05
3358	6.6e-05
3370	9e-05
3382	0.000105
3394	3.3e-05
3406	0.00012
3418	0.000135
3430	0.000117
3442	0.000147
3454	0.000141
3466	9.3e-05
3478	9.6e-05
3490	0.000105
3502	0.000126
3514	9.6e-05
3526	0.000108
3538	5.4e-05
3550	8.7e-05
3562	9e-06
3574	0.000108
3586	0.000108
3598	6e-05
3610	0.000129
3622	0.000123
3634	0.000117
3646	6.6e-05
3658	8.4e-05
3670	4.2e-05
3682	0.00015
3694	0.000111
3706	0.000147
3718	6.3e-05
3730	0.000108
3742	0.000117
3754	0.000141
3766	0.000171
3778	0.000123
3790	0.000186
3802	0.000159
3814	0.000147
3826	0.000159
3838	0.000123
