Infrared Spectrum: BENZENAMINE,4-METHYLSULFONYL-2,6-DINITRO-N,N-DIPROPYL-
Formula: C13 H19 N3 O6 S
CAS: 4726-14-1
State: SOLID (1.2 mg / 300 mg KBr DISC)
Melting point: 149 C
Class: COBLENTZ III
Instrument: PERKIN-ELMER 180 (GRATING)
Instrument parameters: GRATINGS: 2000, 1000, 500, 250 CM^-^1; FILTER CHANGE: 2970, 2000, 1485, 1000, 743, 500, 372, 250, 186 CM^-^1.
Sampling: TRANSMISSION
Path length: SCALE ATTENUATION: REDUCED 15%
Resolution: 2
Origin: K. K. DEB-NCI FREDERICK CANCER RESEARCH CENTER
1/CM	TRANSMITTANCE
381	0.8222
390	0.83
399	0.8183
408	0.8043
417	0.7973
426	0.7695
435	0.8174
444	0.7944
453	0.8154
462	0.8209
471	0.8505
480	0.8403
489	0.8008
498	0.7379
507	0.7141
516	0.7896
525	0.8087
534	0.4368
543	0.7216
552	0.8438
561	0.8274
570	0.7037
579	0.6971
588	0.8125
597	0.859
606	0.8677
615	0.8397
624	0.8729
633	0.8899
642	0.8887
651	0.8774
660	0.8638
669	0.8778
678	0.8683
687	0.8798
696	0.874
705	0.7669
714	0.6154
723	0.848
732	0.6714
741	0.7304
750	0.49
759	0.7879
768	0.7067
777	0.6572
786	0.7632
795	0.8671
804	0.8585
813	0.8983
822	0.9057
831	0.9039
840	0.8991
849	0.8907
858	0.8843
867	0.8696
876	0.8378
885	0.8101
894	0.7205
903	0.6083
912	0.5472
921	0.7586
930	0.8064
939	0.8796
948	0.8727
957	0.8326
966	0.75
975	0.3371
984	0.7293
993	0.8616
1002	0.8787
1011	0.8688
1020	0.8475
1029	0.8499
1038	0.8315
1047	0.8357
1056	0.8405
1065	0.8248
1074	0.7498
1083	0.7083
1092	0.5031
1101	0.5109
1110	0.6996
1119	0.5264
1128	0.1848
1137	0.4861
1146	0.7341
1155	0.5962
1164	0.4442
1173	0.35
1182	0.3161
1191	0.7206
1200	0.8031
1209	0.7709
1218	0.6433
1227	0.7999
1236	0.7432
1245	0.6294
1254	0.6747
1263	0.5554
1272	0.6461
1281	0.6168
1290	0.6392
1299	0.6163
1308	0.4565
1317	0.1551
1326	0.3371
1335	0.4795
1344	0.3649
1353	0.27
1362	0.3698
1371	0.5586
1380	0.6278
1389	0.6339
1398	0.5859
1407	0.6928
1416	0.7749
1425	0.749
1434	0.5057
1443	0.5707
1452	0.5586
1461	0.512
1470	0.5989
1479	0.6001
1488	0.5218
1497	0.6233
1506	0.6329
1515	0.4216
1524	0.2026
1533	0.1129
1542	0.1892
1551	0.2601
1560	0.5187
1569	0.7374
1578	0.7568
1587	0.7057
1596	0.4295
1605	0.163
1614	0.3983
1623	0.652
1632	0.7122
1641	0.7676
1650	0.8156
1659	0.8457
1668	0.8625
1677	0.873
1686	0.8791
1695	0.8807
1704	0.8817
1713	0.8827
1722	0.8855
1731	0.8912
1740	0.8976
1749	0.9049
1758	0.91
1767	0.9117
1776	0.9133
1785	0.9144
1794	0.9148
1803	0.9103
1812	0.9044
1821	0.8977
1830	0.8871
1839	0.895
1848	0.9039
1857	0.9053
1866	0.9069
1875	0.9076
1884	0.9067
1893	0.9057
1902	0.9051
1911	0.9055
1920	0.9069
1929	0.9082
1938	0.9095
1947	0.911
1956	0.9125
1965	0.9133
1974	0.9141
1983	0.9146
1992	0.9141
2001	0.9135
2010	0.9126
2019	0.9116
2028	0.9107
2037	0.9097
2046	0.9085
2055	0.9073
2064	0.9071
2073	0.908
2082	0.9096
2091	0.9102
2100	0.9102
2109	0.9097
2118	0.9087
2127	0.9076
2136	0.9067
2145	0.9059
2154	0.9052
2163	0.9047
2172	0.9043
2181	0.9043
2190	0.9043
2199	0.9049
2208	0.9056
2217	0.9068
2226	0.906
2235	0.9038
2244	0.9001
2253	0.8963
2262	0.8965
2271	0.8925
2280	0.8881
2289	0.8901
2298	0.8948
2307	0.8974
2316	0.8987
2325	0.8994
2334	0.8998
2343	0.8993
2352	0.8985
2361	0.8973
2370	0.8965
2379	0.8959
2388	0.8962
2397	0.8958
2406	0.8931
2415	0.8899
2424	0.8868
2433	0.885
2442	0.8871
2451	0.8893
2460	0.8903
2469	0.89
2478	0.889
2487	0.8874
2496	0.8854
2505	0.8842
2514	0.8838
2523	0.8834
2532	0.8832
2541	0.8823
2550	0.8809
2559	0.8783
2568	0.8775
2577	0.879
2586	0.8819
2595	0.8807
2604	0.878
2613	0.8752
2622	0.8721
2631	0.8728
2640	0.8757
2649	0.8765
2658	0.8767
2667	0.8756
2676	0.8736
2685	0.8713
2694	0.8682
2703	0.8648
2712	0.8622
2721	0.8599
2730	0.8583
2739	0.8571
2748	0.856
2757	0.8556
2766	0.8552
2775	0.8543
2784	0.8531
2793	0.8511
2802	0.8469
2811	0.8376
2820	0.8245
2829	0.8083
2838	0.7877
2847	0.763
2856	0.7232
2865	0.6742
2874	0.6252
2883	0.6688
2892	0.6971
2901	0.6781
2910	0.6567
2919	0.6171
2928	0.5641
2937	0.5583
2946	0.6006
2955	0.5921
2964	0.5182
2973	0.5373
2982	0.6295
2991	0.7217
3000	0.7746
3009	0.767
3018	0.727
3027	0.7789
3036	0.7773
3045	0.7545
3054	0.7465
3063	0.7665
3072	0.7578
3081	0.7762
3090	0.803
3099	0.8273
3108	0.8376
3117	0.8383
3126	0.8383
3135	0.8396
3144	0.8412
3153	0.8422
3162	0.8419
3171	0.8411
3180	0.84
3189	0.8389
3198	0.8378
3207	0.8367
3216	0.8357
3225	0.8347
3234	0.8335
3243	0.8323
3252	0.8312
3261	0.8295
3270	0.8279
3279	0.8262
3288	0.8245
3297	0.8222
3306	0.8199
3315	0.817
3324	0.8132
3333	0.8073
3342	0.8013
3351	0.7947
3360	0.7881
3369	0.7823
3378	0.7769
3387	0.7725
3396	0.7689
3405	0.767
3414	0.765
3423	0.7639
3432	0.763
3441	0.7629
3450	0.7632
3459	0.7649
3468	0.7669
3477	0.7696
3486	0.7726
3495	0.7761
3504	0.7796
3513	0.7834
3522	0.7876
3531	0.7917
3540	0.7958
3549	0.7998
3558	0.8038
3567	0.8075
3576	0.8109
3585	0.8143
3594	0.8177
3603	0.821
3612	0.8244
3621	0.8272
3630	0.8298
3639	0.8316
3648	0.833
3657	0.8332
3666	0.8317
3675	0.8297
3684	0.8308
3693	0.8341
3702	0.8367
3711	0.8368
3720	0.8357
3729	0.8341
3738	0.8325
3747	0.8318
3756	0.8316
3765	0.8312
3774	0.8309
3783	0.8305
