Infrared Spectrum: Cyclopentadecanol
Formula: C 15 H 30 O
CAS: 4727-17-7
State: gas
Instrument: HP-GC/MS/IRD
Origin: NIST Mass Spectrometry Data Center
1/CM	ABSORBANCE
550	0.0001898
562	4.38e-05
574	7.3e-05
586	5.84e-05
598	0.000146
610	0.0001387
622	9.49e-05
634	6.57e-05
646	6.57e-05
658	9.49e-05
670	0.000146
682	0.0002701
694	0.0004453
706	0.0010293
718	0.0011826
730	0.0009782
742	0.0008468
754	0.0006424
766	0.0004891
778	0.0004088
790	0.0004307
802	0.0004088
814	0.0003723
826	0.0004818
838	0.0005183
850	0.0005548
862	0.0006643
874	0.0006862
886	0.0007446
898	0.0008103
910	0.0009344
922	0.0011023
934	0.0012994
946	0.0014016
958	0.0015987
970	0.0018761
982	0.0023068
994	0.0029784
1006	0.0035113
1018	0.0037595
1030	0.0031974
1042	0.0025769
1054	0.0024309
1066	0.002701
1078	0.0027083
1090	0.0025696
1102	0.0021973
1114	0.0017155
1126	0.0014527
1138	0.0014892
1150	0.0015549
1162	0.0015403
1174	0.0015111
1186	0.0015841
1198	0.0016425
1210	0.001752
1222	0.0019564
1234	0.0020513
1246	0.0020221
1258	0.0020075
1270	0.0019564
1282	0.0019564
1294	0.0018615
1306	0.0016936
1318	0.0014965
1330	0.0015987
1342	0.0023141
1354	0.0028324
1366	0.0025039
1378	0.0021535
1390	0.0018031
1402	0.0013578
1414	0.0011023
1426	0.0011753
1438	0.0024893
1450	0.0052706
1462	0.0058181
1474	0.0026353
1486	0.0009709
1498	0.0006205
1510	0.0005548
1522	0.000438
1534	0.0003066
1546	0.0002701
1558	0.0003504
1570	0.0001752
1582	0.0001022
1594	7.3e-05
1606	0.0001168
1618	0.0001606
1630	7.3e-05
1642	7.3e-05
1654	0.0002409
1666	0.0001022
1678	0.0001022
1690	8.03e-05
1702	0.0001752
1714	0.0001022
1726	5.84e-05
1738	0.0001022
1750	0.0001022
1762	6.57e-05
1774	0.0001022
1786	4.38e-05
1798	5.11e-05
1810	4.38e-05
1822	5.11e-05
1834	2.19e-05
1846	5.11e-05
1858	1.46e-05
1870	5.84e-05
1882	1.46e-05
1894	2.92e-05
1906	7.3e-06
1918	2.19e-05
1930	7.3e-06
1942	2.92e-05
1954	2.19e-05
1966	2.92e-05
1978	2.19e-05
1990	7.3e-06
2002	3.65e-05
2014	4.38e-05
2026	7.3e-06
2038	4.38e-05
2050	5.11e-05
2062	3.65e-05
2074	5.11e-05
2086	1.46e-05
2098	7.3e-06
2110	2.92e-05
2122	0
2134	2.19e-05
2146	0
2158	2.19e-05
2170	2.92e-05
2182	3.65e-05
2194	2.92e-05
2206	2.92e-05
2218	3.65e-05
2230	2.92e-05
2242	3.65e-05
2254	1.46e-05
2266	4.38e-05
2278	2.92e-05
2290	5.11e-05
2302	5.11e-05
2314	5.84e-05
2326	5.84e-05
2338	3.65e-05
2350	5.84e-05
2362	3.65e-05
2374	3.65e-05
2386	3.65e-05
2398	4.38e-05
2410	6.57e-05
2422	4.38e-05
2434	5.11e-05
2446	2.19e-05
2458	5.84e-05
2470	5.84e-05
2482	5.84e-05
2494	6.57e-05
2506	0.0001168
2518	0.000146
2530	0.0001752
2542	0.0001898
2554	0.0001752
2566	0.0001825
2578	0.0002409
2590	0.0002555
2602	0.0002993
2614	0.0003358
2626	0.000438
2638	0.0005037
2650	0.0005767
2662	0.0006862
2674	0.0007665
2686	0.0008249
2698	0.0007446
2710	0.0006789
2722	0.000657
2734	0.000657
2746	0.0007081
2758	0.0007811
2770	0.0008687
2782	0.0010731
2794	0.0013432
2806	0.0016863
2818	0.0023287
2830	0.003212
2842	0.0054823
2854	0.0160235
2866	0.0269808
2878	0.0171331
2890	0.0121253
2902	0.017739
2914	0.0325726
2926	0.0580715
2938	0.0701384
2950	0.0360766
2962	0.0141474
2974	0.0061612
2986	0.0032996
2998	0.0019856
3010	0.0013724
3022	0.001022
3034	0.0007665
3046	0.0006351
3058	0.0005183
3070	0.0004234
3082	0.0003869
3094	0.0003139
3106	0.0002847
3118	0.0002628
3130	0.0002117
3142	0.0001825
3154	0.0001752
3166	0.0001898
3178	0.0001533
3190	0.0001606
3202	0.0001387
3214	0.0001241
3226	9.49e-05
3238	8.03e-05
3250	8.03e-05
3262	8.03e-05
3274	4.38e-05
3286	7.3e-05
3298	4.38e-05
3310	4.38e-05
3322	2.92e-05
3334	5.11e-05
3346	5.11e-05
3358	4.38e-05
3370	3.65e-05
3382	2.19e-05
3394	2.92e-05
3406	5.11e-05
3418	6.57e-05
3430	7.3e-05
3442	5.84e-05
3454	3.65e-05
3466	5.11e-05
3478	4.38e-05
3490	2.19e-05
3502	5.11e-05
3514	0
3526	1.46e-05
3538	7.3e-06
3550	5.11e-05
3562	3.65e-05
3574	5.84e-05
3586	8.76e-05
3598	0.0001241
3610	0.0002044
3622	0.0003796
3634	0.0006789
3646	0.0014527
3658	0.001387
3670	0.000511
3682	0.0001825
3694	0.0001387
3706	0.0001387
3718	7.3e-05
3730	0.0001606
3742	0.0001825
3754	0.000146
3766	0.0001095
3778	6.57e-05
3790	8.76e-05
3802	0.0001533
3814	0.0001825
3826	0.000146
3838	0.0002044
