Infrared Spectrum: Quinolinium compounds, 1-ethyl-4-[3-(1-ethyl-4(1H)-quinolylidene)propenyl]-iodide
Formula: C25 H25 I N2
CAS: 4727-50-8
State: SOLID (SPLIT MULL), FLUOROLUBE FOR 3800-1330 CM^-^1, NUJOL FOR 1330-400 CM^-^1
Class: COBLENTZ III
Instrument: BECKMAN IR-9 (GRATING)
Instrument parameters: ORDER CHANGES: 670, 1200, 2000 CM^-^1
Sampling: TRANSMISSION
Resolution: 2
Origin: DOW CHEMICAL COMPANY
1/CM	TRANSMITTANCE
402	0.5852
411	0.5872
420	0.6012
429	0.6414
438	0.7169
447	0.7517
456	0.7599
465	0.7418
474	0.8064
483	0.8071
492	0.8091
501	0.7676
510	0.8153
519	0.8121
528	0.7318
537	0.6688
546	0.8463
555	0.857
564	0.8344
573	0.8266
582	0.8571
591	0.8665
600	0.8571
609	0.8266
618	0.7714
627	0.8191
636	0.8781
645	0.8554
654	0.8458
663	0.86
672	0.8593
681	0.8548
690	0.8425
699	0.8206
708	0.8125
717	0.7692
726	0.6675
735	0.7042
744	0.6868
753	0.56
762	0.5643
771	0.5944
780	0.6546
789	0.6541
798	0.5541
807	0.7003
816	0.7093
825	0.7065
834	0.7072
843	0.7031
852	0.674
861	0.671
870	0.6789
879	0.6905
888	0.7042
897	0.6969
906	0.6855
915	0.6684
924	0.6421
933	0.581
942	0.5116
951	0.4788
960	0.4788
969	0.4923
978	0.5139
987	0.5358
996	0.5299
1005	0.5031
1014	0.5131
1023	0.482
1032	0.3966
1041	0.2724
1050	0.2766
1059	0.4474
1068	0.3672
1077	0.2572
1086	0.2378
1095	0.2996
1104	0.1984
1113	0.1555
1122	0.1972
1131	0.208
1140	0.1294
1149	0.0875
1158	0.1108
1167	0.2493
1176	0.2384
1185	0.1716
1194	0.1291
1203	0.1042
1212	0.1182
1221	0.3979
1230	0.3545
1239	0.2949
1248	0.3723
1257	0.3226
1266	0.3864
1275	0.3946
1284	0.522
1293	0.5767
1302	0.6242
1311	0.4196
1320	0.4255
1329	0.6451
1338	0.6411
1347	0.6315
1356	0.6484
1365	0.6556
1374	0.6224
1383	0.5898
1392	0.3799
1401	0.4312
1410	0.6861
1419	0.7105
1428	0.6845
1437	0.6359
1446	0.5066
1455	0.5589
1464	0.5439
1473	0.4797
1482	0.3458
1491	0.4047
1500	0.3584
1509	0.2021
1518	0.1885
1527	0.2406
1536	0.2856
1545	0.4059
1554	0.5768
1563	0.8118
1572	0.8461
1581	0.8408
1590	0.82
1599	0.7631
1608	0.6139
1617	0.5799
1626	0.7055
1635	0.8485
1644	0.8668
1653	0.8634
1662	0.8575
1671	0.8538
1680	0.8524
1689	0.8509
1698	0.8452
1707	0.837
1716	0.8297
1725	0.8255
1734	0.827
1743	0.8265
1752	0.8247
1761	0.822
1770	0.8193
1779	0.8169
1788	0.8142
1797	0.8103
1806	0.8065
1815	0.8033
1824	0.8
1833	0.7969
1842	0.7941
1851	0.791
1860	0.7878
1869	0.785
1878	0.7822
1887	0.7796
1896	0.7769
1905	0.7745
1914	0.7721
1923	0.7704
1932	0.7688
1941	0.7672
1950	0.7657
1959	0.7639
1968	0.7614
1977	0.7589
1986	0.7558
1995	0.7519
2004	0.7471
2013	0.7445
2022	0.7419
2031	0.7395
2040	0.7369
2049	0.7344
2058	0.7317
2067	0.729
2076	0.7262
2085	0.7237
2094	0.7214
2103	0.719
2112	0.7165
2121	0.7142
2130	0.7119
2139	0.7096
2148	0.7074
2157	0.705
2166	0.7025
2175	0.6996
2184	0.6968
2193	0.6939
2202	0.6903
2211	0.6865
2220	0.6828
2229	0.6792
2238	0.6757
2247	0.6725
2256	0.6696
2265	0.6667
2274	0.6639
2283	0.6622
2292	0.6604
2301	0.658
2310	0.6557
2319	0.6547
2328	0.6543
2337	0.6539
2346	0.6544
2355	0.6555
2364	0.6567
2373	0.6578
2382	0.6538
2391	0.6469
2400	0.6443
2409	0.6436
2418	0.6428
2427	0.6421
2436	0.6415
2445	0.6408
2454	0.6395
2463	0.638
2472	0.6364
2481	0.6354
2490	0.6344
2499	0.6334
2508	0.6324
2517	0.6312
2526	0.6303
2535	0.6292
2544	0.6282
2553	0.6271
2562	0.626
2571	0.6245
2580	0.6231
2589	0.6216
2598	0.6203
2607	0.6188
2616	0.6175
2625	0.616
2634	0.6146
2643	0.6133
2652	0.6122
2661	0.611
2670	0.6096
2679	0.608
2688	0.6064
2697	0.6051
2706	0.6038
2715	0.6024
2724	0.601
2733	0.6005
2742	0.6003
2751	0.5997
2760	0.5987
2769	0.5978
2778	0.5968
2787	0.594
2796	0.5907
2805	0.5873
2814	0.584
2823	0.5807
2832	0.5773
2841	0.5733
2850	0.5692
2859	0.565
2868	0.5619
2877	0.5597
2886	0.5596
2895	0.559
2904	0.5552
2913	0.5469
2922	0.5379
2931	0.5325
2940	0.5345
2949	0.5376
2958	0.5362
2967	0.5295
2976	0.525
2985	0.526
2994	0.5393
3003	0.5414
3012	0.5412
3021	0.5389
3030	0.536
3039	0.5359
3048	0.5355
3057	0.5356
3066	0.5364
3075	0.537
3084	0.5376
3093	0.5383
3102	0.5393
3111	0.5401
3120	0.5423
3129	0.5421
3138	0.5412
3147	0.54
3156	0.5377
3165	0.5352
3174	0.5327
3183	0.5297
3192	0.5267
3201	0.5238
3210	0.5214
3219	0.5189
3228	0.5165
3237	0.5141
3246	0.5121
3255	0.51
3264	0.508
3273	0.5059
3282	0.5038
3291	0.5015
3300	0.4993
3309	0.4969
3318	0.4946
3327	0.4923
3336	0.49
3345	0.4875
3354	0.4849
3363	0.4824
3372	0.4798
3381	0.4773
3390	0.4752
3399	0.4733
3408	0.4715
3417	0.4699
3426	0.4693
3435	0.4686
3444	0.468
3453	0.4674
3462	0.4674
3471	0.4676
3480	0.468
3489	0.4682
3498	0.4692
3507	0.4701
3516	0.471
3525	0.4721
3534	0.4734
3543	0.4749
3552	0.4764
3561	0.4776
3570	0.4788
3579	0.4793
3588	0.4781
3597	0.4834
3606	0.4836
3615	0.483
3624	0.4822
3633	0.481
3642	0.4795
3651	0.478
3660	0.4765
3669	0.4748
3678	0.4732
3687	0.4722
3696	0.4712
3705	0.4702
3714	0.4692
3723	0.4684
3732	0.4675
3741	0.4666
3750	0.4657
3759	0.4646
3768	0.4636
3777	0.4624
3786	0.4609
3795	0.459
