Infrared Spectrum: 1,2,3-Trimethylcyclopentene
Formula: C 8 H 14
CAS: 473-91-6
State: gas
Instrument: HP-GC/MS/IRD
Origin: NIST Mass Spectrometry Data Center
1/CM	ABSORBANCE
550	0.0001036
562	5.55e-05
574	0.0001221
586	0.0001739
598	0.0003367
610	0.0002886
622	0.0002146
634	6.66e-05
646	3.7e-06
658	0.0001776
670	0.0001887
682	0.0001147
694	0.0001887
706	0.0001665
718	0.0001628
730	0.0001184
742	0.0002294
754	0.0001776
766	0.0001813
778	0.0002479
790	0.0002553
802	0.0002257
814	0.0002368
826	0.0002553
838	0.0001924
850	0.0002257
862	0.000259
874	0.0002442
886	0.0002738
898	0.0002553
910	0.0003256
922	0.0002923
934	0.0003367
946	0.0003663
958	0.0004144
970	0.000444
982	0.0005106
994	0.0005624
1006	0.0007252
1018	0.0008954
1030	0.0009842
1042	0.0009509
1054	0.0009731
1066	0.0012506
1078	0.0016058
1090	0.0016724
1102	0.0011692
1114	0.0007289
1126	0.000555
1138	0.0004625
1150	0.0005661
1162	0.000814
1174	0.0009361
1186	0.0008251
1198	0.0008436
1210	0.000962
1222	0.000925
1234	0.000666
1246	0.0005365
1258	0.0005106
1270	0.0006105
1282	0.0007289
1294	0.0008436
1306	0.0010952
1318	0.0019203
1330	0.0025234
1342	0.0022052
1354	0.0017168
1366	0.0023495
1378	0.003404
1390	0.00296
1402	0.0016946
1414	0.0013727
1426	0.0020017
1438	0.0034854
1450	0.0049691
1462	0.0044289
1474	0.0026159
1486	0.001295
1498	0.0008436
1510	0.0007141
1522	0.0007548
1534	0.000777
1546	0.0008584
1558	0.0008251
1570	0.0007104
1582	0.000592
1594	0.0004736
1606	0.0003885
1618	0.0003108
1630	0.0002849
1642	0.0002701
1654	0.0002812
1666	0.0003478
1678	0.0003996
1690	0.0003145
1702	0.0001739
1714	0.0001036
1726	0.0001036
1738	9.99e-05
1750	0.000111
1762	0.0001036
1774	0.0001036
1786	7.4e-05
1798	6.66e-05
1810	5.55e-05
1822	3.33e-05
1834	3.7e-05
1846	6.29e-05
1858	5.18e-05
1870	5.92e-05
1882	5.18e-05
1894	7.03e-05
1906	5.18e-05
1918	3.7e-05
1930	2.59e-05
1942	4.44e-05
1954	5.92e-05
1966	5.18e-05
1978	7.4e-05
1990	4.81e-05
2002	3.33e-05
2014	2.22e-05
2026	4.07e-05
2038	2.96e-05
2050	3.7e-06
2062	7.4e-06
2074	1.85e-05
2086	1.48e-05
2098	2.22e-05
2110	2.59e-05
2122	7.4e-06
2134	1.85e-05
2146	1.85e-05
2158	1.48e-05
2170	2.22e-05
2182	3.7e-05
2194	4.07e-05
2206	2.59e-05
2218	3.33e-05
2230	3.33e-05
2242	4.81e-05
2254	5.92e-05
2266	3.7e-05
2278	5.92e-05
2290	5.18e-05
2302	6.66e-05
2314	6.66e-05
2326	9.99e-05
2338	8.88e-05
2350	8.51e-05
2362	0.0001184
2374	6.66e-05
2386	0.0001184
2398	9.99e-05
2410	0.0001406
2422	0.0001406
2434	0.0001184
2446	0.0001036
2458	9.62e-05
2470	0.0001258
2482	0.000111
2494	0.0001221
2506	0.0001295
2518	0.000148
2530	0.0001665
2542	0.0001887
2554	0.0002257
2566	0.0002553
2578	0.0002775
2590	0.0003404
2602	0.0003737
2614	0.0003737
2626	0.0003848
2638	0.0003626
2650	0.0003441
2662	0.000296
2674	0.0003034
2686	0.0003589
2698	0.0004329
2710	0.0005735
2722	0.0007844
2734	0.0011285
2746	0.0013024
2758	0.0011951
2770	0.0011433
2782	0.0013764
2794	0.0018759
2806	0.0026455
2818	0.0041995
2830	0.0080364
2842	0.0154697
2854	0.0221556
2866	0.026418
2878	0.0254819
2890	0.0215932
2902	0.0216376
2914	0.0273948
2926	0.0322751
2938	0.0340622
2950	0.037
2962	0.0338328
2974	0.0224294
2986	0.0108669
2998	0.0059977
3010	0.004588
3022	0.0041921
3034	0.0036667
3046	0.0028564
3058	0.0021793
3070	0.0017094
3082	0.0014171
3094	0.0012099
3106	0.0009768
3118	0.0007733
3130	0.0005994
3142	0.0004958
3154	0.0004477
3166	0.0004588
3178	0.0004181
3190	0.0003478
3202	0.0002701
3214	0.0002146
3226	0.0001665
3238	0.000148
3250	0.0001591
3262	0.0001665
3274	0.0001554
3286	0.0001036
3298	0.0001036
3310	0.0001184
3322	7.03e-05
3334	9.25e-05
3346	0.0001036
3358	0.0001036
3370	7.77e-05
3382	0.0001332
3394	7.03e-05
3406	2.59e-05
3418	4.44e-05
3430	4.07e-05
3442	5.18e-05
3454	6.66e-05
3466	4.44e-05
3478	5.92e-05
3490	6.29e-05
3502	5.55e-05
3514	6.66e-05
3526	3.33e-05
3538	4.44e-05
3550	5.92e-05
3562	3.7e-05
3574	3.33e-05
3586	4.81e-05
3598	4.81e-05
3610	7.03e-05
3622	5.92e-05
3634	5.18e-05
3646	7.03e-05
3658	5.18e-05
3670	2.22e-05
3682	5.18e-05
3694	6.66e-05
3706	4.44e-05
3718	5.92e-05
3730	7.77e-05
3742	7.77e-05
3754	8.14e-05
3766	0.000111
3778	9.25e-05
3790	8.51e-05
3802	0.0001443
3814	0.0001369
3826	0.0001369
3838	0.0001517
