Infrared Spectrum: p-TOLUENESULFONAMIDE, N,N-DICHLORO-
Formula: C7 H7 Cl2 N O2 S
CAS: 473-34-7
State: SOLID (NUJOL MULL)
Class: COBLENTZ III
Instrument: DOW NaCl PRISM SPECTROMETER
Sampling: TRANSMISSION
Resolution: 2
Origin: DOW CHEMICAL COMPANY
1/CM	TRANSMITTANCE
4000	0.4292
3991	0.4299
3982	0.4307
3973	0.4315
3964	0.4324
3955	0.4332
3946	0.434
3937	0.4349
3928	0.4357
3919	0.4365
3910	0.4373
3901	0.4382
3892	0.4391
3883	0.4399
3874	0.4407
3865	0.4416
3856	0.4425
3847	0.4436
3838	0.4446
3829	0.4457
3820	0.4468
3811	0.4478
3802	0.4488
3793	0.4499
3784	0.451
3775	0.4521
3766	0.4532
3757	0.4543
3748	0.4554
3739	0.4562
3730	0.4573
3721	0.4583
3712	0.4592
3703	0.4602
3694	0.4612
3685	0.4623
3676	0.4633
3667	0.4643
3658	0.4652
3649	0.4659
3640	0.4667
3631	0.4675
3622	0.4682
3613	0.4689
3604	0.4697
3595	0.4705
3586	0.4712
3577	0.472
3568	0.4727
3559	0.4735
3550	0.4743
3541	0.4751
3532	0.4759
3523	0.4767
3514	0.4774
3505	0.4779
3496	0.4784
3487	0.4788
3478	0.4793
3469	0.4799
3460	0.4803
3451	0.4808
3442	0.4812
3433	0.4818
3424	0.4823
3415	0.4831
3406	0.4838
3397	0.4846
3388	0.4854
3379	0.4862
3370	0.487
3361	0.4878
3352	0.4886
3343	0.4894
3334	0.49
3325	0.4906
3316	0.4912
3307	0.4918
3298	0.4925
3289	0.4931
3280	0.4938
3271	0.4944
3262	0.4951
3253	0.4957
3244	0.4962
3235	0.497
3226	0.4976
3217	0.4983
3208	0.4987
3199	0.4992
3190	0.4997
3181	0.5002
3172	0.5006
3163	0.5005
3154	0.5005
3145	0.5005
3136	0.5003
3127	0.4996
3118	0.4989
3109	0.4982
3100	0.497
3091	0.4959
3082	0.4947
3073	0.4934
3064	0.4917
3055	0.4899
3046	0.4882
3037	0.4846
3028	0.4807
3019	0.4766
3010	0.4678
3001	0.458
2992	0.4436
2983	0.4141
2974	0.3577
2965	0.3173
2956	0.2766
2947	0.2357
2938	0.1944
2929	0.1631
2920	0.1598
2911	0.1615
2902	0.1825
2893	0.2216
2884	0.2402
2875	0.2493
2866	0.2533
2857	0.2601
2848	0.2811
2839	0.342
2830	0.4209
2821	0.4989
2812	0.529
2803	0.5453
2794	0.5587
2785	0.5685
2776	0.5735
2767	0.5758
2758	0.5774
2749	0.5779
2740	0.5768
2731	0.5753
2722	0.5745
2713	0.5747
2704	0.5751
2695	0.5758
2686	0.5767
2677	0.5783
2668	0.5806
2659	0.5828
2650	0.5844
2641	0.5859
2632	0.5862
2623	0.5862
2614	0.586
2605	0.5857
2596	0.5853
2587	0.5879
2578	0.5926
2569	0.598
2560	0.6036
2551	0.6077
2542	0.6089
2533	0.6076
2524	0.6081
2515	0.61
2506	0.6127
2497	0.6151
2488	0.6173
2479	0.6194
2470	0.6212
2461	0.623
2452	0.6248
2443	0.6266
2434	0.6283
2425	0.6299
2416	0.6307
2407	0.6303
2398	0.6247
2389	0.6184
2380	0.6137
2371	0.6123
2362	0.6126
2353	0.6144
2344	0.6181
2335	0.625
2326	0.6352
2317	0.6462
2308	0.6507
2299	0.6507
2290	0.6493
2281	0.649
2272	0.6491
2263	0.65
2254	0.6521
2245	0.6565
2236	0.6608
2227	0.6621
2218	0.6628
2209	0.664
2200	0.6651
2191	0.6667
2182	0.6682
2173	0.6697
2164	0.6711
2155	0.6728
2146	0.6744
2137	0.6762
2128	0.6783
2119	0.6799
2110	0.6805
2101	0.681
2092	0.6818
2083	0.6831
2074	0.6843
2065	0.6855
2056	0.6868
2047	0.6883
2038	0.6898
2029	0.6912
2020	0.6926
2011	0.694
2002	0.6953
1993	0.6967
1984	0.6982
1975	0.6997
1966	0.701
1957	0.7008
1948	0.6949
1939	0.6867
1930	0.6821
1921	0.6914
1912	0.7065
1903	0.7093
1894	0.7092
1885	0.7091
1876	0.7096
1867	0.7121
1858	0.7189
1849	0.7192
1840	0.7287
1831	0.725
1822	0.7138
1813	0.7086
1804	0.7164
1795	0.7247
1786	0.7285
1777	0.7251
1768	0.7248
1759	0.7237
1750	0.7191
1741	0.7178
1732	0.7258
1723	0.7322
1714	0.7293
1705	0.7283
1696	0.7284
1687	0.7292
1678	0.7258
1669	0.7115
1660	0.7065
1651	0.7264
1642	0.7358
1633	0.7226
1624	0.7165
1615	0.6906
1606	0.5994
1597	0.4304
1588	0.5403
1579	0.6521
1570	0.6875
1561	0.7093
1552	0.7097
1543	0.7103
1534	0.7155
1525	0.7096
1516	0.7094
1507	0.7086
1498	0.6705
1489	0.6286
1480	0.5782
1471	0.454
1462	0.4272
1453	0.4902
1444	0.555
1435	0.6145
1426	0.6202
1417	0.6072
1408	0.5835
1399	0.5796
1390	0.4406
1381	0.2418
1372	0.2413
1363	0.4585
1354	0.5443
1345	0.5917
1336	0.626
1327	0.6515
1318	0.6095
1309	0.448
1300	0.5794
1291	0.658
1282	0.683
1273	0.6946
1264	0.6918
1255	0.6961
1246	0.7041
1237	0.6946
1228	0.6864
1219	0.6475
1210	0.6283
1201	0.4917
1192	0.3671
1183	0.2663
1174	0.1527
1165	0.335
1156	0.4779
1147	0.5427
1138	0.589
1129	0.5892
1120	0.5958
1111	0.6238
1102	0.6084
1093	0.5778
1084	0.4062
1075	0.6223
1066	0.6468
1057	0.6706
1048	0.6465
1039	0.6441
1030	0.6865
1021	0.6415
1012	0.705
1003	0.713
994	0.7188
985	0.7232
976	0.719
967	0.7272
958	0.7121
949	0.7248
940	0.7132
931	0.7125
922	0.7108
913	0.7061
904	0.7022
895	0.699
886	0.6957
877	0.6911
868	0.6834
859	0.6753
850	0.6611
841	0.6301
832	0.6078
823	0.5114
814	0.369
805	0.5028
796	0.5514
787	0.6026
778	0.5781
769	0.4441
760	0.3192
751	0.5227
742	0.4981
733	0.5802
724	0.5767
715	0.6207
706	0.6462
697	0.6031
688	0.6536
679	0.6055
670	0.4086
661	0.2045
652	0.3978
643	0.5727
634	0.5891
