Infrared Spectrum: Pinane(endo,exo)
Formula: C 10 H 18
CAS: 473-55-2
State: gas
Instrument: HP-GC/MS/IRD
Origin: NIST Mass Spectrometry Data Center
1/CM	ABSORBANCE
550	0.0002052
562	3.04e-05
574	9.88e-05
586	9.88e-05
598	0.0001938
610	0.0002394
622	0.0002394
634	0.000228
646	0.0001178
658	0.0001672
670	6.08e-05
682	0.0001064
694	4.18e-05
706	6.84e-05
718	7.98e-05
730	0.000152
742	0.000152
754	0.0001824
766	0.0001634
778	0.000171
790	0.0001824
802	0.0001634
814	0.000209
826	0.000152
838	0.0002622
850	0.0004104
862	0.0004408
874	0.000361
886	0.0002166
898	0.0002204
910	0.0002318
922	0.0002698
934	0.0004522
946	0.0004636
958	0.000418
970	0.0004066
982	0.0004674
994	0.0005358
1006	0.0005282
1018	0.0005054
1030	0.000513
1042	0.0003838
1054	0.000228
1066	0.000171
1078	0.0001748
1090	0.0002014
1102	0.0003686
1114	0.0004598
1126	0.0004104
1138	0.0003306
1150	0.0004674
1162	0.0005662
1174	0.0004142
1186	0.0004598
1198	0.0005434
1210	0.0007296
1222	0.0009158
1234	0.0007866
1246	0.0005548
1258	0.000475
1270	0.000456
1282	0.000456
1294	0.0004028
1306	0.0003534
1318	0.0003876
1330	0.0005966
1342	0.0009272
1354	0.0012882
1366	0.0023142
1378	0.0036138
1390	0.0031084
1402	0.001254
1414	0.0005168
1426	0.000589
1438	0.0010944
1450	0.002299
1462	0.0038646
1474	0.0044802
1486	0.0027018
1498	0.0011096
1510	0.000513
1522	0.0003344
1534	0.0002698
1546	0.0002546
1558	0.000228
1570	0.0001786
1582	0.0001786
1594	0.00019
1606	0.0001634
1618	0.0001786
1630	0.0001596
1642	0.0001786
1654	0.0001748
1666	0.000133
1678	0.000133
1690	0.0001102
1702	0.0001026
1714	6.08e-05
1726	5.7e-05
1738	6.08e-05
1750	7.22e-05
1762	6.46e-05
1774	4.94e-05
1786	6.46e-05
1798	4.94e-05
1810	6.46e-05
1822	4.56e-05
1834	3.42e-05
1846	6.46e-05
1858	2.28e-05
1870	2.28e-05
1882	2.28e-05
1894	4.18e-05
1906	2.66e-05
1918	4.56e-05
1930	1.9e-05
1942	3.42e-05
1954	2.66e-05
1966	1.52e-05
1978	1.52e-05
1990	3.42e-05
2002	3.42e-05
2014	3.04e-05
2026	6.46e-05
2038	2.66e-05
2050	2.28e-05
2062	4.94e-05
2074	4.18e-05
2086	6.08e-05
2098	5.32e-05
2110	4.94e-05
2122	4.18e-05
2134	4.56e-05
2146	2.66e-05
2158	1.9e-05
2170	3.04e-05
2182	1.9e-05
2194	3.8e-05
2206	3.8e-05
2218	3.04e-05
2230	3.8e-05
2242	1.52e-05
2254	0
2266	1.14e-05
2278	2.28e-05
2290	2.28e-05
2302	1.9e-05
2314	3.8e-05
2326	4.56e-05
2338	4.94e-05
2350	5.32e-05
2362	6.46e-05
2374	5.7e-05
2386	4.94e-05
2398	5.32e-05
2410	5.7e-05
2422	3.8e-05
2434	6.46e-05
2446	4.94e-05
2458	6.46e-05
2470	5.7e-05
2482	8.36e-05
2494	7.22e-05
2506	8.74e-05
2518	9.5e-05
2530	0.0001026
2542	0.000114
2554	0.0001368
2566	0.0001482
2578	0.0001824
2590	0.0002014
2602	0.0002394
2614	0.000247
2626	0.000304
2638	0.0003648
2650	0.0004598
2662	0.0003724
2674	0.000323
2686	0.0003154
2698	0.0003268
2710	0.000399
2722	0.0004826
2734	0.0005852
2746	0.0005358
2758	0.000551
2770	0.0006384
2782	0.000741
2794	0.0008588
2806	0.0010336
2818	0.0013148
2830	0.0016796
2842	0.0023218
2854	0.0045676
2866	0.011932
2878	0.0216068
2890	0.0242554
2902	0.031331
2914	0.0374604
2926	0.0325128
2938	0.0328852
2950	0.0327104
2962	0.0238982
2974	0.0171076
2986	0.0148846
2998	0.0120992
3010	0.0070224
3022	0.00342
3034	0.0017974
3046	0.0012768
3058	0.0010906
3070	0.0009462
3082	0.0008588
3094	0.0007752
3106	0.0006726
3118	0.0006612
3130	0.000646
3142	0.0005814
3154	0.0005054
3166	0.0004142
3178	0.0003724
3190	0.000266
3202	0.0001862
3214	0.0001672
3226	0.0001672
3238	8.36e-05
3250	0.0001178
3262	0.0001672
3274	0.0001292
3286	0.000152
3298	0.0001444
3310	0.0001672
3322	0.0001216
3334	0.0001216
3346	0.0001026
3358	0.0001026
3370	8.74e-05
3382	0.000114
3394	7.22e-05
3406	6.84e-05
3418	0.0001178
3430	5.7e-05
3442	7.6e-05
3454	4.94e-05
3466	2.28e-05
3478	4.56e-05
3490	8.36e-05
3502	4.56e-05
3514	4.56e-05
3526	4.18e-05
3538	4.94e-05
3550	1.9e-05
3562	2.28e-05
3574	4.18e-05
3586	1.9e-05
3598	7.6e-06
3610	5.7e-05
3622	5.32e-05
3634	7.98e-05
3646	7.98e-05
3658	8.74e-05
3670	8.74e-05
3682	4.18e-05
3694	4.56e-05
3706	8.36e-05
3718	0.0001254
3730	0.0001216
3742	9.5e-05
3754	0.0001064
3766	0.0001064
3778	0.000152
3790	0.000152
3802	0.0001102
3814	0.0001482
3826	0.000171
3838	0.0001672
