Infrared Spectrum: v-TRIAZOLO[5,4-d]-v-TRIAZIN-7(6H)-ONE
Formula: C3 H2 N6 O
CAS: 4730-53-4
State: SOLID (0.8 mg / 650 mg KBr DISC)
Class: COBLENTZ III
Instrument: PERKIN-ELMER 221 (GRATING)
Instrument parameters: FILTER AT 980 CM^-^1. GRATING 4000-1428 AND NaCl PRISM 1428-650 CM^-^1
Sampling: TRANSMISSION
Resolution: 4
Origin: SOUTHERN RESEARCH INSTITUTE
1/CM	TRANSMITTANCE
623.231	0.73
631.761	0.7559
640.291	0.7927
648.821	0.8089
657.351	0.8112
665.881	0.8139
674.411	0.775
682.942	0.8158
691.472	0.811
700.002	0.8116
708.532	0.8208
717.062	0.824
725.592	0.825
734.122	0.825
742.652	0.818
751.182	0.814
759.712	0.8061
768.242	0.7904
776.772	0.7152
785.302	0.4729
793.833	0.7676
802.363	0.786
810.893	0.7865
819.423	0.7815
827.953	0.773
836.483	0.7636
845.013	0.751
853.543	0.735
862.073	0.717
870.603	0.6981
879.133	0.6716
887.663	0.6026
896.193	0.553
904.724	0.5331
913.254	0.5746
921.784	0.599
930.314	0.5874
938.844	0.5185
947.374	0.3699
955.904	0.4256
964.434	0.6746
972.964	0.708
981.494	0.722
990.024	0.709
998.554	0.6942
1007.08	0.6089
1015.61	0.6031
1024.14	0.5139
1032.67	0.3968
1041.2	0.3216
1049.73	0.6792
1058.26	0.7292
1066.79	0.7197
1075.33	0.6978
1083.86	0.6237
1092.39	0.5907
1100.92	0.718
1109.45	0.712
1117.98	0.6872
1126.51	0.632
1135.04	0.7054
1143.57	0.7414
1152.1	0.7335
1160.63	0.6466
1169.16	0.7214
1177.69	0.7452
1186.22	0.737
1194.75	0.7284
1203.28	0.7152
1211.81	0.7014
1220.34	0.6723
1228.87	0.614
1237.4	0.4179
1245.93	0.3175
1254.46	0.4527
1262.99	0.7106
1271.52	0.7792
1280.05	0.7862
1288.58	0.788
1297.11	0.7846
1305.64	0.7788
1314.17	0.775
1322.7	0.768
1331.23	0.7559
1339.76	0.74
1348.29	0.6792
1356.82	0.6686
1365.35	0.712
1373.88	0.7392
1382.41	0.771
1390.94	0.773
1399.47	0.7748
1408	0.7808
1416.53	0.7799
1425.06	0.7525
1433.59	0.742
1442.12	0.74
1450.65	0.7353
1459.18	0.724
1467.71	0.723
1476.24	0.724
1484.77	0.725
1493.3	0.7194
1501.83	0.6871
1510.36	0.6628
1518.89	0.5801
1527.42	0.4897
1535.95	0.6825
1544.48	0.686
1553.01	0.6896
1561.54	0.686
1570.07	0.6686
1578.6	0.6493
1587.13	0.634
1595.66	0.6182
1604.19	0.5662
1612.72	0.472
1621.25	0.3778
1629.78	0.3174
1638.31	0.4502
1646.84	0.5572
1655.37	0.6001
1663.9	0.6099
1672.43	0.5999
1680.96	0.5413
1689.49	0.4867
1698.02	0.478
1706.55	0.478
1715.08	0.4681
1723.61	0.417
1732.14	0.3461
1740.67	0.219
1749.2	0.1624
1757.73	0.2206
1766.26	0.34
1774.79	0.4811
1783.32	0.5778
1791.85	0.6156
1800.38	0.6447
1808.91	0.6816
1817.44	0.6941
1825.97	0.703
1834.5	0.7054
1843.03	0.7126
1851.56	0.716
1860.09	0.717
1868.62	0.7191
1877.15	0.7311
1885.68	0.739
1894.21	0.75
1902.74	0.7525
1911.27	0.7549
1919.8	0.756
1928.33	0.757
1936.86	0.757
1945.39	0.758
1953.92	0.759
1962.45	0.7577
1970.98	0.754
1979.51	0.756
1988.04	0.757
1996.57	0.758
2005.1	0.759
2013.63	0.759
2022.16	0.757
2030.69	0.754
2039.22	0.7496
2047.75	0.7428
2056.28	0.74
2064.81	0.737
2073.34	0.737
2081.87	0.7368
2090.4	0.7358
2098.93	0.734
2107.46	0.7298
2115.99	0.7258
2124.52	0.724
2133.05	0.724
2141.58	0.724
2150.11	0.724
2158.64	0.723
2167.17	0.7242
2175.7	0.728
2184.24	0.7292
2192.77	0.731
2201.3	0.735
2209.83	0.7398
2218.36	0.736
2226.89	0.7348
2235.42	0.7288
2243.95	0.723
2252.48	0.7216
2261.01	0.718
2269.54	0.7182
2278.07	0.716
2286.6	0.714
2295.13	0.7118
2303.66	0.7076
2312.19	0.703
2320.72	0.6951
2329.25	0.6766
2337.78	0.671
2346.31	0.6678
2354.84	0.656
2363.37	0.6508
2371.9	0.646
2380.43	0.645
2388.96	0.6398
2397.49	0.632
2406.02	0.626
2414.55	0.62
2423.08	0.6156
2431.61	0.5998
2440.14	0.5914
2448.67	0.5826
2457.2	0.57
2465.73	0.5658
2474.26	0.5523
2482.79	0.544
2491.32	0.542
2499.85	0.538
2508.38	0.5306
2516.91	0.524
2525.44	0.519
2533.97	0.5098
2542.5	0.501
2551.03	0.4943
2559.56	0.4831
2568.09	0.4728
2576.62	0.4678
2585.15	0.4509
2593.68	0.439
2602.21	0.4283
2610.74	0.419
2619.27	0.4158
2627.8	0.413
2636.33	0.4108
2644.86	0.4016
2653.39	0.394
2661.92	0.3864
2670.45	0.375
2678.98	0.3659
2687.51	0.354
2696.04	0.348
2704.57	0.345
2713.1	0.345
2721.63	0.347
2730.16	0.345
2738.69	0.3411
2747.22	0.3336
2755.75	0.327
2764.28	0.327
2772.81	0.3284
2781.34	0.333
2789.87	0.333
2798.4	0.336
2806.93	0.3362
2815.46	0.3432
2823.99	0.3497
2832.52	0.355
2841.05	0.3612
2849.58	0.3689
2858.11	0.3843
2866.64	0.4345
2875.17	0.4612
2883.7	0.468
2892.23	0.4654
2900.76	0.438
2909.29	0.4094
2917.82	0.3941
2926.35	0.367
2934.88	0.367
2943.41	0.3774
2951.94	0.4024
2960.47	0.4334
2969	0.4534
2977.53	0.4879
2986.06	0.5097
2994.59	0.5252
3003.12	0.5372
3011.65	0.541
3020.18	0.5472
3028.71	0.5592
3037.24	0.5662
3045.77	0.5668
3054.3	0.5626
3062.83	0.5566
3071.36	0.5394
3079.89	0.5188
3088.42	0.4889
3096.95	0.4776
3105.48	0.4866
3114.01	0.5006
3122.54	0.5302
3131.07	0.5582
3139.6	0.5844
3148.13	0.5956
3156.66	0.6092
3165.19	0.612
3173.72	0.6136
3182.25	0.612
3190.78	0.604
3199.31	0.598
3207.84	0.5884
3216.37	0.5736
3224.9	0.569
3233.43	0.567
3241.96	0.57
3250.49	0.57
3259.02	0.57
3267.55	0.57
3276.08	0.57
3284.61	0.57
3293.14	0.5686
3301.68	0.5658
3310.21	0.5563
3318.74	0.5454
3327.27	0.5343
3335.8	0.508
3344.33	0.4976
3352.86	0.4758
3361.39	0.464
3369.92	0.4388
3378.45	0.4202
3386.98	0.4034
3395.51	0.3828
3404.04	0.3538
3412.57	0.3183
3421.1	0.2843
3429.63	0.2508
3438.16	0.236
3446.69	0.236
3455.22	0.262
3463.75	0.2923
3472.28	0.3355
3480.81	0.3428
3489.34	0.3368
3497.87	0.3143
3506.4	0.2616
3514.93	0.2147
3523.46	0.171
3531.99	0.168
3540.52	0.1739
3549.05	0.1997
3557.58	0.2385
3566.11	0.2867
3574.64	0.3406
3583.17	0.3972
3591.7	0.4561
3600.23	0.4945
3608.76	0.5298
3617.29	0.5535
3625.82	0.5821
3634.35	0.6007
3642.88	0.623
3651.41	0.6737
3659.94	0.7137
3668.47	0.7396
3677	0.754
3685.53	0.758
3694.06	0.7604
3702.59	0.765
3711.12	0.768
3719.65	0.768
3728.18	0.768
3736.71	0.768
3745.24	0.768
3753.77	0.768
3762.3	0.768
3770.83	0.768
3779.36	0.766
3787.89	0.7676
3796.42	0.766
3804.95	0.766
3813.48	0.766
3822.01	0.766
3830.54	0.765
3839.07	0.7648
3847.6	0.763
3856.13	0.763
3864.66	0.762
3873.19	0.76
3881.72	0.759
3890.25	0.7598
3898.78	0.759
3907.31	0.758
3915.84	0.758
3924.37	0.758
3932.9	0.758
3941.43	0.7572
3949.96	0.758
3958.49	0.757
3967.02	0.757
3975.55	0.757
3984.08	0.757
3992.61	0.757
4001.14	0.757
4009.67	0.758
