Infrared Spectrum: 2-Bromo-6-methylheptane
Formula: C 8 H 17 Br
CAS: 4730-24-9
State: gas
Instrument: HP-GC/MS/IRD
Origin: NIST Mass Spectrometry Data Center
1/CM	ABSORBANCE
550	0.0011875
562	0.00059
574	0.00042
586	0.0003625
598	0.00045
610	0.00059
622	0.0010275
634	0.000565
646	0.00026
658	6.25e-05
670	4.25e-05
682	6.75e-05
694	0.00011
706	0.000165
718	0.000175
730	0.0004875
742	0.0005925
754	0.000435
766	0.0001975
778	0.0001825
790	0.0002225
802	0.0003525
814	0.000345
826	0.0003825
838	0.000375
850	0.0003525
862	0.0004125
874	0.00037
886	0.0004575
898	0.0004725
910	0.0003825
922	0.0004225
934	0.00046
946	0.000505
958	0.0006225
970	0.0006475
982	0.0005675
994	0.00072
1006	0.00091
1018	0.0007625
1030	0.00052
1042	0.000545
1054	0.0005325
1066	0.0005775
1078	0.000485
1090	0.0004975
1102	0.00059
1114	0.0006325
1126	0.0010675
1138	0.0017375
1150	0.001975
1162	0.001885
1174	0.0024175
1186	0.0026425
1198	0.0020275
1210	0.00205
1222	0.002545
1234	0.0024225
1246	0.0020375
1258	0.0015075
1270	0.00119
1282	0.0012
1294	0.00112
1306	0.00108
1318	0.00097
1330	0.00101
1342	0.0010675
1354	0.0012275
1366	0.002145
1378	0.00339
1390	0.0032425
1402	0.001265
1414	0.000805
1426	0.0011225
1438	0.00204
1450	0.0031375
1462	0.00384
1474	0.0029925
1486	0.0013775
1498	0.000675
1510	0.0005225
1522	0.00038
1534	0.0002275
1546	0.0002325
1558	0.0003
1570	0.0001625
1582	0.000125
1594	0.000155
1606	0.000135
1618	0.0001925
1630	0.00014
1642	0.000145
1654	0.0002575
1666	0.000155
1678	0.000155
1690	0.0001675
1702	0.000225
1714	0.00018
1726	0.0001075
1738	0.0001575
1750	0.0001325
1762	0.000105
1774	6.5e-05
1786	8.25e-05
1798	0.0001
1810	4.25e-05
1822	5.75e-05
1834	3.75e-05
1846	9.25e-05
1858	3.25e-05
1870	9.25e-05
1882	1.5e-05
1894	5.5e-05
1906	5e-05
1918	7.5e-05
1930	4.75e-05
1942	3.25e-05
1954	1.25e-05
1966	3.25e-05
1978	3e-05
1990	3.5e-05
2002	1.25e-05
2014	2e-05
2026	3.5e-05
2038	4e-05
2050	1.5e-05
2062	5e-05
2074	5.5e-05
2086	4.25e-05
2098	2.25e-05
2110	3e-05
2122	2.5e-06
2134	2.75e-05
2146	2.5e-05
2158	1.75e-05
2170	1.25e-05
2182	4e-05
2194	4.25e-05
2206	4e-05
2218	1.25e-05
2230	3.75e-05
2242	4.75e-05
2254	4e-05
2266	5.75e-05
2278	5.75e-05
2290	6.75e-05
2302	3.75e-05
2314	6.25e-05
2326	3.5e-05
2338	2e-05
2350	4e-05
2362	1e-05
2374	4.25e-05
2386	8.5e-05
2398	0.0001125
2410	0.0001
2422	0.0001125
2434	8.75e-05
2446	9e-05
2458	0.00011
2470	0.0001025
2482	0.0001075
2494	9e-05
2506	0.00012
2518	9.75e-05
2530	0.000135
2542	0.0001275
2554	0.00014
2566	0.0001425
2578	0.000165
2590	0.0002175
2602	0.0002225
2614	0.0002375
2626	0.0002075
2638	0.0002575
2650	0.00023
2662	0.0002375
2674	0.00025
2686	0.000315
2698	0.000345
2710	0.0003575
2722	0.0004375
2734	0.000535
2746	0.0005275
2758	0.0004675
2770	0.000495
2782	0.0005575
2794	0.0006825
2806	0.0008875
2818	0.001175
2830	0.001805
2842	0.0030775
2854	0.0048875
2866	0.0066675
2878	0.009455
2890	0.0100475
2902	0.0110175
2914	0.01326
2926	0.0156675
2938	0.0175425
2950	0.01793
2962	0.02399
2974	0.01944
2986	0.008545
2998	0.0052125
3010	0.0019875
3022	0.001065
3034	0.0007625
3046	0.00061
3058	0.0005525
3070	0.0005075
3082	0.000505
3094	0.0004025
3106	0.0004025
3118	0.0003625
3130	0.0003625
3142	0.000285
3154	0.0003725
3166	0.00038
3178	0.0004075
3190	0.000335
3202	0.00028
3214	0.0002425
3226	0.0002175
3238	0.0001625
3250	0.0001575
3262	9e-05
3274	0.0001475
3286	0.0001225
3298	0.000115
3310	0.0001075
3322	9.25e-05
3334	7.5e-05
3346	6.25e-05
3358	6.75e-05
3370	0.0001225
3382	0.000135
3394	0.0001075
3406	0.0001275
3418	0.000105
3430	9.5e-05
3442	0.0001225
3454	9.75e-05
3466	5.75e-05
3478	9e-05
3490	7.5e-06
3502	7.75e-05
3514	7e-05
3526	0.0001175
3538	3.5e-05
3550	8.25e-05
3562	9.25e-05
3574	9.5e-05
3586	0.000135
3598	8.75e-05
3610	0.0001625
3622	0.0001275
3634	0.0001525
3646	0.0001325
3658	0.0001325
3670	0.0001625
3682	0.000105
3694	0.0001
3706	0.000165
3718	0.0001075
3730	0.00012
3742	0.000195
3754	0.000135
3766	0.00014
3778	0.0001575
3790	0.0001625
3802	0.000235
3814	0.000195
3826	0.00021
3838	0.000265
