Infrared Spectrum: 6-Methyl-2-heptanol
Formula: C 8 H 18 O
CAS: 4730-22-7
State: gas
Instrument: HP-GC/MS/IRD
Origin: NIST Mass Spectrometry Data Center
1/CM	ABSORBANCE
550	0.0001247
562	0.000116
574	9.57e-05
586	0.000116
598	0.0001015
610	0.0001711
622	7.83e-05
634	2.61e-05
646	7.25e-05
658	8.41e-05
670	4.64e-05
682	0.0001102
694	0.0001015
706	0.0001363
718	0.0001827
730	0.0002523
742	0.0001943
754	0.0001305
766	0.0001305
778	0.0001682
790	0.0002697
802	0.0003422
814	0.0004959
826	0.0005974
838	0.0006322
850	0.0008671
862	0.0008381
874	0.0005597
886	0.0006003
898	0.000957
910	0.0014761
922	0.0017371
934	0.0019691
946	0.0020474
958	0.0021692
970	0.0022968
982	0.0020242
994	0.0016066
1006	0.0015225
1018	0.0017226
1030	0.0022156
1042	0.0029
1054	0.0032886
1066	0.0034684
1078	0.003567
1090	0.0039092
1102	0.0038744
1114	0.0034278
1126	0.003567
1138	0.0039672
1150	0.0033988
1162	0.0026216
1174	0.0020416
1186	0.0016849
1198	0.0018183
1210	0.002059
1222	0.0022678
1234	0.0027202
1246	0.0029406
1258	0.0024824
1270	0.0019459
1282	0.0016849
1294	0.0015138
1306	0.0014993
1318	0.0016066
1330	0.0019749
1342	0.002436
1354	0.0030653
1366	0.0044457
1378	0.0058377
1390	0.0052722
1402	0.0029435
1414	0.0017255
1426	0.0014819
1438	0.0019169
1450	0.0028565
1462	0.0037352
1474	0.0031929
1486	0.0016385
1498	0.0007366
1510	0.0003857
1522	0.0002523
1534	0.0001711
1546	0.0001189
1558	6.67e-05
1570	8.7e-05
1582	0.0001015
1594	9.86e-05
1606	8.99e-05
1618	6.38e-05
1630	5.8e-05
1642	5.51e-05
1654	2.9e-05
1666	6.67e-05
1678	5.8e-05
1690	5.51e-05
1702	4.35e-05
1714	6.38e-05
1726	0.0001102
1738	5.22e-05
1750	2.61e-05
1762	2.03e-05
1774	1.45e-05
1786	1.74e-05
1798	1.45e-05
1810	1.45e-05
1822	2.9e-06
1834	1.16e-05
1846	2.03e-05
1858	1.45e-05
1870	8.7e-06
1882	8.7e-06
1894	1.45e-05
1906	3.19e-05
1918	0
1930	2.9e-05
1942	2.9e-06
1954	1.45e-05
1966	0
1978	5.8e-06
1990	1.45e-05
2002	1.16e-05
2014	2.03e-05
2026	2.03e-05
2038	8.7e-06
2050	1.16e-05
2062	0
2074	1.45e-05
2086	5.8e-06
2098	5.8e-06
2110	2.61e-05
2122	1.16e-05
2134	2.03e-05
2146	2.9e-05
2158	4.06e-05
2170	4.06e-05
2182	3.48e-05
2194	3.77e-05
2206	2.03e-05
2218	2.9e-06
2230	4.64e-05
2242	0
2254	1.74e-05
2266	4.35e-05
2278	3.77e-05
2290	5.51e-05
2302	4.93e-05
2314	6.67e-05
2326	6.96e-05
2338	5.51e-05
2350	4.35e-05
2362	3.48e-05
2374	6.96e-05
2386	6.96e-05
2398	6.67e-05
2410	6.38e-05
2422	5.51e-05
2434	5.22e-05
2446	6.09e-05
2458	5.8e-05
2470	5.8e-05
2482	5.22e-05
2494	8.41e-05
2506	9.86e-05
2518	9.28e-05
2530	8.99e-05
2542	8.41e-05
2554	0.0001218
2566	0.0001595
2578	0.0001798
2590	0.0002262
2602	0.0002639
2614	0.0003016
2626	0.000348
2638	0.0003741
2650	0.0003944
2662	0.0004002
2674	0.0004176
2686	0.0004379
2698	0.000406
2710	0.0004785
2722	0.0005539
2734	0.0006525
2746	0.0006612
2758	0.0006554
2770	0.0007163
2782	0.0007888
2794	0.0010092
2806	0.0012963
2818	0.0017081
2830	0.0024331
2842	0.0041586
2854	0.0068179
2866	0.0097556
2878	0.0128702
2890	0.0135169
2902	0.0149872
2914	0.0184875
2926	0.0218544
2938	0.0240004
2950	0.0233044
2962	0.0287477
2974	0.0234668
2986	0.0105009
2998	0.0040049
3010	0.001972
3022	0.0012354
3034	0.0008584
3046	0.0007047
3058	0.0006177
3070	0.0005539
3082	0.0005249
3094	0.0004727
3106	0.0004321
3118	0.0003625
3130	0.0003886
3142	0.0003422
3154	0.0003277
3166	0.0003219
3178	0.0003393
3190	0.0003248
3202	0.0002581
3214	0.0002059
3226	0.0001276
3238	8.99e-05
3250	6.09e-05
3262	4.06e-05
3274	5.8e-06
3286	4.64e-05
3298	6.09e-05
3310	3.19e-05
3322	6.96e-05
3334	6.09e-05
3346	0.0001015
3358	6.09e-05
3370	8.7e-05
3382	9.28e-05
3394	6.96e-05
3406	0.0001073
3418	0.0001015
3430	0.0001015
3442	8.99e-05
3454	0.0001131
3466	6.38e-05
3478	8.41e-05
3490	4.93e-05
3502	4.64e-05
3514	4.06e-05
3526	4.06e-05
3538	2.9e-05
3550	5.22e-05
3562	6.38e-05
3574	4.06e-05
3586	3.77e-05
3598	0.0001334
3610	0.0002001
3622	0.0003828
3634	0.0007366
3646	0.0013514
3658	0.0016066
3670	0.0008352
3682	0.0003828
3694	0.0001624
3706	0.0001305
3718	7.25e-05
3730	4.64e-05
3742	4.06e-05
3754	9.57e-05
3766	6.67e-05
3778	6.96e-05
3790	0.0001334
3802	9.57e-05
3814	0.000116
3826	0.0001218
3838	0.0001392
