Infrared Spectrum: Tris(2-methoxyphenyl)phosphine
Formula: C 21 H 21 O 3 P
CAS: 4731-65-1
State: gas
Origin: EPA-IR VAPOR PHASE LIBRARY
1/CM	ABSORBANCE
549.8	0.002816
559.445	0.002246
569.09	0.003236
578.734	0.003186
588.379	0.002536
598.024	0.001656
607.669	0.0012405
617.313	0.001436
626.958	0.0011293
636.603	0.0011319
646.248	0.0009957
655.893	0.001399
665.537	0.001756
675.182	0.002826
684.827	0.002126
694.472	0.001846
704.116	0.002146
713.761	0.003306
723.406	0.009636
733.051	0.017726
742.695	0.020446
752.34	0.040876
761.985	0.020606
771.63	0.008296
781.275	0.007016
790.919	0.011896
800.564	0.010176
810.209	0.004326
819.854	0.002016
829.498	0.001796
839.143	0.001916
848.788	0.002656
858.433	0.001766
868.078	0.0010792
877.722	0.0008466
887.367	0.0012408
897.012	0.0013408
906.657	0.0012606
916.301	0.0012556
925.946	0.001886
935.591	0.001986
945.236	0.001886
954.88	0.002066
964.525	0.002046
974.17	0.002286
983.815	0.003586
993.46	0.005266
1003.1	0.008846
1012.75	0.017126
1022.39	0.033286
1032.04	0.031456
1041.68	0.022136
1051.33	0.011146
1060.97	0.011736
1070.62	0.018716
1080.26	0.011516
1089.91	0.005696
1099.55	0.004846
1109.2	0.005066
1118.84	0.009406
1128.49	0.016106
1138.13	0.007806
1147.78	0.006056
1157.42	0.012746
1167.07	0.009086
1176.71	0.012086
1186.36	0.011006
1196	0.010066
1205.64	0.012926
1215.29	0.020806
1224.93	0.041556
1234.58	0.082566
1244.22	0.088996
1253.87	0.053656
1263.51	0.048476
1273.16	0.037726
1282.8	0.023386
1292.45	0.016036
1302.09	0.009886
1311.74	0.005856
1321.38	0.003936
1331.03	0.003136
1340.67	0.002856
1350.32	0.002466
1359.96	0.002506
1369.61	0.002806
1379.25	0.003296
1388.9	0.004246
1398.54	0.005046
1408.18	0.006886
1417.83	0.013946
1427.47	0.037216
1437.12	0.035586
1446.76	0.020056
1456.41	0.032216
1466.05	0.071266
1475.7	0.059106
1485.34	0.016346
1494.99	0.008176
1504.63	0.005606
1514.28	0.004146
1523.92	0.003396
1533.57	0.003256
1543.21	0.004506
1552.86	0.007986
1562.5	0.019556
1572.15	0.030656
1581.79	0.029256
1591.44	0.015016
1601.08	0.005556
1610.73	0.003486
1620.37	0.002496
1630.01	0.001846
1639.66	0.001576
1649.3	0.0012965
1658.95	0.001716
1668.59	0.001806
1678.24	0.002086
1687.88	0.002206
1697.53	0.001856
1707.17	0.001496
1716.82	0.0014172
1726.46	0.0012713
1736.11	0.0012465
1745.75	0.0012998
1755.4	0.0012836
1765.04	0.001606
1774.69	0.002066
1784.33	0.001746
1793.98	0.001586
1803.62	0.001746
1813.27	0.001726
1822.91	0.001466
1832.55	0.0012571
1842.2	0.0010663
1851.84	0.0011905
1861.49	0.001506
1871.13	0.001576
1880.78	0.001706
1890.42	0.002826
1900.07	0.003056
1909.71	0.001916
1919.36	0.001926
1929	0.002486
1938.65	0.001536
1948.29	0.0010103
1957.94	0.0007551
1967.58	0.0007743
1977.23	0.0007942
1986.87	0.0009036
1996.52	0.0010441
2006.16	0.0013255
2015.81	0.001926
2025.45	0.002496
2035.1	0.002656
2044.74	0.002326
2054.38	0.001996
2064.03	0.001846
2073.67	0.0013866
2083.32	0.001166
2092.96	0.0011186
2102.61	0.0009966
2112.25	0.0008999
2121.9	0.0008045
2131.54	0.000879
2141.19	0.0008909
2150.83	0.000756
2160.48	0.0006183
2170.12	0.0005606
2179.77	0.00050352
2189.41	0.0005608
2199.06	0.00045601
2208.7	0.0005358
2218.35	0.0006798
2227.99	0.0007193
2237.64	0.0007124
2247.28	0.0009469
2256.92	0.0011365
2266.57	0.0009576
2276.21	0.0009002
2285.86	0.0007758
2295.5	0.0005694
2305.15	0.0006466
2314.79	0.0007281
2324.44	0.0007127
2334.08	0.000431873
2343.73	0.0006488
2353.37	0.000559
2363.02	0.0005896
2372.66	0.0006655
2382.31	0.0005769
2391.95	0.0005634
2401.6	0.0005522
2411.24	0.0005904
2420.89	0.0005978
2430.53	0.00044076
2440.18	0.0006338
2449.82	0.0007404
2459.47	0.0006667
2469.11	0.0006483
2478.75	0.0007399
2488.4	0.0009858
2498.04	0.0007531
2507.69	0.0009357
2517.33	0.0010645
2526.98	0.0011581
2536.62	0.0011715
2546.27	0.0009018
2555.91	0.0008949
2565.56	0.0008584
2575.2	0.0007446
2584.85	0.0008543
2594.49	0.0008587
2604.14	0.0007005
2613.78	0.0006793
2623.43	0.0007243
2633.07	0.0007692
2642.72	0.0006858
2652.36	0.0006641
2662.01	0.00051512
2671.65	0.0006086
2681.29	0.00049114
2690.94	0.0007359
2700.58	0.0006473
2710.23	0.0007869
2719.87	0.0006575
2729.52	0.000723
2739.16	0.0006218
2748.81	0.0008444
2758.45	0.0007746
2768.1	0.0009066
2777.74	0.0010391
2787.39	0.001343
2797.03	0.001856
2806.68	0.002616
2816.32	0.004276
2825.97	0.007306
2835.61	0.015876
2845.26	0.015616
2854.9	0.008866
2864.55	0.007486
2874.19	0.006916
2883.84	0.007526
2893.48	0.008286
2903.12	0.010256
2912.77	0.012526
2922.41	0.013566
2932.06	0.019646
2941.7	0.030186
2951.35	0.022056
2960.99	0.015586
2970.64	0.010286
2980.28	0.008966
2989.93	0.011106
2999.57	0.017096
3009.22	0.015556
3018.86	0.008706
3028.51	0.006896
3038.15	0.007006
3047.8	0.009676
3057.44	0.020156
3067.09	0.032996
3076.73	0.017556
3086.38	0.010816
3096.02	0.005686
3105.67	0.003046
3115.31	0.002356
3124.95	0.002426
3134.6	0.002386
3144.24	0.002136
3153.89	0.001446
3163.53	0.0009612
3173.18	0.0010239
3182.82	0.0005826
3192.47	0.0005715
3202.11	0.0006113
3211.76	0.00048767
3221.4	0.000291
3231.05	0.000381
3240.69	0.000188
3250.34	0.0003601
3259.98	0.000299
3269.63	0.000149
3279.27	0.000295
3288.92	0.000348
3298.56	0.000213
3308.21	0.0003659
3317.85	0.000321
3327.49	0.0003987
3337.14	0.000272
3346.78	0.000302
3356.43	0.000245
3366.07	0.0005298
3375.72	0.000254
3385.36	0.00042385
3395.01	0.00051996
3404.65	0.0006117
3414.3	0.00047769
3423.94	0.00050657
3433.59	0.00048
3443.23	0.0003401
3452.88	0.000223
3462.52	0.00052077
3472.17	0.00051017
3481.81	0.000435532
3491.46	0.000268
3501.1	0.000211
3510.75	6e-06
3520.39	0.000426557
3530.04	0.0005858
3539.68	0.0003335
3549.32	0.0003721
3558.97	0.000303
3568.61	0.00045442
3578.26	0.0005511
3587.9	0.0005977
3597.55	0.0006059
3607.19	0.0003874
3616.84	0.000285
3626.48	0.0003908
3636.13	0.000259
3645.77	0.00050479
3655.42	0.0003457
3665.06	0.000274
3674.71	0.00032
3684.35	0.000149
3694	0.000263
3703.64	0.00046203
3713.29	0.0006345
3722.93	0.0004122
3732.58	0.0005266
3742.22	0.0006638
3751.86	0.0005955
3761.51	0.0005324
3771.15	0.0005724
3780.8	0.00049979
3790.44	0.000552
3800.09	0.0003983
3809.73	0.000307
3819.38	0.000355
3829.02	0.00046248
3838.67	0.0004114
3848.31	0.0009084
3857.96	0.0006426
3867.6	0.0006919
3877.25	0.0003766
3886.89	0.0004817
3896.54	0.000318
3906.18	0.000431742
3915.83	0.00048672
3925.47	0.00050073
3935.12	0.000428686
3944.76	0.00045827
3954.41	0.0007989
3964.05	0.0003292
3973.69	0.00031
3983.34	0.0003831
3992.98	0.0008729
