Infrared Spectrum: 1,3,5,7-ESTRATETRAEN-3-OL-17-ONE
Formula: C18 H20 O2
CAS: 474-86-2
State: SOLID (KBr DISC)
Melting point: 238-240 C
Class: COBLENTZ III
Instrument: PERKIN-ELMER 21 (GRATING)
Instrument parameters: FILTER AT ABOUT 10 MICRONS
Sampling: TRANSMISSION
Resolution: 2
1/CM	TRANSMITTANCE
4000	0.8883
3991	0.8885
3982	0.8886
3973	0.8889
3964	0.8895
3955	0.8901
3946	0.8908
3937	0.8914
3928	0.8921
3919	0.8934
3910	0.8947
3901	0.8961
3892	0.8971
3883	0.8981
3874	0.899
3865	0.8999
3856	0.9008
3847	0.9012
3838	0.9016
3829	0.902
3820	0.9025
3811	0.9028
3802	0.9034
3793	0.9038
3784	0.9042
3775	0.9046
3766	0.9054
3757	0.907
3748	0.9086
3739	0.91
3730	0.9109
3721	0.9118
3712	0.9127
3703	0.9136
3694	0.9142
3685	0.9147
3676	0.9154
3667	0.916
3658	0.9162
3649	0.9161
3640	0.916
3631	0.9157
3622	0.9145
3613	0.9131
3604	0.9115
3595	0.9093
3586	0.907
3577	0.9024
3568	0.8955
3559	0.8884
3550	0.8794
3541	0.8698
3532	0.8602
3523	0.8503
3514	0.8405
3505	0.8275
3496	0.8106
3487	0.7932
3478	0.7715
3469	0.7499
3460	0.7365
3451	0.723
3442	0.7089
3433	0.6947
3424	0.6769
3415	0.6582
3406	0.6418
3397	0.6244
3388	0.6022
3379	0.572
3370	0.5507
3361	0.5138
3352	0.4646
3343	0.4148
3334	0.3646
3325	0.3646
3316	0.3859
3307	0.4188
3298	0.4519
3289	0.4852
3280	0.5187
3271	0.5568
3262	0.607
3253	0.6303
3244	0.6468
3235	0.6615
3226	0.6742
3217	0.6869
3208	0.7001
3199	0.7142
3190	0.7308
3181	0.7457
3172	0.7568
3163	0.7678
3154	0.7784
3145	0.7886
3136	0.7996
3127	0.8103
3118	0.82
3109	0.8287
3100	0.8353
3091	0.8396
3082	0.8435
3073	0.8463
3064	0.8475
3055	0.8478
3046	0.8483
3037	0.847
3028	0.8404
3019	0.8371
3010	0.8378
3001	0.8404
2992	0.8418
2983	0.8328
2974	0.7641
2965	0.7594
2956	0.7544
2947	0.7415
2938	0.7065
2929	0.6648
2920	0.6542
2911	0.6554
2902	0.6705
2893	0.6931
2884	0.7157
2875	0.7296
2866	0.7368
2857	0.7372
2848	0.7375
2839	0.7381
2830	0.7396
2821	0.749
2812	0.7618
2803	0.7799
2794	0.7971
2785	0.8118
2776	0.8235
2767	0.8338
2758	0.8466
2749	0.858
2740	0.8661
2731	0.8701
2722	0.872
2713	0.8738
2704	0.8757
2695	0.8775
2686	0.8799
2677	0.8828
2668	0.8858
2659	0.8888
2650	0.8917
2641	0.8948
2632	0.8973
2623	0.8997
2614	0.9015
2605	0.9032
2596	0.9037
2587	0.9028
2578	0.902
2569	0.9012
2560	0.9027
2551	0.9048
2542	0.9077
2533	0.9097
2524	0.9107
2515	0.9115
2506	0.9118
2497	0.912
2488	0.9118
2479	0.9115
2470	0.9116
2461	0.9138
2452	0.915
2443	0.916
2434	0.9192
2425	0.9221
2416	0.9248
2407	0.927
2398	0.9281
2389	0.9288
2380	0.929
2371	0.9287
2362	0.9277
2353	0.9266
2344	0.9258
2335	0.9251
2326	0.9246
2317	0.9267
2308	0.9321
2299	0.9391
2290	0.9448
2281	0.9483
2272	0.9483
2263	0.9492
2254	0.9503
2245	0.9514
2236	0.9524
2227	0.9527
2218	0.9528
2209	0.9528
2200	0.953
2191	0.9533
2182	0.9536
2173	0.9539
2164	0.955
2155	0.9559
2146	0.9578
2137	0.9599
2128	0.9605
2119	0.9603
2110	0.96
2101	0.9601
2092	0.9603
2083	0.9606
2074	0.9608
2065	0.961
2056	0.9614
2047	0.9618
2038	0.9621
2029	0.9625
2020	0.9627
2011	0.9628
2002	0.9633
1993	0.964
1984	0.9646
1975	0.9652
1966	0.9659
1957	0.9665
1948	0.9671
1939	0.9683
1930	0.9697
1921	0.9721
1912	0.9736
1903	0.9742
1894	0.9747
1885	0.975
1876	0.9751
1867	0.9734
1858	0.964
1849	0.9681
1840	0.9728
1831	0.9778
1822	0.9758
1813	0.9781
1804	0.9773
1795	0.9681
1786	0.9671
1777	0.9625
1768	0.9555
1759	0.9518
1750	0.9244
1741	0.7678
1732	0.4944
1723	0.2181
1714	0.3687
1705	0.7365
1696	0.8065
1687	0.8338
1678	0.8387
1669	0.8542
1660	0.8702
1651	0.8728
1642	0.8614
1633	0.8091
1624	0.7111
1615	0.7197
1606	0.7995
1597	0.8446
1588	0.6072
1579	0.7968
1570	0.891
1561	0.9062
1552	0.9198
1543	0.925
1534	0.9265
1525	0.924
1516	0.8146
1507	0.6019
1498	0.5995
1489	0.7621
1480	0.8314
1471	0.6783
1462	0.7042
1453	0.7758
1444	0.7699
1435	0.8505
1426	0.8454
1417	0.8616
1408	0.7111
1399	0.8252
1390	0.859
1381	0.8636
1372	0.7801
1363	0.7576
1354	0.5002
1345	0.7264
1336	0.7735
1327	0.8374
1318	0.8682
1309	0.8775
1300	0.8398
1291	0.7051
1282	0.4951
1273	0.4748
1264	0.7546
1255	0.6893
1246	0.581
1237	0.6098
1228	0.6526
1219	0.7717
1210	0.8232
1201	0.8383
1192	0.8259
1183	0.8187
1174	0.8566
1165	0.8592
1156	0.6646
1147	0.644
1138	0.7893
1129	0.8335
1120	0.8355
1111	0.7146
1102	0.8471
1093	0.8628
1084	0.7901
1075	0.8504
1066	0.7938
1057	0.739
1048	0.7748
1039	0.8292
1030	0.8444
1021	0.8863
1012	0.8668
1003	0.7965
994	0.8793
985	0.8932
976	0.89
967	0.8818
958	0.8552
949	0.912
940	0.9186
931	0.8725
922	0.9225
913	0.9221
904	0.8218
895	0.8834
886	0.919
877	0.8668
868	0.7857
859	0.7949
850	0.8999
841	0.9185
832	0.8743
823	0.8882
814	0.871
805	0.6124
796	0.8981
787	0.909
778	0.9095
769	0.8765
760	0.9252
751	0.9258
742	0.9228
733	0.9241
724	0.9209
715	0.8913
706	0.8933
697	0.8833
688	0.887
679	0.8838
