Infrared Spectrum: 3-Acetylacrylic acid
Formula: C 5 H 6 O 3
CAS: 4743-82-2
State: gas
Origin: EPA-IR VAPOR PHASE LIBRARY
1/CM	ABSORBANCE
549.8	0.040069
559.445	0.055089
569.09	0.065629
578.734	0.062219
588.379	0.050049
598.024	0.032319
607.669	0.021969
617.313	0.020149
626.958	0.020149
636.603	0.019039
646.248	0.015799
655.893	0.009819
665.537	0.005409
675.182	0.004939
684.827	0.006739
694.472	0.011349
704.116	0.017229
713.761	0.020759
723.406	0.015859
733.051	0.010679
742.695	0.006149
752.34	0.004609
761.985	0.003779
771.63	0.003229
781.275	0.002599
790.919	0.002349
800.564	0.002219
810.209	0.002509
819.854	0.003269
829.498	0.003439
839.143	0.004529
848.788	0.006199
858.433	0.008349
868.078	0.009939
877.722	0.009659
887.367	0.009249
897.012	0.009059
906.657	0.008279
916.301	0.006719
925.946	0.005589
935.591	0.005389
945.236	0.008479
954.88	0.015909
964.525	0.027159
974.17	0.038019
983.815	0.038599
993.46	0.029589
1003.1	0.020949
1012.75	0.015879
1022.39	0.013359
1032.04	0.011189
1041.68	0.010829
1051.33	0.010919
1060.97	0.011009
1070.62	0.013389
1080.26	0.018589
1089.91	0.028119
1099.55	0.049989
1109.2	0.102799
1118.84	0.171629
1128.49	0.173429
1138.13	0.114869
1147.78	0.099859
1157.42	0.112609
1167.07	0.107719
1176.71	0.076509
1186.36	0.042709
1196	0.029089
1205.64	0.027159
1215.29	0.030999
1224.93	0.046959
1234.58	0.072389
1244.22	0.086419
1253.87	0.078239
1263.51	0.060069
1273.16	0.053779
1282.8	0.059079
1292.45	0.062049
1302.09	0.049009
1311.74	0.030679
1321.38	0.024059
1331.03	0.029519
1340.67	0.051519
1350.32	0.086059
1359.96	0.107399
1369.61	0.085609
1379.25	0.044889
1388.9	0.025089
1398.54	0.017119
1408.18	0.013579
1417.83	0.012669
1427.47	0.011689
1437.12	0.010139
1446.76	0.007619
1456.41	0.005899
1466.05	0.004799
1475.7	0.004259
1485.34	0.004049
1494.99	0.003949
1504.63	0.003979
1514.28	0.003889
1523.92	0.003769
1533.57	0.003679
1543.21	0.003829
1552.86	0.004099
1562.5	0.004579
1572.15	0.005319
1581.79	0.005529
1591.44	0.005599
1601.08	0.005989
1610.73	0.008329
1620.37	0.013269
1630.01	0.017249
1639.66	0.017019
1649.3	0.014459
1658.95	0.012309
1668.59	0.014229
1678.24	0.023019
1687.88	0.044909
1697.53	0.081959
1707.17	0.112889
1716.82	0.115059
1726.46	0.106689
1736.11	0.095189
1745.75	0.118299
1755.4	0.172389
1765.04	0.203139
1774.69	0.172709
1784.33	0.101019
1793.98	0.053509
1803.62	0.030139
1813.27	0.018499
1822.91	0.011929
1832.55	0.007889
1842.2	0.005439
1851.84	0.004129
1861.49	0.003479
1871.13	0.003119
1880.78	0.003019
1890.42	0.002879
1900.07	0.002539
1909.71	0.002129
1919.36	0.001829
1929	0.001599
1938.65	0.001579
1948.29	0.001469
1957.94	0.001429
1967.58	0.001529
1977.23	0.001669
1986.87	0.001589
1996.52	0.001619
2006.16	0.001779
2015.81	0.001819
2025.45	0.002069
2035.1	0.001979
2044.74	0.001859
2054.38	0.001509
2064.03	0.0012978
2073.67	0.0012201
2083.32	0.0009947
2092.96	0.0008133
2102.61	0.0009182
2112.25	0.0009277
2121.9	0.0008119
2131.54	0.000959
2141.19	0.001112
2150.83	0.0012191
2160.48	0.001329
2170.12	0.0011288
2179.77	0.0010792
2189.41	0.0010597
2199.06	0.0011926
2208.7	0.0012995
2218.35	0.001479
2227.99	0.001689
2237.64	0.001629
2247.28	0.001529
2256.92	0.001379
2266.57	0.0012262
2276.21	0.0010342
2285.86	0.0010745
2295.5	0.001047
2305.15	0.0012633
2314.79	0.001329
2324.44	0.001469
2334.08	0.0013053
2343.73	0.001379
2353.37	0.001529
2363.02	0.001619
2372.66	0.001419
2382.31	0.0010709
2391.95	0.0008245
2401.6	0.0009293
2411.24	0.0009551
2420.89	0.0008523
2430.53	0.0011044
2440.18	0.0010892
2449.82	0.0011634
2459.47	0.001389
2469.11	0.001499
2478.75	0.001469
2488.4	0.001419
2498.04	0.0012135
2507.69	0.0011703
2517.33	0.0011262
2526.98	0.0009842
2536.62	0.0007738
2546.27	0.0009893
2555.91	0.0008339
2565.56	0.000731
2575.2	0.0006717
2584.85	0.0008037
2594.49	0.0007053
2604.14	0.000712
2613.78	0.0006795
2623.43	0.000719
2633.07	0.0006683
2642.72	0.0007646
2652.36	0.0006221
2662.01	0.0006294
2671.65	0.0007784
2681.29	0.0006948
2690.94	0.000805
2700.58	0.0008884
2710.23	0.0008858
2719.87	0.0007892
2729.52	0.0006279
2739.16	0.0006391
2748.81	0.0006579
2758.45	0.0006454
2768.1	0.0005856
2777.74	0.0007196
2787.39	0.0007059
2797.03	0.0008602
2806.68	0.0007416
2816.32	0.0007983
2825.97	0.0008851
2835.61	0.0010365
2845.26	0.0012314
2854.9	0.0012193
2864.55	0.001349
2874.19	0.001629
2883.84	0.001689
2893.48	0.001719
2903.12	0.001989
2912.77	0.002309
2922.41	0.003049
2932.06	0.003209
2941.7	0.003279
2951.35	0.003259
2960.99	0.003479
2970.64	0.003529
2980.28	0.003719
2989.93	0.003549
2999.57	0.003999
3009.22	0.005719
3018.86	0.005989
3028.51	0.004699
3038.15	0.003379
3047.8	0.003129
3057.44	0.003269
3067.09	0.003499
3076.73	0.003579
3086.38	0.002979
3096.02	0.002329
3105.67	0.002069
3115.31	0.001669
3124.95	0.001369
3134.6	0.0010581
3144.24	0.0009453
3153.89	0.0009182
3163.53	0.0007436
3173.18	0.0008131
3182.82	0.0008637
3192.47	0.0008636
3202.11	0.0005839
3211.76	0.0004694
3221.4	0.0005452
3231.05	0.0006626
3240.69	0.0005419
3250.34	0.00030547
3259.98	0.0003943
3269.63	0.0005833
3279.27	0.0004128
3288.92	0.0005482
3298.56	0.0008231
3308.21	0.0006359
3317.85	0.0006803
3327.49	0.0007628
3337.14	0.0008034
3346.78	0.000814
3356.43	0.0009566
3366.07	0.0011441
3375.72	0.001459
3385.36	0.002119
3395.01	0.001979
3404.65	0.001959
3414.3	0.002289
3423.94	0.001899
3433.59	0.001609
3443.23	0.001519
3452.88	0.001699
3462.52	0.001449
3472.17	0.0012703
3481.81	0.001529
3491.46	0.001869
3501.1	0.002469
3510.75	0.002589
3520.39	0.002659
3530.04	0.002349
3539.68	0.002239
3549.32	0.003099
3558.97	0.008889
3568.61	0.051719
3578.26	0.099549
3587.9	0.083619
3597.55	0.017889
3607.19	0.004219
3616.84	0.002269
3626.48	0.001669
3636.13	0.0012627
3645.77	0.0010726
3655.42	0.0008433
3665.06	0.0005853
3674.71	0.0005178
3684.35	0.00065
3694	0.0007818
3703.64	0.0010557
3713.29	0.0010723
3722.93	0.0006254
3732.58	0.0005215
3742.22	0.0004576
3751.86	0.00039702
3761.51	0.00035434
3771.15	0.00035708
3780.8	0.000185
3790.44	0.0002541
3800.09	0.0002378
3809.73	0.000149
3819.38	0.00032068
3829.02	0.000177
3838.67	0.0003882
3848.31	0.0002616
3857.96	0.000228
3867.6	0.0002485
3877.25	0.00033399
3886.89	0.0002879
3896.54	0.0005256
3906.18	0.0005905
3915.83	0.0002296
3925.47	0.0002188
3935.12	0.0002903
3944.76	0.0004757
3954.41	0.00040823
3964.05	0.0005482
3973.69	0.0005267
3983.34	0.00036777
3992.98	0.0002
