Infrared Spectrum: Hexyl methyl ether
Formula: C 7 H 16 O
CAS: 4747-07-3
State: gas
Instrument: HP-GC/MS/IRD
Origin: NIST Mass Spectrometry Data Center
1/CM	ABSORBANCE
550	4.5e-05
562	1.8e-05
574	7.2e-05
586	0.000117
598	0.000135
610	4.5e-05
622	0.0001305
634	9e-05
646	0.000171
658	0.0001305
670	6.3e-05
682	0.000234
694	0.0003105
706	0.000432
718	0.0006435
730	0.000774
742	0.000684
754	0.0005805
766	0.000603
778	0.0005265
790	0.000513
802	0.0004365
814	0.000549
826	0.000522
838	0.0005625
850	0.000621
862	0.000765
874	0.0010125
886	0.0014535
898	0.0019395
910	0.0020925
922	0.002097
934	0.001926
946	0.0018
958	0.001728
970	0.0016065
982	0.001548
994	0.0016155
1006	0.001629
1018	0.001665
1030	0.001926
1042	0.0023265
1054	0.0027585
1066	0.0036225
1078	0.005418
1090	0.009063
1102	0.014535
1114	0.021096
1126	0.024795
1138	0.0187155
1150	0.010665
1162	0.007146
1174	0.00639
1186	0.00684
1198	0.006165
1210	0.004392
1222	0.0032175
1234	0.002358
1246	0.001755
1258	0.0015615
1270	0.0015165
1282	0.001449
1294	0.001422
1306	0.001422
1318	0.0012555
1330	0.0012735
1342	0.001584
1354	0.001881
1366	0.002484
1378	0.0043245
1390	0.004617
1402	0.0024255
1414	0.001548
1426	0.001782
1438	0.0027405
1450	0.004284
1462	0.0055485
1474	0.0046395
1486	0.0027405
1498	0.00144
1510	0.0009045
1522	0.000666
1534	0.00054
1546	0.00045
1558	0.0003555
1570	0.0003285
1582	0.000333
1594	0.0002835
1606	0.00027
1618	0.000234
1630	0.000207
1642	0.0001665
1654	0.000153
1666	0.0001485
1678	0.000171
1690	0.0001215
1702	9.9e-05
1714	0.0001035
1726	9.9e-05
1738	6.75e-05
1750	7.2e-05
1762	6.75e-05
1774	7.2e-05
1786	6.3e-05
1798	4.95e-05
1810	6.75e-05
1822	6.3e-05
1834	4.5e-05
1846	4.05e-05
1858	4.5e-05
1870	7.2e-05
1882	7.2e-05
1894	7.2e-05
1906	8.1e-05
1918	9.9e-05
1930	0.000108
1942	0.0001035
1954	0.000108
1966	0.000135
1978	0.0001845
1990	0.000189
2002	0.000252
2014	0.000306
2026	0.0003375
2038	0.000342
2050	0.0003465
2062	0.000315
2074	0.000297
2086	0.000279
2098	0.0002475
2110	0.000225
2122	0.00018
2134	0.000153
2146	0.0001305
2158	0.000135
2170	0.000126
2182	0.000126
2194	0.000117
2206	0.0001035
2218	6.3e-05
2230	8.1e-05
2242	5.4e-05
2254	6.75e-05
2266	4.95e-05
2278	4.95e-05
2290	3.6e-05
2302	9e-06
2314	3.6e-05
2326	4.5e-05
2338	3.6e-05
2350	3.6e-05
2362	4.5e-06
2374	4.5e-05
2386	8.1e-05
2398	8.1e-05
2410	9.45e-05
2422	9.45e-05
2434	9e-05
2446	7.2e-05
2458	5.4e-05
2470	8.1e-05
2482	5.85e-05
2494	9.9e-05
2506	0.0001125
2518	0.0001305
2530	0.000162
2542	0.0001845
2554	0.000234
2566	0.000261
2578	0.0003465
2590	0.0003825
2602	0.000459
2614	0.0004725
2626	0.000504
2638	0.000558
2650	0.0006075
2662	0.000666
2674	0.0007965
2686	0.000891
2698	0.000972
2710	0.0011565
2722	0.001503
2734	0.0018945
2746	0.0020835
2758	0.0020835
2770	0.0022365
2782	0.002817
2794	0.0040995
2806	0.00693
2818	0.010773
2830	0.013374
2842	0.0151425
2854	0.0204975
2866	0.0269775
2878	0.0272835
2890	0.023625
2902	0.0234405
2914	0.028827
2926	0.039168
2938	0.045
2950	0.0382725
2962	0.0310815
2974	0.0244035
2986	0.01548
2998	0.0094095
3010	0.0051975
3022	0.0034425
3034	0.002574
3046	0.002061
3058	0.0017325
3070	0.0014445
3082	0.0012645
3094	0.0010395
3106	0.0009225
3118	0.000729
3130	0.000666
3142	0.0005355
3154	0.0004815
3166	0.0004545
3178	0.000414
3190	0.0003555
3202	0.000333
3214	0.000315
3226	0.000243
3238	0.000234
3250	0.0002115
3262	0.000144
3274	0.0001665
3286	0.000126
3298	0.0001305
3310	9.45e-05
3322	9.9e-05
3334	0.0001215
3346	7.65e-05
3358	0.0001125
3370	0.000135
3382	8.1e-05
3394	5.4e-05
3406	0.0001035
3418	6.75e-05
3430	6.75e-05
3442	7.2e-05
3454	4.95e-05
3466	9e-05
3478	4.95e-05
3490	7.65e-05
3502	4.5e-05
3514	8.55e-05
3526	1.35e-05
3538	7.2e-05
3550	6.75e-05
3562	1.8e-05
3574	5.4e-05
3586	3.6e-05
3598	9e-05
3610	9.45e-05
3622	9.45e-05
3634	0.000135
3646	0.0001125
3658	9e-05
3670	9.45e-05
3682	0.0001575
3694	0.0001035
3706	0.0001035
3718	0.000117
3730	0.0001215
3742	0.000171
3754	0.0001305
3766	0.000135
3778	0.0001395
3790	0.0001845
3802	0.000162
3814	0.0001755
3826	0.0002295
3838	0.0001845
