Infrared Spectrum: n-Heptyl isocyanate
Formula: C 8 H 15 N O
CAS: 4747-81-3
State: gas
Origin: EPA-IR VAPOR PHASE LIBRARY
1/CM	ABSORBANCE
549.8	0.000901
559.445	0.001035
569.09	0.0015887
578.735	0.0023
588.38	0.00409
598.025	0.00697
607.67	0.00913
617.315	0.00819
626.96	0.00582
636.605	0.0039
646.251	0.00294
655.896	0.00247
665.541	0.002161
675.186	0.0016483
684.831	0.0016324
694.476	0.0016546
704.121	0.00163
713.766	0.0019301
723.411	0.002213
733.056	0.0018286
742.701	0.0016449
752.346	0.00134707
761.991	0.0013677
771.636	0.0015114
781.281	0.0016516
790.926	0.0015361
800.571	0.0016814
810.216	0.00241
819.861	0.00288
829.507	0.00306
839.152	0.00292
848.797	0.00287
858.442	0.00306
868.087	0.00399
877.732	0.00481
887.377	0.0044
897.022	0.00331
906.667	0.0026
916.312	0.00243
925.957	0.002159
935.602	0.0019688
945.247	0.0017589
954.892	0.0016564
964.537	0.0013907
974.182	0.0013326
983.827	0.001629
993.472	0.0020182
1003.12	0.0021609
1012.76	0.002136
1022.41	0.0018578
1032.05	0.001694
1041.7	0.0017244
1051.34	0.0016306
1060.99	0.0014814
1070.63	0.0013573
1080.28	0.000987
1089.92	0.000985
1099.57	0.001029
1109.21	0.0012154
1118.86	0.0013684
1128.5	0.00126431
1138.15	0.001116
1147.79	0.000916
1157.44	0.000948
1167.08	0.001113
1176.73	0.00125505
1186.37	0.00132589
1196.02	0.00124179
1205.66	0.001124
1215.31	0.0013584
1224.95	0.0014338
1234.6	0.0014298
1244.24	0.001755
1253.89	0.0018809
1263.53	0.0021201
1273.18	0.0021291
1282.82	0.00233
1292.47	0.00283
1302.11	0.00351
1311.76	0.00382
1321.4	0.00434
1331.05	0.00569
1340.69	0.00907
1350.34	0.01386
1359.98	0.01481
1369.63	0.01127
1379.27	0.00771
1388.92	0.00495
1398.56	0.00334
1408.21	0.003
1417.85	0.00349
1427.5	0.00498
1437.14	0.00664
1446.79	0.00755
1456.43	0.00868
1466.08	0.00965
1475.73	0.00809
1485.37	0.00424
1495.02	0.00248
1504.66	0.0017463
1514.31	0.0013543
1523.95	0.00127144
1533.6	0.001088
1543.24	0.001056
1552.89	0.000947
1562.53	0.000823
1572.18	0.000799
1581.82	0.00076
1591.47	0.000754
1601.11	0.000771
1610.76	0.000725
1620.4	0.000719
1630.05	0.00075
1639.69	0.000662
1649.34	0.000686
1658.98	0.000624
1668.63	0.000686
1678.27	0.000604
1687.92	0.000588
1697.56	0.000687
1707.21	0.000599
1716.85	0.000588
1726.5	0.000621
1736.14	0.000544
1745.79	0.000528
1755.43	0.000566
1765.08	0.00052
1774.72	0.000501
1784.37	0.000439
1794.01	0.000595
1803.66	0.000517
1813.3	0.000494
1822.95	0.000469
1832.59	0.000514
1842.24	0.000533
1851.88	0.000527
1861.53	0.000473
1871.17	0.000546
1880.82	0.000508
1890.46	0.000544
1900.11	0.000504
1909.75	0.000535
1919.4	0.000518
1929.04	0.000581
1938.69	0.000552
1948.33	0.000576
1957.98	0.000577
1967.62	0.000623
1977.27	0.000648
1986.91	0.00073
1996.56	0.00073
2006.2	0.000857
2015.85	0.000931
2025.49	0.001039
2035.14	0.001128
2044.78	0.00126726
2054.43	0.0013785
2064.07	0.0016869
2073.72	0.0018178
2083.36	0.0022049
2093.01	0.00257
2102.65	0.0029
2112.3	0.00318
2121.94	0.00352
2131.59	0.004
2141.23	0.00451
2150.88	0.00552
2160.52	0.00679
2170.17	0.00862
2179.81	0.0112
2189.46	0.0149
2199.1	0.02008
2208.75	0.0272
2218.39	0.03717
2228.04	0.05285
2237.68	0.07822
2247.33	0.11722
2256.97	0.17077
2266.62	0.21908
2276.26	0.21952
2285.91	0.17607
2295.55	0.11526
2305.2	0.06993
2314.84	0.04584
2324.49	0.03206
2334.13	0.02282
2343.78	0.01661
2353.42	0.0126
2363.07	0.01008
2372.72	0.00835
2382.36	0.00712
2392.01	0.00638
2401.65	0.00583
2411.3	0.00541
2420.94	0.00479
2430.59	0.00423
2440.23	0.00369
2449.88	0.00306
2459.52	0.00257
2469.17	0.0021485
2478.81	0.0017852
2488.46	0.0015586
2498.1	0.0014272
2507.75	0.0013893
2517.39	0.0012037
2527.04	0.0011532
2536.68	0.001048
2546.33	0.001115
2555.97	0.001034
2565.62	0.001069
2575.26	0.001059
2584.91	0.001031
2594.55	0.001038
2604.2	0.001072
2613.84	0.0011725
2623.49	0.001064
2633.13	0.001046
2642.78	0.001138
2652.42	0.00126337
2662.07	0.0013692
2671.71	0.0013845
2681.36	0.0014231
2691	0.0014597
2700.65	0.0014262
2710.29	0.0013948
2719.94	0.0014273
2729.58	0.0014247
2739.23	0.0015622
2748.87	0.0016535
2758.52	0.0015978
2768.16	0.0016537
2777.81	0.001726
2787.45	0.0020473
2797.1	0.00255
2806.74	0.00285
2816.39	0.00359
2826.03	0.00456
2835.68	0.00595
2845.32	0.00952
2854.97	0.01728
2864.61	0.02525
2874.26	0.02685
2883.9	0.02559
2893.55	0.02357
2903.19	0.02498
2912.84	0.03278
2922.48	0.04904
2932.13	0.06736
2941.77	0.07118
2951.42	0.06097
2961.06	0.05222
2970.71	0.04226
2980.35	0.02346
2990	0.01174
2999.64	0.00734
3009.29	0.00521
3018.93	0.00405
3028.58	0.0034
3038.22	0.00297
3047.87	0.00231
3057.51	0.0022255
3067.16	0.0020364
3076.8	0.0019921
3086.45	0.0019641
3096.09	0.0019586
3105.74	0.0020184
3115.38	0.0015985
3125.03	0.0017281
3134.67	0.0016163
3144.32	0.0015716
3153.96	0.0014775
3163.61	0.0011763
3173.25	0.001127
3182.9	0.000954
3192.54	0.001017
3202.19	0.000896
3211.83	0.000748
3221.48	0.00048
3231.12	0.0004
3240.77	0.00053
3250.41	0.000385
3260.06	0.000426
3269.7	0.000295
3279.35	0.000331
3289	0.000461
3298.64	0.00037
3308.29	8e-05
3317.93	0.00011
3327.58	0.000257
3337.22	0.000263
3346.87	0.000271
3356.51	0.000268
3366.16	0.000369
3375.8	0.00023
3385.45	0.00018
3395.09	0.00024
3404.74	0.000303
3414.38	0.000455
3424.03	0.00025
3433.67	9e-05
3443.32	0.00021
3452.96	0.0002
3462.61	0.000273
3472.25	0.000367
3481.9	0.00024
3491.54	0.00024
3501.19	0.000399
3510.83	0.000351
3520.48	0.00028
3530.12	0.000396
3539.77	0.00044
3549.41	0.000442
3559.06	0.000545
3568.7	0.000368
3578.35	0.000455
3587.99	0.000749
3597.64	0.000667
3607.28	0.000824
3616.93	0.001032
3626.57	0.00124015
3636.22	0.00126759
3645.86	0.0014542
3655.51	0.0017504
3665.15	0.0017574
3674.8	0.0021699
3684.44	0.0020344
3694.09	0.0021171
3703.73	0.0018514
3713.38	0.001875
3723.02	0.0016604
3732.67	0.0013862
3742.31	0.0011588
3751.96	0.000915
3761.6	0.00079
3771.25	0.00092
3780.89	0.000726
3790.54	0.000617
3800.18	0.000587
3809.83	0.000634
3819.47	0.000565
3829.12	0.000385
3838.76	0.000502
3848.41	0.000384
3858.05	0.000369
3867.7	0.000388
3877.34	0.000362
3886.99	0.000284
3896.63	0.000342
3906.28	0.00022
3915.92	0.000347
3925.57	0.000397
3935.21	0.000361
3944.86	0.000289
3954.5	0.0003
3964.15	0.000283
3973.79	0.000349
3983.44	0.000438
3993.08	0.000542
