Infrared Spectrum: LONGIFOLENE
Formula: C15 H24
CAS: 475-20-7
State: SOLUTION (10% IN CCl4 FOR 3800-1340 CM^-^1, 10% IN CS2 FOR 1340-600 CM^-^1)
Boiling point: 118 C AT 10 mmHg
Class: COBLENTZ III
Instrument: BECKMAN IR-7 (GRATING)
Instrument parameters: GRATING CHANGES AT 3000, 2200, 1150 CM^-^1
Sampling: TRANSMISSION
Path length: 0.01 CM, 0.01 CM
Resolution: 4
Origin: WESTERN REGIONAL RES. USDA
1/CM	TRANSMITTANCE
599.501	0.693
607.606	0.678
615.711	0.66
623.815	0.648
631.92	0.698
640.025	0.709
648.13	0.711
656.234	0.724
664.339	0.795
672.444	0.748
680.549	0.55
688.653	0.754
696.758	0.794
704.863	0.808
712.968	0.815
721.073	0.823
729.177	0.825
737.282	0.8
745.387	0.808
753.492	0.821
761.596	0.784
769.701	0.814
777.806	0.81
785.911	0.721
794.016	0.812
802.12	0.792
810.225	0.702
818.33	0.624
826.435	0.774
834.539	0.785
842.644	0.707
850.749	0.676
858.854	0.615
866.958	0.14
875.063	0.2211
883.168	0.631
891.273	0.678
899.378	0.758
907.482	0.787
915.587	0.821
923.692	0.825
931.797	0.793
939.901	0.758
948.006	0.805
956.111	0.799
964.216	0.792
972.321	0.795
980.425	0.713
988.53	0.759
996.635	0.808
1004.74	0.793
1012.84	0.797
1020.95	0.808
1029.05	0.805
1037.16	0.809
1045.26	0.806
1053.37	0.762
1061.47	0.783
1069.58	0.807
1077.68	0.811
1085.79	0.8
1093.89	0.698
1102	0.747
1110.1	0.79
1118.21	0.777
1126.31	0.677
1134.42	0.787
1142.52	0.771
1150.63	0.725
1158.73	0.731
1166.84	0.687
1174.94	0.67
1183.04	0.77
1191.15	0.799
1199.25	0.795
1207.36	0.753
1215.46	0.719
1223.57	0.732
1231.67	0.755
1239.78	0.774
1247.88	0.764
1255.99	0.782
1264.09	0.779
1272.2	0.748
1280.3	0.751
1288.41	0.719
1296.51	0.619
1304.62	0.756
1312.72	0.782
1320.83	0.792
1328.93	0.789
1337.04	0.774
1345.14	0.752
1353.24	0.712
1361.35	0.421
1369.45	0.5648
1377.56	0.3902
1385.66	0.681
1393.77	0.662
1401.87	0.747
1409.98	0.732
1418.08	0.719
1426.19	0.716
1434.29	0.5339
1442.4	0.4809
1450.5	0.3789
1458.61	0.318
1466.71	0.455
1474.82	0.339
1482.92	0.5491
1491.03	0.676
1499.13	0.683
1507.24	0.638
1515.34	0.536
1523.45	0.4331
1531.55	0.541
1539.65	0.472
1547.76	0.417
1555.86	0.428
1563.97	0.491
1572.07	0.546
1580.18	0.566
1588.28	0.592
1596.39	0.634
1604.49	0.704
1612.6	0.736
1620.7	0.753
1628.81	0.758
1636.91	0.752
1645.02	0.7199
1653.12	0.477
1661.23	0.5141
1669.33	0.706
1677.44	0.764
1685.54	0.783
1693.65	0.79
1701.75	0.794
1709.85	0.793
1717.96	0.791
1726.06	0.776
1734.17	0.753
1742.27	0.76
1750.38	0.77
1758.48	0.749
1766.59	0.782
1774.69	0.797
1782.8	0.802
1790.9	0.804
1799.01	0.805
1807.11	0.807
1815.22	0.808
1823.32	0.808
1831.43	0.808
1839.53	0.808
1847.64	0.808
1855.74	0.806
1863.85	0.807
1871.95	0.809
1880.06	0.812
1888.16	0.813
1896.26	0.815
1904.37	0.814
1912.47	0.815
1920.58	0.815
1928.68	0.815
1936.79	0.815
1944.89	0.814
1953	0.813
1961.1	0.812
1969.21	0.811
1977.31	0.812
1985.42	0.81
1993.52	0.81
2001.63	0.8135
2009.73	0.814
2017.84	0.8145
2025.94	0.816
2034.05	0.8176
2042.15	0.8181
2050.26	0.819
2058.36	0.82
2066.46	0.82
2074.57	0.82
2082.67	0.82
2090.78	0.8199
2098.88	0.819
2106.99	0.818
2115.09	0.817
2123.2	0.817
2131.3	0.8163
2139.41	0.8158
2147.51	0.8143
2155.62	0.814
2163.72	0.8148
2171.83	0.815
2179.93	0.815
2188.04	0.814
2196.14	0.814
2204.25	0.812
2212.35	0.8112
2220.46	0.809
2228.56	0.808
2236.67	0.8056
2244.77	0.804
2252.87	0.8016
2260.98	0.8
2269.08	0.7976
2277.19	0.7951
2285.29	0.7926
2293.4	0.791
2301.5	0.791
2309.61	0.791
2317.71	0.7915
2325.82	0.793
2333.92	0.794
2342.03	0.796
2350.13	0.7985
2358.24	0.8001
2366.34	0.802
2374.45	0.805
2382.55	0.806
2390.66	0.808
2398.76	0.808
2406.87	0.809
2414.97	0.81
2423.07	0.8102
2431.18	0.811
2439.28	0.811
2447.39	0.811
2455.49	0.811
2463.6	0.811
2471.7	0.811
2479.81	0.811
2487.91	0.811
2496.02	0.8102
2504.12	0.8097
2512.23	0.809
2520.33	0.808
2528.44	0.808
2536.54	0.807
2544.65	0.806
2552.75	0.805
2560.86	0.804
2568.96	0.8026
2577.07	0.8011
2585.17	0.8
2593.28	0.799
2601.38	0.797
2609.48	0.7951
2617.59	0.795
2625.69	0.794
2633.8	0.7921
2641.9	0.79
2650.01	0.7875
2658.11	0.785
2666.22	0.7825
2674.32	0.779
2682.43	0.7759
2690.53	0.7729
2698.64	0.7694
2706.74	0.7659
2714.85	0.7596
2722.95	0.7496
2731.06	0.7422
2739.16	0.7244
2747.27	0.7196
2755.37	0.7351
2763.48	0.7467
2771.58	0.7555
2779.68	0.7604
2787.79	0.7558
2795.89	0.7361
2804	0.7117
2812.1	0.6873
2820.21	0.6589
2828.31	0.5981
2836.42	0.5055
2844.52	0.2422
2852.63	0.1485
2860.73	0.1077
2868.84	0.074
2876.94	0.1325
2885.05	0.1097
2893.15	0.0861
2901.26	0.0572
2909.36	0.0541
2917.47	0.0444
2925.57	0.0343
2933.68	0.0239
2941.78	0.0132
2949.89	0.0105
2957.99	0.011
2966.09	0.0266
2974.2	0.0719
2982.3	0.2366
2990.41	0.4426
2998.51	0.5542
3006.62	0.6373
3014.72	0.6982
3022.83	0.7361
3030.93	0.7392
3039.04	0.7387
3047.14	0.7296
3055.25	0.6522
3063.35	0.587
3071.46	0.6623
3079.56	0.7282
3087.67	0.7785
3095.77	0.7937
3103.88	0.7984
3111.98	0.8
3120.09	0.8012
3128.19	0.8013
3136.29	0.8
3144.4	0.7992
3152.5	0.7967
3160.61	0.7952
3168.71	0.7947
3176.82	0.7932
3184.92	0.793
3193.03	0.793
3201.13	0.7933
3209.24	0.794
3217.34	0.795
3225.45	0.7969
3233.55	0.7984
3241.66	0.7999
3249.76	0.8004
3257.87	0.8029
3265.97	0.804
3274.08	0.804
3282.18	0.8055
3290.29	0.807
3298.39	0.807
3306.5	0.808
3314.6	0.808
3322.7	0.808
3330.81	0.8065
3338.91	0.8049
3347.02	0.804
3355.12	0.8039
3363.23	0.802
3371.33	0.8021
3379.44	0.803
3387.54	0.804
3395.65	0.8046
3403.75	0.8062
3411.86	0.807
3419.96	0.808
3428.07	0.808
3436.17	0.807
3444.28	0.8063
3452.38	0.8058
3460.49	0.8057
3468.59	0.8073
3476.7	0.808
3484.8	0.809
3492.9	0.81
3501.01	0.8103
3509.11	0.8102
3517.22	0.8103
3525.32	0.811
3533.43	0.811
3541.53	0.812
3549.64	0.812
3557.74	0.812
3565.85	0.813
3573.95	0.814
3582.06	0.815
3590.16	0.816
3598.27	0.8155
3606.37	0.815
3614.48	0.815
3622.58	0.814
3630.69	0.814
3638.79	0.814
3646.9	0.813
3655	0.813
3663.11	0.812
3671.21	0.812
3679.31	0.8114
3687.42	0.81
3695.52	0.8094
3703.63	0.8089
3711.73	0.808
3719.84	0.808
3727.94	0.807
3736.05	0.8068
3744.15	0.806
3752.26	0.8058
3760.36	0.805
3768.47	0.804
3776.57	0.804
3784.68	0.804
