Infrared Spectrum: 1,1,6-Trimethyl tetralin
Formula: C 13 H 18
CAS: 475-03-6
State: gas
Instrument: HP-GC/MS/IRD
Origin: NIST Mass Spectrometry Data Center
1/CM	ABSORBANCE
550	0.0009922
562	0.0021361
574	0.0012013
586	0.0004059
598	0.000246
610	0.0002788
622	6.56e-05
634	0.0001435
646	0.0001025
658	0.0001353
670	5.33e-05
682	0.0001271
694	1.64e-05
706	4.51e-05
718	0.0001435
730	0.0003526
742	0.0003034
754	0.0002624
766	0.0002378
778	0.0002747
790	0.0005945
802	0.0033333
814	0.0076957
826	0.0027306
838	0.000738
850	0.0007216
862	0.0005904
874	0.0010209
886	0.0010947
898	0.0009881
910	0.0007339
922	0.0003567
934	0.0003936
946	0.0004182
958	0.0004633
970	0.000574
982	0.0004018
994	0.0003198
1006	0.0002993
1018	0.0002706
1030	0.0004428
1042	0.0008815
1054	0.0019188
1066	0.0016728
1078	0.0017343
1090	0.0007954
1102	0.0003608
1114	0.0004387
1126	0.0005617
1138	0.0009266
1150	0.001394
1162	0.0007954
1174	0.0006642
1186	0.0007339
1198	0.0011726
1210	0.0011316
1222	0.0006642
1234	0.0011726
1246	0.0009061
1258	0.0004633
1270	0.000656
1282	0.0015539
1294	0.0016769
1306	0.000738
1318	0.0006109
1330	0.0011685
1342	0.0015211
1354	0.0020664
1366	0.0035752
1378	0.002665
1390	0.0024518
1402	0.0015908
1414	0.0019721
1426	0.0023001
1438	0.0029438
1450	0.0042681
1462	0.0055555
1474	0.0042763
1486	0.0049897
1498	0.0075399
1510	0.0043542
1522	0.0017999
1534	0.0011152
1546	0.0008487
1558	0.0007052
1570	0.0005863
1582	0.0005166
1594	0.0007052
1606	0.0014432
1618	0.0016031
1630	0.0006642
1642	0.0003198
1654	0.0002296
1666	0.0001886
1678	0.0002255
1690	0.0002665
1702	0.0002337
1714	0.000205
1726	0.0002378
1738	0.0003198
1750	0.0004674
1762	0.0004264
1774	0.0002214
1786	0.0001435
1798	0.000123
1810	0.0001353
1822	0.000164
1834	0.0001558
1846	0.0001599
1858	0.0001681
1870	0.0002501
1882	0.0003895
1894	0.0004182
1906	0.0002173
1918	9.84e-05
1930	9.43e-05
1942	8.2e-05
1954	6.56e-05
1966	4.51e-05
1978	4.1e-05
1990	4.51e-05
2002	2.46e-05
2014	1.64e-05
2026	4.92e-05
2038	4.51e-05
2050	6.15e-05
2062	2.87e-05
2074	8.2e-06
2086	2.46e-05
2098	3.28e-05
2110	2.87e-05
2122	4.1e-05
2134	2.05e-05
2146	4.1e-06
2158	2.05e-05
2170	4.92e-05
2182	4.1e-05
2194	6.15e-05
2206	4.51e-05
2218	2.46e-05
2230	4.92e-05
2242	6.15e-05
2254	5.74e-05
2266	6.56e-05
2278	9.02e-05
2290	0.0001107
2302	0.0001107
2314	9.84e-05
2326	8.2e-05
2338	7.79e-05
2350	7.79e-05
2362	9.02e-05
2374	7.38e-05
2386	0.0001271
2398	0.0001312
2410	0.0001353
2422	0.0001025
2434	0.0001271
2446	0.000123
2458	0.0001271
2470	0.0001312
2482	0.0001271
2494	0.0001312
2506	0.000123
2518	0.0001763
2530	0.0001435
2542	0.0001312
2554	0.0001394
2566	0.0001558
2578	0.0001599
2590	0.000164
2602	0.0001722
2614	0.0002132
2626	0.000246
2638	0.0002706
2650	0.0003444
2662	0.0005453
2674	0.0005371
2686	0.0003403
2698	0.0003034
2710	0.0003649
2722	0.0005002
2734	0.0006724
2746	0.0007011
2758	0.0005863
2770	0.000656
2782	0.0007831
2794	0.0009471
2806	0.0011316
2818	0.0014801
2830	0.0023616
2842	0.0050799
2854	0.0097621
2866	0.0132512
2878	0.0156497
2890	0.0140384
2902	0.014514
2914	0.0212831
2926	0.0340259
2938	0.041
2950	0.0304261
2962	0.0272814
2974	0.0213569
2986	0.0097129
2998	0.0080401
3010	0.0089216
3022	0.0070807
3034	0.0051496
3046	0.0042025
3058	0.0041369
3070	0.0032103
3082	0.001927
3094	0.0012505
3106	0.0011234
3118	0.0010127
3130	0.0007667
3142	0.0005904
3154	0.0005084
3166	0.0004715
3178	0.0003936
3190	0.0003608
3202	0.0003895
3214	0.00041
3226	0.000328
3238	0.0002747
3250	0.0002255
3262	0.000205
3274	0.0001886
3286	0.0001435
3298	0.0001312
3310	0.0001394
3322	0.0001312
3334	0.0001435
3346	0.000123
3358	9.43e-05
3370	0.0001271
3382	0.0001066
3394	0.0001066
3406	9.43e-05
3418	0.0001476
3430	0.000123
3442	0.0001025
3454	0.0001435
3466	0.0001107
3478	0.0001107
3490	0.0001066
3502	9.02e-05
3514	5.74e-05
3526	7.79e-05
3538	0.000123
3550	8.61e-05
3562	7.79e-05
3574	6.97e-05
3586	6.15e-05
3598	4.51e-05
3610	4.92e-05
3622	5.33e-05
3634	7.38e-05
3646	8.2e-05
3658	0.0001189
3670	0.0001025
3682	0.0001066
3694	7.79e-05
3706	8.2e-05
3718	0.0001353
3730	0.0001271
3742	0.0001271
3754	0.0001476
3766	0.0001394
3778	0.0001394
3790	0.0001599
3802	0.0001476
3814	0.0001886
3826	0.0001312
3838	0.000164
