Infrared Spectrum: Glycocholic acid
Formula: C26 H43 N O6
CAS: 475-31-0
State: SOLID (SPLIT MULL), FLUOROLUBE FOR 3800-1330 CM^-^1, NUJOL FOR 1330-460 CM^-^1
Class: COBLENTZ III
Instrument: DOW KBr FOREPRISM-GRATING
Instrument parameters: BLAZED AT 3.5, 12.0, 20.0 MICRON AND CHANGED AT 5.0, 7.5, 14.9 MICRON
Sampling: TRANSMISSION
Resolution: 2
Origin: DOW CHEMICAL COMPANY
1/CM	TRANSMITTANCE
3800	0.6922
3791	0.694
3782	0.696
3773	0.6981
3764	0.7005
3755	0.703
3746	0.7062
3737	0.7096
3728	0.7131
3719	0.7165
3710	0.7198
3701	0.7218
3692	0.7245
3683	0.7271
3674	0.7358
3665	0.7351
3656	0.7265
3647	0.7265
3638	0.7285
3629	0.7298
3620	0.7292
3611	0.7271
3602	0.7218
3593	0.714
3584	0.7028
3575	0.6895
3566	0.6737
3557	0.656
3548	0.6381
3539	0.6229
3530	0.6057
3521	0.5831
3512	0.5577
3503	0.5346
3494	0.5164
3485	0.4993
3476	0.4823
3467	0.4653
3458	0.4469
3449	0.4242
3440	0.4048
3431	0.3862
3422	0.3699
3413	0.355
3404	0.3424
3395	0.3334
3386	0.3256
3377	0.3199
3368	0.315
3359	0.3119
3350	0.3095
3341	0.308
3332	0.3072
3323	0.3066
3314	0.3065
3305	0.3084
3296	0.3112
3287	0.3152
3278	0.3223
3269	0.3304
3260	0.3387
3251	0.3484
3242	0.3599
3233	0.3736
3224	0.387
3215	0.4002
3206	0.4134
3197	0.4253
3188	0.4372
3179	0.4518
3170	0.4655
3161	0.4783
3152	0.4898
3143	0.5012
3134	0.5121
3125	0.5231
3116	0.534
3107	0.5432
3098	0.5503
3089	0.5566
3080	0.563
3071	0.5702
3062	0.5783
3053	0.5872
3044	0.5972
3035	0.6086
3026	0.6196
3017	0.6289
3008	0.6379
2999	0.6397
2990	0.6241
2981	0.5345
2972	0.4053
2963	0.3284
2954	0.2833
2945	0.2512
2936	0.2249
2927	0.1985
2918	0.196
2909	0.2041
2900	0.2674
2891	0.3075
2882	0.3334
2873	0.3373
2864	0.299
2855	0.2712
2846	0.2899
2837	0.3795
2828	0.4587
2819	0.4967
2810	0.5273
2801	0.5521
2792	0.577
2783	0.5947
2774	0.6075
2765	0.6158
2756	0.6233
2747	0.6286
2738	0.6329
2729	0.636
2720	0.6394
2711	0.6425
2702	0.6461
2693	0.6498
2684	0.6535
2675	0.6571
2666	0.6611
2657	0.6651
2648	0.6693
2639	0.6739
2630	0.6785
2621	0.6826
2612	0.6867
2603	0.6906
2594	0.6945
2585	0.6968
2576	0.6992
2567	0.7015
2558	0.704
2549	0.7062
2540	0.7086
2531	0.7108
2522	0.713
2513	0.7151
2504	0.7174
2495	0.7194
2486	0.7214
2477	0.7233
2468	0.7253
2459	0.7271
2450	0.7293
2441	0.7312
2432	0.7334
2423	0.7362
2414	0.7393
2405	0.7421
2396	0.7449
2387	0.7471
2378	0.7495
2369	0.7522
2360	0.7538
2351	0.7545
2342	0.7546
2333	0.7544
2324	0.7541
2315	0.754
2306	0.7539
2297	0.7545
2288	0.756
2279	0.7589
2270	0.7618
2261	0.7647
2252	0.7682
2243	0.7715
2234	0.775
2225	0.7784
2216	0.7821
2207	0.7865
2198	0.7908
2189	0.7953
2180	0.7991
2171	0.8021
2162	0.8054
2153	0.8085
2144	0.8118
2135	0.8148
2126	0.8174
2117	0.82
2108	0.8225
2099	0.8252
2090	0.8278
2081	0.8304
2072	0.833
2063	0.8356
2054	0.8381
2045	0.8406
2036	0.8431
2027	0.8454
2018	0.8468
2009	0.8483
2000	0.8505
1991	0.8531
1982	0.846
1973	0.847
1964	0.8483
1955	0.8501
1946	0.8518
1937	0.8527
1928	0.8536
1919	0.8549
1910	0.8561
1901	0.8574
1892	0.8586
1883	0.8598
1874	0.861
1865	0.8621
1856	0.8634
1847	0.8646
1838	0.8657
1829	0.8663
1820	0.8668
1811	0.8673
1802	0.8668
1793	0.8666
1784	0.8664
1775	0.8653
1766	0.8632
1757	0.8583
1748	0.848
1739	0.8309
1730	0.8101
1721	0.7874
1712	0.7718
1703	0.7618
1694	0.7528
1685	0.7378
1676	0.6905
1667	0.5838
1658	0.4521
1649	0.4048
1640	0.3893
1631	0.3742
1622	0.3512
1613	0.3227
1604	0.2825
1595	0.267
1586	0.3035
1577	0.3612
1568	0.4406
1559	0.4802
1550	0.4873
1541	0.4976
1532	0.5126
1523	0.53
1514	0.5498
1505	0.571
1496	0.5987
1487	0.6299
1478	0.628
1469	0.531
1460	0.4874
1451	0.4968
1442	0.4749
1433	0.4947
1424	0.4839
1415	0.419
1406	0.3636
1397	0.339
1388	0.3705
1379	0.3803
1370	0.4054
1361	0.4524
1352	0.4792
1343	0.4747
1334	0.457
1325	0.4693
1316	0.4262
1307	0.3921
1298	0.3939
1289	0.4298
1280	0.4633
1271	0.4637
1262	0.4583
1253	0.4569
1244	0.4728
1235	0.4848
1226	0.4983
1217	0.5372
1208	0.5565
1199	0.5439
1190	0.5235
1181	0.5797
1172	0.6023
1163	0.6119
1154	0.6107
1145	0.6157
1136	0.6575
1127	0.6728
1118	0.6227
1109	0.608
1100	0.6355
1091	0.4928
1082	0.4548
1073	0.3362
1064	0.5741
1055	0.6128
1046	0.4283
1037	0.4279
1028	0.5112
1019	0.5595
1010	0.5734
1001	0.6358
992	0.6536
983	0.6366
974	0.583
965	0.7088
956	0.7197
947	0.6288
938	0.696
929	0.7143
920	0.6657
911	0.5831
902	0.6901
893	0.6908
884	0.7543
875	0.7632
866	0.7721
857	0.7086
848	0.7203
839	0.7625
830	0.7732
821	0.7668
812	0.7531
803	0.7451
794	0.7269
785	0.7147
776	0.6828
767	0.6931
758	0.6858
749	0.6608
740	0.6124
731	0.5748
722	0.5691
713	0.5724
704	0.5971
695	0.5933
686	0.5858
677	0.5945
668	0.6108
659	0.5989
650	0.5929
641	0.5849
632	0.5833
623	0.5795
614	0.5399
605	0.5364
596	0.5654
587	0.5678
578	0.5735
569	0.5812
560	0.5767
551	0.5744
542	0.581
533	0.581
524	0.5798
515	0.5923
506	0.6107
497	0.6131
488	0.6214
479	0.6307
470	0.6332
461	0.6336
