Infrared Spectrum: Benzoic acid, o-(2-hydroxy-p-anisoyl)-
Formula: C15 H12 O5
CAS: 4756-45-0
State: SOLID (SPLIT MULL), FLUOROLUBE FOR 3800-1330 CM^-^1, NUJOL FOR 1330-400 CM^-^1
Class: COBLENTZ III
Instrument: BECKMAN IR-9 (GRATING)
Instrument parameters: ORDER CHANGES: 670, 1200, 2000 CM^-^1
Sampling: TRANSMISSION
Resolution: 2
Origin: DOW CHEMICAL COMPANY
1/CM	TRANSMITTANCE
404	0.6229
413	0.6325
422	0.6576
431	0.6932
440	0.7395
449	0.7708
458	0.7683
467	0.7891
476	0.823
485	0.8461
494	0.8574
503	0.8618
512	0.8601
521	0.8584
530	0.8553
539	0.7446
548	0.7828
557	0.7708
566	0.8167
575	0.8592
584	0.8707
593	0.8609
602	0.4796
611	0.7712
620	0.4878
629	0.8494
638	0.8704
647	0.8014
656	0.6324
665	0.8344
674	0.8592
683	0.8616
692	0.8193
701	0.6252
710	0.6915
719	0.4756
728	0.5684
737	0.6194
746	0.7537
755	0.6961
764	0.3484
773	0.575
782	0.6689
791	0.7636
800	0.7558
809	0.5375
818	0.7693
827	0.7387
836	0.6701
845	0.8095
854	0.834
863	0.8374
872	0.8311
881	0.8191
890	0.7888
899	0.6238
908	0.7078
917	0.6125
926	0.3538
935	0.6881
944	0.7701
953	0.7876
962	0.6411
971	0.4769
980	0.7597
989	0.8174
998	0.8211
1007	0.819
1016	0.8111
1025	0.7447
1034	0.5816
1043	0.7383
1052	0.8108
1061	0.8188
1070	0.81
1079	0.7443
1088	0.7382
1097	0.7934
1106	0.7969
1115	0.7405
1124	0.3718
1133	0.67
1142	0.7111
1151	0.4732
1160	0.5995
1169	0.4075
1178	0.4421
1187	0.6451
1196	0.2621
1205	0.1775
1214	0.606
1223	0.6227
1232	0.5798
1241	0.4952
1250	0.1813
1259	0.0184
1268	0.1552
1277	0.2332
1286	0.0878
1295	0.4778
1304	0.3003
1313	0.3279
1322	0.5162
1331	0.2382
1340	0.2267
1349	0.4075
1358	0.4286
1367	0.2811
1376	0.3133
1385	0.5826
1394	0.6217
1403	0.5372
1412	0.38
1421	0.2535
1430	0.5226
1439	0.4446
1448	0.5471
1457	0.5668
1466	0.5691
1475	0.6168
1484	0.462
1493	0.3804
1502	0.3862
1511	0.353
1520	0.6082
1529	0.6645
1538	0.6701
1547	0.6436
1556	0.5723
1565	0.4341
1574	0.1551
1583	0.4288
1592	0.4178
1601	0.2597
1610	0.2283
1619	0.0579
1628	0.0168
1637	0.0371
1646	0.3532
1655	0.4555
1664	0.4964
1673	0.4333
1682	0.2947
1691	0.0495
1700	0.1571
1709	0.583
1718	0.7551
1727	0.8206
1736	0.8559
1745	0.8707
1754	0.8787
1763	0.8707
1772	0.8594
1781	0.8457
1790	0.8538
1799	0.8532
1808	0.8503
1817	0.8482
1826	0.8453
1835	0.8432
1844	0.8436
1853	0.8375
1862	0.8267
1871	0.8165
1880	0.8171
1889	0.8183
1898	0.8034
1907	0.7835
1916	0.8187
1925	0.8233
1934	0.8199
1943	0.8144
1952	0.8186
1961	0.8153
1970	0.805
1979	0.8045
1988	0.803
1997	0.7867
2006	0.8035
2015	0.8057
2024	0.801
2033	0.7949
2042	0.7896
2051	0.7828
2060	0.7853
2069	0.7835
2078	0.7762
2087	0.7705
2096	0.765
2105	0.7658
2114	0.7664
2123	0.7641
2132	0.7611
2141	0.7575
2150	0.7533
2159	0.7489
2168	0.7447
2177	0.7405
2186	0.7355
2195	0.7304
2204	0.7249
2213	0.719
2222	0.7132
2231	0.7072
2240	0.7006
2249	0.6937
2258	0.6869
2267	0.6801
2276	0.6732
2285	0.6661
2294	0.6596
2303	0.6528
2312	0.6461
2321	0.6406
2330	0.6352
2339	0.6295
2348	0.6238
2357	0.619
2366	0.6165
2375	0.6135
2384	0.6087
2393	0.6037
2402	0.5982
2411	0.5923
2420	0.586
2429	0.5796
2438	0.5733
2447	0.5662
2456	0.5594
2465	0.5517
2474	0.5424
2483	0.5323
2492	0.5219
2501	0.5112
2510	0.4996
2519	0.4862
2528	0.4719
2537	0.4553
2546	0.4335
2555	0.4403
2564	0.4724
2573	0.4732
2582	0.4653
2591	0.4767
2600	0.4862
2609	0.4732
2618	0.461
2627	0.4524
2636	0.446
2645	0.4399
2654	0.4336
2663	0.428
2672	0.4225
2681	0.422
2690	0.4526
2699	0.4747
2708	0.4893
2717	0.4854
2726	0.4791
2735	0.4717
2744	0.4628
2753	0.4537
2762	0.4446
2771	0.436
2780	0.4278
2789	0.4195
2798	0.411
2807	0.4012
2816	0.39
2825	0.3766
2834	0.3647
2843	0.3596
2852	0.3582
2861	0.3582
2870	0.3586
2879	0.3592
2888	0.36
2897	0.3612
2906	0.3657
2915	0.3703
2924	0.3755
2933	0.3706
2942	0.3614
2951	0.3603
2960	0.364
2969	0.3629
2978	0.3468
2987	0.3271
2996	0.3368
3005	0.3362
3014	0.3232
3023	0.3115
3032	0.341
3041	0.3514
3050	0.3525
3059	0.353
3068	0.3512
3077	0.343
3086	0.3444
3095	0.3571
3104	0.3803
3113	0.4009
3122	0.4141
3131	0.42
3140	0.425
3149	0.4323
3158	0.441
3167	0.4492
3176	0.4584
3185	0.4671
3194	0.4751
3203	0.4825
3212	0.4892
3221	0.4944
3230	0.4979
3239	0.5008
3248	0.5026
3257	0.5095
3266	0.5184
3275	0.5247
3284	0.5273
3293	0.5295
3302	0.531
3311	0.5323
3320	0.5328
3329	0.5328
3338	0.5328
3347	0.5321
3356	0.5312
3365	0.5298
3374	0.5281
3383	0.5262
3392	0.5246
3401	0.5229
3410	0.5209
3419	0.5187
3428	0.516
3437	0.5134
3446	0.5112
3455	0.5098
3464	0.5084
3473	0.5077
3482	0.5078
3491	0.5078
3500	0.5079
3509	0.5086
3518	0.5096
3527	0.5105
3536	0.5115
3545	0.5125
3554	0.5135
3563	0.5144
3572	0.5153
3581	0.516
3590	0.517
3599	0.5178
3608	0.5182
3617	0.5183
3626	0.5185
3635	0.5186
3644	0.5186
3653	0.5184
3662	0.5183
3671	0.5178
3680	0.5171
3689	0.5162
3698	0.515
3707	0.5135
3716	0.5105
3725	0.5082
3734	0.5103
3743	0.5099
3752	0.5083
3761	0.5059
3770	0.5037
3779	0.5019
3788	0.4997
3797	0.4973
