Infrared Spectrum: Propanetricarboxylic acid, 1,2,3-, cyclic 1,2-anhydride
Formula: C6 H6 O5
CAS: 4756-10-9
State: SOLID (1 mg / 650 mg KBr DISC)
Class: COBLENTZ III
Instrument: PERKIN-ELMER 221 (GRATING)
Instrument parameters: FILTER AT 980 CM^-^1. GRATING 4000-1428 CM^-^1, NaCl PRISM 1428-650 CM^-^1
Resolution: 2
Origin: SOUTHERN RESEARCH INSTITUTE
1/CM	TRANSMITTANCE
641	0.6913
650.037	0.7199
659.073	0.7322
668.11	0.7256
677.147	0.7179
686.184	0.7063
695.22	0.6799
704.257	0.643
713.294	0.4415
722.331	0.5649
731.367	0.6312
740.404	0.6347
749.441	0.6258
758.477	0.5978
767.514	0.5558
776.551	0.5398
785.588	0.5553
794.624	0.5853
803.661	0.6303
812.698	0.6658
821.735	0.6363
830.771	0.6541
839.808	0.7225
848.845	0.7285
857.881	0.7246
866.918	0.7079
875.955	0.6095
884.992	0.6742
894.028	0.6406
903.065	0.5736
912.102	0.3781
921.139	0.7544
930.175	0.7044
939.212	0.6104
948.249	0.4786
957.286	0.2701
966.322	0.5286
975.359	0.7053
984.396	0.7612
993.432	0.7161
1002.47	0.7003
1011.51	0.6789
1020.54	0.549
1029.58	0.3459
1038.62	0.4465
1047.65	0.679
1056.69	0.6592
1065.73	0.4818
1074.76	0.3482
1083.8	0.2055
1092.84	0.2624
1101.87	0.5531
1110.91	0.5931
1119.95	0.4488
1128.98	0.6454
1138.02	0.5217
1147.06	0.3412
1156.09	0.4279
1165.13	0.2488
1174.17	0.3812
1183.2	0.5834
1192.24	0.615
1201.28	0.6002
1210.31	0.4326
1219.35	0.2292
1228.39	0.2204
1237.42	0.2458
1246.46	0.3502
1255.5	0.4471
1264.53	0.5596
1273.57	0.6129
1282.61	0.5201
1291.64	0.5619
1300.68	0.621
1309.72	0.6137
1318.75	0.5468
1327.79	0.5408
1336.83	0.6732
1345.86	0.7205
1354.9	0.7315
1363.94	0.7233
1372.98	0.6974
1382.01	0.6359
1391.05	0.4689
1400.09	0.3388
1409.12	0.3516
1418.16	0.5807
1427.2	0.619
1436.23	0.6734
1445.27	0.7229
1454.31	0.7482
1463.34	0.7621
1472.38	0.7704
1481.42	0.7738
1490.45	0.7739
1499.49	0.7716
1508.53	0.7737
1517.56	0.7795
1526.6	0.7762
1535.64	0.7717
1544.67	0.7654
1553.71	0.7608
1562.75	0.7632
1571.78	0.7469
1580.82	0.7368
1589.86	0.7308
1598.89	0.7203
1607.93	0.7038
1616.97	0.6746
1626	0.6482
1635.04	0.6473
1644.08	0.6459
1653.11	0.6381
1662.15	0.6328
1671.19	0.61
1680.22	0.5842
1689.26	0.5117
1698.3	0.4851
1707.33	0.3497
1716.37	0.2155
1725.41	0.097
1734.44	0.1542
1743.48	0.2599
1752.52	0.3184
1761.55	0.224
1770.59	0.1734
1779.63	0.1773
1788.66	0.1801
1797.7	0.2417
1806.74	0.3937
1815.77	0.4157
1824.81	0.4049
1833.85	0.2538
1842.88	0.3512
1851.92	0.365
1860.96	0.3752
1870	0.4497
1879.03	0.5354
1888.07	0.5728
1897.11	0.5982
1906.14	0.6223
1915.18	0.6465
1924.22	0.6797
1933.25	0.6975
1942.29	0.7069
1951.33	0.7144
1960.36	0.7206
1969.4	0.7269
1978.44	0.7326
1987.47	0.7382
1996.51	0.7413
2005.55	0.7459
2014.58	0.7546
2023.62	0.7592
2032.66	0.762
2041.69	0.7623
2050.73	0.7627
2059.77	0.7629
2068.8	0.7663
2077.84	0.772
2086.88	0.7769
2095.91	0.7805
2104.95	0.7831
2113.99	0.785
2123.02	0.7871
2132.06	0.7895
2141.1	0.7915
2150.13	0.7914
2159.17	0.7918
2168.21	0.7924
2177.24	0.793
2186.28	0.7941
2195.32	0.7959
2204.35	0.799
2213.39	0.8045
2222.43	0.8102
2231.46	0.8129
2240.5	0.8146
2249.54	0.8152
2258.57	0.8149
2267.61	0.8142
2276.65	0.813
2285.68	0.8106
2294.72	0.8069
2303.76	0.8028
2312.79	0.7982
2321.83	0.7933
2330.87	0.792
2339.91	0.7921
2348.94	0.7927
2357.98	0.7933
2367.02	0.7956
2376.05	0.8087
2385.09	0.8179
2394.13	0.8193
2403.16	0.819
2412.2	0.8188
2421.24	0.8191
2430.27	0.8212
2439.31	0.82
2448.35	0.8083
2457.38	0.8044
2466.42	0.8045
2475.46	0.8057
2484.49	0.8135
2493.53	0.8053
2502.57	0.8052
2511.6	0.8076
2520.64	0.8106
2529.68	0.8112
2538.71	0.8087
2547.75	0.8038
2556.79	0.8041
2565.82	0.8088
2574.86	0.8085
2583.9	0.8091
2592.93	0.8102
2601.97	0.8116
2611.01	0.814
2620.04	0.8174
2629.08	0.8216
2638.12	0.8239
2647.15	0.8232
2656.19	0.8214
2665.23	0.8202
2674.26	0.8197
2683.3	0.8192
2692.34	0.8197
2701.37	0.8203
2710.41	0.8212
2719.45	0.8223
2728.48	0.8238
2737.52	0.8273
2746.56	0.8316
2755.59	0.8328
2764.63	0.8318
2773.67	0.8305
2782.7	0.8282
2791.74	0.8256
2800.78	0.8232
2809.81	0.8219
2818.85	0.8224
2827.89	0.821
2836.93	0.8104
2845.96	0.7986
2855	0.7925
2864.04	0.7916
2873.07	0.7918
2882.11	0.7839
2891.15	0.7701
2900.18	0.7557
2909.22	0.7418
2918.26	0.7338
2927.29	0.6824
2936.33	0.6266
2945.37	0.6942
2954.4	0.5972
2963.44	0.6771
2972.48	0.6726
2981.51	0.6694
2990.55	0.7388
2999.59	0.736
3008.62	0.7241
3017.66	0.7218
3026.7	0.7251
3035.73	0.7215
3044.77	0.715
3053.81	0.7067
3062.84	0.6968
3071.88	0.6895
3080.92	0.6817
3089.95	0.6721
3098.99	0.6616
3108.03	0.6509
3117.06	0.6377
3126.1	0.6193
3135.14	0.6053
3144.17	0.5851
3153.21	0.5648
3162.25	0.5442
3171.28	0.5255
3180.32	0.5068
3189.36	0.4865
3198.39	0.4681
3207.43	0.449
3216.47	0.432
3225.5	0.4125
3234.54	0.3891
3243.58	0.3657
3252.61	0.3549
3261.65	0.3517
3270.69	0.3522
3279.72	0.3579
3288.76	0.3686
3297.8	0.3816
3306.84	0.3952
3315.87	0.4018
3324.91	0.4037
3333.95	0.4093
3342.98	0.4155
3352.02	0.417
3361.06	0.4185
3370.09	0.4201
3379.13	0.4227
3388.17	0.4265
3397.2	0.4319
3406.24	0.4383
3415.28	0.4472
3424.31	0.4536
3433.35	0.4589
3442.39	0.4642
3451.42	0.4758
3460.46	0.4896
3469.5	0.5082
3478.53	0.5246
3487.57	0.5376
3496.61	0.5425
3505.64	0.5505
3514.68	0.5638
3523.72	0.5793
3532.75	0.6019
3541.79	0.6075
3550.83	0.6284
3559.86	0.6424
3568.9	0.6619
3577.94	0.671
3586.97	0.6757
3596.01	0.6833
3605.05	0.6978
3614.08	0.7246
3623.12	0.7421
3632.16	0.7651
3641.19	0.7798
3650.23	0.7827
3659.27	0.7872
3668.3	0.7958
3677.34	0.7947
3686.38	0.7943
3695.41	0.8084
3704.45	0.8191
3713.49	0.8197
3722.52	0.8213
3731.56	0.8286
3740.6	0.8289
3749.63	0.8312
3758.67	0.8365
3767.71	0.8393
3776.74	0.8408
3785.78	0.841
3794.82	0.8406
3803.86	0.8399
3812.89	0.8391
3821.93	0.8381
3830.97	0.8372
3840	0.8343
3849.04	0.8326
3858.08	0.836
3867.11	0.8383
3876.15	0.8388
3885.19	0.8399
3894.22	0.8404
3903.26	0.8403
3912.3	0.8421
