Infrared Spectrum: BICYCLO[2,2,1]HEPT-5-ENE-2,3-DICARBOXYLIC ACID, BIS(2-ETHYLHEXYL)ESTER
Formula: C25 H42 O4
CAS: 47616-64-8
Class: COBLENTZ
Instrument: Not specified, most likely a prism, grating, or hybrid spectrometer.
Sampling: TRANSMISSION
Path length: SMEAR
Resolution: 4
Origin: TENNESSEE EASTMAN COMPANY, RESEARCH LABORATORIES
MICROMETERS	TRANSMITTANCE
2	0.981
2.04105	0.986
2.08211	0.991
2.12316	0.993
2.16421	0.994
2.20526	0.996
2.24632	0.984
2.28737	0.958
2.32842	0.953
2.36948	0.953
2.41053	0.958
2.45158	0.96
2.49264	0.963
2.53369	0.975
2.57474	0.977
2.61579	0.977
2.65685	0.982
2.6979	0.984
2.73895	0.989
2.78001	0.989
2.82106	0.989
2.86211	0.977
2.90317	0.958
2.94422	0.982
2.98527	0.989
3.02632	0.989
3.06738	0.991
3.10843	0.991
3.14948	0.981
3.19054	0.967
3.23159	0.953
3.27264	0.854
3.3137	0.821
3.35475	0.174
3.3958	0.114
3.43685	0.298
3.47791	0.257
3.51896	0.783
3.56001	0.89
3.60107	0.934
3.64212	0.938
3.68317	0.948
3.72423	0.963
3.76528	0.969
3.80633	0.982
3.84738	0.987
3.88844	0.991
3.92949	0.998
3.97054	1.001
4.0116	1.003
4.05265	1.003
4.0937	0.975
4.13476	0.909
4.17581	0.909
4.21686	0.917
4.25791	0.924
4.29897	0.914
4.34002	0.888
4.38107	0.9
4.42213	0.905
4.46318	0.907
4.50423	0.91
4.54529	0.91
4.58634	0.909
4.62739	0.909
4.66844	0.909
4.7095	0.909
4.75055	0.909
4.7916	0.912
4.83266	0.912
4.87371	0.91
4.91476	0.91
4.95582	0.91
4.99687	0.915
5.03792	0.914
5.07897	0.915
5.12003	0.912
5.16108	0.91
5.20213	0.91
5.24319	0.91
5.28424	0.909
5.32529	0.907
5.36634	0.898
5.4074	0.898
5.44845	0.885
5.4895	0.873
5.53056	0.854
5.57161	0.799
5.61266	0.766
5.65372	0.668
5.69477	0.265
5.73582	0.08
5.77687	0.202
5.81793	0.437
5.85898	0.638
5.90003	0.735
5.94109	0.789
5.98214	0.831
6.02319	0.849
6.06425	0.852
6.1053	0.857
6.14635	0.862
6.1874	0.869
6.22846	0.876
6.26951	0.883
6.31056	0.876
6.35162	0.857
6.39267	0.879
6.43372	0.874
6.47478	0.862
6.51583	0.867
6.55688	0.854
6.59793	0.857
6.63899	0.838
6.68004	0.807
6.72109	0.711
6.76215	0.523
6.8032	0.334
6.84425	0.425
6.88531	0.572
6.92636	0.708
6.96741	0.768
7.00846	0.783
7.04952	0.773
7.09057	0.711
7.13162	0.596
7.17268	0.48
7.21373	0.454
7.25478	0.502
7.29584	0.569
7.33689	0.518
7.37794	0.461
7.41899	0.428
7.46005	0.349
7.5011	0.401
7.54215	0.392
7.58321	0.493
7.62426	0.586
7.66531	0.629
7.70637	0.636
7.74742	0.615
7.78847	0.564
7.82952	0.507
7.87058	0.416
7.91163	0.358
7.95268	0.319
7.99374	0.279
8.03479	0.349
8.07584	0.468
8.1169	0.499
8.15795	0.461
8.199	0.42
8.24005	0.409
8.28111	0.361
8.32216	0.21
8.36321	0.14
8.40427	0.113
8.44532	0.149
8.48637	0.149
8.52742	0.145
8.56848	0.15
8.60953	0.181
8.65058	0.231
8.69164	0.281
8.73269	0.361
8.77374	0.488
8.8148	0.578
8.85585	0.584
8.8969	0.54
8.93795	0.535
8.97901	0.531
9.02006	0.65
9.06111	0.656
9.10217	0.615
9.14322	0.626
9.18427	0.531
9.22533	0.408
9.26638	0.401
9.30743	0.463
9.34848	0.523
9.38954	0.572
9.43059	0.576
9.47164	0.547
9.5127	0.5
9.55375	0.464
9.5948	0.447
9.63586	0.442
9.67691	0.44
9.71796	0.451
9.75901	0.461
9.80007	0.499
9.84112	0.557
9.88217	0.617
9.92323	0.65
9.96428	0.667
10.0053	0.677
10.0464	0.68
10.0874	0.684
10.1285	0.687
10.1695	0.694
10.2106	0.718
10.2517	0.73
10.2927	0.737
10.3338	0.734
10.3748	0.73
10.4159	0.728
10.4569	0.727
10.498	0.725
10.539	0.725
10.5801	0.725
10.6211	0.727
10.6622	0.725
10.7032	0.727
10.7443	0.728
10.7853	0.727
10.8264	0.711
10.8674	0.694
10.9085	0.667
10.9496	0.644
10.9906	0.644
11.0317	0.682
11.0727	0.71
11.1138	0.735
11.1548	0.753
11.1959	0.778
11.2369	0.804
11.278	0.821
11.319	0.825
11.3601	0.823
11.4011	0.825
11.4422	0.825
11.4832	0.819
11.5243	0.811
11.5653	0.804
11.6064	0.801
11.6475	0.801
11.6885	0.785
11.7296	0.734
11.7706	0.711
11.8117	0.737
11.8527	0.768
11.8938	0.782
11.9348	0.79
11.9759	0.79
12.0169	0.79
12.058	0.794
12.099	0.794
12.1401	0.797
12.1811	0.802
12.2222	0.811
12.2632	0.816
12.3043	0.819
12.3454	0.819
12.3864	0.818
12.4275	0.802
12.4685	0.78
12.5096	0.737
12.5506	0.718
12.5917	0.715
12.6327	0.722
12.6738	0.72
12.7148	0.722
12.7559	0.722
12.7969	0.722
12.838	0.722
12.879	0.722
12.9201	0.722
12.9611	0.725
13.0022	0.73
13.0433	0.742
13.0843	0.749
13.1254	0.753
13.1664	0.763
13.2075	0.771
13.2485	0.777
13.2896	0.777
13.3306	0.778
13.3717	0.765
13.4127	0.753
13.4538	0.73
13.4948	0.706
13.5359	0.687
13.5769	0.668
13.618	0.641
13.659	0.619
13.7001	0.605
13.7412	0.595
13.7822	0.591
13.8233	0.576
13.8643	0.562
13.9054	0.554
13.9464	0.569
13.9875	0.603
14.0285	0.643
14.0696	0.668
14.1106	0.684
14.1517	0.686
14.1927	0.68
14.2338	0.668
14.2748	0.66
14.3159	0.66
14.3569	0.67
14.398	0.691
14.4391	0.708
14.4801	0.723
14.5212	0.734
14.5622	0.74
14.6033	0.746
14.6443	0.749
14.6854	0.751
14.7264	0.754
14.7675	0.756
14.8085	0.758
14.8496	0.758
14.8906	0.758
14.9317	0.756
14.9727	0.753
15.0138	0.746
15.0548	0.747
15.0959	0.747
15.137	0.747
15.178	0.746
15.2191	0.742
15.2601	0.739
15.3012	0.734
15.3422	0.728
15.3833	0.725
15.4243	0.723
15.4654	0.718
15.5064	0.713
15.5475	0.708
15.5885	0.704
15.6296	0.703
15.6706	0.698
15.7117	0.691
15.7528	0.686
15.7938	0.682
15.8349	0.679
15.8759	0.674
15.917	0.67
15.958	0.668
