Infrared Spectrum: 3-(Dodecylamino)propionitrile
Formula: C 15 H 30 N 2
CAS: 4763-40-0
State: gas
Origin: EPA-IR VAPOR PHASE LIBRARY
1/CM	ABSORBANCE
549.8	0.001676
559.445	0.001746
569.09	0.001826
578.734	0.001896
588.379	0.001986
598.024	0.002066
607.669	0.002416
617.313	0.002916
626.958	0.003236
636.603	0.003886
646.248	0.004236
655.893	0.005036
665.537	0.005296
675.182	0.005566
684.827	0.005886
694.472	0.005766
704.116	0.006036
713.761	0.006726
723.406	0.006686
733.051	0.005666
742.695	0.004596
752.34	0.003726
761.985	0.003206
771.63	0.002686
781.275	0.002146
790.919	0.001886
800.564	0.001726
810.209	0.001656
819.854	0.001716
829.498	0.001536
839.143	0.001796
848.788	0.001696
858.433	0.001346
868.078	0.001426
877.722	0.001346
887.367	0.001396
897.012	0.001486
906.657	0.001336
916.301	0.001286
925.946	0.001526
935.591	0.001646
945.236	0.001526
954.88	0.001826
964.525	0.002036
974.17	0.002006
983.815	0.002146
993.46	0.002126
1003.1	0.002236
1012.75	0.002176
1022.39	0.002406
1032.04	0.002006
1041.68	0.002436
1051.33	0.002426
1060.97	0.002216
1070.62	0.002446
1080.26	0.002386
1089.91	0.003036
1099.55	0.003846
1109.2	0.005716
1118.84	0.009916
1128.49	0.017456
1138.13	0.019836
1147.78	0.012386
1157.42	0.006736
1167.07	0.004576
1176.71	0.003606
1186.36	0.002926
1196	0.002646
1205.64	0.002276
1215.29	0.003126
1224.93	0.002916
1234.58	0.002646
1244.22	0.002836
1253.87	0.002806
1263.51	0.002836
1273.16	0.003006
1282.8	0.003306
1292.45	0.003836
1302.09	0.004536
1311.74	0.004876
1321.38	0.005186
1331.03	0.005976
1340.67	0.008156
1350.32	0.010526
1359.96	0.010866
1369.61	0.008626
1379.25	0.006536
1388.9	0.004706
1398.54	0.003406
1408.18	0.003536
1417.83	0.004676
1427.47	0.007296
1437.12	0.009126
1446.76	0.012646
1456.41	0.017736
1466.05	0.020546
1475.7	0.016216
1485.34	0.007846
1494.99	0.003966
1504.63	0.002526
1514.28	0.001776
1523.92	0.001396
1533.57	0.001186
1543.21	0.0007812
1552.86	0.0006987
1562.5	0.000804
1572.15	0.0006414
1581.79	0.0005451
1591.44	0.0005522
1601.08	0.0004667
1610.73	0.0004898
1620.37	0.0004161
1630.01	0.0004367
1639.66	0.0003643
1649.3	0.0003325
1658.95	0.0003181
1668.59	0.0002726
1678.24	0.0003191
1687.88	0.00023838
1697.53	0.0002825
1707.17	0.00025306
1716.82	0.00025008
1726.46	0.00024099
1736.11	0.00015
1745.75	0.000325
1755.4	0.0002948
1765.04	0.0003251
1774.69	0.0002786
1784.33	0.0002985
1793.98	0.0003016
1803.62	0.0003224
1813.27	0.0003353
1822.91	0.0003531
1832.55	0.0003464
1842.2	0.0003161
1851.84	0.0003097
1861.49	0.0003411
1871.13	0.00022944
1880.78	0.000283
1890.42	0.0002938
1900.07	0.0003122
1909.71	0.0002789
1919.36	0.00025253
1929	0.00021689
1938.65	0.00023006
1948.29	0.0002199
1957.94	0.0002175
1967.58	0.00026547
1977.23	0.00024095
1986.87	0.0002664
1996.52	0.0003094
2006.16	0.0003005
2015.81	0.0003223
2025.45	0.0003977
2035.1	0.0004619
2044.74	0.0003801
2054.38	0.0003609
2064.03	0.0003654
2073.67	0.0003595
2083.32	0.00032
2092.96	0.0003546
2102.61	0.00033
2112.25	0.0003564
2121.9	0.0002998
2131.54	0.0003872
2141.19	0.000334
2150.83	0.0004219
2160.48	0.0003338
2170.12	0.0003797
2179.77	0.000387
2189.41	0.0003707
2199.06	0.0003972
2208.7	0.0004693
2218.35	0.0004358
2227.99	0.0005611
2237.64	0.0009018
2247.28	0.001426
2256.92	0.001416
2266.57	0.0007547
2276.21	0.000507
2285.86	0.0004564
2295.5	0.000405
2305.15	0.0004242
2314.79	0.0004028
2324.44	0.000358
2334.08	0.0003593
2343.73	0.0003442
2353.37	0.0004161
2363.02	0.000359
2372.66	0.0002971
2382.31	0.0004202
2391.95	0.000454
2401.6	0.0005199
2411.24	0.0004678
2420.89	0.0004844
2430.53	0.0005531
2440.18	0.000526
2449.82	0.0004603
2459.47	0.0003622
2469.11	0.000517
2478.75	0.0005322
2488.4	0.0005082
2498.04	0.0005407
2507.69	0.0005623
2517.33	0.0006744
2526.98	0.0006543
2536.62	0.0006985
2546.27	0.0007508
2555.91	0.0007876
2565.56	0.0008888
2575.2	0.0010521
2584.85	0.0010298
2594.49	0.0010894
2604.14	0.001366
2613.78	0.001266
2623.43	0.001526
2633.07	0.001616
2642.72	0.001906
2652.36	0.001986
2662.01	0.002316
2671.65	0.002566
2681.29	0.002716
2690.94	0.003026
2700.58	0.002996
2710.23	0.003056
2719.87	0.003026
2729.52	0.003346
2739.16	0.003636
2748.81	0.003936
2758.45	0.004316
2768.1	0.004466
2777.74	0.004986
2787.39	0.006216
2797.03	0.008246
2806.68	0.011276
2816.32	0.015946
2825.97	0.021566
2835.61	0.026846
2845.26	0.033546
2854.9	0.054646
2864.55	0.071056
2874.19	0.052296
2883.84	0.041286
2893.48	0.039756
2903.12	0.050406
2912.77	0.074116
2922.41	0.123506
2932.06	0.181846
2941.7	0.143456
2951.35	0.080446
2960.99	0.056846
2970.64	0.047036
2980.28	0.024756
2989.93	0.013826
2999.57	0.009036
3009.22	0.006606
3018.86	0.005066
3028.51	0.003896
3038.15	0.003236
3047.8	0.002746
3057.44	0.002206
3067.09	0.001986
3076.73	0.001696
3086.38	0.001516
3096.02	0.001376
3105.67	0.001196
3115.31	0.0010857
3124.95	0.0010603
3134.6	0.0009688
3144.24	0.000865
3153.89	0.0007658
3163.53	0.0008878
3173.18	0.0007182
3182.82	0.0007132
3192.47	0.0006665
3202.11	0.0005843
3211.76	0.0005282
3221.4	0.000398
3231.05	0.0004
3240.69	0.0004163
3250.34	0.00017257
3259.98	0.0003946
3269.63	0.0004029
3279.27	0.000155
3288.92	0.00023631
3298.56	0.00022555
3308.21	0.000297
3317.85	0.0004003
3327.49	0.0003934
3337.14	0.0003416
3346.78	0.0003122
3356.43	0.0004338
3366.07	0.0003837
3375.72	0.0004286
3385.36	0.0005973
3395.01	0.0004995
3404.65	0.00042
3414.3	0.0003247
3423.94	0.00024913
3433.59	0.0003205
3443.23	0.0004363
3452.88	0.0001292
3462.52	7.14e-05
3472.17	0.00023772
3481.81	0.00016079
3491.46	0.0001907
3501.1	8.48e-05
3510.75	0.00019243
3520.39	1.3e-05
3530.04	0.00020463
3539.68	0.0001442
3549.32	0.0003292
3558.97	0.00018057
3568.61	0.0001493
3578.26	0.0002855
3587.9	5e-06
3597.55	0.00021266
3607.19	0.00019512
3616.84	0.0003674
3626.48	0.00026598
3636.13	0.00024057
3645.77	0.0005063
3655.42	0.0002897
3665.06	0.0002936
3674.71	0.0002896
3684.35	0.0004493
3694	0.0002772
3703.64	0.0004148
3713.29	0.00022592
3722.93	0.00023977
3732.58	0.0003102
3742.22	0.0003173
3751.86	0.0002951
3761.51	0.0002817
3771.15	0.00020658
3780.8	0.0004417
3790.44	0.0003849
3800.09	0.0003353
3809.73	0.0003387
3819.38	0.0003868
3829.02	0.0003152
3838.67	0.000175669
3848.31	0.000303
3857.96	0.000301
3867.6	0.0003016
3877.25	0.00027
3886.89	0.0003985
3896.54	0.0005629
3906.18	0.0003614
3915.83	0.0003915
3925.47	0.0003466
3935.12	0.0003334
3944.76	0.0004324
3954.41	0.00023787
3964.05	0.0005258
3973.69	0.0005791
3983.34	0.000631
3992.98	0.0006808
