Infrared Spectrum: Silicic acid, tetrabutyl ester
Formula: C16 H36 O4 Si
CAS: 4766-57-8
State: SOLUTION (10% CCl4 FOR 3800-1335, 10% CS2 FOR 1335-400 CM^-^1) VS SOLVENT
Class: COBLENTZ II
Instrument: DOW KBr FOREPRISM-GRATING
Instrument parameters: BLAZED AT 3.5, 12.0, 20.0 MICRON AND CHANGED AT 5.0, 7.5, 14.9 MICRON
Sampling: TRANSMISSION
Path length: 0.011 CM, 0.011 CM
Resolution: 2
Origin: DOW CHEMICAL COMPANY
1/CM	TRANSMITTANCE
3810	0.8748
3801	0.8735
3792	0.8721
3783	0.8714
3774	0.871
3765	0.8711
3756	0.8712
3747	0.8712
3738	0.8711
3729	0.8707
3720	0.8685
3711	0.8618
3702	0.8587
3693	0.861
3684	0.8624
3675	0.8632
3666	0.8586
3657	0.8356
3648	0.8111
3639	0.8136
3630	0.8311
3621	0.8463
3612	0.8546
3603	0.8583
3594	0.8563
3585	0.8512
3576	0.8446
3567	0.8378
3558	0.8312
3549	0.8256
3540	0.8206
3531	0.8171
3522	0.8156
3513	0.8158
3504	0.816
3495	0.8161
3486	0.8165
3477	0.8168
3468	0.8171
3459	0.8171
3450	0.8171
3441	0.8165
3432	0.8161
3423	0.8157
3414	0.8154
3405	0.8151
3396	0.8151
3387	0.8151
3378	0.8151
3369	0.8151
3360	0.8154
3351	0.8158
3342	0.8165
3333	0.8171
3324	0.8186
3315	0.8204
3306	0.8225
3297	0.8246
3288	0.8263
3279	0.8274
3270	0.8278
3261	0.8278
3252	0.8274
3243	0.8267
3234	0.8251
3225	0.8231
3216	0.8209
3207	0.8189
3198	0.8168
3189	0.8158
3180	0.8161
3171	0.8174
3162	0.8189
3153	0.8205
3144	0.8221
3135	0.823
3126	0.8231
3117	0.8225
3108	0.8207
3099	0.8169
3090	0.8128
3081	0.8082
3072	0.8026
3063	0.7956
3054	0.7861
3045	0.7731
3036	0.7581
3027	0.7347
3018	0.6932
3009	0.6318
3000	0.5137
2991	0.3514
2982	0.1879
2973	0.0346
2964	0.0188
2955	0.0265
2946	0.0288
2937	0.0201
2928	0.0373
2919	0.0632
2910	0.0976
2901	0.1368
2892	0.1206
2883	0.0514
2874	0.0392
2865	0.1219
2856	0.3214
2847	0.4006
2838	0.5474
2829	0.6281
2820	0.6851
2811	0.7247
2802	0.7515
2793	0.7667
2784	0.7725
2775	0.7721
2766	0.7549
2757	0.7331
2748	0.7114
2739	0.7
2730	0.74
2721	0.776
2712	0.7911
2703	0.7982
2694	0.8003
2685	0.8051
2676	0.8136
2667	0.8168
2658	0.8178
2649	0.8247
2640	0.8308
2631	0.8318
2622	0.8316
2613	0.8307
2604	0.8314
2595	0.8328
2586	0.8357
2577	0.8393
2568	0.8436
2559	0.8477
2550	0.8518
2541	0.8545
2532	0.8562
2523	0.857
2514	0.8578
2505	0.8586
2496	0.8588
2487	0.859
2478	0.8592
2469	0.8591
2460	0.8589
2451	0.8586
2442	0.8583
2433	0.8575
2424	0.8571
2415	0.8563
2406	0.8553
2397	0.8548
2388	0.8544
2379	0.8557
2370	0.8621
2361	0.8647
2352	0.8652
2343	0.8654
2334	0.8656
2325	0.8643
2316	0.8631
2307	0.8618
2298	0.8608
2289	0.8599
2280	0.8587
2271	0.8571
2262	0.8557
2253	0.8547
2244	0.8537
2235	0.8528
2226	0.8521
2217	0.8515
2208	0.8508
2199	0.8503
2190	0.85
2181	0.8496
2172	0.8493
2163	0.8497
2154	0.8502
2145	0.8511
2136	0.8521
2127	0.8524
2118	0.8524
2109	0.8523
2100	0.8523
2091	0.8523
2082	0.8524
2073	0.8527
2064	0.853
2055	0.8532
2046	0.8525
2037	0.8486
2028	0.8442
2019	0.8423
2010	0.8406
2001	0.8416
1992	0.8464
1983	0.8483
1974	0.8468
1965	0.8415
1956	0.8374
1947	0.8303
1938	0.8286
1929	0.8281
1920	0.8285
1911	0.8283
1902	0.83
1893	0.8324
1884	0.8355
1875	0.8402
1866	0.8434
1857	0.8447
1848	0.8444
1839	0.8446
1830	0.8445
1821	0.8444
1812	0.8458
1803	0.8461
1794	0.8421
1785	0.8338
1776	0.8241
1767	0.8165
1758	0.8128
1749	0.8125
1740	0.813
1731	0.8133
1722	0.8134
1713	0.8137
1704	0.8151
1695	0.818
1686	0.8212
1677	0.8225
1668	0.8221
1659	0.8182
1650	0.8139
1641	0.809
1632	0.8117
1623	0.8149
1614	0.8186
1605	0.8238
1596	0.8298
1587	0.8403
1578	0.8428
1569	0.8456
1560	0.8521
1551	0.8593
1542	0.8636
1533	0.856
1524	0.8304
1515	0.8058
1506	0.8049
1497	0.7746
1488	0.7278
1479	0.4755
1470	0.3339
1461	0.3066
1452	0.4206
1443	0.6141
1434	0.5407
1425	0.6951
1416	0.7192
1407	0.7087
1398	0.6062
1389	0.436
1380	0.383
1371	0.617
1362	0.6806
1353	0.6983
1344	0.7275
1335	0.7201
1326	0.7357
1317	0.72
1308	0.6486
1299	0.583
1290	0.6504
1281	0.6915
1272	0.6686
1263	0.5275
1254	0.5739
1245	0.6162
1236	0.4943
1227	0.5126
1218	0.6558
1209	0.6598
1200	0.6441
1191	0.6127
1182	0.5621
1173	0.4429
1164	0.3147
1155	0.1753
1146	0.146
1137	0.1486
1128	0.0858
1119	0.0176
1110	0.0173
1101	0.0066
1092	0.0063
1083	0.0066
1074	0.0285
1065	0.0782
1056	0.1128
1047	0.0553
1038	0.0344
1029	0.2407
1020	0.4567
1011	0.3618
1002	0.4394
993	0.1851
984	0.2253
975	0.3366
966	0.566
957	0.5241
948	0.6203
939	0.7086
930	0.7135
921	0.6294
912	0.3101
903	0.1926
894	0.3141
885	0.4636
876	0.6119
867	0.5467
858	0.3939
849	0.3695
840	0.3678
831	0.4096
822	0.4244
813	0.3786
804	0.2635
795	0.4317
786	0.6719
777	0.7849
768	0.7944
759	0.7704
750	0.6472
741	0.4952
732	0.5121
723	0.8078
714	0.8639
705	0.8762
696	0.8786
687	0.8932
678	0.8951
669	0.8963
660	0.8802
651	0.8851
642	0.8956
633	0.8987
624	0.895
615	0.8982
606	0.8959
597	0.8898
588	0.8857
579	0.8833
570	0.8814
561	0.8768
552	0.859
543	0.8201
534	0.7347
525	0.6371
516	0.6671
507	0.6934
498	0.7018
489	0.6967
480	0.6992
471	0.7035
462	0.7055
453	0.7058
444	0.6986
435	0.6728
426	0.6475
417	0.6321
