Infrared Spectrum: 6-Nitroindole
Formula: C 8 H 6 N 2 O 2
CAS: 4769-96-4
State: gas
Origin: EPA-IR VAPOR PHASE LIBRARY
1/CM	ABSORBANCE
549.8	0.001877
559.445	0.001757
569.09	0.003277
578.734	0.004977
588.379	0.004077
598.024	0.004087
607.669	0.003117
617.313	0.001897
626.958	0.0005248
636.603	0.001457
646.248	0.001457
655.893	0.001727
665.537	0.002957
675.182	0.004537
684.827	0.004057
694.472	0.004477
704.116	0.010807
713.761	0.024217
723.406	0.033527
733.051	0.019677
742.695	0.009517
752.34	0.013297
761.985	0.026347
771.63	0.020557
781.275	0.013387
790.919	0.006687
800.564	0.006667
810.209	0.018327
819.854	0.047837
829.498	0.039547
839.143	0.016407
848.788	0.014407
858.433	0.020927
868.078	0.025957
877.722	0.023607
887.367	0.012537
897.012	0.013087
906.657	0.015297
916.301	0.011167
925.946	0.007267
935.591	0.004487
945.236	0.003167
954.88	0.002727
964.525	0.002217
974.17	0.002407
983.815	0.002227
993.46	0.002637
1003.1	0.002857
1012.75	0.002287
1022.39	0.002157
1032.04	0.001787
1041.68	0.002817
1051.33	0.006567
1060.97	0.021137
1070.62	0.019877
1080.26	0.011027
1089.91	0.013997
1099.55	0.012637
1109.2	0.006097
1118.84	0.003357
1128.49	0.003217
1138.13	0.002527
1147.78	0.003007
1157.42	0.002337
1167.07	0.002557
1176.71	0.002757
1186.36	0.002647
1196	0.004347
1205.64	0.004327
1215.29	0.004277
1224.93	0.006987
1234.58	0.007577
1244.22	0.005567
1253.87	0.003457
1263.51	0.005457
1273.16	0.012497
1282.8	0.016317
1292.45	0.012787
1302.09	0.012707
1311.74	0.020007
1321.38	0.040957
1331.03	0.064027
1340.67	0.117507
1350.32	0.177017
1359.96	0.112897
1369.61	0.030597
1379.25	0.012397
1388.9	0.009357
1398.54	0.014377
1408.18	0.020617
1417.83	0.016237
1427.47	0.009787
1437.12	0.016137
1446.76	0.027887
1456.41	0.024097
1466.05	0.013237
1475.7	0.013447
1485.34	0.016717
1494.99	0.024057
1504.63	0.037877
1514.28	0.049647
1523.92	0.064527
1533.57	0.081297
1543.21	0.070607
1552.86	0.040987
1562.5	0.027577
1572.15	0.023157
1581.79	0.026977
1591.44	0.026377
1601.08	0.018037
1610.73	0.008987
1620.37	0.006337
1630.01	0.004527
1639.66	0.003617
1649.3	0.003187
1658.95	0.002347
1668.59	0.002567
1678.24	0.003067
1687.88	0.003267
1697.53	0.003067
1707.17	0.004307
1716.82	0.005047
1726.46	0.004087
1736.11	0.002947
1745.75	0.002597
1755.4	0.002677
1765.04	0.002527
1774.69	0.001667
1784.33	0.0008799
1793.98	0.0006973
1803.62	0.0007066
1813.27	0.0007887
1822.91	0.000823
1832.55	0.0006883
1842.2	0.0006461
1851.84	0.0007923
1861.49	0.0009614
1871.13	0.0010947
1880.78	0.001627
1890.42	0.002057
1900.07	0.001907
1909.71	0.001367
1919.36	0.0008546
1929	0.0009384
1938.65	0.000694
1948.29	0.0007065
1957.94	0.0006479
1967.58	0.0007761
1977.23	0.0006404
1986.87	0.0007193
1996.52	0.0011247
2006.16	0.0011093
2015.81	0.0009103
2025.45	0.0010246
2035.1	0.0010607
2044.74	0.0008109
2054.38	0.0008751
2064.03	0.0006854
2073.67	0.000573
2083.32	0.0007754
2092.96	0.0008201
2102.61	0.0007552
2112.25	0.0006829
2121.9	0.0008544
2131.54	0.0010114
2141.19	0.0009488
2150.83	0.0008508
2160.48	0.0011217
2170.12	0.0010775
2179.77	0.0008546
2189.41	0.0009946
2199.06	0.0008198
2208.7	0.0006887
2218.35	0.0007801
2227.99	0.0008249
2237.64	0.0010255
2247.28	0.001287
2256.92	0.0012499
2266.57	0.0011343
2276.21	0.001427
2285.86	0.001547
2295.5	0.001427
2305.15	0.001287
2314.79	0.0007924
2324.44	0.0010151
2334.08	0.0009488
2343.73	0.0009288
2353.37	0.0009019
2363.02	0.0008457
2372.66	0.000999
2382.31	0.0011573
2391.95	0.001507
2401.6	0.001677
2411.24	0.001747
2420.89	0.001507
2430.53	0.001667
2440.18	0.001507
2449.82	0.001317
2459.47	0.0011344
2469.11	0.0011205
2478.75	0.0011498
2488.4	0.0012586
2498.04	0.0012198
2507.69	0.0011709
2517.33	0.0011136
2526.98	0.0010994
2536.62	0.001517
2546.27	0.001577
2555.91	0.001797
2565.56	0.001757
2575.2	0.001597
2584.85	0.001427
2594.49	0.001607
2604.14	0.001517
2613.78	0.001297
2623.43	0.001008
2633.07	0.0011789
2642.72	0.001159
2652.36	0.0010222
2662.01	0.0012459
2671.65	0.001507
2681.29	0.001987
2690.94	0.002177
2700.58	0.001967
2710.23	0.001827
2719.87	0.001467
2729.52	0.0010739
2739.16	0.0011141
2748.81	0.0011256
2758.45	0.0010072
2768.1	0.0011191
2777.74	0.0011067
2787.39	0.0011852
2797.03	0.001099
2806.68	0.001537
2816.32	0.001677
2825.97	0.001787
2835.61	0.002097
2845.26	0.002307
2854.9	0.002477
2864.55	0.002627
2874.19	0.002297
2883.84	0.002077
2893.48	0.001767
2903.12	0.002097
2912.77	0.001407
2922.41	0.0012128
2932.06	0.001347
2941.7	0.001437
2951.35	0.001827
2960.99	0.002077
2970.64	0.001827
2980.28	0.001597
2989.93	0.0011325
2999.57	0.001287
3009.22	0.0011074
3018.86	0.001317
3028.51	0.001677
3038.15	0.002077
3047.8	0.002207
3057.44	0.002507
3067.09	0.003627
3076.73	0.004497
3086.38	0.003837
3096.02	0.002327
3105.67	0.002517
3115.31	0.002397
3124.95	0.001377
3134.6	0.002157
3144.24	0.002157
3153.89	0.0011881
3163.53	0.0009076
3173.18	0.0006827
3182.82	0.0006807
3192.47	0.0007356
3202.11	0.0008285
3211.76	0.001009
3221.4	0.0009479
3231.05	0.0010463
3240.69	0.0011728
3250.34	0.0004862
3259.98	0.0008888
3269.63	0.0007586
3279.27	0.0006829
3288.92	0.0007292
3298.56	0.0003085
3308.21	0.00077
3317.85	0.0008514
3327.49	0.0006586
3337.14	0.0006339
3346.78	0.0007331
3356.43	0.000595
3366.07	0.0006481
3375.72	0.0006795
3385.36	0.0005394
3395.01	0.0007016
3404.65	0.0006886
3414.3	0.0008388
3423.94	0.0011938
3433.59	0.001327
3443.23	0.001397
3452.88	0.001897
3462.52	0.002947
3472.17	0.004707
3481.81	0.008137
3491.46	0.014297
3501.1	0.021657
3510.75	0.034327
3520.39	0.032617
3530.04	0.015267
3539.68	0.004217
3549.32	0.001617
3558.97	0.0008151
3568.61	0.0006997
3578.26	0.0006521
3587.9	0.00036027
3597.55	0.0003783
3607.19	0.00035476
3616.84	0.0007447
3626.48	0.0004614
3636.13	0.0004521
3645.77	0.0006031
3655.42	0.0004623
3665.06	0.0004456
3674.71	0.00031925
3684.35	0.0004592
3694	0.0005018
3703.64	0.0004088
3713.29	0.0006084
3722.93	0.0006317
3732.58	0.0003975
3742.22	6.2e-05
3751.86	0.0003024
3761.51	0.0004078
3771.15	0.0004123
3780.8	0.00029056
3790.44	0.0003103
3800.09	0.0006189
3809.73	0.0004664
3819.38	0.00034324
3829.02	0.0003732
3838.67	0.0006403
3848.31	0.00035224
3857.96	0.0003801
3867.6	0.0005499
3877.25	0.000229
3886.89	0.0002495
3896.54	0.00026732
3906.18	0.0007903
3915.83	0.0006522
3925.47	0.0010225
3935.12	0.0004822
3944.76	0.0004784
3954.41	0.0005188
3964.05	0.0006665
3973.69	0.0006805
3983.34	0.0003947
3992.98	0.0004657
