Infrared Spectrum: 10-METHOXY-14-METHYL-5-OXO-5,7,8,14-TETRAHYDRO-INDOLO-[2,3-c]-QUINAZO-[3,2,a]-PYRIDINE
Formula: C20 H17 N3 O2
CAS: 477-40-7
State: SOLID (NUJOL MULL)
Class: COBLENTZ III
Instrument: PERKIN-ELMER 21 (GRATING)
Instrument parameters: NaCl PRISM
Sampling: TRANSMISSION
Resolution: 2
Origin: SMITH KLINE & FRENCH LABS.
1/CM	TRANSMITTANCE
665	0.6398
674	0.7045
683	0.5892
692	0.7684
701	0.7769
710	0.7992
719	0.7885
728	0.7952
737	0.7931
746	0.7508
755	0.3379
764	0.7837
773	0.8188
782	0.7713
791	0.8497
800	0.7869
809	0.4328
818	0.7568
827	0.8562
836	0.8618
845	0.8494
854	0.828
863	0.8746
872	0.8691
881	0.8716
890	0.859
899	0.8228
908	0.8731
917	0.8564
926	0.841
935	0.8335
944	0.8351
953	0.7723
962	0.8002
971	0.7845
980	0.7921
989	0.8045
998	0.813
1007	0.7286
1016	0.7595
1025	0.716
1034	0.7155
1043	0.7769
1052	0.6838
1061	0.8023
1070	0.8011
1079	0.7852
1088	0.7527
1097	0.5994
1106	0.7685
1115	0.6933
1124	0.767
1133	0.7271
1142	0.7606
1151	0.7458
1160	0.5821
1169	0.6259
1178	0.656
1187	0.6854
1196	0.5818
1205	0.2055
1214	0.4086
1223	0.452
1232	0.6115
1241	0.7682
1250	0.7551
1259	0.7251
1268	0.5647
1277	0.593
1286	0.6224
1295	0.5597
1304	0.6676
1313	0.648
1322	0.4191
1331	0.5812
1340	0.632
1349	0.6645
1358	0.623
1367	0.5729
1376	0.4752
1385	0.6177
1394	0.7014
1403	0.6845
1412	0.5417
1421	0.5629
1430	0.6051
1439	0.3735
1448	0.363
1457	0.2528
1466	0.3021
1475	0.5281
1484	0.5126
1493	0.5635
1502	0.4716
1511	0.3488
1520	0.2598
1529	0.3769
1538	0.4164
1547	0.2497
1556	0.3967
1565	0.6236
1574	0.7066
1583	0.7453
1592	0.7427
1601	0.6931
1610	0.5277
1619	0.63
1628	0.7676
1637	0.7768
1646	0.7605
1655	0.7416
1664	0.6919
1673	0.4845
1682	0.2902
1691	0.4631
1700	0.7065
1709	0.8091
1718	0.8485
1727	0.8642
1736	0.8682
1745	0.8758
1754	0.8771
1763	0.8767
1772	0.8761
1781	0.8752
1790	0.8723
1799	0.8713
1808	0.8778
1817	0.8776
1826	0.8768
1835	0.8757
1844	0.8706
1853	0.8668
1862	0.8633
1871	0.8631
1880	0.8645
1889	0.8637
1898	0.8617
1907	0.86
1916	0.8586
1925	0.8574
1934	0.856
1943	0.8548
1952	0.8535
1961	0.8522
1970	0.851
1979	0.8497
1988	0.8489
1997	0.848
2006	0.8472
2015	0.8463
2024	0.8453
2033	0.8429
2042	0.8405
2051	0.8379
2060	0.8349
2069	0.8338
2078	0.8338
2087	0.8273
2096	0.827
2105	0.8267
2114	0.8255
2123	0.8238
2132	0.8214
2141	0.8188
2150	0.8159
2159	0.8112
2168	0.807
2177	0.8048
2186	0.805
2195	0.8064
2204	0.8054
2213	0.8026
2222	0.7997
2231	0.7969
2240	0.7936
2249	0.7906
2258	0.7878
2267	0.7849
2276	0.7815
2285	0.778
2294	0.7732
2303	0.7684
2312	0.7611
2321	0.7545
2330	0.7518
2339	0.7521
2348	0.7543
2357	0.758
2366	0.756
2375	0.7541
2384	0.7522
2393	0.7503
2402	0.7488
2411	0.7472
2420	0.7458
2429	0.7441
2438	0.7426
2447	0.7414
2456	0.7405
2465	0.7397
2474	0.7396
2483	0.74
2492	0.7404
2501	0.7405
2510	0.7393
2519	0.737
2528	0.733
2537	0.7279
2546	0.7229
2555	0.7174
2564	0.7118
2573	0.7079
2582	0.7042
2591	0.7022
2600	0.7004
2609	0.6986
2618	0.6976
2627	0.6968
2636	0.696
2645	0.6951
2654	0.6941
2663	0.6931
2672	0.691
2681	0.6889
2690	0.6881
2699	0.6871
2708	0.6864
2717	0.6833
2726	0.6748
2735	0.6663
2744	0.6594
2753	0.6544
2762	0.6474
2771	0.6248
2780	0.6001
2789	0.5486
2798	0.5006
2807	0.4725
2816	0.3276
2825	0.154
2834	0.1365
2843	0.1334
2852	0.1317
2861	0.128
2870	0.1111
2879	0.0892
2888	0.0554
2897	0.0516
2906	0.0532
2915	0.0788
2924	0.1268
2933	0.1933
2942	0.266
2951	0.3381
2960	0.4099
2969	0.5009
2978	0.5328
2987	0.5605
2996	0.5771
3005	0.5906
3014	0.5982
3023	0.6056
3032	0.6095
3041	0.6134
3050	0.6161
3059	0.6179
3068	0.6195
3077	0.6205
3086	0.6211
3095	0.6217
3104	0.6217
3113	0.6216
3122	0.6215
3131	0.6214
3140	0.621
3149	0.6202
3158	0.6195
3167	0.6189
3176	0.618
3185	0.6169
3194	0.6158
3203	0.6147
3212	0.6136
3221	0.6121
3230	0.6104
3239	0.6088
3248	0.6072
3257	0.6056
3266	0.6041
3275	0.6027
3284	0.6013
3293	0.5999
3302	0.5985
3311	0.5971
3320	0.5963
3329	0.5956
3338	0.595
3347	0.5943
3356	0.5937
3365	0.5931
3374	0.593
3383	0.5934
3392	0.5937
3401	0.594
3410	0.5948
3419	0.5955
3428	0.5969
3437	0.5986
3446	0.6003
3455	0.602
3464	0.6037
3473	0.6055
3482	0.6073
3491	0.6087
3500	0.6101
3509	0.6115
3518	0.6129
3527	0.6143
3536	0.6157
3545	0.6171
3554	0.6185
3563	0.6195
3572	0.6196
3581	0.6196
3590	0.6191
3599	0.6185
3608	0.6179
3617	0.617
3626	0.616
3635	0.615
3644	0.614
3653	0.6123
3662	0.6107
3671	0.6091
3680	0.6075
3689	0.6058
3698	0.6042
3707	0.6027
3716	0.601
3725	0.5994
3734	0.5978
3743	0.5959
3752	0.594
3761	0.5921
3770	0.5901
3779	0.5882
3788	0.586
3797	0.5838
3806	0.5817
3815	0.5803
3824	0.5795
3833	0.5788
3842	0.578
3851	0.5775
3860	0.5775
3869	0.5775
3878	0.5776
3887	0.5776
3896	0.5775
3905	0.577
3914	0.5766
3923	0.5761
3932	0.5744
3941	0.572
3950	0.5695
3959	0.5668
3968	0.5635
3977	0.5604
3986	0.5573
3995	0.5542
