Infrared Spectrum: ANTHRACENE, 9,10-DIHYDRO-9,10-o-BENZENO-
Formula: C20 H14
CAS: 477-75-8
State: SOLID (OIL MULL)
Class: COBLENTZ III
Instrument: CARY 90 (GRATING)
Instrument parameters: ORDER CHANGES: 3000, 2000, 1200 CM^-^1
Sampling: TRANSMISSION
Resolution: 2
Origin: WESTERN REGIONAL RES. USDA
1/CM	TRANSMITTANCE
4018	0.7541
4009	0.7547
4000	0.7554
3991	0.7561
3982	0.7571
3973	0.7581
3964	0.7592
3955	0.7601
3946	0.761
3937	0.7618
3928	0.7625
3919	0.7634
3910	0.7644
3901	0.7654
3892	0.7665
3883	0.7675
3874	0.7685
3865	0.7695
3856	0.7706
3847	0.7717
3838	0.7728
3829	0.7741
3820	0.7753
3811	0.7764
3802	0.7775
3793	0.7788
3784	0.78
3775	0.7811
3766	0.7824
3757	0.7835
3748	0.7848
3739	0.7858
3730	0.7868
3721	0.7876
3712	0.7886
3703	0.7895
3694	0.7904
3685	0.7912
3676	0.7921
3667	0.7928
3658	0.7933
3649	0.7939
3640	0.7944
3631	0.795
3622	0.7957
3613	0.7965
3604	0.7972
3595	0.7981
3586	0.799
3577	0.7998
3568	0.8006
3559	0.8015
3550	0.8025
3541	0.8037
3532	0.8047
3523	0.8058
3514	0.8068
3505	0.8071
3496	0.8075
3487	0.8078
3478	0.8082
3469	0.8085
3460	0.8085
3451	0.8084
3442	0.8083
3433	0.8082
3424	0.8085
3415	0.8091
3406	0.8097
3397	0.8103
3388	0.8108
3379	0.8115
3370	0.8122
3361	0.813
3352	0.8138
3343	0.8142
3334	0.8146
3325	0.8149
3316	0.8153
3307	0.8156
3298	0.8158
3289	0.8161
3280	0.8164
3271	0.8165
3262	0.8168
3253	0.8171
3244	0.8169
3235	0.8165
3226	0.8162
3217	0.8136
3208	0.8106
3199	0.8095
3190	0.8095
3181	0.8106
3172	0.8118
3163	0.8128
3154	0.8139
3145	0.815
3136	0.8155
3127	0.8146
3118	0.8097
3109	0.7988
3100	0.7692
3091	0.7241
3082	0.6392
3073	0.5704
3064	0.6421
3055	0.7195
3046	0.651
3037	0.7089
3028	0.6969
3019	0.6568
3010	0.7139
3001	0.7234
2992	0.7115
2983	0.6271
2974	0.3072
2965	0.1987
2956	0.2359
2947	0.2675
2938	0.2401
2929	0.1753
2920	0.1872
2911	0.2718
2902	0.3564
2893	0.441
2884	0.5005
2875	0.4471
2866	0.3937
2857	0.3791
2848	0.4968
2839	0.6768
2830	0.7592
2821	0.8065
2812	0.8386
2803	0.852
2794	0.8568
2785	0.8604
2776	0.8632
2767	0.8647
2758	0.8663
2749	0.8678
2740	0.8692
2731	0.8707
2722	0.8725
2713	0.8743
2704	0.8761
2695	0.8778
2686	0.8789
2677	0.8786
2668	0.878
2659	0.877
2650	0.876
2641	0.8767
2632	0.8775
2623	0.8796
2614	0.8827
2605	0.8858
2596	0.8889
2587	0.8913
2578	0.8937
2569	0.8962
2560	0.8987
2551	0.9012
2542	0.9015
2533	0.9013
2524	0.8989
2515	0.8963
2506	0.8954
2497	0.8967
2488	0.8981
2479	0.8993
2470	0.9007
2461	0.9021
2452	0.9035
2443	0.9049
2434	0.9053
2425	0.9056
2416	0.906
2407	0.9062
2398	0.9057
2389	0.9051
2380	0.9045
2371	0.9038
2362	0.9039
2353	0.9044
2344	0.9049
2335	0.9058
2326	0.9071
2317	0.9085
2308	0.9106
2299	0.9127
2290	0.9149
2281	0.917
2272	0.9189
2263	0.9208
2254	0.9227
2245	0.9245
2236	0.9262
2227	0.9278
2218	0.9295
2209	0.9311
2200	0.9321
2191	0.9331
2182	0.9334
2173	0.9334
2164	0.9334
2155	0.9334
2146	0.9336
2137	0.9338
2128	0.9339
2119	0.934
2110	0.934
2101	0.934
2092	0.934
2083	0.934
2074	0.934
2065	0.9341
2056	0.9352
2047	0.9362
2038	0.9368
2029	0.9373
2020	0.9378
2011	0.9368
2002	0.9354
1993	0.9221
1984	0.9151
1975	0.9117
1966	0.9075
1957	0.8971
1948	0.8893
1939	0.8962
1930	0.9033
1921	0.887
1912	0.8739
1903	0.8833
1894	0.909
1885	0.9071
1876	0.9064
1867	0.9128
1858	0.921
1849	0.9152
1840	0.9047
1831	0.9055
1822	0.9085
1813	0.9107
1804	0.9044
1795	0.8936
1786	0.8931
1777	0.9145
1768	0.92
1759	0.9232
1750	0.9239
1741	0.9196
1732	0.9162
1723	0.9189
1714	0.9218
1705	0.9214
1696	0.9166
1687	0.9165
1678	0.9141
1669	0.9188
1660	0.9258
1651	0.9215
1642	0.9218
1633	0.9248
1624	0.9149
1615	0.9154
1606	0.9153
1597	0.9075
1588	0.9046
1579	0.9073
1570	0.927
1561	0.9281
1552	0.9263
1543	0.9254
1534	0.9253
1525	0.9241
1516	0.9223
1507	0.9202
1498	0.9165
1489	0.9095
1480	0.8853
1471	0.8005
1462	0.4718
1453	0.1122
1444	0.6769
1435	0.8096
1426	0.8125
1417	0.8943
1408	0.9081
1399	0.8975
1390	0.8816
1381	0.7733
1372	0.7574
1363	0.831
1354	0.8825
1345	0.8943
1336	0.9021
1327	0.9047
1318	0.8783
1309	0.8362
1300	0.904
1291	0.9125
1282	0.8939
1273	0.9144
1264	0.9188
1255	0.9193
1246	0.9193
1237	0.9187
1228	0.917
1219	0.9097
1210	0.8992
1201	0.8805
1192	0.5592
1183	0.8206
1174	0.8514
1165	0.7818
1156	0.6964
1147	0.8058
1138	0.864
1129	0.9018
1120	0.8702
1111	0.8521
1102	0.8928
1093	0.9028
1084	0.8968
1075	0.8961
1066	0.8982
1057	0.9009
1048	0.9028
1039	0.9021
1030	0.8924
1021	0.7971
1012	0.7508
1003	0.8952
994	0.9066
985	0.9056
976	0.891
967	0.8867
958	0.9063
949	0.8963
940	0.8442
931	0.8616
922	0.9066
913	0.8315
904	0.8804
895	0.9056
886	0.9175
877	0.9241
868	0.9248
859	0.9027
850	0.903
841	0.9168
832	0.9203
823	0.9234
814	0.9249
805	0.9208
796	0.4256
787	0.8987
778	0.9199
769	0.9084
760	0.8865
751	0.6811
742	0.6295
733	0.5612
724	0.8867
715	0.9027
706	0.9024
697	0.9228
688	0.8847
679	0.9271
670	0.9306
661	0.9312
652	0.9307
643	0.9287
634	0.9213
625	0.0806
616	0.913
607	0.9267
598	0.9294
589	0.9323
580	0.9324
571	0.9301
562	0.9308
553	0.9316
544	0.9313
535	0.9286
526	0.9243
517	0.9198
508	0.9125
499	0.9017
490	0.8697
481	0.3674
472	0.6856
463	0.8508
454	0.789
