Infrared Spectrum: 3-CARBOXALDEHYDE, 7-METHYLINDOLE-
Formula: C10 H9 N O
CAS: 4771-50-0
State: SOLID (SPLIT MULL)
Class: COBLENTZ III
Instrument: BECKMAN IR-9 (GRATING)
Instrument parameters: ORDER CHANGES: 670, 1200, 2000 CM^-^1
Sampling: TRANSMISSION
Resolution: 2
Origin: DOW CHEMICAL COMPANY
1/CM	TRANSMITTANCE
402	0.5522
411	0.5537
420	0.5894
429	0.6753
438	0.7453
447	0.7819
456	0.7615
465	0.8368
474	0.8648
483	0.8757
492	0.8646
501	0.8842
510	0.8564
519	0.8942
528	0.9175
537	0.9278
546	0.9334
555	0.9393
564	0.9471
573	0.953
582	0.9539
591	0.9421
600	0.454
609	0.9065
618	0.7475
627	0.9696
636	0.9849
645	0.9868
654	0.9868
663	0.9851
672	0.9716
681	0.8518
690	0.9833
699	0.9721
708	0.9448
717	0.8928
726	0.7945
735	0.7756
744	0.6562
753	0.4983
762	0.6643
771	0.8315
780	0.2627
789	0.575
798	0.537
807	0.8886
816	0.9271
825	0.9438
834	0.95
843	0.9521
852	0.9497
861	0.9224
870	0.8456
879	0.9482
888	0.9539
897	0.9461
906	0.9415
915	0.9432
924	0.9363
933	0.9328
942	0.8348
951	0.9325
960	0.9312
969	0.9118
978	0.9128
987	0.9289
996	0.9249
1005	0.901
1014	0.8635
1023	0.909
1032	0.9207
1041	0.89
1050	0.9211
1059	0.9212
1068	0.8775
1077	0.8923
1086	0.9021
1095	0.9075
1104	0.9067
1113	0.8825
1122	0.8151
1131	0.3262
1140	0.598
1149	0.7395
1158	0.7043
1167	0.8873
1176	0.8775
1185	0.9031
1194	0.9013
1203	0.8945
1212	0.8973
1221	0.8744
1230	0.7983
1239	0.2724
1248	0.8738
1257	0.7715
1266	0.8105
1275	0.8611
1284	0.6248
1293	0.7997
1302	0.8395
1311	0.841
1320	0.8345
1329	0.8194
1338	0.7789
1347	0.6094
1356	0.6399
1365	0.6562
1374	0.6296
1383	0.533
1392	0.2207
1401	0.7826
1410	0.7292
1419	0.6722
1428	0.586
1437	0.4738
1446	0.2158
1455	0.2708
1464	0.2579
1473	0.7949
1482	0.8484
1491	0.8383
1500	0.8143
1509	0.7306
1518	0.7304
1527	0.5687
1536	0.6576
1545	0.8128
1554	0.7908
1563	0.7601
1572	0.7478
1581	0.6915
1590	0.6034
1599	0.4181
1608	0.5384
1617	0.4205
1626	0.2715
1635	0.1812
1644	0.086
1653	0.2064
1662	0.5433
1671	0.6565
1680	0.8317
1689	0.9336
1698	0.9432
1707	0.9763
1716	0.977
1725	0.9491
1734	0.937
1743	0.9768
1752	0.979
1761	0.9748
1770	0.9689
1779	0.9606
1788	0.9503
1797	0.9354
1806	0.9274
1815	0.9395
1824	0.9461
1833	0.9432
1842	0.9397
1851	0.9347
1860	0.9239
1869	0.9021
1878	0.9092
1887	0.9141
1896	0.9127
1905	0.9088
1914	0.9028
1923	0.8954
1932	0.8782
1941	0.867
1950	0.8921
1959	0.8931
1968	0.8915
1977	0.8871
1986	0.8824
1995	0.8768
2004	0.8683
2013	0.87
2022	0.8707
2031	0.8688
2040	0.8664
2049	0.8634
2058	0.8598
2067	0.8559
2076	0.8523
2085	0.8485
2094	0.8441
2103	0.8397
2112	0.8355
2121	0.8313
2130	0.8268
2139	0.8224
2148	0.8178
2157	0.8131
2166	0.8084
2175	0.805
2184	0.8018
2193	0.7985
2202	0.7946
2211	0.7904
2220	0.7861
2229	0.7814
2238	0.7767
2247	0.7725
2256	0.7694
2265	0.766
2274	0.7603
2283	0.7551
2292	0.7505
2301	0.7454
2310	0.7398
2319	0.7347
2328	0.7298
2337	0.7248
2346	0.72
2355	0.7151
2364	0.7114
2373	0.7082
2382	0.7074
2391	0.7115
2400	0.7128
2409	0.7094
2418	0.7065
2427	0.7034
2436	0.7001
2445	0.6968
2454	0.6964
2463	0.6934
2472	0.6903
2481	0.6871
2490	0.6839
2499	0.6807
2508	0.6774
2517	0.6741
2526	0.6707
2535	0.6672
2544	0.664
2553	0.6608
2562	0.6575
2571	0.651
2580	0.6304
2589	0.6304
2598	0.6438
2607	0.6556
2616	0.6571
2625	0.6528
2634	0.6462
2643	0.6405
2652	0.6435
2661	0.6445
2670	0.6392
2679	0.6342
2688	0.6283
2697	0.6227
2706	0.6175
2715	0.6125
2724	0.6076
2733	0.6012
2742	0.5941
2751	0.5819
2760	0.5678
2769	0.5629
2778	0.5872
2787	0.5853
2796	0.5777
2805	0.56
2814	0.5335
2823	0.4939
2832	0.4719
2841	0.5084
2850	0.5256
2859	0.5403
2868	0.5423
2877	0.5345
2886	0.5226
2895	0.5105
2904	0.5032
2913	0.5002
2922	0.5093
2931	0.5146
2940	0.5067
2949	0.4988
2958	0.4794
2967	0.4834
2976	0.4927
2985	0.4903
2994	0.4876
3003	0.4944
3012	0.5085
3021	0.5049
3030	0.4947
3039	0.4788
3048	0.4654
3057	0.4501
3066	0.4358
3075	0.4297
3084	0.4305
3093	0.4368
3102	0.4365
3111	0.3918
3120	0.3253
3129	0.3926
3138	0.3914
3147	0.3834
3156	0.3698
3165	0.3532
3174	0.333
3183	0.3116
3192	0.2898
3201	0.2695
3210	0.2509
3219	0.2269
3228	0.2125
3237	0.2078
3246	0.2142
3255	0.26
3264	0.3284
3273	0.383
3282	0.437
3291	0.48
3300	0.5149
3309	0.5378
3318	0.5537
3327	0.5675
3336	0.5795
3345	0.5931
3354	0.6079
3363	0.6136
3372	0.6145
3381	0.614
3390	0.6126
3399	0.6092
3408	0.6035
3417	0.5972
3426	0.5912
3435	0.5858
3444	0.5807
3453	0.576
3462	0.5716
3471	0.5672
3480	0.5635
3489	0.56
3498	0.5569
3507	0.5542
3516	0.5515
3525	0.549
3534	0.5467
3543	0.5441
3552	0.5412
3561	0.5383
3570	0.5355
3579	0.533
3588	0.5308
3597	0.5285
3606	0.5265
3615	0.5246
3624	0.5231
3633	0.5217
3642	0.5194
3651	0.516
3660	0.5129
3669	0.5098
3678	0.5075
3687	0.5053
3696	0.5031
3705	0.5008
3714	0.4986
3723	0.4965
3732	0.4944
3741	0.4924
3750	0.491
3759	0.4896
3768	0.488
3777	0.486
3786	0.4842
3795	0.4823
