Infrared Spectrum: N-(m-Nitrophenyl)benzamide
Formula: C 13 H 10 N 2 O 3
CAS: 4771-08-8
State: gas
Origin: EPA-IR VAPOR PHASE LIBRARY
1/CM	ABSORBANCE
549.8	0.00215
559.445	0.00128
569.09	0.00141
578.734	0.0036
588.379	0.00516
598.024	0.00178
607.669	0.0009465
617.313	0.0011356
626.958	0.0009175
636.603	0.00088
646.248	0.00119
655.893	0.00298
665.537	0.00618
675.182	0.0068
684.827	0.00616
694.472	0.00792
704.116	0.01044
713.761	0.00819
723.406	0.00708
733.051	0.01041
742.695	0.00503
752.34	0.00186
761.985	0.00159
771.63	0.00187
781.275	0.00264
790.919	0.00469
800.564	0.0044
810.209	0.00493
819.854	0.00796
829.498	0.00242
839.143	0.00158
848.788	0.00157
858.433	0.00164
868.078	0.00289
877.722	0.00355
887.367	0.00302
897.012	0.00214
906.657	0.00205
916.301	0.0028
925.946	0.00208
935.591	0.00121
945.236	0.0011628
954.88	0.0009991
964.525	0.0009807
974.17	0.0009892
983.815	0.0008424
993.46	0.000936
1003.1	0.00164
1012.75	0.00133
1022.39	0.00377
1032.04	0.00298
1041.68	0.00125
1051.33	0.00231
1060.97	0.00361
1070.62	0.00636
1080.26	0.00625
1089.91	0.00808
1099.55	0.00723
1109.2	0.00413
1118.84	0.0023
1128.49	0.0008367
1138.13	0.0011277
1147.78	0.00124
1157.42	0.0011189
1167.07	0.00162
1176.71	0.00271
1186.36	0.00363
1196	0.00191
1205.64	0.00307
1215.29	0.00626
1224.93	0.0151
1234.58	0.02308
1244.22	0.01863
1253.87	0.01089
1263.51	0.00659
1273.16	0.0083
1282.8	0.01243
1292.45	0.01937
1302.09	0.02198
1311.74	0.01941
1321.38	0.0138
1331.03	0.01124
1340.67	0.01311
1350.32	0.02716
1359.96	0.02883
1369.61	0.00975
1379.25	0.00485
1388.9	0.00431
1398.54	0.00583
1408.18	0.01215
1417.83	0.02547
1427.47	0.01886
1437.12	0.00866
1446.76	0.00748
1456.41	0.00767
1466.05	0.00918
1475.7	0.01572
1485.34	0.02697
1494.99	0.02569
1504.63	0.03049
1514.28	0.0443
1523.92	0.04198
1533.57	0.03546
1543.21	0.05062
1552.86	0.05265
1562.5	0.0184
1572.15	0.01146
1581.79	0.01333
1591.44	0.016
1601.08	0.01089
1610.73	0.00666
1620.37	0.00616
1630.01	0.00361
1639.66	0.00251
1649.3	0.00224
1658.95	0.00236
1668.59	0.00286
1678.24	0.00367
1687.88	0.00519
1697.53	0.00989
1707.17	0.02156
1716.82	0.02607
1726.46	0.01474
1736.11	0.00669
1745.75	0.00418
1755.4	0.00304
1765.04	0.00224
1774.69	0.00181
1784.33	0.00133
1793.98	0.00123
1803.62	0.00132
1813.27	0.0011161
1822.91	0.0008503
1832.55	0.0007888
1842.2	0.0006129
1851.84	0.0006573
1861.49	0.0005734
1871.13	0.0006468
1880.78	0.00076
1890.42	0.000841
1900.07	0.0008002
1909.71	0.0007634
1919.36	0.0006274
1929	0.0006832
1938.65	0.0008268
1948.29	0.0008858
1957.94	0.0008547
1967.58	0.0008981
1977.23	0.000603
1986.87	0.0004752
1996.52	0.0004134
2006.16	0.0003998
2015.81	0.0004014
2025.45	0.0003411
2035.1	0.0003892
2044.74	0.0004026
2054.38	0.0003923
2064.03	0.000417
2073.67	0.0003648
2083.32	0.0003132
2092.96	0.0003763
2102.61	0.0003071
2112.25	0.0003858
2121.9	0.0003762
2131.54	0.0003291
2141.19	0.0003542
2150.83	0.0004222
2160.48	0.0004073
2170.12	0.0004219
2179.77	0.0004343
2189.41	0.0004726
2199.06	0.0003402
2208.7	0.0004279
2218.35	0.0002723
2227.99	0.00023256
2237.64	0.0003552
2247.28	0.00024362
2256.92	0.000323
2266.57	0.0003608
2276.21	0.0003948
2285.86	0.0004435
2295.5	0.0003575
2305.15	0.0003992
2314.79	0.000474
2324.44	0.0005178
2334.08	0.0004751
2343.73	0.000635
2353.37	0.0005288
2363.02	0.0005421
2372.66	0.0005026
2382.31	0.0004677
2391.95	0.0004533
2401.6	0.0004459
2411.24	0.000492
2420.89	0.0004149
2430.53	0.0003869
2440.18	0.0003492
2449.82	0.0003998
2459.47	0.0004731
2469.11	0.0004001
2478.75	0.0003919
2488.4	0.0003528
2498.04	0.0004692
2507.69	0.0005089
2517.33	0.0004564
2526.98	0.0003608
2536.62	0.0004043
2546.27	0.0004039
2555.91	0.000443
2565.56	0.0004246
2575.2	0.0003964
2584.85	0.0004957
2594.49	0.0004853
2604.14	0.0004705
2613.78	0.0003831
2623.43	0.0004516
2633.07	0.0004094
2642.72	0.0003355
2652.36	0.0003513
2662.01	0.0003628
2671.65	0.0003397
2681.29	0.0003699
2690.94	0.0003681
2700.58	0.0004257
2710.23	0.0004833
2719.87	0.0004361
2729.52	0.0004043
2739.16	0.0003604
2748.81	0.0004076
2758.45	0.0004201
2768.1	0.0003863
2777.74	0.0004666
2787.39	0.000295
2797.03	0.0004849
2806.68	0.0005183
2816.32	0.000459
2825.97	0.0005998
2835.61	0.0005108
2845.26	0.000492
2854.9	0.0005968
2864.55	0.0006419
2874.19	0.0006481
2883.84	0.0009399
2893.48	0.0008302
2903.12	0.0007889
2912.77	0.0006454
2922.41	0.0004796
2932.06	0.0004634
2941.7	0.0004681
2951.35	0.0003628
2960.99	0.0004239
2970.64	0.0003358
2980.28	0.0003173
2989.93	0.0004672
2999.57	0.0006999
3009.22	0.0007402
3018.86	0.0011617
3028.51	0.00234
3038.15	0.00337
3047.8	0.00235
3057.44	0.00239
3067.09	0.0042
3076.73	0.00565
3086.38	0.0038
3096.02	0.00331
3105.67	0.00234
3115.31	0.00159
3124.95	0.0010626
3134.6	0.000905
3144.24	0.0005868
3153.89	0.0005702
3163.53	0.0004558
3173.18	0.0003845
3182.82	0.0003939
3192.47	0.0004366
3202.11	0.0004139
3211.76	0.0004338
3221.4	0.0003225
3231.05	0.0003357
3240.69	0.0003523
3250.34	0.0001384
3259.98	0.0001287
3269.63	0.0002776
3279.27	0.00025914
3288.92	0.0002788
3298.56	0.0003426
3308.21	0.00021313
3317.85	0.0003184
3327.49	0.0003492
3337.14	0.00024032
3346.78	0.0003229
3356.43	0.0002977
3366.07	0.0003962
3375.72	0.0005928
3385.36	0.0003301
3395.01	0.0006744
3404.65	0.0008487
3414.3	0.0010348
3423.94	0.0008533
3433.59	0.0009449
3443.23	0.00135
3452.88	0.00205
3462.52	0.00332
3472.17	0.00245
3481.81	0.000948
3491.46	0.000692
3501.1	0.000608
3510.75	0.0003947
3520.39	0.00024289
3530.04	0.00024992
3539.68	0.00019338
3549.32	0.0003234
3558.97	0.000197
3568.61	0.0003336
3578.26	0.00025913
3587.9	0.00023919
3597.55	0.0003307
3607.19	0.0002985
3616.84	0.00037
3626.48	0.0003214
3636.13	0.0002636
3645.77	0.00026679
3655.42	0.0003846
3665.06	0.0002779
3674.71	0.0004296
3684.35	0.0003265
3694	0.0003324
3703.64	0.0004574
3713.29	0.00025557
3722.93	0.0003571
3732.58	0.0004272
3742.22	0.0004746
3751.86	0.0003538
3761.51	0.00022027
3771.15	0.00023892
3780.8	0.00026662
3790.44	0.0002845
3800.09	0.00020304
3809.73	0.00024387
3819.38	0.00022348
3829.02	0.0005051
3838.67	0.000465
3848.31	0.00019724
3857.96	0.00021882
3867.6	0.0005263
3877.25	0.0003437
3886.89	0.0002297
3896.54	0.00019767
3906.18	0.0002831
3915.83	0.000174035
3925.47	0.00019421
3935.12	0.00018085
3944.76	0.000481
3954.41	0.00020272
3964.05	0.0002888
3973.69	0.00018555
3983.34	0.0003392
3992.98	0.0003666
