Infrared Spectrum: 1,4-Cyclohexadiene-1,2-dicarboxylic anhydride
Formula: C 8 H 6 O 3
CAS: 4773-89-1
State: gas
Origin: EPA-IR VAPOR PHASE LIBRARY
1/CM	ABSORBANCE
549.8	0
559.445	0.0005405
569.09	0.0007348
578.734	0.000378
588.379	0.0005218
598.024	0.0005178
607.669	0.0004591
617.313	0.0002994
626.958	0.000719
636.603	0.003275
646.248	0.011075
655.893	0.023335
665.537	0.014765
675.182	0.006335
684.827	0.001705
694.472	0.001595
704.116	0.001855
713.761	0.002625
723.406	0.004985
733.051	0.003605
742.695	0.002465
752.34	0.0011711
761.985	0.0010491
771.63	0.0013788
781.275	0.001835
790.919	0.004135
800.564	0.004975
810.209	0.003415
819.854	0.001855
829.498	0.001505
839.143	0.002125
848.788	0.003255
858.433	0.004955
868.078	0.010015
877.722	0.025785
887.367	0.055755
897.012	0.078735
906.657	0.063175
916.301	0.022745
925.946	0.009255
935.591	0.008695
945.236	0.007085
954.88	0.004375
964.525	0.003005
974.17	0.002055
983.815	0.001405
993.46	0.001965
1003.1	0.002165
1012.75	0.002375
1022.39	0.002735
1032.04	0.003005
1041.68	0.005705
1051.33	0.013365
1060.97	0.015445
1070.62	0.007275
1080.26	0.002715
1089.91	0.002175
1099.55	0.002005
1109.2	0.0012078
1118.84	1.4e-05
1128.49	0.0007471
1138.13	0.0007438
1147.78	0.001445
1157.42	0.002005
1167.07	0.002795
1176.71	0.004445
1186.36	0.005005
1196	0.004475
1205.64	0.002715
1215.29	0.003305
1224.93	0.006225
1234.58	0.012195
1244.22	0.023555
1253.87	0.047535
1263.51	0.054025
1273.16	0.030325
1282.8	0.010625
1292.45	0.007015
1302.09	0.004865
1311.74	0.004595
1321.38	0.004435
1331.03	0.003455
1340.67	0.002845
1350.32	0.002195
1359.96	0.002055
1369.61	0.002425
1379.25	0.002615
1388.9	0.002625
1398.54	0.003035
1408.18	0.003245
1417.83	0.004225
1427.47	0.007725
1437.12	0.007795
1446.76	0.003695
1456.41	0.001445
1466.05	0.0013158
1475.7	0.001625
1485.34	0.002055
1494.99	0.002065
1504.63	0.001585
1514.28	0.0008287
1523.92	0.0007503
1533.57	0.0007938
1543.21	0.0009568
1552.86	0.0010307
1562.5	0.0012139
1572.15	0.0012169
1581.79	0.0012686
1591.44	0.0012448
1601.08	0.0011959
1610.73	0.001475
1620.37	0.002465
1630.01	0.004545
1639.66	0.005555
1649.3	0.003735
1658.95	0.001505
1668.59	0.001745
1678.24	0.002635
1687.88	0.003745
1697.53	0.004285
1707.17	0.004005
1716.82	0.004705
1726.46	0.005305
1736.11	0.005905
1745.75	0.009005
1755.4	0.018215
1765.04	0.031015
1774.69	0.059485
1784.33	0.166075
1793.98	0.220645
1803.62	0.158545
1813.27	0.033535
1822.91	0.011205
1832.55	0.009035
1842.2	0.017045
1851.84	0.032185
1861.49	0.032745
1871.13	0.016135
1880.78	0.007545
1890.42	0.004905
1900.07	0.003675
1909.71	0.003495
1919.36	0.003275
1929	0.003145
1938.65	0.003115
1948.29	0.003065
1957.94	0.002465
1967.58	0.001545
1977.23	0.0010609
1986.87	0.0009134
1996.52	0.0009076
2006.16	0.0009893
2015.81	0.0011781
2025.45	0.0012477
2035.1	0.001203
2044.74	0.0012962
2054.38	0.001485
2064.03	0.001455
2073.67	0.0011202
2083.32	0.0009097
2092.96	0.0009536
2102.61	0.0007544
2112.25	0.0008835
2121.9	0.0011056
2131.54	0.0013079
2141.19	0.001675
2150.83	0.001795
2160.48	0.001565
2170.12	0.00108
2179.77	0.0007473
2189.41	0.0006386
2199.06	0.0005715
2208.7	0.0005329
2218.35	0.00045151
2227.99	0.0005172
2237.64	0.00046124
2247.28	0.0006117
2256.92	0.0005659
2266.57	0.0005744
2276.21	0.0005944
2285.86	0.0006898
2295.5	0.0007594
2305.15	0.0006671
2314.79	0.0007026
2324.44	0.0006943
2334.08	0.000654
2343.73	0.0007249
2353.37	0.0007717
2363.02	0.00084
2372.66	0.0006824
2382.31	0.0006193
2391.95	0.0005065
2401.6	0.0005165
2411.24	0.0005206
2420.89	0.000523
2430.53	0.0006319
2440.18	0.0007376
2449.82	0.0005928
2459.47	0.000396284
2469.11	0.0005026
2478.75	0.0005148
2488.4	0.0006131
2498.04	0.0005882
2507.69	0.00047495
2517.33	0.0005154
2526.98	0.000333
2536.62	0.00043842
2546.27	0.00048079
2555.91	0.0003509
2565.56	0.00048881
2575.2	0.0003787
2584.85	0.0005696
2594.49	0.0005341
2604.14	0.0003805
2613.78	0.000343
2623.43	0.000397904
2633.07	0.00039045
2642.72	0.0005345
2652.36	0.000524
2662.01	0.0006893
2671.65	0.0005247
2681.29	0.000367
2690.94	0.00044229
2700.58	0.0003079
2710.23	0.0003845
2719.87	0.0003242
2729.52	0.00042974
2739.16	0.0005588
2748.81	0.0005444
2758.45	0.0005346
2768.1	0.00046452
2777.74	0.00046094
2787.39	0.0005479
2797.03	0.0006278
2806.68	0.0007671
2816.32	0.0011825
2825.97	0.001865
2835.61	0.003185
2845.26	0.003225
2854.9	0.001825
2864.55	0.001011
2874.19	0.0009231
2883.84	0.0011035
2893.48	0.002725
2903.12	0.006195
2912.77	0.007115
2922.41	0.004645
2932.06	0.0013318
2941.7	0.0006971
2951.35	0.00065
2960.99	0.0007276
2970.64	0.0009075
2980.28	0.0010261
2989.93	0.0008035
2999.57	0.0008389
3009.22	0.0006033
3018.86	0.0006632
3028.51	0.0012178
3038.15	0.004805
3047.8	0.010185
3057.44	0.008985
3067.09	0.002825
3076.73	0.0013049
3086.38	0.0009463
3096.02	0.0006836
3105.67	0.000585
3115.31	0.00044216
3124.95	0.000513
3134.6	0.0005984
3144.24	0.00047382
3153.89	0.00042425
3163.53	0.0003602
3173.18	0.00048016
3182.82	0.000299
3192.47	0.0003662
3202.11	0.00044479
3211.76	0.0003162
3221.4	0.0003155
3231.05	0.0003273
3240.69	0.0002982
3250.34	0.0003427
3259.98	0.00040512
3269.63	0.00041661
3279.27	0.000282
3288.92	0.000231
3298.56	0.000241
3308.21	0.00047834
3317.85	0.000283
3327.49	0.00038768
3337.14	0.00043955
3346.78	0.000262
3356.43	0.0003462
3366.07	0.0003665
3375.72	0.000402713
3385.36	0.00044645
3395.01	0.0005109
3404.65	0.000287
3414.3	0.0003669
3423.94	0.00042963
3433.59	0.000268
3443.23	0.000252
3452.88	0.0003114
3462.52	0.00041599
3472.17	0.0004866
3481.81	0.0003523
3491.46	0.0005971
3501.1	0.00038699
3510.75	0.00046834
3520.39	0.0005434
3530.04	0.00047247
3539.68	0.0006762
3549.32	0.0008545
3558.97	0.0011232
3568.61	0.0012681
3578.26	0.0013362
3587.9	0.001465
3597.55	0.001695
3607.19	0.001785
3616.84	0.002415
3626.48	0.003035
3636.13	0.003175
3645.77	0.001945
3655.42	0.0010562
3665.06	0.0005691
3674.71	0.0006603
3684.35	0.0006634
3694	0.000708
3703.64	0.0006632
3713.29	0.0006784
3722.93	0.0006277
3732.58	0.0006771
3742.22	0.00047547
3751.86	0.0007628
3761.51	0.0005349
3771.15	0.00044517
3780.8	0.0006276
3790.44	0.0005915
3800.09	0.0006575
3809.73	0.00042951
3819.38	0.00045344
3829.02	0.0005833
3838.67	0.000576
3848.31	0.0006558
3857.96	0.0006699
3867.6	0.000397962
3877.25	0.0005526
3886.89	0.0006795
3896.54	0.00048837
3906.18	0.0005532
3915.83	0.000514
3925.47	0.0005708
3935.12	0.0005611
3944.76	0.0006226
3954.41	0.0004797
3964.05	0.0003553
3973.69	0.0003217
3983.34	0.0004977
3992.98	0.00040966
