Infrared Spectrum: 2,6-Dichloropyrazine
Formula: C 4 H 2 Cl 2 N 2
CAS: 4774-14-5
State: gas
Origin: EPA-IR VAPOR PHASE LIBRARY
1/CM	ABSORBANCE
549.8	0.00072516
559.445	0.0009254
569.09	0.00203
578.734	0.0008118
588.379	0
598.024	0.000131
607.669	0.00071321
617.313	0.00269
626.958	0.0032
636.603	0.00261
646.248	0.00187
655.893	0.00229
665.537	0.00316
675.182	0.00266
684.827	0.00255
694.472	0.00355
704.116	0.00444
713.761	0.00974
723.406	0.01866
733.051	0.03199
742.695	0.01644
752.34	0.00806
761.985	0.0068
771.63	0.00956
781.275	0.01163
790.919	0.01086
800.564	0.01324
810.209	0.04673
819.854	0.1963
829.498	0.43027
839.143	0.35481
848.788	0.04435
858.433	0.04754
868.078	0.09902
877.722	0.12824
887.367	0.06449
897.012	0.0128
906.657	0.00309
916.301	0.00254
925.946	0.00322
935.591	0.00464
945.236	0.00403
954.88	0.00284
964.525	0.00332
974.17	0.01203
983.815	0.05063
993.46	0.13298
1003.1	0.12888
1012.75	0.08256
1022.39	0.02601
1032.04	0.01492
1041.68	0.00999
1051.33	0.00443
1060.97	0.00384
1070.62	0.0053
1080.26	0.00669
1089.91	0.01324
1099.55	0.02847
1109.2	0.06094
1118.84	0.1727
1128.49	0.408
1138.13	0.58764
1147.78	0.46076
1157.42	0.222
1167.07	0.24201
1176.71	0.55623
1186.36	0.67151
1196	0.35691
1205.64	0.04511
1215.29	0.02305
1224.93	0.02712
1234.58	0.02255
1244.22	0.00963
1253.87	0.00353
1263.51	0.00314
1273.16	0.00254
1282.8	0.00408
1292.45	0.00574
1302.09	0.00817
1311.74	0.01219
1321.38	0.01704
1331.03	0.01772
1340.67	0.01979
1350.32	0.05978
1359.96	0.30005
1369.61	0.54887
1379.25	0.45289
1388.9	0.26765
1398.54	0.18866
1408.18	0.0579
1417.83	0.02987
1427.47	0.0134
1437.12	0.00954
1446.76	0.01018
1456.41	0.01125
1466.05	0.01645
1475.7	0.02622
1485.34	0.06609
1494.99	0.18908
1504.63	0.3459
1514.28	0.39424
1523.92	0.23796
1533.57	0.08151
1543.21	0.07079
1552.86	0.03834
1562.5	0.01799
1572.15	0.01
1581.79	0.00597
1591.44	0.00414
1601.08	0.00293
1610.73	0.00211
1620.37	0.0016319
1630.01	0.0016135
1639.66	0.00172
1649.3	0.0021
1658.95	0.0025
1668.59	0.00268
1678.24	0.00272
1687.88	0.00237
1697.53	0.00224
1707.17	0.0025
1716.82	0.0028
1726.46	0.0036
1736.11	0.00491
1745.75	0.00582
1755.4	0.00513
1765.04	0.00381
1774.69	0.00556
1784.33	0.01033
1793.98	0.01483
1803.62	0.0121
1813.27	0.00681
1822.91	0.00683
1832.55	0.01089
1842.2	0.01136
1851.84	0.00695
1861.49	0.00563
1871.13	0.00385
1880.78	0.00222
1890.42	0.0015946
1900.07	0.0014897
1909.71	0.0015449
1919.36	0.0014747
1929	0.0011832
1938.65	0.0012852
1948.29	0.0014329
1957.94	0.00204
1967.58	0.00221
1977.23	0.00214
1986.87	0.0023
1996.52	0.00264
2006.16	0.00311
2015.81	0.00362
2025.45	0.00304
2035.1	0.00196
2044.74	0.0015915
2054.38	0.001232
2064.03	0.0010205
2073.67	0.0010557
2083.32	0.0009171
2092.96	0.0008961
2102.61	0.0009548
2112.25	0.0010323
2121.9	0.0009298
2131.54	0.0010374
2141.19	0.0011577
2150.83	0.0016087
2160.48	0.00211
2170.12	0.00317
2179.77	0.00463
2189.41	0.0045
2199.06	0.0025
2208.7	0.00077685
2218.35	0.0009543
2227.99	0.0010331
2237.64	0.00102
2247.28	0.0010379
2256.92	0.0011639
2266.57	0.0016156
2276.21	0.00191
2285.86	0.00205
2295.5	0.00222
2305.15	0.00202
2314.79	0.00181
2324.44	0.00193
2334.08	0.0024
2343.73	0.00335
2353.37	0.00356
2363.02	0.00316
2372.66	0.00322
2382.31	0.00271
2391.95	0.0015165
2401.6	0.0010453
2411.24	0.0011613
2420.89	0.0012873
2430.53	0.0015474
2440.18	0.0012583
2449.82	0.0010451
2459.47	0.0010291
2469.11	0.0011144
2478.75	0.0015183
2488.4	0.00231
2498.04	0.00334
2507.69	0.00421
2517.33	0.00454
2526.98	0.00501
2536.62	0.00587
2546.27	0.00536
2555.91	0.00379
2565.56	0.00271
2575.2	0.00291
2584.85	0.00292
2594.49	0.00239
2604.14	0.0015757
2613.78	0.0017
2623.43	0.00226
2633.07	0.00301
2642.72	0.00362
2652.36	0.00366
2662.01	0.00382
2671.65	0.00484
2681.29	0.0064
2690.94	0.00618
2700.58	0.00421
2710.23	0.00231
2719.87	0.00182
2729.52	0.00181
2739.16	0.00146
2748.81	0.0009545
2758.45	0.00076498
2768.1	0.00070071
2777.74	0.00072976
2787.39	0.00073603
2797.03	0.0008234
2806.68	0.000614
2816.32	0.00074108
2825.97	0.0005898
2835.61	0.0006596
2845.26	0.0006564
2854.9	0.000474
2864.55	0.00077962
2874.19	0.000798
2883.84	0.0012164
2893.48	0.00183
2903.12	0.00199
2912.77	0.00184
2922.41	0.0012656
2932.06	0.0009978
2941.7	0.000805
2951.35	0.0007826
2960.99	0.0005856
2970.64	0.00076422
2980.28	0.00041
2989.93	0.0010015
2999.57	0.0009125
3009.22	0.0014051
3018.86	0.001659
3028.51	0.00284
3038.15	0.00475
3047.8	0.00729
3057.44	0.00846
3067.09	0.01325
3076.73	0.02631
3086.38	0.02242
3096.02	0.00547
3105.67	0.00217
3115.31	0.0012611
3124.95	0.0009183
3134.6	0.0009966
3144.24	0.0009047
3153.89	0.000535
3163.53	0.000644
3173.18	0.0006347
3182.82	0.00073473
3192.47	0.000518
3202.11	0.000563
3211.76	0.000302
3221.4	0.0008091
3231.05	0.0008219
3240.69	0.000689601
3250.34	0.00067772
3259.98	0.00077894
3269.63	0.00070093
3279.27	0.00071443
3288.92	0.0009104
3298.56	0.0007922
3308.21	0.00067229
3317.85	0.00067079
3327.49	0.000543
3337.14	0.0009
3346.78	0.0006493
3356.43	0.000463
3366.07	0.0006344
3375.72	0.0007744
3385.36	0.000652
3395.01	0.000536
3404.65	0.000687378
3414.3	0.00076276
3423.94	0.0007898
3433.59	0.0009601
3443.23	0.0010235
3452.88	0.0013528
3462.52	0.001181
3472.17	0.0015121
3481.81	0.001455
3491.46	0.0012349
3501.1	0.0007513
3510.75	0.00072564
3520.39	0.0010411
3530.04	0.000632
3539.68	0.0008082
3549.32	0.0008925
3558.97	0.001077
3568.61	0.000526
3578.26	0.000506
3587.9	0.0008119
3597.55	0.00076864
3607.19	0.0006698
3616.84	0.0005915
3626.48	0.000507
3636.13	0.000346
3645.77	0.00076239
3655.42	0.00076832
3665.06	0.000514
3674.71	0.00074035
3684.35	0.0006098
3694	0.000375
3703.64	0.00073354
3713.29	0.0007698
3722.93	0.0009288
3732.58	0.000575
3742.22	0.000527
3751.86	0.000183
3761.51	0.0006092
3771.15	0.00042
3780.8	0.0008031
3790.44	0.000399
3800.09	0.000548
3809.73	0.000495
3819.38	0.0008426
3829.02	0.00077056
3838.67	0.0008908
3848.31	0.0007887
3857.96	0.0008725
3867.6	0.0008519
3877.25	0.0008656
3886.89	0.0012317
3896.54	0.0015424
3906.18	0.00168
3915.83	0.0016654
3925.47	0.0014875
3935.12	0.0016187
3944.76	0.0011121
3954.41	0.0010028
3964.05	0.0008675
3973.69	0.000574
3983.34	0.000545
3992.98	0.0007994
