Infrared Spectrum: 1-Naphthalenemethanol
Formula: C 11 H 10 O
CAS: 4780-79-4
State: gas
Instrument: HP-GC/MS/IRD
Origin: NIST Mass Spectrometry Data Center
1/CM	ABSORBANCE
550	0.001326
562	0.000506
574	0.000284
586	0.000848
598	0.000928
610	0.000428
622	0.000458
634	0.000412
646	0.000784
658	0.00047
670	5.2e-05
682	6.4e-05
694	0.000226
706	0.00057
718	0.000892
730	0.001284
742	0.001154
754	0.003554
766	0.013182
778	0.018202
790	0.015914
802	0.007826
814	0.002024
826	0.00071
838	0.00083
850	0.00159
862	0.001314
874	0.000802
886	0.00071
898	0.000866
910	0.000884
922	0.000842
934	0.001134
946	0.001726
958	0.002754
970	0.00376
982	0.005964
994	0.011286
1006	0.01453
1018	0.009848
1030	0.004386
1042	0.003676
1054	0.004706
1066	0.005634
1078	0.005484
1090	0.002424
1102	0.001138
1114	0.00091
1126	0.000982
1138	0.001254
1150	0.0017
1162	0.003154
1174	0.003028
1186	0.002222
1198	0.002252
1210	0.002386
1222	0.002594
1234	0.002632
1246	0.002158
1258	0.001944
1270	0.0019
1282	0.001776
1294	0.00169
1306	0.001672
1318	0.001578
1330	0.001642
1342	0.001936
1354	0.002494
1366	0.00352
1378	0.005266
1390	0.00577
1402	0.003752
1414	0.001906
1426	0.001084
1438	0.00068
1450	0.000566
1462	0.000662
1474	0.001016
1486	0.001212
1498	0.001846
1510	0.002786
1522	0.00145
1534	0.000426
1546	0.000122
1558	0.00014
1570	0.000254
1582	0.00051
1594	0.00088
1606	0.000652
1618	0.00025
1630	0.000264
1642	0.000236
1654	0.00019
1666	0.00032
1678	0.000502
1690	0.000636
1702	0.000526
1714	0.000488
1726	0.000466
1738	0.00037
1750	0.000348
1762	0.000316
1774	0.000254
1786	0.000332
1798	0.000632
1810	0.000596
1822	0.000456
1834	0.000302
1846	0.000238
1858	0.000436
1870	0.000424
1882	0.00024
1894	0.00031
1906	0.000626
1918	0.0009
1930	0.000884
1942	0.000704
1954	0.000316
1966	8.4e-05
1978	8e-05
1990	9.2e-05
2002	0.00011
2014	0.0001
2026	4.8e-05
2038	5e-05
2050	8.6e-05
2062	6.8e-05
2074	5.6e-05
2086	2.8e-05
2098	1.6e-05
2110	3.2e-05
2122	3.2e-05
2134	0
2146	3e-05
2158	2.2e-05
2170	2.4e-05
2182	1.6e-05
2194	2.4e-05
2206	2.6e-05
2218	3.8e-05
2230	5e-05
2242	7.2e-05
2254	6.2e-05
2266	5.2e-05
2278	8.8e-05
2290	9.6e-05
2302	0.000102
2314	0.000102
2326	0.000144
2338	0.000142
2350	9e-05
2362	7e-05
2374	8e-05
2386	9.8e-05
2398	8.8e-05
2410	0.000132
2422	0.00012
2434	8.2e-05
2446	9.6e-05
2458	0.0001
2470	9.8e-05
2482	9.2e-05
2494	6.8e-05
2506	6.4e-05
2518	7.6e-05
2530	6.4e-05
2542	9.2e-05
2554	7.6e-05
2566	4.4e-05
2578	1.6e-05
2590	5.2e-05
2602	8.4e-05
2614	5e-05
2626	8e-05
2638	9e-05
2650	0.000118
2662	0.000118
2674	0.000102
2686	0.000106
2698	0.000134
2710	0.000196
2722	0.000216
2734	0.000208
2746	0.000272
2758	0.000312
2770	0.000336
2782	0.000402
2794	0.000426
2806	0.000526
2818	0.000588
2830	0.000778
2842	0.001036
2854	0.001454
2866	0.002316
2878	0.00381
2890	0.005162
2902	0.004652
2914	0.003794
2926	0.00382
2938	0.004058
2950	0.003452
2962	0.002966
2974	0.00254
2986	0.001772
2998	0.001758
3010	0.002342
3022	0.002838
3034	0.004282
3046	0.008022
3058	0.01127
3070	0.011274
3082	0.007346
3094	0.004192
3106	0.002126
3118	0.000664
3130	0.000282
3142	0.00021
3154	0.00017
3166	0.000206
3178	0.000186
3190	0.00013
3202	9.6e-05
3214	0.00012
3226	0.000116
3238	8.8e-05
3250	4.8e-05
3262	6.6e-05
3274	2.8e-05
3286	4.8e-05
3298	5.4e-05
3310	5.4e-05
3322	3.6e-05
3334	5.4e-05
3346	4.8e-05
3358	5.4e-05
3370	7.2e-05
3382	0.000114
3394	9.2e-05
3406	0.000156
3418	0.000154
3430	0.00014
3442	0.000122
3454	0.000124
3466	0.00013
3478	0.000142
3490	0.000104
3502	0.00016
3514	0.000142
3526	0.00013
3538	0.000154
3550	0.000198
3562	0.000216
3574	0.000228
3586	0.000174
3598	0.00027
3610	0.000314
3622	0.00049
3634	0.001268
3646	0.00317
3658	0.003158
3670	0.001674
3682	0.000878
3694	0.0005
3706	0.000338
3718	0.000234
3730	0.00018
3742	0.000198
3754	0.000152
3766	0.000168
3778	0.00017
3790	0.000184
3802	0.000218
3814	0.00026
3826	0.000194
3838	0.000236
