Infrared Spectrum: 2H-PYRAN-2-METHYLAMINE, 3,4-DIHYDRO-
Formula: C6 H11 N O
CAS: 4781-76-4
State: SOLUTION (10% CCl4 FOR 3800-400 CM^-^1)
Class: COBLENTZ III
Instrument: DOW KBr FOREPRISM-GRATING
Instrument parameters: BLAZED AT 3.5, 12.0, 20.0 MICRON AND CHANGED AT 5.0, 7.5, 14.9 MICRON
Sampling: TRANSMISSION
Path length: 0.011 CM
Resolution: 2
Origin: DOW CHEMICAL COMPANY
1/CM	TRANSMITTANCE
504	0.0014
513	0.0054
522	0.0092
531	0.0168
540	0.0293
549	0.0475
558	0.0778
567	0.1081
576	0.1382
585	0.1719
594	0.2134
603	0.2571
612	0.2916
621	0.2996
630	0.374
639	0.4485
648	0.4889
657	0.5224
666	0.5479
675	0.5629
684	0.5576
693	0.5287
702	0.4903
711	0.4026
720	0.2147
729	0.0179
738	0.0008
747	0.0008
756	0.0008
765	0.0008
774	0.0008
783	0.0008
792	0.0008
801	0.0008
810	0.0113
819	0.0627
828	0.1595
837	0.2185
846	0.2875
855	0.3539
864	0.4302
873	0.4654
882	0.4673
891	0.4755
900	0.4349
909	0.4016
918	0.4581
927	0.3805
936	0.4959
945	0.5815
954	0.5789
963	0.5562
972	0.4995
981	0.469
990	0.5079
999	0.5025
1008	0.4938
1017	0.5377
1026	0.4744
1035	0.4119
1044	0.4062
1053	0.3066
1062	0.1342
1071	0.0131
1080	0.1156
1089	0.4287
1098	0.5786
1107	0.5659
1116	0.5977
1125	0.6676
1134	0.6875
1143	0.6906
1152	0.7157
1161	0.6861
1170	0.7007
1179	0.6741
1188	0.6898
1197	0.6571
1206	0.5679
1215	0.5158
1224	0.2766
1233	0.2316
1242	0.0093
1251	0.311
1260	0.5017
1269	0.6081
1278	0.6839
1287	0.7203
1296	0.7369
1305	0.7378
1314	0.7431
1323	0.7291
1332	0.7038
1341	0.6526
1350	0.6594
1359	0.6821
1368	0.7128
1377	0.689
1386	0.695
1395	0.7203
1404	0.7578
1413	0.7651
1422	0.7751
1431	0.7075
1440	0.5816
1449	0.4894
1458	0.6226
1467	0.7193
1476	0.73
1485	0.7221
1494	0.6883
1503	0.6384
1512	0.5906
1521	0.5364
1530	0.4732
1539	0.4203
1548	0.3637
1557	0.375
1566	0.429
1575	0.4383
1584	0.4434
1593	0.4734
1602	0.5131
1611	0.5139
1620	0.4603
1629	0.3952
1638	0.1903
1647	0.0528
1656	0.2285
1665	0.596
1674	0.7286
1683	0.7691
1692	0.7951
1701	0.8104
1710	0.8212
1719	0.828
1728	0.8327
1737	0.8368
1746	0.841
1755	0.8442
1764	0.8461
1773	0.8448
1782	0.8421
1791	0.8394
1800	0.8349
1809	0.8265
1818	0.8128
1827	0.805
1836	0.8268
1845	0.8324
1854	0.8317
1863	0.8305
1872	0.833
1881	0.8368
1890	0.8397
1899	0.8409
1908	0.8416
1917	0.842
1926	0.8412
1935	0.8388
1944	0.8348
1953	0.8341
1962	0.833
1971	0.8196
1980	0.8174
1989	0.8134
1998	0.8071
2007	0.8118
2016	0.8126
2025	0.8135
2034	0.8136
2043	0.8128
2052	0.8112
2061	0.8115
2070	0.8139
2079	0.8171
2088	0.8194
2097	0.8185
2106	0.8164
2115	0.8132
2124	0.8088
2133	0.8038
2142	0.7974
2151	0.8025
2160	0.8143
2169	0.8203
2178	0.8237
2187	0.8255
2196	0.8244
2205	0.8227
2214	0.8208
2223	0.819
2232	0.8172
2241	0.8157
2250	0.8144
2259	0.8128
2268	0.8098
2277	0.8067
2286	0.8032
2295	0.7988
2304	0.7947
2313	0.7937
2322	0.8051
2331	0.811
2340	0.8134
2349	0.8144
2358	0.8149
2367	0.8148
2376	0.8147
2385	0.8135
2394	0.8121
2403	0.8107
2412	0.8094
2421	0.8078
2430	0.8062
2439	0.8043
2448	0.8022
2457	0.7999
2466	0.7975
2475	0.7951
2484	0.7925
2493	0.7936
2502	0.7931
2511	0.7901
2520	0.7867
2529	0.783
2538	0.7815
2547	0.7804
2556	0.7786
2565	0.7768
2574	0.775
2583	0.7733
2592	0.7715
2601	0.7684
2610	0.7633
2619	0.7561
2628	0.7457
2637	0.7285
2646	0.7325
2655	0.7415
2664	0.7431
2673	0.7419
2682	0.74
2691	0.7341
2700	0.7247
2709	0.7136
2718	0.7122
2727	0.7121
2736	0.7055
2745	0.6992
2754	0.6957
2763	0.6905
2772	0.6818
2781	0.6688
2790	0.6611
2799	0.6578
2808	0.6475
2817	0.6272
2826	0.594
2835	0.4914
2844	0.3814
2853	0.1472
2862	0.2039
2871	0.2801
2880	0.3161
2889	0.338
2898	0.3314
2907	0.253
2916	0.2049
2925	0.1103
2934	0.1312
2943	0.1406
2952	0.1521
2961	0.303
2970	0.4066
2979	0.5584
2988	0.6114
2997	0.6444
3006	0.6671
3015	0.6775
3024	0.6831
3033	0.6832
3042	0.6794
3051	0.6538
3060	0.5124
3069	0.3812
3078	0.5688
3087	0.6575
3096	0.6991
3105	0.7249
3114	0.7344
3123	0.7375
3132	0.7378
3141	0.7371
3150	0.7356
3159	0.7337
3168	0.7314
3177	0.729
3186	0.7268
3195	0.7274
3204	0.7283
3213	0.7308
3222	0.7325
3231	0.7339
3240	0.733
3249	0.7303
3258	0.7251
3267	0.7181
3276	0.7103
3285	0.704
3294	0.7012
3303	0.7015
3312	0.7008
3321	0.6984
3330	0.6925
3339	0.6958
3348	0.7065
3357	0.7092
3366	0.7031
3375	0.6918
3384	0.668
3393	0.6212
3402	0.6162
3411	0.6371
3420	0.7125
3429	0.7317
3438	0.7461
3447	0.7562
3456	0.763
3465	0.7693
3474	0.7751
3483	0.7808
3492	0.7858
3501	0.7908
3510	0.7958
3519	0.8006
3528	0.8055
3537	0.8103
3546	0.8135
3555	0.8164
3564	0.8193
3573	0.8213
3582	0.8232
3591	0.825
3600	0.8268
3609	0.8288
3618	0.8306
3627	0.8325
3636	0.8339
3645	0.8344
3654	0.8346
3663	0.8305
3672	0.8153
3681	0.8075
3690	0.8212
3699	0.835
3708	0.8403
3717	0.8421
3726	0.8433
3735	0.8442
3744	0.8451
3753	0.8461
3762	0.8471
3771	0.8485
3780	0.85
