Infrared Spectrum: 3-Thiophenemalonic acid, tetrahydro-, 1,1-dioxide, diethyl ester
Formula: C11 H18 O6 S
CAS: 4785-62-0
State: SOLID (SPLIT MULL), FLUOROLUBE FOR 3800-1330 CM^-^1, NUJOL FOR 1330-450 CM^-^1
Class: COBLENTZ III
Instrument: DOW KBr FOREPRISM-GRATING
Instrument parameters: BLAZED AT 3.5, 12.0, 20.0 MICRON AND CHANGED AT 5.0, 7.5, 14.9 MICRON
Sampling: TRANSMISSION
Resolution: 2
Origin: DOW CHEMICAL COMPANY
1/CM	TRANSMITTANCE
3798	0.8674
3789	0.8738
3780	0.8737
3771	0.8677
3762	0.8675
3753	0.8675
3744	0.8685
3735	0.8735
3726	0.8782
3717	0.8749
3708	0.8725
3699	0.8706
3690	0.8689
3681	0.8678
3672	0.8675
3663	0.8675
3654	0.8675
3645	0.8671
3636	0.8668
3627	0.8668
3618	0.8675
3609	0.8677
3600	0.8678
3591	0.8675
3582	0.8674
3573	0.8671
3564	0.867
3555	0.8668
3546	0.8665
3537	0.8662
3528	0.8658
3519	0.8653
3510	0.8648
3501	0.8643
3492	0.8638
3483	0.8633
3474	0.8617
3465	0.8533
3456	0.8439
3447	0.8481
3438	0.855
3429	0.8598
3420	0.8635
3411	0.8649
3402	0.8662
3393	0.8665
3384	0.867
3375	0.8673
3366	0.8678
3357	0.8685
3348	0.8692
3339	0.8697
3330	0.87
3321	0.8702
3312	0.8704
3303	0.8704
3294	0.8704
3285	0.8705
3276	0.8706
3267	0.8707
3258	0.871
3249	0.8712
3240	0.8715
3231	0.8717
3222	0.8718
3213	0.8716
3204	0.8716
3195	0.8717
3186	0.8718
3177	0.8712
3168	0.8705
3159	0.8698
3150	0.8693
3141	0.8687
3132	0.8685
3123	0.8685
3114	0.868
3105	0.8671
3096	0.8662
3087	0.8649
3078	0.8637
3069	0.8625
3060	0.8616
3051	0.8585
3042	0.8542
3033	0.8504
3024	0.8468
3015	0.8313
3006	0.7206
2997	0.7506
2988	0.7212
2979	0.6721
2970	0.6825
2961	0.7326
2952	0.7539
2943	0.7311
2934	0.7204
2925	0.7451
2916	0.7808
2907	0.7658
2898	0.785
2889	0.8085
2880	0.8191
2871	0.8162
2862	0.8265
2853	0.8395
2844	0.8489
2835	0.8556
2826	0.8597
2817	0.8633
2808	0.8656
2799	0.8673
2790	0.868
2781	0.8686
2772	0.8689
2763	0.8689
2754	0.8695
2745	0.8705
2736	0.8716
2727	0.8727
2718	0.8737
2709	0.8747
2700	0.8757
2691	0.8764
2682	0.8768
2673	0.8771
2664	0.8775
2655	0.8778
2646	0.8777
2637	0.8775
2628	0.8775
2619	0.8775
2610	0.8775
2601	0.8775
2592	0.8775
2583	0.8775
2574	0.8775
2565	0.8771
2556	0.8768
2547	0.8766
2538	0.8756
2529	0.8744
2520	0.8734
2511	0.8725
2502	0.8714
2493	0.8699
2484	0.8685
2475	0.8671
2466	0.8662
2457	0.8646
2448	0.8628
2439	0.8609
2430	0.8589
2421	0.857
2412	0.8555
2403	0.8545
2394	0.8559
2385	0.8571
2376	0.8575
2367	0.8568
2358	0.8545
2349	0.8517
2340	0.8492
2331	0.8483
2322	0.848
2313	0.8477
2304	0.8477
2295	0.8486
2286	0.8496
2277	0.85
2268	0.8505
2259	0.8515
2250	0.8525
2241	0.8538
2232	0.8561
2223	0.8584
2214	0.8604
2205	0.8621
2196	0.8634
2187	0.8645
2178	0.8657
2169	0.8665
2160	0.8673
2151	0.8682
2142	0.8691
2133	0.8695
2124	0.8697
2115	0.8696
2106	0.8704
2097	0.8708
2088	0.8707
2079	0.87
2070	0.8697
2061	0.8703
2052	0.8727
2043	0.8748
2034	0.876
2025	0.8761
2016	0.8767
2007	0.8765
1998	0.8648
1989	0.8778
1980	0.8804
1971	0.883
1962	0.8832
1953	0.8818
1944	0.8811
1935	0.8818
1926	0.8807
1917	0.8803
1908	0.881
1899	0.8786
1890	0.875
1881	0.873
1872	0.8734
1863	0.8746
1854	0.8771
1845	0.8787
1836	0.8783
1827	0.8736
1818	0.8684
1809	0.8659
1800	0.8628
1791	0.8598
1782	0.8539
1773	0.846
1764	0.8278
1755	0.7757
1746	0.5786
1737	0.1816
1728	0.0342
1719	0.5086
1710	0.6981
1701	0.7371
1692	0.7587
1683	0.8071
1674	0.8289
1665	0.842
1656	0.8501
1647	0.8565
1638	0.8642
1629	0.8681
1620	0.8695
1611	0.8701
1602	0.8696
1593	0.87
1584	0.8718
1575	0.873
1566	0.8728
1557	0.8758
1548	0.8737
1539	0.8792
1530	0.8715
1521	0.8741
1512	0.8689
1503	0.8682
1494	0.8575
1485	0.8145
1476	0.7594
1467	0.7901
1458	0.7782
1449	0.7769
1440	0.8083
1431	0.8265
1422	0.7757
1413	0.7578
1404	0.7944
1395	0.739
1386	0.7711
1377	0.7201
1368	0.7369
1359	0.7907
1350	0.76
1341	0.6915
1332	0.6737
1323	0.5268
1314	0.2902
1305	0.1766
1296	0.1666
1287	0.4298
1278	0.418
1269	0.5303
1260	0.3746
1251	0.1735
1242	0.2803
1233	0.4162
1224	0.3912
1215	0.2215
1206	0.3641
1197	0.3205
1188	0.4532
1179	0.6085
1170	0.6661
1161	0.6086
1152	0.3198
1143	0.5912
1134	0.4688
1125	0.3366
1116	0.618
1107	0.6348
1098	0.5497
1089	0.7361
1080	0.7794
1071	0.6561
1062	0.7269
1053	0.7692
1044	0.5632
1035	0.4669
1026	0.5322
1017	0.6945
1008	0.7893
999	0.7864
990	0.7908
981	0.8283
972	0.835
963	0.733
954	0.8218
945	0.7956
936	0.8139
927	0.8401
918	0.833
909	0.7971
900	0.7996
891	0.8068
882	0.8425
873	0.8267
864	0.6951
855	0.7965
846	0.843
837	0.8516
828	0.845
819	0.8233
810	0.8124
801	0.816
792	0.8184
783	0.8128
774	0.8104
765	0.8357
756	0.8431
747	0.8151
738	0.8196
729	0.8192
720	0.7872
711	0.7493
702	0.7788
693	0.83
684	0.8465
675	0.8555
666	0.8578
657	0.8577
648	0.857
639	0.8546
630	0.8495
621	0.8392
612	0.8235
603	0.7943
594	0.8216
585	0.8214
576	0.7768
567	0.769
558	0.8032
549	0.8158
540	0.8153
531	0.8117
522	0.8091
513	0.8067
504	0.8033
495	0.7985
486	0.7914
477	0.7661
468	0.5345
459	0.6062
