Infrared Spectrum: TETRAPHENYLCYCLOPENTADIENONE
Formula: C29 H20 O
CAS: 479-33-4
Class: COBLENTZ
Instrument: Not specified, most likely a prism, grating, or hybrid spectrometer.
Sampling: TRANSMISSION
Resolution: 4
MICROMETERS	TRANSMITTANCE
1.827	0.36
1.86035	0.362
1.8937	0.374
1.92705	0.38
1.9604	0.385
1.99375	0.393
2.0271	0.398
2.06045	0.413
2.0938	0.422
2.12715	0.432
2.1605	0.438
2.19385	0.441
2.2272	0.441
2.26055	0.442
2.2939	0.448
2.32725	0.457
2.3606	0.469
2.39395	0.472
2.4273	0.474
2.46065	0.492
2.494	0.501
2.52735	0.513
2.5607	0.528
2.59405	0.529
2.6274	0.537
2.66075	0.537
2.6941	0.541
2.72745	0.545
2.7608	0.549
2.79416	0.553
2.82751	0.554
2.86086	0.556
2.89421	0.558
2.92756	0.561
2.96091	0.565
2.99426	0.57
3.02761	0.582
3.06096	0.582
3.09431	0.578
3.12766	0.578
3.16101	0.577
3.19436	0.57
3.22771	0.528
3.26106	0.458
3.29441	0.437
3.32776	0.341
3.36111	0.032
3.39446	0.021
3.42781	0.049
3.46116	0.078
3.49451	0.097
3.52786	0.513
3.56121	0.63
3.59456	0.665
3.62791	0.664
3.66126	0.669
3.69461	0.677
3.72796	0.674
3.76131	0.685
3.79466	0.689
3.82801	0.697
3.86136	0.717
3.89471	0.725
3.92806	0.733
3.96141	0.736
3.99476	0.742
4.02811	0.742
4.06146	0.742
4.09481	0.745
4.12816	0.749
4.16151	0.753
4.19486	0.761
4.22821	0.777
4.26156	0.78
4.29491	0.776
4.32826	0.773
4.36161	0.773
4.39496	0.777
4.42831	0.777
4.46166	0.778
4.49501	0.782
4.52836	0.785
4.56171	0.789
4.59506	0.792
4.62841	0.794
4.66177	0.798
4.69512	0.801
4.72847	0.804
4.76182	0.806
4.79517	0.809
4.82852	0.809
4.86187	0.816
4.89522	0.816
4.92857	0.816
4.96192	0.816
4.99527	0.816
5.02862	0.814
5.06197	0.801
5.09532	0.796
5.12867	0.816
5.16202	0.822
5.19537	0.818
5.22872	0.814
5.26207	0.809
5.29542	0.821
5.32877	0.834
5.36212	0.838
5.39547	0.836
5.42882	0.833
5.46217	0.824
5.49552	0.833
5.52887	0.833
5.56222	0.826
5.59557	0.829
5.62892	0.84
5.66227	0.84
5.69562	0.841
5.72897	0.854
5.76232	0.836
5.79567	0.718
5.82902	0.362
5.86237	0.385
5.89572	0.702
5.92907	0.748
5.96242	0.78
5.99577	0.762
6.02912	0.797
6.06247	0.82
6.09582	0.824
6.12917	0.82
6.16252	0.822
6.19587	0.826
6.22922	0.8
6.26257	0.737
6.29592	0.798
6.32927	0.802
6.36262	0.762
6.39597	0.82
6.42932	0.83
6.46267	0.832
6.49602	0.841
6.52937	0.833
6.56273	0.836
6.59608	0.82
6.62943	0.778
6.66278	0.681
6.69613	0.576
6.72948	0.552
6.76283	0.581
6.79618	0.32
6.82953	0.248
6.86288	0.292
6.89623	0.334
6.92958	0.301
6.96293	0.542
6.99628	0.7
7.02963	0.778
7.06298	0.806
7.09633	0.802
7.12968	0.797
7.16303	0.776
7.19638	0.714
7.22973	0.565
7.26308	0.458
7.29643	0.596
7.32978	0.609
7.36313	0.528
7.39648	0.597
7.42983	0.714
7.46318	0.725
7.49653	0.722
7.52988	0.686
7.56323	0.669
7.59658	0.705
7.62993	0.682
7.66328	0.485
7.69663	0.492
7.72998	0.592
7.76333	0.682
7.79668	0.682
7.83003	0.729
7.86338	0.764
7.89673	0.785
7.93008	0.797
7.96343	0.806
7.99678	0.809
8.03013	0.82
8.06348	0.829
8.09683	0.836
8.13018	0.836
8.16353	0.842
8.19688	0.846
8.23023	0.849
8.26358	0.85
8.29693	0.853
8.33028	0.853
8.36363	0.852
8.39698	0.845
8.43034	0.832
8.46369	0.822
8.49704	0.83
8.53039	0.842
8.56374	0.845
8.59709	0.834
8.63044	0.802
8.66379	0.758
8.69714	0.809
8.73049	0.836
8.76384	0.841
8.79719	0.844
8.83054	0.844
8.86389	0.84
8.89724	0.821
8.93059	0.781
8.96394	0.642
8.99729	0.666
9.03064	0.709
9.06399	0.738
9.09734	0.752
9.13069	0.742
9.16404	0.688
9.19739	0.688
9.23074	0.765
9.26409	0.8
9.29744	0.721
9.33079	0.676
9.36414	0.764
9.39749	0.828
9.43084	0.837
9.46419	0.842
9.49754	0.854
9.53089	0.86
9.56424	0.861
9.59759	0.87
9.63094	0.869
9.66429	0.856
9.69764	0.82
9.73099	0.721
9.76434	0.657
9.79769	0.688
9.83104	0.769
9.86439	0.826
9.89774	0.844
9.93109	0.845
9.96444	0.821
9.99779	0.814
10.0311	0.821
10.0645	0.846
10.0978	0.853
10.1312	0.86
10.1645	0.861
10.1979	0.852
10.2312	0.846
10.2646	0.83
10.2979	0.798
10.3313	0.77
10.3646	0.774
10.398	0.81
10.4313	0.842
10.4647	0.856
10.498	0.858
10.5314	0.862
10.5647	0.865
10.5981	0.865
10.6314	0.864
10.6648	0.866
10.6981	0.858
10.7315	0.829
10.7648	0.818
10.7982	0.844
10.8315	0.837
10.8649	0.774
10.8982	0.745
10.9316	0.766
10.9649	0.752
10.9983	0.813
11.0316	0.861
11.065	0.876
11.0983	0.878
11.1317	0.884
11.165	0.841
11.1984	0.842
11.2317	0.869
11.2651	0.878
11.2985	0.885
11.3318	0.89
11.3652	0.894
11.3985	0.894
11.4319	0.896
11.4652	0.896
11.4986	0.896
11.5319	0.897
11.5653	0.901
11.5986	0.901
11.632	0.901
11.6653	0.901
11.6987	0.893
11.732	0.897
11.7654	0.893
11.7987	0.882
11.8321	0.878
11.8654	0.888
11.8988	0.888
11.9321	0.884
11.9655	0.88
11.9988	0.877
12.0322	0.889
12.0655	0.902
12.0989	0.908
12.1322	0.91
12.1656	0.912
12.1989	0.91
12.2323	0.905
12.2656	0.893
12.299	0.846
12.3323	0.666
12.3657	0.413
12.399	0.501
12.4324	0.697
12.4657	0.829
12.4991	0.861
12.5324	0.861
12.5658	0.82
12.5991	0.694
12.6325	0.592
12.6658	0.661
12.6992	0.837
12.7325	0.87
12.7659	0.882
12.7992	0.876
12.8326	0.826
12.8659	0.764
12.8993	0.776
12.9326	0.832
12.966	0.861
12.9993	0.876
13.0327	0.878
13.066	0.884
13.0994	0.885
13.1327	0.88
13.1661	0.881
13.1994	0.865
13.2328	0.842
13.2661	0.796
13.2995	0.628
13.3328	0.468
13.3662	0.502
13.3995	0.67
13.4329	0.741
13.4662	0.736
13.4996	0.693
13.5329	0.644
13.5663	0.621
13.5996	0.67
13.633	0.744
13.6663	0.774
13.6997	0.784
13.733	0.777
13.7664	0.764
13.7997	0.729
13.8331	0.653
13.8664	0.48
13.8998	0.258
13.9331	0.142
13.9665	0.166
13.9998	0.306
14.0332	0.445
14.0665	0.52
14.0999	0.576
14.1332	0.661
14.1666	0.701
14.1999	0.702
14.2333	0.624
14.2666	0.525
14.3	0.402
14.3333	0.32
14.3667	0.268
14.4	0.28
14.4334	0.313
14.4667	0.324
14.5001	0.318
14.5334	0.341
14.5668	0.433
14.6001	0.534
14.6335	0.666
14.6668	0.752
14.7002	0.808
14.7335	0.834
14.7669	0.845
14.8002	0.85
14.8336	0.854
14.8669	0.864
14.9003	0.868
14.9336	0.877
14.967	0.884
15.0003	0.9
