Infrared Spectrum: Pentaethylene glycol
Formula: C 10 H 22 O 6
CAS: 4792-15-8
State: gas
Origin: EPA-IR VAPOR PHASE LIBRARY
1/CM	ABSORBANCE
549.8	0.002563
559.445	0.002413
569.09	0.001993
578.735	0.002193
588.38	0.001703
598.025	0.0013985
607.67	0.0012824
617.315	0.0011893
626.96	0.0013049
636.605	0.0012459
646.251	0.0009616
655.896	0.0009237
665.541	0.0011722
675.186	0.0009081
684.831	0.0009212
694.476	0.0007746
704.121	0.0006524
713.766	0.0005874
723.411	0.000404
733.056	0.000298
742.701	0.0005451
752.346	0.000575
761.991	0.0006118
771.636	0.000641463
781.281	0.0007389
790.926	0.000262
800.571	0.000318
810.216	0.0013193
819.861	0.001663
829.507	0.001903
839.152	0.001863
848.797	0.002103
858.442	0.002623
868.087	0.003043
877.732	0.003833
887.377	0.004363
897.022	0.004463
906.667	0.004683
916.312	0.004933
925.957	0.005453
935.602	0.005303
945.247	0.004493
954.892	0.003333
964.537	0.003013
974.182	0.003593
983.827	0.004483
993.472	0.005413
1003.12	0.006553
1012.76	0.008213
1022.41	0.010493
1032.05	0.013123
1041.7	0.016473
1051.34	0.020473
1060.99	0.024053
1070.63	0.023293
1080.28	0.020263
1089.92	0.021243
1099.57	0.026763
1109.21	0.034973
1118.86	0.041643
1128.5	0.042523
1138.15	0.037083
1147.79	0.028443
1157.44	0.019383
1167.08	0.011993
1176.73	0.007943
1186.37	0.006033
1196.02	0.005433
1205.66	0.005203
1215.31	0.005523
1224.95	0.005153
1234.6	0.005353
1244.24	0.006003
1253.89	0.006133
1263.53	0.005393
1273.18	0.006023
1282.82	0.006523
1292.47	0.006423
1302.11	0.005683
1311.76	0.005033
1321.4	0.005223
1331.05	0.005543
1340.69	0.007233
1350.34	0.009553
1359.98	0.008253
1369.63	0.006703
1379.27	0.005583
1388.92	0.005033
1398.56	0.004613
1408.21	0.004093
1417.85	0.003203
1427.5	0.002743
1437.14	0.002763
1446.79	0.003873
1456.43	0.005363
1466.08	0.005033
1475.73	0.003583
1485.37	0.002463
1495.02	0.001643
1504.66	0.0011266
1514.31	0.0009714
1523.95	0.0008524
1533.6	0.0007508
1543.24	0.0007356
1552.89	0.0006587
1562.53	0.00067343
1572.18	0.0005952
1581.82	0.000623
1591.47	0.0005868
1601.11	0.0005977
1610.76	0.0006178
1620.4	0.0005653
1630.05	0.0005679
1639.69	0.0005529
1649.34	0.000516
1658.98	0.0005534
1668.63	0.000615
1678.27	0.0006156
1687.92	0.0006005
1697.56	0.0005743
1707.21	0.00062839
1716.85	0.00063181
1726.5	0.0005845
1736.14	0.0006624
1745.79	0.00065659
1755.43	0.000634056
1765.08	0.0005861
1774.72	0.0005947
1784.37	0.000599
1794.01	0.0005482
1803.66	0.0006041
1813.3	0.000526
1822.95	0.000529
1832.59	0.0005837
1842.24	0.0005638
1851.88	0.0005848
1861.53	0.0005888
1871.17	0.000640116
1880.82	0.00068556
1890.46	0.0007847
1900.11	0.000801
1909.75	0.000861
1919.4	0.0009396
1929.04	0.0010891
1938.69	0.0011465
1948.33	0.0012183
1957.98	0.0011776
1967.62	0.0011768
1977.27	0.0011087
1986.91	0.0009918
1996.56	0.0008845
2006.2	0.0009161
2015.85	0.000783
2025.49	0.0008901
2035.14	0.0008223
2044.78	0.0008388
2054.43	0.0008623
2064.07	0.0008876
2073.72	0.000881
2083.36	0.0009036
2093.01	0.0009123
2102.65	0.0009355
2112.3	0.0009286
2121.94	0.0009758
2131.59	0.0009465
2141.23	0.0009076
2150.88	0.0009132
2160.52	0.0009289
2170.17	0.0009
2179.81	0.0008532
2189.46	0.0008361
2199.1	0.0007936
2208.75	0.000787
2218.39	0.0008147
2228.04	0.0007735
2237.68	0.0008288
2247.33	0.0007954
2256.97	0.0008432
2266.62	0.0008618
2276.26	0.0008314
2285.91	0.0008804
2295.55	0.0008259
2305.2	0.0007903
2314.84	0.0007634
2324.49	0.0007668
2334.13	0.0008641
2343.78	0.0007628
2353.42	0.0007639
2363.07	0.0008239
2372.72	0.0008304
2382.36	0.0008126
2392.01	0.000791
2401.65	0.000851
2411.3	0.0008836
2420.94	0.0007674
2430.59	0.0008504
2440.23	0.0008444
2449.88	0.000905
2459.52	0.0009376
2469.17	0.0008486
2478.81	0.0007857
2488.46	0.0008899
2498.1	0.000871
2507.75	0.0008723
2517.39	0.000963
2527.04	0.0010128
2536.68	0.0009183
2546.33	0.0009472
2555.97	0.0009859
2565.62	0.0010135
2575.26	0.0009892
2584.91	0.0010627
2594.55	0.0010507
2604.2	0.0010922
2613.84	0.0011036
2623.49	0.0010429
2633.13	0.0010833
2642.78	0.0011706
2652.42	0.0012547
2662.07	0.0012935
2671.71	0.0015071
2681.36	0.001653
2691	0.001883
2700.65	0.002173
2710.29	0.002383
2719.94	0.002483
2729.58	0.002563
2739.23	0.002563
2748.87	0.002683
2758.52	0.002683
2768.16	0.002953
2777.81	0.003283
2787.45	0.003653
2797.1	0.003983
2806.74	0.004503
2816.39	0.005173
2826.03	0.006433
2835.68	0.008383
2845.32	0.011953
2854.97	0.018203
2864.61	0.024663
2874.26	0.026943
2883.9	0.026373
2893.55	0.025233
2903.19	0.024173
2912.84	0.023193
2922.48	0.023103
2932.13	0.023343
2941.77	0.022423
2951.42	0.020823
2961.06	0.017653
2970.71	0.011453
2980.35	0.006483
2990	0.004093
2999.64	0.002963
3009.29	0.002073
3018.93	0.001693
3028.58	0.0015421
3038.22	0.0013825
3047.87	0.0013189
3057.51	0.0012665
3067.16	0.0011437
3076.8	0.0011175
3086.45	0.0010803
3096.09	0.0010384
3105.74	0.0009865
3115.38	0.0009647
3125.03	0.0009244
3134.67	0.0008583
3144.32	0.0008476
3153.96	0.0008461
3163.61	0.0008261
3173.25	0.000798
3182.9	0.0008911
3192.54	0.0009216
3202.19	0.00070618
3211.83	0.0008062
3221.48	0.00070771
3231.12	0.0009402
3240.77	0.0008948
3250.41	0.0009339
3260.06	0.00068091
3269.7	0.00068563
3279.35	0.0008894
3289	0.0008029
3298.64	0.0007593
3308.29	0.0008333
3317.93	0.00072637
3327.58	0.0007856
3337.22	0.0008467
3346.87	0.0006516
3356.51	0.0008752
3366.16	0.0008651
3375.8	0.00070881
3385.45	0.0007843
3395.09	0.0009278
3404.74	0.0010097
3414.38	0.0009109
3424.03	0.000979
3433.67	0.0009571
3443.32	0.0010182
3452.96	0.0011078
3462.61	0.0012715
3472.25	0.0013505
3481.9	0.0012704
3491.54	0.0013812
3501.19	0.001693
3510.83	0.001843
3520.48	0.002013
3530.12	0.002223
3539.77	0.002353
3549.41	0.002513
3559.06	0.002613
3568.7	0.002583
3578.35	0.002513
3587.99	0.002513
3597.64	0.002523
3607.28	0.002713
3616.93	0.003193
3626.57	0.003703
3636.22	0.003843
3645.86	0.002913
3655.51	0.002393
3665.15	0.002583
3674.8	0.002343
3684.44	0.001983
3694.09	0.0013533
3703.73	0.0010109
3713.38	0.0012029
3723.02	0.0011605
3732.67	0.0009966
3742.31	0.0009593
3751.96	0.0010544
3761.6	0.0009884
3771.25	0.000908
3780.89	0.0010345
3790.54	0.0009792
3800.18	0.0008859
3809.83	0.000928
3819.47	0.0009698
3829.12	0.0007836
3838.76	0.0008015
3848.41	0.0010019
3858.05	0.0010886
3867.7	0.0009124
3877.34	0.000915
3886.99	0.0009534
3896.63	0.0009725
3906.28	0.0010146
3915.92	0.0009488
3925.57	0.0011143
3935.21	0.0009657
3944.86	0.000968
3954.5	0.0007655
3964.15	0.0010735
3973.79	0.0010283
3983.44	0.0010702
3993.08	0.0012283
