Infrared Spectrum: (4,4'-Diethoxy)azoxybenzene
Formula: C 16 H 18 N 2 O 3
CAS: 4792-83-0
State: gas
Origin: EPA-IR VAPOR PHASE LIBRARY
1/CM	ABSORBANCE
549.8	0.004607
559.445	0.005127
569.09	0.005777
578.734	0.004697
588.379	0.002257
598.024	0.001247
607.669	0.001497
617.313	0.001737
626.958	0.002077
636.603	0.002137
646.248	0.002817
655.893	0.002137
665.537	0.001717
675.182	0.001607
684.827	0.001247
694.472	0.0008985
704.116	0.0009816
713.761	0.0008347
723.406	0.0011806
733.051	0.001687
742.695	0.002547
752.34	0.002147
761.985	0.002727
771.63	0.002497
781.275	0.001867
790.919	0.002367
800.564	0.003297
810.209	0.004387
819.854	0.007727
829.498	0.013927
839.143	0.017637
848.788	0.011897
858.433	0.006297
868.078	0.004047
877.722	0.003197
887.367	0.003997
897.012	0.006197
906.657	0.010017
916.301	0.014077
925.946	0.009777
935.591	0.004777
945.236	0.002847
954.88	0.001947
964.525	0.001917
974.17	0.001637
983.815	0.001687
993.46	0.002667
1003.1	0.005947
1012.75	0.007607
1022.39	0.010147
1032.04	0.019447
1041.68	0.029677
1051.33	0.023417
1060.97	0.012547
1070.62	0.008367
1080.26	0.008567
1089.91	0.012617
1099.55	0.013927
1109.2	0.013567
1118.84	0.011767
1128.49	0.007667
1138.13	0.007577
1147.78	0.016617
1157.42	0.071947
1167.07	0.020527
1176.71	0.007557
1186.36	0.006697
1196	0.009877
1205.64	0.017807
1215.29	0.024157
1224.93	0.047417
1234.58	0.099707
1244.22	0.111847
1253.87	0.079427
1263.51	0.035097
1273.16	0.026647
1282.8	0.027137
1292.45	0.029037
1302.09	0.023637
1311.74	0.016897
1321.38	0.013247
1331.03	0.010267
1340.67	0.006967
1350.32	0.005527
1359.96	0.005507
1369.61	0.006527
1379.25	0.007257
1388.9	0.012667
1398.54	0.015827
1408.18	0.011127
1417.83	0.008067
1427.47	0.006657
1437.12	0.007687
1446.76	0.011817
1456.41	0.021567
1466.05	0.033477
1475.7	0.039257
1485.34	0.041797
1494.99	0.082367
1504.63	0.074787
1514.28	0.016537
1523.92	0.008387
1533.57	0.006337
1543.21	0.006207
1552.86	0.007177
1562.5	0.010177
1572.15	0.012877
1581.79	0.018507
1591.44	0.042147
1601.08	0.049227
1610.73	0.024397
1620.37	0.008777
1630.01	0.005007
1639.66	0.003927
1649.3	0.003007
1658.95	0.002317
1668.59	0.001897
1678.24	0.001647
1687.88	0.001377
1697.53	0.0011903
1707.17	0.0011128
1716.82	0.0010851
1726.46	0.0011506
1736.11	0.001237
1745.75	0.001477
1755.4	0.001597
1765.04	0.0011407
1774.69	0.0010064
1784.33	0.0009511
1793.98	0.0010242
1803.62	0.0008664
1813.27	0.0008509
1822.91	0.0008987
1832.55	0.0009528
1842.2	0.001018
1851.84	0.0010398
1861.49	0.0011264
1871.13	0.001357
1880.78	0.001567
1890.42	0.001767
1900.07	0.001667
1909.71	0.001477
1919.36	0.001297
1929	0.001307
1938.65	0.001397
1948.29	0.001427
1957.94	0.001417
1967.58	0.001327
1977.23	0.001327
1986.87	0.001237
1996.52	0.0011818
2006.16	0.001337
2015.81	0.001627
2025.45	0.001327
2035.1	0.001357
2044.74	0.001467
2054.38	0.001377
2064.03	0.001227
2073.67	0.0011713
2083.32	0.0010863
2092.96	0.0010672
2102.61	0.0009444
2112.25	0.0008705
2121.9	0.0006972
2131.54	0.0007067
2141.19	0.0006683
2150.83	0.0006413
2160.48	0.0005819
2170.12	0.0005326
2179.77	0.0004597
2189.41	0.0005125
2199.06	0.0004598
2208.7	0.0005959
2218.35	0.0005132
2227.99	0.0005686
2237.64	0.0004968
2247.28	0.0005621
2256.92	0.0005889
2266.57	0.00062
2276.21	0.0007175
2285.86	0.0007587
2295.5	0.0007295
2305.15	0.0007368
2314.79	0.0007867
2324.44	0.000757
2334.08	0.0007869
2343.73	0.0007362
2353.37	0.00076
2363.02	0.0008809
2372.66	0.0010273
2382.31	0.0011093
2391.95	0.0011913
2401.6	0.0012044
2411.24	0.0011641
2420.89	0.0011261
2430.53	0.0010619
2440.18	0.0010921
2449.82	0.001257
2459.47	0.001327
2469.11	0.001397
2478.75	0.001367
2488.4	0.001427
2498.04	0.001447
2507.69	0.001477
2517.33	0.001467
2526.98	0.001527
2536.62	0.001637
2546.27	0.001767
2555.91	0.001427
2565.56	0.001517
2575.2	0.001297
2584.85	0.001277
2594.49	0.001277
2604.14	0.0010175
2613.78	0.0009813
2623.43	0.0009997
2633.07	0.0008875
2642.72	0.0008288
2652.36	0.000763
2662.01	0.0008708
2671.65	0.0009283
2681.29	0.0010222
2690.94	0.0010436
2700.58	0.001177
2710.23	0.0011488
2719.87	0.001527
2729.52	0.001697
2739.16	0.001697
2748.81	0.001637
2758.45	0.001567
2768.1	0.001447
2777.74	0.001477
2787.39	0.001537
2797.03	0.001467
2806.68	0.001487
2816.32	0.001677
2825.97	0.001837
2835.61	0.001967
2845.26	0.002377
2854.9	0.002867
2864.55	0.003927
2874.19	0.005717
2883.84	0.008037
2893.48	0.008857
2903.12	0.009337
2912.77	0.009557
2922.41	0.009417
2932.06	0.009907
2941.7	0.013197
2951.35	0.010497
2960.99	0.008287
2970.64	0.009987
2980.28	0.015247
2989.93	0.018507
2999.57	0.011627
3009.22	0.006027
3018.86	0.003987
3028.51	0.003167
3038.15	0.003447
3047.8	0.003997
3057.44	0.003417
3067.09	0.003767
3076.73	0.004807
3086.38	0.005807
3096.02	0.004147
3105.67	0.002677
3115.31	0.001767
3124.95	0.001427
3134.6	0.001277
3144.24	0.001005
3153.89	0.0008111
3163.53	0.0008161
3173.18	0.0006942
3182.82	0.0005809
3192.47	0.000771
3202.11	0.0006951
3211.76	0.0006751
3221.4	0.0004494
3231.05	0.0004561
3240.69	0.0003436
3250.34	0.0003758
3259.98	0.0003471
3269.63	0.000346
3279.27	0.0004124
3288.92	0.00026732
3298.56	0.00022601
3308.21	0.0003591
3317.85	0.0001282
3327.49	0.0003423
3337.14	0.0003862
3346.78	0.00021798
3356.43	0.0003497
3366.07	0.0004048
3375.72	0.0001592
3385.36	0.00020269
3395.01	0.00026109
3404.65	0.0003664
3414.3	0.00021863
3423.94	0.0001769
3433.59	0.00023633
3443.23	0.00027738
3452.88	0.0003725
3462.52	0.0003347
3472.17	0.0002565
3481.81	0.00022553
3491.46	0.00026308
3501.1	4e-05
3510.75	0.0003782
3520.39	0.0001735
3530.04	0.00022909
3539.68	0.00030042
3549.32	0.00030518
3558.97	0.00026074
3568.61	0.00020419
3578.26	0.00029733
3587.9	0.0003139
3597.55	0.0003831
3607.19	0.0003092
3616.84	0.0003748
3626.48	0.0003459
3636.13	0.0001954
3645.77	0.0001845
3655.42	0.0003299
3665.06	0.0003075
3674.71	0.00022069
3684.35	0.0003223
3694	0.0003683
3703.64	0.0001906
3713.29	0.0003079
3722.93	0.0001348
3732.58	0.000209497
3742.22	0.00027491
3751.86	0.0003436
3761.51	0.0001749
3771.15	0.00025369
3780.8	0.0004837
3790.44	0.00020394
3800.09	0.0003204
3809.73	0.0004387
3819.38	0.000285
3829.02	0.0001625
3838.67	0.0003739
3848.31	0.0002046
3857.96	0.0003121
3867.6	0.0001457
3877.25	0.000319
3886.89	0.0004886
3896.54	0.00028569
3906.18	0.00026496
3915.83	0.0001351
3925.47	0.0003414
3935.12	0.0004126
3944.76	0.0001501
3954.41	0.0003747
3964.05	0.00024633
3973.69	0.0003262
3983.34	0.0003136
3992.98	0.0004848
