Infrared Spectrum: Furfurylamine, tetrahydro-N-methyl-, hydrochloride
Formula: C6 H14 Cl N O
CAS: 4795-30-6
State: LIQUID (NEAT)
Class: COBLENTZ III
Instrument: Not specified, most likely a prism, grating, or hybrid spectrometer.
Sampling: TRANSMISSION
Path length: CAPILLARY
Resolution: 2
Origin: BRITISH PETROLEUM CO. LTD., ENGLAND
1/CM	TRANSMITTANCE
668	0.3692
677	0.3911
686	0.3903
695	0.3685
704	0.3816
713	0.4188
722	0.4473
731	0.5068
740	0.5305
749	0.5156
758	0.5002
767	0.4712
776	0.4426
785	0.3946
794	0.3161
803	0.2328
812	0.1597
821	0.1308
830	0.1771
839	0.227
848	0.222
857	0.1916
866	0.1574
875	0.1353
884	0.1143
893	0.0737
902	0.0654
911	0.0528
920	0.0427
929	0.0808
938	0.1659
947	0.1787
956	0.1869
965	0.2103
974	0.1746
983	0.1081
992	0.1162
1001	0.1277
1010	0.1289
1019	0.131
1028	0.1037
1037	0.0415
1046	0.0488
1055	0.0484
1064	0.0389
1073	0.0437
1082	0.0723
1091	0.0768
1100	0.0692
1109	0.0776
1118	0.1621
1127	0.2094
1136	0.2044
1145	0.133
1154	0.0862
1163	0.0975
1172	0.128
1181	0.1657
1190	0.1843
1199	0.2193
1208	0.2485
1217	0.2966
1226	0.3279
1235	0.3275
1244	0.3268
1253	0.3283
1262	0.3104
1271	0.2597
1280	0.2014
1289	0.1873
1298	0.1936
1307	0.199
1316	0.2
1325	0.1929
1334	0.1755
1343	0.1585
1352	0.1207
1361	0.1
1370	0.1066
1379	0.0696
1388	0.0594
1397	0.0618
1406	0.0662
1415	0.0676
1424	0.0592
1433	0.0517
1442	0.0462
1451	0.0405
1460	0.0369
1469	0.0357
1478	0.0488
1487	0.1008
1496	0.1876
1505	0.2334
1514	0.2616
1523	0.2651
1532	0.2635
1541	0.2489
1550	0.2292
1559	0.1971
1568	0.162
1577	0.12
1586	0.0838
1595	0.0686
1604	0.0748
1613	0.1267
1622	0.2049
1631	0.2538
1640	0.2743
1649	0.3203
1658	0.3455
1667	0.3687
1676	0.4022
1685	0.4118
1694	0.4117
1703	0.4083
1712	0.4027
1721	0.4052
1730	0.4346
1739	0.4614
1748	0.4763
1757	0.4957
1766	0.5116
1775	0.5215
1784	0.5295
1793	0.5366
1802	0.5486
1811	0.551
1820	0.5524
1829	0.5416
1838	0.5312
1847	0.5111
1856	0.4794
1865	0.454
1874	0.4498
1883	0.4689
1892	0.5169
1901	0.5644
1910	0.6044
1919	0.6195
1928	0.6316
1937	0.6401
1946	0.6433
1955	0.6472
1964	0.6506
1973	0.6504
1982	0.6478
1991	0.6464
2000	0.6455
2009	0.6447
2018	0.6415
2027	0.6339
2036	0.6241
2045	0.6086
2054	0.6056
2063	0.6036
2072	0.6022
2081	0.6004
2090	0.5977
2099	0.5941
2108	0.5894
2117	0.5843
2126	0.5787
2135	0.5695
2144	0.5567
2153	0.551
2162	0.5368
2171	0.5237
2180	0.5075
2189	0.4866
2198	0.4797
2207	0.4768
2216	0.4757
2225	0.4752
2234	0.4738
2243	0.4698
2252	0.4592
2261	0.4322
2270	0.4147
2279	0.3775
2288	0.3523
2297	0.3244
2306	0.29
2315	0.255
2324	0.2345
2333	0.2178
2342	0.1924
2351	0.1532
2360	0.1068
2369	0.0782
2378	0.0671
2387	0.0574
2396	0.0496
2405	0.0414
2414	0.037
2423	0.0355
2432	0.0346
2441	0.0343
2450	0.034
2459	0.0339
2468	0.0339
2477	0.0348
2486	0.0361
2495	0.0372
2504	0.038
2513	0.0383
2522	0.0381
2531	0.0377
2540	0.0373
2549	0.0367
2558	0.0362
2567	0.0357
2576	0.0339
2585	0.0287
2594	0.0258
2603	0.0251
2612	0.0249
2621	0.025
2630	0.025
2639	0.0251
2648	0.0252
2657	0.0254
2666	0.025
2675	0.0255
2684	0.0255
2693	0.0256
2702	0.0257
2711	0.0259
2720	0.0276
2729	0.0296
2738	0.0303
2747	0.0306
2756	0.0309
2765	0.0312
2774	0.0313
2783	0.0314
2792	0.0315
2801	0.0318
2810	0.0321
2819	0.0324
2828	0.0325
2837	0.0328
2846	0.0332
2855	0.0335
2864	0.0339
2873	0.0341
2882	0.0342
2891	0.0342
2900	0.0342
2909	0.0343
2918	0.0343
2927	0.0344
2936	0.0344
2945	0.0343
2954	0.0343
2963	0.0342
2972	0.0342
2981	0.0341
2990	0.0341
2999	0.034
3008	0.0341
3017	0.0343
3026	0.0345
3035	0.0361
3044	0.0398
3053	0.0442
3062	0.0498
3071	0.0562
3080	0.064
3089	0.0728
3098	0.0808
3107	0.0881
3116	0.0941
3125	0.1
3134	0.1056
3143	0.111
3152	0.116
3161	0.1207
3170	0.1258
3179	0.1313
3188	0.1483
3197	0.166
3206	0.1713
3215	0.1741
3224	0.1753
3233	0.1758
3242	0.1761
3251	0.1766
3260	0.1769
3269	0.1771
3278	0.1773
3287	0.1775
3296	0.1779
3305	0.1782
3314	0.1786
3323	0.1792
3332	0.1804
3341	0.183
3350	0.1869
3359	0.191
3368	0.1951
3377	0.1993
3386	0.2046
3395	0.2192
3404	0.2311
3413	0.2405
3422	0.248
3431	0.2549
3440	0.262
3449	0.2694
3458	0.2803
3467	0.3015
3476	0.3439
3485	0.3664
3494	0.3838
3503	0.4069
3512	0.4354
3521	0.4529
3530	0.4698
3539	0.487
3548	0.5133
3557	0.5449
3566	0.5766
3575	0.608
3584	0.6392
3593	0.6705
3602	0.7014
3611	0.7338
3620	0.7573
3629	0.7736
3638	0.7855
3647	0.7966
3656	0.8115
3665	0.8233
3674	0.8263
3683	0.827
3692	0.8271
3701	0.8264
3710	0.8213
3719	0.8107
3728	0.8015
3737	0.7956
3746	0.7911
3755	0.7909
3764	0.795
3773	0.7977
3782	0.7992
3791	0.7993
3800	0.7991
3809	0.7973
3818	0.7937
3827	0.7895
3836	0.7849
3845	0.7799
3854	0.7751
3863	0.7711
3872	0.7671
3881	0.7632
3890	0.7591
3899	0.7553
3908	0.7535
3917	0.7523
3926	0.7517
3935	0.7511
3944	0.7505
3953	0.7497
3962	0.7488
3971	0.7481
3980	0.7473
3989	0.7465
3998	0.7459
