Infrared Spectrum: 7-Norbornadienyl benzoate
Formula: C 14 H 12 O 2
CAS: 4796-68-3
State: gas
Origin: EPA-IR VAPOR PHASE LIBRARY
1/CM	ABSORBANCE
549.8	0.0007995
559.445	0.0002842
569.09	0.0005854
578.734	0.0007981
588.379	0.003808
598.024	0.018418
607.669	0.008918
617.313	0.003308
626.958	0.002698
636.603	0.005528
646.248	0.016998
655.893	0.023598
665.537	0.013708
675.182	0.017608
684.827	0.040048
694.472	0.037288
704.116	0.061618
713.761	0.061288
723.406	0.058948
733.051	0.104518
742.695	0.022818
752.34	0.007258
761.985	0.004858
771.63	0.004068
781.275	0.004898
790.919	0.008958
800.564	0.007348
810.209	0.007908
819.854	0.009618
829.498	0.007908
839.143	0.009248
848.788	0.009488
858.433	0.006988
868.078	0.005748
877.722	0.004858
887.367	0.004188
897.012	0.004088
906.657	0.004198
916.301	0.005148
925.946	0.006148
935.591	0.004738
945.236	0.004138
954.88	0.004648
964.525	0.005088
974.17	0.006778
983.815	0.011668
993.46	0.022908
1003.1	0.039828
1012.75	0.060108
1022.39	0.084218
1032.04	0.069428
1041.68	0.017188
1051.33	0.018738
1060.97	0.045238
1070.62	0.051458
1080.26	0.046448
1089.91	0.108938
1099.55	0.177078
1109.2	0.180158
1118.84	0.136768
1128.49	0.038258
1138.13	0.020838
1147.78	0.017368
1157.42	0.014628
1167.07	0.016748
1176.71	0.051258
1186.36	0.033858
1196	0.035768
1205.64	0.025868
1215.29	0.024568
1224.93	0.059958
1234.58	0.126258
1244.22	0.112438
1253.87	0.149708
1263.51	0.310508
1273.16	0.312648
1282.8	0.104948
1292.45	0.042858
1302.09	0.035728
1311.74	0.050248
1321.38	0.040378
1331.03	0.022348
1340.67	0.018738
1350.32	0.017378
1359.96	0.018518
1369.61	0.012908
1379.25	0.007558
1388.9	0.005758
1398.54	0.004638
1408.18	0.004128
1417.83	0.003758
1427.47	0.003748
1437.12	0.005238
1446.76	0.013428
1456.41	0.013298
1466.05	0.004158
1475.7	0.003868
1485.34	0.005118
1494.99	0.005728
1504.63	0.005178
1514.28	0.005698
1523.92	0.006118
1533.57	0.007478
1543.21	0.012898
1552.86	0.011538
1562.5	0.006428
1572.15	0.006308
1581.79	0.007898
1591.44	0.008238
1601.08	0.010768
1610.73	0.007388
1620.37	0.004148
1630.01	0.003448
1639.66	0.004648
1649.3	0.004918
1658.95	0.004318
1668.59	0.004268
1678.24	0.005208
1687.88	0.007068
1697.53	0.009438
1707.17	0.011968
1716.82	0.024918
1726.46	0.083178
1736.11	0.185618
1745.75	0.132188
1755.4	0.034838
1765.04	0.013358
1774.69	0.009768
1784.33	0.008608
1793.98	0.007328
1803.62	0.006968
1813.27	0.006228
1822.91	0.003758
1832.55	0.002508
1842.2	0.002058
1851.84	0.001788
1861.49	0.001728
1871.13	0.001668
1880.78	0.001718
1890.42	0.001988
1900.07	0.002688
1909.71	0.003218
1919.36	0.003158
1929	0.002308
1938.65	0.001928
1948.29	0.002428
1957.94	0.003108
1967.58	0.002898
1977.23	0.001948
1986.87	0.001528
1996.52	0.001398
2006.16	0.001418
2015.81	0.001418
2025.45	0.001518
2035.1	0.001398
2044.74	0.001408
2054.38	0.001458
2064.03	0.001458
2073.67	0.001498
2083.32	0.001448
2092.96	0.001568
2102.61	0.001788
2112.25	0.002108
2121.9	0.002118
2131.54	0.001898
2141.19	0.001548
2150.83	0.001688
2160.48	0.001658
2170.12	0.001578
2179.77	0.001288
2189.41	0.001228
2199.06	0.0010166
2208.7	0.0010596
2218.35	0.001148
2227.99	0.001268
2237.64	0.0009226
2247.28	0.0008639
2256.92	0.0008247
2266.57	0.0008381
2276.21	0.0008305
2285.86	0.0009558
2295.5	0.0008434
2305.15	0.0006518
2314.79	0.0009268
2324.44	0.001208
2334.08	0.001198
2343.73	0.001348
2353.37	0.001438
2363.02	0.001608
2372.66	0.001428
2382.31	0.0010232
2391.95	0.0007941
2401.6	0.0006085
2411.24	0.000525
2420.89	0.0006177
2430.53	0.0005795
2440.18	0.0005746
2449.82	0.0005391
2459.47	0.0005084
2469.11	0.0004846
2478.75	0.0005497
2488.4	0.0003853
2498.04	0.0003863
2507.69	0.0004517
2517.33	0.0004467
2526.98	0.0004579
2536.62	0.000482
2546.27	0.0004875
2555.91	0.0003725
2565.56	0.0003729
2575.2	0.0004413
2584.85	0.0005676
2594.49	0.0005475
2604.14	0.0006378
2613.78	0.0005975
2623.43	0.0005454
2633.07	0.0004287
2642.72	0.0004118
2652.36	0.0002491
2662.01	0.00021231
2671.65	0.00021976
2681.29	0.0001522
2690.94	0.0003225
2700.58	0.0002381
2710.23	0.0002664
2719.87	0.00021915
2729.52	0.0002717
2739.16	0.0003269
2748.81	0.0003909
2758.45	0.0004137
2768.1	0.0005405
2777.74	0.0002283
2787.39	0.0003661
2797.03	0.0003359
2806.68	0.00017333
2816.32	0.0003173
2825.97	0.0005022
2835.61	0.0006377
2845.26	0.0006221
2854.9	0.000968
2864.55	0.0010622
2874.19	0.0009815
2883.84	0.0007846
2893.48	0.0007936
2903.12	0.0008111
2912.77	0.0009591
2922.41	0.001158
2932.06	0.001438
2941.7	0.001628
2951.35	0.002218
2960.99	0.003198
2970.64	0.004458
2980.28	0.007888
2989.93	0.018018
2999.57	0.029028
3009.22	0.025868
3018.86	0.016578
3028.51	0.010628
3038.15	0.010078
3047.8	0.011078
3057.44	0.012988
3067.09	0.025308
3076.73	0.036458
3086.38	0.024868
3096.02	0.016028
3105.67	0.013148
3115.31	0.010498
3124.95	0.006008
3134.6	0.005218
3144.24	0.003018
3153.89	0.001748
3163.53	0.001748
3173.18	0.0010931
3182.82	0.000569
3192.47	0.0003648
3202.11	0.0006121
3211.76	0.0003705
3221.4	0.0003536
3231.05	0.00031
3240.69	0.0002976
3250.34	0.00021209
3259.98	0.00022326
3269.63	0.00019089
3279.27	0.00018157
3288.92	0.0002292
3298.56	0.0003255
3308.21	0.00011958
3317.85	0.0002797
3327.49	0.0003909
3337.14	0.0003868
3346.78	0.0002545
3356.43	0.0003184
3366.07	6.25e-05
3375.72	0.0003253
3385.36	0.0001912
3395.01	0.000321
3404.65	0.0002813
3414.3	0.0002368
3423.94	0.0005946
3433.59	0.0005387
3443.23	0.0011224
3452.88	0.001858
3462.52	0.001708
3472.17	0.0010014
3481.81	0.0005442
3491.46	0.0005584
3501.1	0.0003775
3510.75	0.0004239
3520.39	0.0004874
3530.04	0.00012171
3539.68	0.0003631
3549.32	0.00015753
3558.97	0.00020334
3568.61	0.00022025
3578.26	0.0002456
3587.9	0.00016025
3597.55	0.0003221
3607.19	0.000339
3616.84	0.00020491
3626.48	0.00022768
3636.13	0.0001684
3645.77	0.0002415
3655.42	0.0003842
3665.06	0.0002459
3674.71	0.0002954
3684.35	0.0003107
3694	0.0004331
3703.64	0.0003339
3713.29	0.0004931
3722.93	0.0003663
3732.58	0.000351
3742.22	0.0002938
3751.86	0.0005251
3761.51	0.0004016
3771.15	0.0003274
3780.8	0.0005738
3790.44	0.0008977
3800.09	0.0008046
3809.73	0.0010938
3819.38	0.0004119
3829.02	0.0003404
3838.67	0.0003528
3848.31	0.0005324
3857.96	0.0004918
3867.6	0.000472
3877.25	0.0005282
3886.89	0.0008033
3896.54	0.0008836
3906.18	0.0008392
3915.83	0.0006285
3925.47	0.0008887
3935.12	0.0006217
3944.76	0.0007102
3954.41	0.0003551
3964.05	0.0004728
3973.69	0.0003833
3983.34	0.0004683
3992.98	0.0009594
