Infrared Spectrum: 2-Hepten-4-ol
Formula: C 7 H 14 O
CAS: 4798-59-8
State: gas
Instrument: HP-GC/MS/IRD
Origin: NIST Mass Spectrometry Data Center
1/CM	ABSORBANCE
550	0.0004953
562	0.0001885
574	0.0001976
586	6.24e-05
598	0.0001131
610	3.64e-05
622	0.0001261
634	4.03e-05
646	3.77e-05
658	7.67e-05
670	0.0001326
682	8.32e-05
694	0.0001391
706	0.0001365
718	0.0001274
730	0.0002574
742	0.0003016
754	0.0003198
766	0.0002444
778	0.0002054
790	0.0002327
802	0.0002886
814	0.0002769
826	0.0004602
838	0.0006097
850	0.0007202
862	0.0007553
874	0.0007449
886	0.0008775
898	0.001079
910	0.0012324
922	0.0016133
934	0.0022971
946	0.0033592
958	0.0048828
970	0.0048308
982	0.0036881
994	0.0039312
1006	0.004901
1018	0.0048152
1030	0.0036218
1042	0.0026936
1054	0.0024154
1066	0.002418
1078	0.0021723
1090	0.0018915
1102	0.0018395
1114	0.0019838
1126	0.0020332
1138	0.0017511
1150	0.0013832
1162	0.0010582
1174	0.0009386
1186	0.0010491
1198	0.0013793
1210	0.0017264
1222	0.001794
1234	0.0018005
1246	0.0017615
1258	0.0018213
1270	0.0018603
1282	0.0016731
1294	0.0015223
1306	0.0015223
1318	0.0014794
1330	0.0015301
1342	0.0017732
1354	0.0020202
1366	0.0023283
1378	0.0025337
1390	0.0023257
1402	0.0016406
1414	0.0012623
1426	0.0012675
1438	0.0016666
1450	0.0021073
1462	0.0022347
1474	0.0016965
1486	0.0009529
1498	0.000624
1510	0.0005369
1522	0.0004264
1534	0.0003263
1546	0.0003042
1558	0.0003146
1570	0.0002223
1582	0.0001677
1594	0.0001612
1606	0.0001716
1618	0.0002171
1630	0.0002275
1642	0.0003003
1654	0.0005447
1666	0.0006721
1678	0.0005772
1690	0.0002782
1702	0.0002275
1714	0.000195
1726	0.0001885
1738	0.0002288
1750	0.0002574
1762	0.0001729
1774	0.0001352
1786	0.0001027
1798	0.0001092
1810	8.84e-05
1822	0.0001014
1834	0.0001014
1846	8.58e-05
1858	4.94e-05
1870	5.98e-05
1882	4.42e-05
1894	2.34e-05
1906	1.3e-06
1918	1.56e-05
1930	1.43e-05
1942	3.25e-05
1954	1.3e-05
1966	2.08e-05
1978	3.51e-05
1990	5.07e-05
2002	6.89e-05
2014	5.85e-05
2026	3.51e-05
2038	2.34e-05
2050	2.34e-05
2062	1.04e-05
2074	1.82e-05
2086	7.8e-06
2098	2.34e-05
2110	1.3e-06
2122	1.04e-05
2134	1.95e-05
2146	2.08e-05
2158	2.99e-05
2170	3.51e-05
2182	7.8e-06
2194	4.68e-05
2206	2.86e-05
2218	2.21e-05
2230	1.04e-05
2242	1.43e-05
2254	2.08e-05
2266	2.21e-05
2278	2.73e-05
2290	4.03e-05
2302	2.34e-05
2314	1.95e-05
2326	5.98e-05
2338	3.12e-05
2350	6.24e-05
2362	7.67e-05
2374	6.63e-05
2386	4.81e-05
2398	9.1e-05
2410	7.54e-05
2422	7.54e-05
2434	6.89e-05
2446	6.11e-05
2458	7.02e-05
2470	5.2e-05
2482	4.68e-05
2494	5.98e-05
2506	3.77e-05
2518	7.8e-05
2530	7.93e-05
2542	8.45e-05
2554	8.71e-05
2566	0.0001105
2578	8.84e-05
2590	0.0001118
2602	0.0001274
2614	0.0001027
2626	0.0001157
2638	0.0001079
2650	0.0001495
2662	0.0001443
2674	0.0001625
2686	0.0002171
2698	0.0001898
2710	0.000221
2722	0.0002626
2734	0.0003822
2746	0.0005044
2758	0.0004524
2770	0.0004212
2782	0.0004797
2794	0.0005447
2806	0.0006903
2818	0.0009243
2830	0.0013897
2842	0.0022425
2854	0.0038454
2866	0.0060619
2878	0.0077701
2890	0.0074542
2902	0.0068276
2914	0.0084513
2926	0.0117507
2938	0.013
2950	0.0114114
2962	0.0120601
2974	0.0113256
2986	0.006552
2998	0.0042159
3010	0.0035412
3022	0.0031499
3034	0.0026052
3046	0.0018707
3058	0.0012792
3070	0.0009503
3082	0.000741
3094	0.000637
3106	0.0005161
3118	0.0004368
3130	0.0003978
3142	0.0002899
3154	0.0002951
3166	0.0001716
3178	0.0002184
3190	0.0001417
3202	9.49e-05
3214	0.0001118
3226	6.76e-05
3238	6.63e-05
3250	4.03e-05
3262	3.25e-05
3274	5.2e-05
3286	6.5e-06
3298	3.25e-05
3310	3.77e-05
3322	3.38e-05
3334	5.72e-05
3346	5.72e-05
3358	5.2e-05
3370	8.19e-05
3382	6.63e-05
3394	9.75e-05
3406	5.98e-05
3418	0.0001118
3430	5.85e-05
3442	8.45e-05
3454	9.88e-05
3466	9.88e-05
3478	9.88e-05
3490	0.0001261
3502	0.0001508
3514	6.63e-05
3526	0.0001287
3538	0.0001287
3550	0.0001053
3562	0.0001456
3574	0.0001118
3586	0.0001248
3598	0.0001651
3610	0.0002873
3622	0.0004719
3634	0.0009828
3646	0.0015366
3658	0.0012272
3670	0.0005928
3682	0.0002756
3694	0.0001534
3706	0.0002119
3718	0.0001261
3730	0.0001144
3742	0.0002015
3754	0.0001989
3766	0.0001456
3778	9.1e-05
3790	0.0001872
3802	0.0001833
3814	0.0001157
3826	0.0001729
3838	0.0002223
