Infrared Spectrum: 1-Hexen-3-ol
Formula: C 6 H 12 O
CAS: 4798-44-1
State: gas
Instrument: HP-GC/MS/IRD
Origin: NIST Mass Spectrometry Data Center
1/CM	ABSORBANCE
550	0.000605
562	0.0002575
574	0.00011
586	0.0002575
598	0.0003625
610	0.0002975
622	0.000155
634	0.000295
646	0.00047
658	0.000695
670	0.0010075
682	0.00112
694	0.0008825
706	0.000545
718	0.00051
730	0.0005575
742	0.000645
754	0.0005775
766	0.0004325
778	0.000295
790	0.000355
802	0.000355
814	0.0005275
826	0.000985
838	0.001575
850	0.0018825
862	0.0017725
874	0.00185
886	0.0023375
898	0.0037825
910	0.0070375
922	0.010725
934	0.0092425
946	0.00508
958	0.004685
970	0.007045
982	0.0111925
994	0.0138
1006	0.0134625
1018	0.0110975
1030	0.0081675
1042	0.006245
1054	0.0058925
1066	0.0058525
1078	0.0056925
1090	0.00545
1102	0.00532
1114	0.00542
1126	0.0054925
1138	0.004935
1150	0.0039825
1162	0.0028775
1174	0.0023325
1186	0.00245
1198	0.0031775
1210	0.0039975
1222	0.004445
1234	0.004375
1246	0.0042
1258	0.0042725
1270	0.00425
1282	0.00402
1294	0.003635
1306	0.0034675
1318	0.0035725
1330	0.0038125
1342	0.004
1354	0.004155
1366	0.0042275
1378	0.0040325
1390	0.00361
1402	0.0035325
1414	0.00446
1426	0.00484
1438	0.0041875
1450	0.00369
1462	0.003555
1474	0.00281
1486	0.001665
1498	0.000895
1510	0.000535
1522	0.0004
1534	0.0003125
1546	0.00027
1558	0.0002325
1570	0.000235
1582	0.00027
1594	0.000305
1606	0.00035
1618	0.0005175
1630	0.0008975
1642	0.0012225
1654	0.0009525
1666	0.0003975
1678	0.0002225
1690	0.0001375
1702	9.25e-05
1714	6.75e-05
1726	2.75e-05
1738	2e-05
1750	1e-05
1762	0
1774	0
1786	2.25e-05
1798	5.25e-05
1810	7.75e-05
1822	0.0002
1834	0.00051
1846	0.0009
1858	0.0008525
1870	0.0004275
1882	0.000195
1894	0.0001375
1906	0.00011
1918	0.0001025
1930	0.000105
1942	9.5e-05
1954	0.00013
1966	0.000175
1978	0.0001975
1990	0.00016
2002	0.000135
2014	0.00013
2026	0.000125
2038	0.000125
2050	0.0001175
2062	0.0001025
2074	0.0001225
2086	0.00011
2098	0.00011
2110	0.000105
2122	0.000115
2134	0.000105
2146	0.0001275
2158	0.000115
2170	0.000115
2182	0.000165
2194	0.0001575
2206	0.0001375
2218	0.000135
2230	0.0001275
2242	0.00013
2254	0.0001325
2266	0.000145
2278	0.0001425
2290	0.0001625
2302	0.000175
2314	0.00016
2326	0.0002
2338	0.0002
2350	0.000205
2362	0.0002025
2374	0.0002025
2386	0.000235
2398	0.000195
2410	0.000245
2422	0.0002175
2434	0.000215
2446	0.0002025
2458	0.0001875
2470	0.0001575
2482	0.000145
2494	0.0001725
2506	0.000175
2518	0.000195
2530	0.000215
2542	0.00026
2554	0.0002625
2566	0.00028
2578	0.0003075
2590	0.0003325
2602	0.0003325
2614	0.0003675
2626	0.0003425
2638	0.00039
2650	0.0004025
2662	0.000415
2674	0.000465
2686	0.000515
2698	0.000515
2710	0.000545
2722	0.000565
2734	0.0007125
2746	0.00077
2758	0.000815
2770	0.000855
2782	0.0009625
2794	0.00114
2806	0.00137
2818	0.00188
2830	0.0028825
2842	0.004775
2854	0.0075925
2866	0.01082
2878	0.0143075
2890	0.0143375
2902	0.013145
2914	0.015525
2926	0.020115
2938	0.0234725
2950	0.023065
2962	0.02452
2974	0.0229325
2986	0.01434
2998	0.007745
3010	0.0055075
3022	0.0041925
3034	0.0031175
3046	0.0024175
3058	0.00239
3070	0.0030975
3082	0.0045975
3094	0.0045125
3106	0.002675
3118	0.0011525
3130	0.0007325
3142	0.0006
3154	0.0005225
3166	0.00047
3178	0.0003675
3190	0.0003525
3202	0.0002575
3214	0.00024
3226	0.000185
3238	0.000155
3250	0.00015
3262	0.000165
3274	0.0002275
3286	0.0001675
3298	0.0001675
3310	0.00014
3322	0.00011
3334	0.0001575
3346	0.0001625
3358	0.000215
3370	0.000155
3382	0.00023
3394	0.00024
3406	0.0001975
3418	0.0002075
3430	0.0002375
3442	0.000235
3454	0.00024
3466	0.000245
3478	0.00023
3490	0.0002275
3502	0.000205
3514	0.000205
3526	0.0001825
3538	0.000165
3550	0.000215
3562	0.0002825
3574	0.0002325
3586	0.00028
3598	0.0003575
3610	0.000635
3622	0.0010975
3634	0.0026575
3646	0.00402
3658	0.0035975
3670	0.0017025
3682	0.00077
3694	0.00043
3706	0.0003225
3718	0.0002925
3730	0.000225
3742	0.0002225
3754	0.0002
3766	0.00025
3778	0.00022
3790	0.000255
3802	0.00028
3814	0.000225
3826	0.0002625
3838	0.0003025
