Infrared Spectrum: Benzofuroxan
Formula: C 6 H 4 N 2 O 2
CAS: 480-96-6
State: gas
Instrument: HP-GC/MS/IRD
Origin: NIST Mass Spectrometry Data Center
1/CM	ABSORBANCE
550	0.0011115
562	0.002093
574	0.0019175
586	0.0007865
598	0.0002405
610	0.000143
622	0.0002145
634	0.000247
646	0.0005785
658	0.000923
670	0.0006955
682	0.000312
694	0.0002535
706	0.001131
718	0.0045955
730	0.0109265
742	0.013273
754	0.006201
766	0.001612
778	0.0005655
790	0.0003185
802	0.000429
814	0.000767
826	0.0013845
838	0.0010595
850	0.000455
862	0.0005265
874	0.000832
886	0.001443
898	0.001612
910	0.0006695
922	0.000338
934	0.000312
946	0.0003575
958	0.000572
970	0.000728
982	0.0009555
994	0.001716
1006	0.003965
1018	0.0054015
1030	0.0048685
1042	0.003198
1054	0.001547
1066	0.0007995
1078	0.0004615
1090	0.0005525
1102	0.000819
1114	0.001391
1126	0.0012545
1138	0.000598
1150	0.000455
1162	0.0002665
1174	0.0001755
1186	0.0005005
1198	0.0018005
1210	0.0016835
1222	0.000195
1234	5.2e-05
1246	5.2e-05
1258	0.000221
1270	0.000221
1282	0.000325
1294	0.000273
1306	0.0002535
1318	0.000325
1330	0.000507
1342	0.001027
1354	0.001235
1366	0.000702
1378	0.0003705
1390	0.0004615
1402	0.000754
1414	0.001547
1426	0.0017095
1438	0.0013975
1450	0.001209
1462	0.0010725
1474	0.003289
1486	0.0067535
1498	0.006201
1510	0.0027365
1522	0.003835
1534	0.0103415
1546	0.013546
1558	0.0086125
1570	0.006266
1582	0.013611
1594	0.0303485
1606	0.0536315
1618	0.065
1630	0.0437515
1642	0.0128115
1654	0.0062855
1666	0.00247
1678	0.0015535
1690	0.001196
1702	0.0008905
1714	0.0007865
1726	0.0006045
1738	0.000364
1750	0.000468
1762	0.0008125
1774	0.000988
1786	0.00091
1798	0.0007215
1810	0.0004615
1822	0.000325
1834	0.0003445
1846	0.0003185
1858	0.000299
1870	0.0002795
1882	0.0003055
1894	0.000377
1906	0.0003835
1918	0.0003055
1930	0.000403
1942	0.0004355
1954	0.00026
1966	0.00013
1978	7.15e-05
1990	7.8e-05
2002	9.75e-05
2014	0.0001235
2026	0.000104
2038	0.0001105
2050	9.75e-05
2062	7.15e-05
2074	3.9e-05
2086	4.55e-05
2098	5.85e-05
2110	7.8e-05
2122	0.0001105
2134	0.0001495
2146	9.75e-05
2158	9.75e-05
2170	0.000182
2182	0.000169
2194	0.0001235
2206	5.85e-05
2218	1.3e-05
2230	3.9e-05
2242	2.6e-05
2254	3.25e-05
2266	4.55e-05
2278	9.1e-05
2290	0.0001105
2302	0.000156
2314	0.000195
2326	0.0001885
2338	9.1e-05
2350	0.0001365
2362	0.000156
2374	0.000182
2386	0.000156
2398	0.000143
2410	0.000182
2422	0.000273
2434	0.0003315
2446	0.0002665
2458	0.0002015
2470	0.0001365
2482	0.000117
2494	0.0001885
2506	0.0001105
2518	9.75e-05
2530	0.0001105
2542	8.45e-05
2554	7.15e-05
2566	0.0001105
2578	7.15e-05
2590	5.2e-05
2602	0.0001365
2614	0.0001365
2626	0.000143
2638	0.0002145
2650	0.000169
2662	0.000169
2674	0.000182
2686	0.0001625
2698	0.0002405
2710	0.000286
2722	0.000364
2734	0.000455
2746	0.000351
2758	0.0002795
2770	0.000273
2782	0.0003185
2794	0.000455
2806	0.0005265
2818	0.0005395
2830	0.000403
2842	0.000273
2854	0.000247
2866	0.0002665
2878	0.0002665
2890	0.000325
2902	0.000312
2914	0.0002795
2926	0.000182
2938	0.0001625
2950	0.000156
2962	0.0001755
2974	0.000156
2986	0.000169
2998	0.0002405
3010	0.000312
3022	0.0005135
3034	0.0005525
3046	0.000572
3058	0.0009945
3070	0.0012805
3082	0.0015275
3094	0.001521
3106	0.000884
3118	0.000455
3130	0.000221
3142	0.0002535
3154	0.000299
3166	0.0002015
3178	0.0002925
3190	0.00039
3202	0.0003705
3214	0.000286
3226	0.000221
3238	0.0002275
3250	0.000182
3262	0.00013
3274	0.00013
3286	0.000117
3298	0.000104
3310	2.6e-05
3322	0.0001625
3334	4.55e-05
3346	0.00013
3358	6.5e-06
3370	0.0001885
3382	6.5e-05
3394	0.000117
3406	2.6e-05
3418	0.000156
3430	7.15e-05
3442	3.9e-05
3454	5.2e-05
3466	5.85e-05
3478	9.75e-05
3490	3.9e-05
3502	0.00013
3514	0.000143
3526	9.1e-05
3538	6.5e-05
3550	2.6e-05
3562	9.75e-05
3574	5.85e-05
3586	9.75e-05
3598	3.25e-05
3610	0.0001365
3622	0.000143
3634	3.25e-05
3646	0.000104
3658	0.000104
3670	0.0001365
3682	9.1e-05
3694	0.000117
3706	0.0001235
3718	5.2e-05
3730	6.5e-05
3742	0.0001105
3754	0.000104
3766	0.0001625
3778	0.000156
3790	9.75e-05
3802	0.000104
3814	5.2e-05
3826	0.000143
3838	8.45e-05
