Infrared Spectrum: 1,8-DIHYDROXYANTHRANOL
Formula: C14 H10 O3
CAS: 480-22-8
State: SOLUTION (7% CHCl3)
Class: COBLENTZ
Instrument: Not specified, most likely a prism, grating, or hybrid spectrometer.
Sampling: TRANSMISSION
Path length: 0.009 CM
Resolution: 4
MICROMETERS	TRANSMITTANCE
2.029	0.963
2.06477	0.961
2.10054	0.961
2.13631	0.957
2.17209	0.957
2.20786	0.952
2.24363	0.947
2.2794	0.947
2.31517	0.947
2.35094	0.947
2.38671	0.947
2.42248	0.943
2.45826	0.945
2.49403	0.94
2.5298	0.95
2.56557	0.95
2.60134	0.942
2.63711	0.938
2.67288	0.94
2.70865	0.933
2.74443	0.938
2.7802	0.922
2.81597	0.905
2.85174	0.905
2.88751	0.901
2.92328	0.889
2.95905	0.868
2.99482	0.85
3.0306	0.836
3.06637	0.812
3.10214	0.798
3.13791	0.775
3.17368	0.705
3.20945	0.65
3.24522	0.598
3.28099	0.564
3.31677	0.571
3.35254	0.664
3.38831	0.698
3.42408	0.721
3.45985	0.74
3.49562	0.764
3.53139	0.794
3.56716	0.808
3.60294	0.819
3.63871	0.821
3.67448	0.84
3.71025	0.856
3.74602	0.861
3.78179	0.868
3.81756	0.87
3.85333	0.878
3.88911	0.882
3.92488	0.896
3.96065	0.889
3.99642	0.898
4.03219	0.896
4.06796	0.896
4.10373	0.903
4.1395	0.91
4.17528	0.915
4.21105	0.915
4.24682	0.919
4.28259	0.915
4.31836	0.907
4.35413	0.91
4.3899	0.921
4.42567	0.924
4.46145	0.915
4.49722	0.917
4.53299	0.921
4.56876	0.924
4.60453	0.921
4.6403	0.922
4.67607	0.921
4.71184	0.924
4.74762	0.919
4.78339	0.915
4.81916	0.912
4.85493	0.919
4.8907	0.919
4.92647	0.922
4.96224	0.922
4.99801	0.917
5.03379	0.919
5.06956	0.914
5.10533	0.877
5.1411	0.894
5.17687	0.914
5.21264	0.914
5.24841	0.912
5.28418	0.919
5.31996	0.914
5.35573	0.905
5.3915	0.898
5.42727	0.9
5.46304	0.912
5.49881	0.907
5.53458	0.903
5.57035	0.898
5.60613	0.9
5.6419	0.892
5.67767	0.891
5.71344	0.898
5.74921	0.898
5.78498	0.901
5.82075	0.889
5.85652	0.88
5.8923	0.85
5.92807	0.836
5.96384	0.819
5.99961	0.778
6.03538	0.74
6.07115	0.428
6.10692	0.205
6.14269	0.096
6.17847	0.077
6.21424	0.024
6.25001	0.105
6.28578	0.512
6.32155	0.536
6.35732	0.566
6.39309	0.621
6.42886	0.682
6.46464	0.736
6.50041	0.733
6.53618	0.712
6.57195	0.643
6.60772	0.547
6.64349	0.435
6.67926	0.284
6.71503	0.182
6.75081	0.164
6.78658	0.435
6.82235	0.343
6.85812	0.136
6.89389	0.098
6.92966	0.14
6.96543	0.491
7.0012	0.596
7.03698	0.624
7.07275	0.638
7.10852	0.663
7.14429	0.575
7.18006	0.692
7.21583	0.712
7.2516	0.58
7.28737	0.396
7.32315	0.133
7.35892	0.459
7.39469	0.517
7.43046	0.608
7.46623	0.556
7.502	0.38
7.53777	0.543
7.57354	0.631
7.60932	0.559
7.64509	0.485
7.68086	0.296
7.71663	0.131
7.7524	0.094
7.78817	0.096
7.82394	0.149
7.85971	0.245
7.89549	0.468
7.93126	0.556
7.96703	0.605
8.0028	0.596
8.03857	0.507
8.07434	0.408
8.11011	0.371
8.14588	0.264
8.18166	0.235
8.21743	0.242
8.2532	0.252
8.28897	0.27
8.32474	0.305
8.36051	0.649
8.39628	0.703
8.43205	0.621
8.46783	0.278
8.5036	0.459
8.53937	0.58
8.57514	0.217
8.61091	0.336
8.64668	0.573
8.68245	0.517
8.71822	0.743
8.754	0.815
8.78977	0.847
8.82554	0.859
8.86131	0.863
8.89708	0.866
8.93285	0.863
8.96862	0.868
9.00439	0.871
9.04017	0.88
9.07594	0.887
9.11171	0.885
9.14748	0.882
9.18325	0.875
9.21902	0.854
9.25479	0.784
9.29056	0.67
9.32634	0.401
9.36211	0.675
9.39788	0.831
9.43365	0.857
9.46942	0.877
9.50519	0.88
9.54096	0.88
9.57673	0.887
9.61251	0.887
9.64828	0.873
9.68405	0.877
9.71982	0.836
9.75559	0.645
9.79136	0.673
9.82713	0.828
9.8629	0.873
9.89868	0.88
9.93445	0.891
9.97022	0.892
10.006	0.892
10.0418	0.892
10.0775	0.891
10.1133	0.887
10.1491	0.887
10.1848	0.878
10.2206	0.868
10.2564	0.866
10.2922	0.875
10.3279	0.884
10.3637	0.885
10.3995	0.891
10.4352	0.887
10.471	0.887
10.5068	0.887
10.5426	0.889
10.5783	0.894
10.6141	0.88
10.6499	0.87
10.6856	0.801
10.7214	0.682
10.7572	0.729
10.793	0.763
10.8287	0.694
10.8645	0.366
10.9003	0.338
10.936	0.729
10.9718	0.835
11.0076	0.873
11.0434	0.884
11.0791	0.889
11.1149	0.892
11.1507	0.891
11.1864	0.887
11.2222	0.882
11.258	0.88
11.2938	0.882
11.3295	0.873
11.3653	0.864
11.4011	0.792
11.4368	0.714
11.4726	0.712
11.5084	0.808
11.5442	0.857
11.5799	0.875
11.6157	0.88
11.6515	0.884
11.6872	0.887
11.723	0.887
11.7588	0.868
11.7946	0.852
11.8303	0.856
11.8661	0.859
11.9019	0.847
11.9376	0.817
11.9734	0.81
12.0092	0.838
12.045	0.831
12.0807	0.812
12.1165	0.796
12.1523	0.764
12.188	0.707
12.2238	0.642
12.2596	0.592
12.2953	0.619
12.3311	0.708
12.3669	0.787
12.4027	0.807
12.4384	0.805
12.4742	0.798
12.51	0.805
12.5457	0.807
12.5815	0.8
12.6173	0.807
12.6531	0.796
12.6888	0.794
12.7246	0.805
12.7604	0.805
12.7961	0.803
12.8319	0.803
12.8677	0.808
12.9035	0.814
12.9392	0.817
12.975	0.815
13.0108	0.81
13.0465	0.814
13.0823	0.821
13.1181	0.826
13.1539	0.815
13.1896	0.803
13.2254	0.8
13.2612	0.805
13.2969	0.805
13.3327	0.805
13.3685	0.801
13.4043	0.798
13.44	0.796
13.4758	0.796
13.5116	0.798
13.5473	0.801
13.5831	0.801
13.6189	0.8
13.6547	0.8
13.6904	0.798
13.7262	0.789
13.762	0.782
13.7977	0.77
13.8335	0.743
13.8693	0.724
13.9051	0.703
13.9408	0.692
13.9766	0.687
14.0124	0.684
14.0481	0.685
14.0839	0.698
14.1197	0.717
14.1555	0.729
14.1912	0.736
14.227	0.747
14.2628	0.763
14.2985	0.777
14.3343	0.789
14.3701	0.792
14.4059	0.812
14.4416	0.817
14.4774	0.824
14.5132	0.826
14.5489	0.817
14.5847	0.808
14.6205	0.798
14.6563	0.752
14.692	0.731
14.7278	0.729
14.7636	0.749
14.7993	0.773
14.8351	0.784
14.8709	0.787
14.9067	0.782
14.9424	0.771
14.9782	0.766
15.014	0.768
15.0497	0.778
15.0855	0.824
15.1213	0.856
15.1571	0.871
15.1928	0.877
15.2286	0.882
15.2644	0.88
15.3001	0.877
15.3359	0.871
15.3717	0.863
15.4074	0.852
15.4432	0.831
15.479	0.831
