Infrared Spectrum: 17Alpha-HYDROXYANDROST-4-EN-3-ONE
Formula: C19 H28 O2
CAS: 481-30-1
State: SOLID (KBr DISC)
Class: COBLENTZ III
Instrument: BECKMAN IR-7
Sampling: TRANSMISSION
Resolution: 4
Origin: THE WORCESTER FOUNDATION FOR EXPERIMENTAL BIOLOGY, Neal L. McNiven
1/CM	TRANSMITTANCE
599.271	0.588
608.021	0.539
616.771	0.516
625.521	0.535
634.271	0.597
643.021	0.658
651.771	0.744
660.521	0.77
669.271	0.743
678.021	0.728
686.771	0.807
695.521	0.886
704.271	0.9
713.021	0.916
721.771	0.926
730.521	0.931
739.271	0.914
748.021	0.931
756.771	0.945
765.521	0.95
774.271	0.933
783.021	0.715
791.771	0.889
800.521	0.933
809.271	0.942
818.021	0.952
826.771	0.953
835.521	0.86
844.271	0.95
853.021	0.912
861.771	0.9
870.521	0.5911
879.271	0.784
888.021	0.7159
896.771	0.925
905.521	0.934
914.271	0.881
923.021	0.812
931.771	0.6501
940.521	0.7269
949.271	0.686
958.022	0.818
966.772	0.793
975.522	0.7639
984.272	0.7839
993.022	0.767
1001.77	0.67
1010.52	0.775
1019.27	0.7131
1028.02	0.6801
1036.77	0.638
1045.52	0.819
1054.27	0.659
1063.02	0.71
1071.77	0.7419
1080.52	0.732
1089.27	0.836
1098.02	0.836
1106.77	0.792
1115.52	0.61
1124.27	0.794
1133.02	0.809
1141.77	0.805
1150.52	0.833
1159.27	0.756
1168.02	0.811
1176.77	0.707
1185.52	0.5141
1194.27	0.5439
1203.02	0.7679
1211.77	0.776
1220.52	0.656
1229.27	0.389
1238.02	0.697
1246.77	0.6309
1255.52	0.778
1264.27	0.616
1273.02	0.486
1281.77	0.581
1290.52	0.694
1299.27	0.76
1308.02	0.789
1316.77	0.815
1325.52	0.6231
1334.27	0.6328
1343.02	0.56
1351.77	0.58
1360.52	0.567
1369.27	0.734
1378.02	0.4781
1386.77	0.729
1395.52	0.8
1404.27	0.771
1413.02	0.715
1421.77	0.615
1430.52	0.427
1439.27	0.582
1448.02	0.581
1456.77	0.648
1465.52	0.72
1474.27	0.817
1483.02	0.876
1491.77	0.894
1500.52	0.901
1509.27	0.904
1518.02	0.904
1526.77	0.904
1535.52	0.902
1544.27	0.89
1553.02	0.853
1561.77	0.837
1570.52	0.84
1579.27	0.802
1588.02	0.757
1596.77	0.5802
1605.52	0.233
1614.27	0.45
1623.02	0.506
1631.77	0.257
1640.52	0.1661
1649.27	0.002
1658.02	0.015
1666.77	0.256
1675.52	0.524
1684.27	0.682
1693.02	0.764
1701.77	0.813
1710.52	0.827
1719.27	0.858
1728.02	0.847
1736.77	0.856
1745.52	0.885
1754.27	0.918
1763.02	0.938
1771.77	0.947
1780.52	0.951
1789.27	0.955
1798.02	0.955
1806.77	0.955
1815.52	0.958
1824.27	0.962
1833.02	0.963
1841.77	0.963
1850.52	0.965
1859.27	0.965
1868.02	0.965
1876.77	0.964
1885.52	0.963
1894.27	0.963
1903.02	0.964
1911.77	0.964
1920.52	0.964
1929.27	0.964
1938.02	0.963
1946.77	0.963
1955.52	0.96
1964.27	0.96
1973.02	0.96
1981.77	0.96
1990.52	0.957
1999.27	0.955
2008.02	0.955
2016.77	0.955
2025.52	0.954
2034.27	0.954
2043.02	0.954
2051.77	0.954
2060.52	0.954
2069.27	0.955
2078.02	0.955
2086.77	0.955
2095.52	0.955
2104.27	0.955
2113.02	0.955
2121.77	0.955
2130.52	0.955
2139.27	0.955
2148.02	0.955
2156.77	0.955
2165.52	0.9549
2174.27	0.954
2183.02	0.9529
2191.77	0.952
2200.52	0.951
2209.27	0.951
2218.02	0.9508
2226.77	0.95
2235.52	0.9507
2244.27	0.95
2253.02	0.949
2261.77	0.9477
2270.52	0.946
2279.27	0.944
2288.02	0.942
2296.77	0.9396
2305.52	0.9386
2314.27	0.936
2323.02	0.9356
2331.77	0.934
2340.52	0.934
2349.27	0.9325
2358.02	0.931
2366.77	0.9305
2375.52	0.929
2384.27	0.928
2393.02	0.9274
2401.77	0.926
2410.52	0.9244
2419.27	0.923
2428.02	0.923
2436.77	0.922
2445.52	0.921
2454.27	0.921
2463.02	0.921
2471.77	0.921
2480.52	0.92
2489.27	0.918
2498.02	0.917
2506.77	0.915
2515.52	0.9132
2524.27	0.9091
2533.02	0.9051
2541.77	0.9021
2550.52	0.9001
2559.27	0.8971
2568.02	0.896
2576.77	0.8921
2585.52	0.889
2594.27	0.884
2603.02	0.878
2611.77	0.876
2620.52	0.8739
2629.27	0.8719
2638.02	0.8669
2646.77	0.863
2655.52	0.8597
2664.27	0.8558
2673.02	0.8548
2681.77	0.852
2690.52	0.851
2699.27	0.85
2708.02	0.8487
2716.77	0.847
2725.52	0.8467
2734.27	0.8447
2743.02	0.844
2751.77	0.8426
2760.52	0.8396
2769.27	0.8366
2778.02	0.8322
2786.77	0.7669
2795.52	0.6877
2804.27	0.5887
2813.02	0.5823
2821.77	0.6654
2830.52	0.5348
2839.27	0.4336
2848.02	0.276
2856.77	0.3363
2865.52	0.265
2874.27	0.3697
2883.02	0.2911
2891.77	0.2949
2900.52	0.3136
2909.27	0.2349
2918.02	0.1288
2926.77	0.171
2935.52	0.2118
2944.27	0.179
2953.02	0.2408
2961.77	0.3815
2970.52	0.586
2979.27	0.6458
2988.02	0.7255
2996.77	0.774
3005.52	0.7896
3014.27	0.817
3023.02	0.8004
3031.77	0.783
3040.52	0.8208
3049.27	0.842
3058.02	0.842
3066.77	0.843
3075.52	0.844
3084.27	0.8429
3093.02	0.839
3101.77	0.8379
3110.52	0.836
3119.27	0.835
3128.02	0.834
3136.77	0.8318
3145.52	0.831
3154.27	0.8308
3163.02	0.8288
3171.77	0.828
3180.52	0.8247
3189.27	0.8194
3198.02	0.8134
3206.77	0.8063
3215.52	0.8013
3224.27	0.7946
3233.02	0.7902
3241.77	0.778
3250.52	0.759
3259.27	0.7379
3268.02	0.7183
3276.77	0.7055
3285.52	0.6945
3294.27	0.691
3303.02	0.6864
3311.77	0.6758
3320.52	0.6596
3329.27	0.6314
3338.02	0.5902
3346.77	0.563
3355.52	0.5382
3364.27	0.5046
3373.02	0.4592
3381.77	0.3663
3390.52	0.2496
3399.27	0.1771
3408.02	0.1055
3416.77	0.1085
3425.53	0.1436
3434.28	0.1913
3443.03	0.3001
3451.78	0.3692
3460.53	0.4312
3469.28	0.4983
3478.03	0.5458
3486.78	0.5851
3495.53	0.6204
3504.28	0.6516
3513.03	0.6779
3521.78	0.701
3530.53	0.7211
3539.28	0.7392
3548.03	0.7553
3556.78	0.7694
3565.53	0.7824
3574.28	0.7955
3583.03	0.8075
3591.78	0.8206
3600.53	0.8327
3609.28	0.8464
3618.03	0.8492
3626.78	0.8502
3635.53	0.8632
3644.28	0.868
3653.03	0.869
3661.78	0.87
3670.53	0.87
3679.28	0.87
3688.03	0.87
3696.78	0.871
3705.53	0.87
3714.28	0.87
3723.03	0.869
3731.78	0.868
3740.53	0.8675
3749.28	0.866
3758.03	0.865
3766.78	0.865
3775.53	0.8634
3784.28	0.863
3793.03	0.861
3801.78	0.8588
3810.53	0.857
3819.28	0.855
3828.03	0.854
3836.78	0.8523
3845.53	0.852
3854.28	0.852
3863.03	0.852
3871.78	0.8508
3880.53	0.8492
3889.28	0.849
3898.03	0.849
3906.78	0.849
3915.53	0.8481
3924.28	0.848
3933.03	0.848
3941.78	0.848
3950.53	0.8498
3959.28	0.8491
3968.03	0.849
3976.78	0.849
3985.53	0.849
3994.28	0.849
4003.03	0.849
