Infrared Spectrum: 3Beta-HYDROXY-5Alpha-ANDROSTAN-17-ONE
Formula: C19 H30 O2
CAS: 481-29-8
State: SOLID (KBr DISC)
Class: COBLENTZ III
Instrument: BECKMAN IR-7
Sampling: TRANSMISSION
Resolution: 4
Origin: THE WORCESTER FOUNDATION FOR EXPERIMENTAL BIOLOGY, Neal L. McNiven
1/CM	TRANSMITTANCE
601.457	0.592
610.198	0.552
618.939	0.518
627.68	0.639
636.421	0.707
645.162	0.765
653.902	0.8
662.643	0.842
671.384	0.889
680.125	0.935
688.866	0.968
697.607	0.987
706.348	0.992
715.089	0.99
723.83	0.9419
732.571	0.999
741.311	0.973
750.052	1.009
758.793	1.007
767.534	1.013
776.275	1.011
785.016	1.007
793.757	1.007
802.498	0.942
811.239	0.9641
819.98	0.981
828.72	0.947
837.461	0.858
846.202	0.839
854.943	0.981
863.684	0.969
872.425	0.988
881.166	0.984
889.907	0.907
898.648	0.8872
907.389	0.85
916.129	0.953
924.87	0.831
933.611	0.7972
942.352	0.796
951.093	0.882
959.834	0.844
968.575	0.864
977.316	0.7301
986.057	0.7769
994.798	0.776
1003.54	0.721
1012.28	0.5259
1021.02	0.5291
1029.76	0.635
1038.5	0.468
1047.24	0.198
1055.98	0.513
1064.72	0.5589
1073.47	0.683
1082.21	0.412
1090.95	0.75
1099.69	0.587
1108.43	0.765
1117.17	0.813
1125.91	0.686
1134.65	0.547
1143.39	0.6309
1152.13	0.791
1160.87	0.783
1169.62	0.845
1178.36	0.679
1187.1	0.81
1195.84	0.83
1204.58	0.7599
1213.32	0.831
1222.06	0.889
1230.8	0.7221
1239.54	0.797
1248.28	0.761
1257.02	0.721
1265.77	0.763
1274.51	0.809
1283.25	0.826
1291.99	0.5952
1300.73	0.6279
1309.47	0.51
1318.21	0.781
1326.95	0.712
1335.69	0.646
1344.43	0.707
1353.17	0.748
1361.92	0.676
1370.66	0.4501
1379.4	0.36
1388.14	0.597
1396.88	0.784
1405.62	0.6731
1414.36	0.702
1423.1	0.5902
1431.84	0.688
1440.58	0.56
1449.32	0.461
1458.07	0.607
1466.81	0.547
1475.55	0.744
1484.29	0.883
1493.03	0.913
1501.77	0.927
1510.51	0.936
1519.25	0.941
1527.99	0.942
1536.73	0.94
1545.47	0.94
1554.22	0.944
1562.96	0.945
1571.7	0.944
1580.44	0.94
1589.18	0.932
1597.92	0.92
1606.66	0.912
1615.4	0.908
1624.14	0.903
1632.88	0.899
1641.62	0.892
1650.37	0.879
1659.11	0.867
1667.85	0.847
1676.59	0.825
1685.33	0.743
1694.07	0.744
1702.81	0.679
1711.55	0.3691
1720.29	0.068
1729.03	0.037
1737.77	0.296
1746.51	0.537
1755.26	0.77
1764	0.847
1772.74	0.887
1781.48	0.906
1790.22	0.918
1798.96	0.937
1807.7	0.944
1816.44	0.948
1825.18	0.957
1833.92	0.959
1842.66	0.96
1851.41	0.96
1860.15	0.96
1868.89	0.96
1877.63	0.963
1886.37	0.965
1895.11	0.968
1903.85	0.97
1912.59	0.971
1921.33	0.969
1930.07	0.968
1938.81	0.965
1947.56	0.963
1956.3	0.965
1965.04	0.967
1973.78	0.965
1982.52	0.965
1991.26	0.963
2000	0.961
2008.74	0.961
2017.48	0.96
2026.22	0.96
2034.96	0.959
2043.71	0.9579
2052.45	0.957
2061.19	0.956
2069.93	0.955
2078.67	0.9538
2087.41	0.952
2096.15	0.9518
2104.89	0.95
2113.63	0.9497
2122.37	0.948
2131.11	0.9467
2139.86	0.944
2148.6	0.9426
2157.34	0.9416
2166.08	0.9396
2174.82	0.938
2183.56	0.936
2192.3	0.9345
2201.04	0.9325
2209.78	0.931
2218.52	0.9295
2227.26	0.928
2236.01	0.9264
2244.75	0.9254
2253.49	0.9234
2262.23	0.923
2270.97	0.922
2279.71	0.921
2288.45	0.921
2297.19	0.921
2305.93	0.9203
2314.67	0.92
2323.41	0.92
2332.16	0.92
2340.9	0.921
2349.64	0.922
2358.38	0.921
2367.12	0.921
2375.86	0.918
2384.6	0.9151
2393.34	0.9121
2402.08	0.9032
2410.82	0.901
2419.56	0.9
2428.31	0.898
2437.05	0.8969
2445.79	0.895
2454.53	0.8939
2463.27	0.8919
2472.01	0.889
2480.75	0.8887
2489.49	0.8848
2498.23	0.881
2506.97	0.88
2515.71	0.879
2524.46	0.8787
2533.2	0.878
2541.94	0.8767
2550.68	0.8757
2559.42	0.8737
2568.16	0.8726
2576.9	0.8716
2585.64	0.8706
2594.38	0.8617
2603.12	0.8452
2611.86	0.8405
2620.6	0.8375
2629.35	0.8345
2638.09	0.8329
2646.83	0.8293
2655.57	0.8244
2664.31	0.8234
2673.05	0.8224
2681.79	0.822
2690.53	0.821
2699.27	0.821
2708.01	0.821
2716.75	0.8203
2725.5	0.82
2734.24	0.8182
2742.98	0.8172
2751.72	0.815
2760.46	0.8132
2769.2	0.8073
2777.94	0.7845
2786.68	0.7368
2795.42	0.6821
2804.16	0.4254
2812.9	0.4387
2821.65	0.4267
2830.39	0.3223
2839.13	0.3025
2847.87	0.2689
2856.61	0.2181
2865.35	0.2821
2874.09	0.2999
2882.83	0.241
2891.57	0.2719
2900.31	0.2109
2909.05	0.1533
2917.8	0.1032
2926.54	0.1375
2935.28	0.1862
2944.02	0.2235
2952.76	0.3213
2961.5	0.296
2970.24	0.4515
2978.98	0.604
2987.72	0.6948
2996.46	0.7414
3005.2	0.7603
3013.95	0.7788
3022.69	0.7908
3031.43	0.799
3040.17	0.806
3048.91	0.809
3057.65	0.809
3066.39	0.809
3075.13	0.809
3083.87	0.81
3092.61	0.809
3101.35	0.808
3110.1	0.807
3118.84	0.807
3127.58	0.807
3136.32	0.807
3145.06	0.813
3153.8	0.815
3162.54	0.8168
3171.28	0.817
3180.02	0.8162
3188.76	0.815
3197.5	0.815
3206.25	0.818
3214.99	0.8161
3223.73	0.8131
3232.47	0.813
3241.21	0.813
3249.95	0.816
3258.69	0.816
3267.43	0.8149
3276.17	0.8119
3284.91	0.8099
3293.65	0.807
3302.4	0.8012
3311.14	0.7895
3319.88	0.7827
3328.62	0.7798
3337.36	0.7723
3346.1	0.7576
3354.84	0.737
3363.58	0.7107
3372.32	0.682
3381.06	0.6505
3389.8	0.6181
3398.55	0.5763
3407.29	0.5475
3416.03	0.5189
3424.77	0.4847
3433.51	0.4465
3442.25	0.2896
3450.99	0.1636
3459.73	0.106
3468.47	0.1333
3477.21	0.2477
3485.95	0.3725
3494.7	0.4544
3503.44	0.5446
3512.18	0.6071
3520.92	0.6316
3529.66	0.6878
3538.4	0.7359
3547.14	0.7737
3555.88	0.8007
3564.62	0.8144
3573.36	0.8268
3582.1	0.8366
3590.84	0.8457
3599.59	0.8499
3608.33	0.852
3617.07	0.8539
3625.81	0.8559
3634.55	0.8579
3643.29	0.859
3652.03	0.859
3660.77	0.859
3669.51	0.859
3678.25	0.86
3686.99	0.86
3695.74	0.86
3704.48	0.8601
3713.22	0.862
3721.96	0.8619
3730.7	0.86
3739.44	0.8598
3748.18	0.857
3756.92	0.8545
3765.66	0.852
3774.4	0.852
3783.14	0.851
3791.89	0.85
3800.63	0.85
3809.37	0.85
3818.11	0.85
3826.85	0.85
3835.59	0.85
3844.33	0.85
3853.07	0.85
3861.81	0.85
3870.55	0.849
3879.29	0.849
3888.04	0.8495
3896.78	0.851
3905.52	0.85
3914.26	0.85
3923	0.85
3931.74	0.85
3940.48	0.849
3949.22	0.8497
3957.96	0.8493
3966.7	0.85
3975.44	0.849
3984.19	0.847
3992.93	0.847
