Infrared Spectrum: BENZYL ALCOHOL, Alpha-(1-AMINOETHYL)-
Formula: C9 H13 N O
CAS: 48115-38-4
State: SOLID (KBr DISC)
Class: COBLENTZ III
Instrument: PERKIN-ELMER 21 (GRATING)
Instrument parameters: FILTER AT ABOUT 10 MICRONS
Sampling: TRANSMISSION
Resolution: 2
1/CM	TRANSMITTANCE
4000	0.6708
3991	0.6711
3982	0.6711
3973	0.6711
3964	0.6711
3955	0.6712
3946	0.6715
3937	0.6722
3928	0.673
3919	0.6736
3910	0.6751
3901	0.6769
3892	0.6787
3883	0.6804
3874	0.6819
3865	0.6831
3856	0.6838
3847	0.6847
3838	0.6854
3829	0.6861
3820	0.6868
3811	0.6875
3802	0.6883
3793	0.689
3784	0.6897
3775	0.6905
3766	0.6911
3757	0.6919
3748	0.6928
3739	0.6938
3730	0.6947
3721	0.6956
3712	0.6965
3703	0.6974
3694	0.6981
3685	0.6987
3676	0.6992
3667	0.6998
3658	0.7003
3649	0.7008
3640	0.7014
3631	0.7017
3622	0.7018
3613	0.7021
3604	0.7022
3595	0.7025
3586	0.7021
3577	0.7018
3568	0.7005
3559	0.6991
3550	0.6968
3541	0.6932
3532	0.6895
3523	0.6849
3514	0.68
3505	0.6751
3496	0.6701
3487	0.6646
3478	0.6588
3469	0.653
3460	0.6474
3451	0.6418
3442	0.6365
3433	0.6314
3424	0.6262
3415	0.6214
3406	0.617
3397	0.6153
3388	0.6137
3379	0.6119
3370	0.6095
3361	0.6071
3352	0.6036
3343	0.5987
3334	0.5924
3325	0.5664
3316	0.5053
3307	0.5009
3298	0.514
3289	0.5306
3280	0.5469
3271	0.5501
3262	0.52
3253	0.4785
3244	0.4368
3235	0.4276
3226	0.4419
3217	0.4598
3208	0.4778
3199	0.4884
3190	0.493
3181	0.4896
3172	0.4837
3163	0.4771
3154	0.4682
3145	0.4535
3136	0.4364
3127	0.4328
3118	0.4305
3109	0.4248
3100	0.4167
3091	0.4082
3082	0.3982
3073	0.3887
3064	0.3841
3055	0.3828
3046	0.3804
3037	0.374
3028	0.3641
3019	0.3593
3010	0.3595
3001	0.3614
2992	0.3682
2983	0.3791
2974	0.3902
2965	0.4005
2956	0.405
2947	0.4059
2938	0.4048
2929	0.3938
2920	0.3762
2911	0.3664
2902	0.3608
2893	0.347
2884	0.3206
2875	0.3218
2866	0.328
2857	0.3384
2848	0.3558
2839	0.3603
2830	0.3609
2821	0.366
2812	0.3732
2803	0.3799
2794	0.3846
2785	0.3862
2776	0.3825
2767	0.3754
2758	0.3682
2749	0.3621
2740	0.3566
2731	0.3514
2722	0.3464
2713	0.3414
2704	0.3375
2695	0.3364
2686	0.3384
2677	0.343
2668	0.349
2659	0.357
2650	0.3682
2641	0.3799
2632	0.3939
2623	0.4082
2614	0.4228
2605	0.4362
2596	0.4441
2587	0.451
2578	0.4604
2569	0.4694
2560	0.4782
2551	0.4851
2542	0.4902
2533	0.4951
2524	0.5001
2515	0.5048
2506	0.5092
2497	0.5136
2488	0.5184
2479	0.5233
2470	0.5281
2461	0.5331
2452	0.5384
2443	0.5436
2434	0.5489
2425	0.5538
2416	0.5587
2407	0.5634
2398	0.5682
2389	0.5733
2380	0.5785
2371	0.5829
2362	0.5853
2353	0.5856
2344	0.5854
2335	0.5853
2326	0.586
2317	0.587
2308	0.5884
2299	0.5923
2290	0.597
2281	0.6027
2272	0.6089
2263	0.6134
2254	0.6166
2245	0.62
2236	0.6236
2227	0.6271
2218	0.6309
2209	0.6346
2200	0.6384
2191	0.6415
2182	0.6447
2173	0.6478
2164	0.6507
2155	0.6528
2146	0.6551
2137	0.6575
2128	0.6597
2119	0.6618
2110	0.6641
2101	0.6664
2092	0.6688
2083	0.671
2074	0.6733
2065	0.6747
2056	0.6748
2047	0.6733
2038	0.673
2029	0.6758
2020	0.6791
2011	0.6812
2002	0.6835
1993	0.6854
1984	0.6869
1975	0.6878
1966	0.6878
1957	0.6867
1948	0.6822
1939	0.6834
1930	0.6895
1921	0.6928
1912	0.6942
1903	0.6941
1894	0.6933
1885	0.6906
1876	0.6886
1867	0.7001
1858	0.7065
1849	0.7111
1840	0.7111
1831	0.7081
1822	0.7025
1813	0.6969
1804	0.7005
1795	0.7065
1786	0.7125
1777	0.7148
1768	0.7135
1759	0.7132
1750	0.7147
1741	0.7105
1732	0.7056
1723	0.7086
1714	0.7094
1705	0.7072
1696	0.7031
1687	0.6988
1678	0.6962
1669	0.6944
1660	0.6919
1651	0.6847
1642	0.6714
1633	0.6578
1624	0.6248
1615	0.557
1606	0.4368
1597	0.4426
1588	0.4794
1579	0.5158
1570	0.5453
1561	0.5606
1552	0.5721
1543	0.5944
1534	0.5971
1525	0.601
1516	0.6116
1507	0.614
1498	0.5765
1489	0.5602
1480	0.4142
1471	0.4385
1462	0.4825
1453	0.4096
1444	0.4686
1435	0.5469
1426	0.548
1417	0.5316
1408	0.5377
1399	0.5827
1390	0.6027
1381	0.5664
1372	0.5962
1363	0.558
1354	0.4895
1345	0.5626
1336	0.6022
1327	0.6165
1318	0.6183
1309	0.5086
1300	0.5291
1291	0.5747
1282	0.5793
1273	0.5345
1264	0.4212
1255	0.4415
1246	0.486
1237	0.5423
1228	0.5207
1219	0.5977
1210	0.6444
1201	0.587
1192	0.6092
1183	0.6719
1174	0.6564
1165	0.6854
1156	0.6695
1147	0.6692
1138	0.6224
1129	0.4664
1120	0.5416
1111	0.6053
1102	0.6226
1093	0.5912
1084	0.4329
1075	0.3274
1066	0.3393
1057	0.4695
1048	0.3268
1039	0.5055
1030	0.546
1021	0.5603
1012	0.5129
1003	0.3126
994	0.3988
985	0.284
976	0.2417
967	0.3568
958	0.4762
949	0.5374
940	0.5909
931	0.351
922	0.5025
913	0.5734
904	0.611
895	0.6374
886	0.6425
877	0.6318
868	0.5654
859	0.483
850	0.5312
841	0.5552
832	0.5441
823	0.5586
814	0.5928
805	0.6185
796	0.6054
787	0.6165
778	0.5917
769	0.6595
760	0.5679
751	0.3624
742	0.4964
733	0.6389
724	0.6951
715	0.6847
706	0.2548
697	0.4198
688	0.5723
679	0.5064
