Infrared Spectrum: Aniline, N-tert-butyl-4-chloro-
Formula: C10 H14 Cl N
CAS: 48131-06-2
State: LIQUID (NEAT)
Class: COBLENTZ III
Instrument: BECKMAN IR-4 (HYBRID PRISM-GRATING)
Instrument parameters: NaCl PRISM
Sampling: TRANSMISSION
Path length: CAPILLARY
Resolution: 2
Origin: MONSANTO (J. FREEMAN)
1/CM	TRANSMITTANCE
834.605	0.6249
842.528	0.7581
850.452	0.8306
858.375	0.8756
866.298	0.8969
874.221	0.905
882.145	0.9152
890.068	0.9248
897.991	0.9256
905.914	0.9126
913.838	0.8847
921.761	0.8393
929.684	0.8704
937.608	0.8774
945.531	0.84
953.454	0.8139
961.377	0.7555
969.301	0.8533
977.224	0.9133
985.147	0.932
993.07	0.9222
1000.99	0.7524
1008.92	0.7851
1016.84	0.8837
1024.76	0.8167
1032.69	0.8486
1040.61	0.9211
1048.53	0.9325
1056.46	0.9306
1064.38	0.9221
1072.3	0.8912
1080.23	0.8077
1088.15	0.5146
1096.07	0.3474
1104	0.6468
1111.92	0.7192
1119.84	0.6636
1127.77	0.7736
1135.69	0.8831
1143.61	0.9054
1151.54	0.9004
1159.46	0.8753
1167.38	0.7791
1175.31	0.4896
1183.23	0.3142
1191.15	0.5835
1199.08	0.391
1207	0.2124
1214.92	0.1553
1222.85	0.0703
1230.77	0.1631
1238.69	0.3868
1246.62	0.4154
1254.54	0.3183
1262.46	0.2274
1270.39	0.444
1278.31	0.6293
1286.23	0.6163
1294.15	0.4077
1302.08	0.2593
1310	0.4191
1317.92	0.2355
1325.85	0.1071
1333.77	0.3035
1341.69	0.5748
1349.62	0.7454
1357.54	0.7397
1365.46	0.3797
1373.39	0.2466
1381.31	0.6971
1389.23	0.5581
1397.16	0.2207
1405.08	0.5837
1413	0.8188
1420.93	0.827
1428.85	0.8035
1436.77	0.7
1444.7	0.5974
1452.62	0.4959
1460.54	0.4451
1468.47	0.4206
1476.39	0.4098
1484.31	0.2609
1492.24	0.07
1500.16	0.0106
1508.08	0
1516.01	0.05
1523.93	0.2004
1531.85	0.3709
1539.78	0.551
1547.7	0.6225
1555.62	0.7694
1563.55	0.7902
1571.47	0.7965
1579.39	0.7402
1587.32	0.5091
1595.24	0.2801
1603.16	0.066
1611.09	0.2579
1619.01	0.5435
1626.93	0.695
1634.86	0.7925
1642.78	0.8318
1650.7	0.8612
1658.63	0.901
1666.55	0.9197
1674.47	0.9275
1682.4	0.9299
1690.32	0.9312
1698.24	0.9344
1706.17	0.9395
1714.09	0.947
1722.01	0.9521
1729.93	0.9486
1737.86	0.9407
1745.78	0.9312
1753.7	0.9304
1761.63	0.9329
1769.55	0.9355
1777.47	0.937
1785.4	0.9372
1793.32	0.9355
1801.24	0.9339
1809.17	0.9359
1817.09	0.939
1825.01	0.9378
1832.94	0.9324
1840.86	0.9251
1848.78	0.9155
1856.71	0.8926
1864.63	0.8714
1872.55	0.8536
1880.48	0.8552
1888.4	0.8859
1896.32	0.9088
1904.25	0.9238
1912.17	0.9331
1920.09	0.9351
1928.02	0.9354
1935.94	0.9357
1943.86	0.9392
1951.79	0.943
1959.71	0.9446
1967.63	0.9454
1975.56	0.9461
1983.48	0.9469
1991.4	0.9478
1999.33	0.9483
2007.25	0.9488
2015.17	0.9493
2023.1	0.9498
2031.02	0.9502
2038.94	0.9507
2046.87	0.9511
2054.79	0.9515
2062.71	0.9517
2070.64	0.9521
2078.56	0.9525
2086.48	0.9528
2094.41	0.9532
2102.33	0.9532
2110.25	0.9533
2118.18	0.9526
2126.1	0.95
2134.02	0.9463
2141.95	0.9475
2149.87	0.9487
2157.79	0.9499
2165.72	0.9511
2173.64	0.952
2181.56	0.953
2189.48	0.9539
2197.41	0.9547
2205.33	0.9555
2213.25	0.9564
2221.18	0.9569
2229.1	0.9571
2237.02	0.9571
2244.95	0.9569
2252.87	0.9566
2260.79	0.9557
2268.72	0.9537
2276.64	0.9505
2284.56	0.9471
2292.49	0.9446
2300.41	0.9433
2308.33	0.9442
2316.26	0.9456
2324.18	0.9476
2332.1	0.9495
2340.03	0.9507
2347.95	0.9515
2355.87	0.9523
2363.8	0.9523
2371.72	0.9521
2379.64	0.9519
2387.57	0.9515
2395.49	0.9504
2403.41	0.9492
2411.34	0.9479
2419.26	0.9466
2427.18	0.9455
2435.11	0.9443
2443.03	0.9434
2450.95	0.9436
2458.88	0.9439
2466.8	0.9444
2474.72	0.9448
2482.65	0.9449
2490.57	0.9448
2498.49	0.9447
2506.42	0.944
2514.34	0.9432
2522.26	0.9422
2530.19	0.9408
2538.11	0.9394
2546.03	0.9376
2553.96	0.9349
2561.88	0.932
2569.8	0.9283
2577.73	0.9236
2585.65	0.919
2593.57	0.9205
2601.5	0.9254
2609.42	0.9322
2617.34	0.938
2625.27	0.9402
2633.19	0.9417
2641.11	0.9431
2649.03	0.9443
2656.96	0.9451
2664.88	0.9453
2672.8	0.9457
2680.73	0.9454
2688.65	0.9447
2696.57	0.9434
2704.5	0.9421
2712.42	0.9394
2720.34	0.9363
2728.27	0.9342
2736.19	0.9349
2744.11	0.9363
2752.04	0.9374
2759.96	0.9381
2767.88	0.9384
2775.81	0.9381
2783.73	0.9365
2791.65	0.9336
2799.58	0.9298
2807.5	0.9255
2815.42	0.9203
2823.35	0.9148
2831.27	0.9086
2839.19	0.8979
2847.12	0.8852
2855.04	0.8709
2862.96	0.8401
2870.89	0.7447
2878.81	0.6467
2886.73	0.6167
2894.66	0.6154
2902.58	0.6141
2910.5	0.6108
2918.43	0.6004
2926.35	0.5794
2934.27	0.5036
2942.2	0.4738
2950.12	0.4134
2958.04	0.3464
2965.97	0.28
2973.89	0.2137
2981.81	0.1665
2989.74	0.1667
2997.66	0.2169
3005.58	0.3256
3013.51	0.4336
3021.43	0.5901
3029.35	0.6799
3037.28	0.7479
3045.2	0.7995
3053.12	0.8293
3061.05	0.8404
3068.97	0.8471
3076.89	0.8522
3084.81	0.8556
3092.74	0.8582
3100.66	0.8614
3108.58	0.8669
3116.51	0.8905
3124.43	0.9247
3132.35	0.9309
3140.28	0.9316
3148.2	0.932
3156.12	0.9323
3164.05	0.9326
3171.97	0.9332
3179.89	0.9338
3187.82	0.9352
3195.74	0.9368
3203.66	0.9384
3211.59	0.9404
3219.51	0.9426
3227.43	0.945
3235.36	0.9476
3243.28	0.9481
3251.2	0.9475
3259.13	0.9453
3267.05	0.942
3274.97	0.9367
3282.9	0.931
3290.82	0.9235
3298.74	0.9152
3306.67	0.9072
3314.59	0.8993
3322.51	0.8902
3330.44	0.8804
3338.36	0.8718
3346.28	0.8651
3354.21	0.8585
3362.13	0.8411
3370.05	0.8036
3377.98	0.7663
3385.9	0.7293
3393.82	0.6924
3401.75	0.6559
3409.67	0.6399
3417.59	0.677
3425.52	0.725
3433.44	0.7727
3441.36	0.8203
3449.29	0.8709
3457.21	0.9129
3465.13	0.9224
3473.06	0.928
3480.98	0.9337
3488.9	0.939
3496.83	0.9441
3504.75	0.9472
3512.67	0.9503
3520.6	0.9521
3528.52	0.9536
3536.44	0.9551
3544.36	0.956
3552.29	0.9568
3560.21	0.9575
3568.13	0.9578
3576.06	0.9581
3583.98	0.9584
3591.9	0.9587
3599.83	0.9589
3607.75	0.9589
3615.67	0.9589
3623.6	0.9588
3631.52	0.9585
3639.44	0.9581
3647.37	0.9578
3655.29	0.9574
3663.21	0.9572
3671.14	0.9571
3679.06	0.9569
3686.98	0.9568
3694.91	0.9566
3702.83	0.9566
3710.75	0.957
3718.68	0.9574
3726.6	0.9578
3734.52	0.9584
3742.45	0.9593
3750.37	0.9599
3758.29	0.96
3766.22	0.9602
3774.14	0.9602
3782.06	0.9599
3789.99	0.9597
3797.91	0.9594
3805.83	0.9591
3813.76	0.9589
3821.68	0.9587
3829.6	0.9583
3837.53	0.9579
3845.45	0.9576
3853.37	0.9572
3861.3	0.9569
3869.22	0.9565
3877.14	0.9561
3885.07	0.9558
3892.99	0.9554
3900.91	0.955
3908.84	0.9546
3916.76	0.9541
3924.68	0.9537
3932.61	0.9533
3940.53	0.9529
3948.45	0.9525
3956.38	0.952
3964.3	0.9515
