Infrared Spectrum: Acetamide, N-(cyanomethyl)-
Formula: C4 H6 N2 O
CAS: 4814-80-6
State: LIQUID (NEAT)
Class: COBLENTZ III
Instrument: PERKIN-ELMER 21 (GRATING)
Instrument parameters: FILTER CHANGE ABOUT 1075 CM^-^1
Sampling: TRANSMISSION
Path length: CAPILLARY
Resolution: 2
Origin: SOUTHERN RESEARCH INSTITUTE
1/CM	TRANSMITTANCE
599	0.5773
608	0.5716
617	0.5626
626	0.5667
635	0.5668
644	0.5524
653	0.5279
662	0.5077
671	0.5277
680	0.4994
689	0.4927
698	0.4827
707	0.4481
716	0.4503
725	0.4632
734	0.4672
743	0.4702
752	0.4982
761	0.5236
770	0.5508
779	0.5833
788	0.6191
797	0.646
806	0.6581
815	0.6628
824	0.6801
833	0.681
842	0.6779
851	0.616
860	0.5172
869	0.6679
878	0.6608
887	0.6174
896	0.4269
905	0.4393
914	0.4821
923	0.6293
932	0.6563
941	0.6463
950	0.623
959	0.6093
968	0.5653
977	0.5174
986	0.5871
995	0.5757
1004	0.5903
1013	0.6379
1022	0.6031
1031	0.4298
1040	0.2405
1049	0.475
1058	0.5963
1067	0.6327
1076	0.646
1085	0.6432
1094	0.627
1103	0.5792
1112	0.5091
1121	0.6043
1130	0.635
1139	0.6353
1148	0.6252
1157	0.6013
1166	0.5539
1175	0.5864
1184	0.5864
1193	0.5575
1202	0.4952
1211	0.4557
1220	0.4288
1229	0.4183
1238	0.4168
1247	0.4165
1256	0.4033
1265	0.3663
1274	0.2956
1283	0.2323
1292	0.2458
1301	0.268
1310	0.3246
1319	0.4202
1328	0.4279
1337	0.4164
1346	0.3495
1355	0.3013
1364	0.2874
1373	0.2405
1382	0.1832
1391	0.1972
1400	0.3001
1409	0.2903
1418	0.1764
1427	0.2458
1436	0.2903
1445	0.2993
1454	0.306
1463	0.3393
1472	0.346
1481	0.3202
1490	0.2806
1499	0.2256
1508	0.1679
1517	0.1331
1526	0.1251
1535	0.1263
1544	0.1318
1553	0.1376
1562	0.1925
1571	0.2286
1580	0.2926
1589	0.3253
1598	0.3572
1607	0.349
1616	0.2849
1625	0.2324
1634	0.1534
1643	0.1197
1652	0.072
1661	0.0619
1670	0.065
1679	0.0715
1688	0.083
1697	0.1548
1706	0.2306
1715	0.3495
1724	0.4467
1733	0.5273
1742	0.5453
1751	0.5813
1760	0.6126
1769	0.627
1778	0.6356
1787	0.6512
1796	0.654
1805	0.6623
1814	0.6629
1823	0.6635
1832	0.6675
1841	0.6728
1850	0.6698
1859	0.674
1868	0.6812
1877	0.6847
1886	0.6845
1895	0.6835
1904	0.6836
1913	0.6838
1922	0.6827
1931	0.679
1940	0.6807
1949	0.6759
1958	0.6704
1967	0.6693
1976	0.6696
1985	0.6705
1994	0.6734
2003	0.6767
2012	0.6791
2021	0.6802
2030	0.6805
2039	0.6804
2048	0.6806
2057	0.6824
2066	0.6803
2075	0.6784
2084	0.6775
2093	0.6739
2102	0.6754
2111	0.6793
2120	0.6799
2129	0.6792
2138	0.6751
2147	0.6738
2156	0.6746
2165	0.6756
2174	0.679
2183	0.682
2192	0.6791
2201	0.6736
2210	0.6704
2219	0.6687
2228	0.6658
2237	0.655
2246	0.619
2255	0.6124
2264	0.6148
2273	0.6275
2282	0.6578
2291	0.672
2300	0.6743
2309	0.6895
2318	0.6887
2327	0.6976
2336	0.6953
2345	0.6904
2354	0.6835
2363	0.6786
2372	0.6771
2381	0.6763
2390	0.6755
2399	0.6744
2408	0.6731
2417	0.6718
2426	0.6703
2435	0.6678
2444	0.666
2453	0.6674
2462	0.6696
2471	0.6738
2480	0.6763
2489	0.6759
2498	0.6746
2507	0.6734
2516	0.6722
2525	0.6709
2534	0.6696
2543	0.6693
2552	0.6681
2561	0.6679
2570	0.6661
2579	0.6634
2588	0.66
2597	0.663
2606	0.6624
2615	0.6603
2624	0.6598
2633	0.659
2642	0.6584
2651	0.6577
2660	0.6529
2669	0.6505
2678	0.6493
2687	0.6436
2696	0.6378
2705	0.633
2714	0.6282
2723	0.6235
2732	0.6203
2741	0.6163
2750	0.6113
2759	0.6052
2768	0.5969
2777	0.5888
2786	0.5779
2795	0.5504
2804	0.5325
2813	0.5149
2822	0.4976
2831	0.4781
2840	0.4577
2849	0.449
2858	0.4517
2867	0.4565
2876	0.4509
2885	0.4464
2894	0.4416
2903	0.432
2912	0.4201
2921	0.4083
2930	0.3982
2939	0.383
2948	0.3776
2957	0.3763
2966	0.375
2975	0.3612
2984	0.3408
2993	0.318
3002	0.2993
3011	0.2976
3020	0.2973
3029	0.296
3038	0.293
3047	0.2847
3056	0.2768
3065	0.266
3074	0.2658
3083	0.2675
3092	0.271
3101	0.2936
3110	0.3252
3119	0.3417
3128	0.3373
3137	0.3308
3146	0.3068
3155	0.2949
3164	0.2825
3173	0.2555
3182	0.232
3191	0.2161
3200	0.1988
3209	0.1916
3218	0.1785
3227	0.1723
3236	0.1709
3245	0.1651
3254	0.1616
3263	0.1577
3272	0.1545
3281	0.1522
3290	0.1504
3299	0.1502
3308	0.1538
3317	0.1636
3326	0.1649
3335	0.1714
3344	0.1742
3353	0.178
3362	0.1828
3371	0.1909
3380	0.201
3389	0.2101
3398	0.2275
3407	0.2429
3416	0.2592
3425	0.2886
3434	0.3313
3443	0.3719
3452	0.4084
3461	0.4219
3470	0.4363
3479	0.4531
3488	0.4695
3497	0.4898
3506	0.4997
3515	0.5027
3524	0.504
3533	0.5046
3542	0.5051
3551	0.5062
3560	0.5092
3569	0.5188
3578	0.5303
3587	0.5318
3596	0.5351
3605	0.5401
3614	0.5586
3623	0.5722
3632	0.574
3641	0.5795
3650	0.5934
3659	0.595
3668	0.6043
3677	0.6208
3686	0.6313
3695	0.64
3704	0.6515
3713	0.6707
3722	0.6768
3731	0.6832
3740	0.6826
3749	0.6809
3758	0.6799
3767	0.6774
3776	0.6718
3785	0.6761
3794	0.6827
3803	0.6859
3812	0.6861
3821	0.6947
3830	0.6947
3839	0.6948
3848	0.6947
3857	0.6932
3866	0.6868
3875	0.6875
3884	0.6876
3893	0.6868
3902	0.688
3911	0.6861
3920	0.6705
3929	0.6635
3938	0.6642
3947	0.6668
3956	0.6727
3965	0.6784
3974	0.6815
3983	0.6845
3992	0.6922
