Infrared Spectrum: .beta.-Phenoxyethyl acrylate
Formula: C11 H12 O3
CAS: 48145-04-6
State: gas
Origin: EPA-IR VAPOR PHASE LIBRARY
1/CM	ABSORBANCE
549.8	0.001941
559.445	0.001921
569.09	0.002391
578.734	0.002871
588.379	0.003221
598.024	0.003791
607.669	0.003001
617.313	0.001981
626.958	0.001701
636.603	0.001991
646.248	0.002511
655.893	0.004071
665.537	0.007151
675.182	0.011451
684.827	0.019391
694.472	0.019191
704.116	0.010941
713.761	0.006551
723.406	0.006101
733.051	0.010631
742.695	0.024091
752.34	0.034601
761.985	0.024701
771.63	0.017051
781.275	0.013661
790.919	0.013741
800.564	0.015801
810.209	0.017641
819.854	0.013911
829.498	0.010471
839.143	0.008801
848.788	0.007951
858.433	0.007721
868.078	0.008321
877.722	0.010181
887.367	0.011041
897.012	0.010561
906.657	0.010751
916.301	0.012821
925.946	0.017501
935.591	0.022591
945.236	0.023201
954.88	0.022901
964.525	0.027251
974.17	0.027771
983.815	0.028381
993.46	0.024821
1003.1	0.022001
1012.75	0.023911
1022.39	0.024171
1032.04	0.027361
1041.68	0.041481
1051.33	0.056671
1060.97	0.066461
1070.62	0.064381
1080.26	0.052471
1089.91	0.035561
1099.55	0.021301
1109.2	0.015501
1118.84	0.013751
1128.49	0.014021
1138.13	0.017701
1147.78	0.029521
1157.42	0.058001
1167.07	0.129791
1176.71	0.241101
1186.36	0.246851
1196	0.112771
1205.64	0.071281
1215.29	0.092961
1224.93	0.114561
1234.58	0.142631
1244.22	0.154291
1253.87	0.121851
1263.51	0.101711
1273.16	0.079621
1282.8	0.064621
1292.45	0.067081
1302.09	0.053831
1311.74	0.028311
1321.38	0.017461
1331.03	0.015321
1340.67	0.012301
1350.32	0.009041
1359.96	0.009121
1369.61	0.010481
1379.25	0.010071
1388.9	0.013471
1398.54	0.026771
1408.18	0.059191
1417.83	0.044511
1427.47	0.017861
1437.12	0.014171
1446.76	0.016421
1456.41	0.023721
1466.05	0.027091
1475.7	0.028711
1485.34	0.049001
1494.99	0.091191
1504.63	0.048161
1514.28	0.014461
1523.92	0.007571
1533.57	0.005301
1543.21	0.004941
1552.86	0.005791
1562.5	0.008531
1572.15	0.015341
1581.79	0.030891
1591.44	0.057621
1601.08	0.060111
1610.73	0.027081
1620.37	0.015021
1630.01	0.014001
1639.66	0.013451
1649.3	0.007441
1658.95	0.004451
1668.59	0.004041
1678.24	0.004631
1687.88	0.006031
1697.53	0.008551
1707.17	0.012751
1716.82	0.020671
1726.46	0.039131
1736.11	0.079001
1745.75	0.130541
1755.4	0.112461
1765.04	0.058841
1774.69	0.028291
1784.33	0.014341
1793.98	0.008161
1803.62	0.005371
1813.27	0.004061
1822.91	0.003591
1832.55	0.003531
1842.2	0.003351
1851.84	0.003151
1861.49	0.002721
1871.13	0.002241
1880.78	0.002031
1890.42	0.002131
1900.07	0.002591
1909.71	0.003501
1919.36	0.004761
1929	0.005511
1938.65	0.005071
1948.29	0.003581
1957.94	0.002531
1967.58	0.002211
1977.23	0.002251
1986.87	0.002441
1996.52	0.002621
2006.16	0.002731
2015.81	0.002941
2025.45	0.003181
2035.1	0.003171
2044.74	0.002941
2054.38	0.002621
2064.03	0.002481
2073.67	0.002421
2083.32	0.002081
2092.96	0.001891
2102.61	0.001711
2112.25	0.001511
2121.9	0.001341
2131.54	0.0012006
2141.19	0.001061
2150.83	0.0009003
2160.48	0.0007637
2170.12	0.000675
2179.77	0.0006248
2189.41	0.000589
2199.06	0.0005375
2208.7	0.00058
2218.35	0.0006083
2227.99	0.0005616
2237.64	0.000627
2247.28	0.0006792
2256.92	0.0008017
2266.57	0.0008868
2276.21	0.0009626
2285.86	0.0009604
2295.5	0.0009682
2305.15	0.0010101
2314.79	0.0010047
2324.44	0.0009903
2334.08	0.0011789
2343.73	0.001195
2353.37	0.001251
2363.02	0.001241
2372.66	0.0011196
2382.31	0.0010975
2391.95	0.0010703
2401.6	0.0009601
2411.24	0.0009961
2420.89	0.0010519
2430.53	0.0010881
2440.18	0.0010555
2449.82	0.0010376
2459.47	0.0010512
2469.11	0.0010921
2478.75	0.0012022
2488.4	0.001241
2498.04	0.0010412
2507.69	0.0009975
2517.33	0.0011639
2526.98	0.0011678
2536.62	0.0011717
2546.27	0.0011011
2555.91	0.0010211
2565.56	0.0009453
2575.2	0.0007554
2584.85	0.0006674
2594.49	0.0005507
2604.14	0.0005331
2613.78	0.0005423
2623.43	0.000505
2633.07	0.0005084
2642.72	0.000391
2652.36	0.0004395
2662.01	0.0005999
2671.65	0.0005377
2681.29	0.0005344
2690.94	0.0005859
2700.58	0.0007675
2710.23	0.0009078
2719.87	0.0008953
2729.52	0.0010906
2739.16	0.0012183
2748.81	0.0010476
2758.45	0.0009803
2768.1	0.0009571
2777.74	0.0010798
2787.39	0.001118
2797.03	0.0009907
2806.68	0.0010149
2816.32	0.001231
2825.97	0.001291
2835.61	0.001631
2845.26	0.002051
2854.9	0.003091
2864.55	0.004941
2874.19	0.008191
2883.84	0.010311
2893.48	0.010371
2903.12	0.009611
2912.77	0.009821
2922.41	0.011551
2932.06	0.013451
2941.7	0.015251
2951.35	0.018951
2960.99	0.020501
2970.64	0.018131
2980.28	0.015311
2989.93	0.013351
2999.57	0.011341
3009.22	0.008431
3018.86	0.007891
3028.51	0.010261
3038.15	0.015631
3047.8	0.018241
3057.44	0.013831
3067.09	0.015801
3076.73	0.019321
3086.38	0.015131
3096.02	0.011681
3105.67	0.010601
3115.31	0.007351
3124.95	0.002681
3134.6	0.001271
3144.24	0.0006701
3153.89	0.0006042
3163.53	0.0005621
3173.18	0.0003767
3182.82	0.00030117
3192.47	0.00022593
3202.11	0.0003734
3211.76	0.000228335
3221.4	0.0003943
3231.05	0.00025946
3240.69	0.000226482
3250.34	0.00025502
3259.98	0.0001941
3269.63	0.0001233
3279.27	5.1e-05
3288.92	0.0001
3298.56	0.0001595
3308.21	0.000129
3317.85	9.2e-05
3327.49	0.00024398
3337.14	0.0002366
3346.78	0.0001276
3356.43	0.0004253
3366.07	0.0003792
3375.72	0.00022966
3385.36	0.000247
3395.01	0.0001212
3404.65	0.0003597
3414.3	0.000224502
3423.94	0.0001413
3433.59	0.00026661
3443.23	0.0003999
3452.88	0.0006409
3462.52	0.0010512
3472.17	0.001361
3481.81	0.001521
3491.46	0.0011106
3501.1	0.0007394
3510.75	0.0005448
3520.39	0.0003956
3530.04	0.0003215
3539.68	0.00021444
3549.32	0.0001713
3558.97	0.000118
3568.61	0.000143
3578.26	0.00026432
3587.9	0.0002002
3597.55	0.000102
3607.19	0.000230597
3616.84	0.00025316
3626.48	0.000159
3636.13	0.0002102
3645.77	0.0002445
3655.42	0.0002893
3665.06	0.00028201
3674.71	0.0004878
3684.35	0.0003908
3694	0.00025008
3703.64	0.0001729
3713.29	0.00026593
3722.93	0.0003882
3732.58	0.00026975
3742.22	9.3e-05
3751.86	0.0001525
3761.51	0.0001691
3771.15	0.0001406
3780.8	0.0003051
3790.44	0.0004343
3800.09	0.000119
3809.73	0.00030599
3819.38	0.0002041
3829.02	0.0003453
3838.67	0.00028885
3848.31	0.0005252
3857.96	0.000469
3867.6	0.0003392
3877.25	0.00028972
3886.89	0.000167
3896.54	0.0004227
3906.18	0.00024612
3915.83	0.00026103
3925.47	0.0004378
3935.12	0.00027663
3944.76	0.0003992
3954.41	0.000356
3964.05	0.000227973
3973.69	0.0004592
3983.34	0.0005158
3992.98	0.0005245
