Infrared Spectrum: 4-TERT-BUTYLPHENYL PROPARGYL ETHER
Formula: C13 H16 O
CAS: 48144-15-6
State: SOLUTION (10% IN CCl4 FOR 3800-1330,AND 10% IN CS2 FOR 1330-400 CM^-^1)
Class: COBLENTZ
Instrument: Not specified, most likely a prism, grating, or hybrid spectrometer.
Sampling: TRANSMISSION
Path length: 0.010 AND 0.010 CM
Resolution: 4
Origin: DOW CHEMICAL COMPANY
1/CM	TRANSMITTANCE
452.719	0.918
462.175	0.933
471.632	0.957
481.088	0.974
490.544	0.968
500.001	0.957
509.457	0.903
518.913	0.966
528.369	0.966
537.826	0.887
547.282	0.4519
556.738	0.5609
566.195	0.878
575.651	0.918
585.107	0.918
594.564	0.861
604.02	0.841
613.476	0.831
622.932	0.53
632.389	0.144
641.845	0.512
651.301	0.5501
660.758	0.4761
670.214	0.136
679.67	0.593
689.127	0.796
698.583	0.9
708.039	0.942
717.495	0.95
726.952	0.907
736.408	0.972
745.864	0.983
755.321	0.988
764.777	0.987
774.233	0.979
783.69	0.935
793.146	0.7064
802.602	0.7481
812.058	0.7649
821.515	0.532
830.971	0.1142
840.427	0.6759
849.884	0.752
859.34	0.767
868.796	0.837
878.253	0.855
887.709	0.924
897.165	0.955
906.622	0.946
916.078	0.874
925.534	0.539
934.99	0.8369
944.447	0.924
953.903	0.916
963.359	0.883
972.816	0.889
982.272	0.914
991.728	0.892
1001.18	0.809
1010.64	0.584
1020.1	0.3599
1029.55	0.1141
1039.01	0.035
1048.47	0.587
1057.92	0.863
1067.38	0.924
1076.83	0.922
1086.29	0.914
1095.75	0.922
1105.2	0.872
1114.66	0.658
1124.12	0.741
1133.57	0.914
1143.03	0.913
1152.49	0.92
1161.94	0.894
1171.4	0.6873
1180.85	0.1861
1190.31	0.476
1199.77	0.672
1209.22	0.5978
1218.68	0.1341
1228.14	0.018
1237.59	0.101
1247.05	0.1331
1256.5	0.3709
1265.96	0.1339
1275.42	0.536
1284.87	0.659
1294.33	0.3529
1303.79	0.3651
1313.24	0.687
1322.7	0.811
1332.16	0.776
1341.61	0.768
1351.07	0.763
1360.52	0.6221
1369.98	0.31
1379.44	0.6281
1388.89	0.805
1398.35	0.7282
1407.81	0.841
1417.26	0.833
1426.72	0.874
1436.17	0.817
1445.63	0.6458
1455.09	0.458
1464.54	0.419
1474	0.537
1483.46	0.537
1492.91	0.591
1502.37	0.288
1511.82	0.011
1521.28	0.436
1530.74	0.534
1540.19	0.5039
1549.65	0.48
1559.11	0.543
1568.56	0.587
1578.02	0.526
1587.48	0.5241
1596.93	0.608
1606.39	0.347
1615.84	0.6041
1625.3	0.8521
1634.76	0.926
1644.21	0.97
1653.67	0.94
1663.13	0.94
1672.58	0.957
1682.04	0.959
1691.49	0.955
1700.95	0.955
1710.41	0.955
1719.86	0.959
1729.32	0.955
1738.78	0.957
1748.23	0.948
1757.69	0.94
1767.15	0.959
1776.6	0.953
1786.06	0.959
1795.51	0.959
1804.97	0.961
1814.43	0.959
1823.88	0.955
1833.34	0.951
1842.8	0.942
1852.25	0.937
1861.71	0.933
1871.16	0.907
1880.62	0.892
1890.08	0.944
1899.53	0.946
1908.99	0.957
1918.45	0.968
1927.9	0.97
1937.36	0.966
1946.81	0.964
1956.27	0.963
1965.73	0.955
1975.18	0.946
1984.64	0.961
1994.1	0.957
2003.55	0.934
2013.01	0.917
2022.47	0.9319
2031.92	0.94
2041.38	0.939
2050.83	0.9258
2060.29	0.9101
2069.75	0.9133
2079.2	0.9422
2088.66	0.957
2098.12	0.957
2107.57	0.959
2117.03	0.9497
2126.48	0.8985
2135.94	0.9185
2145.4	0.9481
2154.85	0.9634
2164.31	0.9668
2173.77	0.972
2183.22	0.972
2192.68	0.974
2202.13	0.974
2211.59	0.9692
2221.05	0.9688
2230.5	0.9692
2239.96	0.9652
2249.42	0.961
2258.87	0.959
2268.33	0.955
2277.79	0.9506
2287.24	0.9453
2296.7	0.94
2306.15	0.94
2315.61	0.9447
2325.07	0.9503
2334.52	0.9563
2343.98	0.9633
2353.44	0.9637
2362.89	0.961
2372.35	0.9604
2381.8	0.959
2391.26	0.959
2400.72	0.957
2410.17	0.955
2419.63	0.963
2429.09	0.961
2438.54	0.961
2448	0.959
2457.46	0.964
2466.91	0.964
2476.37	0.9605
2485.82	0.9645
2495.28	0.9705
2504.74	0.972
2514.19	0.968
2523.65	0.964
2533.11	0.966
2542.56	0.9656
2552.02	0.9638
2561.47	0.9632
2570.93	0.9676
2580.39	0.9638
2589.84	0.9586
2599.3	0.9648
2608.76	0.9766
2618.21	0.97
2627.67	0.97
2637.12	0.97
2646.58	0.97
2656.04	0.968
2665.49	0.972
2674.95	0.974
2684.41	0.97
2693.86	0.9697
2703.32	0.9584
2712.78	0.946
2722.23	0.9465
2731.69	0.957
2741.14	0.9547
2750.6	0.9577
2760.06	0.9678
2769.51	0.9625
2778.97	0.955
2788.43	0.9546
2797.88	0.9388
2807.34	0.933
2816.79	0.9256
2826.25	0.9128
2835.71	0.8936
2845.16	0.8478
2854.62	0.6066
2864.08	0.3783
2873.53	0.3598
2882.99	0.5279
2892.44	0.5459
2901.9	0.3318
2911.36	0.3783
2920.81	0.4138
2930.27	0.3614
2939.73	0.2554
2949.18	0.113
2958.64	0.0329
2968.1	0.025
2977.55	0.2116
2987.01	0.5372
2996.46	0.7393
3005.92	0.8259
3015.38	0.8719
3024.83	0.885
3034.29	0.8373
3043.75	0.7282
3053.2	0.8039
3062.66	0.7981
3072.11	0.8346
3081.57	0.9086
3091.03	0.926
3100.48	0.9053
3109.94	0.9471
3119.4	0.9531
3128.85	0.9545
3138.31	0.9697
3147.77	0.9769
3157.22	0.977
3166.68	0.975
3176.13	0.975
3185.59	0.977
3195.05	0.979
3204.5	0.979
3213.96	0.979
3223.42	0.9808
3232.87	0.979
3242.33	0.977
3251.78	0.9741
3261.24	0.9596
3270.7	0.938
3280.15	0.8836
3289.61	0.7945
3299.07	0.6463
3308.52	0.3502
3317.98	0.1097
3327.43	0.6157
3336.89	0.9368
3346.35	0.9786
3355.8	0.9913
3365.26	1.0008
3374.72	1.0086
3384.17	1.0156
3393.63	1.0196
3403.09	1.02
3412.54	1.02
3422	1.018
3431.45	1.016
3440.91	1.0145
3450.37	1.012
3459.82	1.0075
3469.28	1.0055
3478.74	1.003
3488.19	1
3497.65	0.998
3507.1	0.996
3516.56	0.994
3526.02	0.996
3535.47	0.996
3544.93	0.996
3554.39	0.996
3563.84	0.996
3573.3	0.998
3582.76	0.998
3592.21	0.996
3601.67	0.998
3611.12	1
3620.58	1.001
3630.04	1.001
3639.49	1.001
3648.95	1.001
3658.41	1
3667.86	1
3677.32	1
3686.77	0.996
3696.23	0.994
3705.69	0.996
3715.14	1.0006
3724.6	1.0023
3734.06	1.005
3743.51	1.0043
3752.97	1.005
3762.42	1.003
3771.88	1.0018
3781.34	1.001
3790.79	1.001
3800.25	1.001
