Infrared Spectrum: Ethoxyacetaldehyde diethyl acetal
Formula: C 8 H 18 O 3
CAS: 4819-77-6
State: gas
Origin: EPA-IR VAPOR PHASE LIBRARY
1/CM	ABSORBANCE
549.8	0.00271
559.446	0.00278
569.092	0.00349
578.738	0.00324
588.384	0.00297
598.03	0.00236
607.676	0.0019872
617.322	0.0015353
626.968	0.0012729
636.614	0.00118567
646.26	0.0010281
655.906	0.0011066
665.552	0.000993
675.198	0.000818
684.844	0.000808
694.49	0.00115513
704.136	0.00117188
713.782	0.001306
723.428	0.0014613
733.073	0.0015542
742.719	0.0017244
752.365	0.0017365
762.011	0.001834
771.657	0.00223
781.303	0.00293
790.949	0.00336
800.595	0.00396
810.241	0.00452
819.887	0.00476
829.533	0.00523
839.179	0.00663
848.825	0.0093
858.471	0.01164
868.117	0.01072
877.763	0.00804
887.409	0.0068
897.055	0.00713
906.701	0.00832
916.347	0.01044
925.993	0.01279
935.639	0.01398
945.285	0.01319
954.931	0.0114
964.577	0.01025
974.223	0.0115
983.869	0.01529
993.515	0.02059
1003.16	0.02566
1012.81	0.02953
1022.45	0.03258
1032.1	0.0371
1041.74	0.05087
1051.39	0.0791
1061.04	0.11226
1070.68	0.13205
1080.33	0.13093
1089.97	0.11987
1099.62	0.11841
1109.27	0.14194
1118.91	0.18188
1128.56	0.18837
1138.2	0.1428
1147.85	0.09486
1157.5	0.07078
1167.14	0.058
1176.79	0.04809
1186.43	0.03596
1196.08	0.02453
1205.73	0.01715
1215.37	0.01331
1225.02	0.01165
1234.66	0.01222
1244.31	0.01371
1253.96	0.01505
1263.6	0.01657
1273.25	0.0175
1282.89	0.01713
1292.54	0.01767
1302.19	0.01922
1311.83	0.01946
1321.48	0.01703
1331.12	0.01558
1340.77	0.01859
1350.42	0.01908
1360.06	0.01652
1369.71	0.02196
1379.35	0.02909
1389	0.02841
1398.65	0.02345
1408.29	0.01704
1417.94	0.01296
1427.58	0.01046
1437.23	0.01028
1446.88	0.01203
1456.52	0.01212
1466.17	0.01026
1475.81	0.00865
1485.46	0.00783
1495.11	0.0056
1504.75	0.00384
1514.4	0.0031
1524.04	0.00253
1533.69	0.00221
1543.34	0.0019401
1552.98	0.0016129
1562.63	0.0015853
1572.27	0.0015576
1581.92	0.0015154
1591.57	0.0014229
1601.21	0.0015093
1610.86	0.0015231
1620.5	0.0014942
1630.15	0.0015936
1639.79	0.001657
1649.44	0.0017592
1659.09	0.00197
1668.73	0.0018778
1678.38	0.0017652
1688.02	0.0015777
1697.67	0.0014375
1707.32	0.0013281
1716.96	0.0013568
1726.61	0.0014243
1736.25	0.001265
1745.9	0.0013079
1755.55	0.0013607
1765.19	0.0012513
1774.84	0.00114555
1784.48	0.00113677
1794.13	0.0010587
1803.78	0.0010115
1813.42	0.000999
1823.07	0.0010307
1832.71	0.0010299
1842.36	0.0010667
1852.01	0.00115259
1861.65	0.0012385
1871.3	0.0012796
1880.94	0.001473
1890.59	0.0017152
1900.24	0.0019023
1909.88	0.0019591
1919.53	0.00211
1929.17	0.00222
1938.82	0.00219
1948.47	0.00223
1958.11	0.00234
1967.76	0.00246
1977.4	0.00255
1987.05	0.00245
1996.7	0.00232
2006.34	0.00221
2015.99	0.0019911
2025.63	0.001712
2035.28	0.001533
2044.93	0.0014349
2054.57	0.0012987
2064.22	0.0012185
2073.86	0.0012515
2083.51	0.0013159
2093.16	0.0013539
2102.8	0.0014111
2112.45	0.0014174
2122.09	0.0014837
2131.74	0.0015207
2141.39	0.0016821
2151.03	0.0016805
2160.68	0.0016386
2170.32	0.0015271
2179.97	0.0014682
2189.62	0.0013758
2199.26	0.0013965
2208.91	0.0013122
2218.55	0.0013537
2228.2	0.0013275
2237.85	0.0013683
2247.49	0.0012611
2257.14	0.0013671
2266.78	0.0012567
2276.43	0.0012883
2286.08	0.00114221
2295.72	0.00117258
2305.37	0.00113193
2315.01	0.0010452
2324.66	0.0010022
2334.31	0.000873
2343.95	0.000929
2353.6	0.000979
2363.24	0.000857
2372.89	0.000939
2382.53	0.000987
2392.18	0.000959
2401.83	0.00109211
2411.47	0.0010839
2421.12	0.0010664
2430.76	0.0010105
2440.41	0.000987
2450.06	0.000977
2459.7	0.000945
2469.35	0.000808
2478.99	0.000873
2488.64	0.000873
2498.29	0.000835
2507.93	0.000764
2517.58	0.00075
2527.22	0.000761
2536.87	0.000912
2546.52	0.000892
2556.16	0.000976
2565.81	0.0010528
2575.45	0.00109485
2585.1	0.001381
2594.75	0.0016143
2604.39	0.0019386
2614.04	0.0020147
2623.68	0.00212
2633.33	0.00213
2642.98	0.00221
2652.62	0.00226
2662.27	0.00249
2671.91	0.00258
2681.56	0.00277
2691.21	0.00303
2700.85	0.0035
2710.5	0.00399
2720.14	0.00459
2729.79	0.00511
2739.44	0.00561
2749.08	0.00619
2758.73	0.00674
2768.37	0.00752
2778.02	0.00831
2787.67	0.0093
2797.31	0.01051
2806.96	0.012
2816.6	0.01363
2826.25	0.01591
2835.9	0.01941
2845.54	0.02618
2855.19	0.03784
2864.83	0.05498
2874.48	0.07079
2884.13	0.0716
2893.77	0.0619
2903.42	0.0603
2913.06	0.0665
2922.71	0.06981
2932.36	0.07369
2942	0.07261
2951.65	0.05877
2961.29	0.05422
2970.94	0.07024
2980.59	0.09283
2990.23	0.07224
2999.88	0.03611
3009.52	0.02159
3019.17	0.01527
3028.82	0.01114
3038.46	0.00834
3048.11	0.00631
3057.75	0.00492
3067.4	0.00387
3077.04	0.00307
3086.69	0.0028
3096.34	0.00244
3105.98	0.00235
3115.63	0.0020148
3125.27	0.0018656
3134.92	0.0015489
3144.57	0.0016417
3154.21	0.0014435
3163.86	0.0014057
3173.5	0.0014096
3183.15	0.0013734
3192.8	0.0013643
3202.44	0.0012794
3212.09	0.0010868
3221.73	0.000975
3231.38	0.000694
3241.03	0.000492
3250.67	0.000545
3260.32	0.00043
3269.96	0.00044
3279.61	0.000334
3289.26	0.000432
3298.9	0.00015
3308.55	0.000144
3318.19	0.000195
3327.84	0.000181
3337.49	0.000164
3347.13	0.000232
3356.78	0.000203
3366.42	0.000286
3376.07	0.000229
3385.72	0.000248
3395.36	0.000294
3405.01	0.000271
3414.65	0.000305
3424.3	0.000266
3433.95	0.000207
3443.59	0.000279
3453.24	0.000206
3462.88	0.000277
3472.53	0.00021
3482.18	0.000298
3491.82	0.000115
3501.47	9e-05
3511.11	0.000101
3520.76	0.000146
3530.41	0.000188
3540.05	0.000247
3549.7	0.000124
3559.34	8e-05
3568.99	0.000215
3578.64	2e-05
3588.28	0.00026
3597.93	0.000184
3607.57	0.000206
3617.22	0.000399
3626.87	0.000319
3636.51	0.00031
3646.16	0.000256
3655.8	0.00029
3665.45	0.000309
3675.1	0.000362
3684.74	0.000451
3694.39	0.000644
3704.03	0.000656
3713.68	0.000339
3723.33	0.000234
3732.97	0.000381
3742.62	0.00037
3752.26	0.000231
3761.91	0.00023
3771.56	0.000446
3781.2	0.000434
3790.85	0.000416
3800.49	0.000288
3810.14	0.000309
3819.78	0.000273
3829.43	0.000569
3839.08	0.00028
3848.72	0.000356
3858.37	0.000501
3868.01	0.00043
3877.66	0.000342
3887.31	0.000381
3896.95	0.00044
3906.6	0.000451
3916.24	0.000539
3925.89	0.00066
3935.54	0.000666
3945.18	0.000635
3954.83	0.000672
3964.47	0.000835
3974.12	0.000934
3983.77	0.000808
3993.41	0.0012359
