Infrared Spectrum: INDIGOTIN
Formula: C16 H10 N2 O2
CAS: 482-89-3
State: SOLID (MINERAL OIL MULL)
Class: COBLENTZ
Instrument: Not specified, most likely a prism, grating, or hybrid spectrometer.
Sampling: TRANSMISSION
Resolution: 4
Origin: WYANDOTTE CHEMICALS CORP., WYANDOTTE, MICHIGAN, USA
MICROMETERS	TRANSMITTANCE
2.027	0.494
2.06776	0.516
2.10851	0.524
2.14927	0.526
2.19002	0.531
2.23078	0.546
2.27154	0.557
2.31229	0.572
2.35305	0.592
2.39381	0.596
2.43456	0.604
2.47532	0.613
2.51607	0.621
2.55683	0.633
2.59759	0.645
2.63834	0.666
2.6791	0.647
2.71986	0.611
2.76061	0.582
2.80137	0.541
2.84212	0.505
2.88288	0.483
2.92364	0.461
2.96439	0.422
3.00515	0.287
3.0459	0.127
3.08666	0.243
3.12742	0.356
3.16817	0.427
3.20893	0.478
3.24969	0.451
3.29044	0.412
3.3312	0.1
3.37195	0.04
3.41271	0.078
3.45347	0.091
3.49422	0.321
3.53498	0.623
3.57573	0.667
3.61649	0.688
3.65725	0.691
3.698	0.71
3.73876	0.715
3.77952	0.718
3.82027	0.749
3.86103	0.77
3.90178	0.773
3.94254	0.78
3.9833	0.787
4.02405	0.785
4.06481	0.795
4.10557	0.804
4.14632	0.814
4.18708	0.802
4.22783	0.79
4.26859	0.812
4.30935	0.848
4.3501	0.865
4.39086	0.855
4.43161	0.853
4.47237	0.855
4.51313	0.858
4.55388	0.863
4.59464	0.875
4.6354	0.88
4.67615	0.885
4.71691	0.879
4.75766	0.882
4.79842	0.901
4.83918	0.899
4.87993	0.908
4.92069	0.918
4.96145	0.909
5.0022	0.914
5.04296	0.919
5.08371	0.93
5.12447	0.925
5.16523	0.882
5.20598	0.923
5.24674	0.901
5.28749	0.94
5.32825	0.911
5.36901	0.936
5.40976	0.931
5.45052	0.931
5.49128	0.921
5.53203	0.94
5.57279	0.918
5.61354	0.945
5.6543	0.955
5.69506	0.942
5.73581	0.928
5.77657	0.909
5.81733	0.87
5.85808	0.875
5.89884	0.831
5.93959	0.785
5.98035	0.681
6.02111	0.505
6.06186	0.115
6.10262	0.045
6.14337	0.054
6.18413	0.11
6.22489	0.245
6.26564	0.35
6.3064	0.543
6.34716	0.643
6.38791	0.713
6.42867	0.732
6.46942	0.747
6.51018	0.739
6.55094	0.742
6.59169	0.706
6.63245	0.567
6.6732	0.074
6.71396	0.182
6.75472	0.175
6.79547	0.044
6.83623	0.216
6.87699	0.367
6.91774	0.494
6.9585	0.558
6.99925	0.391
7.04001	0.241
7.08077	0.241
7.12152	0.195
7.16228	0.131
7.20304	0.231
7.24379	0.304
7.28455	0.439
7.3253	0.543
7.36606	0.58
7.40682	0.548
7.44757	0.485
7.48833	0.48
7.52908	0.255
7.56984	0.129
7.6106	0.349
7.65135	0.19
7.69211	0.34
7.73287	0.54
7.77362	0.655
7.81438	0.695
7.85513	0.689
7.89589	0.66
7.93665	0.654
7.9774	0.672
8.01816	0.696
8.05892	0.683
8.09967	0.637
8.14043	0.49
8.18118	0.517
8.22194	0.483
8.2627	0.282
8.30345	0.093
8.34421	0.144
8.38496	0.166
8.42572	0.168
8.46648	0.097
8.50723	0.083
8.54799	0.204
8.58875	0.453
8.6295	0.553
8.67026	0.538
8.71101	0.367
8.75177	0.177
8.79253	0.1
8.83328	0.069
8.87404	0.103
8.91479	0.212
8.95555	0.264
8.99631	0.219
9.03706	0.231
9.07782	0.166
9.11858	0.323
9.15933	0.238
9.20009	0.066
9.24084	0.039
9.2816	0.039
9.32236	0.039
9.36311	0.085
9.40387	0.216
9.44463	0.345
9.48538	0.422
9.52614	0.463
9.56689	0.448
9.60765	0.49
9.64841	0.522
9.68916	0.551
9.72992	0.582
9.77067	0.604
9.81143	0.618
9.85219	0.407
9.89294	0.516
9.9337	0.584
9.97446	0.628
10.0152	0.693
10.056	0.717
10.0967	0.732
10.1375	0.737
10.1782	0.693
10.219	0.715
10.2597	0.717
10.3005	0.706
10.3413	0.71
10.382	0.715
10.4228	0.708
10.4635	0.717
10.5043	0.729
10.545	0.73
10.5858	0.708
10.6266	0.754
10.6673	0.764
10.7081	0.771
10.7488	0.783
10.7896	0.788
10.8303	0.788
10.8711	0.797
10.9118	0.814
10.9526	0.824
10.9934	0.826
11.0341	0.826
11.0749	0.826
11.1156	0.824
11.1564	0.816
11.1971	0.785
11.2379	0.756
11.2787	0.708
11.3194	0.601
11.3602	0.371
11.4009	0.458
11.4417	0.618
11.4824	0.72
11.5232	0.758
11.5639	0.746
11.6047	0.683
11.6455	0.574
11.6862	0.672
11.727	0.77
11.7677	0.792
11.8085	0.816
11.8492	0.824
11.89	0.826
11.9308	0.827
11.9715	0.827
12.0123	0.827
12.053	0.822
12.0938	0.821
12.1345	0.821
12.1753	0.819
12.216	0.821
12.2568	0.822
12.2976	0.826
12.3383	0.827
12.3791	0.827
12.4198	0.829
12.4606	0.833
12.5013	0.833
12.5421	0.821
12.5829	0.802
12.6236	0.695
12.6644	0.63
12.7051	0.751
12.7459	0.788
12.7866	0.792
12.8274	0.788
12.8681	0.781
12.9089	0.771
12.9497	0.746
12.9904	0.664
13.0312	0.563
13.0719	0.534
13.1127	0.625
13.1534	0.592
13.1942	0.362
13.235	0.194
13.2757	0.253
13.3165	0.391
13.3572	0.403
13.398	0.367
13.4387	0.483
13.4795	0.579
13.5202	0.623
13.561	0.632
13.6018	0.635
13.6425	0.616
13.6833	0.599
13.724	0.56
13.7648	0.504
13.8055	0.437
13.8463	0.374
13.887	0.323
13.9278	0.293
13.9686	0.274
14.0093	0.264
14.0501	0.279
14.0908	0.311
14.1316	0.371
14.1723	0.408
14.2131	0.419
14.2539	0.361
14.2946	0.301
14.3354	0.255
14.3761	0.277
14.4169	0.362
14.4576	0.47
14.4984	0.534
14.5391	0.589
14.5799	0.625
14.6207	0.659
14.6614	0.666
14.7022	0.676
14.7429	0.674
14.7837	0.669
14.8244	0.655
14.8652	0.652
14.906	0.645
14.9467	0.642
14.9875	0.613
15.0282	0.572
15.069	0.528
15.1097	0.529
15.1505	0.555
15.1912	0.58
15.232	0.592
15.2728	0.58
15.3135	0.57
15.3543	0.558
15.395	0.548
15.4358	0.533
15.4765	0.524
15.5173	0.514
15.5581	0.505
15.5988	0.504
15.6396	0.502
15.6803	0.502
15.7211	0.502
15.7618	0.502
15.8026	0.5
15.8433	0.5
15.8841	0.5
15.9249	0.505
15.9656	0.509
