Infrared Spectrum: 1,2-CYCLOPENTENOPHENANTHRENE
Formula: C17 H14
CAS: 482-66-6
State: SOLID
Class: COBLENTZ
Instrument: Not specified, most likely a grating spectrometer.
Sampling: TRANSMISSION
Path length: 0.005 CM (SMEAR)
Resolution: 4
Origin: PROCTER AND GAMBLE CO.
MICROMETERS	TRANSMITTANCE
2.027	0.863
2.06077	0.866
2.09453	0.869
2.1283	0.876
2.16206	0.881
2.19583	0.878
2.22959	0.88
2.26336	0.881
2.29713	0.893
2.33089	0.891
2.36466	0.888
2.39842	0.876
2.43219	0.876
2.46595	0.883
2.49972	0.888
2.53349	0.891
2.56725	0.896
2.60102	0.898
2.63478	0.912
2.66855	0.917
2.70231	0.913
2.73608	0.917
2.76985	0.922
2.80361	0.922
2.83738	0.923
2.87114	0.922
2.90491	0.92
2.93867	0.923
2.97244	0.923
3.00621	0.927
3.03997	0.925
3.07374	0.927
3.1075	0.927
3.14127	0.92
3.17503	0.918
3.2088	0.913
3.24257	0.896
3.27633	0.785
3.3101	0.689
3.34386	0.679
3.37763	0.643
3.41139	0.373
3.44516	0.278
3.47893	0.283
3.51269	0.326
3.54646	0.353
3.58022	0.574
3.61399	0.722
3.64776	0.797
3.68152	0.836
3.71529	0.861
3.74905	0.893
3.78282	0.92
3.81658	0.923
3.85035	0.929
3.88412	0.929
3.91788	0.932
3.95165	0.937
3.98541	0.939
4.01918	0.951
4.05294	0.957
4.08671	0.956
4.12048	0.961
4.15424	0.961
4.18801	0.961
4.22177	0.964
4.25554	0.971
4.2893	0.962
4.32307	0.957
4.35684	0.964
4.3906	0.969
4.42437	0.969
4.45813	0.972
4.4919	0.976
4.52566	0.976
4.55943	0.978
4.5932	0.978
4.62696	0.978
4.66073	0.978
4.69449	0.978
4.72826	0.979
4.76202	0.983
4.79579	0.983
4.82956	0.981
4.86332	0.983
4.89709	0.984
4.93085	0.986
4.96462	0.986
4.99838	0.996
5.03215	0.989
5.06592	0.993
5.09968	0.993
5.13345	0.979
5.16721	0.959
5.20098	0.956
5.23474	0.947
5.26851	0.929
5.30228	0.932
5.33604	0.944
5.36981	0.967
5.40357	0.976
5.43734	0.971
5.4711	0.962
5.50487	0.967
5.53864	0.967
5.5724	0.962
5.60617	0.961
5.63993	0.949
5.6737	0.942
5.70746	0.944
5.74123	0.951
5.775	0.961
5.80876	0.959
5.84253	0.961
5.87629	0.954
5.91006	0.951
5.94382	0.945
5.97759	0.951
6.01136	0.956
6.04512	0.951
6.07889	0.952
6.11265	0.937
6.14642	0.898
6.18018	0.832
6.21395	0.826
6.24772	0.814
6.28148	0.793
6.31525	0.869
6.34901	0.878
6.38278	0.912
6.41654	0.929
6.45031	0.942
6.48408	0.945
6.51784	0.93
6.55161	0.876
6.58537	0.92
6.61914	0.927
6.65291	0.903
6.68667	0.819
6.72044	0.847
6.7542	0.804
6.78797	0.689
6.82173	0.462
6.8555	0.358
6.88927	0.402
6.92303	0.506
6.9568	0.577
6.99056	0.646
7.02433	0.761
7.05809	0.75
7.09186	0.847
7.12563	0.876
7.15939	0.886
7.19316	0.858
7.22692	0.716
7.26069	0.665
7.29445	0.663
7.32822	0.684
7.36199	0.748
7.39575	0.79
7.42952	0.788
7.46328	0.814
7.49705	0.826
7.53081	0.814
7.56458	0.842
7.59835	0.873
7.63211	0.864
7.66588	0.831
7.69964	0.832
7.73341	0.851
7.76717	0.876
7.80094	0.883
7.83471	0.876
7.86847	0.881
7.90224	0.883
7.936	0.846
7.96977	0.765
8.00353	0.802
8.0373	0.839
8.07107	0.854
8.10483	0.861
8.1386	0.864
8.17236	0.849
8.20613	0.842
8.23989	0.878
8.27366	0.89
8.30743	0.9
8.34119	0.891
8.37496	0.863
8.40872	0.797
8.44249	0.839
8.47625	0.876
8.51002	0.89
8.54379	0.868
8.57755	0.844
8.61132	0.853
8.64508	0.853
8.67885	0.861
8.71261	0.866
8.74638	0.89
8.78015	0.917
8.81391	0.929
8.84768	0.89
8.88144	0.871
8.91521	0.913
8.94897	0.932
8.98274	0.942
9.01651	0.951
9.05027	0.956
9.08404	0.957
9.1178	0.957
9.15157	0.956
9.18533	0.952
9.2191	0.945
9.25287	0.942
9.28663	0.923
9.3204	0.92
9.35416	0.929
9.38793	0.934
9.4217	0.935
9.45546	0.93
9.48923	0.934
9.52299	0.94
9.55676	0.944
9.59052	0.947
9.62429	0.932
9.65806	0.907
9.69182	0.861
9.72559	0.839
9.75935	0.871
9.79312	0.9
9.82688	0.927
9.86065	0.934
9.89442	0.939
9.92818	0.945
9.96195	0.952
9.99571	0.952
10.0295	0.954
10.0632	0.957
10.097	0.961
10.1308	0.959
10.1645	0.961
10.1983	0.964
10.2321	0.957
10.2658	0.951
10.2996	0.944
10.3334	0.94
10.3671	0.939
10.4009	0.932
10.4347	0.922
10.4684	0.908
10.5022	0.917
10.536	0.912
10.5697	0.902
10.6035	0.873
10.6373	0.849
10.671	0.863
10.7048	0.905
10.7386	0.925
10.7723	0.94
10.8061	0.951
10.8399	0.959
10.8736	0.964
10.9074	0.964
10.9412	0.967
10.9749	0.972
11.0087	0.978
11.0425	0.979
11.0762	0.979
11.11	0.979
11.1437	0.979
11.1775	0.976
11.2113	0.971
11.245	0.961
11.2788	0.951
11.3126	0.92
11.3463	0.9
11.3801	0.876
11.4139	0.88
11.4476	0.893
11.4814	0.903
11.5152	0.885
11.5489	0.792
11.5827	0.694
11.6165	0.663
11.6502	0.707
11.684	0.81
11.7178	0.878
11.7515	0.913
11.7853	0.927
11.8191	0.932
11.8528	0.934
11.8866	0.932
11.9204	0.927
11.9541	0.905
11.9879	0.864
12.0217	0.81
12.0554	0.701
12.0892	0.614
12.123	0.586
12.1567	0.567
12.1905	0.521
12.2243	0.442
12.258	0.347
12.2918	0.246
12.3255	0.177
12.3593	0.114
12.3931	0.123
12.4268	0.256
12.4606	0.425
12.4944	0.567
12.5281	0.699
12.5619	0.763
12.5957	0.817
12.6294	0.841
12.6632	0.863
12.697	0.875
12.7307	0.88
12.7645	0.883
12.7983	0.876
12.832	0.863
12.8658	0.837
12.8996	0.809
12.9333	0.785
12.9671	0.758
13.0009	0.733
13.0346	0.689
13.0684	0.633
13.1022	0.623
13.1359	0.641
13.1697	0.667
13.2035	0.641
13.2372	0.565
13.271	0.439
13.3048	0.337
13.3385	0.228
13.3723	0.179
13.4061	0.145
13.4398	0.114
13.4736	0.146
13.5073	0.266
13.5411	0.459
13.5749	0.606
13.6086	0.689
13.6424	0.778
13.6762	0.8
13.7099	0.829
13.7437	0.841
13.7775	0.846
13.8112	0.861
13.845	0.861
13.8788	0.851
13.9125	0.809
13.9463	0.777
13.9801	0.75
14.0138	0.766
14.0476	0.802
14.0814	0.832
14.1151	0.829
14.1489	0.805
14.1827	0.805
14.2164	0.837
14.2502	0.859
14.284	0.88
14.3177	0.881
14.3515	0.875
14.3853	0.863
14.419	0.851
14.4528	0.829
14.4866	0.822
14.5203	0.824
14.5541	0.829
14.5879	0.824
14.6216	0.819
14.6554	0.817
14.6891	0.822
14.7229	0.841
14.7567	0.842
14.7904	0.841
14.8242	0.837
14.858	0.827
14.8917	0.829
14.9255	0.832
14.9593	0.839
14.993	0.839
