Infrared Spectrum: Diphenic acid
Formula: C 14 H 10 O 4
CAS: 482-05-3
State: solid
Instrument: Bruker Tensor 37 FTIR
Resolution: 0.96450084
Origin: Pacific Northwest National Laboratory Under IARPA Contract
1/cm	Reflectance
7498.99	0.746857
7481.63	0.734598
7464.27	0.73512
7446.91	0.735364
7429.55	0.733632
7412.19	0.733353
7394.84	0.732141
7377.48	0.727632
7360.12	0.727073
7342.76	0.725662
7325.4	0.726797
7308.04	0.72143
7290.68	0.71848
7273.32	0.71662
7255.96	0.719525
7238.6	0.718958
7221.24	0.716772
7203.88	0.714856
7186.52	0.716555
7169.16	0.717707
7151.8	0.713553
7134.44	0.711751
7117.08	0.712033
7099.72	0.712501
7082.36	0.710812
7065	0.705364
7047.64	0.704199
7030.28	0.701553
7012.92	0.69523
6995.56	0.694631
6978.2	0.687713
6960.84	0.682089
6943.48	0.671088
6926.12	0.665481
6908.76	0.650997
6891.4	0.63894
6874.04	0.62374
6856.68	0.607274
6839.32	0.583302
6821.96	0.549214
6804.6	0.531785
6787.24	0.494628
6769.88	0.448944
6752.52	0.38512
6735.16	0.396074
6717.8	0.421485
6700.44	0.466845
6683.08	0.47936
6665.72	0.477225
6648.36	0.473107
6631	0.47949
6613.64	0.482201
6596.28	0.476235
6578.92	0.466573
6561.56	0.465767
6544.2	0.457724
6526.85	0.451205
6509.49	0.445823
6492.13	0.437034
6474.77	0.429355
6457.41	0.4195
6440.05	0.413598
6422.69	0.406945
6405.33	0.400542
6387.97	0.394379
6370.61	0.388626
6353.25	0.387535
6335.89	0.38498
6318.53	0.382528
6301.17	0.379815
6283.81	0.375895
6266.45	0.37139
6249.09	0.367463
6231.73	0.36543
6214.37	0.363523
6197.01	0.36371
6179.65	0.362295
6162.29	0.359238
6144.93	0.348659
6127.57	0.33642
6110.21	0.33096
6092.85	0.30146
6075.49	0.27075
6058.13	0.27749
6040.77	0.29924
6023.41	0.29957
6006.05	0.30493
5988.69	0.30901
5971.33	0.30846
5953.97	0.30208
5936.61	0.27258
5919.25	0.26055
5901.89	0.26205
5884.53	0.26553
5867.17	0.26029
5849.81	0.24514
5832.45	0.22372
5815.09	0.22913
5797.73	0.21989
5780.37	0.20692
5763.01	0.215
5745.65	0.21554
5728.29	0.2155
5710.93	0.2132
5693.57	0.18879
5676.21	0.20318
5658.86	0.20229
5641.5	0.20917
5624.14	0.20167
5606.78	0.20077
5589.42	0.19191
5572.06	0.18333
5554.7	0.18742
5537.34	0.17795
5519.98	0.1564
5502.62	0.14023
5485.26	0.11982
5467.9	0.09817
5450.54	0.07672
5433.18	0.05839
5415.82	0.04363
5398.46	0.03623
5381.1	0.03256
5363.74	0.03018
5346.38	0.02884
5329.02	0.02802
5311.66	0.02755
5294.3	0.02732
5276.94	0.02779
5259.58	0.02791
5242.22	0.02807
5224.86	0.02846
5207.5	0.02742
5190.14	0.0284
5172.78	0.0291
5155.42	0.03005
5138.06	0.03025
5120.7	0.03054
5103.34	0.03017
5085.98	0.02965
5068.62	0.03024
5051.26	0.03033
5033.9	0.03011
5016.54	0.03123
4999.18	0.03226
4981.82	0.0342
4964.46	0.03616
4947.1	0.03836
4929.74	0.04054
4912.38	0.04389
4895.02	0.04674
4877.66	0.04891
4860.3	0.05132
4842.94	0.05628
4825.58	0.0591
4808.22	0.05713
4790.86	0.05485
4773.51	0.05907
4756.15	0.05968
4738.79	0.05066
4721.43	0.04753
4704.07	0.04661
4686.71	0.04427
4669.35	0.04155
4651.99	0.03813
4634.63	0.03378
4617.27	0.02402
4599.91	0.03174
4582.55	0.0346477
4565.19	0.0318089
4547.83	0.02864
4530.47	0.0361157
4513.11	0.04417
4495.75	0.03957
4478.39	0.02499
4461.03	0.02535
4443.67	0.03074
4426.31	0.03186
4408.95	0.01968
4391.59	0.02974
4374.23	0.03139
4356.87	0.03958
4339.51	0.04628
4322.15	0.03198
4304.79	0.03787
4287.43	0.07259
4270.07	0.05476
4252.71	0.03119
4235.35	0.03695
4217.99	0.02386
4200.63	0.02883
4183.27	0.03723
4165.91	0.03564
4148.55	0.03003
4131.19	0.02864
4113.83	0.0593
4096.47	0.05522
4079.11	0.04664
4061.75	0.09019
4044.39	0.746524
4027.03	0.742449
4009.67	0.741729
3992.31	0.741978
3974.95	0.741382
3957.59	0.738056
3940.23	0.738166
3922.87	0.735062
3905.52	0.734296
3888.16	0.73277
3870.8	0.729772
3853.44	0.728039
3836.08	0.726703
3818.72	0.726968
3801.36	0.726908
3784	0.723816
3766.64	0.722733
3749.28	0.721851
3731.92	0.723412
3714.56	0.721922
3697.2	0.718962
3679.84	0.717774
3662.48	0.71882
3645.12	0.716824
3627.76	0.714524
3610.4	0.711897
3593.04	0.709774
3575.68	0.705585
3558.32	0.702087
3540.96	0.697775
3523.6	0.69313
3506.24	0.686429
3488.88	0.677228
3471.52	0.670021
3454.16	0.654669
3436.8	0.645241
3419.44	0.629878
3402.08	0.611013
3384.72	0.586613
3367.36	0.555292
3350	0.534308
3332.64	0.497112
3315.28	0.440787
3297.92	0.389375
3280.56	0.418696
3263.2	0.446514
3245.84	0.486306
3228.48	0.49303
3211.12	0.489281
3193.76	0.488182
3176.4	0.492267
3159.04	0.493755
3141.68	0.484336
3124.32	0.480075
3106.96	0.477562
3089.6	0.468733
3072.24	0.463883
3054.88	0.456799
3037.53	0.447415
3020.17	0.43971
3002.81	0.43171
2985.45	0.424339
2968.09	0.417647
2950.73	0.411368
2933.37	0.40498
2916.01	0.401556
2898.65	0.40008
2881.29	0.397891
2863.93	0.394952
2846.57	0.392636
2829.21	0.388262
2811.85	0.383068
2794.49	0.379545
2777.13	0.377423
2759.77	0.375345
2742.41	0.375943
2725.05	0.374629
2707.69	0.369535
2690.33	0.355735
2672.97	0.350216
2655.61	0.340252
2638.25	0.291185
2620.89	0.29529
2603.53	0.293566
2586.17	0.314222
2568.81	0.314624
2551.45	0.319824
2534.09	0.319423
2516.73	0.31904
2499.37	0.30612
2482.01	0.27457
2464.65	0.273758
2447.29	0.273102
2429.93	0.277782
2412.57	0.266779
2395.21	0.25281
2377.85	0.234782
2360.49	0.221634
2343.13	0.222401
2325.77	0.22605
2308.41	0.227401
2291.05	0.225594
2273.69	0.224581
2256.33	0.216379
2238.97	0.206535
2221.61	0.212374
2204.25	0.216023
2186.89	0.215257
2169.53	0.205376
2152.18	0.20773
2134.82	0.195221
2117.46	0.195951
2100.1	0.193825
2082.74	0.17888
2065.38	0.159219
2048.02	0.139785
2030.66	0.117998
2013.3	0.0952429
1995.94	0.0738112
1978.58	0.054852
1961.22	0.0418051
1943.86	0.0353819
1926.5	0.0320518
1909.14	0.0302453
1891.78	0.0288767
1874.42	0.0285847
1857.06	0.0280282
1839.7	0.0277271
1822.34	0.0280829
1804.98	0.028384
1787.62	0.0287672
1770.26	0.0287033
1752.9	0.0285026
1735.54	0.0289771
1718.18	0.0294697
1700.82	0.030227
1683.46	0.0309387
1666.1	0.0306285
1648.74	0.0303548
1631.38	0.0301358
1614.02	0.0306741
1596.66	0.0309113
1579.3	0.0310755
1561.94	0.0316959
1544.58	0.033028
1527.22	0.0352177
1509.86	0.0372706
1492.5	0.0394968
1475.14	0.0417412
1457.78	0.0457374
1440.42	0.0481461
1423.06	0.0508376
1405.7	0.0538119
1388.34	0.0581913
1370.98	0.0607825
1353.62	0.0567589
1336.26	0.0575527
1318.9	0.0598792
1301.54	0.0596603
1284.19	0.0506642
1266.83	0.0446973
1249.47	0.0471607
1232.11	0.0447338
1214.75	0.0399438
1197.39	0.0369147
1180.03	0.0316412
1162.67	0.0209482
1145.31	0.0382286
1127.95	0.0323003
1110.59	0.0324539
1093.23	0.0292143
1075.87	0.0445787
1058.51	0.0413671
1041.15	0.0304642
1023.79	0.0268421
1006.43	0.0250447
989.068	0.0332561
971.709	0.0282654
954.349	0.0237491
936.989	0.0302453
919.629	0.0322707
902.269	0.0428269
884.91	0.0331375
867.55	0.0293603
850.19	0.0412029
832.83	0.0777709
815.47	0.0633554
798.111	0.0447703
780.751	0.0289862
763.391	0.0243422
746.031	0.0299716
728.671	0.0376538
711.312	0.029342
693.952	0.0380917
676.592	0.030081
659.232	0.0459838
641.872	0.0796048
624.513	0.0404274
607.153	0.118253
