Infrared Spectrum: .alpha.-Mercaptoacetanilide
Formula: C 8 H 9 N O S
CAS: 4822-44-0
State: gas
Origin: EPA-IR VAPOR PHASE LIBRARY
1/CM	ABSORBANCE
549.8	0.004337
559.445	0.003517
569.09	0.003527
578.734	0.002397
588.379	0.002877
598.024	0.003057
607.669	0.003197
617.313	0.003397
626.958	0.003267
636.603	0.002587
646.248	0.002717
655.893	0.003047
665.537	0.004437
675.182	0.007677
684.827	0.011427
694.472	0.011377
704.116	0.008177
713.761	0.006047
723.406	0.006407
733.051	0.010187
742.695	0.017097
752.34	0.019417
761.985	0.011967
771.63	0.005747
781.275	0.003637
790.919	0.003117
800.564	0.002827
810.209	0.002307
819.854	0.002137
829.498	0.001547
839.143	0.001857
848.788	0.001657
858.433	0.001627
868.078	0.001817
877.722	0.001847
887.367	0.002367
897.012	0.002387
906.657	0.002527
916.301	0.002137
925.946	0.002047
935.591	0.002187
945.236	0.002157
954.88	0.002497
964.525	0.002317
974.17	0.002747
983.815	0.002967
993.46	0.003157
1003.1	0.002807
1012.75	0.002177
1022.39	0.002747
1032.04	0.003767
1041.68	0.002697
1051.33	0.002557
1060.97	0.003077
1070.62	0.004437
1080.26	0.003607
1089.91	0.003987
1099.55	0.005777
1109.2	0.005997
1118.84	0.006787
1128.49	0.007887
1138.13	0.007777
1147.78	0.007937
1157.42	0.007347
1167.07	0.007327
1176.71	0.007427
1186.36	0.007087
1196	0.007297
1205.64	0.007757
1215.29	0.009777
1224.93	0.014697
1234.58	0.022427
1244.22	0.021817
1253.87	0.012367
1263.51	0.007937
1273.16	0.008797
1282.8	0.012107
1292.45	0.014657
1302.09	0.020997
1311.74	0.025547
1321.38	0.020077
1331.03	0.011787
1340.67	0.008727
1350.32	0.006777
1359.96	0.005137
1369.61	0.004497
1379.25	0.004397
1388.9	0.004487
1398.54	0.006147
1408.18	0.009627
1417.83	0.013557
1427.47	0.022997
1437.12	0.044397
1446.76	0.036467
1456.41	0.012977
1466.05	0.011307
1475.7	0.013477
1485.34	0.019227
1494.99	0.043617
1504.63	0.068667
1514.28	0.086847
1523.92	0.090627
1533.57	0.054427
1543.21	0.021247
1552.86	0.011447
1562.5	0.008757
1572.15	0.008587
1581.79	0.011897
1591.44	0.024957
1601.08	0.040047
1610.73	0.021557
1620.37	0.007517
1630.01	0.004757
1639.66	0.004117
1649.3	0.004217
1658.95	0.004717
1668.59	0.005947
1678.24	0.007887
1687.88	0.011687
1697.53	0.022297
1707.17	0.047117
1716.82	0.068507
1726.46	0.059327
1736.11	0.031177
1745.75	0.015027
1755.4	0.008567
1765.04	0.005897
1774.69	0.004547
1784.33	0.003657
1793.98	0.002777
1803.62	0.002327
1813.27	0.001837
1822.91	0.001657
1832.55	0.001687
1842.2	0.001707
1851.84	0.001917
1861.49	0.002017
1871.13	0.001827
1880.78	0.0014918
1890.42	0.0012498
1900.07	0.0012811
1909.71	0.0014483
1919.36	0.001627
1929	0.001767
1938.65	0.001807
1948.29	0.001657
1957.94	0.0013329
1967.58	0.0009604
1977.23	0.0009648
1986.87	0.0008606
1996.52	0.0009296
2006.16	0.0009982
2015.81	0.0009074
2025.45	0.0008309
2035.1	0.0008283
2044.74	0.0008934
2054.38	0.0007414
2064.03	0.0008387
2073.67	0.0008807
2083.32	0.000875
2092.96	0.0009068
2102.61	0.0008333
2112.25	0.0007966
2121.9	0.0008223
2131.54	0.000789
2141.19	0.0008372
2150.83	0.00084
2160.48	0.000728
2170.12	0.0007563
2179.77	0.0007428
2189.41	0.0008274
2199.06	0.0007155
2208.7	0.0006394
2218.35	0.0006693
2227.99	0.0007368
2237.64	0.0006769
2247.28	0.0006766
2256.92	0.0007636
2266.57	0.000637
2276.21	0.0007697
2285.86	0.0006572
2295.5	0.00061145
2305.15	0.0007158
2314.79	0.0007619
2324.44	0.0007528
2334.08	0.0007308
2343.73	0.0008675
2353.37	0.0009532
2363.02	0.0010198
2372.66	0.0008969
2382.31	0.0009176
2391.95	0.0007601
2401.6	0.0007767
2411.24	0.000735
2420.89	0.000671
2430.53	0.0007585
2440.18	0.0007774
2449.82	0.0008962
2459.47	0.0008876
2469.11	0.000836
2478.75	0.0008235
2488.4	0.0007305
2498.04	0.0007346
2507.69	0.0007073
2517.33	0.0007438
2526.98	0.0006853
2536.62	0.0007476
2546.27	0.0007343
2555.91	0.0007157
2565.56	0.0007814
2575.2	0.0008367
2584.85	0.0009638
2594.49	0.0009368
2604.14	0.0006932
2613.78	0.0007103
2623.43	0.00058195
2633.07	0.0007462
2642.72	0.000771
2652.36	0.0007528
2662.01	0.0007794
2671.65	0.0006488
2681.29	0.0006984
2690.94	0.0006922
2700.58	0.00061463
2710.23	0.0006471
2719.87	0.00061667
2729.52	0.00060046
2739.16	0.000516
2748.81	0.0007468
2758.45	0.0007937
2768.1	0.0006691
2777.74	0.0006393
2787.39	0.0005118
2797.03	0.0005075
2806.68	0.00062608
2816.32	0.00057121
2825.97	0.0005633
2835.61	0.00056062
2845.26	0.0007198
2854.9	0.0006749
2864.55	0.00062647
2874.19	0.00063209
2883.84	0.000662
2893.48	0.0007039
2903.12	0.000966
2912.77	0.0012769
2922.41	0.001737
2932.06	0.001887
2941.7	0.001847
2951.35	0.001567
2960.99	0.001587
2970.64	0.0011494
2980.28	0.0012177
2989.93	0.001198
2999.57	0.0013732
3009.22	0.002077
3018.86	0.003527
3028.51	0.005907
3038.15	0.006617
3047.8	0.005357
3057.44	0.006857
3067.09	0.009757
3076.73	0.008187
3086.38	0.005267
3096.02	0.004267
3105.67	0.003377
3115.31	0.002207
3124.95	0.0014783
3134.6	0.0008512
3144.24	0.0007216
3153.89	0.0004548
3163.53	0.000423
3173.18	0.000379
3182.82	0.0005162
3192.47	0.00052723
3202.11	0.000401
3211.76	0.000327
3221.4	0.000406
3231.05	0.0004747
3240.69	0.0004769
3250.34	0.000378
3259.98	0.0005049
3269.63	0.00056924
3279.27	0.00058178
3288.92	0.00056993
3298.56	0.0006499
3308.21	0.000698
3317.85	0.0008794
3327.49	0.0008822
3337.14	0.0009384
3346.78	0.0010259
3356.43	0.0014277
3366.07	0.001867
3375.72	0.003007
3385.36	0.005997
3395.01	0.010857
3404.65	0.011787
3414.3	0.008627
3423.94	0.005887
3433.59	0.003817
3443.23	0.002887
3452.88	0.002467
3462.52	0.002167
3472.17	0.0014572
3481.81	0.0010962
3491.46	0.0007822
3501.1	0.0004743
3510.75	0.0004592
3520.39	0.0004
3530.04	0.000335
3539.68	0.00024
3549.32	0.0005079
3558.97	0.000328
3568.61	0.000326
3578.26	0.00057092
3587.9	0.000217
3597.55	0.000418
3607.19	0.000419
3616.84	0.0004
3626.48	0.000423
3636.13	0.000196
3645.77	0.00035
3655.42	0.000418
3665.06	0.000361
3674.71	0.000325
3684.35	0.000208
3694	0.000227
3703.64	0.000303
3713.29	0.0004688
3722.93	0.00053059
3732.58	0.0005229
3742.22	0.000208
3751.86	0.000349
3761.51	0.000407
3771.15	0.000219
3780.8	0.000157
3790.44	8.4e-05
3800.09	0.000223
3809.73	0.000331
3819.38	0.000257
3829.02	0.000113
3838.67	0.000356
3848.31	0.000112
3857.96	0.000148
3867.6	0.000198
3877.25	0.000245
3886.89	0.000256
3896.54	0.00035
3906.18	0.000404
3915.83	0.00033
3925.47	0.000331
3935.12	0.0004559
3944.76	0.000395
3954.41	0.000297
3964.05	0.000365
3973.69	0.000127
3983.34	0.000266
3992.98	0.000399
