Infrared Spectrum: 2-Bromoethyl acrylate
Formula: C 5 H 7 Br O 2
CAS: 4823-47-6
State: gas
Origin: EPA-IR VAPOR PHASE LIBRARY
1/CM	ABSORBANCE
549.8	0.0005751
559.445	0.0009099
569.09	0.001668
578.734	0.002248
588.379	0.001558
598.024	0.0011482
607.669	0.0009359
617.313	0.0009428
626.958	0.000723
636.603	0.0010502
646.248	0.001508
655.893	0.001928
665.537	0.002108
675.182	0.002538
684.827	0.002418
694.472	0.001558
704.116	0.0010756
713.761	0.0009283
723.406	0.0008762
733.051	0.000978
742.695	0.0005862
752.34	0.0007849
761.985	0.0010151
771.63	0.0011871
781.275	0.002248
790.919	0.003828
800.564	0.005858
810.209	0.006668
819.854	0.004568
829.498	0.002918
839.143	0.002148
848.788	0.002068
858.433	0.002058
868.078	0.002108
877.722	0.002158
887.367	0.002238
897.012	0.002078
906.657	0.001918
916.301	0.001928
925.946	0.002078
935.591	0.002588
945.236	0.004348
954.88	0.006778
964.525	0.010388
974.17	0.012418
983.815	0.013818
993.46	0.012338
1003.1	0.007918
1012.75	0.005258
1022.39	0.005248
1032.04	0.008148
1041.68	0.011358
1051.33	0.015178
1060.97	0.016548
1070.62	0.014708
1080.26	0.013918
1089.91	0.010808
1099.55	0.005858
1109.2	0.004198
1118.84	0.003888
1128.49	0.005088
1138.13	0.007948
1147.78	0.015128
1157.42	0.032228
1167.07	0.066668
1176.71	0.087798
1186.36	0.063368
1196	0.032998
1205.64	0.017148
1215.29	0.014608
1224.93	0.015358
1234.58	0.016858
1244.22	0.023608
1253.87	0.037648
1263.51	0.036808
1273.16	0.020188
1282.8	0.014928
1292.45	0.018718
1302.09	0.014908
1311.74	0.006388
1321.38	0.003538
1331.03	0.002498
1340.67	0.001998
1350.32	0.001958
1359.96	0.002228
1369.61	0.002868
1379.25	0.003338
1388.9	0.004168
1398.54	0.010378
1408.18	0.023858
1417.83	0.017128
1427.47	0.007228
1437.12	0.005978
1446.76	0.005478
1456.41	0.004908
1466.05	0.003798
1475.7	0.002528
1485.34	0.001778
1494.99	0.001488
1504.63	0.001318
1514.28	0.0011452
1523.92	0.0011741
1533.57	0.0009803
1543.21	0.0008609
1552.86	0.0007879
1562.5	0.0007884
1572.15	0.0008044
1581.79	0.0010445
1591.44	0.001308
1601.08	0.001728
1610.73	0.002328
1620.37	0.003348
1630.01	0.004848
1639.66	0.004908
1649.3	0.002688
1658.95	0.001488
1668.59	0.001328
1678.24	0.001388
1687.88	0.001878
1697.53	0.002678
1707.17	0.004038
1716.82	0.006868
1726.46	0.013608
1736.11	0.029018
1745.75	0.048228
1755.4	0.049398
1765.04	0.028868
1774.69	0.012668
1784.33	0.005448
1793.98	0.003108
1803.62	0.002328
1813.27	0.001838
1822.91	0.001398
1832.55	0.0011468
1842.2	0.001011
1851.84	0.0009712
1861.49	0.0009036
1871.13	0.0009357
1880.78	0.0008642
1890.42	0.0008817
1900.07	0.0008159
1909.71	0.0010141
1919.36	0.0011857
1929	0.001478
1938.65	0.001438
1948.29	0.0011636
1957.94	0.0008851
1967.58	0.000879
1977.23	0.0007851
1986.87	0.0008746
1996.52	0.0008362
2006.16	0.0008308
2015.81	0.0008579
2025.45	0.0009334
2035.1	0.0008234
2044.74	0.0008334
2054.38	0.0008015
2064.03	0.0008516
2073.67	0.0007414
2083.32	0.000638
2092.96	0.0006835
2102.61	0.0005663
2112.25	0.0005554
2121.9	0.0004988
2131.54	0.0004798
2141.19	0.000474
2150.83	0.0005025
2160.48	0.000482
2170.12	0.0004061
2179.77	0.000504
2189.41	0.000371
2199.06	0.000373
2208.7	0.0004254
2218.35	0.0004599
2227.99	0.0005015
2237.64	0.00033732
2247.28	0.0004313
2256.92	0.0004583
2266.57	0.0004412
2276.21	0.0003749
2285.86	0.0003993
2295.5	0.0003964
2305.15	0.0004858
2314.79	0.0003931
2324.44	0.0004487
2334.08	0.0005552
2343.73	0.0004018
2353.37	0.0004575
2363.02	0.0005543
2372.66	0.0004479
2382.31	0.0004637
2391.95	0.00034101
2401.6	0.00031985
2411.24	0.0003542
2420.89	0.00033985
2430.53	0.0003865
2440.18	0.0004199
2449.82	0.0003834
2459.47	0.000442
2469.11	0.000438
2478.75	0.00033308
2488.4	0.00029929
2498.04	0.00030205
2507.69	0.0003809
2517.33	0.00033553
2526.98	0.0003603
2536.62	0.00034582
2546.27	0.0003675
2555.91	0.000261265
2565.56	0.00026958
2575.2	0.00035273
2584.85	0.0003633
2594.49	0.0003704
2604.14	0.00033454
2613.78	0.00032325
2623.43	0.00028953
2633.07	0.0003068
2642.72	0.00027802
2652.36	0.00030156
2662.01	0.0004245
2671.65	0.0004258
2681.29	0.00034288
2690.94	0.00032914
2700.58	0.0002756
2710.23	0.000436
2719.87	0.000358
2729.52	0.0004189
2739.16	0.00028613
2748.81	0.0003781
2758.45	0.00029128
2768.1	0.000266596
2777.74	0.0003865
2787.39	0.00028539
2797.03	0.000402
2806.68	0.00033153
2816.32	0.0004646
2825.97	0.0004289
2835.61	0.0005339
2845.26	0.0005717
2854.9	0.0007191
2864.55	0.0007144
2874.19	0.0009245
2883.84	0.0012161
2893.48	0.001268
2903.12	0.001318
2912.77	0.001298
2922.41	0.001398
2932.06	0.001888
2941.7	0.002638
2951.35	0.002878
2960.99	0.003018
2970.64	0.004238
2980.28	0.004798
2989.93	0.004378
2999.57	0.003138
3009.22	0.002078
3018.86	0.001668
3028.51	0.001708
3038.15	0.001938
3047.8	0.001778
3057.44	0.0010312
3067.09	0.0007305
3076.73	0.0006992
3086.38	0.0007958
3096.02	0.0008577
3105.67	0.001298
3115.31	0.001528
3124.95	0.0006293
3134.6	0.0004972
3144.24	0.0003584
3153.89	0.000534
3163.53	0.0003676
3173.18	0.00031965
3182.82	0.000262865
3192.47	0.00025079
3202.11	0.00032276
3211.76	0.00029736
3221.4	0.00033097
3231.05	0.00032945
3240.69	0.0003719
3250.34	0.000258486
3259.98	0.0002373
3269.63	0.0002731
3279.27	0.00030626
3288.92	0.00033417
3298.56	0.00029017
3308.21	0.0004682
3317.85	0.0002526
3327.49	0.0003865
3337.14	0.0004739
3346.78	0.00027171
3356.43	0.0004543
3366.07	0.0004885
3375.72	0.0003226
3385.36	0.00027644
3395.01	0.0002173
3404.65	0.00027902
3414.3	0.00035764
3423.94	0.0004305
3433.59	0.00033818
3443.23	0.0003743
3452.88	0.0006101
3462.52	0.0006884
3472.17	0.0009444
3481.81	0.0009294
3491.46	0.000979
3501.1	0.0007385
3510.75	0.0006361
3520.39	0.0004135
3530.04	0.0003675
3539.68	0.00029273
3549.32	0.0005032
3558.97	0.0004755
3568.61	0.00028086
3578.26	0.0004233
3587.9	0.00033462
3597.55	0.0004663
3607.19	0.00033051
3616.84	0.0004098
3626.48	0.00033363
3636.13	0.00031607
3645.77	0.0003224
3655.42	0.000143
3665.06	0.0004704
3674.71	0.00030891
3684.35	0.0003965
3694	0.0004405
3703.64	0.0001781
3713.29	0.00027868
3722.93	0.0002171
3732.58	0.0004304
3742.22	0.00035253
3751.86	0.0004259
3761.51	0.0003603
3771.15	0.000260328
3780.8	0.0004729
3790.44	0.0004077
3800.09	0.0002319
3809.73	0.00035124
3819.38	0.0004272
3829.02	0.0002467
3838.67	0.00025052
3848.31	0.00033053
3857.96	0.0002967
3867.6	0.00029805
3877.25	0.00035439
3886.89	0.0002439
3896.54	0.00033973
3906.18	0.0004683
3915.83	0.0001745
3925.47	0.0005368
3935.12	0.00025423
3944.76	0.0003614
3954.41	0.0004103
3964.05	0.00031817
3973.69	0.000244
3983.34	0.0004311
3992.98	0.0003853
