Infrared Spectrum: METHYL-1-ISOPROPYL-7-PHENANTHRENE
Formula: C18 H18
CAS: 483-65-8
State: SOLUTION (SATURATED IN HEPTANE)
Class: COBLENTZ
Instrument: Not specified, most likely a prism, grating, or hybrid spectrometer.
Sampling: TRANSMISSION
Path length: 0.05 CM
Resolution: 4
Origin: CENTRE D'ETUDES NUCLEAIRES DE GRENOBLE
MICROMETERS	TRANSMITTANCE
15.011	0.903
15.0667	0.904
15.1224	0.904
15.1781	0.904
15.2338	0.904
15.2895	0.904
15.3453	0.904
15.401	0.904
15.4567	0.901
15.5124	0.886
15.5681	0.869
15.6238	0.784
15.6795	0.745
15.7352	0.729
15.7909	0.754
15.8466	0.807
15.9024	0.839
15.9581	0.862
16.0138	0.871
16.0695	0.879
16.1252	0.881
16.1809	0.881
16.2366	0.881
16.2923	0.882
16.348	0.886
16.4037	0.886
16.4594	0.882
16.5152	0.879
16.5709	0.879
16.6266	0.881
16.6823	0.886
16.738	0.887
16.7937	0.892
16.8494	0.896
16.9051	0.897
16.9608	0.901
17.0165	0.901
17.0723	0.899
17.128	0.897
17.1837	0.896
17.2394	0.892
17.2951	0.886
17.3508	0.869
17.4065	0.851
17.4622	0.839
17.5179	0.836
17.5736	0.834
17.6293	0.834
17.6851	0.839
17.7408	0.842
17.7965	0.849
17.8522	0.862
17.9079	0.862
17.9636	0.872
18.0193	0.876
18.075	0.879
18.1307	0.884
18.1864	0.884
18.2421	0.887
18.2979	0.889
18.3536	0.891
18.4093	0.892
18.465	0.891
18.5207	0.889
18.5764	0.887
18.6321	0.886
18.6878	0.884
18.7435	0.881
18.7992	0.874
18.855	0.871
18.9107	0.867
18.9664	0.866
19.0221	0.861
19.0778	0.859
19.1335	0.859
19.1892	0.854
19.2449	0.819
19.3006	0.79
19.3563	0.762
19.412	0.734
19.4678	0.734
19.5235	0.742
19.5792	0.752
19.6349	0.759
19.6906	0.762
19.7463	0.764
19.802	0.762
19.8577	0.757
19.9134	0.749
19.9691	0.742
20.0249	0.749
20.0806	0.765
20.1363	0.79
20.192	0.806
20.2477	0.829
20.3034	0.836
20.3591	0.851
20.4148	0.854
20.4705	0.856
20.5262	0.859
20.5819	0.859
20.6377	0.857
20.6934	0.854
20.7491	0.849
20.8048	0.829
20.8605	0.802
20.9162	0.75
20.9719	0.732
21.0276	0.717
21.0833	0.717
21.139	0.735
21.1948	0.757
21.2505	0.787
21.3062	0.814
21.3619	0.832
21.4176	0.839
21.4733	0.854
21.529	0.861
21.5847	0.862
21.6404	0.866
21.6961	0.864
21.7518	0.866
21.8076	0.864
21.8633	0.864
21.919	0.864
21.9747	0.862
22.0304	0.862
22.0861	0.862
22.1418	0.862
22.1975	0.864
22.2532	0.869
22.3089	0.871
22.3647	0.872
22.4204	0.871
22.4761	0.874
22.5318	0.876
22.5875	0.877
22.6432	0.876
22.6989	0.877
22.7546	0.877
22.8103	0.879
22.866	0.879
22.9217	0.881
22.9775	0.879
23.0332	0.879
23.0889	0.881
23.1446	0.881
23.2003	0.879
23.256	0.879
23.3117	0.879
23.3674	0.877
23.4231	0.881
23.4788	0.879
23.5345	0.879
23.5903	0.879
23.646	0.876
23.7017	0.872
23.7574	0.874
23.8131	0.872
23.8688	0.872
23.9245	0.871
23.9802	0.862
24.0359	0.859
24.0916	0.856
24.1474	0.851
24.2031	0.836
24.2588	0.827
24.3145	0.811
24.3702	0.785
24.4259	0.76
24.4816	0.717
24.5373	0.71
24.593	0.702
24.6487	0.698
24.7044	0.7
24.7602	0.714
24.8159	0.73
24.8716	0.74
24.9273	0.765
24.983	0.777
25.0387	0.79
25.0944	0.801
25.1501	0.809
25.2058	0.836
25.2615	0.837
25.3173	0.841
25.373	0.841
25.4287	0.847
25.4844	0.861
25.5401	0.862
25.5958	0.864
25.6515	0.862
25.7072	0.866
25.7629	0.867
25.8186	0.867
25.8743	0.864
25.9301	0.866
25.9858	0.867
26.0415	0.866
26.0972	0.866
26.1529	0.866
26.2086	0.867
26.2643	0.871
26.32	0.871
26.3757	0.871
26.4314	0.871
26.4872	0.869
26.5429	0.869
26.5986	0.869
26.6543	0.869
26.71	0.869
26.7657	0.867
26.8214	0.871
26.8771	0.872
26.9328	0.872
26.9885	0.874
27.0442	0.877
27.1	0.876
27.1557	0.874
27.2114	0.874
27.2671	0.872
27.3228	0.874
27.3785	0.876
27.4342	0.876
27.4899	0.877
27.5456	0.877
27.6013	0.877
27.657	0.876
27.7128	0.876
27.7685	0.876
27.8242	0.876
27.8799	0.872
27.9356	0.872
27.9913	0.876
28.047	0.874
28.1027	0.876
28.1584	0.877
28.2141	0.874
28.2699	0.872
28.3256	0.872
28.3813	0.872
28.437	0.871
28.4927	0.871
28.5484	0.871
28.6041	0.872
28.6598	0.872
28.7155	0.872
28.7712	0.872
28.8269	0.872
28.8827	0.876
28.9384	0.874
28.9941	0.874
29.0498	0.874
29.1055	0.874
29.1612	0.872
29.2169	0.874
29.2726	0.874
29.3283	0.877
29.384	0.877
29.4398	0.879
29.4955	0.879
29.5512	0.879
29.6069	0.881
29.6626	0.879
29.7183	0.876
29.774	0.874
29.8297	0.874
29.8854	0.876
29.9411	0.876
29.9968	0.876
30.0526	0.877
30.1083	0.879
30.164	0.879
30.2197	0.876
30.2754	0.876
30.3311	0.877
30.3868	0.877
30.4425	0.876
30.4982	0.871
30.5539	0.872
30.6097	0.872
30.6654	0.872
30.7211	0.869
30.7768	0.869
30.8325	0.869
30.8882	0.872
30.9439	0.877
30.9996	0.876
31.0553	0.876
31.111	0.874
31.1667	0.872
31.2225	0.874
31.2782	0.872
31.3339	0.874
31.3896	0.874
31.4453	0.874
31.501	0.874
31.5567	0.874
31.6124	0.874
31.6681	0.874
31.7238	0.874
31.7796	0.871
31.8353	0.869
31.891	0.874
31.9467	0.871
32.0024	0.869
32.0581	0.871
32.1138	0.874
32.1695	0.872
32.2252	0.874
32.2809	0.872
32.3366	0.872
32.3924	0.872
32.4481	0.874
32.5038	0.874
32.5595	0.874
32.6152	0.874
32.6709	0.872
32.7266	0.872
32.7823	0.872
32.838	0.869
32.8937	0.866
32.9494	0.869
33.0052	0.866
33.0609	0.864
33.1166	0.866
33.1723	0.864
33.228	0.861
33.2837	0.866
33.3394	0.869
33.3951	0.867
33.4508	0.866
33.5065	0.867
33.5623	0.866
33.618	0.864
33.6737	0.866
33.7294	0.866
33.7851	0.866
33.8408	0.869
33.8965	0.869
33.9522	0.869
34.0079	0.869
34.0636	0.869
34.1193	0.871
34.1751	0.871
34.2308	0.872
34.2865	0.874
34.3422	0.872
34.3979	0.871
34.4536	0.871
34.5093	0.871
34.565	0.871
34.6207	0.871
34.6764	0.869
34.7322	0.871
34.7879	0.871
34.8436	0.871
34.8993	0.867
34.955	0.867
35.0107	0.871
