Infrared Spectrum: (4-Chlorobutyl)benzene
Formula: C 10 H 13 Cl
CAS: 4830-93-7
State: gas
Instrument: HP-GC/MS/IRD
Origin: NIST Mass Spectrometry Data Center
1/CM	ABSORBANCE
550	0.001456
562	0.0006224
574	0.0006208
586	0.0003552
598	7.2e-05
610	0.0001296
622	0.0002448
634	0.00056
646	0.0015488
658	0.0033344
670	0.0036464
682	0.0048144
694	0.0100704
706	0.0090656
718	0.006656
730	0.0093696
742	0.0114784
754	0.0080944
766	0.0035712
778	0.0016784
790	0.0010016
802	0.0011312
814	0.0011312
826	0.0007872
838	0.0005888
850	0.0003648
862	0.0003328
874	0.0004288
886	0.0005024
898	0.000696
910	0.0007936
922	0.0004272
934	0.0003248
946	0.0002128
958	0.0001968
970	0.0003872
982	0.00052
994	0.0004288
1006	0.00052
1018	0.0008096
1030	0.0017152
1042	0.000864
1054	0.0008416
1066	0.000928
1078	0.0009008
1090	0.0005136
1102	0.0002096
1114	0.0001344
1126	9.44e-05
1138	9.76e-05
1150	0.0001536
1162	0.000128
1174	0.000192
1186	0.0002864
1198	0.0003968
1210	0.0003056
1222	0.0003792
1234	0.0005632
1246	0.0009664
1258	0.001544
1270	0.0022256
1282	0.0029792
1294	0.0033392
1306	0.0037088
1318	0.0030368
1330	0.0020432
1342	0.0016208
1354	0.0014336
1366	0.0010432
1378	0.0006288
1390	0.0004096
1402	0.0004272
1414	0.0006
1426	0.0012064
1438	0.002832
1450	0.0053632
1462	0.004216
1474	0.00224
1486	0.0026208
1498	0.0047616
1510	0.0014416
1522	0.0006416
1534	0.0005136
1546	0.0004288
1558	0.0005392
1570	0.0006
1582	0.001024
1594	0.0019008
1606	0.0023008
1618	0.0007408
1630	0.0002688
1642	0.0002288
1654	0.0002576
1666	9.6e-05
1678	6.56e-05
1690	6.08e-05
1702	0.0001568
1714	0.000128
1726	0.0001344
1738	0.0002528
1750	0.0002032
1762	0.0001328
1774	0.0002208
1786	0.0004848
1798	0.0006384
1810	0.0002704
1822	0.0001648
1834	0.0001344
1846	0.0002144
1858	0.000352
1870	0.0004432
1882	0.0003456
1894	0.0001744
1906	0.0001232
1918	0.0002448
1930	0.000464
1942	0.0006336
1954	0.0005392
1966	0.00016
1978	6.56e-05
1990	4.64e-05
2002	1.76e-05
2014	5.6e-05
2026	5.44e-05
2038	5.28e-05
2050	2.56e-05
2062	6.08e-05
2074	3.84e-05
2086	5.44e-05
2098	5.12e-05
2110	4.48e-05
2122	6.24e-05
2134	3.2e-05
2146	7.04e-05
2158	5.6e-05
2170	7.04e-05
2182	7.84e-05
2194	6.4e-05
2206	5.12e-05
2218	4.16e-05
2230	6.4e-05
2242	5.92e-05
2254	6.72e-05
2266	5.28e-05
2278	7.04e-05
2290	6.56e-05
2302	0.0001024
2314	0.0001488
2326	9.76e-05
2338	9.92e-05
2350	0.0001024
2362	6.56e-05
2374	6.72e-05
2386	5.76e-05
2398	4.32e-05
2410	6.08e-05
2422	2.88e-05
2434	4.64e-05
2446	4.8e-05
2458	4e-05
2470	4.8e-05
2482	5.76e-05
2494	3.84e-05
2506	5.28e-05
2518	5.44e-05
2530	6.56e-05
2542	8e-06
2554	3.84e-05
2566	4.96e-05
2578	6.4e-05
2590	8.8e-05
2602	0.0001248
2614	0.0001392
2626	0.0001088
2638	0.000152
2650	0.0001776
2662	0.0001488
2674	0.0001856
2686	0.000208
2698	0.0001664
2710	0.0001856
2722	0.0001616
2734	0.0001728
2746	0.0002
2758	0.0001584
2770	0.0002384
2782	0.0003312
2794	0.0004544
2806	0.0005104
2818	0.0007056
2830	0.0011296
2842	0.00208
2854	0.0041408
2866	0.0060864
2878	0.0058176
2890	0.0047488
2902	0.005432
2914	0.007768
2926	0.0116848
2938	0.015112
2950	0.0154896
2962	0.0118096
2974	0.0068816
2986	0.0043792
2998	0.0053936
3010	0.0046416
3022	0.0064496
3034	0.0093952
3046	0.0056448
3058	0.0051216
3070	0.0083136
3082	0.0058688
3094	0.003792
3106	0.0023024
3118	0.00116
3130	0.0004464
3142	0.0002496
3154	0.0001952
3166	0.0002288
3178	0.0001648
3190	7.52e-05
3202	8.8e-05
3214	8.16e-05
3226	8e-06
3238	5.28e-05
3250	4.96e-05
3262	6.4e-05
3274	4.16e-05
3286	4.32e-05
3298	5.92e-05
3310	0.0001072
3322	3.36e-05
3334	4.32e-05
3346	4.64e-05
3358	9.6e-05
3370	4.16e-05
3382	7.68e-05
3394	3.2e-05
3406	8.96e-05
3418	7.04e-05
3430	0.0001056
3442	7.04e-05
3454	7.84e-05
3466	9.28e-05
3478	0.000112
3490	0.0001056
3502	7.52e-05
3514	0.00012
3526	0.0001008
3538	0.000128
3550	0.0001312
3562	0.0001264
3574	9.92e-05
3586	0.000184
3598	0.0001056
3610	0.0002256
3622	0.0002304
3634	0.0001792
3646	0.0002384
3658	0.0002448
3670	0.000288
3682	0.0001488
3694	0.0001984
3706	0.0001984
3718	0.000256
3730	0.000208
3742	0.0002256
3754	0.00024
3766	0.0002368
3778	0.000192
3790	0.00016
3802	0.000248
3814	0.0002912
3826	0.0002272
3838	0.0002928
