Infrared Spectrum: Bicyclo[4.4.0]-2-decanone
Formula: C 10 H 16 O
CAS: 4832-16-0
State: gas
Instrument: HP-GC/MS/IRD
Origin: NIST Mass Spectrometry Data Center
1/CM	ABSORBANCE
550	0.0004092
562	8.06e-05
574	0.0001178
586	0.0002635
598	0.0002604
610	7.44e-05
622	8.68e-05
634	3.1e-06
646	7.44e-05
658	6.51e-05
670	7.13e-05
682	7.44e-05
694	7.13e-05
706	9.3e-06
718	0.0001736
730	0.0001488
742	0.0002077
754	0.0002387
766	0.0002883
778	0.0002294
790	0.0002604
802	0.0002108
814	0.0002604
826	0.0004557
838	0.0005239
850	0.0004092
862	0.000217
874	0.0001736
886	0.0001984
898	0.0002511
910	0.0003472
922	0.0002852
934	0.000186
946	0.0003813
958	0.000527
970	0.0006045
982	0.000527
994	0.000372
1006	0.0003317
1018	0.0004185
1030	0.0004216
1042	0.0006169
1054	0.0006696
1066	0.0007161
1078	0.0004929
1090	0.0005735
1102	0.0008184
1114	0.0009269
1126	0.0006479
1138	0.0005301
1150	0.0009858
1162	0.0013671
1174	0.0010633
1186	0.001333
1198	0.0016554
1210	0.0014415
1222	0.0015345
1234	0.0014508
1246	0.0014074
1258	0.0013795
1270	0.0009703
1282	0.0005549
1294	0.0005611
1306	0.0008928
1318	0.0010695
1330	0.0013175
1342	0.0013175
1354	0.0007471
1366	0.0007285
1378	0.0006014
1390	0.0003596
1402	0.0004929
1414	0.0011904
1426	0.0021421
1438	0.0025203
1450	0.0030039
1462	0.0027776
1474	0.0014477
1486	0.0004929
1498	0.0001953
1510	9.92e-05
1522	9.3e-05
1534	0.0001147
1546	0.0001085
1558	6.2e-05
1570	0.000124
1582	0.000155
1594	0.0001426
1606	0.0002015
1618	0.000155
1630	0.0002449
1642	0.0002945
1654	0.0004371
1666	0.0006944
1678	0.0010013
1690	0.0015841
1702	0.0028334
1714	0.0074679
1726	0.0170779
1738	0.0173352
1750	0.0069037
1762	0.0021173
1774	0.0009858
1786	0.0007037
1798	0.0006417
1810	0.0005704
1822	0.0003472
1834	0.0002139
1846	0.0001674
1858	0.0001891
1870	0.0001488
1882	0.0001178
1894	0.0001054
1906	8.37e-05
1918	8.37e-05
1930	7.75e-05
1942	8.06e-05
1954	6.51e-05
1966	4.96e-05
1978	4.65e-05
1990	3.1e-05
2002	4.96e-05
2014	6.82e-05
2026	5.58e-05
2038	6.82e-05
2050	4.96e-05
2062	3.41e-05
2074	5.58e-05
2086	5.27e-05
2098	3.72e-05
2110	5.89e-05
2122	3.72e-05
2134	4.96e-05
2146	6.51e-05
2158	4.65e-05
2170	7.44e-05
2182	3.1e-05
2194	3.1e-05
2206	3.1e-05
2218	4.34e-05
2230	2.17e-05
2242	2.79e-05
2254	3.1e-05
2266	6.2e-06
2278	2.17e-05
2290	9.3e-06
2302	1.55e-05
2314	2.48e-05
2326	1.86e-05
2338	0
2350	0
2362	0
2374	6.2e-06
2386	6.2e-06
2398	0
2410	2.79e-05
2422	3.1e-05
2434	1.24e-05
2446	2.48e-05
2458	4.34e-05
2470	6.2e-05
2482	4.96e-05
2494	4.65e-05
2506	3.72e-05
2518	6.82e-05
2530	4.96e-05
2542	6.51e-05
2554	5.27e-05
2566	9.61e-05
2578	8.99e-05
2590	0.0001395
2602	0.0001519
2614	0.0001426
2626	0.0002015
2638	0.0002666
2650	0.0003286
2662	0.0004309
2674	0.0004495
2686	0.0003379
2698	0.0002759
2710	0.0002511
2722	0.0002542
2734	0.0002542
2746	0.0002325
2758	0.0002666
2770	0.0002852
2782	0.0003658
2794	0.0004154
2806	0.0004991
2818	0.0007223
2830	0.0011501
2842	0.0019902
2854	0.0056668
2866	0.0110887
2878	0.0114235
2890	0.0087792
2902	0.0080972
2914	0.0120745
2926	0.0243877
2938	0.0306776
2950	0.0165788
2962	0.0072602
2974	0.0041199
2986	0.0015128
2998	0.0006355
3010	0.0004092
3022	0.000341
3034	0.0002852
3046	0.0002387
3058	0.0002325
3070	0.0001891
3082	0.0001333
3094	0.0001953
3106	0.0001767
3118	0.000124
3130	9.61e-05
3142	0.0001209
3154	0.0001023
3166	9.3e-05
3178	7.13e-05
3190	7.44e-05
3202	9.3e-05
3214	6.51e-05
3226	9.3e-05
3238	9.61e-05
3250	5.27e-05
3262	7.13e-05
3274	6.51e-05
3286	7.44e-05
3298	3.41e-05
3310	1.86e-05
3322	0.0001054
3334	7.13e-05
3346	0.0001116
3358	9.3e-05
3370	8.06e-05
3382	0.000124
3394	8.06e-05
3406	8.99e-05
3418	0.0001581
3430	0.0002356
3442	0.0003038
3454	0.0003038
3466	0.0002108
3478	0.0001767
3490	0.0001519
3502	7.75e-05
3514	8.06e-05
3526	8.06e-05
3538	5.58e-05
3550	8.68e-05
3562	1.86e-05
3574	2.17e-05
3586	2.17e-05
3598	5.89e-05
3610	8.68e-05
3622	6.82e-05
3634	1.86e-05
3646	1.55e-05
3658	4.03e-05
3670	7.13e-05
3682	5.58e-05
3694	8.06e-05
3706	8.06e-05
3718	8.37e-05
3730	6.82e-05
3742	1.55e-05
3754	8.68e-05
3766	7.44e-05
3778	7.44e-05
3790	0.0001519
3802	4.03e-05
3814	4.96e-05
3826	0.0001302
3838	8.37e-05
