Infrared Spectrum: HYDROXY PIVALIC ACID
Formula: C5 H10 O3
CAS: 4835-90-9
State: SOLID (KBr PELLET)
Class: COBLENTZ
Instrument: Not specified, most likely a prism, grating, or hybrid spectrometer.
Sampling: TRANSMISSION
Resolution: 4
Origin: TENNESSEE EASTMAN COMPANY, RESEARCH LABORATORIES
MICROMETERS	TRANSMITTANCE
2.034	0.898
2.07474	0.907
2.11547	0.912
2.15621	0.917
2.19694	0.924
2.23768	0.927
2.27841	0.927
2.31915	0.929
2.35989	0.933
2.40062	0.936
2.44136	0.936
2.48209	0.939
2.52283	0.939
2.56356	0.939
2.6043	0.939
2.64504	0.941
2.68577	0.939
2.72651	0.934
2.76724	0.897
2.80798	0.845
2.84871	0.778
2.88945	0.679
2.93019	0.471
2.97092	0.317
3.01166	0.161
3.05239	0.152
3.09313	0.205
3.13386	0.214
3.1746	0.279
3.21534	0.3
3.25607	0.286
3.29681	0.284
3.33754	0.226
3.37828	0.19
3.41901	0.207
3.45975	0.243
3.50049	0.349
3.54122	0.408
3.58196	0.435
3.62269	0.499
3.66343	0.506
3.70416	0.499
3.7449	0.524
3.78564	0.545
3.82637	0.518
3.86711	0.552
3.90784	0.591
3.94858	0.603
3.98931	0.641
4.03005	0.732
4.07079	0.77
4.11152	0.802
4.15226	0.831
4.19299	0.854
4.23373	0.864
4.27446	0.869
4.3152	0.89
4.35594	0.939
4.39667	0.958
4.43741	0.967
4.47814	0.97
4.51888	0.965
4.55961	0.951
4.60035	0.972
4.64109	0.979
4.68182	0.982
4.72256	0.981
4.76329	0.967
4.80403	0.965
4.84476	0.981
4.8855	0.981
4.92623	0.969
4.96697	0.957
5.00771	0.963
5.04844	0.963
5.08918	0.963
5.12991	0.963
5.17065	0.957
5.21138	0.951
5.25212	0.948
5.29286	0.95
5.33359	0.943
5.37433	0.933
5.41506	0.926
5.4558	0.914
5.49653	0.903
5.53727	0.879
5.57801	0.867
5.61874	0.84
5.65948	0.797
5.70021	0.744
5.74095	0.668
5.78168	0.547
5.82242	0.233
5.86316	0.053
5.90389	0.039
5.94463	0.253
5.98536	0.531
6.0261	0.708
6.06683	0.775
6.10757	0.809
6.14831	0.84
6.18904	0.881
6.22978	0.924
6.27051	0.934
6.31125	0.939
6.35198	0.922
6.39272	0.919
6.43346	0.912
6.47419	0.912
6.51493	0.939
6.55566	0.924
6.5964	0.921
6.63713	0.883
6.67787	0.747
6.71861	0.253
6.75934	0.442
6.80008	0.531
6.84081	0.574
6.88155	0.672
6.92228	0.773
6.96302	0.782
7.00376	0.548
7.04449	0.298
7.08523	0.44
7.12596	0.591
7.1667	0.646
7.20743	0.704
7.24817	0.775
7.28891	0.674
7.32964	0.728
7.37038	0.813
7.41111	0.775
7.45185	0.694
7.49258	0.735
7.53332	0.648
7.57406	0.384
7.61479	0.413
7.65553	0.56
7.69626	0.708
7.737	0.778
7.77773	0.792
7.81847	0.758
7.85921	0.668
7.89994	0.629
7.94068	0.557
7.98141	0.324
8.02215	0.138
8.06288	0.157
8.10362	0.259
8.14436	0.406
8.18509	0.552
8.22583	0.656
8.26656	0.711
8.3073	0.725
8.34803	0.653
8.38877	0.492
8.42951	0.322
8.47024	0.392
8.51098	0.461
8.55171	0.404
8.59245	0.415
8.63318	0.578
8.67392	0.684
8.71466	0.749
8.75539	0.783
8.79613	0.823
8.83686	0.842
8.8776	0.861
8.91833	0.876
8.95907	0.878
8.99981	0.886
9.04054	0.874
9.08128	0.89
9.12201	0.879
9.16275	0.874
9.20348	0.869
9.24422	0.861
9.28496	0.83
9.32569	0.789
9.36643	0.71
9.40716	0.502
9.4479	0.3
9.48863	0.058
9.52937	0.042
9.57011	0.246
9.61084	0.533
9.65158	0.632
9.69231	0.614
9.73305	0.684
9.77378	0.744
9.81452	0.804
9.85526	0.814
9.89599	0.831
9.93673	0.813
9.97746	0.79
10.0182	0.742
10.0589	0.653
10.0997	0.586
10.1404	0.487
10.1811	0.531
10.2219	0.602
10.2626	0.648
10.3033	0.639
10.3441	0.615
10.3848	0.555
10.4256	0.451
10.4663	0.411
10.507	0.437
10.5478	0.413
10.5885	0.365
10.6292	0.344
10.67	0.373
10.7107	0.428
10.7514	0.493
10.7922	0.528
10.8329	0.543
10.8736	0.511
10.9144	0.617
10.9551	0.716
10.9959	0.768
11.0366	0.814
11.0773	0.825
11.1181	0.833
11.1588	0.852
11.1995	0.833
11.2403	0.753
11.281	0.66
11.3217	0.691
11.3625	0.663
11.4032	0.679
11.4439	0.819
11.4847	0.874
11.5254	0.902
11.5662	0.922
11.6069	0.955
11.6476	0.965
11.6884	0.955
11.7291	0.963
11.7698	0.981
11.8106	0.979
11.8513	0.96
11.892	0.963
11.9328	0.972
11.9735	0.963
12.0142	0.945
12.055	0.953
12.0957	0.96
12.1365	0.95
12.1772	0.933
12.2179	0.934
12.2587	0.95
12.2994	0.939
12.3401	0.919
12.3809	0.917
12.4216	0.931
12.4623	0.917
12.5031	0.881
12.5438	0.874
12.5845	0.849
12.6253	0.753
12.666	0.639
12.7068	0.619
12.7475	0.698
12.7882	0.77
12.829	0.783
12.8697	0.787
12.9104	0.794
12.9512	0.782
12.9919	0.728
13.0326	0.687
13.0734	0.74
13.1141	0.789
13.1548	0.807
13.1956	0.813
13.2363	0.818
13.2771	0.831
13.3178	0.85
13.3585	0.859
13.3993	0.861
13.44	0.864
13.4807	0.867
13.5215	0.888
13.5622	0.897
13.6029	0.895
13.6437	0.891
13.6844	0.893
13.7251	0.902
13.7659	0.912
13.8066	0.912
13.8474	0.907
13.8881	0.903
13.9288	0.909
13.9696	0.915
14.0103	0.915
14.051	0.912
14.0918	0.907
14.1325	0.902
14.1732	0.903
14.214	0.907
14.2547	0.905
14.2954	0.903
14.3362	0.891
14.3769	0.888
14.4177	0.885
14.4584	0.879
14.4991	0.878
14.5399	0.869
14.5806	0.862
14.6213	0.857
14.6621	0.849
14.7028	0.847
14.7435	0.845
14.7843	0.838
14.825	0.831
14.8657	0.826
14.9065	0.814
14.9472	0.806
14.988	0.801
15.0287	0.797
15.0694	0.79
15.1102	0.785
15.1509	0.78
15.1916	0.775
15.2324	0.771
15.2731	0.768
15.3138	0.759
15.3546	0.759
15.3953	0.753
15.436	0.751
15.4768	0.747
15.5175	0.746
15.5583	0.737
15.599	0.734
15.6397	0.73
15.6805	0.722
15.7212	0.72
15.7619	0.72
15.8027	0.72
15.8434	0.718
15.8841	0.716
15.9249	0.716
15.9656	0.715
