Infrared Spectrum: 2,9-Dimethyl-1,10-phenanthroline
Formula: C 14 H 12 N 2
CAS: 484-11-7
State: gas
Instrument: HP-GC/MS/IRD
Origin: NIST Mass Spectrometry Data Center
1/CM	ABSORBANCE
550	0.0018165
562	0.000339
574	0.0002865
586	0.0002085
598	9e-05
610	0.0001425
622	0.0006465
634	0.0027315
646	0.0004065
658	0.000309
670	0.000285
682	0.000549
694	0.0001275
706	0.0002865
718	0.001314
730	0.0035475
742	0.0015825
754	0.000996
766	0.000906
778	0.0011565
790	0.000501
802	0.000357
814	0.0006345
826	0.002277
838	0.0117525
850	0.0061155
862	0.0012975
874	0.0021195
886	0.0010125
898	0.0007515
910	0.0004725
922	0.000327
934	0.0002235
946	0.000285
958	0.0006435
970	0.000579
982	0.0006195
994	0.0007365
1006	0.000648
1018	0.0002325
1030	0.000393
1042	0.0005925
1054	0.0005865
1066	0.0003525
1078	0.0003195
1090	0.000333
1102	0.001026
1114	0.0005805
1126	0.000642
1138	0.0033195
1150	0.0013185
1162	0.000348
1174	0.000423
1186	0.0008535
1198	0.0026775
1210	0.0024
1222	0.0008595
1234	0.001059
1246	0.0008595
1258	0.000858
1270	0.0016365
1282	0.001566
1294	0.0022065
1306	0.0014625
1318	0.000738
1330	0.0007635
1342	0.001605
1354	0.004647
1366	0.0036015
1378	0.003585
1390	0.002376
1402	0.0018975
1414	0.003264
1426	0.0037215
1438	0.002643
1450	0.0024165
1462	0.0024675
1474	0.0044805
1486	0.0113715
1498	0.0146955
1510	0.010746
1522	0.002829
1534	0.002829
1546	0.002943
1558	0.00174
1570	0.003048
1582	0.005604
1594	0.009192
1606	0.0100425
1618	0.007959
1630	0.0024285
1642	0.001281
1654	0.0006975
1666	0.0006915
1678	0.0008955
1690	0.000423
1702	0.0002505
1714	0.000384
1726	0.000414
1738	0.0004095
1750	0.000252
1762	0.0003165
1774	0.000465
1786	0.0006975
1798	0.000315
1810	0.000183
1822	0.000108
1834	0.000111
1846	0.000129
1858	0.0001095
1870	0.0001335
1882	0.0002835
1894	0.000447
1906	0.000423
1918	0.000717
1930	0.0006105
1942	0.0001695
1954	9.45e-05
1966	7.05e-05
1978	9.15e-05
1990	5.55e-05
2002	3.45e-05
2014	6.6e-05
2026	5.55e-05
2038	8.1e-05
2050	8.4e-05
2062	0.0001035
2074	9.45e-05
2086	7.2e-05
2098	6.75e-05
2110	5.85e-05
2122	4.35e-05
2134	4.65e-05
2146	1.35e-05
2158	6.9e-05
2170	6.75e-05
2182	0.000105
2194	7.05e-05
2206	4.05e-05
2218	3.3e-05
2230	6.15e-05
2242	6.15e-05
2254	5.55e-05
2266	7.65e-05
2278	0.0001725
2290	0.000156
2302	0.00012
2314	0.000132
2326	9.6e-05
2338	9.45e-05
2350	8.1e-05
2362	0.0001365
2374	0.000114
2386	0.0001155
2398	0.000165
2410	0.0002205
2422	0.0002025
2434	0.000213
2446	0.0001185
2458	0.000111
2470	0.0001635
2482	0.0001785
2494	0.0001725
2506	0.000108
2518	7.35e-05
2530	9.9e-05
2542	0.0001035
2554	7.95e-05
2566	0.000105
2578	0.000177
2590	0.000165
2602	0.000165
2614	0.000162
2626	0.000126
2638	0.000147
2650	0.000147
2662	0.0001425
2674	0.0001695
2686	0.0001095
2698	0.000144
2710	0.0001935
2722	0.000294
2734	0.000396
2746	0.0002685
2758	0.0001845
2770	0.0001965
2782	0.000216
2794	0.000315
2806	0.000318
2818	0.0004455
2830	0.0005325
2842	0.000867
2854	0.001242
2866	0.0014955
2878	0.001404
2890	0.001494
2902	0.0018495
2914	0.0026475
2926	0.0053295
2938	0.005346
2950	0.0029415
2962	0.0021495
2974	0.0013635
2986	0.001194
2998	0.0015735
3010	0.002859
3022	0.0036915
3034	0.0049995
3046	0.0083115
3058	0.010149
3070	0.005649
3082	0.00165
3094	0.001044
3106	0.000864
3118	0.000735
3130	0.000501
3142	0.000411
3154	0.000276
3166	0.000252
3178	0.0002835
3190	0.0002925
3202	0.0002745
3214	0.00021
3226	0.0001635
3238	0.0002205
3250	0.000141
3262	0.0001545
3274	0.0001665
3286	0.0001275
3298	0.0001305
3310	0.000114
3322	0.00012
3334	0.000123
3346	0.000168
3358	0.000168
3370	0.000153
3382	0.000126
3394	0.0001455
3406	0.000129
3418	0.0001455
3430	5.25e-05
3442	4.2e-05
3454	0.0001125
3466	0.000144
3478	0.000102
3490	0.0001125
3502	7.65e-05
3514	9e-05
3526	0.0001185
3538	4.05e-05
3550	8.55e-05
3562	0.000159
3574	4.95e-05
3586	0.0001125
3598	6.45e-05
3610	9.45e-05
3622	8.85e-05
3634	5.55e-05
3646	9.45e-05
3658	0.0001125
3670	6.75e-05
3682	0.0001635
3694	0.0001215
3706	0.0001095
3718	3.3e-05
3730	9.15e-05
3742	0.000147
3754	3.45e-05
3766	8.55e-05
3778	0.000162
3790	8.85e-05
3802	8.7e-05
3814	0.000204
3826	7.95e-05
3838	6e-05
