Infrared Spectrum: 9-Phenanthrol
Formula: C 14 H 10 O
CAS: 484-17-3
State: gas
Instrument: HP-GC/MS/IRD
Origin: NIST Mass Spectrometry Data Center
1/CM	ABSORBANCE
550	0.0001564
562	0.0004556
574	0.0011084
586	0.0008262
598	0.0003332
610	0.0008109
622	0.0012631
634	0.000459
646	0.0018479
658	0.0009758
670	0.0001581
682	7.65e-05
694	0.0001683
706	0.0012988
718	0.0069734
730	0.0075701
742	0.0058395
754	0.0075752
766	0.005746
778	0.0011849
790	0.000425
802	0.0002975
814	0.0014756
826	0.0030209
838	0.0013957
850	0.0011356
862	0.001853
874	0.0018173
886	0.0007157
898	0.0001649
910	0.0001615
922	0.0001581
934	0.0002261
946	0.0004403
958	0.0002533
970	7.48e-05
982	0.0001853
994	0.000561
1006	0.0008041
1018	0.0011407
1030	0.0028339
1042	0.0028441
1054	0.0024837
1066	0.007446
1078	0.0053091
1090	0.0014824
1102	0.0023715
1114	0.0022117
1126	0.0008534
1138	0.0020876
1150	0.00374
1162	0.0032028
1174	0.0041633
1186	0.0030719
1198	0.0056474
1210	0.0159273
1222	0.0113033
1234	0.0030685
1246	0.0017051
1258	0.0010693
1270	0.0011016
1282	0.0017986
1294	0.0021097
1306	0.0029308
1318	0.0047651
1330	0.0021641
1342	0.0006613
1354	0.0003451
1366	0.0005457
1378	0.0008024
1390	0.0012818
1402	0.0026911
1414	0.0023987
1426	0.0021148
1438	0.0025415
1450	0.0051289
1462	0.0027931
1474	0.0009435
1486	0.0013957
1498	0.0034459
1510	0.0025585
1522	0.0014926
1534	0.00102
1546	0.0004896
1558	0.0005525
1570	0.0011951
1582	0.0016983
1594	0.0029257
1606	0.0044931
1618	0.0047872
1630	0.008143
1642	0.0051391
1654	0.0017952
1666	0.0010098
1678	0.0010421
1690	0.001037
1702	0.0019924
1714	0.0023613
1726	0.0008806
1738	0.0003978
1750	0.0003808
1762	0.0003213
1774	0.000238
1786	0.0003213
1798	0.0004165
1810	0.0004182
1822	0.000391
1834	0.0003281
1846	0.0001581
1858	0.0001003
1870	0.0002057
1882	0.0002907
1894	0.00034
1906	0.000527
1918	0.0004624
1930	0.0006307
1942	0.0006732
1954	0.0002975
1966	7.82e-05
1978	3.23e-05
1990	5.95e-05
2002	6.29e-05
2014	4.42e-05
2026	4.59e-05
2038	4.25e-05
2050	4.59e-05
2062	4.25e-05
2074	3.91e-05
2086	3.4e-05
2098	5.61e-05
2110	3.91e-05
2122	2.55e-05
2134	6.29e-05
2146	4.59e-05
2158	3.23e-05
2170	5.27e-05
2182	4.25e-05
2194	3.23e-05
2206	3.23e-05
2218	7.99e-05
2230	4.59e-05
2242	6.12e-05
2254	0.0001207
2266	9.35e-05
2278	0.0001173
2290	0.0001037
2302	0.0001054
2314	0.0001496
2326	0.0001292
2338	0.0001139
2350	0.0001054
2362	8.16e-05
2374	0.0001173
2386	0.0001156
2398	0.0001309
2410	5.95e-05
2422	5.61e-05
2434	0.0001037
2446	6.8e-05
2458	8.16e-05
2470	0.0001139
2482	8.67e-05
2494	4.93e-05
2506	4.93e-05
2518	6.63e-05
2530	6.46e-05
2542	4.59e-05
2554	5.44e-05
2566	7.48e-05
2578	3.57e-05
2590	4.42e-05
2602	9.52e-05
2614	8.67e-05
2626	6.29e-05
2638	0.0001088
2650	7.31e-05
2662	0.000102
2674	5.27e-05
2686	3.91e-05
2698	6.63e-05
2710	5.78e-05
2722	3.57e-05
2734	1.87e-05
2746	3.4e-06
2758	8.5e-06
2770	1.02e-05
2782	1.7e-05
2794	1.36e-05
2806	4.59e-05
2818	1.7e-05
2830	4.59e-05
2842	4.42e-05
2854	7.31e-05
2866	5.78e-05
2878	7.31e-05
2890	8.5e-05
2902	7.99e-05
2914	0.0001377
2926	0.0002023
2938	0.0003111
2950	0.0003383
2962	0.000289
2974	0.0003315
2986	0.0003876
2998	0.0007939
3010	0.00204
3022	0.003162
3034	0.0030668
3046	0.0031586
3058	0.0050575
3070	0.0068918
3082	0.0063223
3094	0.0038233
3106	0.0018479
3118	0.0008738
3130	0.0003808
3142	0.0002397
3154	0.0001666
3166	6.29e-05
3178	6.46e-05
3190	2.89e-05
3202	4.42e-05
3214	5.78e-05
3226	0.0001411
3238	9.01e-05
3250	0.0001224
3262	4.25e-05
3274	4.42e-05
3286	5.27e-05
3298	8.33e-05
3310	7.65e-05
3322	0.0001156
3334	0.0001088
3346	0.0001003
3358	8.84e-05
3370	9.86e-05
3382	0.0001054
3394	9.52e-05
3406	7.99e-05
3418	5.78e-05
3430	8.16e-05
3442	8.5e-05
3454	7.82e-05
3466	0.0001241
3478	7.82e-05
3490	8.33e-05
3502	9.35e-05
3514	9.69e-05
3526	6.97e-05
3538	8.84e-05
3550	0.0001428
3562	0.0001275
3574	0.0001224
3586	0.000102
3598	0.0001411
3610	0.0002142
3622	0.0005559
3634	0.0024565
3646	0.0083181
3658	0.0044421
3670	0.0005814
3682	0.0002635
3694	0.0001462
3706	0.0001462
3718	0.0001377
3730	0.0001615
3742	8.84e-05
3754	0.0001496
3766	0.0001071
3778	0.0001037
3790	0.0001751
3802	0.0001462
3814	0.0001122
3826	0.000204
3838	0.0001972
