Infrared Spectrum: 2,3,4,5,6-Pentamethylbenzyl alcohol
Formula: C 12 H 18 O
CAS: 484-66-2
State: gas
Origin: EPA-IR VAPOR PHASE LIBRARY
1/CM	ABSORBANCE
549.9	0.0010858
559.547	0.0009091
569.193	0.00064613
578.84	0.00062631
588.486	0.000478
598.133	0.000324
607.779	0.000364
617.426	0.000493
627.072	0.0006991
636.719	0.000793
646.365	0.0015235
656.012	0.001836
665.658	0.0010097
675.305	0.00067524
684.951	0.0005698
694.598	0.0005482
704.245	0.000432
713.891	0.0005112
723.538	0.0005359
733.184	0.000604031
742.831	0.00068044
752.477	0.00066896
762.124	0.0007395
771.77	0.0009498
781.417	0.0014826
791.063	0.003316
800.71	0.004586
810.356	0.002696
820.003	0.0013739
829.649	0.0010894
839.296	0.0009302
848.943	0.000907
858.589	0.0009182
868.236	0.0010507
877.882	0.0010916
887.529	0.0012141
897.175	0.0013481
906.822	0.001696
916.468	0.002026
926.115	0.002466
935.761	0.003056
945.408	0.004566
955.054	0.007996
964.701	0.012156
974.347	0.017406
983.994	0.025386
993.64	0.027196
1003.29	0.018936
1012.93	0.011346
1022.58	0.008246
1032.23	0.007156
1041.87	0.006536
1051.52	0.006806
1061.17	0.008646
1070.81	0.009956
1080.46	0.006786
1090.11	0.003716
1099.75	0.002766
1109.4	0.002306
1119.05	0.002056
1128.69	0.002096
1138.34	0.002006
1147.99	0.002156
1157.63	0.002196
1167.28	0.002356
1176.92	0.002526
1186.57	0.002946
1196.22	0.003336
1205.86	0.003826
1215.51	0.004106
1225.16	0.004296
1234.8	0.004836
1244.45	0.005216
1254.1	0.004796
1263.74	0.004426
1273.39	0.004516
1283.04	0.005196
1292.68	0.005186
1302.33	0.003776
1311.98	0.003026
1321.62	0.002956
1331.27	0.003006
1340.92	0.003466
1350.56	0.004456
1360.21	0.006376
1369.86	0.009206
1379.5	0.012236
1389.15	0.013316
1398.79	0.011906
1408.44	0.010016
1418.09	0.009526
1427.73	0.009506
1437.38	0.008956
1447.03	0.008416
1456.67	0.008016
1466.32	0.007406
1475.97	0.006826
1485.61	0.006536
1495.26	0.006606
1504.91	0.006306
1514.55	0.005156
1524.2	0.004106
1533.85	0.003586
1543.49	0.003246
1553.14	0.003186
1562.79	0.003216
1572.43	0.003136
1582.08	0.002656
1591.73	0.002116
1601.37	0.001806
1611.02	0.001636
1620.67	0.0013814
1630.31	0.001268
1639.96	0.0011429
1649.6	0.0009321
1659.25	0.0008047
1668.9	0.0007361
1678.54	0.00062695
1688.19	0.000601228
1697.84	0.00063974
1707.48	0.0005662
1717.13	0.00046
1726.78	0.000471
1736.42	0.000388
1746.07	0.000399
1755.72	0.000417
1765.36	0.000436
1775.01	0.000388
1784.66	0.00039
1794.3	0.000361
1803.95	0.000331
1813.6	0.000299
1823.24	0.000292
1832.89	0.000276
1842.54	0.000343
1852.18	0.000278
1861.83	0.000301
1871.47	0.000276
1881.12	0.00025
1890.77	0.00028
1900.41	0.000311
1910.06	0.000325
1919.71	0.000309
1929.35	0.00042
1939	0.000433
1948.65	0.000459
1958.29	0.0005257
1967.94	0.0005081
1977.59	0.000447
1987.23	0.000465
1996.88	0.000392
2006.53	0.000345
2016.17	0.00032
2025.82	0.000335
2035.47	0.000403
2045.11	0.000346
2054.76	0.000387
2064.41	0.00036
2074.05	0.000325
2083.7	0.000333
2093.35	0.000341
2102.99	0.000386
2112.64	0.000323
2122.28	0.000353
2131.93	0.00033
2141.58	0.000323
2151.22	0.00036
2160.87	0.000401
2170.52	0.000377
2180.16	0.000369
2189.81	0.000419
2199.46	0.000386
2209.1	0.000354
2218.75	0.000356
2228.4	0.000378
2238.04	0.000358
2247.69	0.000337
2257.34	0.000405
2266.98	0.000336
2276.63	0.000347
2286.28	0.000324
2295.92	0.000385
2305.57	0.000371
2315.22	0.000427
2324.86	0.000449
2334.51	0.000477
2344.16	0.0005064
2353.8	0.0005365
2363.45	0.00060619
2373.09	0.0005229
2382.74	0.0005432
2392.39	0.0005799
2402.03	0.0005781
2411.68	0.0005738
2421.33	0.0005848
2430.97	0.00066181
2440.62	0.00062312
2450.27	0.00067159
2459.91	0.00068046
2469.56	0.00064901
2479.21	0.00068642
2488.85	0.00063046
2498.5	0.0006759
2508.15	0.0006149
2517.79	0.000595447
2527.44	0.000555
2537.09	0.0005659
2546.73	0.000508
2556.38	0.00058
2566.03	0.00062362
2575.67	0.0005166
2585.32	0.00066074
2594.96	0.00059412
2604.61	0.00067578
2614.26	0.00069584
2623.9	0.00063569
2633.55	0.00058681
2643.2	0.00068582
2652.84	0.00068201
2662.49	0.0007157
2672.14	0.0007398
2681.78	0.0008221
2691.43	0.0008482
2701.08	0.0008928
2710.72	0.0011449
2720.37	0.0013339
2730.02	0.001726
2739.66	0.002156
2749.31	0.001926
2758.96	0.001726
2768.6	0.001896
2778.25	0.002026
2787.9	0.002196
2797.54	0.002256
2807.19	0.002646
2816.84	0.003226
2826.48	0.003986
2836.13	0.004916
2845.77	0.006596
2855.42	0.009466
2865.07	0.014306
2874.71	0.019826
2884.36	0.023616
2894.01	0.025066
2903.65	0.026286
2913.3	0.029546
2922.95	0.034956
2932.59	0.039316
2942.24	0.038666
2951.89	0.034456
2961.53	0.028896
2971.18	0.023536
2980.83	0.020056
2990.47	0.018366
3000.12	0.017206
3009.77	0.016536
3019.41	0.015456
3029.06	0.014176
3038.71	0.012476
3048.35	0.010706
3058	0.008876
3067.64	0.007026
3077.29	0.005626
3086.94	0.004276
3096.58	0.003616
3106.23	0.002806
3115.88	0.002296
3125.52	0.001876
3135.17	0.0014908
3144.82	0.0012277
3154.46	0.0011213
3164.11	0.0009365
3173.76	0.0008308
3183.4	0.00059338
3193.05	0.0005116
3202.7	0.000331
3212.34	0.000426
3221.99	0.000429
3231.64	0.000383
3241.28	0.000212
3250.93	0.000124
3260.58	0.000301
3270.22	0.000208
3279.87	0.00026
3289.52	0.000211
3299.16	0.000149
3308.81	0.000108
3318.45	9.3e-05
3328.1	0.00014
3337.75	0.000102
3347.39	0.000264
3357.04	0.000176
3366.69	0.00012
3376.33	0.000265
3385.98	0.00025
3395.63	0.000107
3405.27	0.00014
3414.92	0.0004
3424.57	0.000291
3434.21	0.000426
3443.86	0.000116
3453.51	0.000287
3463.15	0.000251
3472.8	0.000273
3482.45	0.000174
3492.09	0.000233
3501.74	0.000244
3511.39	0.000372
3521.03	0.000241
3530.68	0.000511
3540.33	0.000272
3549.97	0.000321
3559.62	0.000248
3569.26	0.000156
3578.91	0.000328
3588.56	0.000284
3598.2	0.00019
3607.85	0.000312
3617.5	0.0005461
3627.14	0.0007691
3636.79	0.002486
3646.44	0.005876
3656.08	0.004116
3665.73	0.0013408
3675.38	0.0005793
3685.02	0.000404
3694.67	0.000344
3704.32	0.000336
3713.96	0.0004973
3723.61	0.000359
3733.26	0.000383
3742.9	0.000363
3752.55	0.000355
3762.2	0.000274
3771.84	0.000312
3781.49	0.000384
3791.13	0.00032
3800.78	0.0005285
3810.43	0.00038
3820.07	0.000383
3829.72	0.000337
3839.37	0.000343
3849.01	0.000393
3858.66	0.0005065
3868.31	0.0005427
3877.95	0.000479
3887.6	0.000376
3897.25	0.0005385
3906.89	0.000377
3916.54	0.000438
3926.19	0.000481
3935.83	0.000423
3945.48	0.0005336
3955.13	0.00043
3964.77	0.0005001
3974.42	0.000339
3984.07	0.0005212
3993.71	0.000396
