Infrared Spectrum: Silvex, methyl ester
Formula: C 10 H 9 Cl 3 O 3
CAS: 4841-20-7
State: gas
Instrument: HP-GC/MS/IRD
Origin: NIST Mass Spectrometry Data Center
1/CM	ABSORBANCE
550	0.0024249
562	0.0011505
574	0.0013098
586	0.0040179
598	0.0021771
610	0.0003717
622	0.0003186
634	0.0010266
646	0.0020178
658	0.0031152
670	0.012744
682	0.0292581
694	0.0058233
706	0.00354
718	0.0042657
730	0.0108678
742	0.021948
754	0.0205143
766	0.0105846
778	0.0072924
790	0.0074163
802	0.0055755
814	0.0047436
826	0.0088854
838	0.0122838
850	0.0078057
862	0.0087261
874	0.0228507
886	0.0183372
898	0.0127086
910	0.0036108
922	0.0018408
934	0.0027435
946	0.0069915
958	0.0125493
970	0.0147264
982	0.0280014
994	0.0176823
1006	0.0081597
1018	0.0087261
1030	0.0163725
1042	0.0320193
1054	0.0400374
1066	0.0537195
1078	0.119121
1090	0.122891
1102	0.08319
1114	0.0804642
1126	0.117546
1138	0.090093
1150	0.0417189
1162	0.0324795
1174	0.0443739
1186	0.0645873
1198	0.0784818
1210	0.0704106
1222	0.0651183
1234	0.0885354
1246	0.0900222
1258	0.0709062
1270	0.0730125
1282	0.0633837
1294	0.0391524
1306	0.0311874
1318	0.0331167
1330	0.0384621
1342	0.0522681
1354	0.0684813
1366	0.0291165
1378	0.0243729
1390	0.017169
1402	0.0105846
1414	0.0121245
1426	0.0195408
1438	0.0494538
1450	0.120785
1462	0.177
1474	0.115705
1486	0.0656139
1498	0.0271341
1510	0.0147972
1522	0.0095757
1534	0.0082128
1546	0.0082836
1558	0.0086553
1570	0.013452
1582	0.0229923
1594	0.0110979
1606	0.0039117
1618	0.0024426
1630	0.0021063
1642	0.0018585
1654	0.0018054
1666	0.0020355
1678	0.0023187
1690	0.0030444
1702	0.0049737
1714	0.0096111
1726	0.017169
1738	0.030621
1750	0.0678264
1762	0.0981111
1774	0.0874911
1786	0.0560028
1798	0.0233817
1810	0.0103368
1822	0.005664
1834	0.0031506
1846	0.0018585
1858	0.0013098
1870	0.001062
1882	0.0009558
1894	0.0007965
1906	0.0007965
1918	0.0009558
1930	0.0010974
1942	0.0011859
1954	0.0011859
1966	0.0012213
1978	0.0011328
1990	0.001062
2002	0.0008673
2014	0.0007611
2026	0.0007788
2038	0.0006726
2050	0.000531
2062	0.0004956
2074	0.0005133
2086	0.0006195
2098	0.0006726
2110	0.0006549
2122	0.0006195
2134	0.0005841
2146	0.0005664
2158	0.000531
2170	0.0004779
2182	0.0004071
2194	0.0003186
2206	0.0002832
2218	0.0002832
2230	0.0001947
2242	0.0001416
2254	1.77e-05
2266	0
2278	3.54e-05
2290	0.0001239
2302	0.0002832
2314	0.0003186
2326	0.0003186
2338	0.0003363
2350	0.0003009
2362	0.0002478
2374	0.0002832
2386	0.0003186
2398	0.0003363
2410	0.0004071
2422	0.0003894
2434	0.0002832
2446	0.0002478
2458	0.0003186
2470	0.0004956
2482	0.0006726
2494	0.0007965
2506	0.0009027
2518	0.0008496
2530	0.000708
2542	0.0005133
2554	0.0004779
2566	0.0004779
2578	0.0007257
2590	0.0008496
2602	0.000708
2614	0.0005664
2626	0.0004779
2638	0.0003186
2650	0.0003186
2662	0.0003894
2674	0.000531
2686	0.0006018
2698	0.0006549
2710	0.0005133
2722	0.0003717
2734	0.000354
2746	0.0004071
2758	0.0005133
2770	0.0007257
2782	0.0010266
2794	0.0011505
2806	0.0011682
2818	0.0013098
2830	0.0018408
2842	0.0029736
2854	0.0048321
2866	0.0031506
2878	0.0036639
2890	0.0047436
2902	0.0057702
2914	0.0068499
2926	0.008496
2938	0.0128856
2950	0.0214524
2962	0.031152
2974	0.0154698
2986	0.0120183
2998	0.0214701
3010	0.0165318
3022	0.0078234
3034	0.006018
3046	0.0043896
3058	0.0031329
3070	0.002655
3082	0.0026196
3094	0.0027258
3106	0.0024426
3118	0.00177
3130	0.0014337
3142	0.0011505
3154	0.0009912
3166	0.0008319
3178	0.0007611
3190	0.0006549
3202	0.0006195
3214	0.0005487
3226	0.0004602
3238	0.000354
3250	0.0002655
3262	0.0003009
3274	0.0002301
3286	0.0002478
3298	0.0002301
3310	0.0002655
3322	0.0002301
3334	0.0002478
3346	0.0002478
3358	0.0002655
3370	0.0001947
3382	0.0002301
3394	0.0002478
3406	0.0002832
3418	0.0003186
3430	0.0002832
3442	0.0003717
3454	0.0004425
3466	0.0005487
3478	0.0006903
3490	0.0011505
3502	0.0012921
3514	0.001239
3526	0.0012567
3538	0.0011151
3550	0.0008142
3562	0.0006903
3574	0.0005664
3586	0.0003894
3598	0.0004779
3610	0.0004425
3622	0.0004602
3634	0.0003363
3646	0.0004071
3658	0.0003363
3670	0.0004248
3682	0.000354
3694	0.000354
3706	0.0004425
3718	0.0004956
3730	0.0004248
3742	0.000354
3754	0.0004071
3766	0.0005487
3778	0.0006372
3790	0.0006549
3802	0.0005133
3814	0.0004956
3826	0.0006018
3838	0.0005487
