Infrared Spectrum: 2-MERCAPTO-6-NITROBENZOTHIAZOLE
Formula: C7 H4 N2 O2 S2
CAS: 4845-58-3
State: SOLID (MINERAL OIL MULL)
Melting point: 251 C (DECOMPOSE)
Class: COBLENTZ
Instrument: Not specified, most likely a prism, grating, or hybrid spectrometer.
Sampling: TRANSMISSION
Resolution: 4
Origin: WYANDOTTE CHEMICALS CORP., WYANDOTTE, MICHIGAN, USA
MICROMETERS	TRANSMITTANCE
2.019	0.241
2.0562	0.243
2.0934	0.251
2.1306	0.252
2.1678	0.251
2.205	0.255
2.2422	0.269
2.2794	0.269
2.3166	0.277
2.3538	0.291
2.391	0.299
2.4282	0.319
2.4654	0.313
2.5026	0.32
2.5398	0.33
2.577	0.334
2.6142	0.35
2.6514	0.368
2.6886	0.37
2.7258	0.37
2.763	0.368
2.8002	0.367
2.8374	0.367
2.8746	0.367
2.9118	0.381
2.949	0.387
2.9862	0.376
3.0234	0.37
3.0606	0.376
3.0978	0.353
3.135	0.314
3.1722	0.238
3.2094	0.147
3.2466	0.068
3.2838	0.096
3.321	0.094
3.3582	0.015
3.3954	0.02
3.4326	0.026
3.4698	0.027
3.507	0.023
3.5442	0.144
3.5814	0.283
3.6186	0.328
3.6558	0.337
3.693	0.311
3.7302	0.375
3.7674	0.398
3.8046	0.423
3.8418	0.449
3.879	0.46
3.9162	0.483
3.9534	0.496
3.9906	0.499
4.0278	0.51
4.065	0.516
4.1022	0.522
4.1394	0.53
4.1766	0.547
4.2138	0.562
4.251	0.548
4.2882	0.548
4.3254	0.578
4.3626	0.6
4.3998	0.603
4.437	0.596
4.4742	0.604
4.5114	0.61
4.5486	0.627
4.5858	0.643
4.623	0.644
4.6602	0.641
4.6974	0.655
4.7346	0.658
4.7718	0.677
4.809	0.68
4.8462	0.689
4.8834	0.693
4.9206	0.72
4.9578	0.708
4.995	0.719
5.0322	0.728
5.0694	0.725
5.1066	0.748
5.1438	0.753
5.181	0.758
5.2182	0.755
5.2554	0.764
5.2926	0.739
5.3298	0.762
5.367	0.781
5.4042	0.818
5.4414	0.804
5.4786	0.807
5.5158	0.81
5.553	0.8
5.5902	0.807
5.6274	0.82
5.6646	0.824
5.7018	0.846
5.739	0.86
5.7762	0.855
5.8134	0.82
5.8506	0.764
5.8878	0.8
5.925	0.815
5.9622	0.818
5.9994	0.804
6.0366	0.776
6.0738	0.762
6.111	0.809
6.1482	0.755
6.1854	0.33
6.2226	0.52
6.2598	0.475
6.297	0.53
6.3342	0.682
6.3714	0.688
6.4086	0.486
6.4458	0.204
6.483	0.131
6.5202	0.156
6.5574	0.235
6.5946	0.319
6.6318	0.325
6.669	0.173
6.7062	0.031
6.7434	0.086
6.7806	0.066
6.8178	0.065
6.855	0.116
6.8922	0.182
6.9294	0.294
6.9666	0.466
7.0038	0.553
7.041	0.589
7.0782	0.562
7.1154	0.544
7.1526	0.234
7.1898	0.232
7.227	0.2
7.2642	0.206
7.3014	0.22
7.3386	0.289
7.3758	0.196
7.413	0.044
7.4502	0.02
7.4874	0.018
7.5246	0.077
7.5618	0.161
7.599	0.226
7.6362	0.299
7.6734	0.297
7.7106	0.303
7.7478	0.268
7.785	0.4
7.8222	0.444
7.8594	0.429
7.8966	0.395
7.9338	0.243
7.971	0.072
8.0082	0.072
8.0454	0.137
8.0826	0.255
8.1198	0.358
8.157	0.431
8.1942	0.477
8.2314	0.517
8.2686	0.541
8.3058	0.568
8.343	0.589
8.3802	0.604
8.4174	0.632
8.4546	0.646
8.4918	0.644
8.529	0.652
8.5662	0.652
8.6034	0.654
8.6406	0.672
8.6778	0.703
8.715	0.71
8.7522	0.641
8.7894	0.466
8.8266	0.486
8.8638	0.567
8.901	0.617
8.9382	0.674
8.9754	0.737
9.0126	0.764
9.0498	0.776
9.087	0.762
9.1242	0.759
9.1614	0.795
9.1986	0.807
9.2358	0.773
9.273	0.654
9.3102	0.364
9.3474	0.103
9.3846	0.1
9.4218	0.255
9.459	0.378
9.4962	0.451
9.5334	0.533
9.5706	0.587
9.6078	0.333
9.645	0.237
9.6822	0.406
9.7194	0.542
9.7566	0.62
9.7938	0.663
9.831	0.679
9.8682	0.699
9.9054	0.72
9.9426	0.741
9.9798	0.756
10.017	0.764
10.0542	0.767
10.0914	0.784
10.1286	0.781
10.1658	0.77
10.203	0.784
10.2402	0.784
10.2774	0.786
10.3146	0.79
10.3518	0.803
10.389	0.815
10.4262	0.813
10.4634	0.81
10.5006	0.8
10.5378	0.711
10.575	0.758
10.6122	0.821
10.6494	0.834
10.6866	0.846
10.7238	0.848
10.761	0.862
10.7982	0.855
10.8354	0.863
10.8726	0.831
10.9098	0.765
10.947	0.694
10.9842	0.689
11.0214	0.705
11.0586	0.665
11.0958	0.578
11.133	0.573
11.1702	0.651
11.2074	0.679
11.2446	0.733
11.2818	0.798
11.319	0.824
11.3562	0.862
11.3934	0.882
11.4306	0.9
11.4678	0.906
11.505	0.913
11.5422	0.92
11.5794	0.934
11.6166	0.933
11.6538	0.905
11.691	0.872
11.7282	0.883
11.7654	0.906
11.8026	0.914
11.8398	0.917
11.877	0.848
11.9142	0.531
11.9514	0.258
11.9886	0.435
12.0258	0.654
12.063	0.696
12.1002	0.651
12.1374	0.662
12.1746	0.578
12.2118	0.282
12.249	0.151
12.2862	0.446
12.3234	0.703
12.3606	0.806
12.3978	0.84
12.435	0.866
12.4722	0.879
12.5094	0.88
12.5466	0.896
12.5838	0.92
12.621	0.936
12.6582	0.942
12.6954	0.958
12.7326	0.961
12.7698	0.958
12.807	0.939
12.8442	0.939
12.8814	0.931
12.9186	0.906
12.9558	0.889
12.993	0.882
13.0302	0.854
13.0674	0.831
13.1046	0.815
13.1418	0.801
13.179	0.765
13.2162	0.711
13.2534	0.627
13.2906	0.506
13.3278	0.376
13.365	0.255
13.4022	0.144
13.4394	0.147
13.4766	0.286
13.5138	0.412
13.551	0.475
13.5882	0.51
13.6254	0.528
13.6626	0.556
13.6998	0.584
13.737	0.596
13.7742	0.587
13.8114	0.581
13.8486	0.578
13.8858	0.564
13.923	0.547
13.9602	0.541
13.9974	0.544
14.0346	0.522
14.0718	0.472
14.109	0.438
14.1462	0.477
14.1834	0.542
14.2206	0.59
14.2578	0.603
14.295	0.62
14.3322	0.641
14.3694	0.658
14.4066	0.674
14.4438	0.686
14.481	0.7
14.5182	0.706
14.5554	0.717
14.5926	0.71
14.6298	0.717
14.667	0.694
14.7042	0.66
14.7414	0.575
14.7786	0.463
14.8158	0.359
14.853	0.299
14.8902	0.305
14.9274	0.356
14.9646	0.41
15.0018	0.441
15.039	0.458
15.0762	0.469
15.1134	0.514
15.1506	0.547
15.1878	0.567
15.225	0.559
15.2622	0.522
15.2994	0.479
15.3366	0.469
15.3738	0.469
15.411	0.485
15.4482	0.5
15.4854	0.528
15.5226	0.533
15.5598	0.537
15.597	0.531
15.6342	0.537
15.6714	0.537
15.7086	0.539
15.7458	0.53
15.783	0.53
15.8202	0.508
15.8574	0.496
15.8946	0.494
15.9318	0.483
15.969	0.474
