Infrared Spectrum: Ninhydrin
Formula: C 9 H 6 O 4
CAS: 485-47-2
State: gas
Origin: EPA-IR VAPOR PHASE LIBRARY
1/CM	ABSORBANCE
549.8	0.00041093
559.445	0.00036513
569.09	0.0004116
578.734	0.0005007
588.379	0.0006047
598.024	0.0004285
607.669	0.0002461
617.313	0.000329756
626.958	0.0005469
636.603	0.0006524
646.248	0.0003529
655.893	0.0003931
665.537	0.00035552
675.182	0.00039092
684.827	0.000539
694.472	0.0005787
704.116	0.0007811
713.761	0.0008828
723.406	0.0008657
733.051	0.003054
742.695	0.007154
752.34	0.004314
761.985	0.001694
771.63	0.0007103
781.275	0.0006377
790.919	0.000224
800.564	0.00035132
810.209	0.000216
819.854	0.0005508
829.498	0.000651
839.143	0.0006571
848.788	0.0005142
858.433	0.0005285
868.078	0.0005619
877.722	0.0008427
887.367	0.0005601
897.012	0.000253
906.657	0.000138
916.301	0.000213
925.946	0.000138
935.591	0.00036448
945.236	0.0006461
954.88	0.0007388
964.525	0.002414
974.17	0.004184
983.815	0.002424
993.46	0.0005105
1003.1	0.0007339
1012.75	0.0011679
1022.39	0.001764
1032.04	0.002014
1041.68	0.001344
1051.33	0.0006813
1060.97	0.000179
1070.62	0.0005277
1080.26	0.0007442
1089.91	0.0002669
1099.55	3.7e-05
1109.2	0.0005032
1118.84	0.00040275
1128.49	0.0003958
1138.13	0.0005859
1147.78	0.001374
1157.42	0.001904
1167.07	0.002164
1176.71	0.001874
1186.36	0.001694
1196	0.002294
1205.64	0.004484
1215.29	0.009404
1224.93	0.011244
1234.58	0.008074
1244.22	0.003864
1253.87	0.002144
1263.51	0.002334
1273.16	0.001854
1282.8	0.002064
1292.45	0.002254
1302.09	0.001814
1311.74	0.0011756
1321.38	0.001584
1331.03	0.002104
1340.67	0.002024
1350.32	0.0011197
1359.96	0.0006861
1369.61	0.0005815
1379.25	0.0005241
1388.9	0.0005273
1398.54	0.0005275
1408.18	0.0005247
1417.83	0.0005252
1427.47	0.00033672
1437.12	0.00036588
1446.76	0.000235
1456.41	0.0002929
1466.05	0.00036629
1475.7	0.00035307
1485.34	0.0005096
1494.99	0.000425
1504.63	0.00039334
1514.28	0.00040866
1523.92	0.0004863
1533.57	0.0005682
1543.21	0.0006117
1552.86	0.0006021
1562.5	0.0006271
1572.15	0.0007247
1581.79	0.0011976
1591.44	0.002394
1601.08	0.002774
1610.73	0.001694
1620.37	0.0008273
1630.01	0.0006975
1639.66	0.0006433
1649.3	0.0006267
1658.95	0.0008441
1668.59	0.0007809
1678.24	0.0009362
1687.88	0.0010643
1697.53	0.001734
1707.17	0.003044
1716.82	0.006744
1726.46	0.015784
1736.11	0.023714
1745.75	0.023544
1755.4	0.016294
1765.04	0.013054
1774.69	0.010294
1784.33	0.004584
1793.98	0.002164
1803.62	0.0010709
1813.27	0.0007216
1822.91	0.0006261
1832.55	0.0006025
1842.2	0.0009025
1851.84	0.0009026
1861.49	0.0006724
1871.13	0.0005202
1880.78	0.0005742
1890.42	0.0005315
1900.07	0.0004263
1909.71	0.0004484
1919.36	0.00034661
1929	0.00038593
1938.65	0.00039373
1948.29	0.00039334
1957.94	0.0004264
1967.58	0.0004922
1977.23	0.0004486
1986.87	0.0004595
1996.52	0.00041914
2006.16	0.00038567
2015.81	0.0002464
2025.45	0.0003014
2035.1	0.0003104
2044.74	0.0002878
2054.38	0.00034723
2064.03	0.0002882
2073.67	0.0002887
2083.32	0.000328011
2092.96	0.0002422
2102.61	0.000209
2112.25	0.000184
2121.9	0.000221
2131.54	0.000177
2141.19	0.000189
2150.83	0.000203
2160.48	0.000162
2170.12	0.0002543
2179.77	0.0003081
2189.41	0.0002566
2199.06	0.0003047
2208.7	0.0002349
2218.35	0.000330651
2227.99	0.0002328
2237.64	0.000218
2247.28	0.0002811
2256.92	0.0002768
2266.57	0.000248
2276.21	0.0002705
2285.86	0.000332426
2295.5	0.0002885
2305.15	0.0002812
2314.79	0.00037131
2324.44	0.0003023
2334.08	0.0002837
2343.73	0.000264
2353.37	0.000228
2363.02	0.00037322
2372.66	0.0002617
2382.31	0.0002844
2391.95	0.0002448
2401.6	0.00015
2411.24	0.000213
2420.89	0.000147
2430.53	0.000192
2440.18	0.0002314
2449.82	0.0002581
2459.47	0.0002331
2469.11	0.0002329
2478.75	0.000252
2488.4	0.000221
2498.04	0.0002442
2507.69	0.000109
2517.33	0.000218
2526.98	0.00025
2536.62	0.0002845
2546.27	0.0002849
2555.91	0.000126
2565.56	0.000218
2575.2	9.5e-05
2584.85	0.0002674
2594.49	0.000187
2604.14	0.000156
2613.78	0.0002459
2623.43	0.00034772
2633.07	0.00033738
2642.72	0.0002781
2652.36	0.0002733
2662.01	0.00037827
2671.65	0.0002531
2681.29	0.0002482
2690.94	0.0002402
2700.58	0.000267
2710.23	0.000115
2719.87	0.000136
2729.52	0.0002579
2739.16	0.0002599
2748.81	0.000192
2758.45	0.000115
2768.1	0.000184
2777.74	0.0003062
2787.39	0.000209
2797.03	0.0002526
2806.68	0.0002708
2816.32	0.00038227
2825.97	0.00033658
2835.61	0.000161
2845.26	0.000168
2854.9	0.0002737
2864.55	0.000217
2874.19	0.0002715
2883.84	0.0002905
2893.48	0.0002307
2903.12	0.00034198
2912.77	0.00031818
2922.41	0.0002926
2932.06	0.00035673
2941.7	0.000122
2951.35	7.5e-05
2960.99	0.00035615
2970.64	0.000212
2980.28	0.000134
2989.93	0.000191
2999.57	0.0004318
3009.22	0.0002264
3018.86	0.0002446
3028.51	0.0003
3038.15	0.00037469
3047.8	0.00038121
3057.44	0.00039176
3067.09	0.0007492
3076.73	0.001334
3086.38	0.001324
3096.02	0.000756
3105.67	0.0005814
3115.31	0.000192
3124.95	0.0002608
3134.6	0.000265
3144.24	0.00035762
3153.89	0.00037146
3163.53	0.000192
3173.18	0.000227
3182.82	0.0002502
3192.47	0.000198
3202.11	0.000162
3211.76	0.00036078
3221.4	0.0004407
3231.05	0.0003088
3240.69	0.000143
3250.34	0.000324482
3259.98	0.00041347
3269.63	0.000197
3279.27	0.0004181
3288.92	0.0002571
3298.56	0.0002578
3308.21	0.0002819
3317.85	0.00040622
3327.49	0.0003054
3337.14	0.0002654
3346.78	0.0002652
3356.43	0.000256
3366.07	0.0002817
3375.72	0.000159
3385.36	0.0002976
3395.01	0.000189
3404.65	0.0002253
3414.3	0.00040375
3423.94	0.000184
3433.59	0.00034431
3443.23	0.0004811
3452.88	0.0008002
3462.52	0.0007413
3472.17	0.0009932
3481.81	0.0007337
3491.46	0.0004759
3501.1	0.0006261
3510.75	0.0006808
3520.39	0.0005112
3530.04	0.000651
3539.68	0.0005581
3549.32	0.00034479
3558.97	0.0004522
3568.61	0.0005437
3578.26	0.000199
3587.9	0.00036526
3597.55	0.000186
3607.19	0.0004518
3616.84	0.00035308
3626.48	0.000214
3636.13	0.00031978
3645.77	0.0002266
3655.42	0.0004281
3665.06	0.000176
3674.71	0.00034955
3684.35	0.0004702
3694	0.000249
3703.64	0.0004578
3713.29	0.0002517
3722.93	0.0003
3732.58	0
3742.22	4.9e-05
3751.86	9.7e-05
3761.51	0.00036931
3771.15	0.00031832
3780.8	0.00038812
3790.44	0.000188
3800.09	0.0003491
3809.73	0.000324786
3819.38	0.0002678
3829.02	0.0002622
3838.67	0.0002506
3848.31	0.000159
3857.96	0.0002658
3867.6	0.00041915
3877.25	0.000212
3886.89	0.0004494
3896.54	0.000155
3906.18	0.000148
3915.83	0.000329513
3925.47	0.00032036
3935.12	0.0002422
3944.76	0.0002711
3954.41	0.000169
3964.05	0.0002904
3973.69	0.000132
3983.34	0.00035914
3992.98	2.8e-05
