Infrared Spectrum: Cytisine
Formula: C11 H14 N2 O
CAS: 485-35-8
State: SOLUTION (7% CHCl3 FOR 2-12.5 MICRON) VS SOLVENT
Class: COBLENTZ
Instrument: PERKIN-ELMER 21 (GRATING)
Instrument parameters: FILTER AT ABOUT 10 MICRONS
Path length: 0.010 CM
Resolution: 2
Origin: ABBOTT LABORATORIES
1/CM	TRANSMITTANCE
782	0.5871
791	0.5653
800	0.7272
809	0.7193
818	0.6678
827	0.8356
836	0.8434
845	0.8025
854	0.743
863	0.7121
872	0.8675
881	0.8654
890	0.8652
899	0.7499
908	0.7721
917	0.782
926	0.8818
935	0.8298
944	0.8605
953	0.8434
962	0.8039
971	0.8411
980	0.8277
989	0.8123
998	0.831
1007	0.8721
1016	0.8692
1025	0.8636
1034	0.8543
1043	0.8311
1052	0.6267
1061	0.792
1070	0.7285
1079	0.7084
1088	0.7734
1097	0.6105
1106	0.651
1115	0.7774
1124	0.7393
1133	0.3811
1142	0.5095
1151	0.5418
1160	0.715
1169	0.6404
1178	0.8311
1187	0.8477
1196	0.7009
1205	0.619
1214	0.5969
1223	0.5806
1232	0.5698
1241	0.5639
1250	0.5756
1259	0.604
1268	0.7278
1277	0.7705
1286	0.7499
1295	0.6668
1304	0.6647
1313	0.7811
1322	0.7637
1331	0.7823
1340	0.5505
1349	0.5034
1358	0.7869
1367	0.8348
1376	0.8368
1385	0.8346
1394	0.8016
1403	0.7612
1412	0.6524
1421	0.7311
1430	0.6066
1439	0.5982
1448	0.7308
1457	0.7244
1466	0.7446
1475	0.8245
1484	0.8144
1493	0.7948
1502	0.7603
1511	0.6946
1520	0.5363
1529	0.2573
1538	0.0244
1547	0.1003
1556	0.0705
1565	0.0923
1574	0.2592
1583	0.5206
1592	0.7187
1601	0.7403
1610	0.7266
1619	0.6324
1628	0.4088
1637	0.1633
1646	0.0285
1655	0.1569
1664	0.5307
1673	0.6801
1682	0.7538
1691	0.8092
1700	0.8263
1709	0.8396
1718	0.8504
1727	0.8611
1736	0.8652
1745	0.8708
1754	0.8807
1763	0.8865
1772	0.8885
1781	0.8904
1790	0.8904
1799	0.8906
1808	0.8901
1817	0.8881
1826	0.8907
1835	0.8995
1844	0.9037
1853	0.9057
1862	0.9052
1871	0.9045
1880	0.9029
1889	0.9012
1898	0.8988
1907	0.8964
1916	0.894
1925	0.8905
1934	0.8866
1943	0.8864
1952	0.895
1961	0.9025
1970	0.9054
1979	0.9065
1988	0.9067
1997	0.9065
2006	0.9063
2015	0.9062
2024	0.9061
2033	0.906
2042	0.906
2051	0.9059
2060	0.9058
2069	0.9057
2078	0.9056
2087	0.9052
2096	0.9048
2105	0.9044
2114	0.904
2123	0.9038
2132	0.9037
2141	0.9035
2150	0.9034
2159	0.903
2168	0.9026
2177	0.902
2186	0.9014
2195	0.9009
2204	0.9005
2213	0.9005
2222	0.9004
2231	0.9004
2240	0.9004
2249	0.9007
2258	0.9011
2267	0.9016
2276	0.902
2285	0.9026
2294	0.9034
2303	0.9041
2312	0.9051
2321	0.907
2330	0.9089
2339	0.9108
2348	0.9127
2357	0.9131
2366	0.9116
2375	0.9048
2384	0.8847
2393	0.8583
2402	0.8424
2411	0.8345
2420	0.8296
2429	0.8291
2438	0.8314
2447	0.8352
2456	0.8391
2465	0.8442
2474	0.8497
2483	0.8552
2492	0.8612
2501	0.867
2510	0.8722
2519	0.8763
2528	0.8784
2537	0.8791
2546	0.8793
2555	0.8792
2564	0.8792
2573	0.8791
2582	0.8784
2591	0.8775
2600	0.8765
2609	0.8749
2618	0.8731
2627	0.8704
2636	0.8675
2645	0.8626
2654	0.8548
2663	0.8438
2672	0.8281
2681	0.8117
2690	0.7952
2699	0.782
2708	0.78
2717	0.7789
2726	0.7762
2735	0.7671
2744	0.7394
2753	0.6853
2762	0.6314
2771	0.6149
2780	0.6122
2789	0.6388
2798	0.6668
2807	0.6656
2816	0.6607
2825	0.652
2834	0.6399
2843	0.612
2852	0.5653
2861	0.5188
2870	0.4727
2879	0.4268
2888	0.3813
2897	0.336
2906	0.3092
2915	0.2983
2924	0.2952
2933	0.2942
2942	0.2938
2951	0.2945
2960	0.2971
2969	0.31
2978	0.4618
2987	0.6144
2996	0.7659
3005	0.8708
3014	0.8767
3023	0.8787
3032	0.8797
3041	0.8805
3050	0.8812
3059	0.8818
3068	0.8822
3077	0.8827
3086	0.8832
3095	0.8837
3104	0.8842
3113	0.8846
3122	0.8865
3131	0.8854
3140	0.8855
3149	0.8854
3158	0.8853
3167	0.8852
3176	0.8848
3185	0.8836
3194	0.8825
3203	0.8807
3212	0.8787
3221	0.8767
3230	0.8744
3239	0.8712
3248	0.868
3257	0.8647
3266	0.8611
3275	0.8575
3284	0.853
3293	0.8497
3302	0.8495
3311	0.8506
3320	0.8544
3329	0.86
3338	0.866
3347	0.8726
3356	0.8764
3365	0.8802
3374	0.8833
3383	0.886
3392	0.8884
3401	0.8902
3410	0.8918
3419	0.8932
3428	0.8942
3437	0.8951
3446	0.8959
3455	0.8962
3464	0.8963
3473	0.8964
3482	0.8965
3491	0.8966
3500	0.8967
3509	0.8965
3518	0.8963
3527	0.8962
3536	0.8961
3545	0.8958
3554	0.8953
3563	0.895
3572	0.8945
3581	0.8944
3590	0.8945
3599	0.8952
3608	0.8978
3617	0.9005
3626	0.9031
3635	0.9057
3644	0.9083
3653	0.9093
3662	0.9101
3671	0.9101
3680	0.91
3689	0.9099
3698	0.9098
3707	0.9096
3716	0.9095
3725	0.9094
3734	0.9093
3743	0.9087
3752	0.9079
3761	0.9071
3770	0.9063
3779	0.9055
3788	0.9048
3797	0.9041
3806	0.9034
3815	0.9027
3824	0.9021
3833	0.9014
3842	0.9009
3851	0.9004
3860	0.9
3869	0.8998
3878	0.8997
3887	0.8997
3896	0.8996
3905	0.8996
3914	0.8998
3923	0.9001
3932	0.9004
3941	0.9005
3950	0.9006
3959	0.9007
3968	0.9007
3977	0.9009
3986	0.9009
3995	0.9011
