Infrared Spectrum: DIBENZOYLACETIC ACID, ETHYL ESTER
Formula: C18 H16 O4
CAS: 4850-82-2
State: SOLID (SPLIT MULL), FLUOROLUBE FOR 3800-1330 CM^-^1, NUJOL FOR 1330-460 CM^-^1
Class: COBLENTZ III
Instrument: DOW KBr FOREPRISM-GRATING
Instrument parameters: BLAZED AT 3.5, 12.0, 20.0 MICRON AND CHANGED AT 5.0, 7.5, 14.9 MICRON
Sampling: TRANSMISSION
Resolution: 2
Origin: DOW CHEMICAL COMPANY
1/CM	TRANSMITTANCE
429.542	1.001
438.405	1.001
447.267	1.001
456.13	1.001
464.993	1.001
473.855	1.006
482.718	1.008
491.58	1.011
500.443	1.015
509.306	1.019
518.168	1.015
527.031	1.013
535.894	1.012
544.756	1.001
553.619	1.008
562.481	1.026
571.344	1.016
580.207	0.966
589.069	0.5019
597.932	0.732
606.795	0.852
615.657	0.723
624.52	0.948
633.382	0.799
642.245	1.026
651.108	1.023
659.97	0.988
668.833	0.917
677.696	0.91
686.558	0.203
695.421	0.419
704.284	0.783
713.146	0.868
722.009	0.892
730.871	0.94
739.734	0.888
748.597	0.904
757.459	0.85
766.322	0.28
775.185	0.809
784.047	0.895
792.91	0.95
801.772	0.903
810.635	0.94
819.498	0.897
828.36	0.944
837.223	0.831
846.086	0.939
854.948	0.852
863.811	0.803
872.673	0.979
881.536	0.987
890.399	0.975
899.261	0.973
908.124	0.941
916.987	0.907
925.849	0.839
934.712	0.763
943.575	0.656
952.437	0.926
961.3	0.941
970.162	0.911
979.025	0.874
987.888	0.725
996.75	0.465
1005.61	0.505
1014.48	0.808
1023.34	0.7299
1032.2	0.705
1041.06	0.852
1049.93	0.914
1058.79	0.939
1067.65	0.911
1076.51	0.814
1085.38	0.897
1094.24	0.781
1103.1	0.812
1111.96	0.896
1120.83	0.893
1129.69	0.85
1138.55	0.781
1147.41	0.6
1156.28	0.225
1165.14	0.295
1174	0.256
1182.87	0.299
1191.73	0.226
1200.59	0.432
1209.45	0.795
1218.32	0.853
1227.18	0.834
1236.04	0.767
1244.9	0.646
1253.77	0.418
1262.63	0.258
1271.49	0.419
1280.35	0.2669
1289.22	0.052
1298.08	0.124
1306.94	0.084
1315.8	0.301
1324.67	0.1981
1333.53	0.62
1342.39	0.743
1351.26	0.779
1360.12	0.803
1368.98	0.558
1377.84	0.82
1386.71	0.698
1395.57	0.795
1404.43	0.812
1413.29	0.777
1422.16	0.823
1431.02	0.852
1439.88	0.803
1448.74	0.262
1457.61	0.796
1466.47	0.785
1475.33	0.899
1484.19	0.946
1493.06	0.912
1501.92	0.95
1510.78	0.957
1519.65	0.951
1528.51	0.941
1537.37	0.939
1546.23	0.922
1555.1	0.928
1563.96	0.893
1572.82	0.817
1581.68	0.52
1590.55	0.64
1599.41	0.4481
1608.27	0.85
1617.13	0.814
1626	0.812
1634.86	0.761
1643.72	0.708
1652.58	0.66
1661.45	0.4899
1670.31	0.026
1679.17	0.077
1688.04	0.117
1696.9	0.441
1705.76	0.591
1714.62	0.588
1723.49	0.099
1732.35	0.026
1741.21	0.5691
1750.07	0.841
1758.94	0.937
1767.8	0.969
1776.66	0.976
1785.52	0.97
1794.39	0.977
1803.25	0.986
1812.11	0.976
1820.97	0.987
1829.84	0.994
1838.7	1.001
1847.56	0.994
1856.43	1
1865.29	1.001
1874.15	1.001
1883.01	1
1891.88	1.001
1900.74	0.997
1909.6	0.982
1918.46	0.977
1927.33	0.991
1936.19	0.991
1945.05	0.995
1953.91	1
1962.78	0.982
1971.64	0.983
1980.5	0.968
1989.36	0.976
1998.23	0.995
2007.09	0.998
2015.95	1.002
2024.82	1.005
2033.68	1.006
2042.54	1.008
2051.4	1.002
2060.27	1.005
2069.13	1.002
2077.99	1
2086.85	0.997
2095.72	0.993
2104.58	0.991
2113.44	0.988
2122.3	0.988
2131.17	0.987
2140.03	0.986
2148.89	0.983
2157.75	0.98
2166.62	0.977
2175.48	0.975
2184.34	0.97
2193.21	0.969
2202.07	0.966
2210.93	0.965
2219.79	0.962
2228.66	0.957
2237.52	0.953
2246.38	0.948
2255.24	0.943
2264.11	0.939
2272.97	0.936
2281.83	0.9319
2290.69	0.928
2299.56	0.924
2308.42	0.922
2317.28	0.919
2326.14	0.918
2335.01	0.915
2343.87	0.915
2352.73	0.915
2361.6	0.915
2370.46	0.915
2379.32	0.918
2388.18	0.921
2397.05	0.915
2405.91	0.912
2414.77	0.908
2423.63	0.9059
2432.5	0.901
2441.36	0.899
2450.22	0.896
2459.08	0.896
2467.95	0.895
2476.81	0.895
2485.67	0.895
2494.53	0.895
2503.4	0.893
2512.26	0.892
2521.12	0.8899
2529.99	0.8829
2538.85	0.8789
2547.71	0.877
2556.57	0.8751
2565.44	0.879
2574.3	0.881
2583.16	0.8789
2592.02	0.874
2600.89	0.872
2609.75	0.872
2618.61	0.872
2627.47	0.872
2636.34	0.867
2645.2	0.8659
2654.06	0.8598
2662.92	0.8542
2671.79	0.856
2680.65	0.856
2689.51	0.861
2698.38	0.8658
2707.24	0.866
2716.1	0.8639
2724.96	0.86
2733.83	0.8529
2742.69	0.849
2751.55	0.846
2760.41	0.843
2769.28	0.839
2778.14	0.835
2787	0.834
2795.86	0.8319
2804.73	0.8248
2813.59	0.8197
2822.45	0.8139
2831.31	0.809
2840.18	0.8048
2849.04	0.7978
2857.9	0.7909
2866.77	0.7839
2875.63	0.7729
2884.49	0.7614
2893.35	0.7437
2902.22	0.7405
2911.08	0.75
2919.94	0.7439
2928.8	0.7112
2937.67	0.616
2946.53	0.727
2955.39	0.6993
2964.25	0.6492
2973.12	0.669
2981.98	0.6182
2990.84	0.6239
2999.7	0.6693
3008.57	0.7285
3017.43	0.751
3026.29	0.7437
3035.16	0.7248
3044.02	0.7278
3052.88	0.7273
3061.74	0.7066
3070.61	0.748
3079.47	0.741
3088.33	0.7581
3097.19	0.7581
3106.06	0.7703
3114.92	0.78
3123.78	0.783
3132.64	0.783
3141.51	0.783
3150.37	0.783
3159.23	0.781
3168.09	0.78
3176.96	0.78
3185.82	0.78
3194.68	0.781
3203.55	0.7827
3212.41	0.781
3221.27	0.783
3230.13	0.787
3239	0.7867
3247.86	0.7809
3256.72	0.78
3265.58	0.78
3274.45	0.78
3283.31	0.779
3292.17	0.777
3301.03	0.777
3309.9	0.7739
3318.76	0.7537
3327.62	0.754
3336.48	0.755
3345.35	0.7563
3354.21	0.763
3363.07	0.762
3371.93	0.7644
3380.8	0.7612
3389.66	0.766
3398.52	0.77
3407.39	0.7607
3416.25	0.758
3425.11	0.7557
3433.97	0.7467
3442.84	0.743
3451.7	0.7483
3460.56	0.752
3469.42	0.752
3478.29	0.752
3487.15	0.751
3496.01	0.748
3504.87	0.744
3513.74	0.744
3522.6	0.743
3531.46	0.743
3540.32	0.743
3549.19	0.741
3558.05	0.741
3566.91	0.7378
3575.78	0.7368
3584.64	0.734
3593.5	0.734
3602.36	0.734
3611.23	0.7338
3620.09	0.727
3628.95	0.726
3637.81	0.723
3646.68	0.723
3655.54	0.723
3664.4	0.72
3673.26	0.719
3682.13	0.715
3690.99	0.714
3699.85	0.712
3708.71	0.711
3717.58	0.711
3726.44	0.711
3735.3	0.709
3744.17	0.708
3753.03	0.704
3761.89	0.701
3770.75	0.701
3779.62	0.701
3788.48	0.701
3797.34	0.7
