Infrared Spectrum: BUTYLAMINE, N,N-BIS-(2,3-EPOXYPROPYL)-
Formula: C10 H19 N O2
CAS: 4856-88-6
State: LIQUID (NEAT)
Boiling point: 65 C AT 0.3 mmHg
Class: COBLENTZ III
Instrument: BAIRD (GRATING)
Instrument parameters: NaCl PRISM
Sampling: TRANSMISSION
Path length: 0.003 CM
Resolution: 2
Origin: WYANDOTTE CHEMICALS CORP.
1/CM	TRANSMITTANCE
3972.19	0.9615
3963.26	0.9609
3954.34	0.9604
3945.41	0.9597
3936.49	0.9588
3927.56	0.958
3918.63	0.9575
3909.71	0.9575
3900.78	0.9575
3891.86	0.9575
3882.93	0.9578
3874.01	0.9578
3865.08	0.9581
3856.15	0.9582
3847.23	0.9585
3838.3	0.9589
3829.38	0.9592
3820.45	0.9595
3811.52	0.9601
3802.6	0.9607
3793.67	0.9613
3784.75	0.9621
3775.82	0.9638
3766.9	0.9654
3757.97	0.9675
3749.04	0.9702
3740.12	0.973
3731.19	0.976
3722.27	0.9778
3713.34	0.9789
3704.41	0.9801
3695.49	0.9808
3686.56	0.9811
3677.64	0.9814
3668.71	0.9817
3659.79	0.9818
3650.86	0.9818
3641.93	0.9818
3633.01	0.982
3624.08	0.9821
3615.16	0.982
3606.23	0.9818
3597.3	0.9816
3588.38	0.9816
3579.45	0.9814
3570.53	0.9811
3561.6	0.9805
3552.68	0.9798
3543.75	0.9792
3534.82	0.9786
3525.9	0.978
3516.97	0.9775
3508.05	0.9771
3499.12	0.9766
3490.19	0.976
3481.27	0.9752
3472.34	0.9745
3463.42	0.9738
3454.49	0.9734
3445.57	0.973
3436.64	0.9725
3427.71	0.972
3418.79	0.9714
3409.86	0.9707
3400.94	0.9702
3392.01	0.9699
3383.08	0.9698
3374.16	0.9702
3365.23	0.9706
3356.31	0.971
3347.38	0.9712
3338.46	0.9713
3329.53	0.9706
3320.6	0.969
3311.68	0.9664
3302.75	0.9643
3293.83	0.9633
3284.9	0.9625
3275.97	0.9618
3267.05	0.9614
3258.12	0.9608
3249.2	0.9598
3240.27	0.9588
3231.35	0.9574
3222.42	0.956
3213.49	0.954
3204.57	0.9512
3195.64	0.9481
3186.72	0.9447
3177.79	0.9411
3168.86	0.937
3159.94	0.932
3151.01	0.9285
3142.09	0.9251
3133.16	0.922
3124.24	0.9184
3115.31	0.9142
3106.38	0.9096
3097.46	0.9043
3088.53	0.8954
3079.61	0.8814
3070.68	0.859
3061.75	0.8018
3052.83	0.7182
3043.9	0.542
3034.98	0.5112
3026.05	0.5626
3017.12	0.5976
3008.2	0.5617
2999.27	0.4392
2990.35	0.3158
2981.42	0.1962
2972.5	0.18
2963.57	0.1395
2954.64	0.0817
2945.72	0.0599
2936.79	0.0594
2927.87	0.0627
2918.94	0.091
2910.01	0.1349
2901.09	0.1792
2892.16	0.2238
2883.24	0.2465
2874.31	0.2417
2865.39	0.2078
2856.46	0.1745
2847.53	0.1784
2838.61	0.2187
2829.68	0.2591
2820.76	0.2803
2811.83	0.2763
2802.9	0.2641
2793.98	0.2518
2785.05	0.2427
2776.13	0.2426
2767.2	0.3482
2758.28	0.4674
2749.35	0.5483
2740.42	0.5791
2731.5	0.6239
2722.57	0.6574
2713.65	0.6987
2704.72	0.7265
2695.79	0.758
2686.87	0.7907
2677.94	0.8213
2669.02	0.8343
2660.09	0.8506
2651.17	0.8689
2642.24	0.8848
2633.31	0.8941
2624.39	0.901
2615.46	0.9064
2606.54	0.9115
2597.61	0.9168
2588.68	0.9231
2579.76	0.9297
2570.83	0.9336
2561.91	0.9368
2552.98	0.9394
2544.06	0.9421
2535.13	0.9453
2526.2	0.9486
2517.28	0.9521
2508.35	0.9554
2499.43	0.958
2490.5	0.9597
2481.57	0.9611
2472.65	0.9621
2463.72	0.9628
2454.8	0.9636
2445.87	0.9641
2436.95	0.9639
2428.02	0.9636
2419.09	0.963
2410.17	0.9623
2401.24	0.9613
2392.32	0.9604
2383.39	0.9598
2374.46	0.9591
2365.54	0.9583
2356.61	0.9588
2347.69	0.9622
2338.76	0.9688
2329.84	0.9709
2320.91	0.9696
2311.98	0.9701
2303.06	0.9763
2294.13	0.9789
2285.21	0.9745
2276.28	0.9606
2267.35	0.9567
2258.43	0.9551
2249.5	0.9486
2240.58	0.942
2231.65	0.9375
2222.72	0.9362
2213.8	0.9377
2204.87	0.9408
2195.95	0.9443
2187.02	0.9481
2178.1	0.9529
2169.17	0.9593
2160.24	0.9637
2151.32	0.9655
2142.39	0.965
2133.47	0.9645
2124.54	0.9656
2115.61	0.9704
2106.69	0.9761
2097.76	0.9797
2088.84	0.9798
2079.91	0.9794
2070.99	0.9784
2062.06	0.977
2053.13	0.9755
2044.21	0.9749
2035.28	0.9755
2026.36	0.9765
2017.43	0.9777
2008.5	0.9792
1999.58	0.9786
1990.65	0.9735
1981.73	0.9686
1972.8	0.9645
1963.88	0.9619
1954.95	0.9608
1946.02	0.9645
1937.1	0.9689
1928.17	0.9747
1919.25	0.9781
1910.32	0.9805
1901.39	0.9771
1892.47	0.9787
1883.54	0.981
1874.62	0.9828
1865.69	0.9838
1856.77	0.9833
1847.84	0.9818
1838.91	0.9805
1829.99	0.9794
1821.06	0.9785
1812.14	0.9782
1803.21	0.9775
1794.28	0.9767
1785.36	0.9762
1776.43	0.9766
1767.51	0.9775
1758.58	0.9788
1749.66	0.98
1740.73	0.9794
1731.8	0.977
1722.88	0.9745
1713.95	0.9718
1705.03	0.9691
1696.1	0.9665
1687.17	0.964
1678.25	0.9613
1669.32	0.9584
1660.4	0.9559
1651.47	0.9537
1642.55	0.9515
1633.62	0.9492
1624.69	0.9442
1615.77	0.9411
1606.84	0.9427
1597.92	0.9419
1588.99	0.9402
1580.06	0.9375
1571.14	0.9345
1562.21	0.9286
1553.29	0.9269
1544.36	0.9092
1535.44	0.8863
1526.51	0.8526
1517.58	0.8488
1508.66	0.8486
1499.73	0.8076
1490.81	0.6021
1481.88	0.5679
1472.95	0.3586
1464.03	0.3798
1455.1	0.4959
1446.18	0.5315
1437.25	0.5781
1428.33	0.6465
1419.4	0.6103
1410.47	0.6464
1401.55	0.7162
1392.62	0.6929
1383.7	0.5928
1374.77	0.6002
1365.84	0.6088
1356.92	0.5166
1347.99	0.5245
1339.07	0.5723
1330.14	0.6209
1321.21	0.6496
1312.29	0.6449
1303.36	0.642
1294.44	0.6841
1285.51	0.6971
1276.59	0.5999
1267.66	0.4529
1258.73	0.3039
1249.81	0.3884
1240.88	0.6272
1231.96	0.731
1223.03	0.812
1214.1	0.8552
1205.18	0.8553
1196.25	0.8073
1187.33	0.6145
1178.4	0.5071
1169.48	0.5167
1160.55	0.6091
1151.62	0.5931
1142.7	0.5366
1133.77	0.4875
1124.85	0.5932
1115.92	0.6423
1106.99	0.5977
1098.07	0.5059
1089.14	0.3928
1080.22	0.3518
1071.29	0.3817
1062.37	0.5279
1053.44	0.6425
1044.51	0.729
1035.59	0.7624
1026.66	0.7723
1017.74	0.7687
1008.81	0.7446
999.885	0.6727
990.959	0.4927
982.033	0.4548
973.107	0.4675
964.181	0.452
955.255	0.4853
946.33	0.5356
937.404	0.5285
928.478	0.393
919.552	0.3612
910.626	0.2794
901.7	0.4387
892.775	0.5759
883.849	0.5383
874.923	0.5881
865.997	0.4436
857.071	0.2647
848.145	0.14
839.219	0.1784
830.294	0.1729
821.368	0.2877
812.442	0.4969
803.516	0.5133
794.59	0.6341
785.664	0.7558
776.739	0.7769
767.813	0.5135
758.887	0.4793
749.961	0.6022
741.035	0.7094
732.109	0.6982
723.184	0.8547
714.258	0.9127
705.332	0.928
696.406	0.932
687.48	0.9384
678.554	0.9292
669.628	0.9189
660.703	0.8958
651.777	0.8885
642.851	0.8651
633.925	0.8447
