Infrared Spectrum: 2-Benzimidazoleethanol
Formula: C9 H10 N2 O
CAS: 4857-01-6
State: SOLID (SPLIT MULL), FLUOROLUBE FOR 3800-1330 CM^-^1, NUJOL FOR 1330-460 CM^-^1
Melting point: 151 C
Class: COBLENTZ III
Instrument: DOW KBr FOREPRISM-GRATING
Instrument parameters: BLAZED AT 3.5, 12.0, 20.0 MICRON AND CHANGED AT 5.0, 7.5, 14.9 MICRON
Sampling: TRANSMISSION
Resolution: 2
Origin: DOW CHEMICAL COMPANY
1/CM	TRANSMITTANCE
3784	0.7121
3775	0.7134
3766	0.7148
3757	0.7162
3748	0.7193
3739	0.7224
3730	0.7256
3721	0.7288
3712	0.7311
3703	0.7334
3694	0.7357
3685	0.7376
3676	0.7397
3667	0.7418
3658	0.7442
3649	0.7465
3640	0.7489
3631	0.751
3622	0.7533
3613	0.7555
3604	0.7578
3595	0.7595
3586	0.7608
3577	0.7621
3568	0.7636
3559	0.7649
3550	0.7664
3541	0.7678
3532	0.7693
3523	0.7708
3514	0.7722
3505	0.7743
3496	0.7768
3487	0.7794
3478	0.7818
3469	0.7843
3460	0.7865
3451	0.7887
3442	0.791
3433	0.7933
3424	0.7956
3415	0.7976
3406	0.7997
3397	0.8
3388	0.7996
3379	0.7981
3370	0.7961
3361	0.7928
3352	0.7888
3343	0.784
3334	0.7789
3325	0.7731
3316	0.7664
3307	0.7525
3298	0.7342
3289	0.709
3280	0.6869
3271	0.6653
3262	0.6396
3253	0.6125
3244	0.5874
3235	0.5568
3226	0.5274
3217	0.4957
3208	0.4666
3199	0.4402
3190	0.4142
3181	0.3793
3172	0.34
3163	0.3194
3154	0.3207
3145	0.2941
3136	0.2634
3127	0.252
3118	0.2383
3109	0.2261
3100	0.2199
3091	0.2184
3082	0.2202
3073	0.2252
3064	0.2256
3055	0.1744
3046	0.1744
3037	0.1864
3028	0.1974
3019	0.211
3010	0.2299
3001	0.2459
2992	0.2676
2983	0.3016
2974	0.3117
2965	0.2878
2956	0.3175
2947	0.3407
2938	0.3647
2929	0.377
2920	0.3604
2911	0.3407
2902	0.345
2893	0.3457
2884	0.3128
2875	0.2296
2866	0.2447
2857	0.2671
2848	0.2792
2839	0.2821
2830	0.278
2821	0.2711
2812	0.2634
2803	0.2543
2794	0.2447
2785	0.235
2776	0.2275
2767	0.2284
2758	0.2387
2749	0.2515
2740	0.2627
2731	0.2731
2722	0.2849
2713	0.2961
2704	0.3099
2695	0.3312
2686	0.3526
2677	0.3739
2668	0.3891
2659	0.3866
2650	0.3647
2641	0.3359
2632	0.3122
2623	0.3063
2614	0.3222
2605	0.3412
2596	0.3605
2587	0.3797
2578	0.3989
2569	0.418
2560	0.4372
2551	0.4564
2542	0.4756
2533	0.4895
2524	0.4926
2515	0.4868
2506	0.4787
2497	0.4739
2488	0.4757
2479	0.4982
2470	0.5231
2461	0.5496
2452	0.5732
2443	0.5891
2434	0.5962
2425	0.602
2416	0.6124
2407	0.6254
2398	0.6388
2389	0.6515
2380	0.6615
2371	0.6664
2362	0.6684
2353	0.6699
2344	0.6744
2335	0.6826
2326	0.6918
2317	0.7017
2308	0.7128
2299	0.7232
2290	0.7334
2281	0.7435
2272	0.7522
2263	0.7608
2254	0.7688
2245	0.7749
2236	0.779
2227	0.7814
2218	0.7887
2209	0.7965
2200	0.8045
2191	0.8106
2182	0.8168
2173	0.8228
2164	0.829
2155	0.8337
2146	0.8368
2137	0.8383
2128	0.84
2119	0.8431
2110	0.8477
2101	0.8527
2092	0.8573
2083	0.8618
2074	0.8663
2065	0.8689
2056	0.872
2047	0.8744
2038	0.8768
2029	0.8802
2020	0.8804
2011	0.8821
2002	0.8847
1993	0.8799
1984	0.8649
1975	0.8661
1966	0.8681
1957	0.8714
1948	0.872
1939	0.8587
1930	0.8424
1921	0.8465
1912	0.8573
1903	0.862
1894	0.843
1885	0.8371
1876	0.854
1867	0.864
1858	0.8596
1849	0.8541
1840	0.8598
1831	0.8623
1822	0.8597
1813	0.8531
1804	0.8489
1795	0.8493
1786	0.8474
1777	0.8227
1768	0.8103
1759	0.8347
1750	0.8378
1741	0.838
1732	0.8338
1723	0.8258
1714	0.8263
1705	0.8301
1696	0.8161
1687	0.8093
1678	0.7992
1669	0.7949
1660	0.8031
1651	0.8171
1642	0.8261
1633	0.8267
1624	0.7904
1615	0.8275
1606	0.8401
1597	0.8332
1588	0.7706
1579	0.8517
1570	0.8668
1561	0.8668
1552	0.8524
1543	0.7646
1534	0.5391
1525	0.7951
1516	0.8487
1507	0.8592
1498	0.843
1489	0.6037
1480	0.7228
1471	0.6655
1462	0.4564
1453	0.5245
1444	0.1182
1435	0.207
1426	0.4539
1417	0.4585
1408	0.5275
1399	0.6953
1390	0.4757
1381	0.5773
1372	0.5662
1363	0.5402
1354	0.6742
1345	0.6712
1336	0.5352
1327	0.6478
1318	0.7119
1309	0.563
1300	0.7357
1291	0.7615
1282	0.5977
1273	0.1298
1264	0.6236
1255	0.6359
1246	0.4977
1237	0.7244
1228	0.6796
1219	0.7268
1210	0.7897
1201	0.8015
1192	0.5934
1183	0.3742
1174	0.7562
1165	0.8097
1156	0.8289
1147	0.8128
1138	0.8435
1129	0.8606
1120	0.8628
1111	0.6821
1102	0.8473
1093	0.8208
1084	0.6875
1075	0.1912
1066	0.1813
1057	0.6497
1048	0.3714
1039	0.4529
1030	0.7039
1021	0.3897
1012	0.7371
1003	0.7833
994	0.7868
985	0.8245
976	0.8171
967	0.7237
958	0.517
949	0.7404
940	0.7781
931	0.7611
922	0.7256
913	0.7224
904	0.586
895	0.7201
886	0.6568
877	0.5649
868	0.3709
859	0.4587
850	0.571
841	0.5573
832	0.53
823	0.5223
814	0.602
805	0.6478
796	0.6936
787	0.7225
778	0.745
769	0.6631
760	0.7317
751	0.4527
742	0.1753
733	0.5834
724	0.7058
715	0.7496
706	0.8443
697	0.8515
688	0.7928
679	0.8716
670	0.869
661	0.8747
652	0.8521
643	0.833
634	0.8847
625	0.8505
616	0.8801
607	0.886
598	0.8835
589	0.8737
580	0.866
571	0.8655
562	0.8425
553	0.7895
544	0.8375
535	0.8448
526	0.8405
517	0.8398
508	0.8425
499	0.845
490	0.8406
481	0.7503
472	0.8286
463	0.8347
