Infrared Spectrum: 2-Chlorobenzimidazole
Formula: C 7 H 5 Cl N 2
CAS: 4857-06-1
State: gas
Origin: EPA-IR VAPOR PHASE LIBRARY
1/CM	ABSORBANCE
549.8	0.000816
559.445	0.00025
569.09	0.001233
578.734	0.00082
588.379	0.001028
598.024	0.0025
607.669	0.0016959
617.313	0.0013008
626.958	0.000887
636.603	0.00088
646.248	0.0015506
655.893	0.001968
665.537	0.0022637
675.182	0.0014416
684.827	0.001121
694.472	0.0015539
704.116	0.0018125
713.761	0.0022377
723.406	0.00554
733.051	0.00926
742.695	0.011
752.34	0.00817
761.985	0.00395
771.63	0.0020155
781.275	0.0018855
790.919	0.00138783
800.564	0.0019493
810.209	0.001795
819.854	0.0020131
829.498	0.00271
839.143	0.00383
848.788	0.00518
858.433	0.006
868.078	0.00504
877.722	0.00321
887.367	0.00305
897.012	0.00255
906.657	0.0020983
916.301	0.0019682
925.946	0.0020972
935.591	0.0014466
945.236	0.00135798
954.88	0.0018644
964.525	0.00367
974.17	0.00404
983.815	0.0023012
993.46	0.0022162
1003.1	0.0015519
1012.75	0.001229
1022.39	0.0017763
1032.04	0.00137827
1041.68	0.0021114
1051.33	0.000978
1060.97	0.0016705
1070.62	0.001106
1080.26	0.000638
1089.91	0.000947
1099.55	0.001069
1109.2	0.0016325
1118.84	0.0014608
1128.49	0.001175
1138.13	0.00373
1147.78	0.00446
1157.42	0.00302
1167.07	0.0023089
1176.71	0.001142
1186.36	0.00015
1196	0.000485
1205.64	0.000422
1215.29	0.0014422
1224.93	0.0012457
1234.58	0.000455
1244.22	0.001194
1253.87	0.00574
1263.51	0.00824
1273.16	0.00528
1282.8	0.00342
1292.45	0.00369
1302.09	0.001812
1311.74	0.0021928
1321.38	0.00354
1331.03	0.00637
1340.67	0.00796
1350.32	0.00733
1359.96	0.00532
1369.61	0.00602
1379.25	0.01573
1388.9	0.02358
1398.54	0.01552
1408.18	0.00586
1417.83	0.00351
1427.47	0.00378
1437.12	0.00681
1446.76	0.01461
1456.41	0.01257
1466.05	0.00397
1475.7	0.00473
1485.34	0.00961
1494.99	0.01911
1504.63	0.01815
1514.28	0.00638
1523.92	0.00257
1533.57	0.0019791
1543.21	0.0021535
1552.86	0.0021457
1562.5	0.0021563
1572.15	0.002309
1581.79	0.00236
1591.44	0.002101
1601.08	0.0017283
1610.73	0.00242
1620.37	0.00347
1630.01	0.00299
1639.66	0.0016105
1649.3	0.0015264
1658.95	0.0015623
1668.59	0.0018247
1678.24	0.0016637
1687.88	0.0013855
1697.53	0.00116
1707.17	0.0014422
1716.82	0.0013856
1726.46	0.00141068
1736.11	0.001178
1745.75	0.00133563
1755.4	0.0015729
1765.04	0.0015827
1774.69	0.0016695
1784.33	0.00134458
1793.98	0.0015165
1803.62	0.0015683
1813.27	0.0015101
1822.91	0.0012904
1832.55	0.0012875
1842.2	0.0013206
1851.84	0.0015313
1861.49	0.0016213
1871.13	0.0015434
1880.78	0.0017617
1890.42	0.0015917
1900.07	0.0015978
1909.71	0.0012979
1919.36	0.0017922
1929	0.0017583
1938.65	0.0015097
1948.29	0.00137633
1957.94	0.00141488
1967.58	0.0012899
1977.23	0.00137019
1986.87	0.001447
1996.52	0.0014338
2006.16	0.0013526
2015.81	0.0013407
2025.45	0.00136263
2035.1	0.0014771
2044.74	0.001324
2054.38	0.00133419
2064.03	0.001298
2073.67	0.0016233
2083.32	0.00133246
2092.96	0.001218
2102.61	0.0016077
2112.25	0.0015665
2121.9	0.00142773
2131.54	0.00136552
2141.19	0.00139097
2150.83	0.0016182
2160.48	0.0014701
2170.12	0.001208
2179.77	0.0013253
2189.41	0.0016161
2199.06	0.00142426
2208.7	0.00143919
2218.35	0.0015587
2227.99	0.0016976
2237.64	0.0014441
2247.28	0.0014518
2256.92	0.00141538
2266.57	0.0017185
2276.21	0.0014846
2285.86	0.0015982
2295.5	0.0015198
2305.15	0.0016268
2314.79	0.0015004
2324.44	0.00143735
2334.08	0.00141598
2343.73	0.00139975
2353.37	0.00134399
2363.02	0.0015041
2372.66	0.0016185
2382.31	0.0015186
2391.95	0.0014777
2401.6	0.0015217
2411.24	0.0016081
2420.89	0.0015698
2430.53	0.0015619
2440.18	0.0015888
2449.82	0.0016635
2459.47	0.0014777
2469.11	0.0016996
2478.75	0.0017827
2488.4	0.0015359
2498.04	0.001712
2507.69	0.0016831
2517.33	0.0016071
2526.98	0.0017696
2536.62	0.0017748
2546.27	0.0017784
2555.91	0.0016042
2565.56	0.0015342
2575.2	0.00139485
2584.85	0.0015367
2594.49	0.001685
2604.14	0.0014211
2613.78	0.0015305
2623.43	0.0016676
2633.07	0.0018015
2642.72	0.0019228
2652.36	0.0017111
2662.01	0.0017486
2671.65	0.0017137
2681.29	0.0015653
2690.94	0.0015375
2700.58	0.0016558
2710.23	0.0016182
2719.87	0.0016134
2729.52	0.0015621
2739.16	0.0015008
2748.81	0.0014895
2758.45	0.0016139
2768.1	0.0015382
2777.74	0.001695
2787.39	0.0017974
2797.03	0.0016956
2806.68	0.0014582
2816.32	0.0016172
2825.97	0.0015481
2835.61	0.0015823
2845.26	0.001799
2854.9	0.0016161
2864.55	0.00137532
2874.19	0.0017044
2883.84	0.0016333
2893.48	0.0015946
2903.12	0.001678
2912.77	0.0015662
2922.41	0.0015583
2932.06	0.0016065
2941.7	0.0018916
2951.35	0.0018137
2960.99	0.0017341
2970.64	0.001564
2980.28	0.001605
2989.93	0.0018281
2999.57	0.0017386
3009.22	0.0015827
3018.86	0.0019932
3028.51	0.0022213
3038.15	0.00243
3047.8	0.00317
3057.44	0.00412
3067.09	0.00514
3076.73	0.00512
3086.38	0.00384
3096.02	0.00284
3105.67	0.00234
3115.31	0.0019825
3124.95	0.001706
3134.6	0.0015627
3144.24	0.0015789
3153.89	0.0013236
3163.53	0.0015263
3173.18	0.0015283
3182.82	0.00149
3192.47	0.0017219
3202.11	0.0015516
3211.76	0.0014082
3221.4	0.00142221
3231.05	0.0013741
3240.69	0.001212
3250.34	0.0015014
3259.98	0.0014449
3269.63	0.00142057
3279.27	0.00124
3288.92	0.00152
3298.56	0.00141839
3308.21	0.00137317
3317.85	0.00135689
3327.49	0.0012751
3337.14	0.0016282
3346.78	0.00138208
3356.43	0.001704
3366.07	0.001482
3375.72	0.0014551
3385.36	0.0014478
3395.01	0.00142303
3404.65	0.001456
3414.3	0.0012737
3423.94	0.0012872
3433.59	0.0014348
3443.23	0.0018467
3452.88	0.00142587
3462.52	0.00251
3472.17	0.00313
3481.81	0.0047
3491.46	0.00633
3501.1	0.0103
3510.75	0.00923
3520.39	0.00588
3530.04	0.0028
3539.68	0.0013036
3549.32	0.0015387
3558.97	0.001088
3568.61	0.001158
3578.26	0.001192
3587.9	0.0015238
3597.55	0.00138666
3607.19	0.00139561
3616.84	0.0012728
3626.48	0.0013006
3636.13	0.00137522
3645.77	0.001068
3655.42	0.00135294
3665.06	0.00135373
3674.71	0.0015221
3684.35	0.001092
3694	0.001007
3703.64	0.001284
3713.29	0.0013088
3722.93	0.00134561
3732.58	0.0015091
3742.22	0.00135045
3751.86	0.001099
3761.51	0.0015014
3771.15	0.00141407
3780.8	0.0015917
3790.44	0.0015499
3800.09	0.00157
3809.73	0.0014521
3819.38	0.00142049
3829.02	0.0014165
3838.67	0.0017624
3848.31	0.0013212
3857.96	0.00139716
3867.6	0.0014748
3877.25	0.0015649
3886.89	0.0015175
3896.54	0.0014561
3906.18	0.0016367
3915.83	0.0018787
3925.47	0.0015454
3935.12	0.0014973
3944.76	0.0015015
3954.41	0.0012816
3964.05	0.00134352
3973.69	0.00141916
3983.34	0.001149
3992.98	0.0014825
