Infrared Spectrum: 2,3-Dichloropyrazine
Formula: C 4 H 2 Cl 2 N 2
CAS: 4858-85-9
State: gas
Origin: EPA-IR VAPOR PHASE LIBRARY
1/CM	ABSORBANCE
549.8	0.0007541
559.445	0.0011074
569.09	0.002335
578.734	0.0007145
588.379	0.0012204
598.024	0.0007476
607.669	0.0011157
617.313	0.0009143
626.958	0.001605
636.603	0.003725
646.248	0.003045
655.893	0.002145
665.537	0.001355
675.182	0.0008323
684.827	0.0010933
694.472	0.001825
704.116	0.001925
713.761	0.001995
723.406	0.001955
733.051	0.0010165
742.695	0.001625
752.34	0.001395
761.985	0.002595
771.63	0.003725
781.275	0.006095
790.919	0.014735
800.564	0.027985
810.209	0.028945
819.854	0.012565
829.498	0.011455
839.143	0.028675
848.788	0.059985
858.433	0.031485
868.078	0.018165
877.722	0.005165
887.367	0.004135
897.012	0.004165
906.657	0.004125
916.301	0.004265
925.946	0.002205
935.591	0.002455
945.236	0.003325
954.88	0.004475
964.525	0.004675
974.17	0.004335
983.815	0.004655
993.46	0.005335
1003.1	0.005355
1012.75	0.008625
1022.39	0.024355
1032.04	0.102775
1041.68	0.240605
1051.33	0.257825
1060.97	0.134705
1070.62	0.052625
1080.26	0.023775
1089.91	0.010365
1099.55	0.012975
1109.2	0.019355
1118.84	0.031515
1128.49	0.072625
1138.13	0.151615
1147.78	0.189055
1157.42	0.130405
1167.07	0.054105
1176.71	0.042745
1186.36	0.116825
1196	0.184035
1205.64	0.157715
1215.29	0.056625
1224.93	0.033695
1234.58	0.029555
1244.22	0.015775
1253.87	0.005495
1263.51	0.010685
1273.16	0.018985
1282.8	0.024395
1292.45	0.022325
1302.09	0.020605
1311.74	0.021985
1321.38	0.037485
1331.03	0.104475
1340.67	0.278265
1350.32	0.377425
1359.96	0.277715
1369.61	0.057215
1379.25	0.013715
1388.9	0.008705
1398.54	0.011775
1408.18	0.016485
1417.83	0.021535
1427.47	0.028955
1437.12	0.027395
1446.76	0.014985
1456.41	0.005835
1466.05	0.004525
1475.7	0.005585
1485.34	0.009115
1494.99	0.017365
1504.63	0.025175
1514.28	0.024215
1523.92	0.017845
1533.57	0.013365
1543.21	0.010085
1552.86	0.006795
1562.5	0.004985
1572.15	0.004475
1581.79	0.003435
1591.44	0.002795
1601.08	0.002915
1610.73	0.003335
1620.37	0.003715
1630.01	0.003245
1639.66	0.002275
1649.3	0.001285
1658.95	0.001615
1668.59	0.001565
1678.24	0.002475
1687.88	0.003825
1697.53	0.004775
1707.17	0.003895
1716.82	0.001935
1726.46	0.0011195
1736.11	0.0009564
1745.75	0.0010807
1755.4	0.0010191
1765.04	0.001405
1774.69	0.002025
1784.33	0.003215
1793.98	0.004705
1803.62	0.005015
1813.27	0.003765
1822.91	0.002455
1832.55	0.002325
1842.2	0.002135
1851.84	0.001695
1861.49	0.001335
1871.13	0.001695
1880.78	0.001995
1890.42	0.003105
1900.07	0.004645
1909.71	0.005795
1919.36	0.004745
1929	0.002995
1938.65	0.001695
1948.29	0.001515
1957.94	0.001535
1967.58	0.002035
1977.23	0.002915
1986.87	0.004055
1996.52	0.004305
2006.16	0.002975
2015.81	0.001775
2025.45	0.001265
2035.1	0.0012492
2044.74	0.0011918
2054.38	0.0011549
2064.03	0.0008199
2073.67	0.0009258
2083.32	0.0008548
2092.96	0.0009613
2102.61	0.0008349
2112.25	0.001385
2121.9	0.0011843
2131.54	0.0010703
2141.19	0.0010238
2150.83	0.0011334
2160.48	0.0011423
2170.12	0.0009633
2179.77	0.0007203
2189.41	0.0010836
2199.06	0.0009838
2208.7	0.0011387
2218.35	0.00112
2227.99	0.001355
2237.64	0.001595
2247.28	0.001925
2256.92	0.002455
2266.57	0.002365
2276.21	0.002165
2285.86	0.002495
2295.5	0.002695
2305.15	0.002605
2314.79	0.002425
2324.44	0.002795
2334.08	0.003815
2343.73	0.004175
2353.37	0.003775
2363.02	0.002505
2372.66	0.001655
2382.31	0.001925
2391.95	0.001695
2401.6	0.001325
2411.24	0.001146
2420.89	0.0009522
2430.53	0.0011211
2440.18	0.0008718
2449.82	0.001405
2459.47	0.001335
2469.11	0.001415
2478.75	0.001665
2488.4	0.001705
2498.04	0.001455
2507.69	0.001275
2517.33	0.0009271
2526.98	0.0010106
2536.62	0.0008404
2546.27	0.0009962
2555.91	0.0009422
2565.56	0.0011411
2575.2	0.0012416
2584.85	0.0011847
2594.49	0.0011303
2604.14	0.001425
2613.78	0.0012252
2623.43	0.001525
2633.07	0.001755
2642.72	0.001805
2652.36	0.001615
2662.01	0.002025
2671.65	0.002175
2681.29	0.002275
2690.94	0.001845
2700.58	0.001895
2710.23	0.001645
2719.87	0.001445
2729.52	0.001695
2739.16	0.001825
2748.81	0.001515
2758.45	0.0012031
2768.1	0.0012315
2777.74	0.0012236
2787.39	0.0010978
2797.03	0.0008927
2806.68	0.0009011
2816.32	0.0008549
2825.97	0.0009569
2835.61	0.001435
2845.26	0.0010309
2854.9	0.0012069
2864.55	0.0008819
2874.19	0.0010333
2883.84	0.000697
2893.48	0.0008679
2903.12	0.0008561
2912.77	0.0007386
2922.41	0.0009306
2932.06	0.0010452
2941.7	0.0010239
2951.35	0.001455
2960.99	0.0007871
2970.64	0.0010051
2980.28	0.0011318
2989.93	0.001285
2999.57	0.001305
3009.22	0.002475
3018.86	0.003325
3028.51	0.005515
3038.15	0.011055
3047.8	0.019705
3057.44	0.021485
3067.09	0.016765
3076.73	0.016515
3086.38	0.025135
3096.02	0.027385
3105.67	0.016645
3115.31	0.005575
3124.95	0.001695
3134.6	0.0009613
3144.24	0.0011494
3153.89	0.0010229
3163.53	0.0008164
3173.18	0.001425
3182.82	0.0004905
3192.47	0.0007594
3202.11	0.0006275
3211.76	0.0004014
3221.4	0.0005475
3231.05	0.000454
3240.69	0.0005174
3250.34	0.000822
3259.98	0.000142
3269.63	0.000554
3279.27	0.00043
3288.92	0.000697
3298.56	0.0004796
3308.21	0.0005746
3317.85	0.0008555
3327.49	0.0010061
3337.14	0.0007505
3346.78	0.0008656
3356.43	0.0006263
3366.07	0.0010998
3375.72	0.0007891
3385.36	0.0009047
3395.01	0.0003989
3404.65	0.0004764
3414.3	0.000913
3423.94	0.000777
3433.59	0.0009073
3443.23	0.0006949
3452.88	0.0005992
3462.52	0.0005041
3472.17	0.0009244
3481.81	0.0001683
3491.46	0.0008945
3501.1	0.0011834
3510.75	0.0009757
3520.39	0.0003857
3530.04	0.0006945
3539.68	0.0009471
3549.32	0.0008692
3558.97	0.0007265
3568.61	0.0005282
3578.26	0.0009768
3587.9	0.0008012
3597.55	0.0006178
3607.19	0.0004035
3616.84	0.000692
3626.48	0.0006095
3636.13	0.0004776
3645.77	0.0005923
3655.42	0.0007362
3665.06	0.0007004
3674.71	0.0005154
3684.35	0.0011391
3694	0.000666
3703.64	0.0006468
3713.29	0.000374
3722.93	0.0005212
3732.58	0.0004413
3742.22	0.0005679
3751.86	0.0007654
3761.51	0.0006457
3771.15	0.000676
3780.8	0.0005054
3790.44	0.0001934
3800.09	0.0005536
3809.73	0.0008665
3819.38	0.0010239
3829.02	0.0006431
3838.67	0.0012036
3848.31	0.001535
3857.96	0.001475
3867.6	0.001535
3877.25	0.001555
3886.89	0.001495
3896.54	0.0011289
3906.18	0.0007356
3915.83	0.0009853
3925.47	0.0008511
3935.12	0.0003975
3944.76	0.000539
3954.41	0.0009811
3964.05	0.0004727
3973.69	0.0006358
3983.34	0.000982
3992.98	0.0010783
