Infrared Spectrum: 9-Fluorenone
Formula: C 13 H 8 O
CAS: 486-25-9
State: gas
Instrument: HP-GC/MS/IRD
Origin: NIST Mass Spectrometry Data Center
1/CM	ABSORBANCE
550	9.69e-05
562	0.0001377
574	7.14e-05
586	4.59e-05
598	0.0001938
610	0.0004692
622	0.0005814
634	0.0006222
646	0.001989
658	0.0038148
670	0.0042534
682	0.0019176
694	0.0008007
706	0.0008007
718	0.0050694
730	0.0250002
742	0.0206142
754	0.0035598
766	0.0011016
778	0.000969
790	0.0007599
802	0.0014841
814	0.0016779
826	0.0006732
838	0.0003876
850	0.0004233
862	0.0006987
874	0.0006834
886	0.0008823
898	0.0023919
910	0.0138261
922	0.0097206
934	0.0020298
946	0.0015249
958	0.0008874
970	0.0005151
982	0.0005814
994	0.0008007
1006	0.000459
1018	0.0003417
1030	0.0002295
1042	0.0003315
1054	0.000408
1066	0.0006477
1078	0.0014739
1090	0.003723
1102	0.0034935
1114	0.0008415
1126	0.0008568
1138	0.0017187
1150	0.0039729
1162	0.0024327
1174	0.0048858
1186	0.0091647
1198	0.0039423
1210	0.001224
1222	0.0012138
1234	0.0010506
1246	0.0006477
1258	0.0008466
1270	0.0014688
1282	0.0031671
1294	0.01122
1306	0.009282
1318	0.0024888
1330	0.0010455
1342	0.0004743
1354	0.000459
1366	0.0006018
1378	0.00051
1390	0.0005814
1402	0.0005559
1414	0.0011475
1426	0.0016524
1438	0.002805
1450	0.0108426
1462	0.0065892
1474	0.0015861
1486	0.0007089
1498	0.0004743
1510	0.0004233
1522	0.0004029
1534	0.0004947
1546	0.000663
1558	0.0010863
1570	0.0016371
1582	0.0045033
1594	0.0111537
1606	0.0188241
1618	0.0138006
1630	0.0026316
1642	0.001479
1654	0.0012342
1666	0.0010098
1678	0.0016524
1690	0.0023409
1702	0.0036057
1714	0.009945
1726	0.039117
1738	0.047634
1750	0.0102255
1762	0.0020655
1774	0.0010404
1786	0.0008619
1798	0.000867
1810	0.0012495
1822	0.0018462
1834	0.0015606
1846	0.0010965
1858	0.000765
1870	0.000459
1882	0.0005355
1894	0.0006426
1906	0.0005304
1918	0.0009588
1930	0.0008211
1942	0.000612
1954	0.0011781
1966	0.0004794
1978	0.0001887
1990	0.0001683
2002	0.0002091
2014	0.0002244
2026	0.0001479
2038	0.0001071
2050	0.0001122
2062	0.0001122
2074	0.0001428
2086	0.0001836
2098	0.0003009
2110	0.0002244
2122	0.0001632
2134	0.0001071
2146	7.14e-05
2158	5.61e-05
2170	8.16e-05
2182	8.16e-05
2194	8.67e-05
2206	0.0001326
2218	0.0001632
2230	0.0001377
2242	0.0001938
2254	0.0001785
2266	0.0001224
2278	0.000102
2290	0.0001734
2302	0.000255
2314	0.0003417
2326	0.0001785
2338	0.0001377
2350	8.67e-05
2362	9.69e-05
2374	0.0001275
2386	0.0001326
2398	0.0001071
2410	4.08e-05
2422	4.08e-05
2434	7.65e-05
2446	9.69e-05
2458	9.69e-05
2470	7.14e-05
2482	6.12e-05
2494	4.59e-05
2506	4.08e-05
2518	5.1e-05
2530	2.04e-05
2542	3.06e-05
2554	3.06e-05
2566	5.1e-06
2578	7.14e-05
2590	8.16e-05
2602	6.63e-05
2614	0.0001071
2626	0.000153
2638	0.000153
2650	0.0001122
2662	0.0001173
2674	0.0001173
2686	0.0001071
2698	0.0001275
2710	5.1e-05
2722	4.59e-05
2734	8.67e-05
2746	8.16e-05
2758	0.000102
2770	0.0001428
2782	0.0002193
2794	0.0002091
2806	0.000102
2818	4.08e-05
2830	3.57e-05
2842	4.08e-05
2854	9.69e-05
2866	0.0001479
2878	0.0001683
2890	0.0001428
2902	0.0001479
2914	0.0001581
2926	0.0001683
2938	0.0002499
2950	0.0002499
2962	0.0001836
2974	0.0001173
2986	0.0001581
2998	0.0003213
3010	0.0007395
3022	0.0018156
3034	0.0028662
3046	0.004029
3058	0.0055284
3070	0.0096849
3082	0.0096492
3094	0.0040953
3106	0.0010098
3118	0.0003009
3130	0.0001785
3142	0.0001377
3154	0.0001683
3166	0.0002244
3178	0.000306
3190	0.0002346
3202	0.0001377
3214	0.0001224
3226	6.63e-05
3238	6.12e-05
3250	2.04e-05
3262	0
3274	2.55e-05
3286	4.59e-05
3298	5.1e-05
3310	8.16e-05
3322	3.06e-05
3334	0.0001275
3346	8.67e-05
3358	8.67e-05
3370	3.06e-05
3382	6.12e-05
3394	8.16e-05
3406	0.0001428
3418	0.0001785
3430	0.0004641
3442	0.0008721
3454	0.0010302
3466	0.0004896
3478	0.0001734
3490	0.0001173
3502	6.12e-05
3514	2.55e-05
3526	5.61e-05
3538	6.63e-05
3550	5.61e-05
3562	6.63e-05
3574	3.57e-05
3586	8.67e-05
3598	6.63e-05
3610	5.1e-05
3622	6.12e-05
3634	6.12e-05
3646	5.61e-05
3658	0.000102
3670	0.0001224
3682	0.0001275
3694	9.18e-05
3706	0.0001071
3718	3.06e-05
3730	0.0001122
3742	8.16e-05
3754	0.0001428
3766	0.000153
3778	0.0001224
3790	0.0001326
3802	0.0001275
3814	0.0001377
3826	0.0001275
3838	0.0001785
