Infrared Spectrum: 1-Isoquinolinecarboxylic acid
Formula: C 10 H 7 N O 2
CAS: 486-73-7
State: gas
Origin: EPA-IR VAPOR PHASE LIBRARY
1/CM	ABSORBANCE
549.8	0.0007248
559.445	0
569.09	0.0011378
578.734	0.001587
588.379	0.0008121
598.024	0.001487
607.669	0.001577
617.313	0.003977
626.958	0.010907
636.603	0.021777
646.248	0.015377
655.893	0.003157
665.537	0.0010299
675.182	0.0010749
684.827	0.0010489
694.472	0.0010432
704.116	0.002207
713.761	0.009077
723.406	0.024237
733.051	0.047257
742.695	0.030127
752.34	0.017927
761.985	0.006237
771.63	0.006027
781.275	0.007467
790.919	0.014807
800.564	0.024077
810.209	0.042527
819.854	0.090157
829.498	0.045697
839.143	0.030107
848.788	0.016077
858.433	0.014197
868.078	0.007617
877.722	0.003347
887.367	0.001847
897.012	0.002187
906.657	0.003037
916.301	0.003227
925.946	0.007457
935.591	0.018767
945.236	0.020317
954.88	0.012077
964.525	0.005477
974.17	0.002487
983.815	0.001747
993.46	0.002147
1003.1	0.006327
1012.75	0.008487
1022.39	0.007887
1032.04	0.004497
1041.68	0.004557
1051.33	0.002037
1060.97	0.0010087
1070.62	0.002087
1080.26	0.002627
1089.91	0.0013839
1099.55	0.003167
1109.2	0.003127
1118.84	0.004477
1128.49	0.006047
1138.13	0.006047
1147.78	0.004727
1157.42	0.001987
1167.07	0.0008804
1176.71	0.001757
1186.36	0.002557
1196	0.003477
1205.64	0.005527
1215.29	0.009837
1224.93	0.007617
1234.58	0.008347
1244.22	0.010477
1253.87	0.013877
1263.51	0.018107
1273.16	0.016527
1282.8	0.008387
1292.45	0.003007
1302.09	0.001807
1311.74	0.0014404
1321.38	0.0012412
1331.03	0.001567
1340.67	0.001837
1350.32	0.002927
1359.96	0.007077
1369.61	0.014297
1379.25	0.016257
1388.9	0.011037
1398.54	0.003957
1408.18	0.002467
1417.83	0.003147
1427.47	0.004077
1437.12	0.004167
1446.76	0.003147
1456.41	0.003477
1466.05	0.003707
1475.7	0.004097
1485.34	0.009677
1494.99	0.014667
1504.63	0.013157
1514.28	0.003937
1523.92	0.002427
1533.57	0.002857
1543.21	0.004707
1552.86	0.008187
1562.5	0.015787
1572.15	0.023837
1581.79	0.032387
1591.44	0.023347
1601.08	0.011077
1610.73	0.012607
1620.37	0.028597
1630.01	0.029157
1639.66	0.014217
1649.3	0.004217
1658.95	0.002987
1668.59	0.003247
1678.24	0.003787
1687.88	0.003887
1697.53	0.003337
1707.17	0.002707
1716.82	0.002217
1726.46	0.002217
1736.11	0.002847
1745.75	0.003487
1755.4	0.004117
1765.04	0.005097
1774.69	0.005357
1784.33	0.004447
1793.98	0.004127
1803.62	0.003597
1813.27	0.003677
1822.91	0.003747
1832.55	0.003597
1842.2	0.002647
1851.84	0.001987
1861.49	0.002017
1871.13	0.002347
1880.78	0.003187
1890.42	0.003607
1900.07	0.004447
1909.71	0.005547
1919.36	0.005957
1929	0.005417
1938.65	0.004527
1948.29	0.004537
1957.94	0.003357
1967.58	0.001887
1977.23	0.0012723
1986.87	0.0011992
1996.52	0.0011458
2006.16	0.0012345
2015.81	0.0012853
2025.45	0.001229
2035.1	0.0011321
2044.74	0.0013401
2054.38	0.001206
2064.03	0.001527
2073.67	0.0013648
2083.32	0.0013225
2092.96	0.0010827
2102.61	0.0011924
2112.25	0.0008925
2121.9	0.0009877
2131.54	0.0011018
2141.19	0.0008486
2150.83	0.0010619
2160.48	0.0009751
2170.12	0.0010093
2179.77	0.0009352
2189.41	0.0007864
2199.06	0.0009119
2208.7	0.0008344
2218.35	0.0009311
2227.99	0.0011933
2237.64	0.0011648
2247.28	0.001487
2256.92	0.0013973
2266.57	0.001727
2276.21	0.001607
2285.86	0.0012887
2295.5	0.0014605
2305.15	0.001282
2314.79	0.0014844
2324.44	0.0013137
2334.08	0.0012529
2343.73	0.0010405
2353.37	0.0012
2363.02	0.0012158
2372.66	0.0010265
2382.31	0.0013995
2391.95	0.0013753
2401.6	0.0014687
2411.24	0.001497
2420.89	0.0013582
2430.53	0.0014494
2440.18	0.0013944
2449.82	0.0014034
2459.47	0.001577
2469.11	0.0014214
2478.75	0.0012548
2488.4	0.0012183
2498.04	0.0010875
2507.69	0.0014483
2517.33	0.0013648
2526.98	0.0012363
2536.62	0.0012215
2546.27	0.0012308
2555.91	0.0011952
2565.56	0.0013959
2575.2	0.0012866
2584.85	0.0011571
2594.49	0.0010038
2604.14	0.0011852
2613.78	0.001567
2623.43	0.001627
2633.07	0.001597
2642.72	0.0014864
2652.36	0.001617
2662.01	0.0013481
2671.65	0.0013887
2681.29	0.0012674
2690.94	0.0012567
2700.58	0.0013156
2710.23	0.0009837
2719.87	0.0009164
2729.52	0.0008328
2739.16	0.0010193
2748.81	0.0008861
2758.45	0.0009777
2768.1	0.0012554
2777.74	0.0010683
2787.39	0.000866
2797.03	0.001262
2806.68	0.0012879
2816.32	0.0012114
2825.97	0.001657
2835.61	0.0013564
2845.26	0.001697
2854.9	0.0012539
2864.55	0.000933
2874.19	0.001687
2883.84	0.001497
2893.48	0.001597
2903.12	0.001977
2912.77	0.002567
2922.41	0.003827
2932.06	0.004447
2941.7	0.006017
2951.35	0.005487
2960.99	0.005427
2970.64	0.007377
2980.28	0.011677
2989.93	0.014357
2999.57	0.016327
3009.22	0.017727
3018.86	0.020657
3028.51	0.022837
3038.15	0.028197
3047.8	0.046257
3057.44	0.079507
3067.09	0.080767
3076.73	0.051597
3086.38	0.024007
3096.02	0.014587
3105.67	0.006207
3115.31	0.003277
3124.95	0.003187
3134.6	0.002957
3144.24	0.002697
3153.89	0.002087
3163.53	0.002067
3173.18	0.0014125
3182.82	0.0012055
3192.47	0.0014303
3202.11	0.0012392
3211.76	0.0012529
3221.4	0.0009859
3231.05	0.0007048
3240.69	0.0007813
3250.34	0.0013493
3259.98	0.0010937
3269.63	0.0009253
3279.27	0.0008544
3288.92	0.0008438
3298.56	0.0011574
3308.21	0.0008464
3317.85	0.0008173
3327.49	0.0009776
3337.14	0.0008544
3346.78	0.000382
3356.43	0.0011909
3366.07	0.0007257
3375.72	0.0006164
3385.36	0.0007229
3395.01	0.0011077
3404.65	0.0010851
3414.3	0.0010577
3423.94	0.0008304
3433.59	0.0008633
3443.23	0.00050793
3452.88	0.0009184
3462.52	0.0008384
3472.17	0.0010684
3481.81	0.000707
3491.46	0.0010437
3501.1	0.0008815
3510.75	0.0012406
3520.39	0.0008074
3530.04	0.0007809
3539.68	0.0008216
3549.32	0.0007463
3558.97	0.0006689
3568.61	0.0011684
3578.26	0.0010393
3587.9	0.0009728
3597.55	0.001061
3607.19	0.0006927
3616.84	0.0009622
3626.48	0.0009409
3636.13	0.0009838
3645.77	0.0008992
3655.42	0.0009788
3665.06	0.0009919
3674.71	0.000828
3684.35	0.0007249
3694	0.0013835
3703.64	0.0009424
3713.29	0.001022
3722.93	0.0008395
3732.58	0.000661
3742.22	0.0007173
3751.86	0.0011354
3761.51	0.0007832
3771.15	0.0005993
3780.8	0.000821
3790.44	0.0010297
3800.09	0.0011681
3809.73	0.001481
3819.38	0.0007513
3829.02	0.0012756
3838.67	0.0013863
3848.31	0.0010009
3857.96	0.0008986
3867.6	0.0010487
3877.25	0.000776
3886.89	0.000195
3896.54	0.0009662
3906.18	0.0007279
3915.83	0.0010373
3925.47	0.0012641
3935.12	0.0007227
3944.76	0.0014458
3954.41	0.0014829
3964.05	0.001567
3973.69	0.001647
3983.34	0.0013748
3992.98	0.002047
