Infrared Spectrum: CARBINOXAMINE BASE
Formula: C16 H19 Cl N2 O
CAS: 486-16-8
State: SOLUTION (CS2 FOR 2-15 microns, AND C2Cl4 FOR 5-7.5 microns)
Boiling point: 158-162 C AT 0.1 mmHg
Class: COBLENTZ III
Instrument: PERKIN-ELMER 21 (GRATING)
Instrument parameters: FILTER AT ABOUT 10 MICRONS
Sampling: TRANSMISSION
Path length: 0.1 CM
Resolution: 2
1/CM	TRANSMITTANCE
4000	0.9521
3991	0.9523
3982	0.9525
3973	0.9528
3964	0.9534
3955	0.954
3946	0.9546
3937	0.9553
3928	0.9558
3919	0.9564
3910	0.9571
3901	0.9574
3892	0.9577
3883	0.958
3874	0.9583
3865	0.9585
3856	0.9588
3847	0.9591
3838	0.9594
3829	0.9593
3820	0.9592
3811	0.9592
3802	0.9591
3793	0.9591
3784	0.9591
3775	0.9591
3766	0.9591
3757	0.9591
3748	0.9591
3739	0.9591
3730	0.9593
3721	0.9597
3712	0.9601
3703	0.9605
3694	0.9609
3685	0.961
3676	0.9607
3667	0.9605
3658	0.9602
3649	0.9599
3640	0.9596
3631	0.9592
3622	0.9588
3613	0.9595
3604	0.9611
3595	0.9628
3586	0.9646
3577	0.9664
3568	0.9681
3559	0.9687
3550	0.9689
3541	0.9691
3532	0.9692
3523	0.969
3514	0.9682
3505	0.9674
3496	0.9666
3487	0.9658
3478	0.9649
3469	0.9642
3460	0.9634
3451	0.9627
3442	0.9618
3433	0.9612
3424	0.9604
3415	0.9596
3406	0.9588
3397	0.9578
3388	0.957
3379	0.9562
3370	0.9553
3361	0.9547
3352	0.954
3343	0.9533
3334	0.9527
3325	0.9523
3316	0.9521
3307	0.9521
3298	0.952
3289	0.952
3280	0.9518
3271	0.9514
3262	0.9507
3253	0.9501
3244	0.9495
3235	0.9488
3226	0.9481
3217	0.9471
3208	0.9464
3199	0.9456
3190	0.9447
3181	0.9438
3172	0.9428
3163	0.9418
3154	0.9409
3145	0.9398
3136	0.9386
3127	0.937
3118	0.9337
3109	0.9283
3100	0.9198
3091	0.906
3082	0.8798
3073	0.8408
3064	0.8015
3055	0.7939
3046	0.8053
3037	0.8204
3028	0.8356
3019	0.8365
3010	0.8006
3001	0.7985
2992	0.7946
2983	0.7725
2974	0.574
2965	0.5355
2956	0.529
2947	0.4976
2938	0.4362
2929	0.4389
2920	0.4731
2911	0.5087
2902	0.5387
2893	0.5395
2884	0.5397
2875	0.5191
2866	0.4922
2857	0.4689
2848	0.4809
2839	0.5334
2830	0.5805
2821	0.5816
2812	0.5317
2803	0.4581
2794	0.4672
2785	0.4931
2776	0.4736
2767	0.4018
2758	0.3862
2749	0.4753
2740	0.5791
2731	0.6837
2722	0.7474
2713	0.7571
2704	0.7734
2695	0.8427
2686	0.8745
2677	0.8866
2668	0.8982
2659	0.9099
2650	0.9175
2641	0.9236
2632	0.9284
2623	0.9323
2614	0.9363
2605	0.9392
2596	0.9417
2587	0.9441
2578	0.9462
2569	0.9478
2560	0.9496
2551	0.9513
2542	0.9528
2533	0.9546
2524	0.955
2515	0.9542
2506	0.9528
2497	0.9507
2488	0.9492
2479	0.9486
2470	0.9481
2461	0.9498
2452	0.9514
2443	0.9532
2434	0.9553
2425	0.9574
2416	0.9595
2407	0.9612
2398	0.9625
2389	0.9632
2380	0.963
2371	0.9625
2362	0.9615
2353	0.9604
2344	0.9598
2335	0.9594
2326	0.959
2317	0.9586
2308	0.9585
2299	0.9591
2290	0.9597
2281	0.9608
2272	0.9623
2263	0.9638
2254	0.9653
2245	0.9667
2236	0.9678
2227	0.9689
2218	0.9691
2209	0.9688
2200	0.9666
2191	0.9645
2182	0.9625
2173	0.9618
2164	0.9613
2155	0.9607
2146	0.9602
2137	0.9591
2128	0.9564
2119	0.9528
2110	0.9521
2101	0.9546
2092	0.9583
2083	0.9613
2074	0.9634
2065	0.9635
2056	0.9592
2047	0.9536
2038	0.9551
2029	0.9613
2020	0.9649
2011	0.9659
2002	0.966
1993	0.9628
1984	0.9539
1975	0.9503
1966	0.9563
1957	0.96
1948	0.9528
1939	0.9521
1930	0.9589
1921	0.9581
1912	0.9463
1903	0.9295
1894	0.9273
1885	0.942
1876	0.9543
1867	0.9601
1858	0.9621
1849	0.9578
1840	0.9625
1831	0.9648
1822	0.9671
1813	0.9681
1804	0.9684
1795	0.9674
1786	0.9514
1777	0.9475
1768	0.9564
1759	0.9618
1750	0.9628
1741	0.9657
1732	0.9684
1723	0.9689
1714	0.9685
1705	0.9631
1696	0.9628
1687	0.962
1678	0.9558
1669	0.9525
1660	0.9518
1651	0.9513
1642	0.9508
1633	0.9509
1624	0.9501
1615	0.9247
1606	0.7996
1597	0.4775
1588	0.5627
1579	0.7011
1570	0.7793
1561	0.9228
1552	0.9665
1543	0.9798
1534	0.9817
1525	0.9796
1516	0.9703
1507	0.9285
1498	0.5487
1489	0.4755
1480	0.6461
1471	0.3691
1462	0.5025
1453	0.5999
1444	0.6954
1435	0.4662
1426	0.8602
1417	0.8693
1408	0.7267
1399	0.7861
1390	0.9216
1381	0.9454
1372	0.9236
1363	0.8841
1354	0.8875
1345	0.8855
1336	0.8053
1327	0.6497
1318	0.6811
1309	0.703
1300	0.7158
1291	0.6758
1282	0.7015
1273	0.6849
1264	0.6892
1255	0.7436
1246	0.7703
1237	0.8471
1228	0.8768
1219	0.8966
1210	0.8566
1201	0.8352
1192	0.7225
1183	0.6931
1174	0.8133
1165	0.8211
1156	0.736
1147	0.7242
1138	0.7467
1129	0.6151
1120	0.2461
1111	0.231
1102	0.3299
1093	0.2277
1084	0.1969
1075	0.3359
1066	0.4215
1057	0.4344
1048	0.4582
1039	0.4046
1030	0.6767
1021	0.7508
1012	0.5302
1003	0.743
994	0.633
985	0.8038
976	0.8621
967	0.8585
958	0.7214
949	0.8146
940	0.86
931	0.9175
922	0.9341
913	0.931
904	0.9078
895	0.8489
886	0.8033
877	0.8168
868	0.7997
859	0.7818
850	0.7537
841	0.7971
832	0.8546
823	0.7739
814	0.504
805	0.3678
796	0.6107
787	0.7055
778	0.6646
769	0.4979
760	0.4012
751	0.663
742	0.751
733	0.9156
724	0.9078
715	0.7945
706	0.9185
697	0.917
688	0.9003
679	0.9298
670	0.923
