Infrared Spectrum: Isopropylphenyl acetate
Formula: C 11 H 14 O 2
CAS: 4861-85-2
State: gas
Origin: EPA-IR VAPOR PHASE LIBRARY
1/CM	ABSORBANCE
501.5	0.00143
513.074	0.00207
524.648	0.00495
536.222	0.00751
547.796	0.00575
559.37	0.00377
570.944	0.00329
582.518	0.00372
594.092	0.00387
605.666	0.00446
617.24	0.00728
628.814	0.00998
640.388	0.0078
651.962	0.00658
663.536	0.00823
675.11	0.01459
686.684	0.03185
698.258	0.05194
709.832	0.05745
721.406	0.0475
732.98	0.02795
744.554	0.01895
756.128	0.0169
767.702	0.00982
779.276	0.00553
790.85	0.00518
802.423	0.00754
813.997	0.01049
825.571	0.00823
837.145	0.00623
848.719	0.00548
860.293	0.00474
871.867	0.00578
883.441	0.00767
895.015	0.00868
906.589	0.0107
918.163	0.01202
929.737	0.01473
941.311	0.02231
952.885	0.03972
964.459	0.05632
976.033	0.03687
987.607	0.01585
999.181	0.01107
1010.76	0.00892
1022.33	0.01029
1033.9	0.01357
1045.48	0.00881
1057.05	0.01177
1068.63	0.01802
1080.2	0.02868
1091.77	0.06065
1103.35	0.15264
1114.92	0.20349
1126.49	0.15473
1138.07	0.15944
1149.64	0.15515
1161.22	0.1345
1172.79	0.09698
1184.36	0.06967
1195.94	0.05601
1207.51	0.06227
1219.09	0.08155
1230.66	0.11166
1242.23	0.15352
1253.81	0.16443
1265.38	0.11724
1276.96	0.07722
1288.53	0.06555
1300.1	0.05915
1311.68	0.05519
1323.25	0.05315
1334.83	0.04679
1346.4	0.04016
1357.97	0.04109
1369.55	0.0425
1381.12	0.04739
1392.7	0.03482
1404.27	0.01744
1415.84	0.0153
1427.42	0.01862
1438.99	0.02222
1450.57	0.02524
1462.14	0.02501
1473.71	0.02135
1485.29	0.01871
1496.86	0.03047
1508.44	0.01292
1520.01	0.00575
1531.58	0.00487
1543.16	0.00461
1554.73	0.00451
1566.31	0.00493
1577.88	0.00634
1589.45	0.00972
1601.03	0.01434
1612.6	0.01051
1624.18	0.00553
1635.75	0.00467
1647.32	0.00492
1658.9	0.0056
1670.47	0.0068
1682.05	0.00878
1693.62	0.01235
1705.19	0.0188
1716.77	0.03296
1728.34	0.08092
1739.92	0.19936
1751.49	0.25055
1763.06	0.13875
1774.64	0.05013
1786.21	0.02327
1797.79	0.01481
1809.36	0.0094
1820.93	0.00681
1832.51	0.0055
1844.08	0.00489
1855.66	0.00467
1867.23	0.00449
1878.8	0.00397
1890.38	0.00341
1901.95	0.00321
1913.53	0.00364
1925.1	0.00446
1936.67	0.00528
1948.25	0.00541
1959.82	0.004
1971.4	0.00223
1982.97	0.00172
1994.54	0.0015
2006.12	0.00144
2017.69	0.00151
2029.27	0.00157
2040.84	0.00155
2052.41	0.00154
2063.99	0.00143
2075.56	0.00132
2087.14	0.00119
2098.71	0.00112
2110.28	0.00108
2121.86	0.0009871
2133.43	0.0008961
2145.01	0.0007149
2156.58	0.0006208
2168.15	0.0006181
2179.73	0.0006396
2191.3	0.0006799
2202.88	0.0007259
2214.45	0.0007812
2226.02	0.000821
2237.6	0.0008841
2249.17	0.00111
2260.74	0.00125
2272.32	0.00122
2283.89	0.00112
2295.47	0.00104
2307.04	0.00127
2318.61	0.00143
2330.19	0.00116
2341.76	0.00108
2353.34	0.0009514
2364.91	0.000876
2376.48	0.0008317
2388.06	0.0007781
2399.63	0.0006798
2411.21	0.0006029
2422.78	0.0005241
2434.35	0.000431
2445.93	0.0004757
2457.5	0.0004539
2469.08	0.000486
2480.65	0.0005361
2492.22	0.000613
2503.8	0.0007044
2515.37	0.0007024
2526.95	0.0006197
2538.52	0.000505
2550.09	0.0003878
2561.67	0.0003886
2573.24	0.0003753
2584.82	0.0004039
2596.39	0.0004636
2607.96	0.0004839
2619.54	0.0005004
2631.11	0.0005959
2642.69	0.000531
2654.26	0.0004797
2665.83	0.0005511
2677.41	0.0006372
2688.98	0.0007706
2700.56	0.0008338
2712.13	0.00102
2723.7	0.00111
2735.28	0.00144
2746.85	0.00167
2758.43	0.00139
2770	0.00139
2781.57	0.00147
2793.15	0.00157
2804.72	0.00174
2816.3	0.00241
2827.87	0.00318
2839.44	0.0038
2851.02	0.00463
2862.59	0.00621
2874.17	0.0101
2885.74	0.01532
2897.31	0.01579
2908.89	0.01696
2920.46	0.02239
2932.04	0.03473
2943.61	0.04495
2955.18	0.03578
2966.76	0.03568
2978.33	0.08067
2989.91	0.09791
3001.48	0.04569
3013.05	0.02481
3024.63	0.02737
3036.2	0.03881
3047.78	0.03022
3059.35	0.02599
3070.92	0.03879
3082.5	0.02849
3094.07	0.01955
3105.65	0.01298
3117.22	0.00755
3128.79	0.00375
3140.37	0.00231
3151.94	0.00204
3163.52	0.00199
3175.09	0.00189
3186.66	0.00156
3198.24	0.00127
3209.81	0.00103
3221.39	0.000822
3232.96	0.0006396
3244.53	0.0004075
3256.11	0.0001957
3267.68	0.0001114
3279.26	6.588e-05
3290.83	5.697e-05
3302.4	3.377e-05
3313.98	5.041e-05
3325.55	4.232e-05
3337.13	0.0001155
3348.7	4.671e-05
3360.27	0.0001004
3371.85	0.000244
3383.42	0.0002738
3395	0.0003213
3406.57	0.0002959
3418.14	0.0003248
3429.72	0.0003902
3441.29	0.0006728
3452.86	0.00115
3464.44	0.00193
3476.01	0.00253
3487.59	0.0022
3499.16	0.00137
3510.73	0.0007836
3522.31	0.0005106
3533.88	0.0003154
3545.46	0.0001542
3557.03	0.0001193
3568.6	0.0001111
3580.18	6.546e-05
3591.75	4.867e-05
3603.33	7.952e-05
3614.9	0.0001374
3626.47	8.09e-05
3638.05	0.0001686
3649.62	0.0003104
3661.2	0.0002306
3672.77	0.0001138
3684.34	0.0001255
3695.92	0.0001734
3707.49	0.0001651
3719.07	6.718e-05
3730.64	8.263e-05
3742.21	3.919e-05
3753.79	6.007e-05
3765.36	0.0001638
3776.94	0.000181
3788.51	0.0002028
3800.08	0.000201
3811.66	0.0002661
3823.23	0.000363
3834.81	0.0002842
3846.38	0.0003783
3857.95	0.0002767
3869.53	0.0003765
3881.1	0.0003786
3892.68	0.0003506
3904.25	0.000361
3915.82	0.0003495
3927.4	0.000328
3938.97	0.0002392
3950.55	0.0002405
3962.12	0.0001986
3973.69	0.0002233
3985.27	0.0002063
3996.84	0.000246
