Infrared Spectrum: 3-Chlorothioanisole
Formula: C 7 H 7 Cl S
CAS: 4867-37-2
State: gas
Origin: EPA-IR VAPOR PHASE LIBRARY
1/CM	ABSORBANCE
549.8	0.003148
559.445	0.003101
569.09	0.00273
578.734	0.003443
588.379	0.003635
598.024	0.003028
607.669	0.003665
617.313	0.003535
626.958	0.0039235
636.603	0.0045609
646.248	0.00675
655.893	0.01007
665.537	0.01623
675.182	0.02695
684.827	0.02344
694.472	0.01445
704.116	0.00804
713.761	0.00746
723.406	0.00666
733.051	0.00669
742.695	0.00753
752.34	0.01511
761.985	0.03783
771.63	0.09447
781.275	0.10501
790.919	0.05049
800.564	0.0176
810.209	0.00979
819.854	0.00852
829.498	0.00731
839.143	0.00709
848.788	0.00863
858.433	0.01093
868.078	0.01387
877.722	0.01236
887.367	0.00854
897.012	0.00662
906.657	0.00527
916.301	0.00516
925.946	0.00553
935.591	0.00584
945.236	0.00729
954.88	0.00928
964.525	0.01247
974.17	0.01149
983.815	0.00903
993.46	0.00895
1003.1	0.00797
1012.75	0.00595
1022.39	0.00624
1032.04	0.00585
1041.68	0.00645
1051.33	0.00959
1060.97	0.01657
1070.62	0.02356
1080.26	0.03604
1089.91	0.03013
1099.55	0.01969
1109.2	0.02131
1118.84	0.02409
1128.49	0.01777
1138.13	0.00845
1147.78	0.00548
1157.42	0.0047413
1167.07	0.00522
1176.71	0.00385
1186.36	0.00281
1196	0.003583
1205.64	0.00161
1215.29	0.00252
1224.93	0.00109
1234.58	0.00127
1244.22	0.0049123
1253.87	0.0048284
1263.51	0.00289
1273.16	0.00309
1282.8	0.0050135
1292.45	0.00576
1302.09	0.006
1311.74	0.00861
1321.38	0.01116
1331.03	0.00917
1340.67	0.00522
1350.32	0.0049493
1359.96	0.00512
1369.61	0.00683
1379.25	0.01101
1388.9	0.0173
1398.54	0.02434
1408.18	0.02641
1417.83	0.02315
1427.47	0.02079
1437.12	0.02681
1446.76	0.03643
1456.41	0.06049
1466.05	0.06416
1475.7	0.02866
1485.34	0.01379
1494.99	0.01263
1504.63	0.01168
1514.28	0.00939
1523.92	0.00868
1533.57	0.01088
1543.21	0.01825
1552.86	0.03676
1562.5	0.0661
1572.15	0.10384
1581.79	0.08241
1591.44	0.02655
1601.08	0.0108
1610.73	0.00814
1620.37	0.00728
1630.01	0.00636
1639.66	0.00589
1649.3	0.00593
1658.95	0.00588
1668.59	0.0056
1678.24	0.004802
1687.88	0.0042963
1697.53	0.0042645
1707.17	0.0043194
1716.82	0.0044577
1726.46	0.00514
1736.11	0.00552
1745.75	0.00608
1755.4	0.00568
1765.04	0.00543
1774.69	0.00554
1784.33	0.0049928
1793.98	0.0048041
1803.62	0.0043691
1813.27	0.0043497
1822.91	0.004522
1832.55	0.0048831
1842.2	0.00538
1851.84	0.00563
1861.49	0.00544
1871.13	0.0046416
1880.78	0.0043976
1890.42	0.0045309
1900.07	0.0048022
1909.71	0.00536
1919.36	0.00594
1929	0.006
1938.65	0.00543
1948.29	0.0045584
1957.94	0.0042129
1967.58	0.00417
1977.23	0.00407798
1986.87	0.004126
1996.52	0.00410428
2006.16	0.00407569
2015.81	0.00408598
2025.45	0.0042241
2035.1	0.00403546
2044.74	0.00403048
2054.38	0.0041684
2064.03	0.00401724
2073.67	0.003903
2083.32	0.0039953
2092.96	0.00406222
2102.61	0.0041475
2112.25	0.003879
2121.9	0.004312
2131.54	0.0040098
2141.19	0.003889
2150.83	0.0039451
2160.48	0.0041512
2170.12	0.00410278
2179.77	0.00407432
2189.41	0.0039999
2199.06	0.0041947
2208.7	0.003998
2218.35	0.004228
2227.99	0.0043359
2237.64	0.0042935
2247.28	0.0041301
2256.92	0.0042139
2266.57	0.0043708
2276.21	0.0044468
2285.86	0.0045187
2295.5	0.0043119
2305.15	0.0044316
2314.79	0.0042175
2324.44	0.0044292
2334.08	0.0046792
2343.73	0.0044925
2353.37	0.0045199
2363.02	0.0047759
2372.66	0.0043295
2382.31	0.0044216
2391.95	0.0048029
2401.6	0.0048286
2411.24	0.0045945
2420.89	0.004508
2430.53	0.004412
2440.18	0.0042023
2449.82	0.0041658
2459.47	0.0043155
2469.11	0.0039
2478.75	0.0043137
2488.4	0.0044131
2498.04	0.00403005
2507.69	0.0043338
2517.33	0.0044769
2526.98	0.0043787
2536.62	0.00408608
2546.27	0.0042991
2555.91	0.0040226
2565.56	0.0043989
2575.2	0.0045505
2584.85	0.0043875
2594.49	0.0043406
2604.14	0.00411509
2613.78	0.0042954
2623.43	0.0043235
2633.07	0.0044018
2642.72	0.004666
2652.36	0.0045806
2662.01	0.0044602
2671.65	0.0046403
2681.29	0.0046219
2690.94	0.0046392
2700.58	0.0045553
2710.23	0.004482
2719.87	0.0044953
2729.52	0.0042796
2739.16	0.004101
2748.81	0.0041644
2758.45	0.0042327
2768.1	0.0043055
2777.74	0.0042989
2787.39	0.0044134
2797.03	0.00508
2806.68	0.0049963
2816.32	0.00553
2825.97	0.00617
2835.61	0.00676
2845.26	0.0081
2854.9	0.0085
2864.55	0.00754
2874.19	0.00715
2883.84	0.00714
2893.48	0.00765
2903.12	0.00873
2912.77	0.011
2922.41	0.01675
2932.06	0.02523
2941.7	0.02173
2951.35	0.01246
2960.99	0.01036
2970.64	0.00924
2980.28	0.01022
2989.93	0.01272
2999.57	0.01426
3009.22	0.01251
3018.86	0.00952
3028.51	0.00752
3038.15	0.00748
3047.8	0.00772
3057.44	0.01209
3067.09	0.01602
3076.73	0.01839
3086.38	0.01452
3096.02	0.00933
3105.67	0.00626
3115.31	0.0047768
3124.95	0.00514
3134.6	0.0049488
3144.24	0.0047812
3153.89	0.00546
3163.53	0.0048505
3173.18	0.0044863
3182.82	0.004448
3192.47	0.0043736
3202.11	0.0044908
3211.76	0.0041896
3221.4	0.0043334
3231.05	0.0046333
3240.69	0.0045781
3250.34	0.00404015
3259.98	0.0039677
3269.63	0.00410154
3279.27	0.004222
3288.92	0.003909
3298.56	0.0042696
3308.21	0.0039836
3317.85	0.0044466
3327.49	0.0044616
3337.14	0.0039205
3346.78	0.003657
3356.43	0.003783
3366.07	0.003865
3375.72	0.00382
3385.36	0.003836
3395.01	0.00410224
3404.65	0.0045186
3414.3	0.00411451
3423.94	0.003665
3433.59	0.00352
3443.23	0.00403922
3452.88	0.003581
3462.52	0.003752
3472.17	0.003661
3481.81	0.0039804
3491.46	0.003883
3501.1	0.0040099
3510.75	0.0039665
3520.39	0.003859
3530.04	0.0039297
3539.68	0.003505
3549.32	0.0044621
3558.97	0.00378
3568.61	0.003712
3578.26	0.0035
3587.9	0.003621
3597.55	0.003818
3607.19	0.003683
3616.84	0.003617
3626.48	0.003597
3636.13	0.003891
3645.77	0.0044082
3655.42	0.0042768
3665.06	0.003282
3674.71	0.003783
3684.35	0.003704
3694	0.0041214
3703.64	0.00383
3713.29	0.0041528
3722.93	0.0042095
3732.58	0.003671
3742.22	0.0039678
3751.86	0.0042298
3761.51	0.0042856
3771.15	0.003841
3780.8	0.003683
3790.44	0.00402535
3800.09	0.003991
3809.73	0.003699
3819.38	0.0043208
3829.02	0.00403971
3838.67	0.00403261
3848.31	0.004441
3857.96	0.0039431
3867.6	0.003904
3877.25	0.0044385
3886.89	0.003676
3896.54	0.0043733
3906.18	0.00404102
3915.83	0.003675
3925.47	0.0046166
3935.12	0.00408779
3944.76	0.0042207
3954.41	0.0039646
3964.05	0.0043367
3973.69	0.003222
3983.34	0.00405323
3992.98	0.0041976
