Infrared Spectrum: TRANS-1,3-CYCLOBUTANEDIOL, 2,2,4,4-TETRAMETHYL-, DIACETATE
Formula: C12 H20 O4
CAS: 4868-08-0
State: MELT
Melting point: 43-44 C
Boiling point: 112 C AT 12 mmHg
Class: COBLENTZ
Instrument: Not specified, most likely a prism, grating, or hybrid spectrometer.
Sampling: TRANSMISSION
Resolution: 4
Origin: TENNESSEE EASTMAN COMPANY, RESEARCH LABORATORIES
MICROMETERS	TRANSMITTANCE
2.007	0.998
2.04812	0.998
2.08923	0.998
2.13035	0.996
2.17147	0.993
2.21258	0.991
2.2537	0.989
2.29481	0.986
2.33593	0.986
2.37705	0.984
2.41816	0.982
2.45928	0.982
2.5004	0.982
2.54151	0.986
2.58263	0.986
2.62374	0.986
2.66486	0.986
2.70598	0.987
2.74709	0.987
2.78821	0.987
2.82933	0.987
2.87044	0.974
2.91156	0.96
2.95268	0.967
2.99379	0.972
3.03491	0.969
3.07602	0.967
3.11714	0.965
3.15826	0.951
3.19937	0.951
3.24049	0.948
3.28161	0.924
3.32272	0.814
3.36384	0.393
3.40496	0.561
3.44607	0.668
3.48719	0.833
3.5283	0.912
3.56942	0.938
3.61054	0.946
3.65165	0.945
3.69277	0.945
3.73389	0.951
3.775	0.953
3.81612	0.957
3.85723	0.96
3.89835	0.962
3.93947	0.963
3.98058	0.967
4.0217	0.962
4.06282	0.946
4.10393	0.943
4.14505	0.946
4.18617	0.946
4.22728	0.951
4.2684	0.955
4.30951	0.951
4.35063	0.951
4.39175	0.95
4.43286	0.953
4.47398	0.953
4.5151	0.955
4.55621	0.953
4.59733	0.922
4.63845	0.914
4.67956	0.919
4.72068	0.934
4.76179	0.95
4.80291	0.95
4.84403	0.951
4.88514	0.951
4.92626	0.95
4.96738	0.946
5.00849	0.951
5.04961	0.946
5.09072	0.934
5.13184	0.932
5.17296	0.938
5.21407	0.936
5.25519	0.936
5.29631	0.934
5.33742	0.922
5.37854	0.914
5.41966	0.867
5.46077	0.836
5.50189	0.824
5.543	0.805
5.58412	0.771
5.62524	0.701
5.66635	0.383
5.70747	0.111
5.74859	0.099
5.7897	0.362
5.83082	0.647
5.87194	0.699
5.91305	0.74
5.95417	0.788
5.99528	0.8
6.0364	0.807
6.07752	0.826
6.11863	0.857
6.15975	0.867
6.20087	0.872
6.24198	0.878
6.2831	0.881
6.32421	0.878
6.36533	0.876
6.40645	0.865
6.44756	0.855
6.48868	0.852
6.5298	0.85
6.57091	0.843
6.61203	0.836
6.65315	0.826
6.69426	0.792
6.73538	0.692
6.77649	0.501
6.81761	0.534
6.85873	0.549
6.89984	0.575
6.94096	0.601
6.98208	0.654
7.02319	0.699
7.06431	0.723
7.10543	0.709
7.14654	0.632
7.18766	0.451
7.22877	0.226
7.26989	0.24
7.31101	0.309
7.35212	0.46
7.39324	0.625
7.43436	0.766
7.47547	0.798
7.51659	0.819
7.5577	0.819
7.59882	0.81
7.63994	0.804
7.68105	0.786
7.72217	0.762
7.76329	0.719
7.8044	0.628
7.84552	0.549
7.88664	0.477
7.92775	0.393
7.96887	0.228
8.00998	0.108
8.0511	0.072
8.09222	0.058
8.13333	0.054
8.17445	0.118
8.21557	0.25
8.25668	0.374
8.2978	0.458
8.33892	0.501
8.38003	0.601
8.42115	0.668
8.46226	0.702
8.50338	0.725
8.5445	0.731
8.58561	0.728
8.62673	0.731
8.66785	0.752
8.70896	0.771
8.75008	0.783
8.79119	0.788
8.83231	0.79
8.87343	0.785
8.91454	0.781
8.95566	0.766
8.99678	0.761
9.03789	0.743
9.07901	0.718
9.12013	0.671
9.16124	0.621
9.20236	0.609
9.24347	0.604
9.28459	0.585
9.32571	0.551
9.36682	0.486
9.40794	0.386
9.44906	0.268
9.49017	0.171
9.53129	0.108
9.57241	0.099
9.61352	0.118
9.65464	0.235
9.69575	0.338
9.73687	0.432
9.77799	0.475
9.8191	0.542
9.86022	0.573
9.90134	0.573
9.94245	0.549
9.98357	0.542
10.0247	0.594
10.0658	0.652
10.1069	0.676
10.148	0.651
10.1891	0.661
10.2303	0.702
10.2714	0.757
10.3125	0.795
10.3536	0.804
10.3947	0.804
10.4358	0.768
10.477	0.75
10.5181	0.786
10.5592	0.823
10.6003	0.838
10.6414	0.84
10.6825	0.838
10.7237	0.809
10.7648	0.773
10.8059	0.697
10.847	0.628
10.8881	0.575
10.9292	0.56
10.9704	0.603
11.0115	0.685
11.0526	0.761
11.0937	0.809
11.1348	0.826
11.1759	0.836
11.2171	0.843
11.2582	0.843
11.2993	0.84
11.3404	0.841
11.3815	0.84
11.4226	0.821
11.4638	0.814
11.5049	0.845
11.546	0.869
11.5871	0.883
11.6282	0.902
11.6693	0.914
11.7105	0.92
11.7516	0.924
11.7927	0.927
11.8338	0.929
11.8749	0.931
11.916	0.931
11.9572	0.931
11.9983	0.931
12.0394	0.929
12.0805	0.927
12.1216	0.926
12.1627	0.926
12.2039	0.929
12.245	0.929
12.2861	0.927
12.3272	0.927
12.3683	0.927
12.4094	0.929
12.4505	0.927
12.4917	0.927
12.5328	0.927
12.5739	0.927
12.615	0.927
12.6561	0.919
12.6972	0.902
12.7384	0.855
12.7795	0.826
12.8206	0.819
12.8617	0.835
12.9028	0.872
12.9439	0.89
12.9851	0.903
13.0262	0.907
13.0673	0.915
13.1084	0.917
13.1495	0.92
13.1906	0.919
13.2318	0.92
13.2729	0.924
13.314	0.922
13.3551	0.922
13.3962	0.926
13.4373	0.926
13.4785	0.924
13.5196	0.926
13.5607	0.924
13.6018	0.924
13.6429	0.922
13.684	0.92
13.7252	0.917
13.7663	0.915
13.8074	0.915
13.8485	0.915
13.8896	0.915
13.9307	0.914
13.9719	0.912
14.013	0.908
14.0541	0.907
14.0952	0.907
14.1363	0.903
14.1774	0.902
14.2186	0.896
14.2597	0.891
14.3008	0.883
14.3419	0.883
14.383	0.883
14.4241	0.876
14.4652	0.869
14.5064	0.864
14.5475	0.853
14.5886	0.845
14.6297	0.831
14.6708	0.821
14.7119	0.804
14.7531	0.783
14.7942	0.768
14.8353	0.754
14.8764	0.749
14.9175	0.745
14.9586	0.743
14.9998	0.733
15.0409	0.713
15.082	0.701
15.1231	0.699
15.1642	0.701
15.2053	0.713
15.2465	0.726
15.2876	0.737
15.3287	0.749
15.3698	0.752
15.4109	0.754
15.452	0.756
15.4932	0.756
15.5343	0.756
15.5754	0.756
15.6165	0.756
15.6576	0.756
15.6987	0.754
15.7399	0.754
15.781	0.754
15.8221	0.754
15.8632	0.752
15.9043	0.747
15.9454	0.747
