Infrared Spectrum: PTERIDINEDIONE, 2,4(1H,3H)-
Formula: C6 H4 N4 O2
CAS: 487-21-8
State: SOLID (SPLIT MULL), FLUOROLUBE FOR 3800-1330 CM^-^1, NUJOL FOR 1330-400 CM^-^1
Class: COBLENTZ III
Instrument: DOW KBr FOREPRISM-GRATING
Instrument parameters: BLAZED AT 3.5, 12.0, 20.0 MICRON AND CHANGED AT 5.0, 7.5, 14.9 MICRON
Sampling: TRANSMISSION
Resolution: 2
Origin: DOW CHEMICAL COMPANY
1/CM	TRANSMITTANCE
380	0.9428
389	0.9227
398	0.8999
407	0.8993
416	0.9504
425	0.9155
434	0.7634
443	0.8761
452	0.838
461	0.7012
470	0.8049
479	0.7647
488	0.554
497	0.4836
506	0.6124
515	0.7899
524	0.813
533	0.8092
542	0.8061
551	0.8118
560	0.8054
569	0.7686
578	0.8083
587	0.8277
596	0.829
605	0.8295
614	0.8309
623	0.8341
632	0.8392
641	0.8418
650	0.8373
659	0.7934
668	0.7188
677	0.8388
686	0.8457
695	0.8687
704	0.8225
713	0.7325
722	0.6742
731	0.7353
740	0.7469
749	0.6824
758	0.715
767	0.6976
776	0.6486
785	0.5515
794	0.4168
803	0.6865
812	0.6647
821	0.7418
830	0.7183
839	0.6985
848	0.685
857	0.6697
866	0.6538
875	0.633
884	0.6075
893	0.5942
902	0.6114
911	0.685
920	0.6761
929	0.599
938	0.7167
947	0.7925
956	0.7949
965	0.791
974	0.7895
983	0.7918
992	0.7789
1001	0.7558
1010	0.7099
1019	0.6968
1028	0.7371
1037	0.8015
1046	0.7845
1055	0.7184
1064	0.6793
1073	0.7814
1082	0.7932
1091	0.7868
1100	0.7845
1109	0.7783
1118	0.7606
1127	0.7351
1136	0.6882
1145	0.6686
1154	0.6643
1163	0.6314
1172	0.5195
1181	0.5221
1190	0.6136
1199	0.6708
1208	0.6269
1217	0.4349
1226	0.4006
1235	0.7412
1244	0.7201
1253	0.6771
1262	0.6467
1271	0.5332
1280	0.4822
1289	0.4816
1298	0.4353
1307	0.4102
1316	0.6062
1325	0.6453
1334	0.4438
1343	0.4014
1352	0.42
1361	0.4032
1370	0.3592
1379	0.3015
1388	0.2334
1397	0.1756
1406	0.192
1415	0.4084
1424	0.3364
1433	0.5179
1442	0.448
1451	0.4507
1460	0.4826
1469	0.5676
1478	0.635
1487	0.619
1496	0.5781
1505	0.5044
1514	0.5344
1523	0.5473
1532	0.5077
1541	0.4572
1550	0.36
1559	0.2892
1568	0.3216
1577	0.4978
1586	0.495
1595	0.4996
1604	0.5002
1613	0.479
1622	0.4437
1631	0.4077
1640	0.3666
1649	0.3196
1658	0.3043
1667	0.2868
1676	0.2189
1685	0.1676
1694	0.1274
1703	0.1075
1712	0.1211
1721	0.1081
1730	0.1404
1739	0.2352
1748	0.3434
1757	0.5006
1766	0.6222
1775	0.7212
1784	0.7661
1793	0.7986
1802	0.8251
1811	0.8512
1820	0.8716
1829	0.875
1838	0.8721
1847	0.862
1856	0.8505
1865	0.8414
1874	0.8375
1883	0.8348
1892	0.8323
1901	0.8318
1910	0.8291
1919	0.824
1928	0.8185
1937	0.8105
1946	0.8012
1955	0.7928
1964	0.7876
1973	0.7754
1982	0.7675
1991	0.7582
2000	0.7272
2009	0.7615
2018	0.7571
2027	0.7518
2036	0.7456
2045	0.7386
2054	0.7307
2063	0.7218
2072	0.7133
2081	0.7047
2090	0.6969
2099	0.6915
2108	0.6875
2117	0.6839
2126	0.678
2135	0.6721
2144	0.6662
2153	0.6605
2162	0.6548
2171	0.6498
2180	0.6449
2189	0.6393
2198	0.6335
2207	0.6278
2216	0.622
2225	0.616
2234	0.61
2243	0.6034
2252	0.5965
2261	0.5899
2270	0.5837
2279	0.5775
2288	0.5712
2297	0.5649
2306	0.5586
2315	0.553
2324	0.5475
2333	0.5437
2342	0.5402
2351	0.5368
2360	0.5351
2369	0.5357
2378	0.5365
2387	0.5344
2396	0.5305
2405	0.5264
2414	0.5218
2423	0.5171
2432	0.5124
2441	0.5074
2450	0.5026
2459	0.4981
2468	0.4936
2477	0.4906
2486	0.488
2495	0.4865
2504	0.4845
2513	0.4814
2522	0.4781
2531	0.4745
2540	0.4703
2549	0.4658
2558	0.4612
2567	0.4568
2576	0.4523
2585	0.448
2594	0.4438
2603	0.4395
2612	0.4357
2621	0.432
2630	0.4284
2639	0.4238
2648	0.419
2657	0.4141
2666	0.4091
2675	0.4038
2684	0.3984
2693	0.3936
2702	0.389
2711	0.3848
2720	0.3812
2729	0.3775
2738	0.3734
2747	0.3675
2756	0.3616
2765	0.3539
2774	0.3466
2783	0.3423
2792	0.3392
2801	0.3374
2810	0.3359
2819	0.335
2828	0.3382
2837	0.3573
2846	0.3806
2855	0.3934
2864	0.4028
2873	0.4052
2882	0.4009
2891	0.395
2900	0.3892
2909	0.3868
2918	0.3834
2927	0.3771
2936	0.3662
2945	0.355
2954	0.3468
2963	0.344
2972	0.3436
2981	0.3397
2990	0.3354
2999	0.3305
3008	0.3258
3017	0.3214
3026	0.3181
3035	0.3162
3044	0.3146
3053	0.3196
3062	0.3266
3071	0.3355
3080	0.3462
3089	0.3625
3098	0.3932
3107	0.4009
3116	0.3968
3125	0.3893
3134	0.3807
3143	0.373
3152	0.3668
3161	0.3637
3170	0.3629
3179	0.3674
3188	0.3784
3197	0.393
3206	0.4064
3215	0.4164
3224	0.4234
3233	0.4248
3242	0.4256
3251	0.4256
3260	0.426
3269	0.4329
3278	0.4428
3287	0.45
3296	0.4518
3305	0.4481
3314	0.4414
3323	0.436
3332	0.4322
3341	0.4302
3350	0.4304
3359	0.4309
3368	0.4312
3377	0.431
3386	0.4309
3395	0.4285
3404	0.426
3413	0.4229
3422	0.4197
3431	0.4166
3440	0.4137
3449	0.4094
3458	0.4047
3467	0.395
3476	0.382
3485	0.3725
3494	0.3949
3503	0.4329
3512	0.4574
3521	0.4786
3530	0.4948
3539	0.5095
3548	0.5219
3557	0.529
3566	0.5348
3575	0.5392
3584	0.5429
3593	0.5452
3602	0.5472
3611	0.5473
3620	0.5475
3629	0.5472
3638	0.546
3647	0.5435
3656	0.5395
3665	0.5345
3674	0.5287
3683	0.5227
3692	0.5174
3701	0.5121
3710	0.5068
3719	0.5017
3728	0.4977
3737	0.4936
3746	0.4901
3755	0.4876
3764	0.4859
3773	0.4843
3782	0.4828
