Infrared Spectrum: 2,4,6-TRIHYDROXYBENZALDEHYDE
Formula: C7 H6 O4
CAS: 487-70-7
State: SOLID (NUJOL MULL)
Class: COBLENTZ III
Instrument: BECKMAN IR-7 (GRATING)
Instrument parameters: GRATING CHANGED AT 3000, 2200, 1150 CM^-^1
Sampling: TRANSMISSION
Resolution: 4
Origin: WESTERN REGIONAL RES. USDA
1/CM	TRANSMITTANCE
598.621	0.717
607.582	0.71
616.543	0.666
625.504	0.7439
634.465	0.79
643.427	0.741
652.388	0.6991
661.349	0.5941
670.31	0.623
679.271	0.621
688.232	0.666
697.193	0.701
706.154	0.693
715.115	0.677
724.076	0.683
733.038	0.602
741.999	0.6289
750.96	0.596
759.921	0.688
768.882	0.734
777.843	0.724
786.804	0.64
795.765	0.572
804.726	0.6419
813.687	0.58
822.649	0.534
831.61	0.4259
840.571	0.696
849.532	0.749
858.493	0.76
867.454	0.724
876.415	0.69
885.376	0.724
894.337	0.768
903.299	0.798
912.26	0.81
921.221	0.819
930.182	0.825
939.143	0.828
948.104	0.827
957.065	0.827
966.026	0.827
974.987	0.828
983.948	0.83
992.91	0.828
1001.87	0.818
1010.83	0.701
1019.79	0.794
1028.75	0.814
1037.72	0.815
1046.68	0.804
1055.64	0.792
1064.6	0.761
1073.56	0.5201
1082.52	0.377
1091.48	0.741
1100.44	0.787
1109.4	0.792
1118.37	0.789
1127.33	0.768
1136.29	0.735
1145.25	0.649
1154.21	0.3371
1163.17	0.2559
1172.13	0.277
1181.09	0.418
1190.05	0.32
1199.01	0.309
1207.98	0.445
1216.94	0.423
1225.9	0.284
1234.86	0.355
1243.82	0.372
1252.78	0.245
1261.74	0.208
1270.7	0.187
1279.66	0.212
1288.63	0.289
1297.59	0.275
1306.55	0.293
1315.51	0.223
1324.47	0.196
1333.43	0.4789
1342.39	0.547
1351.35	0.51
1360.31	0.458
1369.28	0.359
1378.24	0.302
1387.2	0.399
1396.16	0.374
1405.12	0.398
1414.08	0.589
1423.04	0.628
1432	0.583
1440.96	0.511
1449.93	0.429
1458.89	0.317
1467.85	0.232
1476.81	0.202
1485.77	0.35
1494.73	0.456
1503.69	0.509
1512.65	0.483
1521.61	0.381
1530.58	0.335
1539.54	0.452
1548.5	0.498
1557.46	0.458
1566.42	0.356
1575.38	0.229
1584.34	0.222
1593.3	0.223
1602.26	0.079
1611.23	0.114
1620.19	0.245
1629.15	0.257
1638.11	0.12
1647.07	0.072
1656.03	0.13
1664.99	0.322
1673.95	0.511
1682.91	0.631
1691.88	0.705
1700.84	0.757
1709.8	0.788
1718.76	0.805
1727.72	0.82
1736.68	0.831
1745.64	0.838
1754.6	0.843
1763.56	0.846
1772.53	0.849
1781.49	0.858
1790.45	0.864
1799.41	0.865
1808.37	0.867
1817.33	0.868
1826.29	0.869
1835.25	0.869
1844.21	0.869
1853.18	0.868
1862.14	0.866
1871.1	0.865
1880.06	0.865
1889.02	0.864
1897.98	0.863
1906.94	0.864
1915.9	0.864
1924.86	0.864
1933.83	0.864
1942.79	0.864
1951.75	0.863
1960.71	0.862
1969.67	0.861
1978.63	0.86
1987.59	0.858
1996.55	0.858
2005.51	0.859
2014.48	0.8588
2023.44	0.858
2032.4	0.858
2041.36	0.858
2050.32	0.857
2059.28	0.856
2068.24	0.855
2077.2	0.854
2086.16	0.8528
2095.13	0.852
2104.09	0.85
2113.05	0.849
2122.01	0.8468
2130.97	0.8445
2139.93	0.8423
2148.89	0.841
2157.85	0.839
2166.81	0.838
2175.78	0.8363
2184.74	0.836
2193.7	0.8328
2202.66	0.8305
2211.62	0.8273
2220.58	0.825
2229.54	0.821
2238.5	0.818
2247.46	0.8163
2256.43	0.815
2265.39	0.814
2274.35	0.814
2283.31	0.812
2292.27	0.8101
2301.23	0.8098
2310.19	0.8076
2319.15	0.8036
2328.11	0.7981
2337.08	0.7936
2346.04	0.7891
2355	0.7836
2363.96	0.7781
2372.92	0.7718
2381.88	0.7666
2390.84	0.7596
2399.8	0.7542
2408.76	0.7477
2417.73	0.7402
2426.69	0.733
2435.65	0.7262
2444.61	0.7185
2453.57	0.7102
2462.53	0.7007
2471.49	0.6921
2480.45	0.6857
2489.41	0.6792
2498.37	0.6737
2507.34	0.6662
2516.3	0.6586
2525.26	0.6494
2534.22	0.6384
2543.18	0.6312
2552.14	0.6205
2561.1	0.6084
2570.06	0.5904
2579.02	0.5784
2587.99	0.5667
2596.95	0.5592
2605.91	0.5534
2614.87	0.5472
2623.83	0.5417
2632.79	0.5376
2641.75	0.536
2650.71	0.5369
2659.67	0.5381
2668.64	0.5424
2677.6	0.5472
2686.56	0.5527
2695.52	0.5571
2704.48	0.5624
2713.44	0.565
2722.4	0.5641
2731.36	0.5599
2740.32	0.5566
2749.29	0.555
2758.25	0.5569
2767.21	0.5622
2776.17	0.565
2785.13	0.5608
2794.09	0.5588
2803.05	0.5649
2812.01	0.5596
2820.97	0.5516
2829.94	0.5312
2838.9	0.4463
2847.86	0.225
2856.82	0.231
2865.78	0.2581
2874.74	0.2941
2883.7	0.2612
2892.66	0.2066
2901.62	0.155
2910.59	0.081
2919.55	0.097
2928.51	0.1428
2937.47	0.1492
2946.43	0.1302
2955.39	0.1882
2964.35	0.2509
2973.31	0.3455
2982.27	0.4155
2991.24	0.4379
3000.2	0.4553
3009.16	0.4618
3018.12	0.4629
3027.08	0.4607
3036.04	0.4606
3045	0.4618
3053.96	0.4619
3062.92	0.4554
3071.89	0.4529
3080.85	0.4482
3089.81	0.4409
3098.77	0.4334
3107.73	0.43
3116.69	0.4282
3125.65	0.4199
3134.61	0.4091
3143.57	0.3964
3152.54	0.3859
3161.5	0.3698
3170.46	0.3536
3179.42	0.3374
3188.38	0.3239
3197.34	0.3129
3206.3	0.3077
3215.26	0.3029
3224.22	0.2934
3233.19	0.286
3242.15	0.2772
3251.11	0.2694
3260.07	0.2622
3269.03	0.263
3277.99	0.2695
3286.95	0.275
3295.91	0.275
3304.87	0.2649
3313.84	0.2429
3322.8	0.2145
3331.76	0.2118
3340.72	0.244
3349.68	0.2975
3358.64	0.3411
3367.6	0.3887
3376.56	0.4159
3385.52	0.4493
3394.49	0.4794
3403.45	0.5057
3412.41	0.528
3421.37	0.5387
3430.33	0.5445
3439.29	0.5487
3448.25	0.558
3457.21	0.5788
3466.17	0.6049
3475.14	0.6326
3484.1	0.6558
3493.06	0.6739
3502.02	0.686
3510.98	0.6917
3519.94	0.693
3528.9	0.6849
3537.86	0.6677
3546.82	0.6504
3555.79	0.628
3564.75	0.6484
3573.71	0.6778
3582.67	0.708
3591.63	0.7347
3600.59	0.7493
3609.55	0.7754
3618.51	0.7834
3627.47	0.7919
3636.44	0.7982
3645.4	0.8024
3654.36	0.8057
3663.32	0.808
3672.28	0.809
3681.24	0.809
3690.2	0.808
3699.16	0.8071
3708.12	0.807
3717.09	0.806
3726.05	0.805
3735.01	0.805
3743.97	0.804
3752.93	0.803
3761.89	0.802
3770.85	0.801
3779.81	0.799
3788.77	0.7986
3797.74	0.797
3806.7	0.7951
3815.66	0.794
3824.62	0.794
3833.58	0.793
3842.54	0.792
3851.5	0.791
3860.46	0.79
3869.42	0.789
3878.38	0.788
3887.35	0.7868
3896.31	0.785
3905.27	0.7843
3914.23	0.783
3923.19	0.781
3932.15	0.781
3941.11	0.7793
3950.07	0.779
3959.03	0.7778
3968	0.777
3976.96	0.775
3985.92	0.774
