Infrared Spectrum: o-Hydroxyhippuric acid
Formula: C9 H9 N O4
CAS: 487-54-7
State: SOLID (SPLIT MULL), FLUOROLUBE FOR 3800-1330 CM^-^1, NUJOL FOR 1330-460 CM^-^1
Melting point: 170 C
Class: COBLENTZ II
Instrument: DOW KBr FOREPRISM-GRATING
Instrument parameters: BLAZED AT 3.5, 12.0, 20.0 MICRON AND CHANGED AT 5.0, 7.5, 14.9 MICRON
Sampling: TRANSMISSION
Resolution: 2
Origin: DOW CHEMICAL COMPANY
1/CM	TRANSMITTANCE
462	0.6846
471	0.6915
480	0.6988
489	0.7042
498	0.7006
507	0.6667
516	0.6365
525	0.7056
534	0.6289
543	0.7051
552	0.7061
561	0.6851
570	0.6851
579	0.5812
588	0.6625
597	0.6925
606	0.7244
615	0.7204
624	0.7085
633	0.6811
642	0.591
651	0.401
660	0.475
669	0.5182
678	0.6868
687	0.7335
696	0.7295
705	0.713
714	0.6897
723	0.6405
732	0.6221
741	0.5356
750	0.2841
759	0.5301
768	0.7105
777	0.7214
786	0.7261
795	0.7328
804	0.7458
813	0.7397
822	0.6915
831	0.7567
840	0.7511
849	0.7354
858	0.7072
867	0.608
876	0.6481
885	0.6798
894	0.7107
903	0.7368
912	0.7497
921	0.7547
930	0.7503
939	0.7184
948	0.6257
957	0.7441
966	0.7643
975	0.7656
984	0.7743
993	0.7551
1002	0.7794
1011	0.7833
1020	0.7765
1029	0.7691
1038	0.7201
1047	0.7798
1056	0.7761
1065	0.77
1074	0.7587
1083	0.7354
1092	0.5442
1101	0.6484
1110	0.7724
1119	0.7737
1128	0.7695
1137	0.7596
1146	0.7525
1155	0.6634
1164	0.7281
1173	0.7568
1182	0.7414
1191	0.7401
1200	0.7186
1209	0.6286
1218	0.5464
1227	0.5533
1236	0.2389
1245	0.1596
1254	0.3093
1263	0.6188
1272	0.6678
1281	0.6464
1290	0.5748
1299	0.5539
1308	0.5398
1317	0.6278
1326	0.6653
1335	0.6593
1344	0.5998
1353	0.5686
1362	0.5872
1371	0.4791
1380	0.5145
1389	0.602
1398	0.6147
1407	0.597
1416	0.5502
1425	0.4382
1434	0.1222
1443	0.3376
1452	0.3222
1461	0.2032
1470	0.4701
1479	0.5533
1488	0.4928
1497	0.2802
1506	0.4916
1515	0.4619
1524	0.421
1533	0.3035
1542	0.0919
1551	0.08
1560	0.2421
1569	0.3877
1578	0.2835
1587	0.3303
1596	0.3604
1605	0.1398
1614	0.123
1623	0.0509
1632	0.1332
1641	0.3464
1650	0.5241
1659	0.719
1668	0.7589
1677	0.7565
1686	0.7397
1695	0.708
1704	0.6375
1713	0.3259
1722	0.0976
1731	0.5618
1740	0.7567
1749	0.8078
1758	0.8213
1767	0.8296
1776	0.8368
1785	0.8355
1794	0.8283
1803	0.8158
1812	0.814
1821	0.8306
1830	0.835
1839	0.8475
1848	0.8495
1857	0.8478
1866	0.8457
1875	0.8439
1884	0.8424
1893	0.8399
1902	0.8374
1911	0.8432
1920	0.8365
1929	0.8211
1938	0.8424
1947	0.8338
1956	0.8475
1965	0.8452
1974	0.847
1983	0.8477
1992	0.8477
2001	0.879
2010	0.8821
2019	0.8821
2028	0.8816
2037	0.8805
2046	0.8796
2055	0.8789
2064	0.8782
2073	0.8771
2082	0.8759
2091	0.8745
2100	0.8728
2109	0.871
2118	0.8675
2127	0.8634
2136	0.8646
2145	0.8671
2154	0.8678
2163	0.865
2172	0.861
2181	0.8563
2190	0.8525
2199	0.8504
2208	0.8511
2217	0.8494
2226	0.8463
2235	0.8428
2244	0.8393
2253	0.8355
2262	0.832
2271	0.8286
2280	0.8255
2289	0.8224
2298	0.8184
2307	0.8131
2316	0.8065
2325	0.8094
2334	0.8104
2343	0.8096
2352	0.8078
2361	0.8065
2370	0.8049
2379	0.8034
2388	0.8005
2397	0.7947
2406	0.7878
2415	0.78
2424	0.7717
2433	0.764
2442	0.7565
2451	0.7483
2460	0.7399
2469	0.731
2478	0.7254
2487	0.7325
2496	0.7303
2505	0.7198
2514	0.708
2523	0.6957
2532	0.6822
2541	0.6669
2550	0.6476
2559	0.6243
2568	0.594
2577	0.548
2586	0.5121
2595	0.5416
2604	0.5892
2613	0.6172
2622	0.6315
2631	0.6234
2640	0.5997
2649	0.5775
2658	0.5492
2667	0.5327
2676	0.5215
2685	0.5175
2694	0.5146
2703	0.5002
2712	0.4736
2721	0.4634
2730	0.4674
2739	0.4892
2748	0.5185
2757	0.5249
2766	0.5201
2775	0.5118
2784	0.5052
2793	0.502
2802	0.4935
2811	0.4822
2820	0.4694
2829	0.4533
2838	0.4342
2847	0.4125
2856	0.3848
2865	0.3862
2874	0.391
2883	0.3824
2892	0.366
2901	0.3452
2910	0.3209
2919	0.3031
2928	0.2934
2937	0.2881
2946	0.2871
2955	0.2879
2964	0.29
2973	0.2946
2982	0.2935
2991	0.2857
3000	0.2757
3009	0.2658
3018	0.2598
3027	0.2462
3036	0.2328
3045	0.2205
3054	0.2113
3063	0.2069
3072	0.2032
3081	0.2074
3090	0.2258
3099	0.2377
3108	0.2477
3117	0.2555
3126	0.2646
3135	0.2762
3144	0.2921
3153	0.3146
3162	0.3434
3171	0.37
3180	0.3916
3189	0.411
3198	0.4312
3207	0.4525
3216	0.474
3225	0.5008
3234	0.5228
3243	0.541
3252	0.5562
3261	0.572
3270	0.5789
3279	0.586
3288	0.5842
3297	0.5686
3306	0.4496
3315	0.4441
3324	0.6016
3333	0.6726
3342	0.7061
3351	0.7287
3360	0.7448
3369	0.7572
3378	0.766
3387	0.7725
3396	0.7771
3405	0.7807
3414	0.7841
3423	0.7819
3432	0.7926
3441	0.8033
3450	0.8075
3459	0.8085
3468	0.8092
3477	0.8101
3486	0.8111
3495	0.8118
3504	0.8124
3513	0.8128
3522	0.8128
3531	0.813
3540	0.8131
3549	0.8128
3558	0.8128
3567	0.8118
3576	0.81
3585	0.8105
3594	0.8143
3603	0.8155
3612	0.8148
3621	0.814
3630	0.8135
3639	0.813
3648	0.8125
3657	0.8122
3666	0.8121
3675	0.8115
3684	0.8095
3693	0.8061
3702	0.8061
3711	0.8075
3720	0.8046
3729	0.8046
3738	0.8047
3747	0.8041
3756	0.803
3765	0.8015
3774	0.8003
3783	0.7989
3792	0.7975
3801	0.7961
