Infrared Spectrum: 1,1'-Azonaphthalene
Formula: C 20 H 14 N 2
CAS: 487-10-5
State: gas
Instrument: HP-GC/MS/IRD
Origin: NIST Mass Spectrometry Data Center
1/CM	ABSORBANCE
550	0.0001233
562	0.0008055
574	0.0007056
586	0.0008289
598	0.0002331
610	7.56e-05
622	5.85e-05
634	0.0001521
646	0.000225
658	0.0001827
670	6.84e-05
682	4.77e-05
694	4.86e-05
706	0.0001521
718	0.0002223
730	0.0002889
742	0.0003033
754	0.0016074
766	0.0076284
778	0.0051966
790	0.0031455
802	0.0038232
814	0.0008658
826	6.03e-05
838	0.0002304
850	0.000171
862	0.0003582
874	0.0002061
886	0.000162
898	0.0001647
910	0.0001512
922	8.1e-05
934	0.0001305
946	0.0001953
958	0.0002187
970	0.0002052
982	9.54e-05
994	0.0001656
1006	0.0005076
1018	0.0007614
1030	0.0002313
1042	0.0002286
1054	0.0001935
1066	7.47e-05
1078	0.000243
1090	0.0002394
1102	2.52e-05
1114	6.48e-05
1126	0.0001251
1138	0.0002133
1150	0.0002988
1162	0.0004626
1174	0.0003627
1186	0.0003339
1198	0.0005868
1210	0.0013266
1222	0.0007272
1234	0.0002196
1246	0.0001224
1258	0.0001944
1270	0.0001647
1282	0.0001539
1294	0.0002079
1306	0.0002169
1318	0.0002196
1330	0.0004293
1342	0.0010467
1354	0.0004716
1366	0.0007128
1378	0.0009171
1390	0.0016785
1402	0.0005859
1414	0.00036
1426	0.0004293
1438	0.000531
1450	0.0004068
1462	0.0003204
1474	0.0002628
1486	0.0003051
1498	0.0007812
1510	0.0009351
1522	0.000441
1534	0.0002601
1546	0.0001665
1558	0.0001737
1570	0.0001935
1582	0.0003285
1594	0.0004014
1606	0.0001962
1618	0.0001926
1630	0.0002709
1642	0.0001647
1654	0.0001809
1666	0.000198
1678	0.0002547
1690	0.0003564
1702	0.0003339
1714	0.0003177
1726	0.0002187
1738	0.000171
1750	0.0001701
1762	0.0001683
1774	0.0002088
1786	0.0001638
1798	0.0002601
1810	0.0003555
1822	0.0002394
1834	0.0002664
1846	0.0002151
1858	0.0002214
1870	0.0002565
1882	0.0001197
1894	0.0001224
1906	0.0002142
1918	0.0003978
1930	0.0004257
1942	0.0002547
1954	0.0002142
1966	7.92e-05
1978	3.42e-05
1990	2.79e-05
2002	4.05e-05
2014	3.42e-05
2026	3.6e-05
2038	1.17e-05
2050	2.34e-05
2062	6.3e-06
2074	2.97e-05
2086	3.6e-05
2098	2.34e-05
2110	2.7e-05
2122	1.62e-05
2134	0
2146	2.07e-05
2158	3.33e-05
2170	5.04e-05
2182	4.32e-05
2194	4.77e-05
2206	3.15e-05
2218	3.87e-05
2230	5.31e-05
2242	5.58e-05
2254	5.22e-05
2266	5.13e-05
2278	5.4e-05
2290	7.2e-05
2302	5.76e-05
2314	7.02e-05
2326	5.76e-05
2338	5.85e-05
2350	5.58e-05
2362	8.64e-05
2374	5.94e-05
2386	5.94e-05
2398	4.86e-05
2410	7.83e-05
2422	7.02e-05
2434	4.14e-05
2446	4.32e-05
2458	4.41e-05
2470	4.95e-05
2482	4.41e-05
2494	5.85e-05
2506	5.49e-05
2518	7.47e-05
2530	8.19e-05
2542	7.65e-05
2554	8.91e-05
2566	6.21e-05
2578	9.81e-05
2590	7.29e-05
2602	6.21e-05
2614	7.2e-05
2626	7.56e-05
2638	4.41e-05
2650	6.12e-05
2662	7.65e-05
2674	8.19e-05
2686	4.41e-05
2698	7.29e-05
2710	7.65e-05
2722	0.0001134
2734	5.49e-05
2746	7.11e-05
2758	0.0001161
2770	7.29e-05
2782	0.0001017
2794	0.0001206
2806	0.0001026
2818	0.000117
2830	0.0001098
2842	9e-05
2854	9.72e-05
2866	9.27e-05
2878	6.12e-05
2890	0.0001125
2902	0.0001287
2914	0.0001773
2926	0.000153
2938	0.0002556
2950	0.0002709
2962	0.0002448
2974	0.0001926
2986	0.0002169
2998	0.0003996
3010	0.00063
3022	0.0006858
3034	0.0008712
3046	0.0019494
3058	0.0057681
3070	0.0039285
3082	0.0023013
3094	0.001683
3106	0.000603
3118	0.0002988
3130	0.000189
3142	0.0001692
3154	0.0001278
3166	0.0001818
3178	0.0001332
3190	0.0001449
3202	0.0001422
3214	7.83e-05
3226	5.85e-05
3238	7.11e-05
3250	5.04e-05
3262	7.02e-05
3274	7.47e-05
3286	7.2e-05
3298	5.04e-05
3310	6.12e-05
3322	5.49e-05
3334	4.5e-05
3346	8.1e-05
3358	5.85e-05
3370	6.84e-05
3382	6.03e-05
3394	3.6e-05
3406	9.36e-05
3418	7.11e-05
3430	6.93e-05
3442	4.14e-05
3454	6.93e-05
3466	5.85e-05
3478	2.7e-05
3490	0.0001089
3502	3.33e-05
3514	9.36e-05
3526	9.45e-05
3538	0.0001206
3550	6.57e-05
3562	7.11e-05
3574	4.05e-05
3586	5.76e-05
3598	8.28e-05
3610	7.2e-05
3622	4.41e-05
3634	6.39e-05
3646	9.99e-05
3658	9.99e-05
3670	7.11e-05
3682	6.84e-05
3694	8.01e-05
3706	5.58e-05
3718	0.0001134
3730	0.0001044
3742	0.0001395
3754	9.63e-05
3766	0.0001062
3778	0.0001233
3790	5.31e-05
3802	0.0001206
3814	0.0001413
3826	0.0001116
3838	0.0001134
