Infrared Spectrum: ISATIN, 3-THIOSEMICARBAZONE
Formula: C9 H8 N4 O S
CAS: 487-16-1
State: SOLID (SPLIT MULL)
Melting point: 268 C
Class: COBLENTZ III
Instrument: DOW KBr FOREPRISM-GRATING
Instrument parameters: BLAZED AT 3.5, 12.0, 20.0 MICRON AND CHANGED AT 5.0, 7.5, 14.9 MICRON
Sampling: TRANSMISSION
Resolution: 2
Origin: DOW CHEMICAL COMPANY
1/CM	TRANSMITTANCE
459.743	0.813
468.494	0.826
477.246	0.802
485.997	0.833
494.749	0.837
503.5	0.688
512.252	0.74
521.003	0.706
529.755	0.653
538.506	0.56
547.258	0.588
556.009	0.633
564.761	0.713
573.512	0.602
582.263	0.474
591.015	0.35
599.766	0.619
608.518	0.724
617.269	0.758
626.021	0.726
634.772	0.646
643.524	0.59
652.275	0.74
661.027	0.677
669.778	0.35
678.53	0.462
687.281	0.686
696.032	0.834
704.784	0.835
713.535	0.75
722.287	0.646
731.038	0.568
739.79	0.304
748.541	0.293
757.293	0.406
766.044	0.637
774.796	0.942
783.547	0.929
792.299	0.3031
801.05	0.822
809.801	0.881
818.553	0.853
827.304	0.795
836.056	0.726
844.807	0.678
853.559	0.413
862.31	0.474
871.062	0.787
879.813	0.878
888.565	0.5751
897.316	0.842
906.068	0.964
914.819	0.962
923.57	0.957
932.322	0.932
941.073	0.859
949.825	0.951
958.576	0.932
967.328	0.892
976.079	0.925
984.831	0.944
993.582	0.935
1002.33	0.921
1011.09	0.892
1019.84	0.891
1028.59	0.885
1037.34	0.853
1046.09	0.813
1054.84	0.724
1063.59	0.386
1072.35	0.667
1081.1	0.731
1089.85	0.678
1098.6	0.525
1107.35	0.532
1116.1	0.388
1124.85	0.172
1133.61	0.097
1142.36	0.231
1151.11	0.524
1159.86	0.631
1168.61	0.689
1177.36	0.642
1186.11	0.535
1194.87	0.426
1203.62	0.288
1212.37	0.324
1221.12	0.442
1229.87	0.526
1238.62	0.457
1247.37	0.44
1256.13	0.337
1264.88	0.379
1273.63	0.321
1282.38	0.282
1291.13	0.39
1299.88	0.31
1308.63	0.354
1317.39	0.503
1326.14	0.503
1334.89	0.481
1343.64	0.347
1352.39	0.387
1361.14	0.655
1369.89	0.657
1378.65	0.649
1387.4	0.631
1396.15	0.6
1404.9	0.561
1413.65	0.535
1422.4	0.499
1431.16	0.441
1439.91	0.347
1448.66	0.228
1457.41	0.154
1466.16	0.125
1474.91	0.137
1483.66	0.253
1492.42	0.223
1501.17	0.191
1509.92	0.375
1518.67	0.71
1527.42	0.851
1536.17	0.817
1544.92	0.775
1553.68	0.742
1562.43	0.652
1571.18	0.489
1579.93	0.237
1588.68	0.227
1597.43	0.193
1606.18	0.357
1614.94	0.26
1623.69	0.187
1632.44	0.491
1641.19	0.874
1649.94	0.886
1658.69	0.831
1667.44	0.533
1676.2	0.242
1684.95	0.79
1693.7	0.747
1702.45	0.379
1711.2	0.848
1719.95	0.965
1728.7	1
1737.46	1.011
1746.21	1.009
1754.96	1.004
1763.71	0.998
1772.46	0.986
1781.21	0.971
1789.97	0.943
1798.72	0.935
1807.47	0.942
1816.22	0.926
1824.97	0.902
1833.72	0.91
1842.47	0.906
1851.23	0.892
1859.98	0.878
1868.73	0.866
1877.48	0.87
1886.23	0.864
1894.98	0.848
1903.73	0.823
1912.49	0.84
1921.24	0.835
1929.99	0.82
1938.74	0.817
1947.49	0.817
1956.24	0.813
1964.99	0.806
1973.75	0.798
1982.5	0.79
1991.25	0.782
2000	0.777
2008.75	0.773
2017.5	0.758
2026.25	0.751
2035.01	0.75
2043.76	0.744
2052.51	0.7359
2061.26	0.725
2070.01	0.7249
2078.76	0.7209
2087.51	0.7099
2096.27	0.6989
2105.02	0.6918
2113.77	0.6849
2122.52	0.682
2131.27	0.6799
2140.02	0.675
2148.78	0.6707
2157.53	0.6629
2166.28	0.6528
2175.03	0.6449
2183.78	0.6379
2192.53	0.633
2201.28	0.6267
2210.04	0.6188
2218.79	0.6058
2227.54	0.5906
2236.29	0.5786
2245.04	0.568
2253.79	0.565
2262.54	0.565
2271.3	0.562
2280.05	0.5575
2288.8	0.5508
2297.55	0.5437
2306.3	0.5358
2315.05	0.5277
2323.8	0.5218
2332.56	0.5196
2341.31	0.5166
2350.06	0.5126
2358.81	0.5078
2367.56	0.504
2376.31	0.503
2385.06	0.5016
2393.82	0.497
2402.57	0.4928
2411.32	0.4888
2420.07	0.484
2428.82	0.4778
2437.57	0.4725
2446.32	0.4668
2455.08	0.4615
2463.83	0.459
2472.58	0.456
2481.33	0.4545
2490.08	0.449
2498.83	0.4457
2507.58	0.442
2516.34	0.4395
2525.09	0.435
2533.84	0.4307
2542.59	0.4267
2551.34	0.4227
2560.09	0.4181
2568.85	0.4127
2577.6	0.4074
2586.35	0.4007
2595.1	0.3964
2603.85	0.3907
2612.6	0.3867
2621.35	0.3813
2630.11	0.3767
2638.86	0.371
2647.61	0.3633
2656.36	0.3563
2665.11	0.3523
2673.86	0.3476
2682.61	0.346
2691.37	0.3426
2700.12	0.339
2708.87	0.3342
2717.62	0.3302
2726.37	0.3216
2735.12	0.3146
2743.87	0.3076
2752.63	0.3012
2761.38	0.2942
2770.13	0.2872
2778.88	0.2758
2787.63	0.2657
2796.38	0.259
2805.13	0.2624
2813.89	0.2734
2822.64	0.281
2831.39	0.2746
2840.14	0.2665
2848.89	0.2555
2857.64	0.2455
2866.39	0.2375
2875.15	0.234
2883.9	0.233
2892.65	0.229
2901.4	0.225
2910.15	0.2165
2918.9	0.21
2927.66	0.2015
2936.41	0.1945
2945.16	0.185
2953.91	0.178
2962.66	0.1715
2971.41	0.1645
2980.16	0.16
2988.92	0.1575
2997.67	0.155
3006.42	0.153
3015.17	0.151
3023.92	0.151
3032.67	0.1386
3041.42	0.1214
3050.18	0.118
3058.93	0.12
3067.68	0.1272
3076.43	0.133
3085.18	0.133
3093.93	0.131
3102.68	0.1228
3111.44	0.115
3120.19	0.11
3128.94	0.1034
3137.69	0.0938
3146.44	0.0828
3155.19	0.08
3163.94	0.0846
3172.7	0.0956
3181.45	0.1112
3190.2	0.1452
3198.95	0.1656
3207.7	0.171
3216.45	0.1697
3225.2	0.1613
3233.96	0.127
3242.71	0.116
3251.46	0.114
3260.21	0.1207
3268.96	0.1418
3277.71	0.2061
3286.46	0.251
3295.22	0.2455
3303.97	0.2157
3312.72	0.181
3321.47	0.1559
3330.22	0.146
3338.97	0.1558
3347.73	0.223
3356.48	0.2765
3365.23	0.281
3373.98	0.2648
3382.73	0.2388
3391.48	0.2183
3400.23	0.1804
3408.99	0.1169
3417.74	0.1015
3426.49	0.241
3435.24	0.241
3443.99	0.2483
3452.74	0.2586
3461.49	0.259
3470.25	0.2526
3479	0.216
3487.75	0.2194
3496.5	0.218
3505.25	0.1959
3514	0.193
3522.75	0.2396
3531.51	0.2623
3540.26	0.28
3549.01	0.278
3557.76	0.2753
3566.51	0.2732
3575.26	0.2701
3584.01	0.2671
3592.77	0.2631
3601.52	0.2617
3610.27	0.2573
3619.02	0.2533
3627.77	0.251
3636.52	0.2462
3645.27	0.2422
3654.03	0.24
3662.78	0.2343
3671.53	0.2312
3680.28	0.228
3689.03	0.226
3697.78	0.2221
3706.54	0.2191
3715.29	0.216
3724.04	0.212
3732.79	0.2091
3741.54	0.208
3750.29	0.205
3759.04	0.2021
3767.8	0.2
3776.55	0.197
3785.3	0.194
3794.05	0.191
