Infrared Spectrum: ACETOPHENONE, 2',4'-DIHYDROXY-2-(p-METHOXYPHENYL)-
Formula: C15 H14 O4
CAS: 487-49-0
State: SOLID (SPLIT MULL), FLUOROLUBE FOR 3800-1330 CM^-^1, NUJOL FOR 1330-400 CM^-^1, VS SCREEN
Class: COBLENTZ III
Instrument: DOW KBr FOREPRISM-GRATING
Instrument parameters: BLAZED AT 3.5, 12.0, 20.0 MICRON AND CHANGED AT 5.0, 7.5, 14.9 MICRON
Sampling: TRANSMISSION
Resolution: 2
Origin: DOW CHEMICAL COMPANY
1/CM	TRANSMITTANCE
383	0.875
392	0.8783
401	0.8816
410	0.8865
419	0.8933
428	0.8921
437	0.8899
446	0.8634
455	0.7865
464	0.8937
473	0.9003
482	0.9011
491	0.8996
500	0.8928
509	0.8221
518	0.7137
527	0.8288
536	0.7901
545	0.6606
554	0.8524
563	0.8512
572	0.8146
581	0.758
590	0.8239
599	0.7884
608	0.7186
617	0.4786
626	0.6511
635	0.7078
644	0.7876
653	0.6405
662	0.8545
671	0.8501
680	0.8551
689	0.8617
698	0.8502
707	0.8223
716	0.7746
725	0.6201
734	0.7869
743	0.6584
752	0.7078
761	0.7756
770	0.6978
779	0.7195
788	0.7187
797	0.3111
806	0.59
815	0.6851
824	0.6206
833	0.7498
842	0.6921
851	0.5866
860	0.5425
869	0.6484
878	0.7781
887	0.7738
896	0.7689
905	0.7651
914	0.7421
923	0.7475
932	0.7411
941	0.736
950	0.7182
959	0.6675
968	0.2835
977	0.6651
986	0.6155
995	0.3984
1004	0.6885
1013	0.61
1022	0.3518
1031	0.6342
1040	0.6651
1049	0.6553
1058	0.6349
1067	0.6154
1076	0.5848
1085	0.5489
1094	0.5096
1103	0.3814
1112	0.4102
1121	0.3368
1130	0.1175
1139	0.5092
1148	0.4009
1157	0.2896
1166	0.1867
1175	0.0466
1184	0.0552
1193	0.0467
1202	0.1644
1211	0.385
1220	0.43
1229	0.3893
1238	0.1903
1247	0.1323
1256	0.5
1265	0.6362
1274	0.7171
1283	0.7068
1292	0.6446
1301	0.3398
1310	0.5626
1319	0.649
1328	0.6359
1337	0.4248
1346	0.2757
1355	0.1506
1364	0.2949
1373	0.4487
1382	0.5168
1391	0.595
1400	0.5689
1409	0.4253
1418	0.4715
1427	0.5525
1436	0.296
1445	0.3636
1454	0.4976
1463	0.4921
1472	0.601
1481	0.5553
1490	0.4965
1499	0.3142
1508	0.3091
1517	0.2182
1526	0.624
1535	0.6371
1544	0.6198
1553	0.6144
1562	0.5845
1571	0.4809
1580	0.3808
1589	0.2491
1598	0.2411
1607	0.1114
1616	0.0797
1625	0.1598
1634	0.2385
1643	0.577
1652	0.8154
1661	0.8455
1670	0.8539
1679	0.8713
1688	0.8681
1697	0.8602
1706	0.8494
1715	0.8192
1724	0.8121
1733	0.8111
1742	0.8104
1751	0.8099
1760	0.8086
1769	0.8055
1778	0.8025
1787	0.7994
1796	0.7968
1805	0.7944
1814	0.7904
1823	0.7862
1832	0.7817
1841	0.7767
1850	0.7712
1859	0.7647
1868	0.758
1877	0.751
1886	0.7446
1895	0.7204
1904	0.7417
1913	0.7399
1922	0.7361
1931	0.7326
1940	0.729
1949	0.7231
1958	0.7158
1967	0.7128
1976	0.7147
1985	0.7151
1994	0.7088
2003	0.6804
2012	0.6656
2021	0.6601
2030	0.653
2039	0.6514
2048	0.6531
2057	0.6515
2066	0.6475
2075	0.6417
2084	0.6357
2093	0.6314
2102	0.6283
2111	0.6248
2120	0.6212
2129	0.617
2138	0.6129
2147	0.6094
2156	0.606
2165	0.6027
2174	0.5995
2183	0.596
2192	0.5917
2201	0.5874
2210	0.5831
2219	0.5781
2228	0.5732
2237	0.5683
2246	0.5646
2255	0.5608
2264	0.556
2273	0.551
2282	0.5489
2291	0.5482
2300	0.5481
2309	0.537
2318	0.5238
2327	0.5295
2336	0.5335
2345	0.5322
2354	0.5308
2363	0.5292
2372	0.5276
2381	0.5254
2390	0.5232
2399	0.5214
2408	0.5199
2417	0.5179
2426	0.5157
2435	0.5133
2444	0.5103
2453	0.5073
2462	0.5046
2471	0.5027
2480	0.5007
2489	0.498
2498	0.4926
2507	0.488
2516	0.4842
2525	0.4808
2534	0.4812
2543	0.4823
2552	0.4836
2561	0.4812
2570	0.4776
2579	0.4724
2588	0.4687
2597	0.465
2606	0.4618
2615	0.4589
2624	0.456
2633	0.4535
2642	0.451
2651	0.4486
2660	0.4462
2669	0.4441
2678	0.4419
2687	0.4397
2696	0.4376
2705	0.4356
2714	0.4338
2723	0.4319
2732	0.43
2741	0.4282
2750	0.426
2759	0.4232
2768	0.4203
2777	0.4173
2786	0.4138
2795	0.4102
2804	0.4068
2813	0.4014
2822	0.3956
2831	0.3694
2840	0.3888
2849	0.3918
2858	0.3902
2867	0.3827
2876	0.376
2885	0.3654
2894	0.3492
2903	0.3384
2912	0.3221
2921	0.3387
2930	0.337
2939	0.324
2948	0.3418
2957	0.3362
2966	0.3189
2975	0.34
2984	0.339
2993	0.3209
3002	0.3155
3011	0.3442
3020	0.3388
3029	0.339
3038	0.3393
3047	0.3388
3056	0.338
3065	0.3374
3074	0.3366
3083	0.3358
3092	0.3357
3101	0.3355
3110	0.3354
3119	0.3348
3128	0.3327
3137	0.3303
3146	0.328
3155	0.3256
3164	0.3225
3173	0.3183
3182	0.3143
3191	0.3101
3200	0.3067
3209	0.3034
3218	0.2998
3227	0.2956
3236	0.2908
3245	0.285
3254	0.2784
3263	0.2707
3272	0.2618
3281	0.2508
3290	0.2383
3299	0.2269
3308	0.215
3317	0.1984
3326	0.1816
3335	0.1619
3344	0.1434
3353	0.1294
3362	0.13
3371	0.1512
3380	0.1851
3389	0.2309
3398	0.2715
3407	0.2994
3416	0.322
3425	0.3447
3434	0.3659
3443	0.3812
3452	0.3914
3461	0.3957
3470	0.3956
3479	0.3944
3488	0.3929
3497	0.3916
3506	0.3887
3515	0.3856
3524	0.3828
3533	0.38
3542	0.3773
3551	0.3743
3560	0.3712
3569	0.368
3578	0.365
3587	0.3622
3596	0.3594
3605	0.3564
3614	0.3537
3623	0.3509
3632	0.3482
3641	0.3455
3650	0.343
3659	0.3407
3668	0.3384
3677	0.3362
3686	0.3341
3695	0.332
3704	0.3303
3713	0.3286
3722	0.3268
3731	0.3252
3740	0.3234
3749	0.3216
3758	0.3198
3767	0.3179
3776	0.3159
3785	0.3138
3794	0.3124
3803	0.3116
