Infrared Spectrum: .alpha.-Bromophenyl acetic acid
Formula: C 8 H 7 Br O 2
CAS: 4870-65-9
State: gas
Instrument: HP-GC/MS/IRD
Origin: NIST Mass Spectrometry Data Center
1/CM	ABSORBANCE
550	0.000999
562	0.0015975
574	0.003069
586	0.0064005
598	0.00606
610	0.0051945
622	0.0066015
634	0.005034
646	0.003315
658	0.0025965
670	0.003198
682	0.004377
694	0.006252
706	0.0042795
718	0.0027165
730	0.0021285
742	0.0019965
754	0.001413
766	0.0008355
778	0.000495
790	0.0002835
802	0.0003075
814	0.000258
826	0.000315
838	0.0006855
850	0.0007155
862	0.000294
874	0.0002535
886	0.0001995
898	0.0002145
910	0.0002025
922	7.5e-05
934	6.15e-05
946	9e-05
958	5.55e-05
970	3.3e-05
982	7.2e-05
994	0.0002745
1006	0.0004725
1018	0.000567
1030	0.0009105
1042	0.0007725
1054	0.0009615
1066	0.0015885
1078	0.003021
1090	0.0065205
1102	0.013059
1114	0.0106875
1126	0.0062955
1138	0.006864
1150	0.006528
1162	0.0044985
1174	0.0036165
1186	0.003648
1198	0.003435
1210	0.0023805
1222	0.0017475
1234	0.001509
1246	0.001263
1258	0.001143
1270	0.0012135
1282	0.0013695
1294	0.001797
1306	0.002418
1318	0.00288
1330	0.0025995
1342	0.0023085
1354	0.0023865
1366	0.0022695
1378	0.0016215
1390	0.000945
1402	0.00045
1414	0.0002985
1426	0.000306
1438	0.000432
1450	0.000966
1462	0.000936
1474	0.0004095
1486	0.0006435
1498	0.001236
1510	0.000399
1522	0.000126
1534	0.000135
1546	0.000117
1558	6.3e-05
1570	0.0001395
1582	0.0002325
1594	0.0003105
1606	0.0002445
1618	0.000132
1630	0.000102
1642	9e-05
1654	7.65e-05
1666	0.000105
1678	0.000174
1690	0.000234
1702	0.0004005
1714	0.000861
1726	0.0015135
1738	0.002526
1750	0.004848
1762	0.009456
1774	0.0143625
1786	0.0138915
1798	0.008592
1810	0.0048705
1822	0.002529
1834	0.0012615
1846	0.0006915
1858	0.0004455
1870	0.0003345
1882	0.0002985
1894	0.000252
1906	0.000189
1918	0.0001365
1930	0.000165
1942	0.0002925
1954	0.0002595
1966	0.0002175
1978	9.6e-05
1990	9e-05
2002	8.4e-05
2014	7.5e-05
2026	4.95e-05
2038	4.5e-05
2050	4.65e-05
2062	6.15e-05
2074	1.95e-05
2086	2.85e-05
2098	9e-06
2110	7.5e-05
2122	7.35e-05
2134	5.55e-05
2146	3.3e-05
2158	5.1e-05
2170	8.4e-05
2182	8.25e-05
2194	8.1e-05
2206	6.9e-05
2218	5.85e-05
2230	5.7e-05
2242	5.7e-05
2254	0.0001005
2266	0.000147
2278	0.0002685
2290	0.000522
2302	0.0009705
2314	0.0015705
2326	0.0019215
2338	0.0017445
2350	0.0014835
2362	0.002475
2374	0.001848
2386	0.000441
2398	7.05e-05
2410	9.6e-05
2422	6.75e-05
2434	9.15e-05
2446	7.8e-05
2458	7.8e-05
2470	9.6e-05
2482	7.5e-05
2494	5.7e-05
2506	0.000105
2518	9.6e-05
2530	1.35e-05
2542	3.9e-05
2554	4.35e-05
2566	1.5e-05
2578	4.5e-05
2590	7.35e-05
2602	6.45e-05
2614	7.8e-05
2626	5.55e-05
2638	3e-05
2650	5.4e-05
2662	6.45e-05
2674	0.0001005
2686	5.1e-05
2698	6e-05
2710	7.95e-05
2722	9e-06
2734	8.55e-05
2746	4.35e-05
2758	9e-06
2770	6.15e-05
2782	6.3e-05
2794	9.6e-05
2806	5.85e-05
2818	6.45e-05
2830	5.1e-05
2842	8.25e-05
2854	5.4e-05
2866	0.000102
2878	9.3e-05
2890	8.55e-05
2902	0.0001365
2914	0.00012
2926	0.000171
2938	0.0001395
2950	0.0001425
2962	0.000141
2974	0.000225
2986	0.000204
2998	0.000288
3010	0.0003465
3022	0.0007125
3034	0.001476
3046	0.001524
3058	0.0013215
3070	0.002397
3082	0.00207
3094	0.0012615
3106	0.0007875
3118	0.0004365
3130	0.000219
3142	0.000129
3154	0.0001665
3166	0.000117
3178	0.000102
3190	2.1e-05
3202	9.15e-05
3214	0.0001035
3226	8.25e-05
3238	7.05e-05
3250	8.85e-05
3262	3.15e-05
3274	0.000129
3286	0
3298	9.15e-05
3310	0.0001755
3322	8.85e-05
3334	8.1e-05
3346	8.7e-05
3358	7.65e-05
3370	6.15e-05
3382	0.0001335
3394	6.45e-05
3406	6e-05
3418	0.000114
3430	0.0001065
3442	0.0001635
3454	0.000147
3466	0.0001755
3478	0.000234
3490	0.000405
3502	0.000597
3514	0.000564
3526	0.0005955
3538	0.0006855
3550	0.001026
3562	0.0034455
3574	0.0095145
3586	0.004362
3598	0.0009105
3610	0.000444
3622	0.0003
3634	0.0002595
3646	0.0002295
3658	0.0001995
3670	0.0002265
3682	0.00018
3694	0.000285
3706	0.00024
3718	0.000183
3730	0.0003165
3742	0.0001755
3754	0.000168
3766	0.000105
3778	0.000168
3790	0.0001515
3802	9e-05
3814	0.0001485
3826	0.000189
3838	0.0001155
