Infrared Spectrum: Cyclofenchene
Formula: C 10 H 16
CAS: 488-97-1
State: gas
Instrument: HP-GC/MS/IRD
Origin: NIST Mass Spectrometry Data Center
1/CM	ABSORBANCE
550	0.0001075
562	0.000115
574	6.75e-05
586	9e-05
598	0.000255
610	0.0001475
622	6.75e-05
634	5e-05
646	0.000125
658	5e-06
670	9.75e-05
682	8.5e-05
694	0.0001575
706	0.00014
718	0.000305
730	0.000215
742	5.75e-05
754	2.75e-05
766	1.5e-05
778	8e-05
790	0.0001625
802	0.00055
814	0.0010475
826	0.0007375
838	0.0006825
850	0.0008875
862	0.0010425
874	0.00093
886	0.0006875
898	0.0006625
910	0.0006
922	0.0005125
934	0.0004075
946	0.0002475
958	0.000145
970	0.00022
982	0.0002375
994	0.0001125
1006	0.0001125
1018	0.000165
1030	0.00012
1042	0.00012
1054	0.000335
1066	0.000585
1078	0.000545
1090	0.0003675
1102	0.000515
1114	0.0009225
1126	0.0006975
1138	0.00058
1150	0.000585
1162	0.000665
1174	0.0005825
1186	0.0006925
1198	0.0009725
1210	0.000815
1222	0.0005975
1234	0.0005825
1246	0.00061
1258	0.0006175
1270	0.0005375
1282	0.0006875
1294	0.00111
1306	0.0014075
1318	0.000945
1330	0.00047
1342	0.00051
1354	0.0011275
1366	0.0024325
1378	0.0026875
1390	0.00169
1402	0.000765
1414	0.000465
1426	0.0005775
1438	0.001095
1450	0.0021425
1462	0.00324
1474	0.0027925
1486	0.00141
1498	0.0005825
1510	0.00025
1522	0.000145
1534	9e-05
1546	0.0001025
1558	0.00013
1570	0.0001375
1582	0.00016
1594	0.0001775
1606	0.0001775
1618	0.0002075
1630	0.0002275
1642	0.000175
1654	0.0001775
1666	0.0001525
1678	0.0001575
1690	0.000125
1702	7e-05
1714	0.0001025
1726	0.000115
1738	9.5e-05
1750	9.5e-05
1762	8.25e-05
1774	7.5e-05
1786	0.0001275
1798	0.000105
1810	0.0001075
1822	0.0001275
1834	0.0001075
1846	0.0001475
1858	0.00011
1870	8.5e-05
1882	0.0001175
1894	0.00013
1906	0.000135
1918	9.5e-05
1930	9.25e-05
1942	0.0001
1954	0.0001025
1966	0.0001325
1978	9.25e-05
1990	8.75e-05
2002	0.0001025
2014	0.0001175
2026	9.25e-05
2038	8.5e-05
2050	8.75e-05
2062	8.5e-05
2074	6.25e-05
2086	5e-05
2098	7.75e-05
2110	7e-05
2122	0.0001
2134	0.0001075
2146	6e-05
2158	0.0001075
2170	9.25e-05
2182	7.5e-05
2194	9.25e-05
2206	6.5e-05
2218	7.25e-05
2230	5e-05
2242	0
2254	4e-05
2266	4.75e-05
2278	4.5e-05
2290	5e-05
2302	5e-05
2314	6.5e-05
2326	6e-05
2338	5.5e-05
2350	4.25e-05
2362	5.75e-05
2374	3.75e-05
2386	5.25e-05
2398	8.5e-05
2410	5e-05
2422	6.5e-05
2434	6e-05
2446	3.75e-05
2458	2.5e-05
2470	3e-05
2482	4.5e-05
2494	5.25e-05
2506	4.5e-05
2518	5.75e-05
2530	4.5e-05
2542	5e-05
2554	4.5e-05
2566	8.5e-05
2578	0.000115
2590	9.25e-05
2602	8e-05
2614	5.75e-05
2626	9.75e-05
2638	9e-05
2650	0.0001275
2662	0.0001075
2674	0.000145
2686	0.00018
2698	0.00014
2710	0.0001975
2722	0.00035
2734	0.0005025
2746	0.00062
2758	0.00055
2770	0.00046
2782	0.00047
2794	0.0005075
2806	0.0006775
2818	0.0008975
2830	0.001195
2842	0.00172
2854	0.0032775
2866	0.00887
2878	0.015315
2890	0.014865
2902	0.0114725
2914	0.0116725
2926	0.0159575
2938	0.020395
2950	0.0236825
2962	0.0246175
2974	0.0219925
2986	0.0152275
2998	0.00711
3010	0.002575
3022	0.0020525
3034	0.0033475
3046	0.00444
3058	0.0049075
3070	0.00278
3082	0.0010475
3094	0.0008525
3106	0.0007175
3118	0.0006525
3130	0.0006125
3142	0.00054
3154	0.0004075
3166	0.0003225
3178	0.0002475
3190	0.00013
3202	0.0001025
3214	0.0001075
3226	3.75e-05
3238	7.5e-05
3250	0.000155
3262	8.75e-05
3274	0.000165
3286	0.0001225
3298	8.75e-05
3310	9.75e-05
3322	2.25e-05
3334	0.000155
3346	7.5e-06
3358	9.5e-05
3370	7e-05
3382	4.25e-05
3394	4.5e-05
3406	7.25e-05
3418	0.0001375
3430	0.0001275
3442	0.000145
3454	2.25e-05
3466	0.000115
3478	7e-05
3490	5.75e-05
3502	4.25e-05
3514	8.25e-05
3526	1.25e-05
3538	5.75e-05
3550	1.75e-05
3562	6e-05
3574	8.5e-05
3586	2.5e-06
3598	0.000125
3610	0.000145
3622	2.75e-05
3634	9.75e-05
3646	5e-05
3658	9.25e-05
3670	7.25e-05
3682	6.75e-05
3694	3e-05
3706	7.25e-05
3718	7.25e-05
3730	1.75e-05
3742	1.25e-05
3754	5.25e-05
3766	2e-05
3778	0.00013
3790	8.25e-05
3802	8e-05
3814	0.0001225
3826	0.000105
3838	0.000165
