Infrared Spectrum: Mucobromic acid
Formula: C 4 H 2 Br 2 O 3
CAS: 488-11-9
State: gas
Origin: EPA-IR VAPOR PHASE LIBRARY
1/CM	ABSORBANCE
549.8	0.002356
559.445	0.0026312
569.09	0.00302
578.734	0.0031
588.379	0.0026458
598.024	0.00339
607.669	0.00294
617.313	0.00699
626.958	0.00506
636.603	0.0071
646.248	0.00956
655.893	0.00815
665.537	0.01572
675.182	0.01302
684.827	0.01999
694.472	0.01925
704.116	0.01196
713.761	0.00734
723.406	0.00527
733.051	0.00508
742.695	0.00446
752.34	0.00314
761.985	0.00306
771.63	0.00311
781.275	0.00301
790.919	0.00355
800.564	0.00404
810.209	0.00388
819.854	0.00334
829.498	0.00309
839.143	0.00387
848.788	0.00554
858.433	0.00472
868.078	0.00324
877.722	0.0031
887.367	0.00299
897.012	0.00312
906.657	0.00306
916.301	0.0026856
925.946	0.0026988
935.591	0.00325
945.236	0.00477
954.88	0.0077
964.525	0.01103
974.17	0.01127
983.815	0.00971
993.46	0.0084
1003.1	0.00984
1012.75	0.0175
1022.39	0.03041
1032.04	0.03089
1041.68	0.01002
1051.33	0.00527
1060.97	0.00565
1070.62	0.00598
1080.26	0.00641
1089.91	0.00654
1099.55	0.00715
1109.2	0.00729
1118.84	0.0092
1128.49	0.00961
1138.13	0.00751
1147.78	0.00609
1157.42	0.00544
1167.07	0.00548
1176.71	0.00703
1186.36	0.00807
1196	0.0073
1205.64	0.0054
1215.29	0.00553
1224.93	0.00429
1234.58	0.00377
1244.22	0.00342
1253.87	0.002216
1263.51	0.00048
1273.16	0.0001
1282.8	0.00023
1292.45	0.001031
1302.09	0.0023837
1311.74	0.00389
1321.38	0.00395
1331.03	0.00358
1340.67	0.00326
1350.32	0.00318
1359.96	0.00357
1369.61	0.0044
1379.25	0.00677
1388.9	0.00729
1398.54	0.00629
1408.18	0.0045
1417.83	0.00386
1427.47	0.00289
1437.12	0.0023471
1446.76	0.0021682
1456.41	0.0020273
1466.05	0.0018116
1475.7	0.0017607
1485.34	0.0017632
1494.99	0.001669
1504.63	0.001613
1514.28	0.0018082
1523.92	0.00189103
1533.57	0.0022135
1543.21	0.00284
1552.86	0.00436
1562.5	0.00643
1572.15	0.00671
1581.79	0.00459
1591.44	0.00307
1601.08	0.0032
1610.73	0.00485
1620.37	0.00637
1630.01	0.00519
1639.66	0.00459
1649.3	0.00593
1658.95	0.00806
1668.59	0.01392
1678.24	0.04269
1687.88	0.06529
1697.53	0.06168
1707.17	0.0256
1716.82	0.0204
1726.46	0.01531
1736.11	0.00909
1745.75	0.00632
1755.4	0.00508
1765.04	0.00434
1774.69	0.00423
1784.33	0.00436
1793.98	0.00477
1803.62	0.00647
1813.27	0.01261
1822.91	0.02098
1832.55	0.01484
1842.2	0.00495
1851.84	0.00285
1861.49	0.0024458
1871.13	0.0022493
1880.78	0.0023355
1890.42	0.0024144
1900.07	0.0023887
1909.71	0.0025304
1919.36	0.0024497
1929	0.0023937
1938.65	0.0023508
1948.29	0.0022993
1957.94	0.0022515
1967.58	0.0020556
1977.23	0.002074
1986.87	0.0021622
1996.52	0.0022127
2006.16	0.0022547
2015.81	0.0023471
2025.45	0.0025255
2035.1	0.0027302
2044.74	0.00286
2054.38	0.0025721
2064.03	0.0023562
2073.67	0.0025701
2083.32	0.0026736
2092.96	0.00297
2102.61	0.0033
2112.25	0.0042
2121.9	0.0055
2131.54	0.00778
2141.19	0.01135
2150.83	0.01737
2160.48	0.02582
2170.12	0.03558
2179.77	0.04193
2189.41	0.03858
2199.06	0.02379
2208.7	0.00844
2218.35	0.00318
2227.99	0.00309
2237.64	0.00323
2247.28	0.00361
2256.92	0.00481
2266.57	0.0066
2276.21	0.01033
2285.86	0.01837
2295.5	0.03265
2305.15	0.05068
2314.79	0.06523
2324.44	0.07349
2334.08	0.06753
2343.73	0.07036
2353.37	0.07855
2363.02	0.09304
2372.66	0.07522
2382.31	0.03389
2391.95	0.00638
2401.6	0.0028248
2411.24	0.00306
2420.89	0.0024901
2430.53	0.0027724
2440.18	0.0022531
2449.82	0.00291
2459.47	0.0022409
2469.11	0.00308
2478.75	0.0022678
2488.4	0.00347
2498.04	0.0023276
2507.69	0.00332
2517.33	0.0023264
2526.98	0.0025402
2536.62	0.0024021
2546.27	0.0024676
2555.91	0.0026684
2565.56	0.0027732
2575.2	0.00324
2584.85	0.00294
2594.49	0.0026063
2604.14	0.00296
2613.78	0.002261
2623.43	0.002485
2633.07	0.0028065
2642.72	0.0024075
2652.36	0.0023179
2662.01	0.00349
2671.65	0.0025727
2681.29	0.0026379
2690.94	0.00294
2700.58	0.00352
2710.23	0.00374
2719.87	0.00417
2729.52	0.00455
2739.16	0.00439
2748.81	0.004
2758.45	0.00358
2768.1	0.00343
2777.74	0.00318
2787.39	0.00368
2797.03	0.00416
2806.68	0.00502
2816.32	0.00587
2825.97	0.00629
2835.61	0.00717
2845.26	0.00991
2854.9	0.01213
2864.55	0.01179
2874.19	0.0066
2883.84	0.00566
2893.48	0.00539
2903.12	0.00469
2912.77	0.00443
2922.41	0.00384
2932.06	0.0035
2941.7	0.00337
2951.35	0.00307
2960.99	0.00317
2970.64	0.0027999
2980.28	0.00284
2989.93	0.0027984
2999.57	0.00277
3009.22	0.0025769
3018.86	0.0026571
3028.51	0.0025028
3038.15	0.0026696
3047.8	0.0025957
3057.44	0.00267
3067.09	0.003
3076.73	0.0027521
3086.38	0.0026451
3096.02	0.0026714
3105.67	0.0025471
3115.31	0.0024141
3124.95	0.0023798
3134.6	0.0023414
3144.24	0.0023713
3153.89	0.0020404
3163.53	0.0023906
3173.18	0.0024026
3182.82	0.002501
3192.47	0.0022751
3202.11	0.0023127
3211.76	0.002437
3221.4	0.0025349
3231.05	0.0022763
3240.69	0.0023534
3250.34	0.0023963
3259.98	0.0020989
3269.63	0.002116
3279.27	0.002353
3288.92	0.0020956
3298.56	0.0023507
3308.21	0.0023196
3317.85	0.0023946
3327.49	0.0026448
3337.14	0.00292
3346.78	0.00335
3356.43	0.00393
3366.07	0.00361
3375.72	0.00296
3385.36	0.0025725
3395.01	0.0024892
3404.65	0.0025118
3414.3	0.0027076
3423.94	0.0024964
3433.59	0.0025022
3443.23	0.0022263
3452.88	0.0022267
3462.52	0.0023171
3472.17	0.0020728
3481.81	0.0020712
3491.46	0.0023307
3501.1	0.0022575
3510.75	0.0023554
3520.39	0.0023943
3530.04	0.0024216
3539.68	0.002287
3549.32	0.0025582
3558.97	0.002772
3568.61	0.00332
3578.26	0.00328
3587.9	0.00336
3597.55	0.00347
3607.19	0.00339
3616.84	0.00404
3626.48	0.00473
3636.13	0.00451
3645.77	0.0043
3655.42	0.00354
3665.06	0.00284
3674.71	0.00307
3684.35	0.00335
3694	0.00409
3703.64	0.00395
3713.29	0.00309
3722.93	0.00376
3732.58	0.00449
3742.22	0.00406
3751.86	0.0025359
3761.51	0.0020209
3771.15	0.002114
3780.8	0.0022012
3790.44	0.0023333
3800.09	0.001705
3809.73	0.0021598
3819.38	0.002165
3829.02	0.0019532
3838.67	0.0021309
3848.31	0.0024705
3857.96	0.0024255
3867.6	0.002242
3877.25	0.0023947
3886.89	0.0022985
3896.54	0.0022996
3906.18	0.0024088
3915.83	0.0023144
3925.47	0.0021584
3935.12	0.002466
3944.76	0.0024281
3954.41	0.0019554
3964.05	0.0024219
3973.69	0.0022364
3983.34	0.0021913
3992.98	0.0022751
