Infrared Spectrum: 2-Cyclopentylcyclopentanol
Formula: C 10 H 18 O
CAS: 4884-25-7
State: gas
Instrument: HP-GC/MS/IRD
Origin: NIST Mass Spectrometry Data Center
1/CM	ABSORBANCE
550	0.000168
562	3.2e-05
574	0.000132
586	6e-05
598	0.000164
610	0.000188
622	0.00012
634	0.000112
646	0.000108
658	0.000176
670	6.4e-05
682	8.8e-05
694	7.2e-05
706	0.000104
718	8.8e-05
730	0.0001
742	0.00016
754	0.000184
766	0.00016
778	0.000248
790	0.0003
802	0.000384
814	0.000512
826	0.000704
838	0.001008
850	0.001052
862	0.000828
874	0.00078
886	0.001172
898	0.001324
910	0.001088
922	0.001012
934	0.000956
946	0.00098
958	0.001164
970	0.001612
982	0.002448
994	0.003248
1006	0.003356
1018	0.003388
1030	0.003184
1042	0.002712
1054	0.002564
1066	0.0025
1078	0.00232
1090	0.002116
1102	0.002008
1114	0.002108
1126	0.002332
1138	0.002228
1150	0.0019
1162	0.001752
1174	0.001796
1186	0.001984
1198	0.002104
1210	0.002032
1222	0.00202
1234	0.00198
1246	0.001988
1258	0.00204
1270	0.002116
1282	0.002184
1294	0.0021
1306	0.001928
1318	0.00178
1330	0.001676
1342	0.00154
1354	0.001476
1366	0.001464
1378	0.001368
1390	0.001164
1402	0.00092
1414	0.000796
1426	0.000876
1438	0.001324
1450	0.001952
1462	0.001804
1474	0.001564
1486	0.001084
1498	0.000552
1510	0.000352
1522	0.000236
1534	0.00016
1546	0.000128
1558	0.000116
1570	8e-05
1582	8e-05
1594	4.8e-05
1606	4.4e-05
1618	4.8e-05
1630	3.6e-05
1642	4e-05
1654	2.8e-05
1666	2e-05
1678	2.4e-05
1690	4e-05
1702	5.2e-05
1714	3.2e-05
1726	4.8e-05
1738	0.000148
1750	0.00024
1762	0.000196
1774	6.8e-05
1786	2.4e-05
1798	1.6e-05
1810	1.2e-05
1822	1.2e-05
1834	2e-05
1846	2.4e-05
1858	2.4e-05
1870	4e-05
1882	2.4e-05
1894	8e-06
1906	1.2e-05
1918	4e-06
1930	1.6e-05
1942	8e-06
1954	8e-06
1966	0
1978	2e-05
1990	0
2002	2e-05
2014	1.2e-05
2026	1.2e-05
2038	1.2e-05
2050	2.4e-05
2062	1.2e-05
2074	2.4e-05
2086	3.2e-05
2098	1.6e-05
2110	2e-05
2122	3.2e-05
2134	4.8e-05
2146	4.4e-05
2158	4.8e-05
2170	5.2e-05
2182	6.8e-05
2194	8.8e-05
2206	8e-05
2218	8.4e-05
2230	6.8e-05
2242	7.2e-05
2254	5.2e-05
2266	5.2e-05
2278	5.6e-05
2290	5.6e-05
2302	7.6e-05
2314	0.0001
2326	0.000112
2338	0.000104
2350	0.000104
2362	8.4e-05
2374	4.4e-05
2386	2.8e-05
2398	3.2e-05
2410	4.4e-05
2422	2.8e-05
2434	4.4e-05
2446	2.8e-05
2458	5.2e-05
2470	3.6e-05
2482	6e-05
2494	4.8e-05
2506	5.6e-05
2518	5.6e-05
2530	7.2e-05
2542	6.8e-05
2554	9.2e-05
2566	0.000136
2578	0.000152
2590	0.000172
2602	0.000212
2614	0.000192
2626	0.000204
2638	0.000204
2650	0.00022
2662	0.000236
2674	0.00024
2686	0.000268
2698	0.000276
2710	0.0003
2722	0.000324
2734	0.000364
2746	0.000408
2758	0.000456
2770	0.0005
2782	0.000596
2794	0.000756
2806	0.0009
2818	0.001264
2830	0.001868
2842	0.003128
2854	0.006148
2866	0.011908
2878	0.016332
2890	0.014456
2902	0.013732
2914	0.016008
2926	0.018748
2938	0.02328
2950	0.033612
2962	0.039984
2974	0.02408
2986	0.009272
2998	0.004488
3010	0.002684
3022	0.00178
3034	0.001188
3046	0.00084
3058	0.0006
3070	0.000492
3082	0.00036
3094	0.000292
3106	0.000252
3118	0.000188
3130	0.000176
3142	0.000124
3154	0.000128
3166	9.6e-05
3178	8e-05
3190	9.2e-05
3202	9.2e-05
3214	6.4e-05
3226	7.2e-05
3238	4e-05
3250	4.8e-05
3262	2.8e-05
3274	2.8e-05
3286	2e-05
3298	4e-05
3310	3.2e-05
3322	2.4e-05
3334	4e-05
3346	6e-05
3358	9.6e-05
3370	8.8e-05
3382	0.0001
3394	8.4e-05
3406	0.000116
3418	0.0001
3430	0.000136
3442	0.000112
3454	9.2e-05
3466	0.000132
3478	0.00012
3490	0.00014
3502	0.000152
3514	0.000128
3526	0.000148
3538	7.2e-05
3550	0.000128
3562	0.000144
3574	9.2e-05
3586	0.00014
3598	0.000176
3610	0.000172
3622	0.000296
3634	0.000704
3646	0.001612
3658	0.001872
3670	0.000912
3682	0.000348
3694	0.00026
3706	0.00022
3718	0.000184
3730	0.000212
3742	0.00018
3754	0.000156
3766	0.000192
3778	0.0002
3790	0.000204
3802	0.000204
3814	0.000256
3826	0.000232
3838	0.000236
