Infrared Spectrum: 1-Cyclopentylcyclopentene
Formula: C 10 H 16
CAS: 4884-21-3
State: gas
Instrument: HP-GC/MS/IRD
Origin: NIST Mass Spectrometry Data Center
1/CM	ABSORBANCE
550	0.0002432
562	0
574	5.76e-05
586	5.76e-05
598	3.84e-05
610	4.48e-05
622	7.68e-05
634	4.48e-05
646	5.12e-05
658	7.68e-05
670	0
682	6.4e-05
694	8.32e-05
706	0.00016
718	0.000288
730	0.000288
742	0.0002688
754	0.0003968
766	0.000576
778	0.0010176
790	0.0020096
802	0.0027904
814	0.0025664
826	0.0016704
838	0.0009408
850	0.0005888
862	0.0004096
874	0.0005248
886	0.0009088
898	0.0010816
910	0.0010112
922	0.001056
934	0.001344
946	0.0014912
958	0.0011584
970	0.00064
982	0.0003776
994	0.0002752
1006	0.0004544
1018	0.0010944
1030	0.001696
1042	0.001408
1054	0.0007104
1066	0.0003648
1078	0.0001984
1090	0.0001856
1102	0.0001664
1114	0.0002432
1126	0.0003072
1138	0.0003712
1150	0.000384
1162	0.0004736
1174	0.0004992
1186	0.0006016
1198	0.0008
1210	0.0010624
1222	0.0010624
1234	0.0010368
1246	0.0010688
1258	0.0011264
1270	0.001312
1282	0.0016064
1294	0.0017408
1306	0.0015616
1318	0.0014976
1330	0.0010176
1342	0.0007936
1354	0.0007808
1366	0.0004928
1378	0.000288
1390	0.0002752
1402	0.0004096
1414	0.0005568
1426	0.0008576
1438	0.0016
1450	0.0025024
1462	0.0025408
1474	0.0019712
1486	0.0012608
1498	0.0006592
1510	0.000384
1522	0.0002432
1534	0.0001664
1546	9.6e-05
1558	6.4e-05
1570	9.6e-05
1582	0.0001344
1594	0.0002112
1606	0.0003008
1618	0.000448
1630	0.0007168
1642	0.0009024
1654	0.000512
1666	0.0002048
1678	0.0001472
1690	0.0001088
1702	8.96e-05
1714	6.4e-05
1726	5.12e-05
1738	1.28e-05
1750	4.48e-05
1762	1.28e-05
1774	1.28e-05
1786	0
1798	2.56e-05
1810	3.84e-05
1822	8.32e-05
1834	0.0001152
1846	0.0001344
1858	8.96e-05
1870	5.12e-05
1882	2.56e-05
1894	2.56e-05
1906	2.56e-05
1918	3.2e-05
1930	4.48e-05
1942	3.84e-05
1954	3.84e-05
1966	4.48e-05
1978	3.2e-05
1990	6.4e-06
2002	0
2014	1.92e-05
2026	3.2e-05
2038	3.84e-05
2050	3.84e-05
2062	2.56e-05
2074	4.48e-05
2086	3.84e-05
2098	5.12e-05
2110	5.12e-05
2122	7.04e-05
2134	5.76e-05
2146	7.68e-05
2158	0.0001216
2170	0.0001152
2182	0.0001344
2194	0.000128
2206	0.0001088
2218	0.0001024
2230	0.0001152
2242	0.0001344
2254	0.0001344
2266	0.000128
2278	0.0001088
2290	0.0001024
2302	9.6e-05
2314	0.0001344
2326	0.00016
2338	0.0001472
2350	0.0001472
2362	7.68e-05
2374	5.12e-05
2386	5.76e-05
2398	3.2e-05
2410	3.2e-05
2422	1.92e-05
2434	4.48e-05
2446	0
2458	6.4e-06
2470	7.04e-05
2482	3.84e-05
2494	5.12e-05
2506	5.76e-05
2518	7.68e-05
2530	8.96e-05
2542	0.0001024
2554	0.0001536
2566	0.0002048
2578	0.0002304
2590	0.0002368
2602	0.000192
2614	0.0001792
2626	0.00016
2638	0.0001536
2650	0.000192
2662	0.0001792
2674	0.0002176
2686	0.0002432
2698	0.0003072
2710	0.0003968
2722	0.000448
2734	0.0005632
2746	0.0006208
2758	0.000768
2770	0.0009728
2782	0.0011648
2794	0.0015168
2806	0.0021504
2818	0.0033024
2830	0.005792
2842	0.0122752
2854	0.0224128
2866	0.026688
2878	0.0282048
2890	0.025696
2902	0.0252992
2914	0.0282816
2926	0.033088
2938	0.0408064
2950	0.0564032
2962	0.0625216
2974	0.0370048
2986	0.015584
2998	0.0079872
3010	0.0050816
3022	0.0037248
3034	0.0037504
3046	0.00496
3058	0.0051136
3070	0.0028864
3082	0.0012736
3094	0.0007616
3106	0.0005632
3118	0.000384
3130	0.0002944
3142	0.0002688
3154	0.000224
3166	0.0001984
3178	0.0001792
3190	0.0001728
3202	0.000192
3214	0.0001472
3226	0.0001536
3238	0.0001216
3250	0.0001152
3262	9.6e-05
3274	8.96e-05
3286	7.68e-05
3298	7.68e-05
3310	4.48e-05
3322	0
3334	1.28e-05
3346	1.92e-05
3358	0
3370	4.48e-05
3382	3.84e-05
3394	5.12e-05
3406	5.12e-05
3418	6.4e-05
3430	5.76e-05
3442	6.4e-05
3454	4.48e-05
3466	5.76e-05
3478	7.68e-05
3490	7.68e-05
3502	7.04e-05
3514	8.96e-05
3526	8.96e-05
3538	8.32e-05
3550	0.0001024
3562	7.68e-05
3574	0.0001216
3586	0.0001088
3598	9.6e-05
3610	0.0001024
3622	7.68e-05
3634	0.0001024
3646	0.0001088
3658	0.0001344
3670	9.6e-05
3682	0.0001024
3694	0.0001472
3706	0.0001728
3718	0.0001984
3730	0.0001856
3742	0.0001856
3754	0.0002112
3766	0.0002496
3778	0.0002432
3790	0.0002304
3802	0.0002048
3814	0.0002176
3826	0.0002176
3838	0.0002432
