Infrared Spectrum: 2-Cyclopentylcyclopentanone
Formula: C 10 H 16 O
CAS: 4884-24-6
State: gas
Instrument: HP-GC/MS/IRD
Origin: NIST Mass Spectrometry Data Center
1/CM	ABSORBANCE
550	0.0005499
562	0.0004134
574	0.0004407
586	0.0005382
598	0.0005031
610	0.0004602
622	0.0003354
634	0.0002769
646	0.0001794
658	0.0001209
670	0.0001248
682	1.17e-05
694	3.9e-05
706	4.29e-05
718	8.58e-05
730	0.000117
742	0.000156
754	0.0001716
766	0.0002184
778	0.0003237
790	0.0004914
802	0.0007839
814	0.0012792
826	0.001092
838	0.0007644
850	0.0004212
862	0.0004134
874	0.0004368
886	0.0007098
898	0.0007566
910	0.000741
922	0.0009789
934	0.001326
946	0.001131
958	0.0008502
970	0.0007137
982	0.0008892
994	0.0014547
1006	0.001365
1018	0.0009984
1030	0.0007839
1042	0.0007371
1054	0.0007722
1066	0.0010725
1078	0.001404
1090	0.0014937
1102	0.0018057
1114	0.0023712
1126	0.0031785
1138	0.0052767
1150	0.0075348
1162	0.0061776
1174	0.0031668
1186	0.0016536
1198	0.0012129
1210	0.0009438
1222	0.0008307
1234	0.0010101
1246	0.0012324
1258	0.0015327
1270	0.0017628
1282	0.0011193
1294	0.0008034
1306	0.0011973
1318	0.0013962
1330	0.0010686
1342	0.0010608
1354	0.0013143
1366	0.0010881
1378	0.0005421
1390	0.0005694
1402	0.0011622
1414	0.0024375
1426	0.001833
1438	0.0012714
1450	0.0021255
1462	0.0025038
1474	0.0020397
1486	0.0012402
1498	0.0006123
1510	0.0005148
1522	0.0003354
1534	0.0001989
1546	0.0002301
1558	0.0002574
1570	0.0001053
1582	7.02e-05
1594	8.97e-05
1606	0.0001131
1618	0.0001911
1630	0.0001755
1642	0.0002613
1654	0.0004407
1666	0.0004251
1678	0.0006435
1690	0.0009789
1702	0.0017316
1714	0.0027027
1726	0.0055107
1738	0.015366
1750	0.0281931
1762	0.0227058
1774	0.0077883
1786	0.0025662
1798	0.0014235
1810	0.000897
1822	0.0006006
1834	0.0004017
1846	0.0003042
1858	0.000195
1870	0.0002262
1882	0.0001755
1894	0.0001404
1906	9.75e-05
1918	0.0001092
1930	7.8e-05
1942	7.41e-05
1954	7.8e-05
1966	7.02e-05
1978	6.63e-05
1990	6.24e-05
2002	2.73e-05
2014	3.12e-05
2026	1.95e-05
2038	1.95e-05
2050	5.07e-05
2062	2.34e-05
2074	1.17e-05
2086	2.34e-05
2098	4.68e-05
2110	1.95e-05
2122	1.17e-05
2134	2.34e-05
2146	4.68e-05
2158	4.29e-05
2170	6.24e-05
2182	4.68e-05
2194	8.97e-05
2206	8.58e-05
2218	8.58e-05
2230	8.58e-05
2242	7.8e-05
2254	8.97e-05
2266	9.75e-05
2278	8.58e-05
2290	0.0001053
2302	0.0001209
2314	0.0001209
2326	0.0001404
2338	0.0001443
2350	0.0001209
2362	0.0001482
2374	8.97e-05
2386	7.41e-05
2398	4.68e-05
2410	5.85e-05
2422	5.85e-05
2434	4.29e-05
2446	4.29e-05
2458	3.9e-05
2470	2.73e-05
2482	4.29e-05
2494	3.9e-06
2506	1.95e-05
2518	2.73e-05
2530	4.68e-05
2542	3.51e-05
2554	3.51e-05
2566	7.41e-05
2578	0.0001209
2590	0.0001287
2602	0.0001365
2614	0.0001521
2626	0.0001131
2638	0.0001287
2650	0.0001521
2662	0.0001053
2674	0.0001209
2686	0.0001404
2698	0.0001521
2710	0.0001599
2722	0.000195
2734	0.0002535
2746	0.0002886
2758	0.0003393
2770	0.0004485
2782	0.0005538
2794	0.0007332
2806	0.0009672
2818	0.0013182
2830	0.0018486
2842	0.0031278
2854	0.0054561
2866	0.0102531
2878	0.0163917
2890	0.015171
2902	0.0112632
2914	0.0122655
2926	0.0152412
2938	0.0197106
2950	0.0294099
2962	0.039
2974	0.0308139
2986	0.0126282
2998	0.0049998
3010	0.0028938
3022	0.0020046
3034	0.0014196
3046	0.0009477
3058	0.0006396
3070	0.0004875
3082	0.0003939
3094	0.0003354
3106	0.000273
3118	0.0002262
3130	0.0002145
3142	0.0001716
3154	0.0001404
3166	0.0001443
3178	0.0001287
3190	0.0001014
3202	0.0001014
3214	7.02e-05
3226	7.02e-05
3238	3.9e-05
3250	3.12e-05
3262	2.73e-05
3274	1.56e-05
3286	5.07e-05
3298	1.56e-05
3310	3.12e-05
3322	1.17e-05
3334	3.51e-05
3346	2.34e-05
3358	1.17e-05
3370	6.24e-05
3382	4.68e-05
3394	4.29e-05
3406	6.63e-05
3418	8.19e-05
3430	8.97e-05
3442	0.0001014
3454	0.0001521
3466	0.0002769
3478	0.0005421
3490	0.0005655
3502	0.0004329
3514	0.000234
3526	0.0002184
3538	0.0001755
3550	0.0001404
3562	0.0001287
3574	8.19e-05
3586	0.0001521
3598	5.85e-05
3610	0.000156
3622	7.8e-05
3634	4.29e-05
3646	0.000117
3658	8.58e-05
3670	8.58e-05
3682	6.63e-05
3694	7.41e-05
3706	0.0001092
3718	0.000117
3730	0.0001365
3742	0.0001599
3754	0.0001443
3766	0.0001053
3778	6.24e-05
3790	4.68e-05
3802	0.0001365
3814	0.000156
3826	0.0001365
3838	0.0001482
