Infrared Spectrum: PICRAMIDE
Formula: C6 H4 N4 O6
CAS: 489-98-5
State: SOLID (MINERAL OIL MULL)
Class: COBLENTZ
Instrument: Not specified, most likely a prism, grating, or hybrid spectrometer.
Sampling: TRANSMISSION
Resolution: 4
Origin: WYANDOTTE CHEMICALS CORP., WYANDOTTE, MICHIGAN, USA
MICROMETERS	TRANSMITTANCE
2.027	0.246
2.06796	0.244
2.10891	0.25
2.14987	0.265
2.19082	0.273
2.23178	0.272
2.27274	0.275
2.31369	0.289
2.35465	0.292
2.3956	0.294
2.43656	0.311
2.47751	0.321
2.51847	0.327
2.55943	0.339
2.60038	0.345
2.64134	0.347
2.68229	0.359
2.72325	0.363
2.76421	0.369
2.80516	0.38
2.84612	0.397
2.88707	0.368
2.92803	0.162
2.96899	0.251
3.00994	0.349
3.0509	0.179
3.09185	0.272
3.13281	0.279
3.17376	0.28
3.21472	0.214
3.25568	0.195
3.29663	0.232
3.33759	0.147
3.37854	0.032
3.4195	0.035
3.46046	0.077
3.50141	0.063
3.54237	0.297
3.58332	0.409
3.62428	0.429
3.66523	0.416
3.70619	0.441
3.74715	0.452
3.7881	0.457
3.82906	0.474
3.87001	0.481
3.91097	0.493
3.95193	0.505
3.99288	0.515
4.03384	0.525
4.07479	0.529
4.11575	0.523
4.15671	0.527
4.19766	0.532
4.23862	0.547
4.27957	0.534
4.32053	0.565
4.36148	0.589
4.40244	0.604
4.4434	0.589
4.48435	0.597
4.52531	0.607
4.56626	0.616
4.60722	0.626
4.64818	0.638
4.68913	0.654
4.73009	0.662
4.77104	0.671
4.812	0.674
4.85296	0.684
4.89391	0.695
4.93487	0.708
4.97582	0.717
5.01678	0.727
5.05773	0.731
5.09869	0.736
5.13965	0.75
5.1806	0.76
5.22156	0.765
5.26251	0.794
5.30347	0.803
5.34443	0.777
5.38538	0.765
5.42634	0.825
5.46729	0.844
5.50825	0.869
5.5492	0.886
5.59016	0.885
5.63112	0.917
5.67207	0.933
5.71303	0.928
5.75398	0.946
5.79494	0.965
5.8359	0.957
5.87685	0.929
5.91781	0.863
5.95876	0.76
5.99972	0.508
6.04068	0.273
6.08163	0.053
6.12259	0.054
6.16354	0.136
6.2045	0.089
6.24545	0.051
6.28641	0.085
6.32737	0.32
6.36832	0.4
6.40928	0.275
6.45023	0.188
6.49119	0.061
6.53215	0.054
6.5731	0.102
6.61406	0.239
6.65501	0.33
6.69597	0.429
6.73693	0.402
6.77788	0.188
6.81884	0.107
6.85979	0.106
6.90075	0.222
6.9417	0.282
6.98266	0.184
7.02362	0.099
7.06457	0.268
7.10553	0.489
7.14648	0.53
7.18744	0.44
7.2284	0.287
7.26935	0.191
7.31031	0.167
7.35126	0.097
7.39222	0.058
7.43317	0.126
7.47413	0.095
7.51509	0.097
7.55604	0.078
7.597	0.061
7.63795	0.047
7.67891	0.037
7.71987	0.032
7.76082	0.03
7.80178	0.025
7.84273	0.025
7.88369	0.029
7.92465	0.034
7.9656	0.066
8.00656	0.094
8.04751	0.097
8.08847	0.119
8.12942	0.136
8.17038	0.174
8.21134	0.195
8.25229	0.207
8.29325	0.238
8.3342	0.272
8.37516	0.315
8.41612	0.371
8.45707	0.445
8.49803	0.474
8.53898	0.296
8.57994	0.178
8.6209	0.231
8.66185	0.27
8.70281	0.325
8.74376	0.363
8.78472	0.397
8.82567	0.409
8.86663	0.434
8.90759	0.458
8.94854	0.474
8.9895	0.479
9.03045	0.494
9.07141	0.45
9.11237	0.179
9.15332	0.147
9.19428	0.256
9.23523	0.328
9.27619	0.359
9.31715	0.381
9.3581	0.402
9.39906	0.428
9.44001	0.438
9.48097	0.409
9.52192	0.378
9.56288	0.354
9.60384	0.366
9.64479	0.421
9.68575	0.462
9.7267	0.482
9.76766	0.505
9.80862	0.52
9.84957	0.535
9.89053	0.547
9.93148	0.559
9.97244	0.573
10.0134	0.578
10.0544	0.592
10.0953	0.601
10.1363	0.604
10.1772	0.614
10.2182	0.616
10.2591	0.619
10.3001	0.638
10.341	0.643
10.382	0.652
10.423	0.655
10.4639	0.672
10.5049	0.678
10.5458	0.676
10.5868	0.607
10.6277	0.47
10.6687	0.33
10.7096	0.193
10.7506	0.208
10.7916	0.436
10.8325	0.527
10.8735	0.587
10.9144	0.601
10.9554	0.597
10.9963	0.595
11.0373	0.511
11.0782	0.303
11.1192	0.155
11.1602	0.238
11.2011	0.409
11.2421	0.511
11.283	0.575
11.324	0.611
11.3649	0.645
11.4059	0.66
11.4469	0.676
11.4878	0.684
11.5288	0.696
11.5697	0.698
11.6107	0.703
11.6516	0.71
11.6926	0.72
11.7335	0.724
11.7745	0.727
11.8155	0.727
11.8564	0.731
11.8974	0.734
11.9383	0.738
11.9793	0.743
12.0202	0.736
12.0612	0.633
12.1021	0.549
12.1431	0.674
12.1841	0.708
12.225	0.72
12.266	0.727
12.3069	0.732
12.3479	0.739
12.3888	0.741
12.4298	0.746
12.4707	0.751
12.5117	0.751
12.5527	0.75
12.5936	0.75
12.6346	0.75
12.6755	0.744
12.7165	0.738
12.7574	0.715
12.7984	0.676
12.8393	0.417
12.8803	0.556
12.9213	0.681
12.9622	0.71
13.0032	0.726
13.0441	0.72
13.0851	0.724
13.126	0.715
13.167	0.7
13.208	0.703
13.2489	0.698
13.2899	0.69
13.3308	0.681
13.3718	0.643
13.4127	0.571
13.4537	0.431
13.4946	0.268
13.5356	0.154
13.5766	0.243
13.6175	0.352
13.6585	0.328
13.6994	0.255
13.7404	0.205
13.7813	0.255
13.8223	0.33
13.8632	0.404
13.9042	0.467
13.9452	0.482
13.9861	0.446
14.0271	0.378
14.068	0.311
14.109	0.273
14.1499	0.291
14.1909	0.33
14.2318	0.388
14.2728	0.441
14.3138	0.479
14.3547	0.513
14.3957	0.534
14.4366	0.553
14.4776	0.551
14.5185	0.541
14.5595	0.511
14.6005	0.486
14.6414	0.467
14.6824	0.465
14.7233	0.474
14.7643	0.493
14.8052	0.506
14.8462	0.505
14.8871	0.515
14.9281	0.517
14.9691	0.517
15.01	0.488
15.051	0.464
15.0919	0.448
15.1329	0.467
15.1738	0.486
15.2148	0.5
15.2557	0.508
15.2967	0.498
15.3377	0.488
15.3786	0.484
15.4196	0.474
15.4605	0.467
15.5015	0.441
15.5424	0.436
15.5834	0.422
15.6243	0.417
15.6653	0.41
15.7063	0.412
15.7472	0.4
15.7882	0.395
15.8291	0.39
15.8701	0.386
15.911	0.383
15.952	0.378
