Infrared Spectrum: Methyl thiosalicylate
Formula: C 8 H 8 O 2 S
CAS: 4892-02-8
State: gas
Origin: EPA-IR VAPOR PHASE LIBRARY
1/CM	ABSORBANCE
549.8	0.0009678
559.445	0.0010274
569.09	0.0008336
578.734	0.0007034
588.379	0.0008314
598.024	0.0008834
607.669	0.0007577
617.313	0.0009176
626.958	0.0008122
636.603	0.00167
646.248	0.00643
655.893	0.00863
665.537	0.00367
675.182	0.00336
684.827	0.00618
694.472	0.00954
704.116	0.00913
713.761	0.01234
723.406	0.0253
733.051	0.05083
742.695	0.0671
752.34	0.03069
761.985	0.00881
771.63	0.00443
781.275	0.00322
790.919	0.00261
800.564	0.00354
810.209	0.00623
819.854	0.01092
829.498	0.00968
839.143	0.0043
848.788	0.00267
858.433	0.00232
868.078	0.00234
877.722	0.00289
887.367	0.00406
897.012	0.00571
906.657	0.00633
916.301	0.00482
925.946	0.00312
935.591	0.00397
945.236	0.00634
954.88	0.00813
964.525	0.00873
974.17	0.00706
983.815	0.00484
993.46	0.00376
1003.1	0.00322
1012.75	0.00393
1022.39	0.00608
1032.04	0.01445
1041.68	0.02433
1051.33	0.04373
1060.97	0.07948
1070.62	0.07093
1080.26	0.02774
1089.91	0.02027
1099.55	0.03342
1109.2	0.06525
1118.84	0.07451
1128.49	0.05729
1138.13	0.05792
1147.78	0.05291
1157.42	0.0372
1167.07	0.02817
1176.71	0.02249
1186.36	0.02508
1196	0.02509
1205.64	0.0203
1215.29	0.02136
1224.93	0.03573
1234.58	0.09071
1244.22	0.19301
1253.87	0.21042
1263.51	0.12617
1273.16	0.12237
1282.8	0.15365
1292.45	0.13587
1302.09	0.07888
1311.74	0.03551
1321.38	0.01791
1331.03	0.01209
1340.67	0.00899
1350.32	0.00736
1359.96	0.00649
1369.61	0.00578
1379.25	0.0055
1388.9	0.0055
1398.54	0.00605
1408.18	0.0077
1417.83	0.01282
1427.47	0.02997
1437.12	0.05114
1446.76	0.03873
1456.41	0.02136
1466.05	0.02792
1475.7	0.02574
1485.34	0.01273
1494.99	0.00669
1504.63	0.00476
1514.28	0.00399
1523.92	0.00391
1533.57	0.00423
1543.21	0.00534
1552.86	0.0089
1562.5	0.0149
1572.15	0.01642
1581.79	0.0177
1591.44	0.02155
1601.08	0.01549
1610.73	0.00771
1620.37	0.00542
1630.01	0.00501
1639.66	0.00537
1649.3	0.00597
1658.95	0.00662
1668.59	0.00754
1678.24	0.01013
1687.88	0.01525
1697.53	0.02362
1707.17	0.04338
1716.82	0.08148
1726.46	0.11871
1736.11	0.14028
1745.75	0.11663
1755.4	0.05614
1765.04	0.03336
1774.69	0.02145
1784.33	0.01022
1793.98	0.00509
1803.62	0.00414
1813.27	0.00373
1822.91	0.003
1832.55	0.00282
1842.2	0.00245
1851.84	0.00191
1861.49	0.00169
1871.13	0.00179
1880.78	0.00206
1890.42	0.00225
1900.07	0.00251
1909.71	0.003
1919.36	0.00415
1929	0.00427
1938.65	0.00363
1948.29	0.00333
1957.94	0.00254
1967.58	0.00148
1977.23	0.0011314
1986.87	0.0010828
1996.52	0.00118
2006.16	0.00145
2015.81	0.00166
2025.45	0.00185
2035.1	0.00171
2044.74	0.00154
2054.38	0.00166
2064.03	0.00221
2073.67	0.00258
2083.32	0.00232
2092.96	0.00193
2102.61	0.00176
2112.25	0.00152
2121.9	0.0012
2131.54	0.0010018
2141.19	0.0008727
2150.83	0.0007639
2160.48	0.0008471
2170.12	0.0008886
2179.77	0.0007733
2189.41	0.0007991
2199.06	0.0008552
2208.7	0.0010135
2218.35	0.0010381
2227.99	0.0008806
2237.64	0.0009335
2247.28	0.0009089
2256.92	0.0009686
2266.57	0.0009248
2276.21	0.0010242
2285.86	0.0010428
2295.5	0.0011389
2305.15	0.0011076
2314.79	0.0010681
2324.44	0.00115
2334.08	0.00118
2343.73	0.0010803
2353.37	0.0010427
2363.02	0.0010685
2372.66	0.00115
2382.31	0.0010569
2391.95	0.0010514
2401.6	0.0009238
2411.24	0.0009471
2420.89	0.00089
2430.53	0.0009079
2440.18	0.0008319
2449.82	0.0008813
2459.47	0.0008663
2469.11	0.0008984
2478.75	0.001035
2488.4	0.00136
2498.04	0.00182
2507.69	0.00243
2517.33	0.00306
2526.98	0.00406
2536.62	0.00627
2546.27	0.00977
2555.91	0.01259
2565.56	0.01505
2575.2	0.01598
2584.85	0.01231
2594.49	0.00649
2604.14	0.00351
2613.78	0.0031
2623.43	0.0029
2633.07	0.00228
2642.72	0.00162
2652.36	0.00116
2662.01	0.0008706
2671.65	0.0006854
2681.29	0.0004885
2690.94	0.0005334
2700.58	0.0007484
2710.23	0.0009183
2719.87	0.0010131
2729.52	0.0009597
2739.16	0.0007357
2748.81	0.0007951
2758.45	0.0007389
2768.1	0.0007411
2777.74	0.0005714
2787.39	0.00076
2797.03	0.0009459
2806.68	0.00125
2816.32	0.0014
2825.97	0.00181
2835.61	0.00316
2845.26	0.0062
2854.9	0.00655
2864.55	0.00348
2874.19	0.00292
2883.84	0.00319
2893.48	0.00456
2903.12	0.00568
2912.77	0.0063
2922.41	0.00624
2932.06	0.00624
2941.7	0.00862
2951.35	0.02214
2960.99	0.03807
2970.64	0.02516
2980.28	0.00912
2989.93	0.00846
2999.57	0.0101
3009.22	0.01074
3018.86	0.01041
3028.51	0.00995
3038.15	0.00849
3047.8	0.00786
3057.44	0.01427
3067.09	0.02186
3076.73	0.01884
3086.38	0.01104
3096.02	0.00692
3105.67	0.00487
3115.31	0.00367
3124.95	0.00341
3134.6	0.00271
3144.24	0.00195
3153.89	0.00137
3163.53	0.0010349
3173.18	0.0010614
3182.82	0.0006469
3192.47	0.0005608
3202.11	0.0005491
3211.76	0.0003325
3221.4	0.0003643
3231.05	0.00013382
3240.69	0.0002125
3250.34	0.0002843
3259.98	0.0003925
3269.63	0.0004204
3279.27	0.0003833
3288.92	0.000413
3298.56	0.000331
3308.21	0.0003424
3317.85	0.0003691
3327.49	0.0004402
3337.14	0.0003716
3346.78	0.0004581
3356.43	0.000332
3366.07	0.0003244
3375.72	0.0004329
3385.36	0.0004336
3395.01	0.0006231
3404.65	0.0007855
3414.3	0.0010296
3423.94	0.0011172
3433.59	0.0015
3443.23	0.00174
3452.88	0.00186
3462.52	0.00204
3472.17	0.00165
3481.81	0.00137
3491.46	0.0011087
3501.1	0.0009264
3510.75	0.000848
3520.39	0.0006877
3530.04	0.0005052
3539.68	0.0003192
3549.32	0.0002577
3558.97	0.0003581
3568.61	0.000149938
3578.26	0.0003958
3587.9	0.00019552
3597.55	0.00014557
3607.19	0.00018966
3616.84	0.0001501
3626.48	0.0003005
3636.13	0.000148414
3645.77	0.0003254
3655.42	0.0002871
3665.06	0.00019296
3674.71	0.0002929
3684.35	0.0003289
3694	0.0004299
3703.64	0.00021212
3713.29	0.0002477
3722.93	0.00019344
3732.58	0.0003245
3742.22	0.0004658
3751.86	0.000429
3761.51	0.000323
3771.15	0.0002574
3780.8	0.0003194
3790.44	0.0004468
3800.09	0.0005719
3809.73	0.0002572
3819.38	0.0003605
3829.02	0.0002657
3838.67	0.00020272
3848.31	0.0002595
3857.96	0.0003081
3867.6	0.00019982
3877.25	0.0002369
3886.89	0.000496
3896.54	0.0003167
3906.18	0.0002648
3915.83	0.0003739
3925.47	0.00023364
3935.12	0.0004057
3944.76	0.000147114
3954.41	0.00018446
3964.05	0.00021434
3973.69	0.000159
3983.34	0.0003263
3992.98	0.00013306
