Infrared Spectrum: 5-Chloro-1-methyl-4-nitroimidazole
Formula: C 4 H 4 Cl N 3 O 2
CAS: 4897-25-0
State: gas
Instrument: HP-GC/MS/IRD
Origin: NIST Mass Spectrometry Data Center
1/CM	ABSORBANCE
550	0.0001695
562	9e-05
574	5.7e-05
586	2.1e-05
598	8.25e-05
610	0.0001215
622	0.0003345
634	0.000678
646	0.000828
658	0.0008445
670	0.000303
682	0.0001635
694	0.0002205
706	0.0001605
718	0.0002835
730	0.0002385
742	0.0001575
754	0.0003
766	0.0002655
778	0.000258
790	0.000516
802	0.0011415
814	0.002382
826	0.005976
838	0.0032925
850	0.000309
862	0.000192
874	0.0001635
886	0.00015
898	0.000117
910	5.25e-05
922	8.55e-05
934	7.5e-05
946	0.0001065
958	9.15e-05
970	0.000153
982	0.000243
994	0.0007605
1006	0.0012975
1018	0.0008865
1030	0.0002265
1042	0.000186
1054	0.000219
1066	0.0001545
1078	0.000123
1090	0.0001335
1102	0.000243
1114	0.000615
1126	0.0014595
1138	0.001569
1150	0.00066
1162	0.0002325
1174	0.000159
1186	0.0001755
1198	0.0001995
1210	0.0005115
1222	0.0009735
1234	0.000528
1246	0.0003135
1258	0.000624
1270	0.0019605
1282	0.004989
1294	0.0044085
1306	0.001233
1318	0.0006885
1330	0.0014295
1342	0.003579
1354	0.0063555
1366	0.0054615
1378	0.0021825
1390	0.0011955
1402	0.0010215
1414	0.0012105
1426	0.0013695
1438	0.0009945
1450	0.0008865
1462	0.0011745
1474	0.001998
1486	0.0048795
1498	0.006759
1510	0.0038415
1522	0.002643
1534	0.00303
1546	0.007503
1558	0.0147375
1570	0.0116265
1582	0.003507
1594	0.002073
1606	0.0020325
1618	0.0013275
1630	0.000537
1642	0.0002505
1654	0.0001275
1666	0.0001245
1678	0.000111
1690	9e-05
1702	5.4e-05
1714	6.75e-05
1726	0.000105
1738	8.85e-05
1750	9.15e-05
1762	9.75e-05
1774	3.45e-05
1786	5.25e-05
1798	4.8e-05
1810	4.2e-05
1822	3.45e-05
1834	4.2e-05
1846	3.15e-05
1858	7.65e-05
1870	7.35e-05
1882	7.8e-05
1894	7.65e-05
1906	6.15e-05
1918	3.6e-05
1930	2.1e-05
1942	4.65e-05
1954	4.05e-05
1966	1.35e-05
1978	3e-05
1990	3.15e-05
2002	4.95e-05
2014	5.1e-05
2026	6.75e-05
2038	4.5e-05
2050	4.35e-05
2062	4.8e-05
2074	2.4e-05
2086	2.7e-05
2098	1.5e-06
2110	2.85e-05
2122	1.8e-05
2134	9e-06
2146	2.25e-05
2158	3e-05
2170	1.65e-05
2182	4.05e-05
2194	3e-05
2206	1.5e-05
2218	1.2e-05
2230	3.75e-05
2242	1.2e-05
2254	1.35e-05
2266	1.65e-05
2278	3.15e-05
2290	3.3e-05
2302	1.95e-05
2314	4.8e-05
2326	3.15e-05
2338	9e-06
2350	3.6e-05
2362	2.85e-05
2374	4.65e-05
2386	9.75e-05
2398	0.0001035
2410	6.9e-05
2422	4.05e-05
2434	4.65e-05
2446	6.45e-05
2458	5.7e-05
2470	3.75e-05
2482	5.4e-05
2494	6e-05
2506	5.85e-05
2518	7.05e-05
2530	0.0001005
2542	9.15e-05
2554	0.0001455
2566	0.0001425
2578	0.0001335
2590	9.6e-05
2602	6.3e-05
2614	6.45e-05
2626	9e-05
2638	0.000132
2650	0.000123
2662	0.0001455
2674	0.0001575
2686	0.0002085
2698	0.000225
2710	0.0001815
2722	0.000174
2734	0.0001335
2746	9.9e-05
2758	0.000126
2770	0.0001515
2782	0.0001635
2794	0.0001815
2806	0.0001725
2818	0.000198
2830	0.0002535
2842	0.000345
2854	0.0003525
2866	0.0003405
2878	0.000387
2890	0.000432
2902	0.0004335
2914	0.0004755
2926	0.000441
2938	0.0004755
2950	0.0005985
2962	0.0010035
2974	0.0009
2986	0.0004635
2998	0.0003285
3010	0.0003405
3022	0.0002895
3034	0.0001995
3046	0.0001455
3058	0.000102
3070	0.0001635
3082	0.0001455
3094	0.0001515
3106	0.000162
3118	0.0001425
3130	0.000147
3142	0.000108
3154	6.45e-05
3166	7.65e-05
3178	8.55e-05
3190	6.75e-05
3202	0.000108
3214	7.05e-05
3226	7.5e-05
3238	4.95e-05
3250	4.35e-05
3262	9e-05
3274	0.000129
3286	8.25e-05
3298	6.15e-05
3310	6.75e-05
3322	8.4e-05
3334	0.0001065
3346	6.75e-05
3358	3.9e-05
3370	8.25e-05
3382	2.25e-05
3394	5.4e-05
3406	9.3e-05
3418	7.2e-05
3430	6.75e-05
3442	0.00012
3454	5.7e-05
3466	8.7e-05
3478	7.95e-05
3490	8.55e-05
3502	3.15e-05
3514	3e-05
3526	7.05e-05
3538	4.65e-05
3550	7.95e-05
3562	0.000117
3574	8.85e-05
3586	5.4e-05
3598	0.0001125
3610	1.95e-05
3622	0.000123
3634	0.0001305
3646	4.05e-05
3658	0.000114
3670	7.65e-05
3682	0.000114
3694	0.000111
3706	2.4e-05
3718	6.6e-05
3730	6.15e-05
3742	3.15e-05
3754	0
3766	0.0001125
3778	0.000126
3790	0.000132
3802	8.55e-05
3814	5.55e-05
3826	9.75e-05
3838	5.1e-05
