Infrared Spectrum: 2,5-Dihydroxyacetophenone
Formula: C 8 H 8 O 3
CAS: 490-78-8
State: gas
Instrument: HP-GC/MS/IRD
Origin: NIST Mass Spectrometry Data Center
1/CM	ABSORBANCE
550	0.00039
562	4.16e-05
574	0.0001352
586	0.0002392
598	0.0004836
610	0.0008762
622	0.0022828
634	0.0049686
646	0.0033566
658	0.0010582
670	0.0008632
682	0.0011414
694	0.0018278
706	0.0025922
718	0.0021944
730	0.0022438
742	0.0032006
754	0.0036712
766	0.0033124
778	0.004966
790	0.0067626
802	0.0027482
814	0.0024258
826	0.0034814
838	0.0029666
850	0.0019916
862	0.0017966
874	0.0009412
886	0.0004264
898	0.0008424
910	0.0031824
922	0.002548
934	0.0007826
946	0.0018824
958	0.0034034
970	0.0021398
982	0.000611
994	0.0002158
1006	0.0001664
1018	0.0003614
1030	0.0004056
1042	0.0003016
1054	0.0003978
1066	0.000416
1078	0.0004992
1090	0.0006604
1102	0.0009256
1114	0.0011622
1126	0.0019214
1138	0.0031798
1150	0.0062504
1162	0.0169234
1174	0.0254384
1186	0.0204048
1198	0.0190112
1210	0.0204542
1222	0.0127946
1234	0.0060606
1246	0.006097
1258	0.0076908
1270	0.008177
1282	0.015093
1294	0.026
1306	0.018083
1318	0.0099814
1330	0.0083486
1342	0.0056186
1354	0.0063804
1366	0.0099424
1378	0.009412
1390	0.0060268
1402	0.0052208
1414	0.0058084
1426	0.0069706
1438	0.007085
1450	0.0065546
1462	0.0084864
1474	0.0162786
1486	0.0232492
1498	0.0163722
1510	0.0064532
1522	0.003055
1534	0.002392
1546	0.002392
1558	0.0025376
1570	0.0035204
1582	0.0058422
1594	0.0059748
1606	0.0040534
1618	0.0049114
1630	0.0067912
1642	0.0098046
1654	0.0209066
1666	0.0223548
1678	0.0082602
1690	0.0024726
1702	0.0012584
1714	0.0010296
1726	0.0011232
1738	0.0008866
1750	0.0005902
1762	0.000416
1774	0.0002938
1786	0.0001976
1798	0.0001794
1810	0.0001352
1822	0.0001066
1834	9.88e-05
1846	0.0001144
1858	0.000195
1870	0.000208
1882	0.000234
1894	0.000273
1906	0.0001664
1918	5.46e-05
1930	2.08e-05
1942	3.9e-05
1954	8.84e-05
1966	0.0001196
1978	8.32e-05
1990	8.32e-05
2002	0.0001014
2014	9.1e-05
2026	0.000104
2038	0.0001196
2050	0.0001456
2062	0.0001482
2074	0.0001274
2086	9.1e-05
2098	7.28e-05
2110	5.46e-05
2122	8.32e-05
2134	6.5e-05
2146	1.04e-05
2158	2.34e-05
2170	1.56e-05
2182	3.64e-05
2194	7.8e-06
2206	2.6e-05
2218	1.82e-05
2230	3.38e-05
2242	3.38e-05
2254	8.06e-05
2266	7.28e-05
2278	0.0001118
2290	0.0001144
2302	4.68e-05
2314	4.68e-05
2326	0.0001014
2338	0.0001248
2350	0.0001378
2362	0.000143
2374	0.0002288
2386	0.0003016
2398	0.000273
2410	0.0002132
2422	0.0001924
2434	0.0001794
2446	0.0002158
2458	0.0001872
2470	0.000221
2482	0.0001846
2494	0.000156
2506	0.000182
2518	0.000182
2530	0.0002782
2542	0.0002808
2554	0.0003172
2566	0.0002548
2578	0.00026
2590	0.000299
2602	0.0002964
2614	0.0003562
2626	0.0003796
2638	0.0003354
2650	0.0003276
2662	0.0004004
2674	0.0004498
2686	0.0004524
2698	0.0004472
2710	0.0004316
2722	0.0004238
2734	0.0004706
2746	0.0005044
2758	0.000468
2770	0.0004498
2782	0.000455
2794	0.000507
2806	0.0005044
2818	0.0005044
2830	0.0004966
2842	0.0005512
2854	0.0005356
2866	0.0005278
2878	0.0005278
2890	0.000572
2902	0.0006448
2914	0.0006812
2926	0.0007566
2938	0.0009178
2950	0.0009256
2962	0.0009724
2974	0.0011284
2986	0.0012012
2998	0.0013286
3010	0.0017056
3022	0.0022412
3034	0.0025064
3046	0.002717
3058	0.0027014
3070	0.0026338
3082	0.002574
3094	0.0023166
3106	0.0023036
3118	0.0024128
3130	0.0023218
3142	0.002314
3154	0.0022802
3166	0.0022256
3178	0.0022438
3190	0.0021632
3202	0.0021294
3214	0.0021658
3226	0.0020358
3238	0.001989
3250	0.001924
3262	0.0019188
3274	0.0019318
3286	0.00195
3298	0.0019032
3310	0.001872
3322	0.0017862
3334	0.0016094
3346	0.0014872
3358	0.0013286
3370	0.0011726
3382	0.0011414
3394	0.001066
3406	0.0011258
3418	0.0010998
3430	0.000871
3442	0.000897
3454	0.0007618
3466	0.0007124
3478	0.0006058
3490	0.000533
3502	0.0004706
3514	0.0003666
3526	0.0003562
3538	0.0002912
3550	0.0002236
3562	0.0001872
3574	0.0002028
3586	0.0001768
3598	0.0001924
3610	0.00026
3622	0.000481
3634	0.001209
3646	0.004433
3658	0.0077558
3670	0.003393
3682	0.0003744
3694	7.8e-05
3706	1.56e-05
3718	5.2e-06
3730	7.8e-06
3742	5.2e-06
3754	4.16e-05
3766	4.68e-05
3778	2.6e-06
3790	5.2e-05
3802	0.0001014
3814	0.0001612
3826	0.000104
3838	7.02e-05
