Infrared Spectrum: 3,4-Pyridinedicarboxylic acid
Formula: C 7 H 5 N O 4
CAS: 490-11-9
State: gas
Origin: EPA-IR VAPOR PHASE LIBRARY
1/CM	ABSORBANCE
549.8	0.001895
559.445	0.001645
569.09	0.0006444
578.734	0.0006379
588.379	0.0007306
598.024	0.0005353
607.669	0.0007122
617.313	0.0005848
626.958	0.0006111
636.603	0.0008403
646.248	0.0005887
655.893	0.0007136
665.537	0.0012743
675.182	0.002315
684.827	0.002675
694.472	0.0011279
704.116	0.001053
713.761	0.002335
723.406	0.006105
733.051	0.002985
742.695	0.001425
752.34	0.0009451
761.985	0.0009827
771.63	0.0006764
781.275	0.0006151
790.919	0.0006118
800.564	0.0005065
810.209	0.0004493
819.854	0.0006073
829.498	0.001555
839.143	0.002415
848.788	0.002805
858.433	0.002255
868.078	0.002895
877.722	0.005455
887.367	0.010265
897.012	0.017405
906.657	0.021875
916.301	0.017355
925.946	0.005935
935.591	0.001307
945.236	0.0009127
954.88	0.0009489
964.525	0.0005913
974.17	0.0007037
983.815	0.0004739
993.46	0.00041291
1003.1	0.0005216
1012.75	0.00040481
1022.39	0.0005176
1032.04	0.00041232
1041.68	0.00032057
1051.33	0.000686
1060.97	0.0007184
1070.62	0.0008296
1080.26	0.0009763
1089.91	0.002495
1099.55	0.004545
1109.2	0.004805
1118.84	0.003425
1128.49	0.002065
1138.13	0.001585
1147.78	0.001355
1157.42	0.0006312
1167.07	0.0010984
1176.71	0.0009459
1186.36	0.001785
1196	0.002575
1205.64	0.004475
1215.29	0.005805
1224.93	0.004315
1234.58	0.002755
1244.22	0.001825
1253.87	0.002425
1263.51	0.006645
1273.16	0.016495
1282.8	0.017125
1292.45	0.006525
1302.09	0.002505
1311.74	0.001545
1321.38	0.0009714
1331.03	0.0007502
1340.67	0.0007255
1350.32	0.0007454
1359.96	0.0008185
1369.61	0.0008524
1379.25	0.000978
1388.9	0.000925
1398.54	0.0010965
1408.18	0.001955
1417.83	0.002835
1427.47	0.002615
1437.12	0.0012355
1446.76	0.000919
1456.41	0.0009164
1466.05	0.0007963
1475.7	0.0008235
1485.34	0.0005738
1494.99	0.0005313
1504.63	0.0005841
1514.28	0.0006157
1523.92	0.000687
1533.57	0.0006312
1543.21	0.0005543
1552.86	0.0005392
1562.5	0.0006294
1572.15	0.0010883
1581.79	0.001645
1591.44	0.002975
1601.08	0.003855
1610.73	0.002015
1620.37	0.0009073
1630.01	0.00071
1639.66	0.0007797
1649.3	0.0007904
1658.95	0.000792
1668.59	0.0008893
1678.24	0.0008007
1687.88	0.0007442
1697.53	0.0007836
1707.17	0.0008944
1716.82	0.0008576
1726.46	0.000936
1736.11	0.0010522
1745.75	0.001465
1755.4	0.002295
1765.04	0.004015
1774.69	0.006355
1784.33	0.009415
1793.98	0.018985
1803.62	0.037455
1813.27	0.044095
1822.91	0.027385
1832.55	0.009495
1842.2	0.004285
1851.84	0.003425
1861.49	0.007325
1871.13	0.012645
1880.78	0.010775
1890.42	0.002935
1900.07	0.001735
1909.71	0.001695
1919.36	0.001435
1929	0.0010763
1938.65	0.0008915
1948.29	0.0009637
1957.94	0.0009757
1967.58	0.0009544
1977.23	0.0009004
1986.87	0.0008999
1996.52	0.0009534
2006.16	0.0009696
2015.81	0.0009012
2025.45	0.0008696
2035.1	0.0007364
2044.74	0.0007022
2054.38	0.0005979
2064.03	0.0006589
2073.67	0.0005594
2083.32	0.0005168
2092.96	0.0005252
2102.61	0.0005326
2112.25	0.0005592
2121.9	0.0005859
2131.54	0.0005308
2141.19	0.0005159
2150.83	0.0005436
2160.48	0.0005654
2170.12	0.0007996
2179.77	0.0007117
2189.41	0.0007096
2199.06	0.0006452
2208.7	0.00036443
2218.35	0.0004169
2227.99	0.0005223
2237.64	0.000507
2247.28	0.0004324
2256.92	0.0004435
2266.57	0.0005313
2276.21	0.0004502
2285.86	0.00036494
2295.5	0.0005091
2305.15	0.0005575
2314.79	0.0005015
2324.44	0.00041098
2334.08	0.0005008
2343.73	0.0005126
2353.37	0.0005222
2363.02	0.000471
2372.66	0.0004906
2382.31	0.0005295
2391.95	0.0005108
2401.6	0.000534
2411.24	0.0005144
2420.89	0.0005626
2430.53	0.000587
2440.18	0.000517
2449.82	0.0004585
2459.47	0.0004945
2469.11	0.00037589
2478.75	0.0004553
2488.4	0.0005198
2498.04	0.0005489
2507.69	0.0004476
2517.33	0.0003877
2526.98	0.0004532
2536.62	0.0004581
2546.27	0.0005233
2555.91	0.0004577
2565.56	0.0004806
2575.2	0.0005133
2584.85	0.0006007
2594.49	0.0004576
2604.14	0.00041761
2613.78	0.00033816
2623.43	0.00037846
2633.07	0.00037878
2642.72	0.000267
2652.36	0.0004108
2662.01	0.000327077
2671.65	0.00039895
2681.29	0.00032111
2690.94	0.0005758
2700.58	0.0005839
2710.23	0.0004387
2719.87	0.00033969
2729.52	0.0005209
2739.16	0.0004376
2748.81	0.0005184
2758.45	0.00041446
2768.1	0.0006309
2777.74	0.0005205
2787.39	0.0005516
2797.03	0.0005675
2806.68	0.0005055
2816.32	0.0004716
2825.97	0.0004621
2835.61	0.0004875
2845.26	0.0003707
2854.9	0.0005802
2864.55	0.0004421
2874.19	0.000206
2883.84	0.00031696
2893.48	0.0005396
2903.12	0.0002863
2912.77	0.0004424
2922.41	0.000473
2932.06	0.0005778
2941.7	0.000443
2951.35	0.00035872
2960.99	0.0005161
2970.64	0.0004519
2980.28	0.0005511
2989.93	0.0006639
2999.57	0.0005304
3009.22	0.0004723
3018.86	0.00040556
3028.51	0.0005609
3038.15	0.0006767
3047.8	0.00103
3057.44	0.0012129
3067.09	0.0012378
3076.73	0.0007748
3086.38	0.0007535
3096.02	0.0005728
3105.67	0.0006432
3115.31	0.0004351
3124.95	0.0006985
3134.6	0.000175
3144.24	0.0007143
3153.89	0.00038123
3163.53	0.0003003
3173.18	0.0006873
3182.82	0.00036129
3192.47	0.0006711
3202.11	0.0006268
3211.76	0.00031842
3221.4	0.0004798
3231.05	0.0002751
3240.69	0.00038408
3250.34	0.00040942
3259.98	0.0004067
3269.63	0.00041114
3279.27	0.0004706
3288.92	0.00041902
3298.56	0.00041989
3308.21	0.0002382
3317.85	0.0005014
3327.49	0.0006651
3337.14	0.0005443
3346.78	0.0005
3356.43	0.00035875
3366.07	0.0004056
3375.72	0.00036641
3385.36	0.0004023
3395.01	0.0005053
3404.65	0.00038645
3414.3	0.0005956
3423.94	0.0005529
3433.59	0.0005235
3443.23	0.0005174
3452.88	0.0004458
3462.52	0.00041746
3472.17	0.0005258
3481.81	0.0005403
3491.46	0.000218
3501.1	0.0005438
3510.75	0.0005098
3520.39	0.0005063
3530.04	0.0005578
3539.68	0.0003038
3549.32	0.0005173
3558.97	0.00039428
3568.61	0.000457
3578.26	0.0007378
3587.9	0.0006195
3597.55	0.000676
3607.19	0.0008274
3616.84	0.0007354
3626.48	0.0008931
3636.13	0.0006657
3645.77	0.0008951
3655.42	0.0009691
3665.06	0.0008056
3674.71	0.0009473
3684.35	0.0007598
3694	0.000632
3703.64	0.0007473
3713.29	0.0004831
3722.93	0.0008043
3732.58	0.0004372
3742.22	0.0006438
3751.86	0.0002656
3761.51	0.0002967
3771.15	0.0006266
3780.8	0.00038933
3790.44	0.00034633
3800.09	0.00040852
3809.73	0
3819.38	0.0004022
3829.02	0.0004659
3838.67	0.00041874
3848.31	0.0005874
3857.96	0.0003854
3867.6	0.0006456
3877.25	0.0006224
3886.89	0.0003351
3896.54	0.0004966
3906.18	0.00032232
3915.83	0.00037584
3925.47	0.00041721
3935.12	0.00035491
3944.76	0.0007481
3954.41	0.0005456
3964.05	0.0006865
3973.69	0.0005986
3983.34	0.0004737
3992.98	0.0005541
