Infrared Spectrum: ALLOXAZINE
Formula: C10 H6 N4 O2
CAS: 490-59-5
State: SOLID (MINERAL OIL MULL)
Class: COBLENTZ
Instrument: Not specified, most likely a prism, grating, or hybrid spectrometer.
Sampling: TRANSMISSION
Resolution: 4
Origin: DOW CHEMICAL COMPANY
MICROMETERS	TRANSMITTANCE
2.027	0.604
2.06808	0.609
2.10915	0.621
2.15023	0.631
2.19131	0.638
2.23238	0.639
2.27346	0.648
2.31453	0.655
2.35561	0.663
2.39669	0.677
2.43776	0.686
2.47884	0.697
2.51992	0.708
2.56099	0.721
2.60207	0.733
2.64314	0.738
2.68422	0.747
2.7253	0.745
2.76637	0.728
2.80745	0.718
2.84853	0.703
2.8896	0.687
2.93068	0.691
2.97175	0.689
3.01283	0.575
3.05391	0.467
3.09498	0.38
3.13606	0.394
3.17714	0.397
3.21821	0.377
3.25929	0.445
3.30036	0.477
3.34144	0.36
3.38252	0.114
3.42359	0.247
3.46467	0.295
3.50575	0.605
3.54682	0.684
3.5879	0.721
3.62898	0.74
3.67005	0.75
3.71113	0.761
3.7522	0.771
3.79328	0.788
3.83436	0.802
3.87543	0.81
3.91651	0.822
3.95759	0.827
3.99866	0.834
4.03974	0.841
4.08081	0.846
4.12189	0.853
4.16297	0.858
4.20404	0.865
4.24512	0.873
4.2862	0.882
4.32727	0.882
4.36835	0.885
4.40942	0.889
4.4505	0.894
4.49158	0.897
4.53265	0.899
4.57373	0.899
4.61481	0.902
4.65588	0.906
4.69696	0.909
4.73803	0.911
4.77911	0.912
4.82019	0.914
4.86126	0.916
4.90234	0.924
4.94342	0.928
4.98449	0.924
5.02557	0.921
5.06665	0.935
5.10772	0.938
5.1488	0.941
5.18987	0.95
5.23095	0.947
5.27203	0.948
5.3131	0.945
5.35418	0.945
5.39526	0.95
5.43633	0.948
5.47741	0.924
5.51848	0.911
5.55956	0.895
5.60064	0.87
5.64171	0.837
5.68279	0.732
5.72387	0.482
5.76494	0.249
5.80602	0.307
5.84709	0.187
5.88817	0.127
5.92925	0.186
5.97032	0.411
6.0114	0.52
6.05248	0.617
6.09355	0.672
6.13463	0.68
6.1757	0.66
6.21678	0.725
6.25786	0.658
6.29893	0.375
6.34001	0.527
6.38109	0.653
6.42216	0.735
6.46324	0.771
6.50432	0.8
6.54539	0.802
6.58647	0.747
6.62754	0.65
6.66862	0.617
6.7097	0.61
6.75077	0.622
6.79185	0.53
6.83293	0.419
6.874	0.424
6.91508	0.517
6.95615	0.638
6.99723	0.691
7.03831	0.708
7.07938	0.684
7.12046	0.6
7.16154	0.418
7.20261	0.513
7.24369	0.568
7.28476	0.5
7.32584	0.469
7.36692	0.665
7.40799	0.697
7.44907	0.539
7.49015	0.52
7.53122	0.578
7.5723	0.564
7.61337	0.619
7.65445	0.699
7.69553	0.73
7.7366	0.696
7.77768	0.592
7.81876	0.443
7.85983	0.534
7.90091	0.733
7.94198	0.744
7.98306	0.72
8.02414	0.767
8.06521	0.812
8.10629	0.784
8.14737	0.747
8.18844	0.752
8.22952	0.774
8.2706	0.813
8.31167	0.843
8.35275	0.863
8.39382	0.872
8.4349	0.877
8.47598	0.88
8.51705	0.88
8.55813	0.875
8.59921	0.854
8.64028	0.813
8.68136	0.771
8.72243	0.766
8.76351	0.807
8.80459	0.861
8.84566	0.883
8.88674	0.89
8.92782	0.892
8.96889	0.883
9.00997	0.875
9.05104	0.883
9.09212	0.897
9.1332	0.902
9.17427	0.906
9.21535	0.909
9.25643	0.914
9.2975	0.916
9.33858	0.919
9.37965	0.921
9.42073	0.923
9.46181	0.924
9.50288	0.926
9.54396	0.924
9.58504	0.911
9.62611	0.87
9.66719	0.856
9.70827	0.885
9.74934	0.906
9.79042	0.907
9.83149	0.882
9.87257	0.887
9.91365	0.911
9.95472	0.928
9.9958	0.93
10.0369	0.928
10.078	0.902
10.119	0.894
10.1601	0.906
10.2012	0.919
10.2423	0.921
10.2833	0.921
10.3244	0.921
10.3655	0.924
10.4066	0.926
10.4476	0.93
10.4887	0.933
10.5298	0.936
10.5709	0.936
10.6119	0.935
10.653	0.93
10.6941	0.924
10.7352	0.923
10.7762	0.921
10.8173	0.919
10.8584	0.904
10.8995	0.868
10.9406	0.854
10.9816	0.885
11.0227	0.899
11.0638	0.901
11.1049	0.897
11.1459	0.882
11.187	0.873
11.2281	0.868
11.2692	0.86
11.3102	0.832
11.3513	0.803
11.3924	0.781
11.4335	0.757
11.4745	0.745
11.5156	0.742
11.5567	0.759
11.5978	0.79
11.6389	0.813
11.6799	0.822
11.721	0.825
11.7621	0.824
11.8032	0.82
11.8442	0.815
11.8853	0.812
11.9264	0.805
11.9675	0.798
12.0085	0.791
12.0496	0.786
12.0907	0.781
12.1318	0.776
12.1728	0.764
12.2139	0.752
12.255	0.733
12.2961	0.665
12.3371	0.675
12.3782	0.708
12.4193	0.711
12.4604	0.699
12.5015	0.686
12.5425	0.663
12.5836	0.627
12.6247	0.604
12.6658	0.559
12.7068	0.494
12.7479	0.431
12.789	0.406
12.8301	0.399
12.8711	0.43
12.9122	0.464
12.9533	0.489
12.9944	0.513
13.0354	0.552
13.0765	0.587
13.1176	0.604
13.1587	0.634
13.1997	0.662
13.2408	0.68
13.2819	0.703
13.323	0.721
13.3641	0.745
13.4051	0.759
13.4462	0.773
13.4873	0.779
13.5284	0.784
13.5694	0.784
13.6105	0.779
13.6516	0.769
13.6927	0.761
13.7337	0.754
13.7748	0.747
13.8159	0.744
13.857	0.737
13.898	0.73
13.9391	0.721
13.9802	0.709
14.0213	0.687
14.0624	0.655
14.1034	0.629
14.1445	0.622
14.1856	0.633
14.2267	0.645
14.2677	0.65
14.3088	0.656
14.3499	0.665
14.391	0.67
14.432	0.675
14.4731	0.677
14.5142	0.679
14.5553	0.675
14.5963	0.662
14.6374	0.65
14.6785	0.638
14.7196	0.627
14.7606	0.624
14.8017	0.624
14.8428	0.624
14.8839	0.624
14.925	0.622
14.966	0.617
15.0071	0.61
15.0482	0.602
15.0893	0.593
15.1303	0.587
15.1714	0.58
15.2125	0.575
15.2536	0.568
15.2946	0.563
15.3357	0.554
15.3768	0.546
15.4179	0.539
15.4589	0.529
15.5	0.52
15.5411	0.511
15.5822	0.503
15.6233	0.496
15.6643	0.489
15.7054	0.481
15.7465	0.474
15.7876	0.47
15.8286	0.469
15.8697	0.469
