Infrared Spectrum: 1,8-Nonadiene
Formula: C 9 H 16
CAS: 4900-30-5
State: gas
Instrument: HP-GC/MS/IRD
Origin: NIST Mass Spectrometry Data Center
1/CM	ABSORBANCE
550	0.0003888
562	0.0001368
574	2.4e-05
586	8.64e-05
598	0.0002208
610	0.0005496
622	0.0010176
634	0.0009936
646	0.0005976
658	0.0003912
670	0.0001968
682	6.96e-05
694	0.0001464
706	0.00012
718	0.0002256
730	0.0003408
742	0.0002664
754	0.0001632
766	0.0001272
778	0.0001104
790	6.72e-05
802	6.72e-05
814	0.000108
826	0.0002736
838	0.0004104
850	0.0006384
862	0.0009096
874	0.001296
886	0.0020544
898	0.0042672
910	0.008556
922	0.0070416
934	0.003468
946	0.0021648
958	0.001836
970	0.001968
982	0.003012
994	0.0039384
1006	0.0026232
1018	0.00156
1030	0.0010344
1042	0.0006864
1054	0.0004584
1066	0.0003672
1078	0.0002592
1090	0.0002304
1102	0.0002088
1114	0.0002184
1126	0.000192
1138	0.0001896
1150	0.00012
1162	0.0001272
1174	0.0001104
1186	0.0001152
1198	0.0001344
1210	0.0001464
1222	0.0001176
1234	0.0001176
1246	0.0001416
1258	0.00024
1270	0.0002568
1282	0.0003048
1294	0.0004632
1306	0.0004608
1318	0.0004368
1330	0.0005112
1342	0.0006672
1354	0.0006888
1366	0.0005184
1378	0.000384
1390	0.0003624
1402	0.0005688
1414	0.0009336
1426	0.001248
1438	0.0019608
1450	0.002484
1462	0.0019392
1474	0.0010272
1486	0.0004368
1498	0.0001896
1510	0.000108
1522	0.0001224
1534	0.000144
1546	0.000156
1558	0.0001368
1570	0.0001224
1582	0.0001344
1594	0.0002448
1606	0.0005256
1618	0.0011088
1630	0.0025464
1642	0.0037896
1654	0.0016704
1666	0.0005448
1678	0.0002232
1690	0.0001008
1702	5.76e-05
1714	1.68e-05
1726	2.4e-05
1738	0
1750	1.68e-05
1762	2.4e-06
1774	3.84e-05
1786	5.28e-05
1798	0.0001248
1810	0.0003192
1822	0.0007704
1834	0.000852
1846	0.000408
1858	0.0001632
1870	8.16e-05
1882	5.04e-05
1894	5.76e-05
1906	2.4e-05
1918	3.12e-05
1930	3.36e-05
1942	2.4e-05
1954	5.52e-05
1966	9.12e-05
1978	9.84e-05
1990	7.44e-05
2002	3.36e-05
2014	2.88e-05
2026	3.12e-05
2038	2.88e-05
2050	3.6e-05
2062	6.24e-05
2074	3.36e-05
2086	3.84e-05
2098	5.52e-05
2110	3.36e-05
2122	4.32e-05
2134	2.64e-05
2146	4.8e-05
2158	3.84e-05
2170	3.84e-05
2182	4.8e-05
2194	5.28e-05
2206	4.56e-05
2218	6e-05
2230	5.28e-05
2242	2.64e-05
2254	7.92e-05
2266	7.44e-05
2278	7.68e-05
2290	6.24e-05
2302	6.96e-05
2314	5.28e-05
2326	5.76e-05
2338	7.2e-05
2350	7.44e-05
2362	6.48e-05
2374	6.72e-05
2386	4.56e-05
2398	5.76e-05
2410	5.04e-05
2422	4.56e-05
2434	5.52e-05
2446	6.48e-05
2458	7.44e-05
2470	6.96e-05
2482	6.48e-05
2494	7.68e-05
2506	0.0001056
2518	0.0001008
2530	0.0001056
2542	0.000108
2554	0.0001032
2566	0.0001248
2578	0.0001176
2590	0.0001248
2602	0.0001584
2614	0.0001536
2626	0.0001632
2638	0.0002064
2650	0.0001872
2662	0.0002208
2674	0.0002712
2686	0.0002928
2698	0.0002832
2710	0.0002304
2722	0.0002376
2734	0.0002064
2746	0.0002784
2758	0.0003072
2770	0.0003888
2782	0.0004392
2794	0.0005856
2806	0.000756
2818	0.001104
2830	0.0018624
2842	0.0036192
2854	0.0064896
2866	0.0081456
2878	0.0066408
2890	0.005688
2902	0.007596
2914	0.0128424
2926	0.0209448
2938	0.023244
2950	0.0142296
2962	0.006996
2974	0.0051408
2986	0.00516
2998	0.0048288
3010	0.004104
3022	0.0025536
3034	0.0018456
3046	0.0018264
3058	0.0023496
3070	0.003612
3082	0.0058272
3094	0.0044568
3106	0.001644
3118	0.0008184
3130	0.0005664
3142	0.0004368
3154	0.0003072
3166	0.000276
3178	0.0002064
3190	0.000216
3202	0.0001752
3214	0.000156
3226	0.0001392
3238	0.00012
3250	0.0001176
3262	0.0001008
3274	0.0001152
3286	9.84e-05
3298	8.64e-05
3310	9.36e-05
3322	8.4e-05
3334	6.96e-05
3346	8.16e-05
3358	0.0001008
3370	6e-05
3382	6.72e-05
3394	5.04e-05
3406	6.24e-05
3418	8.88e-05
3430	0.0001032
3442	0.0001008
3454	7.92e-05
3466	8.16e-05
3478	8.16e-05
3490	6.48e-05
3502	2.64e-05
3514	6.72e-05
3526	3.36e-05
3538	6.48e-05
3550	9.84e-05
3562	7.2e-05
3574	6.48e-05
3586	3.6e-05
3598	4.8e-05
3610	6.24e-05
3622	7.44e-05
3634	7.92e-05
3646	0.0001176
3658	0.0001104
3670	0.000108
3682	8.88e-05
3694	0.000108
3706	0.0001128
3718	0.0001296
3730	9.6e-05
3742	8.64e-05
3754	4.08e-05
3766	8.4e-05
3778	6e-05
3790	9.6e-05
3802	0.0001344
3814	0.0001128
3826	9.6e-05
3838	0.0001104
