Infrared Spectrum: 1,5,9-Cyclododecatriene
Formula: C 12 H 18
CAS: 4904-61-4
State: gas
Instrument: HP-GC/MS/IRD
Origin: NIST Mass Spectrometry Data Center
1/CM	ABSORBANCE
550	3.8e-06
562	1.9e-05
574	7.22e-05
586	0.0001406
598	0.0001368
610	4.56e-05
622	7.6e-05
634	3.8e-05
646	8.74e-05
658	7.98e-05
670	7.22e-05
682	0.0001026
694	0.000114
706	0.0001102
718	9.88e-05
730	0.0001368
742	0.0001976
754	0.0004066
766	0.0007638
778	0.0006954
790	0.0004104
802	0.0001976
814	0.0001444
826	0.0002622
838	0.000361
850	0.000646
862	0.0007372
874	0.0004864
886	0.0004522
898	0.0004712
910	0.000399
922	0.0006612
934	0.0022002
946	0.011039
958	0.0108224
970	0.0104348
982	0.0058102
994	0.0018164
1006	0.0022344
1018	0.003363
1030	0.0017442
1042	0.001083
1054	0.0006802
1066	0.000513
1078	0.0005814
1090	0.0005852
1102	0.000418
1114	0.0002622
1126	0.0002736
1138	0.0002888
1150	0.000228
1162	0.0002432
1174	0.0003458
1186	0.0005814
1198	0.0009158
1210	0.0005472
1222	0.0003686
1234	0.0003078
1246	0.0002926
1258	0.0003572
1270	0.0007372
1282	0.0007068
1294	0.0007448
1306	0.0008854
1318	0.0007372
1330	0.00076
1342	0.0009196
1354	0.0006384
1366	0.0003116
1378	0.0002356
1390	0.0003306
1402	0.0005396
1414	0.0008208
1426	0.0018164
1438	0.0050654
1450	0.0038
1462	0.001064
1474	0.0003762
1486	0.000228
1498	0.0001102
1510	6.46e-05
1522	6.84e-05
1534	0.0001102
1546	4.18e-05
1558	1.52e-05
1570	9.12e-05
1582	9.12e-05
1594	8.74e-05
1606	8.36e-05
1618	6.08e-05
1630	0.0001216
1642	9.12e-05
1654	0.0001292
1666	0.0002242
1678	0.0001862
1690	0.000133
1702	0.0001558
1714	0.0003116
1726	0.0004978
1738	0.0005586
1750	0.0004484
1762	0.0002888
1774	0.000171
1786	0.0001824
1798	0.000171
1810	0.0001634
1822	0.0001406
1834	0.0001064
1846	0.000114
1858	0.00019
1870	0.0002166
1882	0.000209
1894	0.0001406
1906	0.0001102
1918	0.0001064
1930	0.0001102
1942	9.5e-05
1954	9.12e-05
1966	8.74e-05
1978	7.6e-05
1990	0.0001026
2002	0.0001026
2014	6.46e-05
2026	6.46e-05
2038	4.94e-05
2050	3.42e-05
2062	5.32e-05
2074	4.56e-05
2086	6.08e-05
2098	3.8e-05
2110	8.36e-05
2122	6.84e-05
2134	8.74e-05
2146	8.74e-05
2158	0.000114
2170	0.0001102
2182	9.12e-05
2194	8.74e-05
2206	9.88e-05
2218	8.36e-05
2230	9.12e-05
2242	7.6e-05
2254	5.7e-05
2266	7.6e-05
2278	6.46e-05
2290	7.98e-05
2302	7.6e-05
2314	0
2326	0
2338	0
2350	3.04e-05
2362	0
2374	5.32e-05
2386	0.0001102
2398	0.000133
2410	0.000114
2422	0.0001178
2434	8.74e-05
2446	9.5e-05
2458	4.56e-05
2470	9.5e-05
2482	8.74e-05
2494	0.0001026
2506	7.98e-05
2518	9.5e-05
2530	9.88e-05
2542	9.88e-05
2554	0.0001178
2566	0.0001292
2578	0.0001292
2590	0.0001824
2602	0.00019
2614	0.0002318
2626	0.0003154
2638	0.0004446
2650	0.0004598
2662	0.0004218
2674	0.00038
2686	0.0002774
2698	0.000247
2710	0.0002812
2722	0.0002622
2734	0.0002736
2746	0.0003306
2758	0.0003952
2770	0.000475
2782	0.000627
2794	0.0008056
2806	0.0008778
2818	0.0010792
2830	0.0019532
2842	0.0062624
2854	0.0139308
2866	0.0098914
2878	0.0050084
2890	0.0059356
2902	0.010735
2914	0.030799
2926	0.0363812
2938	0.0204896
2950	0.008854
2962	0.0066234
2974	0.0070452
2986	0.007676
2998	0.005643
3010	0.004199
3022	0.0046284
3034	0.0037468
3046	0.0018506
3058	0.0011172
3070	0.0007942
3082	0.0005092
3094	0.000418
3106	0.0004712
3118	0.0004674
3130	0.0003952
3142	0.0003344
3154	0.0002888
3166	0.0002242
3178	0.0002242
3190	0.0002432
3202	0.0001938
3214	0.0001938
3226	0.0001444
3238	0.0001862
3250	0.0001368
3262	0.000114
3274	0.0001064
3286	0.0001406
3298	0.0001292
3310	9.5e-05
3322	6.46e-05
3334	6.84e-05
3346	7.98e-05
3358	5.7e-05
3370	5.32e-05
3382	9.88e-05
3394	9.5e-05
3406	9.88e-05
3418	0.0001482
3430	0.0001178
3442	0.0001786
3454	0.0001102
3466	5.7e-05
3478	4.94e-05
3490	0.000114
3502	7.6e-05
3514	0.0001102
3526	4.18e-05
3538	7.98e-05
3550	1.14e-05
3562	4.18e-05
3574	4.56e-05
3586	4.18e-05
3598	5.7e-05
3610	8.36e-05
3622	6.08e-05
3634	6.08e-05
3646	4.18e-05
3658	2.66e-05
3670	4.94e-05
3682	7.98e-05
3694	0.0001064
3706	0.000114
3718	9.12e-05
3730	0.0001026
3742	9.88e-05
3754	9.12e-05
3766	0.000114
3778	0.0001558
3790	0.0001102
3802	9.88e-05
3814	0.0001596
3826	0.000133
3838	0.0001102
