Infrared Spectrum: Methyl 4-butyloxybenzoate
Formula: C 12 H 16 O 3
CAS: 4906-25-6
State: gas
Origin: EPA-IR VAPOR PHASE LIBRARY
1/CM	ABSORBANCE
549.8	0.0015214
559.445	0.00057
569.09	0.0014803
578.734	0.00105352
588.379	0.0015863
598.024	0.003205
607.669	0.005395
617.313	0.005655
626.958	0.006235
636.603	0.010385
646.248	0.012175
655.893	0.005395
665.537	0.002135
675.182	0.003215
684.827	0.006065
694.472	0.008515
704.116	0.007305
713.761	0.003785
723.406	0.002675
733.051	0.002325
742.695	0.004125
752.34	0.006585
761.985	0.015785
771.63	0.023795
781.275	0.014385
790.919	0.006745
800.564	0.005465
810.209	0.005865
819.854	0.005535
829.498	0.009975
839.143	0.017775
848.788	0.021175
858.433	0.013785
868.078	0.009435
877.722	0.008365
887.367	0.006285
897.012	0.005205
906.657	0.004155
916.301	0.004165
925.946	0.003755
935.591	0.004555
945.236	0.006055
954.88	0.009805
964.525	0.013215
974.17	0.018955
983.815	0.016585
993.46	0.014855
1003.1	0.022635
1012.75	0.038135
1022.39	0.033615
1032.04	0.031925
1041.68	0.022685
1051.33	0.015775
1060.97	0.023525
1070.62	0.029995
1080.26	0.032455
1089.91	0.051915
1099.55	0.084445
1109.2	0.097635
1118.84	0.064625
1128.49	0.032045
1138.13	0.019535
1147.78	0.020155
1157.42	0.043465
1167.07	0.163005
1176.71	0.073745
1186.36	0.034045
1196	0.031865
1205.64	0.033495
1215.29	0.049015
1224.93	0.081795
1234.58	0.131115
1244.22	0.223635
1253.87	0.239595
1263.51	0.200295
1273.16	0.241045
1282.8	0.159785
1292.45	0.085085
1302.09	0.062165
1311.74	0.051605
1321.38	0.036915
1331.03	0.023515
1340.67	0.014655
1350.32	0.011705
1359.96	0.010665
1369.61	0.010495
1379.25	0.013455
1388.9	0.016595
1398.54	0.012155
1408.18	0.012985
1417.83	0.017205
1427.47	0.020065
1437.12	0.053655
1446.76	0.025005
1456.41	0.017615
1466.05	0.021565
1475.7	0.024895
1485.34	0.017285
1494.99	0.021175
1504.63	0.060275
1514.28	0.057995
1523.92	0.015445
1533.57	0.009975
1543.21	0.009895
1552.86	0.009575
1562.5	0.012095
1572.15	0.020425
1581.79	0.029185
1591.44	0.045215
1601.08	0.098785
1610.73	0.088225
1620.37	0.034585
1630.01	0.015565
1639.66	0.009575
1649.3	0.008005
1658.95	0.007285
1668.59	0.006595
1678.24	0.006785
1687.88	0.008025
1697.53	0.010585
1707.17	0.013005
1716.82	0.022485
1726.46	0.055925
1736.11	0.165425
1745.75	0.166925
1755.4	0.051685
1765.04	0.019405
1774.69	0.011095
1784.33	0.007345
1793.98	0.006175
1803.62	0.005055
1813.27	0.003615
1822.91	0.002845
1832.55	0.002585
1842.2	0.002145
1851.84	0.002265
1861.49	0.002415
1871.13	0.002595
1880.78	0.002855
1890.42	0.003435
1900.07	0.003895
1909.71	0.004475
1919.36	0.004305
1929	0.003985
1938.65	0.003585
1948.29	0.002875
1957.94	0.002745
1967.58	0.002465
1977.23	0.002765
1986.87	0.002875
1996.52	0.003115
2006.16	0.003205
2015.81	0.003385
2025.45	0.003355
2035.1	0.003355
2044.74	0.003325
2054.38	0.003525
2064.03	0.003915
2073.67	0.004075
2083.32	0.004055
2092.96	0.003495
2102.61	0.003035
2112.25	0.002545
2121.9	0.002215
2131.54	0.002115
2141.19	0.0019
2150.83	0.002145
2160.48	0.0017155
2170.12	0.0017306
2179.77	0.0015237
2189.41	0.0015497
2199.06	0.0014131
2208.7	0.001808
2218.35	0.0015777
2227.99	0.0017165
2237.64	0.0017931
2247.28	0.0016616
2256.92	0.001995
2266.57	0.0018158
2276.21	0.0017972
2285.86	0.002095
2295.5	0.001632
2305.15	0.002065
2314.79	0.0015905
2324.44	0.0019444
2334.08	0.0018368
2343.73	0.0016977
2353.37	0.0019262
2363.02	0.001965
2372.66	0.002075
2382.31	0.002585
2391.95	0.002155
2401.6	0.002565
2411.24	0.002545
2420.89	0.002745
2430.53	0.002275
2440.18	0.002185
2449.82	0.002235
2459.47	0.002595
2469.11	0.002585
2478.75	0.002705
2488.4	0.002825
2498.04	0.002415
2507.69	0.002285
2517.33	0.002465
2526.98	0.002875
2536.62	0.003435
2546.27	0.003785
2555.91	0.003445
2565.56	0.003565
2575.2	0.003195
2584.85	0.003095
2594.49	0.003025
2604.14	0.002895
2613.78	0.002465
2623.43	0.002305
2633.07	0.002315
2642.72	0.002425
2652.36	0.001965
2662.01	0.002155
2671.65	0.002015
2681.29	0.002245
2690.94	0.002085
2700.58	0.002555
2710.23	0.0018168
2719.87	0.002835
2729.52	0.002405
2739.16	0.002615
2748.81	0.002945
2758.45	0.003365
2768.1	0.003555
2777.74	0.003295
2787.39	0.003305
2797.03	0.003145
2806.68	0.003875
2816.32	0.004485
2825.97	0.005495
2835.61	0.007385
2845.26	0.012815
2854.9	0.015155
2864.55	0.016965
2874.19	0.023775
2883.84	0.031255
2893.48	0.028995
2903.12	0.028505
2912.77	0.033595
2922.41	0.037765
2932.06	0.043205
2941.7	0.054955
2951.35	0.064225
2960.99	0.083755
2970.64	0.066415
2980.28	0.040305
2989.93	0.023495
2999.57	0.017475
3009.22	0.014185
3018.86	0.011935
3028.51	0.010645
3038.15	0.008565
3047.8	0.008345
3057.44	0.008325
3067.09	0.007825
3076.73	0.009415
3086.38	0.008275
3096.02	0.006475
3105.67	0.006175
3115.31	0.004565
3124.95	0.003415
3134.6	0.002805
3144.24	0.002785
3153.89	0.002675
3163.53	0.002605
3173.18	0.001985
3182.82	0.0016782
3192.47	0.002245
3202.11	0.0017726
3211.76	0.0018547
3221.4	0.0013083
3231.05	0.0018066
3240.69	0.0016585
3250.34	0.0011504
3259.98	0.0013035
3269.63	0.002075
3279.27	0.0017661
3288.92	0.0013604
3298.56	0.0011279
3308.21	0.001502
3317.85	0.0009185
3327.49	0.0015878
3337.14	0.0013186
3346.78	0.0016051
3356.43	0.0014647
3366.07	0.00097405
3375.72	0.000624
3385.36	0.000777
3395.01	0.00063
3404.65	0.0008872
3414.3	0.0011414
3423.94	0.0013055
3433.59	0.0011084
3443.23	0.0017194
3452.88	0.002375
3462.52	0.0016479
3472.17	0.002505
3481.81	0.002285
3491.46	0.002125
3501.1	0.0015509
3510.75	0.00078
3520.39	0.00103005
3530.04	0.000605
3539.68	0.000453
3549.32	0.0013012
3558.97	0.0008651
3568.61	0.00100007
3578.26	0.000838
3587.9	0.000778
3597.55	0.001372
3607.19	0.000382
3616.84	0.0014074
3626.48	0.00104855
3636.13	0.000717
3645.77	0.0011484
3655.42	0.000617
3665.06	0.0009043
3674.71	0.0008891
3684.35	0.0014381
3694	0.0008591
3703.64	0.0015384
3713.29	0.00099168
3722.93	0.0011399
3732.58	0.0012279
3742.22	0.000824
3751.86	0.00095328
3761.51	0.0008936
3771.15	0.00085
3780.8	0.0013057
3790.44	0.000836
3800.09	0.0014936
3809.73	0.0008664
3819.38	0.000718
3829.02	0.0015228
3838.67	0.0013833
3848.31	0.000681
3857.96	0.0013039
3867.6	0.0009034
3877.25	0.000661
3886.89	0.0015029
3896.54	0.0010659
3906.18	0.0009058
3915.83	0.000914
3925.47	0.0014213
3935.12	0.001169
3944.76	0.0016167
3954.41	0.00098004
3964.05	0.000576
3973.69	0.0012686
3983.34	0.0015257
3992.98	0.0011666
