Infrared Spectrum: 2,3-Dibromo-1,4-dichlorobutane
Formula: C4 H6 Br2 Cl2
CAS: 4911-46-0
State: SOLUTION (10% CCl4 FOR 3800-1330, 10% CS2 FOR 1330-400)
Class: COBLENTZ III
Instrument: BECKMAN IR-9 (GRATING)
Instrument parameters: ORDER CHANGES: 670, 1200, 2000 CM^-^1
Sampling: TRANSMISSION
Path length: 0.012 CM, 0.010 CM
Resolution: 2
Origin: DOW CHEMICAL COMPANY
1/CM	TRANSMITTANCE
412	0.2707
421	0.3372
430	0.5191
439	0.6583
448	0.7288
457	0.6671
466	0.7839
475	0.8316
484	0.8629
493	0.8898
502	0.9052
511	0.9131
520	0.9202
529	0.9205
538	0.9057
547	0.9011
556	0.7521
565	0.4044
574	0.8088
583	0.9216
592	0.9353
601	0.9393
610	0.9556
619	0.9564
628	0.9441
637	0.9039
646	0.84
655	0.8834
664	0.8303
673	0.9194
682	0.7497
691	0.8943
700	0.9187
709	0.888
718	0.4723
727	0.3938
736	0.7299
745	0.8715
754	0.8624
763	0.8094
772	0.8419
781	0.8728
790	0.9305
799	0.9529
808	0.9697
817	0.9657
826	0.9681
835	0.9659
844	0.9594
853	0.9316
862	0.9063
871	0.9005
880	0.9088
889	0.9074
898	0.8172
907	0.8427
916	0.4075
925	0.8563
934	0.9066
943	0.9105
952	0.9429
961	0.9329
970	0.8982
979	0.9166
988	0.9353
997	0.9087
1006	0.7331
1015	0.9242
1024	0.9342
1033	0.9402
1042	0.9345
1051	0.9462
1060	0.9499
1069	0.9462
1078	0.9399
1087	0.9342
1096	0.9287
1105	0.9285
1114	0.9335
1123	0.924
1132	0.7789
1141	0.6784
1150	0.8477
1159	0.8666
1168	0.9038
1177	0.8761
1186	0.6489
1195	0.7658
1204	0.7956
1213	0.834
1222	0.8614
1231	0.861
1240	0.8993
1249	0.8846
1258	0.8826
1267	0.9006
1276	0.8731
1285	0.7676
1294	0.291
1303	0.7839
1312	0.8435
1321	0.8621
1330	0.897
1339	0.8873
1348	0.8797
1357	0.8942
1366	0.9212
1375	0.927
1384	0.9437
1393	0.9323
1402	0.9274
1411	0.9165
1420	0.8695
1429	0.2142
1438	0.6663
1447	0.8163
1456	0.9116
1465	0.923
1474	0.9291
1483	0.9334
1492	0.9162
1501	0.8906
1510	0.874
1519	0.8574
1528	0.8442
1537	0.8222
1546	0.7943
1555	0.705
1564	0.6949
1573	0.7698
1582	0.8029
1591	0.825
1600	0.869
1609	0.8935
1618	0.9065
1627	0.921
1636	0.9248
1645	0.9229
1654	0.9286
1663	0.9304
1672	0.934
1681	0.9355
1690	0.9384
1699	0.9397
1708	0.9412
1717	0.9412
1726	0.9375
1735	0.9345
1744	0.9333
1753	0.9344
1762	0.936
1771	0.938
1780	0.9369
1789	0.937
1798	0.9362
1807	0.9378
1816	0.9393
1825	0.9376
1834	0.9369
1843	0.9375
1852	0.9351
1861	0.9324
1870	0.9299
1879	0.9303
1888	0.9331
1897	0.9329
1906	0.9306
1915	0.9292
1924	0.9292
1933	0.9299
1942	0.9316
1951	0.9338
1960	0.9358
1969	0.9335
1978	0.9324
1987	0.9335
1996	0.9226
2005	0.9249
2014	0.9342
2023	0.939
2032	0.939
2041	0.9401
2050	0.9424
2059	0.9406
2068	0.9386
2077	0.9381
2086	0.9394
2095	0.9403
2104	0.9411
2113	0.9403
2122	0.9383
2131	0.9396
2140	0.9397
2149	0.9395
2158	0.9386
2167	0.9377
2176	0.9381
2185	0.9367
2194	0.9385
2203	0.9383
2212	0.9382
2221	0.9379
2230	0.9388
2239	0.9385
2248	0.9379
2257	0.9382
2266	0.9383
2275	0.9366
2284	0.9367
2293	0.9338
2302	0.9285
2311	0.9277
2320	0.9276
2329	0.926
2338	0.9262
2347	0.9295
2356	0.9298
2365	0.9276
2374	0.9305
2383	0.9272
2392	0.9254
2401	0.9263
2410	0.9248
2419	0.9247
2428	0.9246
2437	0.9261
2446	0.9299
2455	0.9322
2464	0.9363
2473	0.9352
2482	0.9322
2491	0.9305
2500	0.929
2509	0.9277
2518	0.9271
2527	0.927
2536	0.9297
2545	0.9326
2554	0.934
2563	0.933
2572	0.9316
2581	0.93
2590	0.9285
2599	0.9279
2608	0.9276
2617	0.9272
2626	0.9265
2635	0.9245
2644	0.9241
2653	0.9253
2662	0.9235
2671	0.9231
2680	0.9226
2689	0.922
2698	0.9213
2707	0.9201
2716	0.9189
2725	0.9186
2734	0.9187
2743	0.9196
2752	0.9219
2761	0.9247
2770	0.9269
2779	0.9269
2788	0.9238
2797	0.9227
2806	0.9218
2815	0.9228
2824	0.9262
2833	0.9274
2842	0.9173
2851	0.9042
2860	0.914
2869	0.9191
2878	0.9233
2887	0.9256
2896	0.926
2905	0.9253
2914	0.9227
2923	0.9215
2932	0.9183
2941	0.9142
2950	0.9025
2959	0.7696
2968	0.6694
2977	0.8142
2986	0.8521
2995	0.8847
3004	0.9035
3013	0.9041
3022	0.9036
3031	0.9117
3040	0.9221
3049	0.9162
3058	0.9189
3067	0.9212
3076	0.9245
3085	0.9235
3094	0.9296
3103	0.9247
3112	0.9244
3121	0.9256
3130	0.9266
3139	0.9273
3148	0.9267
3157	0.9284
3166	0.9276
3175	0.9279
3184	0.928
3193	0.9295
3202	0.9281
3211	0.9293
3220	0.929
3229	0.9287
3238	0.9284
3247	0.9281
3256	0.9261
3265	0.927
3274	0.9264
3283	0.9259
3292	0.9239
3301	0.9231
3310	0.9239
3319	0.9217
3328	0.9211
3337	0.922
3346	0.9202
3355	0.9198
3364	0.9195
3373	0.9191
3382	0.9189
3391	0.9188
3400	0.9187
3409	0.9186
3418	0.9185
3427	0.9185
3436	0.9188
3445	0.9192
3454	0.9195
3463	0.9197
3472	0.92
3481	0.9204
3490	0.9207
3499	0.9208
3508	0.921
3517	0.9211
3526	0.9215
3535	0.923
3544	0.9225
3553	0.922
3562	0.9216
3571	0.9215
3580	0.9229
3589	0.9226
3598	0.9211
3607	0.9212
3616	0.9204
3625	0.92
3634	0.9195
3643	0.9222
3652	0.9255
3661	0.9258
3670	0.9267
3679	0.9254
3688	0.927
3697	0.9287
3706	0.9288
3715	0.9273
3724	0.927
3733	0.9252
3742	0.9247
3751	0.925
3760	0.9264
3769	0.9262
3778	0.9268
3787	0.9282
3796	0.9291
