Infrared Spectrum: 2,3-Dimethyl-2-pentanol
Formula: C 7 H 16 O
CAS: 4911-70-0
State: gas
Instrument: HP-GC/MS/IRD
Origin: NIST Mass Spectrometry Data Center
1/CM	ABSORBANCE
550	0.00021
562	0.0001435
574	6.44e-05
586	1.82e-05
598	4.62e-05
610	0.0001757
622	0.0002044
634	0.0001918
646	0.0001253
658	8.47e-05
670	0.0001442
682	0.000217
694	0.0002352
706	0.0002744
718	0.0002814
730	0.0002219
742	0.0002093
754	0.0001862
766	0.000203
778	0.0002723
790	0.0003045
802	0.0002772
814	0.0002716
826	0.0002233
838	0.0003696
850	0.0003542
862	0.0003416
874	0.0004627
886	0.0007147
898	0.0007721
910	0.0006188
922	0.0007882
934	0.0010885
946	0.0009807
958	0.0006034
970	0.0004606
982	0.0004186
994	0.0003528
1006	0.0003962
1018	0.0004767
1030	0.0004263
1042	0.0004865
1054	0.0005579
1066	0.0006188
1078	0.0007483
1090	0.0009268
1102	0.0010129
1114	0.0010899
1126	0.0011347
1138	0.0012173
1150	0.0011886
1162	0.0013888
1174	0.0015953
1186	0.0012873
1198	0.0009275
1210	0.0007903
1222	0.0006951
1234	0.0006944
1246	0.0006762
1258	0.0006965
1270	0.0007035
1282	0.0007399
1294	0.0007448
1306	0.000749
1318	0.000728
1330	0.0006531
1342	0.0006342
1354	0.0008414
1366	0.001442
1378	0.001862
1390	0.0015141
1402	0.0008064
1414	0.0004907
1426	0.0004837
1438	0.0005733
1450	0.0008722
1462	0.0010724
1474	0.0009352
1486	0.0005782
1498	0.0003514
1510	0.0002443
1522	0.0002114
1534	0.0001953
1546	0.0001778
1558	6.93e-05
1570	0.0001246
1582	0.0001778
1594	0.0001407
1606	0.0001498
1618	0.0001253
1630	0.0001428
1642	0.0001568
1654	0.0001113
1666	0.0001491
1678	0.0001477
1690	0.0001225
1702	7.91e-05
1714	0.0001022
1726	0.0001414
1738	0.0001001
1750	0.000154
1762	0.0001442
1774	0.0001036
1786	0.0001316
1798	0.0001155
1810	0.0001092
1822	0.0001253
1834	0.0001092
1846	0.0001022
1858	0.0001099
1870	0.0001036
1882	9.52e-05
1894	9.8e-05
1906	0.0001029
1918	9.73e-05
1930	9.38e-05
1942	0.0001015
1954	7.42e-05
1966	8.26e-05
1978	7.56e-05
1990	8.47e-05
2002	8.89e-05
2014	8.68e-05
2026	6.23e-05
2038	6.86e-05
2050	6.65e-05
2062	5.95e-05
2074	7.21e-05
2086	9.1e-05
2098	9.52e-05
2110	9.03e-05
2122	8.26e-05
2134	6.37e-05
2146	6.72e-05
2158	7.56e-05
2170	5.88e-05
2182	5.67e-05
2194	6.23e-05
2206	7.49e-05
2218	6.58e-05
2230	6.23e-05
2242	6.16e-05
2254	4.62e-05
2266	5.11e-05
2278	5.39e-05
2290	4.55e-05
2302	5.74e-05
2314	4.27e-05
2326	1.61e-05
2338	1.4e-06
2350	4.13e-05
2362	1.4e-06
2374	4.2e-05
2386	3.36e-05
2398	4.76e-05
2410	3.64e-05
2422	3.78e-05
2434	3.15e-05
2446	4.83e-05
2458	3.22e-05
2470	3.92e-05
2482	7e-06
2494	4.34e-05
2506	3.36e-05
2518	4.2e-05
2530	3.36e-05
2542	5.88e-05
2554	4.2e-05
2566	3.01e-05
2578	4.34e-05
2590	6.23e-05
2602	5.67e-05
2614	6.3e-05
2626	5.18e-05
2638	6.51e-05
2650	6.79e-05
2662	8.12e-05
2674	3.5e-05
2686	9.38e-05
2698	6.51e-05
2710	0.0001064
2722	8.12e-05
2734	0.0001323
2746	0.0001239
2758	0.0001337
2770	0.0001533
2782	0.000168
2794	0.0001596
2806	0.000217
2818	0.0002786
2830	0.0003346
2842	0.0004809
2854	0.0007616
2866	0.0013923
2878	0.0024185
2890	0.0027391
2902	0.0023996
2914	0.0023002
2926	0.0029218
2938	0.0036393
2950	0.0040684
2962	0.0053816
2974	0.007
2986	0.0056133
2998	0.0027391
3010	0.0011452
3022	0.0005796
3034	0.0004151
3046	0.0003395
3058	0.000287
3070	0.0002625
3082	0.0002436
3094	0.0001995
3106	0.0001659
3118	0.0001302
3130	8.89e-05
3142	0.0001456
3154	0.0001344
3166	0.0001204
3178	0.0001302
3190	0.0001372
3202	0.0001197
3214	7.98e-05
3226	7.77e-05
3238	6.51e-05
3250	5.81e-05
3262	9.52e-05
3274	3.85e-05
3286	6.79e-05
3298	6.86e-05
3310	2.87e-05
3322	8.89e-05
3334	0.0001022
3346	6.65e-05
3358	8.4e-05
3370	5.46e-05
3382	7.28e-05
3394	3.71e-05
3406	3.5e-05
3418	4.2e-05
3430	0.0001092
3442	8.26e-05
3454	4.48e-05
3466	8.33e-05
3478	5.6e-05
3490	5.88e-05
3502	2.59e-05
3514	6.16e-05
3526	7.56e-05
3538	9.59e-05
3550	8.61e-05
3562	5.6e-05
3574	4.9e-05
3586	4.97e-05
3598	6.93e-05
3610	7.56e-05
3622	0.0001666
3634	0.0003157
3646	0.0003542
3658	0.0002471
3670	7.07e-05
3682	8.89e-05
3694	8.54e-05
3706	4.69e-05
3718	2.38e-05
3730	4.76e-05
3742	1.4e-06
3754	1.4e-06
3766	6.44e-05
3778	1.26e-05
3790	4.62e-05
3802	3.01e-05
3814	5.74e-05
3826	2.24e-05
3838	7e-06
