Infrared Spectrum: N,N,3,5-Tetramethylaniline
Formula: C 10 H 15 N
CAS: 4913-13-7
State: gas
Origin: EPA-IR VAPOR PHASE LIBRARY
1/CM	ABSORBANCE
549.8	0.001339
559.445	0.001479
569.09	0.002469
578.734	0.002579
588.379	0.001659
598.024	0.001399
607.669	0.001249
617.313	0.000717
626.958	0.0008526
636.603	0.0006581
646.248	0.0008906
655.893	0.000943
665.537	0.001799
675.182	0.004829
684.827	0.010639
694.472	0.010829
704.116	0.005419
713.761	0.001679
723.406	0.0011003
733.051	0.0009884
742.695	0.0007366
752.34	0.0010895
761.985	0.000936
771.63	0.0009493
781.275	0.001479
790.919	0.001869
800.564	0.004109
810.209	0.012569
819.854	0.028039
829.498	0.024139
839.143	0.011789
848.788	0.004569
858.433	0.003429
868.078	0.002349
877.722	0.002169
887.367	0.001979
897.012	0.001869
906.657	0.002069
916.301	0.002289
925.946	0.002619
935.591	0.003959
945.236	0.006469
954.88	0.010819
964.525	0.010459
974.17	0.006839
983.815	0.008439
993.46	0.011639
1003.1	0.013359
1012.75	0.020059
1022.39	0.027129
1032.04	0.024279
1041.68	0.019389
1051.33	0.017599
1060.97	0.016319
1070.62	0.012019
1080.26	0.008659
1089.91	0.006139
1099.55	0.006599
1109.2	0.007049
1118.84	0.008519
1128.49	0.011689
1138.13	0.017139
1147.78	0.023879
1157.42	0.028089
1167.07	0.022329
1176.71	0.013949
1186.36	0.010869
1196	0.011209
1205.64	0.014379
1215.29	0.016259
1224.93	0.015519
1234.58	0.012939
1244.22	0.009039
1253.87	0.006019
1263.51	0.005089
1273.16	0.004779
1282.8	0.005249
1292.45	0.006589
1302.09	0.008769
1311.74	0.010229
1321.38	0.012899
1331.03	0.022019
1340.67	0.041019
1350.32	0.059169
1359.96	0.050459
1369.61	0.026869
1379.25	0.017689
1388.9	0.014849
1398.54	0.012419
1408.18	0.013259
1417.83	0.015289
1427.47	0.018949
1437.12	0.026479
1446.76	0.030219
1456.41	0.031769
1466.05	0.036609
1475.7	0.041409
1485.34	0.045869
1494.99	0.044399
1504.63	0.037359
1514.28	0.031179
1523.92	0.028019
1533.57	0.025929
1543.21	0.023109
1552.86	0.021409
1562.5	0.023939
1572.15	0.034299
1581.79	0.062839
1591.44	0.124749
1601.08	0.165339
1610.73	0.088199
1620.37	0.030199
1630.01	0.014529
1639.66	0.009649
1649.3	0.007569
1658.95	0.006509
1668.59	0.005689
1678.24	0.004999
1687.88	0.004569
1697.53	0.004009
1707.17	0.003579
1716.82	0.003319
1726.46	0.003069
1736.11	0.002639
1745.75	0.002219
1755.4	0.001989
1765.04	0.001759
1774.69	0.001599
1784.33	0.001329
1793.98	0.001209
1803.62	0.001289
1813.27	0.001259
1822.91	0.0011367
1832.55	0.0010466
1842.2	0.0011206
1851.84	0.001299
1861.49	0.001499
1871.13	0.001659
1880.78	0.001759
1890.42	0.001559
1900.07	0.001489
1909.71	0.001679
1919.36	0.001659
1929	0.001529
1938.65	0.001269
1948.29	0.0010173
1957.94	0.0009645
1967.58	0.0008341
1977.23	0.0009135
1986.87	0.0008767
1996.52	0.000876
2006.16	0.0008855
2015.81	0.0008367
2025.45	0.0007815
2035.1	0.0006999
2044.74	0.0006074
2054.38	0.0005887
2064.03	0.0006619
2073.67	0.0006532
2083.32	0.0006156
2092.96	0.0006878
2102.61	0.0007931
2112.25	0.0008676
2121.9	0.0008788
2131.54	0.0008403
2141.19	0.0008051
2150.83	0.0008922
2160.48	0.0011302
2170.12	0.001279
2179.77	0.0010932
2189.41	0.0010721
2199.06	0.0011179
2208.7	0.0011454
2218.35	0.0007817
2227.99	0.0006974
2237.64	0.0007088
2247.28	0.0006299
2256.92	0.0005624
2266.57	0.0006067
2276.21	0.0004845
2285.86	0.0005728
2295.5	0.0006105
2305.15	0.0007927
2314.79	0.0009056
2324.44	0.0010201
2334.08	0.0011476
2343.73	0.0009465
2353.37	0.0008606
2363.02	0.0007804
2372.66	0.0008088
2382.31	0.0008316
2391.95	0.0008873
2401.6	0.000933
2411.24	0.000903
2420.89	0.000979
2430.53	0.001034
2440.18	0.001179
2449.82	0.001179
2459.47	0.001319
2469.11	0.001249
2478.75	0.001199
2488.4	0.001309
2498.04	0.001399
2507.69	0.001369
2517.33	0.001499
2526.98	0.001439
2536.62	0.001509
2546.27	0.001479
2555.91	0.001429
2565.56	0.001489
2575.2	0.001389
2584.85	0.001399
2594.49	0.001359
2604.14	0.001319
2613.78	0.001459
2623.43	0.001479
2633.07	0.001529
2642.72	0.001579
2652.36	0.001539
2662.01	0.001619
2671.65	0.001859
2681.29	0.002059
2690.94	0.002509
2700.58	0.002999
2710.23	0.003399
2719.87	0.004099
2729.52	0.005429
2739.16	0.006759
2748.81	0.007799
2758.45	0.009749
2768.1	0.012959
2777.74	0.018399
2787.39	0.027309
2797.03	0.036509
2806.68	0.037979
2816.32	0.032849
2825.97	0.029819
2835.61	0.031679
2845.26	0.036499
2854.9	0.041159
2864.55	0.046089
2874.19	0.047749
2883.84	0.044859
2893.48	0.042739
2903.12	0.044629
2912.77	0.051189
2922.41	0.065519
2932.06	0.070979
2941.7	0.061149
2951.35	0.051329
2960.99	0.044869
2970.64	0.038229
2980.28	0.035579
2989.93	0.034309
2999.57	0.030249
3009.22	0.026999
3018.86	0.029159
3028.51	0.029849
3038.15	0.026059
3047.8	0.022329
3057.44	0.020029
3067.09	0.018109
3076.73	0.014159
3086.38	0.009239
3096.02	0.005499
3105.67	0.003969
3115.31	0.003039
3124.95	0.002249
3134.6	0.001609
3144.24	0.001469
3153.89	0.0011662
3163.53	0.0010573
3173.18	0.00096
3182.82	0.0007872
3192.47	0.0007525
3202.11	0.0007147
3211.76	0.0005991
3221.4	0.0005996
3231.05	0.000621
3240.69	0.0006307
3250.34	0.000441
3259.98	0.0005522
3269.63	0.0004988
3279.27	0.000331
3288.92	0.0003445
3298.56	0.0003633
3308.21	0.0002943
3317.85	0.0002809
3327.49	0.00022194
3337.14	0.00026009
3346.78	0.0003005
3356.43	0.0001522
3366.07	0.00041
3375.72	0.00024829
3385.36	0.00024339
3395.01	0.00026813
3404.65	0.00025907
3414.3	0.0003427
3423.94	0.00018785
3433.59	0.0005126
3443.23	0.0003063
3452.88	0.00018719
3462.52	0.00018102
3472.17	0.0002825
3481.81	0.0004314
3491.46	0.00021147
3501.1	0.0003076
3510.75	0.00023192
3520.39	0.0001378
3530.04	0.0002932
3539.68	0.00024926
3549.32	0.0003202
3558.97	0.00025595
3568.61	0.0003516
3578.26	0.0003085
3587.9	0.000426
3597.55	0.000178776
3607.19	0.0003073
3616.84	0.00022093
3626.48	0.000254
3636.13	0.0002987
3645.77	0.00026863
3655.42	0.00020638
3665.06	0.00022244
3674.71	0.0002991
3684.35	0.0003468
3694	0.0001027
3703.64	6.2e-05
3713.29	0.0001163
3722.93	0.0001258
3732.58	0.0001373
3742.22	0.00019979
3751.86	0.0002791
3761.51	0.0003446
3771.15	9.76e-05
3780.8	0.0003139
3790.44	0.00024361
3800.09	0.0003185
3809.73	0.0003047
3819.38	0.0003821
3829.02	0.00019343
3838.67	0.0004642
3848.31	0.0004019
3857.96	0.0004497
3867.6	0.0006272
3877.25	0.0005388
3886.89	0.0005383
3896.54	0.0005645
3906.18	0.0006166
3915.83	0.0005778
3925.47	0.0007859
3935.12	0.0006409
3944.76	0.0006589
3954.41	0.0005568
3964.05	0.000739
3973.69	0.0008167
3983.34	0.0004801
3992.98	0.0007754
