Infrared Spectrum: cis-3-Methyl-3-hexene
Formula: C 7 H 14
CAS: 4914-89-0
State: gas
Instrument: HP-GC/MS/IRD
Origin: NIST Mass Spectrometry Data Center
1/CM	ABSORBANCE
550	0.0006195
562	0.000693
574	0.0005145
586	0.000203
598	0.0001155
610	0.0001925
622	3.5e-05
634	0.000133
646	2.1e-05
658	1.4e-05
670	9.8e-05
682	0.000119
694	0.0001435
706	0.000133
718	0.0002765
730	0.000455
742	0.000441
754	0.000406
766	0.0005495
778	0.000714
790	0.000917
802	0.001043
814	0.0012355
826	0.001575
838	0.002219
850	0.0018445
862	0.0009905
874	0.0005355
886	0.00056
898	0.0006755
910	0.000623
922	0.000315
934	0.000315
946	0.0004095
958	0.0005915
970	0.000574
982	0.000581
994	0.0007805
1006	0.000987
1018	0.001113
1030	0.001036
1042	0.0009975
1054	0.0012915
1066	0.001414
1078	0.001162
1090	0.0007875
1102	0.0006755
1114	0.0008365
1126	0.0008295
1138	0.0004585
1150	0.0002835
1162	0.0002625
1174	0.000259
1186	0.0003535
1198	0.0004375
1210	0.0004515
1222	0.0003115
1234	0.0002905
1246	0.0003745
1258	0.00056
1270	0.0007805
1282	0.0010605
1294	0.001596
1306	0.0015295
1318	0.0009555
1330	0.000595
1342	0.000602
1354	0.000875
1366	0.0016975
1378	0.002618
1390	0.002527
1402	0.001463
1414	0.0013405
1426	0.00182
1438	0.002779
1450	0.003976
1462	0.0044835
1474	0.0035175
1486	0.0020125
1498	0.001113
1510	0.0007455
1522	0.0005845
1534	0.000399
1546	0.000378
1558	0.000364
1570	0.000336
1582	0.000343
1594	0.0003675
1606	0.0003815
1618	0.000406
1630	0.000427
1642	0.0005355
1654	0.0006825
1666	0.000679
1678	0.000441
1690	0.0002765
1702	0.0001645
1714	0.0001295
1726	9.45e-05
1738	7.7e-05
1750	8.75e-05
1762	7.35e-05
1774	5.6e-05
1786	6.65e-05
1798	7.35e-05
1810	0.0001015
1822	5.25e-05
1834	7.7e-05
1846	8.75e-05
1858	6.65e-05
1870	6.65e-05
1882	5.95e-05
1894	7.7e-05
1906	9.8e-05
1918	9.45e-05
1930	1.4e-05
1942	5.6e-05
1954	1.75e-05
1966	2.8e-05
1978	7e-06
1990	1.75e-05
2002	2.1e-05
2014	3.15e-05
2026	5.25e-05
2038	4.2e-05
2050	5.95e-05
2062	5.95e-05
2074	3.5e-05
2086	2.8e-05
2098	1.4e-05
2110	2.8e-05
2122	2.8e-05
2134	7e-06
2146	1.4e-05
2158	4.9e-05
2170	3.15e-05
2182	3.15e-05
2194	4.9e-05
2206	2.1e-05
2218	3.5e-05
2230	4.2e-05
2242	4.9e-05
2254	4.2e-05
2266	5.6e-05
2278	5.95e-05
2290	3.15e-05
2302	3.5e-05
2314	2.8e-05
2326	5.95e-05
2338	9.8e-05
2350	7.7e-05
2362	0.000112
2374	0.000119
2386	8.75e-05
2398	0.0001225
2410	0.000119
2422	6.65e-05
2434	8.4e-05
2446	0.0001155
2458	9.8e-05
2470	8.05e-05
2482	7e-05
2494	6.65e-05
2506	0.000105
2518	9.8e-05
2530	0.0001225
2542	0.0001225
2554	0.000126
2566	0.0001155
2578	0.000133
2590	0.0001505
2602	0.0001505
2614	0.000154
2626	0.00014
2638	0.0001715
2650	0.0001785
2662	0.000154
2674	0.0001995
2686	0.0001785
2698	0.00028
2710	0.000357
2722	0.000581
2734	0.0008365
2746	0.000861
2758	0.000749
2770	0.00077
2782	0.0008925
2794	0.0011025
2806	0.001449
2818	0.001911
2830	0.0026005
2842	0.0040005
2854	0.0070805
2866	0.0114205
2878	0.0153895
2890	0.015974
2902	0.014735
2914	0.0154385
2926	0.0186025
2938	0.0220325
2950	0.0234045
2962	0.030345
2974	0.0346535
2986	0.0242795
2998	0.0110915
3010	0.005845
3022	0.0041895
3034	0.003402
3046	0.0026565
3058	0.0019425
3070	0.001554
3082	0.0013405
3094	0.00119
3106	0.001078
3118	0.0009975
3130	0.000861
3142	0.00077
3154	0.0006475
3166	0.0005915
3178	0.000455
3190	0.000329
3202	0.000245
3214	0.000196
3226	0.000133
3238	0.0001505
3250	0.00014
3262	0.000105
3274	7.35e-05
3286	0.0001015
3298	7e-05
3310	0.000105
3322	9.8e-05
3334	7.35e-05
3346	3.15e-05
3358	4.9e-05
3370	4.2e-05
3382	9.45e-05
3394	7.35e-05
3406	8.75e-05
3418	8.75e-05
3430	5.25e-05
3442	4.2e-05
3454	8.4e-05
3466	2.45e-05
3478	2.45e-05
3490	5.95e-05
3502	5.25e-05
3514	3.5e-05
3526	9.1e-05
3538	3.85e-05
3550	7.7e-05
3562	2.45e-05
3574	2.45e-05
3586	2.45e-05
3598	3.5e-06
3610	5.95e-05
3622	4.9e-05
3634	7.35e-05
3646	5.6e-05
3658	6.65e-05
3670	7.35e-05
3682	9.8e-05
3694	0.0001435
3706	9.45e-05
3718	0.0001085
3730	8.75e-05
3742	0.000105
3754	0.00014
3766	0.0001225
3778	0.000119
3790	8.4e-05
3802	0.0001155
3814	0.0001085
3826	0.000112
3838	7.35e-05
