Infrared Spectrum: cis-3,4-Dimethyl-2-pentene
Formula: C 7 H 14
CAS: 4914-91-4
State: gas
Instrument: HP-GC/MS/IRD
Origin: NIST Mass Spectrometry Data Center
1/CM	ABSORBANCE
550	0.0010952
562	0.0009546
574	0.0011951
586	0.0007696
598	0.0003552
610	0.0002886
622	0.000185
634	0.0001998
646	9.25e-05
658	0.0003071
670	0.0002479
682	0.000296
694	0.0004255
706	0.0002738
718	0.0002479
730	0.0002109
742	0.0002072
754	0.0003034
766	0.0004329
778	0.0008066
790	0.0018611
802	0.00333
814	0.0032671
826	0.0017797
838	0.0007252
850	0.0005476
862	0.0005809
874	0.0005735
886	0.0005624
898	0.0004773
910	0.0004995
922	0.0006364
934	0.000814
946	0.0007955
958	0.0006438
970	0.0004625
982	0.0005402
994	0.0006179
1006	0.0010249
1018	0.0016132
1030	0.0022015
1042	0.0021275
1054	0.0016983
1066	0.0013949
1078	0.0012543
1090	0.0020054
1102	0.0028712
1114	0.0024716
1126	0.0012617
1138	0.0008362
1150	0.000851
1162	0.0008251
1174	0.0005624
1186	0.0003848
1198	0.0004255
1210	0.0005994
1222	0.0007437
1234	0.0006845
1246	0.0005513
1258	0.0004958
1270	0.000555
1282	0.00074
1294	0.0009657
1306	0.0015244
1318	0.0013801
1330	0.0009657
1342	0.0011988
1354	0.0023088
1366	0.0045214
1378	0.0049913
1390	0.0038702
1402	0.00222
1414	0.0017353
1426	0.0020831
1438	0.0030932
1450	0.0043882
1462	0.0048951
1474	0.0039146
1486	0.0023421
1498	0.0015059
1510	0.0012321
1522	0.0010323
1534	0.0009102
1546	0.0007807
1558	0.0006734
1570	0.0005846
1582	0.0006216
1594	0.000703
1606	0.0007992
1618	0.0007215
1630	0.0005513
1642	0.0004625
1654	0.0005513
1666	0.0005143
1678	0.0004033
1690	0.0002405
1702	0.0002183
1714	0.0001517
1726	0.0001628
1738	0.0001221
1750	0.0001517
1762	0.0001665
1774	0.0001443
1786	0.0001961
1798	0.0002368
1810	0.0002516
1822	0.000296
1834	0.0003182
1846	0.0002997
1858	0.0002331
1870	0.000222
1882	0.0001443
1894	0.0001258
1906	0.0001184
1918	0.0001221
1930	0.0001258
1942	0.0001332
1954	8.88e-05
1966	7.4e-05
1978	8.88e-05
1990	5.92e-05
2002	8.51e-05
2014	7.77e-05
2026	6.29e-05
2038	5.18e-05
2050	8.88e-05
2062	0.000111
2074	9.62e-05
2086	7.4e-05
2098	7.4e-06
2110	2.22e-05
2122	1.11e-05
2134	2.96e-05
2146	2.96e-05
2158	7.03e-05
2170	4.81e-05
2182	2.59e-05
2194	5.55e-05
2206	2.59e-05
2218	2.96e-05
2230	4.44e-05
2242	8.14e-05
2254	7.03e-05
2266	7.03e-05
2278	6.29e-05
2290	7.77e-05
2302	5.55e-05
2314	7.03e-05
2326	9.62e-05
2338	0.000148
2350	8.88e-05
2362	0.0001258
2374	0.0001221
2386	0.0001776
2398	0.0001739
2410	0.0002183
2422	0.0002072
2434	0.0001961
2446	0.0001591
2458	0.0001628
2470	0.0002035
2482	0.0001702
2494	0.0001961
2506	0.0001702
2518	0.0001961
2530	0.0001628
2542	0.000148
2554	0.0001369
2566	0.0002146
2578	0.0002886
2590	0.0002664
2602	0.0003108
2614	0.0003293
2626	0.0002997
2638	0.0003256
2650	0.0002997
2662	0.0003367
2674	0.0004144
2686	0.0004218
2698	0.0004403
2710	0.0006179
2722	0.0007918
2734	0.0010249
2746	0.001073
2758	0.0009768
2770	0.0009435
2782	0.0010138
2794	0.0011063
2806	0.0014615
2818	0.0017982
2830	0.00222
2842	0.0031228
2854	0.0053613
2866	0.0098827
2878	0.0137566
2890	0.0143597
2902	0.0139305
2914	0.0158323
2926	0.0204166
2938	0.0234543
2950	0.0262071
2962	0.0347689
2974	0.0349946
2986	0.0210012
2998	0.01036
3010	0.0075332
3022	0.0066859
3034	0.0056425
3046	0.0041773
3058	0.0029341
3070	0.0021608
3082	0.0016132
3094	0.00148
3106	0.0013394
3118	0.0011322
3130	0.0009213
3142	0.000888
3154	0.0007696
3166	0.0007326
3178	0.0007363
3190	0.0006068
3202	0.0005476
3214	0.000518
3226	0.0003922
3238	0.0003811
3250	0.0003219
3262	0.0003219
3274	0.0002479
3286	0.0002775
3298	0.000185
3310	0.000185
3322	0.0003145
3334	0.0002368
3346	0.0002479
3358	0.0002331
3370	0.0001702
3382	0.0001073
3394	0.0001517
3406	0.0001813
3418	0.0001702
3430	0.0001258
3442	0.0001628
3454	0.0001628
3466	0.0001961
3478	0.0002183
3490	0.0001739
3502	0.0002109
3514	0.0001776
3526	0.0001702
3538	8.51e-05
3550	0.0002331
3562	0.0001665
3574	0.0001406
3586	0.0001332
3598	0.000148
3610	0.0001073
3622	0.0001998
3634	0.000111
3646	0.0001147
3658	8.88e-05
3670	0.0002072
3682	0.0001406
3694	4.81e-05
3706	0.0001554
3718	0.0001036
3730	0.0001332
3742	0.0001554
3754	0.0001665
3766	0.0001739
3778	0.0002035
3790	0.0001221
3802	0.000185
3814	0.0002331
3826	0.0002183
3838	0.0002183
