Infrared Spectrum: 2,2'-Thiodisuccinic acid
Formula: C8 H10 O8 S
CAS: 4917-76-4
State: SOLID (SPLIT MULL), FLUOROLUBE FOR 3800-1330 CM^-^1, NUJOL FOR 1330-400 CM^-^1
Melting point: 210 C (DECOMPOSES)
Class: COBLENTZ II
Instrument: DOW KBr FOREPRISM-GRATING
Instrument parameters: BLAZED AT 3.5, 12.0, 20.0 MICRON AND CHANGED AT 5.0, 7.5, 14.9 MICRON
Sampling: TRANSMISSION
Resolution: 2
Origin: DOW CHEMICAL COMPANY
1/CM	TRANSMITTANCE
3800	0.8877
3791	0.8881
3782	0.8877
3773	0.8866
3764	0.8852
3755	0.8875
3746	0.8923
3737	0.8921
3728	0.8917
3719	0.8912
3710	0.8909
3701	0.8904
3692	0.8901
3683	0.8896
3674	0.8891
3665	0.8886
3656	0.8882
3647	0.8877
3638	0.8873
3629	0.8868
3620	0.8865
3611	0.886
3602	0.8856
3593	0.8852
3584	0.8843
3575	0.8832
3566	0.8821
3557	0.881
3548	0.8799
3539	0.8788
3530	0.8777
3521	0.8768
3512	0.8761
3503	0.8753
3494	0.8745
3485	0.8737
3476	0.8725
3467	0.8711
3458	0.8697
3449	0.8682
3440	0.8668
3431	0.8646
3422	0.8621
3413	0.8596
3404	0.8571
3395	0.854
3386	0.851
3377	0.8477
3368	0.8401
3359	0.8317
3350	0.8233
3341	0.8148
3332	0.8065
3323	0.7984
3314	0.7896
3305	0.7801
3296	0.7707
3287	0.7614
3278	0.7522
3269	0.7417
3260	0.7282
3251	0.7145
3242	0.7001
3233	0.686
3224	0.6717
3215	0.6581
3206	0.6445
3197	0.631
3188	0.6168
3179	0.6
3170	0.5833
3161	0.5664
3152	0.5499
3143	0.5334
3134	0.5169
3125	0.5003
3116	0.4848
3107	0.4704
3098	0.4556
3089	0.4459
3080	0.4397
3071	0.4356
3062	0.4291
3053	0.4201
3044	0.4039
3035	0.3941
3026	0.3896
3017	0.3873
3008	0.3875
2999	0.3891
2990	0.39
2981	0.3844
2972	0.3795
2963	0.3787
2954	0.3808
2945	0.3834
2936	0.3809
2927	0.3604
2918	0.343
2909	0.3453
2900	0.352
2891	0.3578
2882	0.3624
2873	0.3668
2864	0.3718
2855	0.3775
2846	0.3874
2837	0.3986
2828	0.4101
2819	0.4225
2810	0.4351
2801	0.449
2792	0.4603
2783	0.4688
2774	0.4754
2765	0.4796
2756	0.482
2747	0.4833
2738	0.4862
2729	0.4924
2720	0.4976
2711	0.5009
2702	0.4998
2693	0.4945
2684	0.4912
2675	0.4909
2666	0.4927
2657	0.4942
2648	0.4917
2639	0.4862
2630	0.4822
2621	0.4828
2612	0.4845
2603	0.4877
2594	0.4917
2585	0.497
2576	0.5025
2567	0.5083
2558	0.5142
2549	0.517
2540	0.5183
2531	0.521
2522	0.5285
2513	0.5389
2504	0.5523
2495	0.566
2486	0.5812
2477	0.5971
2468	0.6116
2459	0.6252
2450	0.6385
2441	0.6506
2432	0.6628
2423	0.6736
2414	0.6833
2405	0.6911
2396	0.698
2387	0.7042
2378	0.7093
2369	0.7144
2360	0.7187
2351	0.7207
2342	0.7221
2333	0.7234
2324	0.7274
2315	0.745
2306	0.7444
2297	0.7541
2288	0.7541
2279	0.7511
2270	0.7478
2261	0.7483
2252	0.7524
2243	0.7568
2234	0.7607
2225	0.7645
2216	0.7686
2207	0.7728
2198	0.7771
2189	0.7808
2180	0.7845
2171	0.7875
2162	0.7906
2153	0.7925
2144	0.7943
2135	0.7961
2126	0.7981
2117	0.8
2108	0.8018
2099	0.8037
2090	0.8054
2081	0.8071
2072	0.8087
2063	0.81
2054	0.8114
2045	0.8125
2036	0.814
2027	0.815
2018	0.8153
2009	0.8155
2000	0.815
1991	0.8147
1982	0.8157
1973	0.815
1964	0.8169
1955	0.8204
1946	0.8164
1937	0.8161
1928	0.8151
1919	0.8136
1910	0.8108
1901	0.8056
1892	0.8007
1883	0.7969
1874	0.7935
1865	0.7903
1856	0.7884
1847	0.7865
1838	0.7846
1829	0.7825
1820	0.7797
1811	0.7788
1802	0.7784
1793	0.778
1784	0.778
1775	0.7783
1766	0.773
1757	0.7576
1748	0.7255
1739	0.643
1730	0.3198
1721	0.1307
1712	0.0642
1703	0.0437
1694	0.0512
1685	0.2778
1676	0.4462
1667	0.5257
1658	0.5862
1649	0.623
1640	0.6661
1631	0.7097
1622	0.734
1613	0.7518
1604	0.7675
1595	0.7803
1586	0.7894
1577	0.7971
1568	0.8025
1559	0.8037
1550	0.8056
1541	0.8083
1532	0.8112
1523	0.8137
1514	0.8149
1505	0.8153
1496	0.8151
1487	0.8148
1478	0.8099
1469	0.7905
1460	0.7544
1451	0.6365
1442	0.4435
1433	0.4238
1424	0.2684
1415	0.3382
1406	0.5283
1397	0.654
1388	0.7426
1379	0.7654
1370	0.7701
1361	0.761
1352	0.734
1343	0.6508
1334	0.659
1325	0.501
1316	0.4138
1307	0.3053
1298	0.2498
1289	0.357
1280	0.4609
1271	0.518
1262	0.6403
1253	0.6428
1244	0.6187
1235	0.4257
1226	0.5807
1217	0.6648
1208	0.6668
1199	0.5321
1190	0.5937
1181	0.7014
1172	0.5374
1163	0.7211
1154	0.7497
1145	0.7726
1136	0.8046
1127	0.8158
1118	0.8231
1109	0.8296
1100	0.8301
1091	0.8275
1082	0.8224
1073	0.8091
1064	0.8169
1055	0.8216
1046	0.8246
1037	0.8249
1028	0.8228
1019	0.8171
1010	0.8095
1001	0.7624
992	0.7811
983	0.7608
974	0.6582
965	0.6607
956	0.6522
947	0.5991
938	0.5887
929	0.5897
920	0.5528
911	0.5325
902	0.5575
893	0.5941
884	0.6212
875	0.668
866	0.7149
857	0.7383
848	0.7671
839	0.7997
830	0.8126
821	0.839
812	0.8506
803	0.8616
794	0.8675
785	0.8497
776	0.8498
767	0.8637
758	0.881
749	0.884
740	0.8817
731	0.8758
722	0.858
713	0.8545
704	0.8542
695	0.8481
686	0.8658
677	0.8287
668	0.7267
659	0.745
650	0.816
641	0.828
632	0.7615
623	0.7794
614	0.7407
605	0.7676
596	0.8011
587	0.8239
578	0.8065
569	0.7484
560	0.7983
551	0.8147
542	0.8164
533	0.8015
524	0.8246
515	0.8331
506	0.8348
497	0.8361
488	0.835
479	0.831
470	0.8233
461	0.8081
452	0.7707
443	0.7398
434	0.72
425	0.7082
416	0.704
407	0.7025
398	0.7018
389	0.7019
