Infrared Spectrum: Imidazole-4-carboxamide, 5-formamido-
Formula: C5 H6 N4 O2
CAS: 4919-05-5
State: SOLID (0.5 mg / 650 mg KBr DISC)
Class: COBLENTZ III
Instrument: PERKIN-ELMER 21 (GRATING)
Instrument parameters: FILTER CHANGE ABOUT 1075 CM^-^1
Sampling: TRANSMISSION
Resolution: 2
Origin: SOUTHERN RESEARCH INSTITUTE
1/CM	TRANSMITTANCE
619	0.6494
628	0.6199
637	0.6011
646	0.5324
655	0.4762
664	0.6521
673	0.7553
682	0.7679
691	0.7226
700	0.7168
709	0.7437
718	0.732
727	0.6408
736	0.6104
745	0.5804
754	0.5178
763	0.5485
772	0.5744
781	0.5388
790	0.5544
799	0.6894
808	0.7306
817	0.7539
826	0.742
835	0.8169
844	0.8156
853	0.7973
862	0.7534
871	0.6603
880	0.7282
889	0.8253
898	0.8434
907	0.8395
916	0.8299
925	0.8092
934	0.7812
943	0.5996
952	0.6081
961	0.8473
970	0.8428
979	0.839
988	0.8397
997	0.8241
1006	0.8005
1015	0.7617
1024	0.7286
1033	0.7149
1042	0.697
1051	0.607
1060	0.532
1069	0.6184
1078	0.6368
1087	0.6761
1096	0.6622
1105	0.6439
1114	0.5614
1123	0.5096
1132	0.5779
1141	0.4833
1150	0.6515
1159	0.7202
1168	0.7218
1177	0.7182
1186	0.7124
1195	0.7051
1204	0.6942
1213	0.6703
1222	0.5566
1231	0.6054
1240	0.7032
1249	0.6885
1258	0.5669
1267	0.6441
1276	0.6652
1285	0.6495
1294	0.6343
1303	0.6147
1312	0.5906
1321	0.5558
1330	0.4777
1339	0.3398
1348	0.1515
1357	0.14
1366	0.0926
1375	0.0902
1384	0.1522
1393	0.3057
1402	0.4529
1411	0.5865
1420	0.6233
1429	0.641
1438	0.65
1447	0.6513
1456	0.6421
1465	0.6268
1474	0.5391
1483	0.4426
1492	0.3553
1501	0.4389
1510	0.502
1519	0.5721
1528	0.576
1537	0.5554
1546	0.5426
1555	0.3994
1564	0.353
1573	0.3538
1582	0.3367
1591	0.1628
1600	0.0727
1609	0.0525
1618	0.0956
1627	0.2291
1636	0.206
1645	0.2083
1654	0.2065
1663	0.1381
1672	0.0904
1681	0.1047
1690	0.4384
1699	0.5695
1708	0.67
1717	0.7345
1726	0.7788
1735	0.8145
1744	0.8419
1753	0.8707
1762	0.8936
1771	0.9047
1780	0.9097
1789	0.9174
1798	0.9318
1807	0.9482
1816	0.9566
1825	0.9608
1834	0.9633
1843	0.9642
1852	0.9635
1861	0.9613
1870	0.962
1879	0.9601
1888	0.9581
1897	0.9517
1906	0.9479
1915	0.9487
1924	0.9503
1933	0.9531
1942	0.9547
1951	0.9553
1960	0.9542
1969	0.951
1978	0.948
1987	0.9465
1996	0.944
2005	0.9417
2014	0.9396
2023	0.9385
2032	0.938
2041	0.9379
2050	0.9381
2059	0.9386
2068	0.9385
2077	0.9374
2086	0.9331
2095	0.9293
2104	0.9265
2113	0.9247
2122	0.9226
2131	0.9196
2140	0.9168
2149	0.9149
2158	0.9125
2167	0.9104
2176	0.9088
2185	0.9072
2194	0.9057
2203	0.9036
2212	0.9008
2221	0.8974
2230	0.8933
2239	0.8882
2248	0.8806
2257	0.8769
2266	0.8777
2275	0.8791
2284	0.8785
2293	0.8729
2302	0.8681
2311	0.8648
2320	0.8628
2329	0.862
2338	0.8614
2347	0.8607
2356	0.8599
2365	0.8595
2374	0.8591
2383	0.859
2392	0.8591
2401	0.8577
2410	0.8532
2419	0.8498
2428	0.8469
2437	0.8419
2446	0.8382
2455	0.835
2464	0.8342
2473	0.8335
2482	0.8335
2491	0.8315
2500	0.8296
2509	0.8277
2518	0.8257
2527	0.8237
2536	0.8216
2545	0.8195
2554	0.8172
2563	0.8152
2572	0.8108
2581	0.8046
2590	0.7985
2599	0.7934
2608	0.7894
2617	0.7853
2626	0.7805
2635	0.7755
2644	0.7705
2653	0.7656
2662	0.7626
2671	0.7613
2680	0.7584
2689	0.7579
2698	0.7575
2707	0.758
2716	0.759
2725	0.7594
2734	0.7513
2743	0.7439
2752	0.7391
2761	0.7296
2770	0.7194
2779	0.7133
2788	0.7086
2797	0.7055
2806	0.7025
2815	0.6988
2824	0.6938
2833	0.6877
2842	0.6818
2851	0.6775
2860	0.6735
2869	0.6618
2878	0.6424
2887	0.6287
2896	0.6209
2905	0.6128
2914	0.6056
2923	0.6017
2932	0.5963
2941	0.5893
2950	0.5787
2959	0.572
2968	0.5706
2977	0.561
2986	0.5551
2995	0.542
3004	0.5293
3013	0.5166
3022	0.5033
3031	0.4854
3040	0.4683
3049	0.4465
3058	0.426
3067	0.4078
3076	0.3834
3085	0.3567
3094	0.3282
3103	0.3071
3112	0.2961
3121	0.2893
3130	0.2877
3139	0.2882
3148	0.2888
3157	0.2885
3166	0.2878
3175	0.2797
3184	0.2666
3193	0.2522
3202	0.238
3211	0.219
3220	0.1917
3229	0.1634
3238	0.1457
3247	0.1383
3256	0.141
3265	0.1433
3274	0.1505
3283	0.1629
3292	0.1998
3301	0.2546
3310	0.2793
3319	0.3022
3328	0.3267
3337	0.3294
3346	0.3269
3355	0.3242
3364	0.3228
3373	0.3297
3382	0.3604
3391	0.4055
3400	0.4745
3409	0.5223
3418	0.5569
3427	0.5889
3436	0.6151
3445	0.6343
3454	0.6497
3463	0.6654
3472	0.6798
3481	0.6979
3490	0.7074
3499	0.7355
3508	0.742
3517	0.7454
3526	0.7578
3535	0.7645
3544	0.7758
3553	0.7798
3562	0.79
3571	0.8063
3580	0.8238
3589	0.8316
3598	0.835
3607	0.8382
3616	0.8411
3625	0.8412
3634	0.84
3643	0.8384
3652	0.837
3661	0.8354
3670	0.8336
3679	0.8318
3688	0.8299
3697	0.8282
3706	0.825
3715	0.8214
3724	0.8215
3733	0.8225
3742	0.8245
3751	0.8275
3760	0.8285
3769	0.8263
3778	0.8233
3787	0.8153
3796	0.8108
3805	0.8087
3814	0.8092
3823	0.8105
3832	0.8085
3841	0.8035
3850	0.8033
3859	0.8051
3868	0.8055
3877	0.8046
3886	0.8042
3895	0.8046
3904	0.8037
3913	0.8007
3922	0.7978
3931	0.7976
3940	0.7982
3949	0.7995
3958	0.8014
3967	0.7967
3976	0.7982
3985	0.8024
3994	0.8124
