Infrared Spectrum: 4-Hydroxy-3,5-dimethylbenzoic acid
Formula: C 9 H 10 O 3
CAS: 4919-37-3
State: gas
Origin: EPA-IR VAPOR PHASE LIBRARY
1/CM	ABSORBANCE
549.9	0.01229
559.547	0.0118
569.193	0.01788
578.84	0.0328
588.486	0.04318
598.133	0.02968
607.779	0.01781
617.426	0.01046
627.072	0.00968
636.719	0.01373
646.365	0.03278
656.012	0.07329
665.658	0.04223
675.305	0.00739
684.951	0.00416
694.598	0.0030355
704.245	0.0027705
713.891	0.0029991
723.538	0.002907
733.184	0.0031493
742.831	0.00545
752.477	0.01358
762.124	0.02977
771.77	0.04204
781.417	0.02193
791.063	0.00872
800.71	0.00483
810.356	0.00395
820.003	0.00412
829.649	0.00388
839.296	0.00334
848.943	0.0030458
858.589	0.00331
868.236	0.00416
877.882	0.00454
887.529	0.00683
897.175	0.01162
906.822	0.01483
916.468	0.01349
926.115	0.01507
935.761	0.01733
945.408	0.01433
955.054	0.00847
964.701	0.00698
974.347	0.00804
983.994	0.01094
993.64	0.01506
1003.29	0.0158
1012.93	0.0143
1022.58	0.0132
1032.23	0.01104
1041.87	0.01033
1051.52	0.01021
1061.17	0.01013
1070.81	0.0122
1080.46	0.0205
1090.11	0.04245
1099.75	0.072
1109.4	0.06614
1119.05	0.04355
1128.69	0.08007
1138.34	0.21902
1147.99	0.28581
1157.63	0.17128
1167.28	0.11966
1176.92	0.08964
1186.57	0.07793
1196.22	0.10618
1205.86	0.07896
1215.51	0.03597
1225.16	0.02591
1234.8	0.019
1244.45	0.0143
1254.1	0.02304
1263.74	0.03417
1273.39	0.03017
1283.04	0.02733
1292.68	0.03681
1302.33	0.04596
1311.98	0.05092
1321.62	0.05577
1331.27	0.05712
1340.92	0.06765
1350.56	0.07438
1360.21	0.05854
1369.86	0.06027
1379.5	0.05095
1389.15	0.02942
1398.79	0.01749
1408.44	0.01448
1418.09	0.02182
1427.73	0.02822
1437.38	0.02435
1447.03	0.02212
1456.67	0.02184
1466.32	0.0232
1475.97	0.03064
1485.61	0.04031
1495.26	0.03248
1504.91	0.01637
1514.55	0.00983
1524.2	0.00772
1533.85	0.00726
1543.49	0.00703
1553.14	0.00637
1562.79	0.00618
1572.43	0.00783
1582.08	0.01294
1591.73	0.02466
1601.37	0.04027
1611.02	0.0384
1620.67	0.02119
1630.31	0.01108
1639.96	0.00644
1649.6	0.00541
1659.25	0.00537
1668.9	0.00563
1678.54	0.00616
1688.19	0.00837
1697.84	0.01326
1707.48	0.0152
1717.13	0.01433
1726.78	0.01815
1736.42	0.05375
1746.07	0.20874
1755.72	0.32545
1765.36	0.15833
1775.01	0.03186
1784.66	0.01761
1794.3	0.01591
1803.95	0.01751
1813.6	0.01508
1823.24	0.00762
1832.89	0.00417
1842.54	0.00372
1852.18	0.00362
1861.83	0.0029388
1871.47	0.00232723
1881.12	0.0021938
1890.77	0.00223766
1900.41	0.0024852
1910.06	0.0028009
1919.71	0.0031538
1929.35	0.0028262
1939	0.0023809
1948.65	0.0023893
1958.29	0.0022097
1967.94	0.001998
1977.59	0.002023
1987.23	0.00193
1996.88	0.001802
2006.53	0.001896
2016.17	0.001994
2025.82	0.002092
2035.47	0.002017
2045.11	0.001814
2054.76	0.001964
2064.41	0.0023948
2074.05	0.0024564
2083.7	0.0021731
2093.35	0.002061
2102.99	0.001984
2112.64	0.001655
2122.28	0.001409
2131.93	0.001363
2141.58	0.001368
2151.22	0.001359
2160.87	0.001386
2170.52	0.001457
2180.16	0.001682
2189.81	0.001959
2199.46	0.002071
2209.1	0.002089
2218.75	0.002085
2228.4	0.002088
2238.04	0.0021508
2247.69	0.002071
2257.34	0.001927
2266.98	0.001924
2276.63	0.002068
2286.28	0.002147
2295.92	0.0021314
2305.57	0.002057
2315.22	0.002013
2324.86	0.002018
2334.51	0.001982
2344.16	0.001897
2353.8	0.001924
2363.45	0.002021
2373.09	0.001907
2382.74	0.001704
2392.39	0.001678
2402.03	0.0018
2411.68	0.001961
2421.33	0.0021884
2430.97	0.0023875
2440.62	0.0024183
2450.27	0.0025324
2459.91	0.0025095
2469.56	0.0023826
2479.21	0.002209
2488.85	0.002073
2498.5	0.00186
2508.15	0.001827
2517.79	0.001875
2527.44	0.001895
2537.09	0.001795
2546.73	0.001577
2556.38	0.001442
2566.03	0.001418
2575.67	0.001403
2585.32	0.001454
2594.96	0.001456
2604.61	0.001405
2614.26	0.0014
2623.9	0.001476
2633.55	0.00157
2643.2	0.00183
2652.84	0.001936
2662.49	0.001897
2672.14	0.001875
2681.78	0.001869
2691.43	0.001651
2701.08	0.001628
2710.72	0.001643
2720.37	0.001746
2730.02	0.001671
2739.66	0.002121
2749.31	0.0026932
2758.96	0.00229221
2768.6	0.001521
2778.25	0.001357
2787.9	0.00113
2797.54	0.001288
2807.19	0.001467
2816.84	0.001903
2826.48	0.0025636
2836.13	0.00337
2845.77	0.00503
2855.42	0.00837
2865.07	0.01276
2874.71	0.01478
2884.36	0.01363
2894.01	0.01207
2903.65	0.01312
2913.3	0.01736
2922.95	0.0238
2932.59	0.02889
2942.24	0.025
2951.89	0.01655
2961.53	0.01321
2971.18	0.01263
2980.83	0.01399
2990.47	0.01351
3000.12	0.00896
3009.77	0.00531
3019.41	0.00415
3029.06	0.00398
3038.71	0.00432
3048.35	0.00533
3058	0.00686
3067.64	0.00673
3077.29	0.00478
3086.94	0.0030113
3096.58	0.00230983
3106.23	0.001766
3115.88	0.001465
3125.52	0.001261
3135.17	0.00081
3144.82	0.00043
3154.46	0.00024
3164.11	0.00019
3173.76	0.00024
3183.4	0.00016
3193.05	0.00016
3202.7	0.0005
3212.34	0.00038
3221.99	0.00036
3231.64	0.00035
3241.28	0.00027
3250.93	0.00028
3260.58	0.00021
3270.22	0.0002
3279.87	0.00015
3289.52	0.0002
3299.16	0.00031
3308.81	0.00052
3318.45	0.00069
3328.1	0.00074
3337.75	0.00061
3347.39	0.00098
3357.04	0.0009
3366.69	0.00081
3376.33	0.00075
3385.98	0.00069
3395.63	0.00068
3405.27	0.00067
3414.92	0.00087
3424.57	0.001
3434.21	0.00087
3443.86	0.00095
3453.51	0.00097
3463.15	0.00107
3472.8	0.001467
3482.45	0.00229389
3492.09	0.0028094
3501.74	0.002051
3511.39	0.001382
3521.03	0.00121
3530.68	0.001316
3540.33	0.001537
3549.97	0.0021671
3559.62	0.00377
3569.26	0.01601
3578.91	0.07711
3588.56	0.08714
3598.2	0.0185
3607.85	0.00484
3617.5	0.0063
3627.14	0.0154
3636.79	0.03992
3646.44	0.06081
3656.08	0.03596
3665.73	0.00784
3675.38	0.0028911
3685.02	0.002112
3694.67	0.001748
3704.32	0.00145
3713.96	0.001258
3723.61	0.001301
3733.26	0.001338
3742.9	0.001311
3752.55	0.001258
3762.2	0.00121
3771.84	0.0011
3781.49	0.00113
3791.13	0.00116
3800.78	0.00114
3810.43	0.00116
3820.07	0.0012
3829.72	0.001249
3839.37	0.001391
3849.01	0.001348
3858.66	0.001402
3868.31	0.001411
3877.95	0.001339
3887.6	0.00136
3897.25	0.001433
3906.89	0.001398
3916.54	0.001399
3926.19	0.001347
3935.83	0.001527
3945.48	0.001469
3955.13	0.001511
3964.77	0.001695
3974.42	0.001692
3984.07	0.001712
3993.71	0.001786
