Infrared Spectrum: (1R,2S)-(-)-Norephedrine
Formula: C 9 H 13 N O
CAS: 492-41-1
State: gas
Origin: EPA-IR VAPOR PHASE LIBRARY
1/CM	ABSORBANCE
549.8	0.0060699
559.445	0.0060099
569.09	0.0044499
578.734	0.0043399
588.379	0.0042399
598.024	0.0042299
607.669	0.0053299
617.313	0.0081799
626.958	0.0092899
636.603	0.0076799
646.248	0.0066099
655.893	0.0077899
665.537	0.0091799
675.182	0.0104299
684.827	0.0157399
694.472	0.0294699
704.116	0.0329999
713.761	0.0215599
723.406	0.0174099
733.051	0.0227299
742.695	0.0273699
752.34	0.0265499
761.985	0.0223699
771.63	0.0197499
781.275	0.0199099
790.919	0.0196399
800.564	0.0184199
810.209	0.0158499
819.854	0.0138699
829.498	0.0120499
839.143	0.0100599
848.788	0.0087499
858.433	0.0081299
868.078	0.0071299
877.722	0.0056699
887.367	0.0051199
897.012	0.0044499
906.657	0.0049699
916.301	0.0050799
925.946	0.0051399
935.591	0.0058799
945.236	0.0065199
954.88	0.0057899
964.525	0.0057899
974.17	0.0072299
983.815	0.0104999
993.46	0.0138899
1003.1	0.0159699
1012.75	0.0200899
1022.39	0.0246199
1032.04	0.0251499
1041.68	0.0231999
1051.33	0.0189999
1060.97	0.0150399
1070.62	0.0113599
1080.26	0.0101799
1089.91	0.0089599
1099.55	0.0092799
1109.2	0.0111999
1118.84	0.0114099
1128.49	0.0094499
1138.13	0.0078799
1147.78	0.0068499
1157.42	0.0068799
1167.07	0.0080099
1176.71	0.0090299
1186.36	0.0110199
1196	0.0129699
1205.64	0.0133399
1215.29	0.0119699
1224.93	0.0117699
1234.58	0.0115199
1244.22	0.0102299
1253.87	0.0092499
1263.51	0.0084299
1273.16	0.0087199
1282.8	0.0087999
1292.45	0.0092099
1302.09	0.0102299
1311.74	0.0113099
1321.38	0.0116099
1331.03	0.0104099
1340.67	0.0086499
1350.32	0.0077999
1359.96	0.0085799
1369.61	0.0116999
1379.25	0.0145799
1388.9	0.0136599
1398.54	0.0104599
1408.18	0.0076499
1417.83	0.0055699
1427.47	0.0048799
1437.12	0.0063599
1446.76	0.0101399
1456.41	0.0110299
1466.05	0.0076199
1475.7	0.0054099
1485.34	0.0067599
1494.99	0.0078099
1504.63	0.0050499
1514.28	0.0029099
1523.92	0.0026599
1533.57	0.0028299
1543.21	0.0027799
1552.86	0.0028099
1562.5	0.0027199
1572.15	0.0033199
1581.79	0.0040199
1591.44	0.0056899
1601.08	0.0079599
1610.73	0.0090799
1620.37	0.0090099
1630.01	0.0074699
1639.66	0.0052599
1649.3	0.0035199
1658.95	0.0025799
1668.59	0.0020999
1678.24	0.0017299
1687.88	0.0013299
1697.53	0.0011599
1707.17	0.0011799
1716.82	0.0012099
1726.46	0.0011799
1736.11	0.0010299
1745.75	0.0012399
1755.4	0.0012599
1765.04	0.0011299
1774.69	0.0010399
1784.33	0.0011599
1793.98	0.0017499
1803.62	0.0019999
1813.27	0.0015099
1822.91	0.0010799
1832.55	0.000854
1842.2	0.0007446
1851.84	0.0007731
1861.49	0.0011499
1871.13	0.0014299
1880.78	0.0015399
1890.42	0.0015499
1900.07	0.0010499
1909.71	0.0007372
1919.36	0.000759
1929	0.0010699
1938.65	0.0016299
1948.29	0.0018699
1957.94	0.0015199
1967.58	0.0009652
1977.23	0.0005056
1986.87	0.0005028
1996.52	0.0003632
2006.16	0.0004372
2015.81	0.0003501
2025.45	0.0003615
2035.1	0.0004001
2044.74	0.0003539
2054.38	0.0003479
2064.03	0.0002566
2073.67	0.0002973
2083.32	0.000253
2092.96	0.0003637
2102.61	0.0002909
2112.25	0.0002415
2121.9	0.0002811
2131.54	0.0001291
2141.19	0.000216
2150.83	0.0003027
2160.48	0.0002597
2170.12	0.0003315
2179.77	0.0003388
2189.41	0.000154
2199.06	0.0001447
2208.7	0.0003096
2218.35	0.0003394
2227.99	0.0001971
2237.64	0.0003776
2247.28	0.0003084
2256.92	0.0001967
2266.57	0.0003313
2276.21	0.0001989
2285.86	0.0002945
2295.5	0.0002547
2305.15	0.0003794
2314.79	0.0005819
2324.44	0.0004529
2334.08	0.0005268
2343.73	0.0005036
2353.37	0.0004239
2363.02	0.0003347
2372.66	0.0003314
2382.31	0.0004039
2391.95	0.0004356
2401.6	0.0003371
2411.24	0.0003318
2420.89	0.0003515
2430.53	0.0004192
2440.18	0.0004309
2449.82	0.0004386
2459.47	0.0003432
2469.11	0.0004755
2478.75	0.0004344
2488.4	0.0004101
2498.04	0.000387
2507.69	0.000393
2517.33	0.0004889
2526.98	0.000423
2536.62	0.0005091
2546.27	0.0005367
2555.91	0.0005171
2565.56	0.000684
2575.2	0.0007173
2584.85	0.0008886
2594.49	0.0009059
2604.14	0.0008721
2613.78	0.0008825
2623.43	0.0009093
2633.07	0.0010187
2642.72	0.0009599
2652.36	0.0009054
2662.01	0.0007595
2671.65	0.0007596
2681.29	0.0007236
2690.94	0.0009397
2700.58	0.0010069
2710.23	0.0010799
2719.87	0.0010699
2729.52	0.0010999
2739.16	0.0013599
2748.81	0.0012599
2758.45	0.0012199
2768.1	0.0016099
2777.74	0.0017099
2787.39	0.0019799
2797.03	0.0020699
2806.68	0.0024099
2816.32	0.0030199
2825.97	0.0039899
2835.61	0.0056899
2845.26	0.0075199
2854.9	0.0095899
2864.55	0.0121799
2874.19	0.0161099
2883.84	0.0187999
2893.48	0.0183699
2903.12	0.0169799
2912.77	0.0153699
2922.41	0.0139499
2932.06	0.0135999
2941.7	0.0122499
2951.35	0.0101699
2960.99	0.0147099
2970.64	0.0202799
2980.28	0.0181599
2989.93	0.0126599
2999.57	0.0076799
3009.22	0.0054599
3018.86	0.0077799
3028.51	0.0131099
3038.15	0.0145799
3047.8	0.0108199
3057.44	0.0111999
3067.09	0.0168299
3076.73	0.0170799
3086.38	0.0112699
3096.02	0.0079199
3105.67	0.0051399
3115.31	0.0028899
3124.95	0.0015199
3134.6	0.0011299
3144.24	0.00092
3153.89	0.000938
3163.53	0.0008881
3173.18	0.0007928
3182.82	0.0006755
3192.47	0.0007465
3202.11	0.0008617
3211.76	0.0003823
3221.4	0.0004904
3231.05	0.0004918
3240.69	0.0003633
3250.34	0.0004646
3259.98	0.0003525
3269.63	0.0003272
3279.27	0.0004153
3288.92	0.0004013
3298.56	0.0005412
3308.21	0.0004198
3317.85	0.0004421
3327.49	0.0005669
3337.14	0.0010067
3346.78	0.0008235
3356.43	0.0006601
3366.07	0.000897
3375.72	0.0006756
3385.36	0.0008095
3395.01	0.0009648
3404.65	0.0014899
3414.3	0.0016999
3423.94	0.0013599
3433.59	0.0011699
3443.23	0.0013299
3452.88	0.0012399
3462.52	0.0013799
3472.17	0.0013799
3481.81	0.0012199
3491.46	0.0012099
3501.1	0.0016699
3510.75	0.0019999
3520.39	0.0036399
3530.04	0.0052799
3539.68	0.0050399
3549.32	0.0037099
3558.97	0.0023899
3568.61	0.0022399
3578.26	0.0017199
3587.9	0.0016299
3597.55	0.0015899
3607.19	0.0017099
3616.84	0.0015399
3626.48	0.0020899
3636.13	0.0037599
3645.77	0.0066299
3655.42	0.0070299
3665.06	0.0039399
3674.71	0.0018799
3684.35	0.0012899
3694	0.000884
3703.64	0.0007924
3713.29	0.0007523
3722.93	0.0008042
3732.58	0.0005616
3742.22	0.0007113
3751.86	0.0001829
3761.51	0.0004321
3771.15	0.0004625
3780.8	0.0006475
3790.44	0.0001642
3800.09	0.0002874
3809.73	0.0006935
3819.38	0.0003465
3829.02	0.0004451
3838.67	0.0002921
3848.31	0.0006307
3857.96	0.0003196
3867.6	0.0006644
3877.25	0.0006679
3886.89	0.0003115
3896.54	0.0003889
3906.18	0.0004651
3915.83	0.0007741
3925.47	0.0006716
3935.12	0.000201
3944.76	0.0001217
3954.41	0.000138
3964.05	0.0005538
3973.69	0.000607
3983.34	0.0002681
3992.98	3.23e-05
