Infrared Spectrum: 1,2-Cyclohexenedione dioxime
Formula: C 6 H 10 N 2 O 2
CAS: 492-99-9
State: gas
Origin: EPA-IR VAPOR PHASE LIBRARY
1/CM	ABSORBANCE
549.8	0.000251
559.445	0.000209
569.09	0.000253
578.735	0.000309
588.38	0.000229
598.025	0.00079948
607.67	0.0014056
617.315	0.0011256
626.96	0.0010014
636.605	0.0010447
646.251	0.001802
655.896	0.002392
665.541	0.002132
675.186	0.0011326
684.831	0.0014738
694.476	0.002512
704.121	0.002312
713.766	0.0014616
723.411	0.0006821
733.056	0.000447
742.701	0.000517
752.346	0.000475
761.991	0.000426
771.636	0.000472
781.281	0.000496
790.926	0.0006257
800.571	0.0010204
810.216	0.002212
819.861	0.004952
829.507	0.010172
839.152	0.009502
848.797	0.005262
858.442	0.001972
868.087	0.003222
877.732	0.007692
887.377	0.009322
897.022	0.007772
906.667	0.001812
916.312	0.0010439
925.957	0.0012625
935.602	0.001902
945.247	0.002482
954.892	0.003392
964.537	0.003602
974.182	0.002992
983.827	0.002492
993.472	0.004862
1003.12	0.009322
1012.76	0.008802
1022.41	0.004752
1032.05	0.0013959
1041.7	0.0009218
1051.34	0.0008455
1060.99	0.0008648
1070.63	0.0009701
1080.28	0.000534
1089.92	0.000505
1099.57	0.000396
1109.21	0.000446
1118.86	0.00051
1128.5	0.000593
1138.15	0.0008392
1147.79	0.001156
1157.44	0.001752
1167.08	0.001742
1176.73	0.0013288
1186.37	0.0015063
1196.02	0.002792
1205.66	0.005202
1215.31	0.004882
1224.95	0.004402
1234.6	0.002412
1244.24	0.001712
1253.89	0.0012825
1263.53	0.0009953
1273.18	0.0010862
1282.82	0.0009188
1292.47	0.0009229
1302.11	0.0009534
1311.76	0.001036
1321.4	0.0012103
1331.05	0.0013936
1340.69	0.002032
1350.34	0.001972
1359.98	0.001722
1369.63	0.002002
1379.27	0.004612
1388.92	0.009952
1398.56	0.012362
1408.21	0.009752
1417.85	0.004932
1427.5	0.005722
1437.14	0.010312
1446.79	0.011452
1456.43	0.009622
1466.08	0.005172
1475.73	0.004102
1485.37	0.004642
1495.02	0.004422
1504.66	0.002912
1514.31	0.0010793
1523.95	0.0008402
1533.6	0.00079668
1543.24	0.0008761
1552.89	0.0008666
1562.53	0.0010525
1572.18	0.001583
1581.82	0.002032
1591.47	0.002182
1601.11	0.001461
1610.76	0.0012076
1620.4	0.0012783
1630.05	0.001342
1639.69	0.0014295
1649.34	0.001619
1658.98	0.0015715
1668.63	0.0013381
1678.27	0.0009205
1687.92	0.0008242
1697.56	0.00076614
1707.21	0.00079208
1716.85	0.0008549
1726.5	0.0008742
1736.14	0.0008913
1745.79	0.000922
1755.43	0.0009156
1765.08	0.0008767
1774.72	0.000886
1784.37	0.000876
1794.01	0.000856
1803.66	0.00077955
1813.3	0.00076615
1822.95	0.00077884
1832.59	0.00075973
1842.24	0.00074527
1851.88	0.00072267
1861.53	0.00073694
1871.17	0.000705364
1880.82	0.00076542
1890.46	0.000703533
1900.11	0.0006627
1909.75	0.00073269
1919.4	0.0006604
1929.04	0.00072565
1938.69	0.000709341
1948.33	0.00073956
1957.98	0.00079356
1967.62	0.00074508
1977.27	0.0008229
1986.91	0.00079424
1996.56	0.0008759
2006.2	0.0008112
2015.85	0.0008426
2025.49	0.0008734
2035.14	0.00079077
2044.78	0.00079406
2054.43	0.00078561
2064.07	0.000813
2073.72	0.0008565
2083.36	0.0009186
2093.01	0.0009591
2102.65	0.0009734
2112.3	0.000945
2121.94	0.0009072
2131.59	0.0009302
2141.23	0.00099
2150.88	0.0009963
2160.52	0.0009705
2170.17	0.0009634
2179.81	0.0010042
2189.46	0.000987
2199.1	0.0009665
2208.75	0.0009677
2218.39	0.0009618
2228.04	0.001054
2237.68	0.0011175
2247.33	0.0012034
2256.97	0.0013325
2266.62	0.00141
2276.26	0.0014773
2285.91	0.0013238
2295.55	0.0012147
2305.2	0.0010903
2314.84	0.0010133
2324.49	0.0010615
2334.13	0.0009861
2343.78	0.0010568
2353.42	0.0009674
2363.07	0.0010001
2372.72	0.001003
2382.36	0.0010551
2392.01	0.0010512
2401.65	0.0010469
2411.3	0.0010113
2420.94	0.0009899
2430.59	0.0008996
2440.23	0.000874
2449.88	0.0009768
2459.52	0.0009772
2469.17	0.0009946
2478.81	0.0009255
2488.46	0.0009122
2498.1	0.0009631
2507.75	0.0010238
2517.39	0.0009874
2527.04	0.0010037
2536.68	0.0009173
2546.33	0.0009556
2555.97	0.0009399
2565.62	0.0009999
2575.26	0.0009965
2584.91	0.0009974
2594.55	0.0008612
2604.2	0.0009993
2613.84	0.0010754
2623.49	0.001061
2633.13	0.0011669
2642.78	0.0012531
2652.42	0.0013008
2662.07	0.0014798
2671.71	0.001347
2681.36	0.0013297
2691	0.001145
2700.65	0.0010117
2710.29	0.0009663
2719.94	0.0010505
2729.58	0.0010124
2739.23	0.0010808
2748.87	0.0011207
2758.52	0.0012732
2768.16	0.0013548
2777.81	0.0015209
2787.45	0.0016677
2797.1	0.0016348
2806.74	0.001722
2816.39	0.001942
2826.03	0.002262
2835.68	0.002822
2845.32	0.003832
2854.97	0.006842
2864.61	0.012362
2874.26	0.016562
2883.9	0.012582
2893.55	0.008432
2903.19	0.007092
2912.84	0.008852
2922.48	0.013532
2932.13	0.021592
2941.77	0.032892
2951.42	0.052062
2961.06	0.056372
2970.71	0.038082
2980.35	0.012412
2990	0.004002
2999.64	0.002072
3009.29	0.0016695
3018.93	0.0016184
3028.58	0.001613
3038.22	0.0015896
3047.87	0.0014225
3057.51	0.0012981
3067.16	0.0012446
3076.8	0.0010638
3086.45	0.0009992
3096.09	0.00087
3105.74	0.00080106
3115.38	0.0008832
3125.03	0.0008987
3134.67	0.0009668
3144.32	0.0008345
3153.96	0.0008485
3163.61	0.0009862
3173.25	0.0009353
3182.9	0.0008515
3192.54	0.00072361
3202.19	0.0006313
3211.83	0.0008356
3221.48	0.00078087
3231.12	0.00073524
3240.77	0.000847
3250.41	0.0008891
3260.06	0.0009015
3269.7	0.0008148
3279.35	0.00079744
3289	0.00076324
3298.64	0.0006525
3308.29	0.0006296
3317.93	0.00079129
3327.58	0.0006825
3337.22	0.0008253
3346.87	0.00078954
3356.51	0.0006061
3366.16	0.000572
3375.8	0.000581
3385.45	0.0008273
3395.09	0.000834
3404.74	0.0006617
3414.38	0.000564
3424.03	0.0006321
3433.67	0.000688
3443.32	0.00079727
3452.96	0.000581
3462.61	0.0006604
3472.25	0.00079208
3481.9	0.00051
3491.54	0.0006204
3501.19	0.000589
3510.83	0.00072491
3520.48	0.0006839
3530.12	0.0006225
3539.77	0.00059
3549.41	0.0006122
3559.06	0.00075011
3568.7	0.0007532
3578.35	0.00057
3587.99	0.000541
3597.64	0.0007315
3607.28	0.0008235
3616.93	0.000688
3626.57	0.0008787
3636.22	0.0006809
3645.86	0.0006913
3655.51	0.0008253
3665.15	0.00075635
3674.8	0.0006
3684.44	0.00072647
3694.09	0.00070898
3703.73	0.0006875
3713.38	0.0009065
3723.02	0.0008705
3732.67	0.00077799
3742.31	0.0008211
3751.96	0.0009051
3761.6	0.00073495
3771.25	0.0008065
3780.89	0.0008681
3790.54	0.0009576
3800.18	0.0008966
3809.83	0.00077005
3819.47	0.0008678
3829.12	0.0008653
3838.76	0.0008866
3848.41	0.0008507
3858.05	0.0009
3867.7	0.0008618
3877.34	0.0008565
3886.99	0.0009982
3896.63	0.0010775
3906.28	0.0009479
3915.92	0.0009224
3925.57	0.000705664
3935.21	0.0009644
3944.86	0.0010662
3954.5	0.0008884
3964.15	0.0009191
3973.79	0.0009956
3983.44	0.0008556
3993.08	0.0009817
