Infrared Spectrum: BETA-D-GLUCOSE, ANHYDROUS
Formula: C6 H12 O6
CAS: 492-61-5
State: SOLID (KBr PELLET)
Class: COBLENTZ
Instrument: Not specified, most likely a prism, grating, or hybrid spectrometer.
Sampling: TRANSMISSION
Resolution: 4
Origin: U.S. DEPARTMENT OF AGRICULTURE, SOUTHERN REGIONAL RESEARCH LABORATORY
MICROMETERS	TRANSMITTANCE
2.031	0.827
2.06781	0.801
2.10462	0.793
2.14143	0.792
2.17824	0.792
2.21505	0.79
2.25185	0.784
2.28866	0.775
2.32547	0.772
2.36228	0.762
2.39909	0.756
2.4359	0.744
2.47271	0.731
2.50952	0.706
2.54633	0.689
2.58314	0.683
2.61995	0.668
2.65676	0.643
2.69356	0.62
2.73037	0.562
2.76718	0.483
2.80399	0.342
2.8408	0.204
2.87761	0.144
2.91442	0.105
2.95123	0.068
2.98804	0.044
3.02485	0.037
3.06166	0.031
3.09847	0.027
3.13527	0.029
3.17208	0.046
3.20889	0.075
3.2457	0.176
3.28251	0.258
3.31932	0.351
3.35613	0.381
3.39294	0.33
3.42975	0.283
3.46656	0.322
3.50337	0.375
3.54018	0.41
3.57698	0.438
3.61379	0.499
3.6506	0.513
3.68741	0.533
3.72422	0.576
3.76103	0.623
3.79784	0.643
3.83465	0.66
3.87146	0.7
3.90827	0.719
3.94508	0.734
3.98189	0.739
4.01869	0.744
4.0555	0.758
4.09231	0.795
4.12912	0.81
4.16593	0.831
4.20274	0.834
4.23955	0.837
4.27636	0.843
4.31317	0.848
4.34998	0.851
4.38679	0.86
4.4236	0.866
4.4604	0.871
4.49721	0.872
4.53402	0.872
4.57083	0.875
4.60764	0.874
4.64445	0.866
4.68126	0.863
4.71807	0.862
4.75488	0.863
4.79169	0.865
4.8285	0.871
4.86531	0.869
4.90211	0.866
4.93892	0.866
4.97573	0.866
5.01254	0.872
5.04935	0.869
5.08616	0.871
5.12297	0.868
5.15978	0.871
5.19659	0.872
5.2334	0.877
5.27021	0.883
5.30702	0.88
5.34382	0.88
5.38063	0.88
5.41744	0.877
5.45425	0.875
5.49106	0.872
5.52787	0.869
5.56468	0.869
5.60149	0.863
5.6383	0.86
5.67511	0.858
5.71192	0.852
5.74873	0.849
5.78553	0.843
5.82234	0.838
5.85915	0.835
5.89596	0.829
5.93277	0.821
5.96958	0.809
6.00639	0.793
6.0432	0.779
6.08001	0.768
6.11682	0.764
6.15363	0.759
6.19044	0.759
6.22724	0.762
6.26405	0.762
6.30086	0.761
6.33767	0.756
6.37448	0.747
6.41129	0.734
6.4481	0.722
6.48491	0.705
6.52172	0.691
6.55853	0.668
6.59534	0.649
6.63215	0.595
6.66895	0.555
6.70576	0.493
6.74257	0.482
6.77938	0.451
6.81619	0.427
6.853	0.336
6.88981	0.393
6.92662	0.427
6.96343	0.424
7.00024	0.389
7.03705	0.339
7.07386	0.33
7.11066	0.344
7.14747	0.341
7.18428	0.294
7.22109	0.22
7.2579	0.189
7.29471	0.181
7.33152	0.179
7.36833	0.241
7.40514	0.314
7.44195	0.418
7.47876	0.462
7.51557	0.499
7.55237	0.5
7.58918	0.421
7.62599	0.462
7.6628	0.562
7.69961	0.586
7.73642	0.575
7.77323	0.508
7.81004	0.373
7.84685	0.337
7.88366	0.401
7.92047	0.451
7.95728	0.458
7.99408	0.483
8.03089	0.545
8.0677	0.555
8.10451	0.539
8.14132	0.502
8.17813	0.517
8.21494	0.531
8.25175	0.5
8.28856	0.458
8.32537	0.491
8.36218	0.503
8.39898	0.502
8.43579	0.486
8.4726	0.458
8.50941	0.407
8.54622	0.337
8.58303	0.26
8.61984	0.162
8.65665	0.122
8.69346	0.217
8.73027	0.265
8.76708	0.248
8.80389	0.195
8.84069	0.137
8.8775	0.114
8.91431	0.079
8.95112	0.063
8.98793	0.054
9.02474	0.066
9.06155	0.128
9.09836	0.164
9.13517	0.159
9.17198	0.093
9.20879	0.054
9.2456	0.038
9.2824	0.075
9.31921	0.116
9.35602	0.134
9.39283	0.147
9.42964	0.151
9.46645	0.139
9.50326	0.108
9.54007	0.089
9.57688	0.069
9.61369	0.048
9.6505	0.04
9.68731	0.037
9.72411	0.038
9.76092	0.04
9.79773	0.035
9.83454	0.026
9.87135	0.029
9.90816	0.04
9.94497	0.052
9.98178	0.075
10.0186	0.116
10.0554	0.156
10.0922	0.192
10.129	0.227
10.1658	0.258
10.2026	0.3
10.2394	0.333
10.2763	0.364
10.3131	0.4
10.3499	0.426
10.3867	0.455
10.4235	0.475
10.4603	0.499
10.4971	0.52
10.5339	0.534
10.5707	0.555
10.6075	0.576
10.6443	0.587
10.6812	0.603
10.718	0.612
10.7548	0.623
10.7916	0.624
10.8284	0.62
10.8652	0.568
10.902	0.496
10.9388	0.48
10.9756	0.486
11.0124	0.424
11.0492	0.297
11.0861	0.243
11.1229	0.373
11.1597	0.435
11.1965	0.527
11.2333	0.578
11.2701	0.607
11.3069	0.632
11.3437	0.644
11.3805	0.657
11.4173	0.672
11.4541	0.688
11.491	0.693
11.5278	0.697
11.5646	0.697
11.6014	0.699
11.6382	0.702
11.675	0.711
11.7118	0.716
11.7486	0.722
11.7854	0.728
11.8222	0.731
11.859	0.733
11.8959	0.739
11.9327	0.742
11.9695	0.744
12.0063	0.745
12.0431	0.747
12.0799	0.748
12.1167	0.748
12.1535	0.75
12.1903	0.748
12.2271	0.745
12.2639	0.742
12.3008	0.737
12.3376	0.731
12.3744	0.725
12.4112	0.719
12.448	0.714
12.4848	0.71
12.5216	0.703
12.5584	0.699
12.5952	0.688
12.632	0.68
12.6688	0.669
12.7057	0.657
12.7425	0.652
12.7793	0.643
12.8161	0.631
12.8529	0.615
12.8897	0.604
12.9265	0.596
12.9633	0.587
13.0001	0.57
13.0369	0.559
13.0737	0.547
13.1106	0.534
13.1474	0.522
13.1842	0.51
13.221	0.493
13.2578	0.474
13.2946	0.455
13.3314	0.441
13.3682	0.429
13.405	0.421
13.4418	0.409
13.4786	0.398
13.5155	0.39
13.5523	0.384
13.5891	0.376
13.6259	0.372
13.6627	0.375
13.6995	0.376
13.7363	0.381
13.7731	0.39
13.8099	0.403
13.8467	0.404
13.8836	0.401
13.9204	0.393
13.9572	0.389
13.994	0.382
14.0308	0.378
14.0676	0.37
14.1044	0.376
14.1412	0.372
14.178	0.379
14.2148	0.382
14.2516	0.389
14.2885	0.392
14.3253	0.398
14.3621	0.404
14.3989	0.406
14.4357	0.417
14.4725	0.421
14.5093	0.426
14.5461	0.429
14.5829	0.435
14.6197	0.44
14.6565	0.446
14.6934	0.448
14.7302	0.452
14.767	0.455
14.8038	0.454
14.8406	0.46
14.8774	0.465
14.9142	0.465
14.951	0.466
14.9878	0.468
15.0246	0.471
15.0614	0.472
15.0983	0.472
15.1351	0.471
15.1719	0.469
15.2087	0.468
15.2455	0.465
15.2823	0.465
15.3191	0.457
15.3559	0.449
15.3927	0.444
