Infrared Spectrum: FURIL
Formula: C10 H6 O4
CAS: 492-94-4
State: SOLID (MINERAL OIL MULL)
Class: COBLENTZ
Instrument: Not specified, most likely a prism, grating, or hybrid spectrometer.
Sampling: TRANSMISSION
Resolution: 4
Origin: DOW CHEMICAL COMPANY
MICROMETERS	TRANSMITTANCE
2.11	0.731
2.15116	0.736
2.19231	0.738
2.23347	0.739
2.27462	0.738
2.31578	0.741
2.35693	0.75
2.39809	0.76
2.43924	0.763
2.4804	0.77
2.52155	0.777
2.56271	0.782
2.60386	0.785
2.64502	0.789
2.68617	0.796
2.72733	0.797
2.76848	0.799
2.80964	0.799
2.85079	0.797
2.89195	0.782
2.9331	0.787
2.97426	0.799
3.01541	0.801
3.05657	0.796
3.09772	0.792
3.13888	0.722
3.18003	0.722
3.22119	0.785
3.26234	0.784
3.3035	0.75
3.34465	0.494
3.38581	0.174
3.42696	0.226
3.46812	0.34
3.50927	0.679
3.55043	0.813
3.59158	0.835
3.63274	0.839
3.67389	0.839
3.71505	0.847
3.7562	0.851
3.79736	0.851
3.83851	0.861
3.87967	0.869
3.92083	0.871
3.96198	0.876
4.00314	0.876
4.04429	0.875
4.08545	0.88
4.1266	0.88
4.16776	0.878
4.20891	0.88
4.25007	0.88
4.29122	0.881
4.33238	0.888
4.37353	0.888
4.41469	0.888
4.45584	0.888
4.497	0.888
4.53815	0.89
4.57931	0.89
4.62046	0.89
4.66162	0.89
4.70277	0.893
4.74393	0.893
4.78508	0.897
4.82624	0.898
4.86739	0.898
4.90855	0.898
4.9497	0.902
4.99086	0.902
5.03201	0.902
5.07317	0.902
5.11432	0.902
5.15548	0.902
5.19663	0.902
5.23779	0.902
5.27894	0.902
5.3201	0.902
5.36125	0.902
5.40241	0.902
5.44356	0.902
5.48472	0.902
5.52587	0.902
5.56703	0.897
5.60818	0.895
5.64934	0.89
5.69049	0.881
5.73165	0.878
5.77281	0.888
5.81396	0.888
5.85512	0.88
5.89627	0.861
5.93743	0.82
5.97858	0.751
6.01974	0.484
6.06089	0.167
6.10205	0.306
6.1432	0.626
6.18436	0.688
6.22551	0.782
6.26667	0.833
6.30782	0.84
6.34898	0.83
6.39013	0.787
6.43129	0.768
6.47244	0.83
6.5136	0.868
6.55475	0.875
6.59591	0.881
6.63706	0.88
6.67822	0.863
6.71937	0.811
6.76053	0.717
6.80168	0.462
6.84284	0.255
6.88399	0.304
6.92515	0.648
6.9663	0.796
7.00746	0.839
7.04861	0.847
7.08977	0.72
7.13092	0.486
7.17208	0.458
7.21323	0.638
7.25439	0.666
7.29554	0.751
7.3367	0.799
7.37785	0.818
7.41901	0.818
7.46016	0.808
7.50132	0.811
7.54248	0.823
7.58363	0.823
7.62479	0.82
7.66594	0.816
7.7071	0.78
7.74825	0.616
7.78941	0.46
7.83056	0.698
7.87172	0.78
7.91287	0.809
7.95403	0.832
7.99518	0.839
8.03634	0.832
8.07749	0.796
8.11865	0.811
8.1598	0.842
8.20096	0.845
8.24211	0.847
8.28327	0.844
8.32442	0.84
8.36558	0.837
8.40673	0.832
8.44789	0.82
8.48904	0.801
8.5302	0.779
8.57135	0.755
8.61251	0.683
8.65366	0.65
8.69482	0.789
8.73597	0.811
8.77713	0.816
8.81828	0.823
8.85944	0.823
8.90059	0.823
8.94175	0.823
8.9829	0.82
9.02406	0.82
9.06521	0.818
9.10637	0.818
9.14752	0.809
9.18868	0.797
9.22983	0.715
9.27099	0.698
9.31214	0.818
9.3533	0.828
9.39446	0.837
9.43561	0.842
9.47677	0.847
9.51792	0.849
9.55908	0.842
9.60023	0.806
9.64139	0.707
9.68254	0.465
9.7237	0.277
9.76485	0.428
9.80601	0.652
9.84716	0.785
9.88832	0.821
9.92947	0.839
9.97063	0.849
10.0118	0.852
10.0529	0.852
10.0941	0.863
10.1352	0.873
10.1764	0.871
10.2176	0.873
10.2587	0.873
10.2999	0.873
10.341	0.873
10.3822	0.873
10.4233	0.873
10.4645	0.873
10.5056	0.857
10.5468	0.775
10.588	0.566
10.6291	0.494
10.6703	0.775
10.7114	0.839
10.7526	0.859
10.7937	0.871
10.8349	0.873
10.876	0.869
10.9172	0.832
10.9583	0.835
10.9995	0.873
11.0407	0.878
11.0818	0.868
11.123	0.845
11.1641	0.849
11.2053	0.871
11.2464	0.847
11.2876	0.719
11.3287	0.726
11.3699	0.845
11.4111	0.881
11.4522	0.885
11.4934	0.888
11.5345	0.888
11.5757	0.888
11.6168	0.866
11.658	0.832
11.6991	0.821
11.7403	0.84
11.7815	0.845
11.8226	0.854
11.8638	0.871
11.9049	0.88
11.9461	0.88
11.9872	0.88
12.0284	0.88
12.0695	0.878
12.1107	0.873
12.1518	0.847
12.193	0.756
12.2342	0.667
12.2753	0.595
12.3165	0.652
12.3576	0.799
12.3988	0.828
12.4399	0.842
12.4811	0.849
12.5222	0.852
12.5634	0.852
12.6046	0.847
12.6457	0.837
12.6869	0.821
12.728	0.797
12.7692	0.76
12.8103	0.703
12.8515	0.616
12.8926	0.506
12.9338	0.366
12.975	0.26
13.0161	0.277
13.0573	0.448
13.0984	0.558
13.1396	0.496
13.1807	0.39
13.2219	0.344
13.263	0.315
13.3042	0.316
13.3453	0.458
13.3865	0.599
13.4277	0.676
13.4688	0.703
13.51	0.719
13.5511	0.727
13.5923	0.732
13.6334	0.738
13.6746	0.738
13.7157	0.734
13.7569	0.726
13.7981	0.715
13.8392	0.688
13.8804	0.662
13.9215	0.652
13.9627	0.655
14.0038	0.69
14.045	0.71
14.0861	0.722
14.1273	0.729
14.1684	0.731
14.2096	0.731
14.2508	0.726
14.2919	0.719
14.3331	0.714
14.3742	0.707
14.4154	0.698
14.4565	0.691
14.4977	0.683
14.5388	0.674
14.58	0.672
14.6212	0.667
14.6623	0.66
14.7035	0.652
14.7446	0.65
14.7858	0.643
14.8269	0.631
14.8681	0.623
14.9092	0.614
14.9504	0.613
14.9916	0.609
15.0327	0.599
15.0739	0.592
15.115	0.587
15.1562	0.578
15.1973	0.57
15.2385	0.563
15.2796	0.556
15.3208	0.553
15.3619	0.546
15.4031	0.537
15.4443	0.53
15.4854	0.523
15.5266	0.518
15.5677	0.503
15.6089	0.498
15.65	0.491
15.6912	0.484
15.7323	0.477
15.7735	0.472
15.8147	0.469
15.8558	0.462
15.897	0.46
