Infrared Spectrum: 2-Chloro-4-nitroanisole
Formula: C 7 H 6 Cl N O 3
CAS: 4920-79-0
State: gas
Origin: EPA-IR VAPOR PHASE LIBRARY
1/CM	ABSORBANCE
549.8	0.001542
559.445	0.001682
569.09	0.001312
578.734	0.0009638
588.379	0.0010144
598.024	0.001322
607.669	0.001982
617.313	0.004852
626.958	0.019172
636.603	0.020402
646.248	0.005172
655.893	0.002502
665.537	0.002742
675.182	0.003052
684.827	0.006122
694.472	0.013842
704.116	0.037392
713.761	0.049932
723.406	0.022182
733.051	0.018572
742.695	0.028302
752.34	0.016812
761.985	0.007362
771.63	0.004582
781.275	0.005442
790.919	0.020072
800.564	0.022632
810.209	0.015902
819.854	0.017782
829.498	0.011252
839.143	0.006102
848.788	0.003592
858.433	0.003372
868.078	0.005112
877.722	0.012272
887.367	0.031862
897.012	0.040302
906.657	0.019652
916.301	0.005942
925.946	0.002362
935.591	0.002352
945.236	0.002992
954.88	0.003212
964.525	0.003742
974.17	0.005082
983.815	0.007372
993.46	0.011112
1003.1	0.019702
1012.75	0.033362
1022.39	0.040252
1032.04	0.028652
1041.68	0.021722
1051.33	0.052762
1060.97	0.068612
1070.62	0.035832
1080.26	0.014112
1089.91	0.008692
1099.55	0.008862
1109.2	0.014212
1118.84	0.028402
1128.49	0.039722
1138.13	0.045872
1147.78	0.027752
1157.42	0.009192
1167.07	0.005882
1176.71	0.007502
1186.36	0.008342
1196	0.006742
1205.64	0.006842
1215.29	0.008412
1224.93	0.012262
1234.58	0.018212
1244.22	0.030732
1253.87	0.062392
1263.51	0.146782
1273.16	0.242712
1282.8	0.144232
1292.45	0.043752
1302.09	0.041142
1311.74	0.042492
1321.38	0.030212
1331.03	0.052382
1340.67	0.170322
1350.32	0.244782
1359.96	0.103002
1369.61	0.049512
1379.25	0.029162
1388.9	0.016692
1398.54	0.014832
1408.18	0.013482
1417.83	0.013612
1427.47	0.019182
1437.12	0.035512
1446.76	0.042592
1456.41	0.034922
1466.05	0.047642
1475.7	0.066962
1485.34	0.126242
1494.99	0.142872
1504.63	0.073582
1514.28	0.058122
1523.92	0.069092
1533.57	0.128122
1543.21	0.186742
1552.86	0.121372
1562.5	0.048342
1572.15	0.047492
1581.79	0.075292
1591.44	0.093692
1601.08	0.053022
1610.73	0.023772
1620.37	0.011042
1630.01	0.007482
1639.66	0.006972
1649.3	0.006462
1658.95	0.004732
1668.59	0.003402
1678.24	0.002932
1687.88	0.002732
1697.53	0.002552
1707.17	0.002472
1716.82	0.002452
1726.46	0.002012
1736.11	0.001712
1745.75	0.001952
1755.4	0.002162
1765.04	0.001892
1774.69	0.002032
1784.33	0.002572
1793.98	0.003012
1803.62	0.002272
1813.27	0.001442
1822.91	0.001111
1832.55	0.00099
1842.2	0.0010827
1851.84	0.001292
1861.49	0.001532
1871.13	0.002132
1880.78	0.002712
1890.42	0.002532
1900.07	0.002082
1909.71	0.001632
1919.36	0.001222
1929	0.001232
1938.65	0.001212
1948.29	0.001202
1957.94	0.0011645
1967.58	0.001312
1977.23	0.001772
1986.87	0.002092
1996.52	0.001762
2006.16	0.001612
2015.81	0.001792
2025.45	0.001962
2035.1	0.002052
2044.74	0.002212
2054.38	0.002372
2064.03	0.002632
2073.67	0.002142
2083.32	0.001602
2092.96	0.001352
2102.61	0.001212
2112.25	0.0011014
2121.9	0.0009022
2131.54	0.0006814
2141.19	0.0007144
2150.83	0.0008789
2160.48	0.0009837
2170.12	0.0011403
2179.77	0.001057
2189.41	0.0011513
2199.06	0.001262
2208.7	0.0011272
2218.35	0.0006812
2227.99	0.0007666
2237.64	0.0007824
2247.28	0.0008601
2256.92	0.0007991
2266.57	0.0007903
2276.21	0.0011217
2285.86	0.001332
2295.5	0.001202
2305.15	0.0009782
2314.79	0.000751
2324.44	0.0007255
2334.08	0.000527
2343.73	0.0005269
2353.37	0.0004499
2363.02	0.0004987
2372.66	0.0007498
2382.31	0.0008041
2391.95	0.0006261
2401.6	0.0005466
2411.24	0.0005371
2420.89	0.0005793
2430.53	0.0006676
2440.18	0.0008575
2449.82	0.0010082
2459.47	0.001442
2469.11	0.001752
2478.75	0.001942
2488.4	0.001722
2498.04	0.001352
2507.69	0.001192
2517.33	0.001552
2526.98	0.001792
2536.62	0.002242
2546.27	0.002532
2555.91	0.002402
2565.56	0.002852
2575.2	0.003562
2584.85	0.003582
2594.49	0.002562
2604.14	0.002022
2613.78	0.001912
2623.43	0.001582
2633.07	0.001312
2642.72	0.0011047
2652.36	0.0008709
2662.01	0.0009064
2671.65	0.0010188
2681.29	0.0011474
2690.94	0.001182
2700.58	0.001262
2710.23	0.001172
2719.87	0.001272
2729.52	0.001182
2739.16	0.001222
2748.81	0.001342
2758.45	0.001272
2768.1	0.0011302
2777.74	0.0011192
2787.39	0.001292
2797.03	0.001572
2806.68	0.002022
2816.32	0.002632
2825.97	0.003962
2835.61	0.006942
2845.26	0.012322
2854.9	0.015112
2864.55	0.011322
2874.19	0.008062
2883.84	0.008092
2893.48	0.008622
2903.12	0.009682
2912.77	0.010352
2922.41	0.010752
2932.06	0.012292
2941.7	0.020132
2951.35	0.026722
2960.99	0.021382
2970.64	0.017632
2980.28	0.013622
2989.93	0.008942
2999.57	0.007282
3009.22	0.009532
3018.86	0.015102
3028.51	0.011442
3038.15	0.004832
3047.8	0.003332
3057.44	0.002732
3067.09	0.003122
3076.73	0.005282
3086.38	0.009242
3096.02	0.009612
3105.67	0.005682
3115.31	0.002602
3124.95	0.001392
3134.6	0.001192
3144.24	0.0008418
3153.89	0.000729
3163.53	0.0006187
3173.18	0.0008356
3182.82	0.00098
3192.47	0.0011164
3202.11	0.0007424
3211.76	0.0006191
3221.4	0.0003325
3231.05	0.0003498
3240.69	0.0003138
3250.34	0.0002771
3259.98	0.00021459
3269.63	9.93e-05
3279.27	0.00020545
3288.92	0.00023054
3298.56	0.00018364
3308.21	0.0003014
3317.85	0.00026038
3327.49	0.00024915
3337.14	0.0001029
3346.78	0.00016719
3356.43	0.00022192
3366.07	0.00020135
3375.72	0.0001312
3385.36	0.0001327
3395.01	0.0003585
3404.65	0.0001266
3414.3	0.0001422
3423.94	0.0003463
3433.59	0.00026712
3443.23	0.00024648
3452.88	0.000176493
3462.52	0.0002846
3472.17	7.53e-05
3481.81	0.0002635
3491.46	0.00026159
3501.1	0.00020741
3510.75	0.00026614
3520.39	0.00021344
3530.04	7.2e-05
3539.68	0.00022384
3549.32	0.0002938
3558.97	0.0003639
3568.61	0.0002721
3578.26	0.0001359
3587.9	0.00023339
3597.55	0.00019256
3607.19	0.00025632
3616.84	0.0001437
3626.48	0.00019034
3636.13	0.0003064
3645.77	0.00026997
3655.42	0.0003426
3665.06	0.0003373
3674.71	0.00024496
3684.35	0.00026023
3694	0.0004093
3703.64	0.00024972
3713.29	0.0003826
3722.93	0.0003034
3732.58	0.0004694
3742.22	0.000308
3751.86	0.00016518
3761.51	0.00024876
3771.15	0.0003023
3780.8	0.0003425
3790.44	0.00024867
3800.09	0.0002903
3809.73	0.0002176
3819.38	0.000339
3829.02	6.6e-05
3838.67	0.00022016
3848.31	0.00016541
3857.96	0.0003384
3867.6	0.0004536
3877.25	0.0005816
3886.89	0.0003482
3896.54	0.0004039
3906.18	0.0003235
3915.83	0.0002797
3925.47	0.0003636
3935.12	0.00025767
3944.76	0.0003819
3954.41	0.0004984
3964.05	0.0006167
3973.69	0.0003931
3983.34	0.0004185
3992.98	0.0002846
