Infrared Spectrum: 1-Ethyl-3-isopropylbenzene
Formula: C 11 H 16
CAS: 4920-99-4
State: gas
Instrument: HP-GC/MS/IRD
Origin: NIST Mass Spectrometry Data Center
1/CM	ABSORBANCE
550	0.0004264
562	0.0002706
574	0.0001845
586	0.0001763
598	6.97e-05
610	5.74e-05
622	0.0001312
634	0.0002542
646	0.0003034
658	0.0002337
670	0.0002911
682	0.0011316
694	0.0043624
706	0.0074415
718	0.0029192
730	0.0008323
742	0.0005412
754	0.0007175
766	0.0013202
778	0.003403
790	0.0052234
802	0.0026281
814	0.0010291
826	0.0007954
838	0.0007872
850	0.0003157
862	0.0002501
874	0.0009471
886	0.0021156
898	0.0019147
910	0.0013858
922	0.000574
934	0.0002706
946	0.0001968
958	0.0001558
970	0.0002624
982	0.0002952
994	0.0002132
1006	0.0002419
1018	0.0003034
1030	0.0004961
1042	0.0011562
1054	0.0018983
1066	0.0015662
1078	0.0014514
1090	0.0012628
1102	0.0009471
1114	0.0005371
1126	0.0003731
1138	0.0002173
1150	0.0001886
1162	0.0005043
1174	0.0010373
1186	0.0006478
1198	0.0002296
1210	0.0001722
1222	0.0002173
1234	0.0003772
1246	0.0004264
1258	0.0004756
1270	0.000697
1282	0.0011275
1294	0.0013981
1306	0.0018901
1318	0.0019516
1330	0.0017794
1342	0.0013981
1354	0.0014104
1366	0.0020131
1378	0.002255
1390	0.0022181
1402	0.001435
1414	0.0015662
1426	0.0022017
1438	0.0033538
1450	0.004223
1462	0.0051291
1474	0.0053259
1486	0.0053751
1498	0.0028331
1510	0.0010127
1522	0.0005576
1534	0.0004387
1546	0.000369
1558	0.0004633
1570	0.0010209
1582	0.0024887
1594	0.0047191
1606	0.0055104
1618	0.0024067
1630	0.0006847
1642	0.0003403
1654	0.0002911
1666	0.0003321
1678	0.0004428
1690	0.0004059
1702	0.000164
1714	0.0001148
1726	0.0001271
1738	0.0001148
1750	0.0002009
1762	0.0004182
1774	0.0004387
1786	0.0004018
1798	0.0002501
1810	0.0001312
1822	0.0001025
1834	0.0001476
1846	0.0003649
1858	0.000615
1870	0.0002747
1882	0.0001107
1894	8.61e-05
1906	0.0001476
1918	0.000328
1930	0.0004346
1942	0.0001804
1954	7.38e-05
1966	8.2e-05
1978	6.56e-05
1990	5.74e-05
2002	8.2e-05
2014	5.74e-05
2026	7.38e-05
2038	5.74e-05
2050	5.74e-05
2062	5.74e-05
2074	3.28e-05
2086	2.87e-05
2098	3.28e-05
2110	4.1e-06
2122	1.64e-05
2134	0
2146	1.23e-05
2158	1.64e-05
2170	8.2e-06
2182	2.05e-05
2194	2.05e-05
2206	3.28e-05
2218	5.33e-05
2230	4.1e-05
2242	6.97e-05
2254	6.56e-05
2266	8.61e-05
2278	8.61e-05
2290	8.2e-05
2302	8.61e-05
2314	6.56e-05
2326	6.15e-05
2338	0.0001148
2350	0.0001271
2362	0.0001066
2374	0.0001107
2386	0.0001107
2398	0.0001025
2410	0.0001107
2422	0.0001312
2434	0.000164
2446	0.0001312
2458	0.0001271
2470	0.000164
2482	0.0001312
2494	0.0001394
2506	0.0001435
2518	0.000164
2530	0.0001353
2542	0.000123
2554	0.0001722
2566	0.0001927
2578	0.0002173
2590	0.0003239
2602	0.0003116
2614	0.0002542
2626	0.0002624
2638	0.0002419
2650	0.0002337
2662	0.000205
2674	0.0002173
2686	0.0002501
2698	0.0002665
2710	0.0003567
2722	0.0004469
2734	0.0005822
2746	0.0005986
2758	0.0005945
2770	0.0006765
2782	0.0007093
2794	0.00082
2806	0.0010004
2818	0.0012587
2830	0.0016113
2842	0.0022919
2854	0.0037064
2866	0.0067773
2878	0.011111
2890	0.0121237
2902	0.0117998
2914	0.0115292
2926	0.0135587
2938	0.0186222
2950	0.0193479
2962	0.0325663
2974	0.037679
2986	0.0145099
2998	0.0071012
3010	0.0062361
3022	0.006929
3034	0.0071996
3046	0.006314
3058	0.0063509
3070	0.0051496
3082	0.0029643
3094	0.0021402
3106	0.0017138
3118	0.0011931
3130	0.0008774
3142	0.0007462
3154	0.0007216
3166	0.0005863
3178	0.0005658
3190	0.000533
3202	0.0004961
3214	0.00041
3226	0.0003444
3238	0.0002624
3250	0.0002501
3262	0.000205
3274	0.0002091
3286	0.0002378
3298	0.0001599
3310	0.0001148
3322	0.0001476
3334	0.0001271
3346	0.0001476
3358	4.92e-05
3370	0.0001476
3382	6.56e-05
3394	0.0001312
3406	0.0001394
3418	0.0001107
3430	0.0001435
3442	0.0001148
3454	0.000123
3466	9.43e-05
3478	6.97e-05
3490	6.97e-05
3502	0.0001025
3514	0.0001435
3526	0.000123
3538	9.84e-05
3550	0.0001394
3562	3.28e-05
3574	6.97e-05
3586	7.79e-05
3598	7.79e-05
3610	3.69e-05
3622	7.79e-05
3634	6.56e-05
3646	8.2e-05
3658	0.0001025
3670	8.2e-05
3682	0.0001312
3694	0.0001066
3706	0.0001271
3718	0.0001189
3730	0.000164
3742	0.0001271
3754	0.0001394
3766	0.0001148
3778	0.0001599
3790	0.0001763
3802	0.0001763
3814	0.0001886
3826	0.0001517
3838	0.000164
