Infrared Spectrum: 2-Nitro-3-methoxybenzoic acid
Formula: C 8 H 7 N O 5
CAS: 4920-80-3
State: gas
Origin: EPA-IR VAPOR PHASE LIBRARY
1/CM	ABSORBANCE
549.8	0.003637
559.445	0.003567
569.09	0.003527
578.734	0.003347
588.379	0.003107
598.024	0.003057
607.669	0.002497
617.313	0.001787
626.958	0.001527
636.603	0.002127
646.248	0.004717
655.893	0.005967
665.537	0.003157
675.182	0.0013844
684.827	0.0011918
694.472	0.0010938
704.116	0.0010394
713.761	0.0010323
723.406	0.001717
733.051	0.004447
742.695	0.007257
752.34	0.008857
761.985	0.006217
771.63	0.002747
781.275	0.001857
790.919	0.0013184
800.564	0.001497
810.209	0.001517
819.854	0.0014659
829.498	0.001537
839.143	0.002087
848.788	0.003587
858.433	0.003107
868.078	0.0011959
877.722	0.0012497
887.367	0.001224
897.012	0.0013325
906.657	0.0013891
916.301	0.0010619
925.946	0.0011335
935.591	0.0010117
945.236	0.0007663
954.88	0.0010098
964.525	0.0009242
974.17	0.0012223
983.815	0.001254
993.46	0.0014834
1003.1	0.002087
1012.75	0.003037
1022.39	0.005287
1032.04	0.007967
1041.68	0.009687
1051.33	0.010607
1060.97	0.010227
1070.62	0.006697
1080.26	0.004217
1089.91	0.003557
1099.55	0.004437
1109.2	0.007017
1118.84	0.007097
1128.49	0.007217
1138.13	0.009327
1147.78	0.007527
1157.42	0.004477
1167.07	0.005477
1176.71	0.005297
1186.36	0.003347
1196	0.002267
1205.64	0.002337
1215.29	0.003917
1224.93	0.004027
1234.58	0.002867
1244.22	0.002967
1253.87	0.004407
1263.51	0.007707
1273.16	0.013207
1282.8	0.013267
1292.45	0.010127
1302.09	0.009077
1311.74	0.008107
1321.38	0.006837
1331.03	0.005937
1340.67	0.006837
1350.32	0.010807
1359.96	0.016177
1369.61	0.014217
1379.25	0.006907
1388.9	0.003347
1398.54	0.002427
1408.18	0.002257
1417.83	0.002467
1427.47	0.003997
1437.12	0.005837
1446.76	0.005907
1456.41	0.006567
1466.05	0.006927
1475.7	0.006827
1485.34	0.004897
1494.99	0.002867
1504.63	0.002407
1514.28	0.002537
1523.92	0.003227
1533.57	0.004717
1543.21	0.007987
1552.86	0.015617
1562.5	0.023937
1572.15	0.019117
1581.79	0.012647
1591.44	0.008087
1601.08	0.004747
1610.73	0.003527
1620.37	0.002457
1630.01	0.001907
1639.66	0.001637
1649.3	0.0014711
1658.95	0.0013171
1668.59	0.0010537
1678.24	0.0010472
1687.88	0.0010889
1697.53	0.0012016
1707.17	0.0014149
1716.82	0.001987
1726.46	0.002597
1736.11	0.003557
1745.75	0.005887
1755.4	0.012097
1765.04	0.023847
1774.69	0.022087
1784.33	0.010877
1793.98	0.006277
1803.62	0.004227
1813.27	0.002217
1822.91	0.0014377
1832.55	0.0010296
1842.2	0.0009058
1851.84	0.0009379
1861.49	0.00087
1871.13	0.0008151
1880.78	0.0007881
1890.42	0.0007346
1900.07	0.0006411
1909.71	0.0007101
1919.36	0.0007744
1929	0.000953
1938.65	0.0009376
1948.29	0.0008569
1957.94	0.0007452
1967.58	0.0006626
1977.23	0.00058339
1986.87	0.0006282
1996.52	0.0006175
2006.16	0.0006701
2015.81	0.0007493
2025.45	0.000788
2035.1	0.0007457
2044.74	0.0006627
2054.38	0.0007597
2064.03	0.0006863
2073.67	0.00057307
2083.32	0.0006728
2092.96	0.000654
2102.61	0.0005893
2112.25	0.0006402
2121.9	0.0006585
2131.54	0.00055851
2141.19	0.0006039
2150.83	0.0005774
2160.48	0.0006692
2170.12	0.0006574
2179.77	0.0007035
2189.41	0.000596
2199.06	0.00057553
2208.7	0.0006574
2218.35	0.00053889
2227.99	0.00055012
2237.64	0.00058151
2247.28	0.0006911
2256.92	0.0005954
2266.57	0.0006071
2276.21	0.000614
2285.86	0.0005714
2295.5	0.00056518
2305.15	0.0006128
2314.79	0.000628
2324.44	0.0006164
2334.08	0.0006342
2343.73	0.0006244
2353.37	0.0005921
2363.02	0.00055637
2372.66	0.00056333
2382.31	0.0006852
2391.95	0.000613
2401.6	0.0005909
2411.24	0.0006414
2420.89	0.00053298
2430.53	0.000683
2440.18	0.0006016
2449.82	0.0007242
2459.47	0.000664
2469.11	0.0006353
2478.75	0.0007481
2488.4	0.0006526
2498.04	0.0007592
2507.69	0.0005887
2517.33	0.0006015
2526.98	0.0006499
2536.62	0.0006717
2546.27	0.00083
2555.91	0.0007414
2565.56	0.0007185
2575.2	0.0006886
2584.85	0.0006743
2594.49	0.0006121
2604.14	0.000634
2613.78	0.00049417
2623.43	0.0006447
2633.07	0.00058191
2642.72	0.0007239
2652.36	0.0006137
2662.01	0.00057635
2671.65	0.0004718
2681.29	0.0006587
2690.94	0.0007227
2700.58	0.0006916
2710.23	0.0007651
2719.87	0.0007965
2729.52	0.0007012
2739.16	0.0006957
2748.81	0.0007142
2758.45	0.0006389
2768.1	0.00057035
2777.74	0.000702
2787.39	0.0005916
2797.03	0.0007348
2806.68	0.0007516
2816.32	0.0007862
2825.97	0.0008571
2835.61	0.0010924
2845.26	0.001877
2854.9	0.001887
2864.55	0.0014306
2874.19	0.0014228
2883.84	0.001405
2893.48	0.001454
2903.12	0.001667
2912.77	0.001747
2922.41	0.002007
2932.06	0.001847
2941.7	0.002757
2951.35	0.003137
2960.99	0.002587
2970.64	0.002177
2980.28	0.001897
2989.93	0.001497
2999.57	0.001537
3009.22	0.001617
3018.86	0.002007
3028.51	0.001817
3038.15	0.0014324
3047.8	0.001143
3057.44	0.0011527
3067.09	0.0012507
3076.73	0.0014132
3086.38	0.001497
3096.02	0.0013589
3105.67	0.0008526
3115.31	0.0007979
3124.95	0.0006798
3134.6	0.0006875
3144.24	0.0007217
3153.89	0.0006635
3163.53	0.0006545
3173.18	0.0007059
3182.82	0.0003903
3192.47	0.0006152
3202.11	0.000564
3211.76	0.0006595
3221.4	0.00057853
3231.05	0.0006159
3240.69	0.0006164
3250.34	0.00052014
3259.98	0.000243
3269.63	0.00056687
3279.27	0.0004157
3288.92	0.000362
3298.56	0.000232
3308.21	0.00034
3317.85	0.000294
3327.49	0.000285
3337.14	0.00038
3346.78	0.0004278
3356.43	0.0004291
3366.07	0.000251
3375.72	0.0004745
3385.36	0.000256
3395.01	0.000239
3404.65	0.0004064
3414.3	0.0007457
3423.94	0.000359
3433.59	0.0004594
3443.23	0.0004488
3452.88	0.0004757
3462.52	0.00051479
3472.17	0.000335
3481.81	0.000379
3491.46	0.000343
3501.1	0.00052419
3510.75	0.0006294
3520.39	0.0006684
3530.04	0.0007564
3539.68	0.0008525
3549.32	0.000856
3558.97	0.0012911
3568.61	0.006397
3578.26	0.013007
3587.9	0.006667
3597.55	0.001214
3607.19	0.0006702
3616.84	0.0006418
3626.48	0.00056828
3636.13	0.00056767
3645.77	0.0004085
3655.42	0.000421
3665.06	0.000225
3674.71	0.0003942
3684.35	0.000532
3694	0.00051372
3703.64	0.000326
3713.29	0.000132
3722.93	0.000237
3732.58	0.0004282
3742.22	0.0004189
3751.86	0.000359
3761.51	0.0004707
3771.15	0.0005082
3780.8	0.00018
3790.44	0.000266
3800.09	0.000186
3809.73	0.000349
3819.38	0.000126
3829.02	0.000303
3838.67	0.000185
3848.31	0.000345
3857.96	0.0004554
3867.6	0.00052139
3877.25	0.000354
3886.89	0.000262
3896.54	0.000229
3906.18	0.000214
3915.83	0.000334
3925.47	0.000357
3935.12	0.000194
3944.76	0.000208
3954.41	0.000224
3964.05	0.000272
3973.69	0.000171
3983.34	0.000267
3992.98	0
