Infrared Spectrum: Caffeine, 8-chloro
Formula: C8 H9 Cl N4 O2
CAS: 4921-49-7
State: SOLID (SPLIT MULL), FLUOROLUBE FOR 3800-1330 CM^-^1, NUJOL FOR 1330-400 CM^-^1
Class: COBLENTZ II
Instrument: DOW KBr FOREPRISM-GRATING
Instrument parameters: BLAZED AT 3.5, 12.0, 20.0 MICRON AND CHANGED AT 5.0, 7.5, 14.9 MICRON
Sampling: TRANSMISSION
Resolution: 2
Origin: DOW CHEMICAL COMPANY
1/CM	TRANSMITTANCE
3796	0.7798
3787	0.7794
3778	0.7793
3769	0.7796
3760	0.7801
3751	0.7814
3742	0.7822
3733	0.7821
3724	0.7825
3715	0.7832
3706	0.7845
3697	0.7837
3688	0.7804
3679	0.7807
3670	0.7832
3661	0.7846
3652	0.7847
3643	0.7843
3634	0.7837
3625	0.7825
3616	0.7817
3607	0.7812
3598	0.781
3589	0.78
3580	0.7778
3571	0.7678
3562	0.7743
3553	0.7753
3544	0.7756
3535	0.7754
3526	0.7749
3517	0.7743
3508	0.7734
3499	0.7725
3490	0.7726
3481	0.773
3472	0.7733
3463	0.7736
3454	0.7734
3445	0.773
3436	0.7728
3427	0.7725
3418	0.7725
3409	0.7725
3400	0.7722
3391	0.7721
3382	0.7715
3373	0.771
3364	0.7695
3355	0.7671
3346	0.7636
3337	0.7615
3328	0.7637
3319	0.7646
3310	0.7635
3301	0.7633
3292	0.7637
3283	0.7656
3274	0.7664
3265	0.7662
3256	0.7662
3247	0.7651
3238	0.764
3229	0.7622
3220	0.7612
3211	0.7604
3202	0.7603
3193	0.7605
3184	0.7611
3175	0.7619
3166	0.7631
3157	0.7644
3148	0.7654
3139	0.765
3130	0.764
3121	0.7656
3112	0.7671
3103	0.7686
3094	0.7692
3085	0.768
3076	0.7684
3067	0.7687
3058	0.7691
3049	0.7694
3040	0.7698
3031	0.7701
3022	0.7704
3013	0.771
3004	0.7721
2995	0.7661
2986	0.7671
2977	0.7685
2968	0.7669
2959	0.7585
2950	0.7244
2941	0.7115
2932	0.7475
2923	0.7605
2914	0.7635
2905	0.7664
2896	0.7731
2887	0.7771
2878	0.7774
2869	0.7775
2860	0.7793
2851	0.7839
2842	0.7878
2833	0.7894
2824	0.7914
2815	0.7941
2806	0.7967
2797	0.7989
2788	0.8011
2779	0.8036
2770	0.8065
2761	0.8093
2752	0.8118
2743	0.8115
2734	0.8121
2725	0.8128
2716	0.8149
2707	0.8172
2698	0.8198
2689	0.8214
2680	0.8216
2671	0.8221
2662	0.8227
2653	0.8237
2644	0.8253
2635	0.8267
2626	0.8284
2617	0.83
2608	0.8318
2599	0.8336
2590	0.8349
2581	0.835
2572	0.8343
2563	0.8328
2554	0.8324
2545	0.8325
2536	0.833
2527	0.834
2518	0.835
2509	0.8355
2500	0.836
2491	0.8364
2482	0.8366
2473	0.8367
2464	0.8366
2455	0.836
2446	0.8353
2437	0.8346
2428	0.8345
2419	0.8344
2410	0.8342
2401	0.8357
2392	0.8366
2383	0.8362
2374	0.8361
2365	0.8353
2356	0.8344
2347	0.8332
2338	0.834
2329	0.835
2320	0.8373
2311	0.8392
2302	0.8382
2293	0.8308
2284	0.8352
2275	0.8358
2266	0.8362
2257	0.8371
2248	0.8383
2239	0.8393
2230	0.8421
2221	0.8434
2212	0.8445
2203	0.8454
2194	0.8464
2185	0.8475
2176	0.8486
2167	0.8496
2158	0.8502
2149	0.8506
2140	0.8511
2131	0.8516
2122	0.8521
2113	0.8527
2104	0.8533
2095	0.8546
2086	0.856
2077	0.8573
2068	0.8586
2059	0.8597
2050	0.8609
2041	0.8621
2032	0.8632
2023	0.8632
2014	0.8633
2005	0.8636
1996	0.8602
1987	0.8567
1978	0.8567
1969	0.8554
1960	0.8585
1951	0.861
1942	0.8618
1933	0.8627
1924	0.862
1915	0.8614
1906	0.8615
1897	0.8613
1888	0.8606
1879	0.8599
1870	0.8592
1861	0.8584
1852	0.8571
1843	0.855
1834	0.8528
1825	0.8504
1816	0.8491
1807	0.8493
1798	0.8474
1789	0.8299
1780	0.8101
1771	0.8055
1762	0.799
1753	0.7807
1744	0.699
1735	0.6799
1726	0.6478
1717	0.542
1708	0.0806
1699	0.1482
1690	0.5437
1681	0.4853
1672	0.0763
1663	0.0713
1654	0.3078
1645	0.6078
1636	0.6668
1627	0.7256
1618	0.7683
1609	0.7657
1600	0.7357
1591	0.7836
1582	0.7858
1573	0.7785
1564	0.7691
1555	0.7546
1546	0.5766
1537	0.3868
1528	0.6172
1519	0.721
1510	0.7254
1501	0.7561
1492	0.7507
1483	0.7255
1474	0.5487
1465	0.4546
1456	0.4777
1447	0.5526
1438	0.6428
1429	0.6193
1420	0.6964
1411	0.6718
1402	0.5567
1393	0.6715
1384	0.5518
1375	0.5325
1366	0.2268
1357	0.4673
1348	0.6214
1339	0.6944
1330	0.7001
1321	0.7095
1312	0.7353
1303	0.6938
1294	0.6987
1285	0.5979
1276	0.5643
1267	0.6832
1258	0.7082
1249	0.6587
1240	0.6703
1231	0.6824
1222	0.5818
1213	0.4977
1204	0.6547
1195	0.6769
1186	0.7065
1177	0.7083
1168	0.6971
1159	0.6954
1150	0.6928
1141	0.6797
1132	0.6127
1123	0.6355
1114	0.6676
1105	0.6944
1096	0.7043
1087	0.7097
1078	0.7128
1069	0.7115
1060	0.6928
1051	0.7103
1042	0.7148
1033	0.5546
1024	0.6239
1015	0.726
1006	0.7494
997	0.7595
988	0.7625
979	0.7592
970	0.4342
961	0.7185
952	0.7567
943	0.685
934	0.769
925	0.7804
916	0.7895
907	0.7957
898	0.804
889	0.8075
880	0.8153
871	0.8216
862	0.8257
853	0.8287
844	0.8295
835	0.8298
826	0.8302
817	0.8311
808	0.8318
799	0.7424
790	0.8282
781	0.8295
772	0.8271
763	0.8195
754	0.5043
745	0.1009
736	0.7861
727	0.8046
718	0.7932
709	0.8464
700	0.8673
691	0.8577
682	0.8658
673	0.8701
664	0.8628
655	0.7248
646	0.8275
637	0.8375
628	0.8338
619	0.8271
610	0.7808
601	0.7985
592	0.816
583	0.8202
574	0.8223
565	0.8204
556	0.8128
547	0.8085
538	0.8095
529	0.8091
520	0.8015
511	0.5265
502	0.765
493	0.4991
484	0.7457
475	0.7644
466	0.7671
457	0.7693
448	0.7692
439	0.7612
430	0.7407
421	0.7468
412	0.751
403	0.7231
394	0.6883
385	0.6864
