Infrared Spectrum: Methyl-trans-2-ethylcyclohexane
Formula: C 9 H 18
CAS: 4923-78-8
State: gas
Instrument: HP-GC/MS/IRD
Origin: NIST Mass Spectrometry Data Center
1/CM	ABSORBANCE
550	0.0001749
562	0.0002226
574	0.0002809
586	9.01e-05
598	0.0001484
610	0.0001166
622	0.0001749
634	0.0001643
646	0.0001325
658	8.48e-05
670	0.0001696
682	7.95e-05
694	0.000159
706	6.89e-05
718	1.06e-05
730	0.0001537
742	0.0001378
754	0.000265
766	0.0002438
778	0.0002862
790	0.0002067
802	0.0001484
814	0.0002173
826	0.0003074
838	0.0003922
850	0.0004452
862	0.0004823
874	0.0004346
886	0.000371
898	0.0004717
910	0.0004558
922	0.0003498
934	0.0002968
946	0.0004293
958	0.0007102
970	0.000848
982	0.0005989
994	0.000212
1006	0.0002491
1018	0.0003021
1030	0.000265
1042	0.000265
1054	0.0002968
1066	0.0003604
1078	0.0002491
1090	0.0003604
1102	0.000318
1114	0.0003021
1126	0.000212
1138	0.0001643
1150	0.0001855
1162	0.000318
1174	0.0003286
1186	0.0002014
1198	0.0002491
1210	0.000265
1222	0.0003233
1234	0.0005088
1246	0.0005989
1258	0.0005724
1270	0.0004982
1282	0.0004717
1294	0.0005565
1306	0.0005353
1318	0.0005035
1330	0.0006148
1342	0.0007685
1354	0.0007579
1366	0.0011607
1378	0.0021836
1390	0.0020723
1402	0.0008798
1414	0.0005724
1426	0.000848
1438	0.0023797
1450	0.0048177
1462	0.0047647
1474	0.0031482
1486	0.0013409
1498	0.0005194
1510	0.0003392
1522	0.0002968
1534	0.0002067
1546	0.000212
1558	0.0001696
1570	0.0001272
1582	0.0001325
1594	0.0001484
1606	0.0001378
1618	0.0001537
1630	0.0001378
1642	0.0001431
1654	0.0001272
1666	0.0001219
1678	0.0001113
1690	0.0001007
1702	9.01e-05
1714	5.83e-05
1726	6.89e-05
1738	6.89e-05
1750	3.71e-05
1762	7.42e-05
1774	6.89e-05
1786	7.95e-05
1798	6.36e-05
1810	8.48e-05
1822	4.24e-05
1834	4.77e-05
1846	6.89e-05
1858	7.42e-05
1870	4.24e-05
1882	5.83e-05
1894	5.83e-05
1906	3.71e-05
1918	2.65e-05
1930	2.65e-05
1942	3.18e-05
1954	2.65e-05
1966	3.18e-05
1978	5.3e-05
1990	1.59e-05
2002	2.12e-05
2014	3.71e-05
2026	4.77e-05
2038	3.18e-05
2050	4.24e-05
2062	2.12e-05
2074	1.06e-05
2086	2.65e-05
2098	3.18e-05
2110	2.65e-05
2122	2.12e-05
2134	3.71e-05
2146	5.3e-06
2158	4.24e-05
2170	3.71e-05
2182	6.89e-05
2194	4.24e-05
2206	3.71e-05
2218	4.24e-05
2230	5.3e-06
2242	4.77e-05
2254	4.24e-05
2266	2.12e-05
2278	7.42e-05
2290	5.3e-05
2302	6.36e-05
2314	8.48e-05
2326	0.0001378
2338	0.0001166
2350	0.0001166
2362	9.54e-05
2374	0.0001219
2386	0.0001166
2398	0.0001484
2410	0.0001378
2422	0.000159
2434	0.0001007
2446	0.0001007
2458	9.54e-05
2470	0.0001378
2482	9.54e-05
2494	0.0001431
2506	0.0001537
2518	0.0001696
2530	0.0001961
2542	0.0001696
2554	0.0002438
2566	0.0002756
2578	0.0003392
2590	0.0003869
2602	0.0004293
2614	0.000424
2626	0.0004293
2638	0.0004611
2650	0.0005724
2662	0.0006784
2674	0.0007579
2686	0.0006784
2698	0.0006095
2710	0.0005035
2722	0.0005883
2734	0.0006837
2746	0.0006943
2758	0.0007367
2770	0.0008215
2782	0.0010388
2794	0.0012402
2806	0.0014734
2818	0.0018285
2830	0.0028143
2842	0.0067999
2854	0.0155926
2866	0.0213749
2878	0.0183963
2890	0.0153223
2902	0.0172409
2914	0.029415
2926	0.0501592
2938	0.0468891
2950	0.0292613
2962	0.0212424
2974	0.0186454
2986	0.0099163
2998	0.0035616
3010	0.0019186
3022	0.0014893
3034	0.0012296
3046	0.0010759
3058	0.0009911
3070	0.000795
3082	0.0007208
3094	0.0006254
3106	0.0006148
3118	0.0005936
3130	0.00053
3142	0.0004929
3154	0.0004399
3166	0.0004134
3178	0.0003657
3190	0.0003127
3202	0.0002597
3214	0.0002279
3226	0.0002809
3238	0.0002544
3250	0.0002332
3262	0.0002438
3274	0.0002544
3286	0.0001166
3298	0.0001643
3310	0.0001431
3322	0.0001166
3334	0.0001643
3346	0.0001378
3358	0.000159
3370	0.0001166
3382	0.0001378
3394	3.71e-05
3406	0.0001537
3418	0.000159
3430	0.0001378
3442	0.0001166
3454	7.95e-05
3466	9.01e-05
3478	0.0001431
3490	0.000106
3502	9.01e-05
3514	0.0001537
3526	9.01e-05
3538	5.3e-05
3550	0.0001007
3562	8.48e-05
3574	1.59e-05
3586	7.42e-05
3598	6.36e-05
3610	7.42e-05
3622	4.77e-05
3634	7.42e-05
3646	0.0001166
3658	0.0001643
3670	0.0001272
3682	0.0001855
3694	0.0001113
3706	0.0001696
3718	8.48e-05
3730	0.0001272
3742	0.0001113
3754	0.000212
3766	0.0001007
3778	0.0001484
3790	0.0001484
3802	0.0001696
3814	0.0001855
3826	0.0002067
3838	0.0001219
