Infrared Spectrum: 1-Ethyl-1-methylcyclohexane
Formula: C 9 H 18
CAS: 4926-90-3
State: gas
Instrument: HP-GC/MS/IRD
Origin: NIST Mass Spectrometry Data Center
1/CM	ABSORBANCE
550	0.0001763
562	5.59e-05
574	0
586	0.0001677
598	0.0001548
610	0.0001806
622	0.0001677
634	8.6e-05
646	9.89e-05
658	0.0001634
670	0.0001978
682	0.0002322
694	0.0001978
706	0.0001849
718	0.0001591
730	0.0002107
742	0.0002494
754	0.0002408
766	0.0002709
778	0.0004257
790	0.0003784
802	0.0002881
814	0.0002623
826	0.0002795
838	0.0004343
850	0.0005332
862	0.0004515
874	0.0004687
886	0.0004601
898	0.0003612
910	0.0003182
922	0.000387
934	0.0004644
946	0.0005805
958	0.0006923
970	0.0007095
982	0.0005805
994	0.0006364
1006	0.0007955
1018	0.0006149
1030	0.0004257
1042	0.0004042
1054	0.0004171
1066	0.0003526
1078	0.0002795
1090	0.0002451
1102	0.0002322
1114	0.0002193
1126	0.0002709
1138	0.0004902
1150	0.0007224
1162	0.0006493
1174	0.0003741
1186	0.0002709
1198	0.0002408
1210	0.0001935
1222	0.0002236
1234	0.0002064
1246	0.0002623
1258	0.0003182
1270	0.0004085
1282	0.0004257
1294	0.0003999
1306	0.0003784
1318	0.0004214
1330	0.0004085
1342	0.0005504
1354	0.000774
1366	0.0012384
1378	0.0020124
1390	0.0018232
1402	0.0008127
1414	0.0005375
1426	0.0007611
1438	0.0019092
1450	0.0037969
1462	0.0046053
1474	0.003268
1486	0.0014405
1498	0.000559
1510	0.0003268
1522	0.0002537
1534	0.0002365
1546	0.000215
1558	0.0002193
1570	0.000215
1582	0.0001892
1594	0.0001548
1606	0.0001849
1618	0.0001419
1630	0.0001505
1642	0.0001376
1654	0.0001333
1666	0.0001548
1678	0.0001204
1690	0.0001247
1702	9.89e-05
1714	0.0001032
1726	0.0001118
1738	9.46e-05
1750	9.89e-05
1762	9.89e-05
1774	9.03e-05
1786	9.03e-05
1798	8.17e-05
1810	8.6e-05
1822	6.88e-05
1834	7.74e-05
1846	8.17e-05
1858	6.45e-05
1870	4.3e-05
1882	7.74e-05
1894	6.45e-05
1906	4.73e-05
1918	6.45e-05
1930	6.02e-05
1942	5.59e-05
1954	6.02e-05
1966	5.59e-05
1978	4.73e-05
1990	4.3e-05
2002	5.59e-05
2014	4.3e-05
2026	4.3e-05
2038	5.59e-05
2050	3.01e-05
2062	4.3e-05
2074	3.01e-05
2086	3.87e-05
2098	3.44e-05
2110	2.15e-05
2122	3.44e-05
2134	1.72e-05
2146	3.44e-05
2158	3.01e-05
2170	4.73e-05
2182	5.16e-05
2194	5.16e-05
2206	3.87e-05
2218	3.87e-05
2230	4.3e-06
2242	8.6e-06
2254	3.44e-05
2266	3.44e-05
2278	3.87e-05
2290	5.16e-05
2302	4.73e-05
2314	7.31e-05
2326	7.31e-05
2338	6.02e-05
2350	5.16e-05
2362	6.02e-05
2374	7.31e-05
2386	9.03e-05
2398	9.03e-05
2410	0.0001075
2422	0.0001204
2434	0.000129
2446	0.0001118
2458	0.0001204
2470	0.0001075
2482	9.46e-05
2494	0.0001419
2506	0.0001505
2518	0.0001376
2530	0.0001161
2542	0.0001462
2554	0.0001419
2566	0.0001505
2578	0.0001849
2590	0.0002279
2602	0.0002924
2614	0.0003483
2626	0.0003741
2638	0.0004687
2650	0.000559
2662	0.0006493
2674	0.0006278
2686	0.0004859
2698	0.00043
2710	0.0004343
2722	0.000473
2734	0.0004945
2746	0.0005203
2758	0.0005676
2770	0.0006751
2782	0.0008385
2794	0.0010062
2806	0.0011696
2818	0.0014835
2830	0.0023822
2842	0.0054352
2854	0.0109736
2866	0.0137041
2878	0.0122464
2890	0.0117003
2902	0.015953
2914	0.0249443
2926	0.0380034
2938	0.0407425
2950	0.0262902
2962	0.017759
2974	0.0144695
2986	0.0077357
2998	0.0028423
3010	0.0014534
3022	0.0010535
3034	0.0009073
3046	0.0008299
3058	0.0008084
3070	0.0007396
3082	0.0006407
3094	0.0005762
3106	0.0005418
3118	0.0005074
3130	0.0004343
3142	0.0004171
3154	0.0004128
3166	0.0003698
3178	0.0002924
3190	0.0003268
3202	0.0002838
3214	0.0002537
3226	0.0002236
3238	0.0002064
3250	0.0001677
3262	0.0001892
3274	0.0001634
3286	0.0001333
3298	0.000129
3310	0.0001333
3322	0.0001548
3334	0.0001204
3346	0.000129
3358	0.0001333
3370	0.0001247
3382	0.0001419
3394	8.6e-05
3406	9.03e-05
3418	8.17e-05
3430	6.02e-05
3442	6.02e-05
3454	6.45e-05
3466	8.17e-05
3478	7.31e-05
3490	5.16e-05
3502	8.17e-05
3514	1.72e-05
3526	3.44e-05
3538	3.01e-05
3550	5.16e-05
3562	1.29e-05
3574	3.44e-05
3586	1.29e-05
3598	4.73e-05
3610	6.02e-05
3622	4.73e-05
3634	4.3e-05
3646	7.74e-05
3658	2.58e-05
3670	4.3e-05
3682	0.0001032
3694	0.0001204
3706	9.46e-05
3718	9.46e-05
3730	0.0001075
3742	0.0001075
3754	6.02e-05
3766	9.03e-05
3778	9.89e-05
3790	9.03e-05
3802	0.0001075
3814	0.0001118
3826	8.17e-05
3838	0.0001333
