Infrared Spectrum: cis-1-Ethyl-4-methylcyclohexane
Formula: C 9 H 18
CAS: 4926-78-7
State: gas
Instrument: HP-GC/MS/IRD
Origin: NIST Mass Spectrometry Data Center
1/CM	ABSORBANCE
550	0.0001955
562	0.0002185
574	0
586	0.0001978
598	0.000207
610	0.0002185
622	0.0002921
634	0.0004301
646	0.0003358
658	0.0001978
670	0.0001978
682	0.0002484
694	0.0002047
706	0.0002461
718	0.0002737
730	0.0002691
742	0.000276
754	0.0003404
766	0.0003841
778	0.0003128
790	0.0003151
802	0.0003381
814	0.0002346
826	0.0002806
838	0.0003013
850	0.0002875
862	0.0003542
874	0.0003726
886	0.000345
898	0.0003358
910	0.0003151
922	0.0003657
934	0.0003887
946	0.0004255
958	0.0005313
970	0.0004899
982	0.0004508
994	0.0004577
1006	0.000437
1018	0.0003243
1030	0.0002691
1042	0.0002829
1054	0.0003289
1066	0.0003082
1078	0.0003036
1090	0.0003128
1102	0.0003381
1114	0.0002898
1126	0.0002185
1138	0.0002254
1150	0.0002806
1162	0.0003197
1174	0.0003128
1186	0.0002438
1198	0.0002162
1210	0.0001909
1222	0.0001725
1234	0.00023
1246	0.0002668
1258	0.0002967
1270	0.0003174
1282	0.0003749
1294	0.0003588
1306	0.0003082
1318	0.0003013
1330	0.0003335
1342	0.0004048
1354	0.0005313
1366	0.0008579
1378	0.0012926
1390	0.0010741
1402	0.0005198
1414	0.0003864
1426	0.0004968
1438	0.001081
1450	0.0020631
1462	0.0023299
1474	0.0014904
1486	0.0006279
1498	0.000322
1510	0.0001978
1522	0.0001587
1534	0.0002093
1546	0.0001564
1558	0.0001633
1570	0.0001955
1582	0.0001679
1594	0.0001771
1606	0.0001633
1618	0.0001587
1630	0.000161
1642	0.0001449
1654	0.000115
1666	0.0001104
1678	0.0001081
1690	0.0001035
1702	7.59e-05
1714	9.43e-05
1726	8.05e-05
1738	8.28e-05
1750	6.44e-05
1762	0.0001058
1774	5.29e-05
1786	7.59e-05
1798	8.28e-05
1810	7.82e-05
1822	8.28e-05
1834	8.28e-05
1846	8.28e-05
1858	8.74e-05
1870	5.75e-05
1882	5.98e-05
1894	6.67e-05
1906	8.05e-05
1918	5.52e-05
1930	6.44e-05
1942	3.45e-05
1954	3.68e-05
1966	5.75e-05
1978	6.21e-05
1990	6.67e-05
2002	4.37e-05
2014	5.06e-05
2026	4.6e-05
2038	5.52e-05
2050	5.98e-05
2062	5.75e-05
2074	5.52e-05
2086	6.44e-05
2098	5.75e-05
2110	5.98e-05
2122	5.52e-05
2134	6.44e-05
2146	5.29e-05
2158	3.45e-05
2170	5.29e-05
2182	6.21e-05
2194	2.99e-05
2206	6.21e-05
2218	4.83e-05
2230	5.06e-05
2242	3.68e-05
2254	2.99e-05
2266	4.37e-05
2278	4.83e-05
2290	5.75e-05
2302	3.22e-05
2314	3.68e-05
2326	5.06e-05
2338	3.68e-05
2350	4.14e-05
2362	2.99e-05
2374	3.91e-05
2386	4.83e-05
2398	6.44e-05
2410	7.13e-05
2422	8.28e-05
2434	8.28e-05
2446	4.37e-05
2458	5.98e-05
2470	5.75e-05
2482	8.28e-05
2494	7.36e-05
2506	5.52e-05
2518	8.97e-05
2530	8.28e-05
2542	9.66e-05
2554	0.0001035
2566	0.000115
2578	0.0001219
2590	0.0001748
2602	0.0001932
2614	0.0002208
2626	0.0002323
2638	0.0002461
2650	0.0002829
2662	0.000322
2674	0.0003496
2686	0.0003266
2698	0.0002806
2710	0.0003128
2722	0.0003473
2734	0.0003151
2746	0.0003703
2758	0.0003427
2770	0.0003841
2782	0.0004416
2794	0.0005129
2806	0.0006417
2818	0.000782
2830	0.0011615
2842	0.0025829
2854	0.0060467
2866	0.0081696
2878	0.0080891
2890	0.0080339
2902	0.0098509
2914	0.0168567
2926	0.023
2938	0.0170982
2950	0.0110791
2962	0.0101798
2974	0.0075923
2986	0.0029601
2998	0.0011776
3010	0.000736
3022	0.0005474
3034	0.0004531
3046	0.0004117
3058	0.0003887
3070	0.0004117
3082	0.0003243
3094	0.0002967
3106	0.0002576
3118	0.0002691
3130	0.0002806
3142	0.0002346
3154	0.0001909
3166	0.0002001
3178	0.0001863
3190	0.0001311
3202	0.000115
3214	0.0001219
3226	0.0001058
3238	9.2e-05
3250	7.13e-05
3262	8.28e-05
3274	8.05e-05
3286	8.05e-05
3298	7.59e-05
3310	8.28e-05
3322	0.000138
3334	0.0001058
3346	5.06e-05
3358	6.44e-05
3370	7.36e-05
3382	9.2e-06
3394	4.37e-05
3406	7.82e-05
3418	2.53e-05
3430	7.13e-05
3442	2.53e-05
3454	4.14e-05
3466	5.06e-05
3478	3.68e-05
3490	3.68e-05
3502	2.76e-05
3514	1.61e-05
3526	2.3e-05
3538	7.36e-05
3550	4.14e-05
3562	6.67e-05
3574	9.2e-06
3586	6.67e-05
3598	3.22e-05
3610	5.52e-05
3622	8.51e-05
3634	5.98e-05
3646	6.21e-05
3658	2.76e-05
3670	7.59e-05
3682	6.21e-05
3694	2.76e-05
3706	8.97e-05
3718	7.36e-05
3730	6.21e-05
3742	2.53e-05
3754	4.6e-05
3766	0.0001104
3778	6.9e-05
3790	9.66e-05
3802	0.0001518
3814	8.05e-05
3826	0.0001104
3838	0.0001288
