Infrared Spectrum: 3,3',5,5'-TETRAMETHOXY-4,4'-DIPHENOQUINONE
Formula: C16 H16 O6
CAS: 493-74-3
State: SOLID (MINERAL OIL MULL)
Class: COBLENTZ
Instrument: Not specified, most likely a prism, grating, or hybrid spectrometer.
Sampling: TRANSMISSION
Resolution: 4
Origin: DOW CHEMICAL COMPANY
MICROMETERS	TRANSMITTANCE
2.02	0.194
2.06072	0.196
2.10144	0.208
2.14215	0.216
2.18287	0.225
2.22359	0.235
2.26431	0.235
2.30502	0.244
2.34574	0.247
2.38646	0.257
2.42718	0.267
2.46789	0.276
2.50861	0.284
2.54933	0.293
2.59005	0.298
2.63077	0.318
2.67148	0.316
2.7122	0.333
2.75292	0.344
2.79364	0.349
2.83435	0.35
2.87507	0.355
2.91579	0.359
2.95651	0.366
2.99722	0.372
3.03794	0.381
3.07866	0.383
3.11938	0.376
3.1601	0.388
3.20081	0.398
3.24153	0.396
3.28225	0.388
3.32297	0.323
3.36368	0.147
3.4044	0.032
3.44512	0.059
3.48584	0.083
3.52655	0.259
3.56727	0.447
3.60799	0.491
3.64871	0.506
3.68943	0.506
3.73014	0.515
3.77086	0.523
3.81158	0.535
3.8523	0.547
3.89301	0.562
3.93373	0.574
3.97445	0.579
4.01517	0.579
4.05588	0.593
4.0966	0.6
4.13732	0.606
4.17804	0.606
4.21876	0.593
4.25947	0.6
4.30019	0.628
4.34091	0.647
4.38163	0.647
4.42234	0.649
4.46306	0.657
4.50378	0.671
4.5445	0.671
4.58521	0.674
4.62593	0.681
4.66665	0.686
4.70737	0.683
4.74809	0.691
4.7888	0.7
4.82952	0.706
4.87024	0.708
4.91096	0.716
4.95167	0.727
4.99239	0.737
5.03311	0.745
5.07383	0.747
5.11454	0.744
5.15526	0.742
5.19598	0.749
5.2367	0.757
5.27741	0.764
5.31813	0.771
5.35885	0.771
5.39957	0.783
5.44029	0.783
5.481	0.789
5.52172	0.794
5.56244	0.796
5.60316	0.8
5.64387	0.803
5.68459	0.801
5.72531	0.794
5.76603	0.777
5.80674	0.769
5.84746	0.759
5.88818	0.766
5.9289	0.774
5.96962	0.766
6.01033	0.708
6.05105	0.559
6.09177	0.249
6.13249	0.059
6.1732	0.093
6.21392	0.216
6.25464	0.408
6.29536	0.415
6.33607	0.469
6.37679	0.238
6.41751	0.147
6.45823	0.22
6.49895	0.379
6.53966	0.457
6.58038	0.518
6.6211	0.571
6.66182	0.598
6.70253	0.581
6.74325	0.52
6.78397	0.313
6.82469	0.196
6.8654	0.218
6.90612	0.259
6.94684	0.411
6.98756	0.567
7.02828	0.632
7.06899	0.669
7.10971	0.671
7.15043	0.659
7.19115	0.571
7.23186	0.43
7.27258	0.498
7.3133	0.498
7.35402	0.383
7.39473	0.581
7.43545	0.647
7.47617	0.708
7.51689	0.72
7.55761	0.711
7.59832	0.706
7.63904	0.664
7.67976	0.53
7.72048	0.35
7.76119	0.194
7.80191	0.049
7.84263	0.04
7.88335	0.062
7.92406	0.188
7.96478	0.328
8.0055	0.43
8.04622	0.489
8.08694	0.528
8.12765	0.579
8.16837	0.61
8.20909	0.638
8.24981	0.667
8.29052	0.686
8.33124	0.672
8.37196	0.611
8.41268	0.469
8.45339	0.53
8.49411	0.679
8.53483	0.72
8.57555	0.732
8.61627	0.732
8.65698	0.722
8.6977	0.677
8.73842	0.579
8.77914	0.518
8.81985	0.355
8.86057	0.179
8.90129	0.077
8.94201	0.066
8.98272	0.115
9.02344	0.238
9.06416	0.338
9.10488	0.428
9.1456	0.5
9.18631	0.545
9.22703	0.577
9.26775	0.598
9.30847	0.613
9.34918	0.627
9.3899	0.644
9.43062	0.654
9.47134	0.664
9.51205	0.672
9.55277	0.684
9.59349	0.7
9.63421	0.708
9.67493	0.688
9.71564	0.618
9.75636	0.588
9.79708	0.605
9.8378	0.638
9.87851	0.696
9.91923	0.723
9.95995	0.738
10.0007	0.749
10.0414	0.754
10.0821	0.762
10.1228	0.767
10.1635	0.767
10.2043	0.769
10.245	0.769
10.2857	0.769
10.3264	0.774
10.3671	0.776
10.4078	0.776
10.4486	0.779
10.4893	0.784
10.53	0.783
10.5707	0.779
10.6114	0.777
10.6521	0.776
10.6929	0.776
10.7336	0.772
10.7743	0.761
10.815	0.74
10.8557	0.708
10.8965	0.698
10.9372	0.705
10.9779	0.718
11.0186	0.732
11.0593	0.742
11.1	0.752
11.1408	0.755
11.1815	0.761
11.2222	0.762
11.2629	0.764
11.3036	0.771
11.3444	0.769
11.3851	0.772
11.4258	0.769
11.4665	0.769
11.5072	0.761
11.5479	0.759
11.5887	0.745
11.6294	0.72
11.6701	0.674
11.7108	0.603
11.7515	0.472
11.7922	0.296
11.833	0.15
11.8737	0.272
11.9144	0.489
11.9551	0.571
11.9958	0.542
12.0366	0.408
12.0773	0.352
12.118	0.483
12.1587	0.6
12.1994	0.64
12.2401	0.679
12.2809	0.703
12.3216	0.716
12.3623	0.727
12.403	0.735
12.4437	0.742
12.4844	0.74
12.5252	0.72
12.5659	0.61
12.6066	0.601
12.6473	0.71
12.688	0.733
12.7288	0.745
12.7695	0.749
12.8102	0.75
12.8509	0.752
12.8916	0.752
12.9323	0.754
12.9731	0.754
13.0138	0.757
13.0545	0.757
13.0952	0.755
13.1359	0.757
13.1766	0.755
13.2174	0.759
13.2581	0.754
13.2988	0.754
13.3395	0.754
13.3802	0.752
13.421	0.749
13.4617	0.74
13.5024	0.735
13.5431	0.73
13.5838	0.727
13.6245	0.72
13.6653	0.708
13.706	0.701
13.7467	0.688
13.7874	0.671
13.8281	0.649
13.8688	0.611
13.9096	0.532
13.9503	0.44
13.991	0.42
14.0317	0.522
14.0724	0.62
14.1132	0.664
14.1539	0.703
14.1946	0.716
14.2353	0.72
14.276	0.723
14.3167	0.722
14.3575	0.711
14.3982	0.691
14.4389	0.662
14.4796	0.659
14.5203	0.674
14.561	0.689
14.6018	0.698
14.6425	0.694
14.6832	0.689
14.7239	0.686
14.7646	0.683
14.8054	0.679
14.8461	0.667
14.8868	0.65
14.9275	0.647
14.9682	0.655
15.0089	0.657
15.0497	0.645
15.0904	0.638
15.1311	0.632
15.1718	0.628
15.2125	0.627
15.2532	0.623
15.294	0.62
15.3347	0.615
15.3754	0.611
15.4161	0.608
15.4568	0.601
15.4976	0.598
15.5383	0.593
15.579	0.588
15.6197	0.623
15.6604	0.601
15.7011	0.586
15.7419	0.579
15.7826	0.571
15.8233	0.564
15.864	0.571
