Infrared Spectrum: Isotetralin
Formula: C 10 H 12
CAS: 493-04-9
State: gas
Instrument: HP-GC/MS/IRD
Origin: NIST Mass Spectrometry Data Center
1/CM	ABSORBANCE
550	0.0002496
562	8.45e-05
574	0.0001859
586	0.0002158
598	0.0001534
610	0.0001209
622	0.0003458
634	0.0007202
646	0.0016627
658	0.0041418
670	0.0087763
682	0.0047437
694	0.0013351
706	0.0003913
718	0.0004459
730	0.0007982
742	0.0008021
754	0.0004654
766	0.0003835
778	0.0003796
790	0.0002249
802	0.0001755
814	0.0001417
826	0.0001625
838	9.1e-05
850	0.000104
862	0.0001313
874	0.0001534
886	0.0001664
898	0.0001976
910	0.0002626
922	0.0001924
934	0.0002405
946	0.0007618
958	0.0019357
970	0.0030082
982	0.002275
994	0.0017368
1006	0.0006877
1018	0.0003081
1030	0.000195
1042	0.0002132
1054	0.0001898
1066	0.0002184
1078	0.0001118
1090	0.0001534
1102	0.0002145
1114	0.0002431
1126	0.0003458
1138	0.0003042
1150	0.0001235
1162	6.37e-05
1174	0.0001118
1186	7.54e-05
1198	7.8e-06
1210	1.82e-05
1222	1.95e-05
1234	5.2e-05
1246	8.71e-05
1258	0.0001664
1270	0.0002028
1282	0.0001729
1294	9.36e-05
1306	0.0001521
1318	0.000221
1330	0.0003445
1342	0.0003861
1354	0.0003146
1366	0.0001937
1378	0.0001898
1390	0.0002509
1402	0.000247
1414	0.0003562
1426	0.001053
1438	0.0012142
1450	0.0006916
1462	0.0002821
1474	0.0001924
1486	0.0001924
1498	0.0002158
1510	0.0001781
1522	0.0001586
1534	0.0001456
1546	0.0001599
1558	0.0002418
1570	0.000221
1582	0.0002002
1594	0.0002041
1606	0.000325
1618	0.0005746
1630	0.0005772
1642	0.0006734
1654	0.0014703
1666	0.0014014
1678	0.000403
1690	0.0001677
1702	0.0002106
1714	0.0002054
1726	0.0001651
1738	0.000117
1750	0.0001287
1762	0.0001352
1774	0.0001495
1786	0.0001417
1798	0.0001651
1810	0.0001677
1822	0.0001352
1834	0.0001274
1846	0.0001599
1858	0.0001183
1870	7.8e-05
1882	0.0001092
1894	0.0001144
1906	0.0001573
1918	0.000195
1930	0.0002028
1942	0.0001586
1954	0.0001534
1966	0.0001326
1978	0.0001144
1990	8.71e-05
2002	6.63e-05
2014	5.72e-05
2026	8.58e-05
2038	6.89e-05
2050	7.93e-05
2062	6.24e-05
2074	8.19e-05
2086	7.15e-05
2098	7.54e-05
2110	8.45e-05
2122	8.97e-05
2134	0.0001053
2146	7.93e-05
2158	8.19e-05
2170	7.02e-05
2182	8.45e-05
2194	7.93e-05
2206	9.75e-05
2218	8.32e-05
2230	8.32e-05
2242	0.0001157
2254	9.1e-05
2266	9.23e-05
2278	8.19e-05
2290	0.000104
2302	0.0001261
2314	0.0001573
2326	0.0001612
2338	0.0001365
2350	0.0001586
2362	0.0002002
2374	0.0001313
2386	8.84e-05
2398	0.0001352
2410	0.0001261
2422	0.0001313
2434	0.0001144
2446	8.97e-05
2458	5.59e-05
2470	9.88e-05
2482	8.97e-05
2494	9.88e-05
2506	0.0001196
2518	9.49e-05
2530	0.0001144
2542	0.0001261
2554	0.0001508
2566	0.0001521
2578	0.0001365
2590	0.0001482
2602	0.0001781
2614	0.0001885
2626	0.0001729
2638	0.0002275
2650	0.000351
2662	0.0004628
2674	0.0004628
2686	0.0003653
2698	0.0004186
2710	0.0005356
2722	0.0006669
2734	0.0007189
2746	0.0006864
2758	0.0006942
2770	0.0008398
2782	0.0011076
2794	0.0015067
2806	0.002951
2818	0.0083707
2830	0.0111241
2842	0.0094432
2854	0.0108771
2866	0.0113503
2878	0.0113516
2890	0.0090883
2902	0.0039975
2914	0.0011726
2926	0.0009282
2938	0.0009906
2950	0.0010387
2962	0.0012584
2974	0.001833
2986	0.0019825
2998	0.0014092
3010	0.0012519
3022	0.0039247
3034	0.0120575
3046	0.0098813
3058	0.0020709
3070	0.0010933
3082	0.0007436
3094	0.0004368
3106	0.0004069
3118	0.000403
3130	0.0003224
3142	0.0003445
3154	0.0001846
3166	0.0001261
3178	0.0001196
3190	0.0001235
3202	0.0001443
3214	0.00013
3226	0.0001664
3238	0.0002197
3250	0.000234
3262	0.0001378
3274	9.75e-05
3286	0.0001352
3298	0.0001703
3310	0.0001534
3322	0.0001313
3334	0.000104
3346	0.0001144
3358	0.0001209
3370	0.0001183
3382	0.0001001
3394	0.0001222
3406	6.89e-05
3418	0.0001157
3430	0.0001014
3442	0.0001079
3454	0.0001235
3466	9.49e-05
3478	0.0001222
3490	0.0001677
3502	0.0001027
3514	0.0001456
3526	0.0001807
3538	0.0001131
3550	0.0001001
3562	6.76e-05
3574	9.75e-05
3586	0.0001235
3598	6.76e-05
3610	0.0001131
3622	0.0001274
3634	0.0001092
3646	7.02e-05
3658	0.0001508
3670	0.000117
3682	0.0001248
3694	0.0001638
3706	0.0001807
3718	0.0001716
3730	0.0001937
3742	0.0001807
3754	0.0001924
3766	0.0002431
3778	0.0001534
3790	0.0001976
3802	0.000221
3814	0.000234
3826	0.0002002
3838	0.0002054
