Infrared Spectrum: 1,4-Benzodioxan
Formula: C 8 H 8 O 2
CAS: 493-09-4
State: gas
Instrument: HP-GC/MS/IRD
Origin: NIST Mass Spectrometry Data Center
1/CM	ABSORBANCE
550	0.0031356
562	0.0104416
574	0.0077012
586	0.002171
598	0.0005122
610	0.0002236
622	0.0001066
634	0.0001742
646	0.0004524
658	0.0008684
670	0.0014612
682	0.0025194
694	0.0050752
706	0.0124514
718	0.0237016
730	0.0223574
742	0.007618
754	0.0021658
766	0.0017446
778	0.0028314
790	0.0069004
802	0.016133
814	0.0236652
826	0.0194662
838	0.0120796
850	0.0087672
862	0.0045708
874	0.0016042
886	0.0007618
898	0.0005668
910	0.0004628
922	0.0003614
934	0.000403
946	0.0005382
958	0.0007696
970	0.0011284
982	0.002899
994	0.0082368
1006	0.0127114
1018	0.0102648
1030	0.006214
1042	0.0039208
1054	0.0026234
1066	0.0039754
1078	0.0114686
1090	0.0216346
1102	0.018902
1114	0.0058032
1126	0.0016614
1138	0.001053
1150	0.000572
1162	0.0004914
1174	0.0006656
1186	0.0013208
1198	0.003965
1210	0.0073476
1222	0.006565
1234	0.0031018
1246	0.001599
1258	0.0013754
1270	0.001404
1282	0.001313
1294	0.0009958
1306	0.0008996
1318	0.0012636
1330	0.0021034
1342	0.0033072
1354	0.003835
1366	0.0044278
1378	0.005876
1390	0.0051454
1402	0.0025688
1414	0.0010764
1426	0.000585
1438	0.000793
1450	0.0014066
1462	0.0010244
1474	0.0003484
1486	9.62e-05
1498	9.88e-05
1510	0.00013
1522	0.00013
1534	0.0001066
1546	5.98e-05
1558	3.12e-05
1570	7.02e-05
1582	6.76e-05
1594	5.46e-05
1606	4.68e-05
1618	3.9e-05
1630	3.38e-05
1642	5.46e-05
1654	1.82e-05
1666	5.2e-06
1678	1.04e-05
1690	1.3e-05
1702	0
1714	5.46e-05
1726	7.02e-05
1738	4.94e-05
1750	7.8e-05
1762	8.32e-05
1774	4.94e-05
1786	5.2e-05
1798	5.72e-05
1810	3.12e-05
1822	4.94e-05
1834	5.2e-05
1846	7.28e-05
1858	8.06e-05
1870	6.24e-05
1882	9.88e-05
1894	9.1e-05
1906	0.0001092
1918	0.000104
1930	0.0001326
1942	0.0001118
1954	9.62e-05
1966	0.00013
1978	0.000143
1990	0.0001768
2002	0.0001534
2014	0.0001404
2026	0.000143
2038	0.0001378
2050	0.0001326
2062	0.0001404
2074	0.0001768
2086	0.0001508
2098	0.000169
2110	0.0001586
2122	0.000169
2134	0.0002002
2146	0.0002392
2158	0.0003406
2170	0.0004446
2182	0.0004342
2194	0.0003016
2206	0.0001794
2218	0.0001638
2230	0.0001248
2242	0.0001482
2254	0.0001508
2266	0.000143
2278	0.0001118
2290	0.0001196
2302	0.0001092
2314	0.0001222
2326	0.0001326
2338	0.0001274
2350	0.00013
2362	0.0001482
2374	0.0001768
2386	0.0001352
2398	0.0001456
2410	0.0001664
2422	0.0002184
2434	0.0001768
2446	0.0002054
2458	0.0002236
2470	0.000208
2482	0.0001742
2494	0.0001794
2506	0.00013
2518	0.0001352
2530	0.000182
2542	0.0002236
2554	0.0002314
2566	0.0002184
2578	0.0001638
2590	0.0001846
2602	0.0001196
2614	9.62e-05
2626	0.0001144
2638	9.88e-05
2650	0.0001274
2662	0.0001482
2674	0.000182
2686	0.0001872
2698	0.0001768
2710	0.000195
2722	0.0001716
2734	0.0001274
2746	0.0001716
2758	0.0001092
2770	0.0001326
2782	0.0001456
2794	0.0001768
2806	0.0001794
2818	0.0001924
2830	0.0002392
2842	0.0003224
2854	0.0004212
2866	0.0008762
2878	0.0014742
2890	0.0011466
2902	0.0006422
2914	0.0009958
2926	0.0027456
2938	0.0036738
2950	0.0022932
2962	0.0012818
2974	0.0014404
2986	0.0015236
2998	0.0008008
3010	0.0003146
3022	0.000221
3034	0.0001248
3046	0.000195
3058	0.0001638
3070	0.0001326
3082	0.0001456
3094	9.36e-05
3106	0.0001248
3118	0.000169
3130	0.0001118
3142	0.0001612
3154	0.0001066
3166	9.88e-05
3178	0.0001664
3190	0.000182
3202	0.0001846
3214	0.0001664
3226	0.0002262
3238	0.0001768
3250	0.0002366
3262	0.0002158
3274	0.00026
3286	0.0002574
3298	0.0002522
3310	0.0003146
3322	0.0003068
3334	0.000338
3346	0.00039
3358	0.0003432
3370	0.0003588
3382	0.0003146
3394	0.0003328
3406	0.0003276
3418	0.0003198
3430	0.0002626
3442	0.0003068
3454	0.0003588
3466	0.0003172
3478	0.0002938
3490	0.0003458
3502	0.0004134
3514	0.0004186
3526	0.0003458
3538	0.0002678
3550	0.0003094
3562	0.0003198
3574	0.0003692
3586	0.0004992
3598	0.000741
3610	0.0022386
3622	0.0066274
3634	0.0089674
3646	0.00494
3658	0.0014326
3670	0.0007358
3682	0.0005434
3694	0.0004342
3706	0.0004004
3718	0.000325
3730	0.000312
3742	0.0003198
3754	0.0004264
3766	0.000416
3778	0.0003796
3790	0.0003042
3802	0.0003276
3814	0.0003718
3826	0.0004186
3838	0.0004342
