Infrared Spectrum: trans-Decahydronaphthalene
Formula: C 10 H 18
CAS: 493-02-7
State: gas
Instrument: HP-GC/MS/IRD
Origin: NIST Mass Spectrometry Data Center
1/CM	ABSORBANCE
550	0.0003978
562	0.0007956
574	0.0004862
586	0.0005746
598	0.0003536
610	4.42e-05
622	8.84e-05
634	0.0002652
646	0.0004199
658	0.0003315
670	0.0001547
682	4.42e-05
694	0.0001105
706	0.000221
718	0.0002873
730	0.0002873
742	0.0001768
754	0.0001326
766	6.63e-05
778	4.42e-05
790	0.0001326
802	0.0003978
814	0.0007956
826	0.0019669
838	0.0028509
850	0.0012155
862	0.0002873
874	0.0001326
886	0.0001547
898	0.0002873
910	0.0007956
922	0.0017238
934	0.001547
946	0.0005746
958	0.0008398
970	0.0015691
982	0.0015028
994	0.0005967
1006	0.0003094
1018	0.000663
1030	0.0008398
1042	0.0005083
1054	0.0005967
1066	0.0005304
1078	0.000221
1090	0.0001547
1102	0.0001989
1114	0.0004199
1126	0.0007956
1138	0.0012376
1150	0.0009503
1162	0.0005746
1174	0.000221
1186	0.0002652
1198	0.0002652
1210	0.0006188
1222	0.0016575
1234	0.0015691
1246	0.0016133
1258	0.0019227
1270	0.000663
1282	0.0003094
1294	0.0006409
1306	0.001326
1318	0.0012155
1330	0.0017238
1342	0.0022763
1354	0.0015912
1366	0.000663
1378	0.0005304
1390	0.0005525
1402	0.0006851
1414	0.0009282
1426	0.0016796
1438	0.0075582
1450	0.0175916
1462	0.0129064
1474	0.0040885
1486	0.0008177
1498	0.0003536
1510	0.000221
1522	0.0001326
1534	4.42e-05
1546	6.63e-05
1558	2.21e-05
1570	0.0001547
1582	0.0002431
1594	0.0002431
1606	0.0001768
1618	0.0001105
1630	0.0001105
1642	8.84e-05
1654	2.21e-05
1666	4.42e-05
1678	6.63e-05
1690	4.42e-05
1702	0.0001105
1714	0.0001326
1726	0.0001105
1738	0.0001768
1750	0.0001547
1762	0.0001105
1774	6.63e-05
1786	0.0001989
1798	0.0001989
1810	0.0001547
1822	8.84e-05
1834	6.63e-05
1846	8.84e-05
1858	0.0001326
1870	0.0001547
1882	0.0001326
1894	6.63e-05
1906	8.84e-05
1918	6.63e-05
1930	8.84e-05
1942	8.84e-05
1954	8.84e-05
1966	4.42e-05
1978	0.0001105
1990	0.0001326
2002	8.84e-05
2014	8.84e-05
2026	0.0001105
2038	8.84e-05
2050	0.0001326
2062	6.63e-05
2074	8.84e-05
2086	0
2098	2.21e-05
2110	2.21e-05
2122	2.21e-05
2134	0
2146	4.42e-05
2158	8.84e-05
2170	0.0002431
2182	0.0002873
2194	0.0002652
2206	0.0002652
2218	0.000221
2230	6.63e-05
2242	4.42e-05
2254	6.63e-05
2266	6.63e-05
2278	0.0001326
2290	0.0002652
2302	0.0002652
2314	0.0002431
2326	0.0001547
2338	0.0001768
2350	0.0001768
2362	0.0001989
2374	0.000221
2386	0.0003536
2398	0.0003094
2410	0.0002873
2422	0.0002431
2434	0.000221
2446	0.0001768
2458	0.0001547
2470	0.000221
2482	0.0002873
2494	0.0003757
2506	0.0003978
2518	0.0003315
2530	0.0003094
2542	0.0003536
2554	0.0004862
2566	0.0006851
2578	0.0009061
2590	0.0010608
2602	0.001105
2614	0.0012376
2626	0.0014365
2638	0.0016575
2650	0.0021879
2662	0.003094
2674	0.0027625
2686	0.0020111
2698	0.0017901
2710	0.0015691
2722	0.0013039
2734	0.0011271
2746	0.0010608
2758	0.0012155
2770	0.0018122
2782	0.0028288
2794	0.0039559
2806	0.0045747
2818	0.0052377
2830	0.0095693
2842	0.0337025
2854	0.085085
2866	0.0820794
2878	0.0347633
2890	0.0298129
2902	0.0587639
2914	0.126987
2926	0.213
2938	0.174037
2950	0.0654602
2962	0.0095914
2974	0.0037128
2986	0.0023647
2998	0.0015912
3010	0.0010608
3022	0.0008398
3034	0.0009282
3046	0.0013039
3058	0.0017901
3070	0.0012818
3082	0.0006409
3094	0.0003757
3106	0.0002652
3118	0.0003757
3130	0.0004641
3142	0.0005746
3154	0.0005525
3166	0.0003536
3178	0.0003094
3190	0.0004199
3202	0.0005525
3214	0.0006409
3226	0.0005083
3238	0.0005083
3250	0.0005304
3262	0.0006188
3274	0.0003536
3286	0.0001547
3298	0.0001105
3310	0.0001547
3322	0.0001326
3334	0.0001989
3346	0.0001547
3358	8.84e-05
3370	8.84e-05
3382	0.0001768
3394	0.0001768
3406	0.0001547
3418	0.0002431
3430	0.0002431
3442	0.0002873
3454	0.0003315
3466	0.0003315
3478	0.0003536
3490	0.0002652
3502	0.0001547
3514	6.63e-05
3526	8.84e-05
3538	6.63e-05
3550	8.84e-05
3562	6.63e-05
3574	4.42e-05
3586	6.63e-05
3598	6.63e-05
3610	4.42e-05
3622	0
3634	2.21e-05
3646	4.42e-05
3658	8.84e-05
3670	0.0001105
3682	0.0001768
3694	0.0002431
3706	0.0002431
3718	0.0003536
3730	0.0003094
3742	0.0002652
3754	0.0002873
3766	0.0003757
3778	0.0003757
3790	0.0003315
3802	0.0001547
3814	0.0001768
3826	0.0002431
3838	0.000221
