Infrared Spectrum: 2-HYDRAZINOPYRIDINE
Formula: C5 H7 N3
CAS: 4930-98-7
State: LIQUID (NEAT)
Class: COBLENTZ III
Instrument: DOW KBr FOREPRISM-GRATING
Instrument parameters: GRATING BLAZED AT 3.5, 12.0, 20.0 MICRONS AND CHANGED AT 5.0, 7.5, 14.9 MICRONS
Sampling: TRANSMISSION
Path length: CAPILLARY
Resolution: 4
Origin: DOW CHEMICAL COMPANY
1/CM	TRANSMITTANCE
453.597	0.64
462.383	0.653
471.17	0.693
479.956	0.718
488.742	0.728
497.529	0.724
506.315	0.707
515.102	0.66
523.888	0.628
532.674	0.655
541.461	0.662
550.247	0.652
559.033	0.649
567.82	0.645
576.606	0.642
585.393	0.646
594.179	0.656
602.965	0.66
611.752	0.666
620.538	0.601
629.324	0.668
638.111	0.675
646.897	0.652
655.684	0.644
664.47	0.623
673.256	0.646
682.043	0.641
690.829	0.646
699.615	0.64
708.402	0.645
717.188	0.627
725.975	0.427
734.761	0.46
743.547	0.507
752.334	0.575
761.12	0.463
769.906	0.315
778.693	0.405
787.479	0.646
796.265	0.76
805.052	0.777
813.838	0.771
822.625	0.766
831.411	0.751
840.197	0.725
848.984	0.667
857.77	0.668
866.556	0.71
875.343	0.735
884.129	0.747
892.916	0.75
901.702	0.74
910.488	0.728
919.275	0.711
928.061	0.699
936.847	0.68
945.634	0.663
954.42	0.638
963.207	0.624
971.993	0.597
980.779	0.542
989.566	0.601
998.352	0.671
1007.14	0.726
1015.92	0.79
1024.71	0.805
1033.5	0.783
1042.28	0.754
1051.07	0.801
1059.86	0.824
1068.64	0.817
1077.43	0.815
1086.22	0.746
1095	0.79
1103.79	0.798
1112.57	0.8
1121.36	0.762
1130.15	0.707
1138.93	0.66
1147.72	0.529
1156.51	0.564
1165.29	0.588
1174.08	0.764
1182.87	0.797
1191.65	0.826
1200.44	0.84
1209.22	0.841
1218.01	0.838
1226.8	0.833
1235.58	0.813
1244.37	0.761
1253.16	0.631
1261.94	0.644
1270.73	0.619
1279.52	0.597
1288.3	0.415
1297.09	0.652
1305.88	0.637
1314.66	0.609
1323.45	0.588
1332.23	0.648
1341.02	0.684
1349.81	0.695
1358.59	0.693
1367.38	0.743
1376.17	0.779
1384.95	0.777
1393.74	0.762
1402.53	0.737
1411.31	0.617
1420.1	0.408
1428.88	0.543
1437.67	0.408
1446.46	0.278
1455.24	0.375
1464.03	0.442
1472.82	0.377
1481.6	0.246
1490.39	0.284
1499.18	0.344
1507.96	0.372
1516.75	0.324
1525.53	0.386
1534.32	0.558
1543.11	0.682
1551.89	0.681
1560.68	0.591
1569.47	0.346
1578.25	0.394
1587.04	0.387
1595.83	0.139
1604.61	0.184
1613.4	0.24
1622.18	0.314
1630.97	0.433
1639.76	0.524
1648.54	0.617
1657.33	0.708
1666.12	0.786
1674.9	0.82
1683.69	0.852
1692.48	0.87
1701.26	0.884
1710.05	0.893
1718.83	0.899
1727.62	0.906
1736.41	0.918
1745.19	0.929
1753.98	0.936
1762.77	0.942
1771.55	0.944
1780.34	0.942
1789.13	0.936
1797.91	0.933
1806.7	0.931
1815.48	0.917
1824.27	0.931
1833.06	0.935
1841.84	0.936
1850.63	0.937
1859.42	0.936
1868.2	0.942
1876.99	0.942
1885.78	0.936
1894.56	0.931
1903.35	0.892
1912.13	0.921
1920.92	0.921
1929.71	0.911
1938.49	0.917
1947.28	0.902
1956.07	0.918
1964.85	0.92
1973.64	0.922
1982.43	0.929
1991.21	0.936
2000	0.943
2008.78	0.944
2017.57	0.948
2026.36	0.9511
2035.14	0.954
2043.93	0.9541
2052.72	0.955
2061.5	0.957
2070.29	0.957
2079.08	0.96
2087.86	0.961
2096.65	0.9614
2105.43	0.964
2114.22	0.9608
2123.01	0.9584
2131.79	0.959
2140.58	0.953
2149.37	0.958
2158.15	0.96
2166.94	0.961
2175.73	0.957
2184.51	0.9556
2193.3	0.9558
2202.08	0.9516
2210.87	0.9557
2219.66	0.955
2228.44	0.953
2237.23	0.955
2246.02	0.948
2254.8	0.948
2263.59	0.95
2272.38	0.9506
2281.16	0.946
2289.95	0.9381
2298.74	0.9325
2307.52	0.931
2316.31	0.9285
2325.09	0.9245
2333.88	0.921
2342.67	0.924
2351.45	0.9255
2360.24	0.9326
2369.03	0.933
2377.81	0.9342
2386.6	0.935
2395.39	0.9324
2404.17	0.9247
2412.96	0.922
2421.74	0.924
2430.53	0.924
2439.32	0.9226
2448.1	0.9203
2456.89	0.92
2465.68	0.921
2474.46	0.9203
2483.25	0.9173
2492.04	0.9132
2500.82	0.9072
2509.61	0.8934
2518.39	0.891
2527.18	0.8882
2535.97	0.8783
2544.75	0.8993
2553.54	0.906
2562.33	0.902
2571.11	0.9018
2579.9	0.9
2588.69	0.895
2597.47	0.892
2606.26	0.8841
2615.04	0.8839
2623.83	0.885
2632.62	0.886
2641.4	0.886
2650.19	0.886
2658.98	0.884
2667.76	0.881
2676.55	0.877
2685.34	0.874
2694.12	0.873
2702.91	0.873
2711.69	0.871
2720.48	0.8669
2729.27	0.862
2738.05	0.8558
2746.84	0.851
2755.63	0.8443
2764.41	0.8326
2773.2	0.8224
2781.99	0.8186
2790.77	0.816
2799.56	0.815
2808.34	0.816
2817.13	0.8047
2825.92	0.793
2834.7	0.7797
2843.49	0.7727
2852.28	0.7634
2861.06	0.7453
2869.85	0.7389
2878.64	0.7273
2887.42	0.717
2896.21	0.6948
2904.99	0.6647
2913.78	0.6185
2922.57	0.5836
2931.35	0.6042
2940.14	0.6155
2948.93	0.6081
2957.71	0.5945
2966.5	0.5498
2975.29	0.523
2984.07	0.5098
2992.86	0.4827
3001.64	0.4352
3010.43	0.3534
3019.22	0.3886
3028	0.4804
3036.79	0.4978
3045.58	0.4734
3054.36	0.4614
3063.15	0.459
3071.94	0.469
3080.72	0.4314
3089.51	0.4459
3098.29	0.457
3107.08	0.4513
3115.87	0.428
3124.65	0.413
3133.44	0.4065
3142.23	0.405
3151.01	0.3895
3159.8	0.3464
3168.59	0.2695
3177.37	0.2375
3186.16	0.2705
3194.94	0.277
3203.73	0.28
3212.52	0.2676
3221.3	0.2465
3230.09	0.2165
3238.88	0.2001
3247.66	0.187
3256.45	0.191
3265.24	0.2079
3274.02	0.2369
3282.81	0.256
3291.6	0.26
3300.38	0.1974
3309.17	0.2018
3317.95	0.2915
3326.74	0.3516
3335.53	0.3904
3344.31	0.4193
3353.1	0.4541
3361.89	0.4915
3370.67	0.5258
3379.46	0.5526
3388.25	0.574
3397.03	0.5985
3405.82	0.6196
3414.6	0.6442
3423.39	0.6678
3432.18	0.6857
3440.96	0.697
3449.75	0.708
3458.54	0.7136
3467.32	0.7206
3476.11	0.7323
3484.9	0.7423
3493.68	0.7487
3502.47	0.7557
3511.25	0.7627
3520.04	0.7697
3528.83	0.7754
3537.61	0.7824
3546.4	0.7888
3555.19	0.7958
3563.97	0.8014
3572.76	0.806
3581.55	0.8115
3590.33	0.8165
3599.12	0.8195
3607.9	0.822
3616.69	0.823
3625.48	0.823
3634.26	0.8291
3643.05	0.8336
3651.84	0.8427
3660.62	0.8516
3669.41	0.852
3678.2	0.849
3686.98	0.851
3695.77	0.852
3704.55	0.851
3713.34	0.8497
3722.13	0.8487
3730.91	0.853
3739.7	0.851
3748.49	0.848
3757.27	0.846
3766.06	0.842
3774.85	0.841
3783.63	0.844
3792.42	0.8412
