Infrared Spectrum: N-Phenethyl-2-norbornanamine
Formula: C15 H21 N
CAS: 4935-80-2
State: SOLUTION (10% CCl4 FOR 3800-400 CM^-^1)
Class: COBLENTZ
Instrument: DOW KBr FOREPRISM-GRATING
Instrument parameters: BLAZED AT 3.5, 12.0, 20.0 MICRON AND CHANGED AT 5.0, 7.5, 14.9 MICRON
Sampling: TRANSMISSION
Path length: 0.010 CM
Resolution: 2
Origin: DOW CHEMICAL COMPANY
1/CM	TRANSMITTANCE
3798	0.9277
3789	0.9311
3780	0.9271
3771	0.9252
3762	0.9259
3753	0.9269
3744	0.93
3735	0.9388
3726	0.9365
3717	0.9309
3708	0.931
3699	0.9286
3690	0.9185
3681	0.922
3672	0.9178
3663	0.9198
3654	0.9236
3645	0.9275
3636	0.9301
3627	0.9327
3618	0.9335
3609	0.9341
3600	0.9343
3591	0.9358
3582	0.9362
3573	0.936
3564	0.9342
3555	0.9357
3546	0.9344
3537	0.9325
3528	0.9299
3519	0.9278
3510	0.9259
3501	0.924
3492	0.9223
3483	0.921
3474	0.9199
3465	0.9186
3456	0.9172
3447	0.9158
3438	0.9144
3429	0.9135
3420	0.9127
3411	0.9122
3402	0.9118
3393	0.9114
3384	0.9109
3375	0.9106
3366	0.911
3357	0.9111
3348	0.9104
3339	0.909
3330	0.9054
3321	0.8985
3312	0.9042
3303	0.9053
3294	0.9078
3285	0.91
3276	0.9128
3267	0.9163
3258	0.9186
3249	0.9209
3240	0.9223
3231	0.9229
3222	0.9222
3213	0.9216
3204	0.9193
3195	0.9198
3186	0.9171
3177	0.9145
3168	0.9124
3159	0.9136
3150	0.9143
3141	0.9131
3132	0.9133
3123	0.9093
3114	0.8907
3105	0.8602
3096	0.8254
3087	0.7331
3078	0.7865
3069	0.6646
3060	0.7225
3051	0.7983
3042	0.8035
3033	0.488
3024	0.5943
3015	0.7561
3006	0.7507
2997	0.7088
2988	0.6422
2979	0.4752
2970	0.2594
2961	0.0583
2952	0.0213
2943	0.0188
2934	0.0764
2925	0.1695
2916	0.2647
2907	0.2791
2898	0.3187
2889	0.4305
2880	0.4418
2871	0.17
2862	0.2426
2853	0.4083
2844	0.5286
2835	0.517
2826	0.4827
2817	0.4702
2808	0.4601
2799	0.4957
2790	0.5636
2781	0.6304
2772	0.7708
2763	0.8108
2754	0.8389
2745	0.8446
2736	0.8383
2727	0.8319
2718	0.8483
2709	0.8671
2700	0.8728
2691	0.8682
2682	0.864
2673	0.875
2664	0.8862
2655	0.8921
2646	0.8896
2637	0.8845
2628	0.8887
2619	0.8992
2610	0.9028
2601	0.9037
2592	0.9088
2583	0.9102
2574	0.9125
2565	0.9151
2556	0.9179
2547	0.9205
2538	0.9231
2529	0.9258
2520	0.9286
2511	0.9314
2502	0.9341
2493	0.9361
2484	0.9379
2475	0.9402
2466	0.9407
2457	0.9403
2448	0.9425
2439	0.9438
2430	0.9452
2421	0.9462
2412	0.9467
2403	0.9489
2394	0.9497
2385	0.9527
2376	0.9604
2367	0.9617
2358	0.9673
2349	0.9712
2340	0.975
2331	0.9767
2322	0.9814
2313	0.9729
2304	0.965
2295	0.957
2286	0.9532
2277	0.9506
2268	0.9476
2259	0.9466
2250	0.946
2241	0.9489
2232	0.9494
2223	0.9492
2214	0.9463
2205	0.9452
2196	0.9448
2187	0.943
2178	0.9444
2169	0.945
2160	0.944
2151	0.9443
2142	0.9445
2133	0.9447
2124	0.9449
2115	0.9447
2106	0.9446
2097	0.9425
2088	0.9439
2079	0.9439
2070	0.9437
2061	0.9428
2052	0.9427
2043	0.9409
2034	0.9431
2025	0.9424
2016	0.9395
2007	0.9375
1998	0.9309
1989	0.9168
1980	0.9147
1971	0.9136
1962	0.9056
1953	0.9014
1944	0.8638
1935	0.9049
1926	0.9129
1917	0.9155
1908	0.9127
1899	0.9129
1890	0.896
1881	0.8926
1872	0.8881
1863	0.9037
1854	0.9132
1845	0.9157
1836	0.9142
1827	0.9076
1818	0.9078
1809	0.8887
1800	0.8952
1791	0.9187
1782	0.9184
1773	0.9196
1764	0.9168
1755	0.8978
1746	0.8902
1737	0.8974
1728	0.9079
1719	0.9146
1710	0.9185
1701	0.9192
1692	0.9135
1683	0.9158
1674	0.9184
1665	0.9155
1656	0.9169
1647	0.9159
1638	0.9167
1629	0.9174
1620	0.9128
1611	0.837
1602	0.7643
1593	0.8634
1584	0.8727
1575	0.9039
1566	0.8602
1557	0.8653
1548	0.9383
1539	0.9658
1530	0.9581
1521	0.9281
1512	0.9093
1503	0.6044
1494	0.639
1485	0.7916
1476	0.6299
1467	0.5798
1458	0.3446
1449	0.398
1440	0.6238
1431	0.7912
1422	0.8602
1413	0.8905
1404	0.899
1395	0.8971
1386	0.8284
1377	0.8173
1368	0.7877
1359	0.6915
1350	0.4848
1341	0.6982
1332	0.7617
1323	0.787
1314	0.7613
1305	0.741
1296	0.8173
1287	0.8134
1278	0.7953
1269	0.7188
1260	0.6431
1251	0.6256
1242	0.6423
1233	0.7297
1224	0.7184
1215	0.7074
1206	0.7292
1197	0.7707
1188	0.7743
1179	0.7036
1170	0.5772
1161	0.7029
1152	0.7914
1143	0.7962
1134	0.4509
1125	0.6431
1116	0.5778
1107	0.5771
1098	0.7392
1089	0.7455
1080	0.72
1071	0.7423
1062	0.7703
1053	0.8207
1044	0.8215
1035	0.6512
1026	0.7863
1017	0.7009
1008	0.639
999	0.6758
990	0.7054
981	0.6756
972	0.706
963	0.7876
954	0.8199
945	0.8141
936	0.8078
927	0.8336
918	0.8638
909	0.8349
900	0.8659
891	0.8819
882	0.8898
873	0.9093
864	0.9156
855	0.9041
846	0.7445
837	0.5528
828	0.3614
819	0.1767
810	0.0122
801	0.0051
792	0.005
783	0.0048
774	0.0047
765	0.0045
756	0.0043
747	0.0042
738	0.0263
729	0.1421
720	0.3008
711	0.435
702	0.1019
693	0.4617
684	0.6356
675	0.7031
666	0.7616
657	0.8265
648	0.8469
639	0.8355
630	0.7721
621	0.8071
612	0.8222
603	0.7514
594	0.7666
585	0.7284
576	0.7763
567	0.7755
558	0.7506
549	0.7413
540	0.6539
531	0.7179
522	0.7078
513	0.7309
504	0.7218
495	0.6522
486	0.6652
477	0.6781
468	0.6872
