Infrared Spectrum: GLYOXIME, METHYLPHENYL-
Formula: C9 H10 N2 O2
CAS: 4937-86-4
State: SOLID (0.8 mg / 650 mg, KBr DISC)
Class: COBLENTZ III
Instrument: PERKIN-ELMER 21 (GRATING)
Instrument parameters: FILTER CHANGE AT ABOUT 1070 CM^-^1
Sampling: TRANSMISSION
Resolution: 2
Origin: SOUTHERN RESEARCH INSTITUTE
1/CM	TRANSMITTANCE
623.387	0.858
631.777	0.8294
640.168	0.8093
648.558	0.7783
656.949	0.7221
665.339	0.6712
673.729	0.6221
682.12	0.4727
690.51	0.2535
698.901	0.2006
707.291	0.1334
715.681	0.421
724.072	0.4686
732.462	0.3598
740.853	0.2539
749.243	0.265
757.633	0.271
766.024	0.2339
774.414	0.6729
782.805	0.7564
791.195	0.7794
799.585	0.78
807.976	0.778
816.366	0.777
824.757	0.7596
833.147	0.7368
841.537	0.7113
849.928	0.6943
858.318	0.6668
866.709	0.5574
875.099	0.4519
883.489	0.1493
891.88	0.1933
900.27	0.64
908.661	0.5575
917.051	0.2836
925.441	0.7568
933.832	0.7319
942.222	0.6782
950.613	0.5514
959.003	0.3484
967.393	0.0915
975.784	0.1096
984.174	0.4021
992.565	0.5652
1000.95	0.585
1009.35	0.3653
1017.74	0.4079
1026.13	0.6399
1034.52	0.7216
1042.91	0.7742
1051.3	0.8085
1059.69	0.7419
1068.08	0.879
1076.47	0.8775
1084.86	0.875
1093.25	0.872
1101.64	0.8737
1110.03	0.876
1118.42	0.877
1126.81	0.877
1135.2	0.87
1143.59	0.858
1151.98	0.8389
1160.37	0.8461
1168.76	0.8136
1177.15	0.7921
1185.54	0.7723
1193.93	0.6081
1202.32	0.8364
1210.71	0.8465
1219.11	0.8325
1227.5	0.8242
1235.89	0.8103
1244.28	0.7957
1252.67	0.789
1261.06	0.7846
1269.45	0.775
1277.84	0.773
1286.23	0.7571
1294.62	0.7401
1303.01	0.7137
1311.4	0.6873
1319.79	0.6606
1328.18	0.6365
1336.57	0.6134
1344.96	0.6105
1353.35	0.5743
1361.74	0.5155
1370.13	0.4774
1378.52	0.4975
1386.91	0.4561
1395.3	0.4042
1403.69	0.3658
1412.08	0.3151
1420.47	0.2751
1428.87	0.2891
1437.26	0.3284
1445.65	0.5269
1454.04	0.659
1462.43	0.6786
1470.82	0.6876
1479.21	0.6732
1487.6	0.5712
1495.99	0.7373
1504.38	0.7814
1512.77	0.7884
1521.16	0.7942
1529.55	0.801
1537.94	0.804
1546.33	0.7901
1554.72	0.784
1563.11	0.7755
1571.5	0.735
1579.89	0.803
1588.28	0.7921
1596.67	0.7884
1605.06	0.7789
1613.45	0.764
1621.84	0.7685
1630.23	0.7837
1638.63	0.8075
1647.02	0.8142
1655.41	0.822
1663.8	0.825
1672.19	0.827
1680.58	0.83
1688.97	0.8318
1697.36	0.833
1705.75	0.834
1714.14	0.833
1722.53	0.833
1730.92	0.833
1739.31	0.831
1747.7	0.829
1756.09	0.829
1764.48	0.838
1772.87	0.839
1781.26	0.838
1789.65	0.8298
1798.04	0.823
1806.43	0.83
1814.82	0.8378
1823.21	0.836
1831.6	0.8352
1839.99	0.829
1848.39	0.8217
1856.78	0.816
1865.17	0.8059
1873.56	0.792
1881.95	0.7896
1890.34	0.7827
1898.73	0.7798
1907.12	0.7944
1915.51	0.801
1923.9	0.797
1932.29	0.796
1940.68	0.791
1949.07	0.79
1957.46	0.7978
1965.85	0.8038
1974.24	0.805
1982.63	0.804
1991.02	0.804
1999.41	0.805
2007.8	0.805
2016.19	0.805
2024.58	0.805
2032.97	0.805
2041.36	0.805
2049.75	0.805
2058.15	0.804
2066.54	0.802
2074.93	0.8005
2083.32	0.8
2091.71	0.797
2100.1	0.796
2108.49	0.796
2116.88	0.795
2125.27	0.7905
2133.66	0.785
2142.05	0.782
2150.44	0.78
2158.83	0.7775
2167.22	0.7715
2175.61	0.769
2184	0.767
2192.39	0.768
2200.78	0.767
2209.17	0.763
2217.56	0.761
2225.95	0.761
2234.34	0.757
2242.73	0.755
2251.12	0.754
2259.51	0.754
2267.91	0.7515
2276.3	0.744
2284.69	0.739
2293.08	0.7295
2301.47	0.722
2309.86	0.718
2318.25	0.7165
2326.64	0.7165
2335.03	0.716
2343.42	0.715
2351.81	0.715
2360.2	0.716
2368.59	0.715
2376.98	0.713
2385.37	0.709
2393.76	0.7095
2402.15	0.708
2410.54	0.704
2418.93	0.7005
2427.32	0.698
2435.71	0.696
2444.1	0.695
2452.49	0.686
2460.88	0.681
2469.27	0.6765
2477.66	0.667
2486.06	0.665
2494.45	0.664
2502.84	0.6585
2511.23	0.6585
2519.62	0.652
2528.01	0.647
2536.4	0.644
2544.79	0.644
2553.18	0.6375
2561.57	0.632
2569.96	0.6225
2578.35	0.6145
2586.74	0.6035
2595.13	0.5975
2603.52	0.594
2611.91	0.5895
2620.3	0.585
2628.69	0.5795
2637.08	0.575
2645.47	0.575
2653.86	0.572
2662.25	0.565
2670.64	0.559
2679.03	0.5515
2687.42	0.55
2695.82	0.5435
2704.21	0.522
2712.6	0.5045
2720.99	0.496
2729.38	0.4855
2737.77	0.4765
2746.16	0.4605
2754.55	0.4455
2762.94	0.4395
2771.33	0.4129
2779.72	0.38
2788.11	0.3625
2796.5	0.3425
2804.89	0.3295
2813.28	0.318
2821.67	0.3105
2830.06	0.3015
2838.45	0.283
2846.84	0.278
2855.23	0.274
2863.62	0.2695
2872.01	0.269
2880.4	0.269
2888.79	0.267
2897.18	0.264
2905.58	0.263
2913.97	0.263
2922.36	0.2595
2930.75	0.254
2939.14	0.251
2947.53	0.249
2955.92	0.236
2964.31	0.226
2972.7	0.2145
2981.09	0.197
2989.48	0.185
2997.87	0.177
3006.26	0.17
3014.65	0.167
3023.04	0.164
3031.43	0.163
3039.82	0.1635
3048.21	0.1595
3056.6	0.156
3064.99	0.159
3073.38	0.1635
3081.77	0.1725
3090.16	0.173
3098.55	0.172
3106.94	0.162
3115.34	0.1545
3123.73	0.138
3132.12	0.118
3140.51	0.1
3148.9	0.0955
3157.29	0.09
3165.68	0.084
3174.07	0.0785
3182.46	0.076
3190.85	0.073
3199.24	0.07
3207.63	0.069
3216.02	0.073
3224.41	0.077
3232.8	0.078
3241.19	0.079
3249.58	0.082
3257.97	0.0825
3266.36	0.1025
3274.75	0.121
3283.14	0.134
3291.53	0.1485
3299.92	0.168
3308.31	0.196
3316.7	0.218
3325.1	0.2495
3333.49	0.2655
3341.88	0.2965
3350.27	0.3145
3358.66	0.3365
3367.05	0.3535
3375.44	0.38
3383.83	0.409
3392.22	0.4361
3400.61	0.4581
3409	0.496
3417.39	0.5235
3425.78	0.562
3434.17	0.582
3442.56	0.598
3450.95	0.6241
3459.34	0.6455
3467.73	0.652
3476.12	0.6765
3484.51	0.6895
3492.9	0.7015
3501.29	0.7145
3509.68	0.728
3518.07	0.745
3526.46	0.7525
3534.86	0.76
3543.25	0.7665
3551.64	0.774
3560.03	0.7785
3568.42	0.785
3576.81	0.788
3585.2	0.79
3593.59	0.797
3601.98	0.8
3610.37	0.801
3618.76	0.801
3627.15	0.801
3635.54	0.8
3643.93	0.8
3652.32	0.801
3660.71	0.801
3669.1	0.801
3677.49	0.801
3685.88	0.801
3694.27	0.8
3702.66	0.796
3711.05	0.793
3719.44	0.791
3727.83	0.787
3736.22	0.786
3744.62	0.784
3753.01	0.784
3761.4	0.7835
3769.79	0.784
3778.18	0.78
3786.57	0.7775
3794.96	0.7685
3803.35	0.7655
3811.74	0.7645
