Infrared Spectrum: 3-PENTEN-2-ONE, 2,4-DINITROPHENYLHYDRAZONE
Formula: C11 H12 N4 O4
CAS: 4938-74-3
State: SOLID (NUJOL MULL)
Class: COBLENTZ
Instrument: Not specified, most likely a prism, grating, or hybrid spectrometer.
Sampling: TRANSMISSION
Resolution: 4
Origin: TENNESSEE EASTMAN COMPANY, RESEARCH LABORATORIES
MICROMETERS	TRANSMITTANCE
2.034	0.424
2.0749	0.437
2.11579	0.449
2.15669	0.459
2.19759	0.468
2.23848	0.475
2.27938	0.477
2.32028	0.483
2.36118	0.497
2.40207	0.504
2.44297	0.516
2.48387	0.528
2.52476	0.545
2.56566	0.551
2.60656	0.553
2.64745	0.557
2.68835	0.568
2.72925	0.589
2.77015	0.594
2.81104	0.599
2.85194	0.609
2.89284	0.621
2.93373	0.626
2.97463	0.635
3.01553	0.57
3.05642	0.611
3.09732	0.632
3.13822	0.64
3.17912	0.649
3.22001	0.63
3.26091	0.62
3.30181	0.618
3.3427	0.47
3.3836	0.122
3.4245	0.09
3.46539	0.243
3.50629	0.299
3.54719	0.643
3.58808	0.693
3.62898	0.717
3.66988	0.717
3.71078	0.718
3.75167	0.72
3.79257	0.727
3.83347	0.732
3.87436	0.742
3.91526	0.756
3.95616	0.761
3.99705	0.771
4.03795	0.778
4.07885	0.78
4.11975	0.78
4.16064	0.781
4.20154	0.792
4.24244	0.81
4.28333	0.812
4.32423	0.812
4.36513	0.812
4.40602	0.817
4.44692	0.817
4.48782	0.822
4.52872	0.829
4.56961	0.836
4.61051	0.843
4.65141	0.848
4.6923	0.85
4.7332	0.853
4.7741	0.863
4.81499	0.87
4.85589	0.87
4.89679	0.872
4.93769	0.873
4.97858	0.875
5.01948	0.88
5.06038	0.879
5.10127	0.88
5.14217	0.885
5.18307	0.894
5.22396	0.896
5.26486	0.899
5.30576	0.906
5.34665	0.913
5.38755	0.913
5.42845	0.913
5.46935	0.913
5.51024	0.911
5.55114	0.921
5.59204	0.928
5.63293	0.926
5.67383	0.928
5.71473	0.931
5.75562	0.931
5.79652	0.94
5.83742	0.948
5.87832	0.948
5.91921	0.942
5.96011	0.942
6.00101	0.938
6.0419	0.913
6.0828	0.807
6.1237	0.787
6.16459	0.505
6.20549	0.197
6.24639	0.442
6.28729	0.35
6.32818	0.502
6.36908	0.715
6.40998	0.776
6.45087	0.821
6.49177	0.781
6.53267	0.759
6.57356	0.456
6.61446	0.407
6.65536	0.551
6.69625	0.562
6.73715	0.688
6.77805	0.611
6.81895	0.494
6.85984	0.49
6.90074	0.497
6.94164	0.565
6.98253	0.577
7.02343	0.459
7.06433	0.611
7.10522	0.761
7.14612	0.81
7.18702	0.8
7.22792	0.601
7.26881	0.431
7.30971	0.453
7.35061	0.56
7.3915	0.679
7.4324	0.609
7.4733	0.345
7.51419	0.182
7.55509	0.151
7.59599	0.282
7.63689	0.229
7.67778	0.223
7.71868	0.342
7.75958	0.454
7.80047	0.369
7.84137	0.313
7.88227	0.48
7.92316	0.485
7.96406	0.347
8.00496	0.48
8.04585	0.625
8.08675	0.683
8.12765	0.666
8.16855	0.57
8.20944	0.56
8.25034	0.642
8.29124	0.698
8.33213	0.734
8.37303	0.758
8.41393	0.768
8.45482	0.783
8.49572	0.797
8.53662	0.812
8.57752	0.824
8.61841	0.838
8.65931	0.848
8.70021	0.809
8.7411	0.614
8.782	0.422
8.8229	0.449
8.86379	0.519
8.90469	0.529
8.94559	0.531
8.98649	0.606
9.02738	0.652
9.06828	0.669
9.10918	0.654
9.15007	0.601
9.19097	0.587
9.23187	0.662
9.27276	0.729
9.31366	0.768
9.35456	0.787
9.39546	0.781
9.43635	0.676
9.47725	0.669
9.51815	0.73
9.55904	0.761
9.59994	0.781
9.64084	0.798
9.68173	0.81
9.72263	0.812
9.76353	0.812
9.80442	0.81
9.84532	0.81
9.88622	0.819
9.92712	0.829
9.96801	0.839
10.0089	0.846
10.0498	0.848
10.0907	0.848
10.1316	0.843
10.1725	0.81
10.2134	0.666
10.2543	0.495
10.2952	0.647
10.3361	0.787
10.377	0.819
10.4179	0.822
10.4588	0.819
10.4997	0.807
10.5406	0.8
10.5815	0.809
10.6224	0.827
10.6633	0.848
10.7042	0.853
10.7451	0.841
10.786	0.798
10.8268	0.749
10.8677	0.773
10.9086	0.798
10.9495	0.809
10.9904	0.868
11.0313	0.887
11.0722	0.897
11.1131	0.909
11.154	0.913
11.1949	0.916
11.2358	0.918
11.2767	0.919
11.3176	0.921
11.3585	0.921
11.3994	0.923
11.4403	0.925
11.4812	0.923
11.5221	0.921
11.563	0.919
11.6039	0.921
11.6448	0.921
11.6857	0.919
11.7266	0.884
11.7675	0.771
11.8084	0.669
11.8493	0.742
11.8902	0.826
11.9311	0.877
11.972	0.848
12.0129	0.759
12.0538	0.826
12.0947	0.877
12.1356	0.885
12.1764	0.889
12.2173	0.899
12.2582	0.908
12.2991	0.911
12.34	0.911
12.3809	0.909
12.4218	0.909
12.4627	0.909
12.5036	0.908
12.5445	0.908
12.5854	0.909
12.6263	0.908
12.6672	0.908
12.7081	0.913
12.749	0.911
12.7899	0.911
12.8308	0.909
12.8717	0.909
12.9126	0.909
12.9535	0.911
12.9944	0.899
13.0353	0.87
13.0762	0.873
13.1171	0.88
13.158	0.885
13.1989	0.884
13.2398	0.877
13.2807	0.844
13.3216	0.747
13.3625	0.65
13.4034	0.623
13.4443	0.7
13.4852	0.78
13.526	0.816
13.5669	0.817
13.6078	0.804
13.6487	0.749
13.6896	0.734
13.7305	0.756
13.7714	0.79
13.8123	0.805
13.8532	0.814
13.8941	0.822
13.935	0.827
13.9759	0.836
14.0168	0.838
14.0577	0.839
14.0986	0.841
14.1395	0.843
14.1804	0.843
14.2213	0.843
14.2622	0.838
14.3031	0.839
14.344	0.838
14.3849	0.836
14.4258	0.827
14.4667	0.821
14.5076	0.814
14.5485	0.809
14.5894	0.802
14.6303	0.798
14.6712	0.798
14.7121	0.798
14.753	0.797
14.7939	0.785
14.8348	0.766
14.8756	0.746
14.9165	0.741
14.9574	0.739
14.9983	0.741
15.0392	0.739
15.0801	0.739
15.121	0.739
15.1619	0.739
15.2028	0.739
15.2437	0.739
15.2846	0.739
15.3255	0.737
15.3664	0.737
15.4073	0.737
15.4482	0.735
15.4891	0.732
15.53	0.73
15.5709	0.73
15.6118	0.729
15.6527	0.725
15.6936	0.725
15.7345	0.718
15.7754	0.718
15.8163	0.717
15.8572	0.706
15.8981	0.698
15.939	0.698
15.9799	0.696
