Infrared Spectrum: MENTHOFURAN
Formula: C10 H14 O
CAS: 494-90-6
State: LIQUID
Class: COBLENTZ
Instrument: Not specified, most likely a prism, grating, or hybrid spectrometer.
Sampling: TRANSMISSION
Path length: 0.0025 CM
Resolution: 4
Origin: INFRACORD
MICROMETERS	TRANSMITTANCE
2.524	0.93
2.55943	0.93
2.59485	0.928
2.63028	0.928
2.6657	0.928
2.70113	0.908
2.73655	0.899
2.77198	0.895
2.8074	0.895
2.84283	0.895
2.87826	0.894
2.91368	0.892
2.94911	0.892
2.98453	0.893
3.01996	0.893
3.05538	0.891
3.09081	0.885
3.12623	0.872
3.16166	0.871
3.19709	0.871
3.23251	0.865
3.26794	0.802
3.30336	0.481
3.33879	0.113
3.37421	0.065
3.40964	0.16
3.44507	0.229
3.48049	0.424
3.51592	0.777
3.55134	0.849
3.58677	0.857
3.62219	0.859
3.65762	0.879
3.69304	0.887
3.72847	0.888
3.7639	0.888
3.79932	0.889
3.83475	0.898
3.87017	0.906
3.9056	0.908
3.94102	0.91
3.97645	0.914
4.01187	0.915
4.0473	0.914
4.08273	0.915
4.11815	0.915
4.15358	0.915
4.189	0.917
4.22443	0.918
4.25985	0.918
4.29528	0.918
4.3307	0.919
4.36613	0.923
4.40156	0.93
4.43698	0.93
4.47241	0.93
4.50783	0.932
4.54326	0.932
4.57868	0.951
4.61411	0.949
4.64953	0.946
4.68496	0.946
4.72039	0.946
4.75581	0.946
4.79124	0.946
4.82666	0.946
4.86209	0.946
4.89751	0.945
4.93294	0.946
4.96837	0.947
5.00379	0.946
5.03922	0.947
5.07464	0.947
5.11007	0.949
5.14549	0.951
5.18092	0.951
5.21634	0.951
5.25177	0.952
5.2872	0.952
5.32262	0.953
5.35805	0.953
5.39347	0.955
5.4289	0.953
5.46432	0.953
5.49975	0.953
5.53517	0.933
5.5706	0.926
5.60603	0.925
5.64145	0.899
5.67688	0.879
5.7123	0.892
5.74773	0.911
5.78315	0.915
5.81858	0.914
5.854	0.868
5.88943	0.884
5.92486	0.915
5.96028	0.92
5.99571	0.925
6.03113	0.927
6.06656	0.887
6.10198	0.665
6.13741	0.853
6.17283	0.894
6.20826	0.914
6.24369	0.919
6.27911	0.92
6.31454	0.92
6.34996	0.911
6.38539	0.694
6.42081	0.687
6.45624	0.878
6.49166	0.891
6.52709	0.902
6.56252	0.912
6.59794	0.912
6.63337	0.912
6.66879	0.906
6.70422	0.879
6.73964	0.833
6.77507	0.775
6.8105	0.631
6.84592	0.429
6.88135	0.307
6.91677	0.381
6.9522	0.413
6.98762	0.525
7.02305	0.706
7.05847	0.629
7.0939	0.558
7.12933	0.731
7.16475	0.792
7.20018	0.798
7.2356	0.637
7.27103	0.563
7.30645	0.65
7.34188	0.744
7.3773	0.776
7.41273	0.798
7.44816	0.783
7.48358	0.765
7.51901	0.776
7.55443	0.784
7.58986	0.784
7.62528	0.782
7.66071	0.615
7.69613	0.52
7.73156	0.582
7.76699	0.726
7.80241	0.848
7.83784	0.868
7.87326	0.874
7.90869	0.876
7.94411	0.811
7.97954	0.707
8.01496	0.795
8.05039	0.833
8.08582	0.849
8.12124	0.866
8.15667	0.866
8.19209	0.762
8.22752	0.798
8.26294	0.854
8.29837	0.871
8.3338	0.872
8.36922	0.873
8.40465	0.873
8.44007	0.881
8.4755	0.887
8.51092	0.887
8.54635	0.887
8.58177	0.795
8.6172	0.582
8.65263	0.597
8.68805	0.773
8.72348	0.823
8.7589	0.827
8.79433	0.749
8.82975	0.549
8.86518	0.511
8.9006	0.706
8.93603	0.788
8.97146	0.794
9.00688	0.712
9.04231	0.508
9.07773	0.249
9.11316	0.359
9.14858	0.388
9.18401	0.507
9.21943	0.744
9.25486	0.794
9.29029	0.797
9.32571	0.766
9.36114	0.744
9.39656	0.794
9.43199	0.822
9.46741	0.841
9.50284	0.846
9.53826	0.846
9.57369	0.847
9.60912	0.841
9.64454	0.831
9.67997	0.817
9.71539	0.763
9.75082	0.626
9.78624	0.492
9.82167	0.636
9.8571	0.778
9.89252	0.8
9.92795	0.811
9.96337	0.811
9.9988	0.783
10.0342	0.742
10.0696	0.628
10.1051	0.571
10.1405	0.7
10.1759	0.795
10.2114	0.836
10.2468	0.865
10.2822	0.886
10.3176	0.894
10.3531	0.898
10.3885	0.899
10.4239	0.904
10.4593	0.905
10.4948	0.894
10.5302	0.836
10.5656	0.84
10.601	0.879
10.6365	0.899
10.6719	0.908
10.7073	0.915
10.7427	0.917
10.7782	0.917
10.8136	0.904
10.849	0.9
10.8844	0.897
10.9199	0.888
10.9553	0.888
10.9907	0.885
11.0261	0.745
11.0616	0.621
11.097	0.648
11.1324	0.773
11.1678	0.865
11.2033	0.892
11.2387	0.908
11.2741	0.917
11.3095	0.919
11.345	0.918
11.3804	0.918
11.4158	0.893
11.4512	0.837
11.4867	0.756
11.5221	0.596
11.5575	0.511
11.5929	0.624
11.6284	0.775
11.6638	0.854
11.6992	0.892
11.7347	0.91
11.7701	0.917
11.8055	0.918
11.8409	0.919
11.8764	0.924
11.9118	0.936
11.9472	0.939
11.9826	0.942
12.0181	0.943
12.0535	0.942
12.0889	0.943
12.1243	0.944
12.1598	0.944
12.1952	0.944
12.2306	0.944
12.266	0.944
12.3015	0.944
12.3369	0.944
12.3723	0.944
12.4077	0.944
12.4432	0.944
12.4786	0.939
12.514	0.924
12.5494	0.906
12.5849	0.901
12.6203	0.882
12.6557	0.869
12.6911	0.869
12.7266	0.878
12.762	0.882
12.7974	0.884
12.8328	0.885
12.8683	0.885
12.9037	0.878
12.9391	0.861
12.9745	0.796
13.01	0.715
13.0454	0.568
13.0808	0.469
13.1162	0.481
13.1517	0.568
13.1871	0.63
13.2225	0.639
13.258	0.642
13.2934	0.636
13.3288	0.607
13.3642	0.569
13.3997	0.53
13.4351	0.5
13.4705	0.474
13.5059	0.444
13.5414	0.414
13.5768	0.369
13.6122	0.337
13.6476	0.32
13.6831	0.321
13.7185	0.376
13.7539	0.46
13.7893	0.549
13.8248	0.652
13.8602	0.721
13.8956	0.772
13.931	0.794
13.9665	0.815
14.0019	0.827
14.0373	0.834
14.0727	0.836
14.1082	0.837
14.1436	0.837
14.179	0.836
14.2144	0.837
14.2499	0.835
14.2853	0.817
14.3207	0.771
14.3561	0.739
14.3916	0.734
14.427	0.738
14.4624	0.752
14.4978	0.77
14.5333	0.781
14.5687	0.785
14.6041	0.789
14.6395	0.792
14.675	0.794
14.7104	0.794
14.7458	0.794
14.7813	0.794
14.8167	0.794
14.8521	0.794
14.8875	0.794
14.923	0.794
14.9584	0.792
