Infrared Spectrum: 1-Adamantaneacetic acid
Formula: C 12 H 18 O 2
CAS: 4942-47-6
State: gas
Origin: EPA-IR VAPOR PHASE LIBRARY
1/CM	ABSORBANCE
549.8	0.002787
559.445	0.003517
569.09	0.003807
578.734	0.006167
588.379	0.013187
598.024	0.024637
607.669	0.018527
617.313	0.013887
626.958	0.010657
636.603	0.007227
646.248	0.005227
655.893	0.003937
665.537	0.003507
675.182	0.002857
684.827	0.002967
694.472	0.004097
704.116	0.002877
713.761	0.001947
723.406	0.0012241
733.051	0.001093
742.695	0.002497
752.34	0.002437
761.985	0.002027
771.63	0.0015121
781.275	0.0016599
790.919	0.0017991
800.564	0.0015928
810.209	0.001877
819.854	0.002267
829.498	0.0013836
839.143	0.0012977
848.788	0.0012665
858.433	0.0014176
868.078	0.0014469
877.722	0.002117
887.367	0.0011847
897.012	0.001907
906.657	0.0013319
916.301	0.0013734
925.946	0.0017711
935.591	0.002287
945.236	0.002047
954.88	0.0013644
964.525	0.001947
974.17	0.003387
983.815	0.004897
993.46	0.003597
1003.1	0.002517
1012.75	0.002587
1022.39	0.002477
1032.04	0.003317
1041.68	0.004907
1051.33	0.005507
1060.97	0.004387
1070.62	0.006517
1080.26	0.010597
1089.91	0.023027
1099.55	0.031347
1109.2	0.035587
1118.84	0.040227
1128.49	0.024717
1138.13	0.013577
1147.78	0.009717
1157.42	0.007507
1167.07	0.007987
1176.71	0.011107
1186.36	0.014427
1196	0.012067
1205.64	0.010197
1215.29	0.010197
1224.93	0.010167
1234.58	0.008307
1244.22	0.006167
1253.87	0.005717
1263.51	0.006337
1273.16	0.004377
1282.8	0.004217
1292.45	0.004357
1302.09	0.004427
1311.74	0.006127
1321.38	0.006407
1331.03	0.006437
1340.67	0.008407
1350.32	0.009997
1359.96	0.010487
1369.61	0.008957
1379.25	0.008287
1388.9	0.004987
1398.54	0.003557
1408.18	0.003237
1417.83	0.003567
1427.47	0.004087
1437.12	0.005637
1446.76	0.009397
1456.41	0.012087
1466.05	0.006997
1475.7	0.002467
1485.34	0.001359
1494.99	0.001097
1504.63	0.0010911
1514.28	0.0011868
1523.92	0.0009525
1533.57	0.0011163
1543.21	0.0011384
1552.86	0.0010971
1562.5	0.00086527
1572.15	0.0010374
1581.79	0.0010891
1591.44	0.0012193
1601.08	0.0007512
1610.73	0.0009638
1620.37	0.0011158
1630.01	0.001298
1639.66	0.0011937
1649.3	0.0013885
1658.95	0.0012655
1668.59	0.0016671
1678.24	0.001745
1687.88	0.002207
1697.53	0.002607
1707.17	0.003477
1716.82	0.004617
1726.46	0.006927
1736.11	0.011067
1745.75	0.018577
1755.4	0.029697
1765.04	0.046157
1774.69	0.049017
1784.33	0.031857
1793.98	0.018557
1803.62	0.010457
1813.27	0.005677
1822.91	0.003547
1832.55	0.002507
1842.2	0.002177
1851.84	0.0016624
1861.49	0.0015874
1871.13	0.0015367
1880.78	0.0013914
1890.42	0.0012211
1900.07	0.0011867
1909.71	0.0012826
1919.36	0.0010909
1929	0.0011389
1938.65	0.0011036
1948.29	0.0010801
1957.94	0.0012113
1967.58	0.0011349
1977.23	0.0009816
1986.87	0.0010291
1996.52	0.0010371
2006.16	0.0010368
2015.81	0.0009827
2025.45	0.00090051
2035.1	0.0009833
2044.74	0.000672
2054.38	0.0007954
2064.03	0.00085923
2073.67	0.0009326
2083.32	0.00087275
2092.96	0.0007695
2102.61	0.0010286
2112.25	0.00088432
2121.9	0.001067
2131.54	0.00088222
2141.19	0.0007824
2150.83	0.0009128
2160.48	0.0010956
2170.12	0.00082678
2179.77	0.0009383
2189.41	0.0010398
2199.06	0.001073
2208.7	0.0007944
2218.35	0.00085363
2227.99	0.0009207
2237.64	0.0011676
2247.28	0.000635
2256.92	0.000692
2266.57	0.0007818
2276.21	0.000592
2285.86	0.00086809
2295.5	0.0008254
2305.15	0.00082924
2314.79	0.0009125
2324.44	0.000705
2334.08	0.0009913
2343.73	0.00079754
2353.37	0.0007115
2363.02	0.00080291
2372.66	0.0007824
2382.31	0.0009376
2391.95	0.0007925
2401.6	0.0009781
2411.24	0.0007314
2420.89	0.000697
2430.53	0.0007868
2440.18	0.0007226
2449.82	0.0009228
2459.47	0.0009085
2469.11	0.001047
2478.75	0.0009863
2488.4	0.000635
2498.04	0.00066
2507.69	0.000518
2517.33	0.000813299
2526.98	0.000927
2536.62	0.0009851
2546.27	0.00090597
2555.91	0.0012418
2565.56	0.0011757
2575.2	0.001422
2584.85	0.0012534
2594.49	0.0012592
2604.14	0.0011896
2613.78	0.0011764
2623.43	0.0015237
2633.07	0.0015994
2642.72	0.001634
2652.36	0.002037
2662.01	0.002327
2671.65	0.002447
2681.29	0.002267
2690.94	0.0016405
2700.58	0.0012675
2710.23	0.0011637
2719.87	0.0012017
2729.52	0.0010642
2739.16	0.0012226
2748.81	0.0015071
2758.45	0.0014029
2768.1	0.0010878
2777.74	0.0012703
2787.39	0.0011504
2797.03	0.0014271
2806.68	0.002167
2816.32	0.002987
2825.97	0.004557
2835.61	0.006937
2845.26	0.016527
2854.9	0.035417
2864.55	0.031507
2874.19	0.014987
2883.84	0.012287
2893.48	0.025487
2903.12	0.079407
2912.77	0.142927
2922.41	0.119357
2932.06	0.051827
2941.7	0.031037
2951.35	0.016447
2960.99	0.008457
2970.64	0.005087
2980.28	0.003347
2989.93	0.001987
2999.57	0.002197
3009.22	0.0010297
3018.86	0.0012069
3028.51	0.0015691
3038.15	0.0013646
3047.8	0.001205
3057.44	0.0010605
3067.09	0.001429
3076.73	0.0009255
3086.38	0.00079875
3096.02	0.000813339
3105.67	0.000506
3115.31	0.00083505
3124.95	0.0009524
3134.6	0.0013061
3144.24	0.000705
3153.89	0.0012331
3163.53	0.00082698
3173.18	0.00084059
3182.82	0.000602
3192.47	0.00066
3202.11	0.000217
3211.76	0.0012853
3221.4	0.0007931
3231.05	0.0010834
3240.69	0.000556
3250.34	0.0012307
3259.98	0.000738
3269.63	0.000559
3279.27	0.0011007
3288.92	0.000948
3298.56	0.0011116
3308.21	0.000595
3317.85	0.00082265
3327.49	0.0009702
3337.14	0.00084855
3346.78	0.0009733
3356.43	0.001282
3366.07	0.001079
3375.72	0.0012878
3385.36	0.000504
3395.01	0.00081914
3404.65	0.0009209
3414.3	0.0012695
3423.94	0.000596
3433.59	0.000505
3443.23	0.0011784
3452.88	0.0007111
3462.52	0.000758
3472.17	0.00089859
3481.81	0.0012434
3491.46	0.0013103
3501.1	0.00085409
3510.75	0.001827
3520.39	0.0017618
3530.04	0.0009892
3539.68	0.0015328
3549.32	0.002407
3558.97	0.010477
3568.61	0.024277
3578.26	0.012357
3587.9	0.002957
3597.55	0.0015703
3607.19	0.0010016
3616.84	0.0013056
3626.48	0.0009789
3636.13	0.0012604
3645.77	0.0012131
3655.42	0.0007485
3665.06	0.0009474
3674.71	0.000389
3684.35	0.00081798
3694	0.0009809
3703.64	0.000633
3713.29	0.0011334
3722.93	0.000414
3732.58	0.0009755
3742.22	0.0010519
3751.86	0.000693
3761.51	0.000493
3771.15	0.00090268
3780.8	0.0010634
3790.44	0.00087071
3800.09	0.000599
3809.73	0.000393
3819.38	0.000637
3829.02	0.000672
3838.67	0.0007341
3848.31	0.0011473
3857.96	0.0010796
3867.6	0.0014731
3877.25	0.0009254
3886.89	0.0010295
3896.54	0.0010309
3906.18	0.0010265
3915.83	0.000346
3925.47	0.000587
3935.12	0.00052
3944.76	0.0011281
3954.41	0.000645
3964.05	0.0011629
3973.69	0.000155
3983.34	0.0007176
3992.98	0.0012457
