Infrared Spectrum: 4-Isopropylthiophenol
Formula: C 9 H 12 S
CAS: 4946-14-9
State: gas
Origin: EPA-IR VAPOR PHASE LIBRARY
1/CM	ABSORBANCE
549.8	0.00443
559.445	0.00301
569.09	0.00355
578.734	0.0015068
588.379	0.000915
598.024	0.0018955
607.669	0.00104353
617.313	0.000832
626.958	0.0017796
636.603	0.0014382
646.248	0.0017365
655.893	0.000932
665.537	0.001358
675.182	0.000885
684.827	0.0012554
694.472	0.0011858
704.116	0.00243
713.761	0.00246
723.406	0.003
733.051	0.0015813
742.695	0.0017528
752.34	0.0017239
761.985	0.00254
771.63	0.00237
781.275	0.00342
790.919	0.00519
800.564	0.00824
810.209	0.01287
819.854	0.01303
829.498	0.00812
839.143	0.00426
848.788	0.00264
858.433	0.0016492
868.078	0.000879
877.722	0.0013404
887.367	0.0017022
897.012	0.0012762
906.657	0.0024
916.301	0.00257
925.946	0.00261
935.591	0.0018649
945.236	0.0014433
954.88	0.000825
964.525	0.0015721
974.17	0.001405
983.815	0.0016186
993.46	0.0014826
1003.1	0.00292
1012.75	0.00889
1022.39	0.00694
1032.04	0.00267
1041.68	0.00282
1051.33	0.00611
1060.97	0.00576
1070.62	0.00253
1080.26	0.00361
1089.91	0.00479
1099.55	0.00927
1109.2	0.01181
1118.84	0.00578
1128.49	0.00332
1138.13	0.00371
1147.78	0.00345
1157.42	0.0019736
1167.07	0.0015922
1176.71	0.00268
1186.36	0.0017814
1196	0.00265
1205.64	0.00266
1215.29	0.0018597
1224.93	0.000922
1234.58	0.00297
1244.22	0.0017577
1253.87	0.0012158
1263.51	0.000501
1273.16	0.000938
1282.8	0.0015226
1292.45	0.00302
1302.09	0.00334
1311.74	0.00267
1321.38	0.00285
1331.03	0.00328
1340.67	0.00305
1350.32	0.00378
1359.96	0.00392
1369.61	0.00458
1379.25	0.00513
1388.9	0.00557
1398.54	0.00596
1408.18	0.00632
1417.83	0.00514
1427.47	0.00386
1437.12	0.00375
1446.76	0.00437
1456.41	0.00643
1466.05	0.00812
1475.7	0.00958
1485.34	0.01475
1494.99	0.02182
1504.63	0.01244
1514.28	0.00376
1523.92	0.0025
1533.57	0.0019407
1543.21	0.0015369
1552.86	0.00166
1562.5	0.0015469
1572.15	0.001511
1581.79	0.0015316
1591.44	0.0015568
1601.08	0.0017164
1610.73	0.0014954
1620.37	0.0018254
1630.01	0.0015942
1639.66	0.0016555
1649.3	0.0016173
1658.95	0.0016132
1668.59	0.0013387
1678.24	0.0013227
1687.88	0.0010187
1697.53	0.001588
1707.17	0.00113417
1716.82	0.0014449
1726.46	0.0015132
1736.11	0.00105112
1745.75	0.0013986
1755.4	0.0012896
1765.04	0.0015482
1774.69	0.0018111
1784.33	0.0013946
1793.98	0.0013843
1803.62	0.0012322
1813.27	0.0012145
1822.91	0.0011628
1832.55	0.00103949
1842.2	0.0012611
1851.84	0.001525
1861.49	0.0016863
1871.13	0.0016828
1880.78	0.0023
1890.42	0.00237
1900.07	0.002027
1909.71	0.0015902
1919.36	0.0012523
1929	0.0010166
1938.65	0.00110197
1948.29	0.0010296
1957.94	0.00110657
1967.58	0.0014257
1977.23	0.00103048
1986.87	0.0009919
1996.52	0.0011408
2006.16	0.00107522
2015.81	0.000887
2025.45	0.0009636
2035.1	0.0009723
2044.74	0.000784
2054.38	0.0010092
2064.03	0.00110009
2073.67	0.00109181
2083.32	0.0012227
2092.96	0.0012824
2102.61	0.0011812
2112.25	0.0009419
2121.9	0.0010224
2131.54	0.0009809
2141.19	0.0009726
2150.83	0.00107961
2160.48	0.000928
2170.12	0.00109397
2179.77	0.00106791
2189.41	0.000939
2199.06	0.00105261
2208.7	0.00088
2218.35	0.000764
2227.99	0.0010814
2237.64	0.0012019
2247.28	0.00084
2256.92	0.0012178
2266.57	0.0012984
2276.21	0.0009998
2285.86	0.0015587
2295.5	0.0012103
2305.15	0.0013455
2314.79	0.001178
2324.44	0.001197
2334.08	0.001447
2343.73	0.00107609
2353.37	0.00105252
2363.02	0.00111261
2372.66	0.00110404
2382.31	0.0010137
2391.95	0.000936
2401.6	0.00112061
2411.24	0.00108303
2420.89	0.00103289
2430.53	0.0013607
2440.18	0.0010024
2449.82	0.0013072
2459.47	0.00107051
2469.11	0.001264
2478.75	0.000901
2488.4	0.000924
2498.04	0.0011677
2507.69	0.0010984
2517.33	0.000867
2526.98	0.0012225
2536.62	0.000818
2546.27	0.0014125
2555.91	0.0013773
2565.56	0.0013178
2575.2	0.0018322
2584.85	0.0018571
2594.49	0.0015512
2604.14	0.0012471
2613.78	0.0012304
2623.43	0.0013418
2633.07	0.0009625
2642.72	0.0010113
2652.36	0.0012656
2662.01	0.001189
2671.65	0.0013993
2681.29	0.0011703
2690.94	0.0013927
2700.58	0.0013852
2710.23	0.0014675
2719.87	0.0013827
2729.52	0.0014479
2739.16	0.0013755
2748.81	0.0015411
2758.45	0.0015973
2768.1	0.0014632
2777.74	0.0017149
2787.39	0.0015807
2797.03	0.0014295
2806.68	0.0017851
2816.32	0.0019865
2825.97	0.0021
2835.61	0.00241
2845.26	0.00279
2854.9	0.00394
2864.55	0.00682
2874.19	0.0106
2883.84	0.01398
2893.48	0.0127
2903.12	0.01247
2912.77	0.01279
2922.41	0.01372
2932.06	0.01569
2941.7	0.0181
2951.35	0.02024
2960.99	0.0386
2970.64	0.05448
2980.28	0.03048
2989.93	0.01159
2999.57	0.00703
3009.22	0.00575
3018.86	0.00781
3028.51	0.00846
3038.15	0.00551
3047.8	0.00581
3057.44	0.0061
3067.09	0.00683
3076.73	0.00765
3086.38	0.00625
3096.02	0.00416
3105.67	0.00304
3115.31	0.00248
3124.95	0.0018346
3134.6	0.00206
3144.24	0.0018341
3153.89	0.0018746
3163.53	0.0013784
3173.18	0.0019446
3182.82	0.001423
3192.47	0.0012096
3202.11	0.0017506
3211.76	0.0015948
3221.4	0.000923
3231.05	0.0013218
3240.69	0.0009477
3250.34	0.000701
3259.98	0.000883
3269.63	0.000668
3279.27	0.0014491
3288.92	0.000921
3298.56	0.000846
3308.21	0.0010035
3317.85	0.000675
3327.49	0.0013717
3337.14	0.000674
3346.78	0.0013189
3356.43	0.00107632
3366.07	0.0017968
3375.72	0.000926
3385.36	0.00107137
3395.01	0.001509
3404.65	0.000732
3414.3	0.00104918
3423.94	0.000507
3433.59	0.0008
3443.23	0.0015625
3452.88	0.000728
3462.52	0.0011855
3472.17	0.00112791
3481.81	0.0011797
3491.46	0.00113028
3501.1	0.00109789
3510.75	0.000912
3520.39	0.00103581
3530.04	0.0016311
3539.68	0.0012655
3549.32	0.000644
3558.97	0.000818
3568.61	0.0010027
3578.26	0.000529
3587.9	0.001452
3597.55	0.0009752
3607.19	0.000432
3616.84	0.000563
3626.48	0.000464
3636.13	0.00107236
3645.77	0.0009552
3655.42	0.0010185
3665.06	0.000353
3674.71	0.0012411
3684.35	0.000695
3694	0.000934
3703.64	0.0011368
3713.29	0.0017392
3722.93	0.0009
3732.58	0.00110986
3742.22	0.00108373
3751.86	0.000924
3761.51	0.0017577
3771.15	0.0013464
3780.8	0.000606
3790.44	0.0010136
3800.09	0.00057
3809.73	0.0014788
3819.38	0.000799
3829.02	0.000752
3838.67	0.0012333
3848.31	0.00072
3857.96	0.000607
3867.6	0.0013884
3877.25	0.000748
3886.89	0.000835
3896.54	0.00107976
3906.18	0.0012392
3915.83	0.000529
3925.47	0.000855
3935.12	0.000819
3944.76	0.0009939
3954.41	0.0014053
3964.05	0.0019243
3973.69	0.0010126
3983.34	0.0011954
3992.98	0.0010251
