Infrared Spectrum: Ethyl propionylacetate
Formula: C 7 H 12 O 3
CAS: 4949-44-4
State: gas
Origin: EPA-IR VAPOR PHASE LIBRARY
1/CM	ABSORBANCE
549.8	0.002151
559.445	0.001961
569.09	0.002291
578.734	0.002181
588.379	0.001771
598.024	0.001851
607.669	0.001821
617.313	0.002181
626.958	0.002271
636.603	0.002471
646.248	0.002581
655.893	0.002611
665.537	0.001821
675.182	0.001341
684.827	0.0012056
694.472	0.0013056
704.116	0.0013472
713.761	0.001651
723.406	0.0014464
733.051	0.001671
742.695	0.001811
752.34	0.001851
761.985	0.001741
771.63	0.002091
781.275	0.002101
790.919	0.002131
800.564	0.001951
810.209	0.002321
819.854	0.002201
829.498	0.002591
839.143	0.002961
848.788	0.003211
858.433	0.003251
868.078	0.002931
877.722	0.002631
887.367	0.002581
897.012	0.002831
906.657	0.004141
916.301	0.005821
925.946	0.006651
935.591	0.005841
945.236	0.004831
954.88	0.004221
964.525	0.004251
974.17	0.004831
983.815	0.005771
993.46	0.006051
1003.1	0.007221
1012.75	0.011061
1022.39	0.018201
1032.04	0.023601
1041.68	0.023141
1051.33	0.022191
1060.97	0.022361
1070.62	0.018981
1080.26	0.016361
1089.91	0.017851
1099.55	0.022271
1109.2	0.022561
1118.84	0.023721
1128.49	0.028741
1138.13	0.036111
1147.78	0.046611
1157.42	0.053141
1167.07	0.050891
1176.71	0.042581
1186.36	0.034231
1196	0.027021
1205.64	0.024831
1215.29	0.026581
1224.93	0.031511
1234.58	0.036791
1244.22	0.038371
1253.87	0.036881
1263.51	0.033951
1273.16	0.032501
1282.8	0.033411
1292.45	0.036181
1302.09	0.039491
1311.74	0.039651
1321.38	0.032731
1331.03	0.022951
1340.67	0.017181
1350.32	0.015381
1359.96	0.015891
1369.61	0.017491
1379.25	0.015471
1388.9	0.011751
1398.54	0.011311
1408.18	0.012721
1417.83	0.012971
1427.47	0.011321
1437.12	0.009531
1446.76	0.008941
1456.41	0.009381
1466.05	0.009881
1475.7	0.008691
1485.34	0.006021
1494.99	0.004081
1504.63	0.003001
1514.28	0.002481
1523.92	0.002251
1533.57	0.002041
1543.21	0.001911
1552.86	0.001851
1562.5	0.001891
1572.15	0.001851
1581.79	0.001801
1591.44	0.002001
1601.08	0.002101
1610.73	0.002511
1620.37	0.003211
1630.01	0.004041
1639.66	0.004261
1649.3	0.004041
1658.95	0.004771
1668.59	0.006041
1678.24	0.008341
1687.88	0.012021
1697.53	0.017161
1707.17	0.025711
1716.82	0.041661
1726.46	0.064571
1736.11	0.076321
1745.75	0.073381
1755.4	0.070961
1765.04	0.062811
1774.69	0.042041
1784.33	0.020321
1793.98	0.009991
1803.62	0.006041
1813.27	0.004121
1822.91	0.003241
1832.55	0.002611
1842.2	0.002191
1851.84	0.001961
1861.49	0.001791
1871.13	0.001691
1880.78	0.001611
1890.42	0.001481
1900.07	0.0014318
1909.71	0.0012962
1919.36	0.0012952
1929	0.0012514
1938.65	0.0011637
1948.29	0.0010689
1957.94	0.0011627
1967.58	0.0011313
1977.23	0.0011039
1986.87	0.0011151
1996.52	0.0010775
2006.16	0.0010297
2015.81	0.0010261
2025.45	0.0009756
2035.1	0.0010371
2044.74	0.0009879
2054.38	0.0010363
2064.03	0.0012665
2073.67	0.0013268
2083.32	0.001631
2092.96	0.001951
2102.61	0.003051
2112.25	0.005811
2121.9	0.011231
2131.54	0.017571
2141.19	0.019831
2150.83	0.013991
2160.48	0.005001
2170.12	0.001681
2179.77	0.0012083
2189.41	0.0010677
2199.06	0.0009674
2208.7	0.0009565
2218.35	0.0009174
2227.99	0.0009516
2237.64	0.0009634
2247.28	0.0009054
2256.92	0.0009088
2266.57	0.0008038
2276.21	0.0006176
2285.86	0.0007765
2295.5	0.0008746
2305.15	0.0009158
2314.79	0.0010881
2324.44	0.0011161
2334.08	0.0010563
2343.73	0.001017
2353.37	0.0010267
2363.02	0.0011556
2372.66	0.0010144
2382.31	0.0007756
2391.95	0.0007276
2401.6	0.0007034
2411.24	0.0007007
2420.89	0.0007775
2430.53	0.0007827
2440.18	0.0006993
2449.82	0.0006959
2459.47	0.0007374
2469.11	0.0007126
2478.75	0.0006122
2488.4	0.0006281
2498.04	0.0006742
2507.69	0.0006698
2517.33	0.0005889
2526.98	0.0005972
2536.62	0.0006458
2546.27	0.0006584
2555.91	0.00053522
2565.56	0.00053
2575.2	0.00051119
2584.85	0.0004401
2594.49	0.00056852
2604.14	0.00057117
2613.78	0.0004275
2623.43	0.0006334
2633.07	0.00048113
2642.72	0.00058049
2652.36	0.0006156
2662.01	0.00056064
2671.65	0.0005373
2681.29	0.000855
2690.94	0.0007021
2700.58	0.0006642
2710.23	0.0007246
2719.87	0.0006428
2729.52	0.0008783
2739.16	0.001018
2748.81	0.0009547
2758.45	0.001014
2768.1	0.0009226
2777.74	0.0012136
2787.39	0.0012982
2797.03	0.001312
2806.68	0.001511
2816.32	0.001851
2825.97	0.002031
2835.61	0.002451
2845.26	0.002621
2854.9	0.003151
2864.55	0.003971
2874.19	0.005551
2883.84	0.007901
2893.48	0.009891
2903.12	0.010981
2912.77	0.011681
2922.41	0.012051
2932.06	0.013741
2941.7	0.017971
2951.35	0.019701
2960.99	0.017911
2970.64	0.019921
2980.28	0.027371
2989.93	0.029621
2999.57	0.021551
3009.22	0.013991
3018.86	0.008811
3028.51	0.005721
3038.15	0.003881
3047.8	0.002881
3057.44	0.002381
3067.09	0.001781
3076.73	0.001491
3086.38	0.001711
3096.02	0.001511
3105.67	0.0014742
3115.31	0.0013588
3124.95	0.00119
3134.6	0.0010937
3144.24	0.0009213
3153.89	0.0011231
3163.53	0.0009042
3173.18	0.0007961
3182.82	0.0008438
3192.47	0.0008795
3202.11	0.0007755
3211.76	0.0007702
3221.4	0.0007001
3231.05	0.0007518
3240.69	0.0006452
3250.34	0.00054789
3259.98	0.0004605
3269.63	0.0005251
3279.27	0.000386
3288.92	0.0004428
3298.56	0.0004596
3308.21	0.0003817
3317.85	0.00028
3327.49	0.00055706
3337.14	0.000372
3346.78	0.000329
3356.43	0.0006092
3366.07	0.0006618
3375.72	0.00053005
3385.36	0.0006703
3395.01	0.0005998
3404.65	0.0005017
3414.3	0.0004611
3423.94	0.00067
3433.59	0.0012098
3443.23	0.0013037
3452.88	0.0014758
3462.52	0.001601
3472.17	0.0013828
3481.81	0.0013712
3491.46	0.0010945
3501.1	0.0009777
3510.75	0.0008372
3520.39	0.0007312
3530.04	0.000644
3539.68	0.00054592
3549.32	0.0006365
3558.97	0.00052718
3568.61	0.000331
3578.26	0.000257
3587.9	0.00028
3597.55	0.000199
3607.19	0.000188
3616.84	0.000258
3626.48	0.0004115
3636.13	0.00049957
3645.77	0.0004501
3655.42	0.00047436
3665.06	0.0004376
3674.71	0.000266
3684.35	0.0005589
3694	0.000483899
3703.64	0.000361
3713.29	0.00023
3722.93	0.000341
3732.58	0.000261
3742.22	1e-05
3751.86	0.000261
3761.51	0.000375
3771.15	0.00053513
3780.8	0.000293
3790.44	0.0003812
3800.09	0.000285
3809.73	0.000444
3819.38	0.000349
3829.02	0.000239
3838.67	0.0004394
3848.31	0.000328
3857.96	0.000276
3867.6	0.0004136
3877.25	0.000234
3886.89	0.000222
3896.54	0.000297
3906.18	0.000413
3915.83	0.000292
3925.47	0.000243
3935.12	0.000284
3944.76	0.00038
3954.41	0.0003898
3964.05	0.0004098
3973.69	0.000307
3983.34	0.0006034
3992.98	0.000326
