Infrared Spectrum: 1-Phenyl-1-butanone
Formula: C 10 H 12 O
CAS: 495-40-9
State: gas
Instrument: HP-GC/MS/IRD
Origin: NIST Mass Spectrometry Data Center
1/CM	ABSORBANCE
550	0.0008918
562	0.0007228
574	0.0009646
586	0.000741
598	0.0009334
610	0.0005616
622	0.0001612
634	7.02e-05
646	0.0008632
658	0.0017056
670	0.0027014
682	0.0059748
694	0.0082576
706	0.0046202
718	0.0026078
730	0.0035048
742	0.0045968
754	0.003991
766	0.0025896
778	0.0013624
790	0.0008216
802	0.0006188
814	0.000871
826	0.0007202
838	0.0002106
850	7.28e-05
862	0.0002496
874	0.0003588
886	0.0010426
898	0.0013624
910	0.0005668
922	0.0003926
934	0.0003146
946	0.0002938
958	0.0007956
970	0.0023712
982	0.0055588
994	0.0062738
1006	0.0038064
1018	0.0011336
1030	0.0008424
1042	0.000832
1054	0.0007644
1066	0.000741
1078	0.0007904
1090	0.0007956
1102	0.0007904
1114	0.0004576
1126	0.0002444
1138	0.0003042
1150	0.0006292
1162	0.0012792
1174	0.0039
1186	0.0056992
1198	0.0081562
1210	0.013026
1222	0.0082706
1234	0.0046774
1246	0.0049036
1258	0.0068562
1270	0.008996
1282	0.006786
1294	0.0047398
1306	0.004225
1318	0.003939
1330	0.0031044
1342	0.0037544
1354	0.0051038
1366	0.00455
1378	0.0028704
1390	0.0017134
1402	0.0012792
1414	0.0014612
1426	0.0016588
1438	0.0032032
1450	0.0050232
1462	0.0033124
1474	0.0019604
1486	0.0010894
1498	0.0007098
1510	0.0005356
1522	0.0004758
1534	0.0004316
1546	0.0004394
1558	0.0005876
1570	0.0011986
1582	0.0019266
1594	0.0022646
1606	0.0019812
1618	0.0009932
1630	0.0006552
1642	0.0008294
1654	0.0014196
1666	0.0025766
1678	0.00585
1690	0.016718
1702	0.026
1714	0.0146484
1726	0.003939
1738	0.0016276
1750	0.0009646
1762	0.0006344
1774	0.0005044
1786	0.000403
1798	0.000559
1810	0.0006318
1822	0.0003614
1834	0.000208
1846	0.0001456
1858	0.0001404
1870	0.0001794
1882	0.000273
1894	0.0004186
1906	0.0003978
1918	0.000273
1930	0.0002054
1942	0.0003016
1954	0.0004472
1966	0.000468
1978	0.0002392
1990	9.1e-05
2002	5.72e-05
2014	5.46e-05
2026	4.16e-05
2038	1.82e-05
2050	2.08e-05
2062	5.98e-05
2074	4.42e-05
2086	5.72e-05
2098	3.38e-05
2110	6.5e-05
2122	2.34e-05
2134	3.9e-05
2146	3.64e-05
2158	3.9e-05
2170	3.38e-05
2182	4.42e-05
2194	4.94e-05
2206	6.76e-05
2218	4.94e-05
2230	5.72e-05
2242	7.02e-05
2254	9.1e-05
2266	0.0001014
2278	9.62e-05
2290	0.000104
2302	0.0001092
2314	0.0001742
2326	0.000169
2338	0.0001508
2350	0.0001144
2362	0.000104
2374	7.28e-05
2386	8.06e-05
2398	8.06e-05
2410	9.62e-05
2422	0.0001456
2434	8.06e-05
2446	7.28e-05
2458	8.06e-05
2470	3.9e-05
2482	7.02e-05
2494	6.24e-05
2506	7.28e-05
2518	4.68e-05
2530	8.06e-05
2542	8.58e-05
2554	8.32e-05
2566	6.5e-05
2578	7.54e-05
2590	0.0001118
2602	0.0001222
2614	9.36e-05
2626	0.0001118
2638	0.0001118
2650	0.0001066
2662	0.0001534
2674	0.0001612
2686	0.0001768
2698	0.000182
2710	0.0001742
2722	0.0001898
2734	0.0002236
2746	0.0002912
2758	0.0003276
2770	0.0003354
2782	0.0003978
2794	0.0004888
2806	0.0006032
2818	0.000689
2830	0.0007566
2842	0.0009958
2854	0.001469
2866	0.0025064
2878	0.0045812
2890	0.0054158
2902	0.005057
2914	0.0052676
2926	0.0060476
2938	0.007995
2950	0.0086242
2962	0.0107094
2974	0.0132184
2986	0.0077896
2998	0.003562
3010	0.002327
3022	0.0023686
3034	0.002964
3046	0.0031668
3058	0.0036842
3070	0.0057616
3082	0.0049582
3094	0.0035204
3106	0.0020306
3118	0.0009438
3130	0.0005512
3142	0.0004238
3154	0.0004368
3166	0.000364
3178	0.0003068
3190	0.000247
3202	0.0002184
3214	0.0002002
3226	0.0001534
3238	0.000143
3250	8.06e-05
3262	0.0001378
3274	0.0001222
3286	7.28e-05
3298	0.0001248
3310	9.62e-05
3322	0.0001014
3334	0.00013
3346	0.0001508
3358	0.0002678
3370	0.0003926
3382	0.0005382
3394	0.0004758
3406	0.0002964
3418	0.0001898
3430	0.000143
3442	9.1e-05
3454	7.28e-05
3466	8.58e-05
3478	6.5e-05
3490	6.5e-05
3502	8.84e-05
3514	4.68e-05
3526	5.2e-06
3538	1.3e-05
3550	1.04e-05
3562	5.46e-05
3574	3.38e-05
3586	3.64e-05
3598	5.72e-05
3610	8.58e-05
3622	7.02e-05
3634	9.62e-05
3646	0.0001248
3658	9.62e-05
3670	4.94e-05
3682	7.28e-05
3694	0.0001014
3706	8.32e-05
3718	0.0001092
3730	0.0001066
3742	0.0001352
3754	0.0001222
3766	9.62e-05
3778	8.84e-05
3790	6.5e-05
3802	5.72e-05
3814	8.32e-05
3826	6.24e-05
3838	8.32e-05
