Infrared Spectrum: 1,4-Diphenyl-1,4-butanedione
Formula: C 16 H 14 O 2
CAS: 495-71-6
State: gas
Origin: EPA-IR VAPOR PHASE LIBRARY
1/CM	ABSORBANCE
501.5	0.0004631
513.074	0.0012138
524.648	0.0015338
536.222	0.0009025
547.796	0.000333
559.37	0.0006395
570.944	0.000429
582.518	0.0003163
594.092	0.0004377
605.666	0.0012738
617.24	0.0015038
628.814	0.0007708
640.388	0.0008552
651.962	0.0015338
663.536	0.0031438
675.11	0.0045438
686.684	0.0066738
698.258	0.0125938
709.832	0.0067838
721.406	0.0034838
732.98	0.0045338
744.554	0.0057638
756.128	0.0051538
767.702	0.0035238
779.276	0.0014638
790.85	0.00072
802.423	0.0007532
813.997	0.0007543
825.571	0.0005422
837.145	0.0005406
848.719	0.0006406
860.293	0.0010938
871.867	0.0025238
883.441	0.0056838
895.015	0.0078238
906.589	0.0054138
918.163	0.0051138
929.737	0.0021738
941.311	0.0012938
952.885	0.0013038
964.459	0.0023338
976.033	0.0062438
987.607	0.0092138
999.181	0.0060038
1010.76	0.0032538
1022.33	0.0052238
1033.9	0.0099238
1045.48	0.0073838
1057.05	0.0030438
1068.63	0.0023838
1080.2	0.0039538
1091.77	0.0040738
1103.35	0.0044338
1114.92	0.0054138
1126.49	0.0052338
1138.07	0.0100938
1149.64	0.0194838
1161.22	0.0148238
1172.79	0.0063538
1184.36	0.0054938
1195.94	0.0077438
1207.51	0.0141838
1219.09	0.0124238
1230.66	0.0070638
1242.23	0.0055438
1253.81	0.0038338
1265.38	0.0028538
1276.96	0.0035538
1288.53	0.0041038
1300.1	0.0032038
1311.68	0.0026138
1323.25	0.0017638
1334.83	0.0013338
1346.4	0.0008555
1357.97	0.0006333
1369.55	0.0006248
1381.12	0.0006259
1392.7	0.0005389
1404.27	0.000596
1415.84	0.0010392
1427.42	0.0021338
1438.99	0.0024538
1450.57	0.0037138
1462.14	0.0034738
1473.71	0.0021738
1485.29	0.0028538
1496.86	0.0035038
1508.44	0.0012238
1520.01	0.000531
1531.58	0.0005242
1543.16	0.0004985
1554.73	0.0003957
1566.31	0.0004321
1577.88	0.000746
1589.45	0.0012838
1601.03	0.0015938
1612.6	0.0008493
1624.18	0.0005222
1635.75	0.0003951
1647.32	0.0004428
1658.9	0.000519
1670.47	0.0005332
1682.05	0.0004947
1693.62	0.0005096
1705.19	0.0005869
1716.77	0.0007375
1728.34	0.0009603
1739.92	0.0013138
1751.49	0.0018438
1763.06	0.0028038
1774.64	0.0044338
1786.21	0.0083638
1797.79	0.0219438
1809.36	0.0578538
1820.93	0.0471338
1832.51	0.0112238
1844.08	0.0035138
1855.66	0.0019338
1867.23	0.0016938
1878.8	0.0017038
1890.38	0.0013238
1901.95	0.0008727
1913.53	0.0006112
1925.1	0.0006259
1936.67	0.0007882
1948.25	0.0010024
1959.82	0.0008799
1971.4	0.0005198
1982.97	0.0002945
1994.54	0.0002459
2006.12	0.0002629
2017.69	0.0002835
2029.27	0.0003839
2040.84	0.000427
2052.41	0.0003617
2063.99	0.0002418
2075.56	0.000217
2087.14	0.0002053
2098.71	0.0002322
2110.28	0.0002185
2121.86	0.0002004
2133.43	0.0002217
2145.01	0.0002027
2156.58	0.0001769
2168.15	0.0001694
2179.73	0.0002221
2191.3	0.0002354
2202.88	0.0001981
2214.45	0.0001959
2226.02	0.000193
2237.6	0.0002261
2249.17	0.0002411
2260.74	0.000242
2272.32	0.0002565
2283.89	0.0002903
2295.47	0.0002773
2307.04	0.000291
2318.61	0.0003417
2330.19	0.0002516
2341.76	0.0002904
2353.34	0.0002735
2364.91	0.0002238
2376.48	0.0002428
2388.06	0.00013046
2399.63	0.0001454
2411.21	0.00012194
2422.78	0.0001655
2434.35	0.00014319
2445.93	0.0001829
2457.5	0.000201
2469.08	0.0001675
2480.65	0.00019
2492.22	0.00015599
2503.8	0.00014615
2515.37	0.00012322
2526.95	9.857e-05
2538.52	0.00013057
2550.09	0.00014316
2561.67	8.195e-05
2573.24	0.00011246
2584.82	0.0001777
2596.39	0.0001744
2607.96	0.00012687
2619.54	0.0001813
2631.11	0.0002132
2642.69	0.00016143
2654.26	0.00015168
2665.83	0.0001127
2677.41	0.00014586
2688.98	0.00011602
2700.56	9.632e-05
2712.13	0.00010083
2723.7	8.772e-05
2735.28	0.00012603
2746.85	0.00012407
2758.43	9.769e-05
2770	0.00015509
2781.57	0.00013505
2793.15	0.00013811
2804.72	0.0001469
2816.3	0.00015414
2827.87	0.0001953
2839.44	0.0002748
2851.02	0.0002994
2862.59	0.0002571
2874.17	0.0003465
2885.74	0.0005009
2897.31	0.0006073
2908.89	0.000606
2920.46	0.0005433
2932.04	0.0008383
2943.61	0.0013438
2955.18	0.0016238
2966.76	0.0018838
2978.33	0.0014638
2989.91	0.0020438
3001.48	0.0033838
3013.05	0.0021138
3024.63	0.0026538
3036.2	0.0043338
3047.78	0.0038838
3059.35	0.0045438
3070.92	0.0080838
3082.5	0.0050638
3094.07	0.0035138
3105.65	0.0021038
3117.22	0.0011138
3128.79	0.0005486
3140.37	0.0002623
3151.94	0.0002575
3163.52	0.0003124
3175.09	0.0002192
3186.66	0.00012161
3198.24	0.00010217
3209.81	0.00011288
3221.39	0.00012224
3232.96	7.8e-05
3244.53	5.779e-05
3256.11	0.00011659
3267.68	4.8e-05
3279.26	0.00011182
3290.83	6.9225e-05
3302.4	8.305e-05
3313.98	0.00013564
3325.55	9.807e-05
3337.13	2.87e-05
3348.7	0.00012862
3360.27	2.99e-05
3371.85	6.8113e-05
3383.42	0.00011221
3395	8.725e-05
3406.57	0.00012499
3418.14	8.03e-05
3429.72	0.00011753
3441.29	6.8137e-05
3452.86	0.00011361
3464.44	0.00012699
3476.01	0.0001727
3487.59	0.0001876
3499.16	7.0903e-05
3510.73	4.58e-05
3522.31	0.0001701
3533.88	0.0002005
3545.46	0.0001869
3557.03	0.00013328
3568.6	0.000208
3580.18	0.0003804
3591.75	0.0004868
3603.33	0.0007621
3614.9	0.0006699
3626.47	0.0005397
3638.05	0.0004316
3649.62	0.0002787
3661.2	0.0002752
3672.77	0.0002312
3684.34	0.0002217
3695.92	0.000248
3707.49	0.000176
3719.07	0.00015885
3730.64	0.0001344
3742.21	0.0001931
3753.79	0.00011721
3765.36	0.00014926
3776.94	0.00011291
3788.51	0.00013558
3800.08	0.00010115
3811.66	0.00014084
3823.23	0.0001806
3834.81	8.766e-05
3846.38	0.0001978
3857.95	0.0002261
3869.53	9.658e-05
3881.1	0.00015267
3892.68	9.916e-05
3904.25	9.748e-05
3915.82	0
3927.4	0.00015151
3938.97	0.00010316
3950.55	0.0002133
3962.12	0.0002024
3973.69	0.00011531
3985.27	0.00015336
3996.84	0.0002545
