Infrared Spectrum: 3-(2-Hydroxyphenyl)propionic acid
Formula: C 9 H 10 O 3
CAS: 495-78-3
State: gas
Origin: EPA-IR VAPOR PHASE LIBRARY
1/CM	ABSORBANCE
549.8	0.000817
559.445	0.0008108
569.09	0.0008411
578.735	0.0007318
588.38	0.0005996
598.025	0.0007572
607.67	0.0006588
617.315	0.0007289
626.96	0.0005933
636.605	0.0005565
646.251	0.0003337
655.896	0.000382
665.541	0.000694
675.186	0.0007881
684.831	0.0010573
694.476	0.0006891
704.121	0.0007693
713.766	0.0009756
723.411	0.001148
733.056	0.002443
742.701	0.004983
752.346	0.007713
761.991	0.004463
771.636	0.002293
781.281	0.0013564
790.926	0.001108
800.571	0.0008047
810.216	0.0007619
819.861	0.000875
829.507	0.000837
839.152	0.0008347
848.797	0.0007512
858.442	0.0009579
868.087	0.0013076
877.732	0.002123
887.377	0.004803
897.022	0.005763
906.667	0.003733
916.312	0.002113
925.957	0.0013535
935.602	0.0011972
945.247	0.0008635
954.892	0.0007003
964.537	0.0008331
974.182	0.001783
983.827	0.002833
993.472	0.002453
1003.12	0.0013021
1012.76	0.001513
1022.41	0.001993
1032.05	0.001853
1041.7	0.0010806
1051.34	0.0008528
1060.99	0.0010118
1070.63	0.0011436
1080.28	0.001433
1089.92	0.002193
1099.57	0.004063
1109.21	0.006763
1118.86	0.010213
1128.5	0.021593
1138.15	0.029563
1147.79	0.019243
1157.44	0.007733
1167.08	0.005713
1176.73	0.003603
1186.37	0.004383
1196.02	0.004423
1205.66	0.004053
1215.31	0.007163
1224.95	0.015043
1234.6	0.018363
1244.24	0.010333
1253.89	0.003623
1263.53	0.002043
1273.18	0.002283
1282.82	0.002233
1292.47	0.001553
1302.11	0.0013213
1311.76	0.001503
1321.4	0.001633
1331.05	0.002133
1340.69	0.003483
1350.34	0.003303
1359.98	0.001473
1369.63	0.0009449
1379.27	0.0008418
1388.92	0.0008447
1398.56	0.000903
1408.21	0.0009408
1417.85	0.0013572
1427.5	0.001963
1437.14	0.002603
1446.79	0.004033
1456.43	0.006683
1466.08	0.006283
1475.73	0.003963
1485.37	0.005813
1495.02	0.005183
1504.66	0.002253
1514.31	0.001396
1523.95	0.0007976
1533.6	0.0007913
1543.24	0.0008222
1552.89	0.0008211
1562.53	0.0008717
1572.18	0.001453
1581.82	0.002533
1591.47	0.002823
1601.11	0.001983
1610.76	0.001883
1620.4	0.001633
1630.05	0.0012562
1639.69	0.0009672
1649.34	0.0008396
1658.98	0.0008033
1668.63	0.0007586
1678.27	0.0008102
1687.92	0.0008139
1697.56	0.0008967
1707.21	0.0009429
1716.85	0.0010971
1726.5	0.0012399
1736.14	0.001593
1745.79	0.001953
1755.43	0.002393
1765.08	0.002853
1774.72	0.004483
1784.37	0.011243
1794.01	0.031943
1803.66	0.042303
1813.3	0.023263
1822.95	0.004563
1832.59	0.001753
1842.24	0.0012097
1851.88	0.0010464
1861.53	0.0009739
1871.17	0.001063
1880.82	0.0010818
1890.46	0.0008964
1900.11	0.0008876
1909.75	0.0008213
1919.4	0.0006854
1929.04	0.0007203
1938.69	0.0007141
1948.33	0.0006141
1957.98	0.0005396
1967.62	0.0004953
1977.27	0.00048046
1986.91	0.00045394
1996.56	0.00048846
2006.2	0.00051636
2015.85	0.0005203
2025.49	0.0005689
2035.14	0.0005705
2044.78	0.00051634
2054.43	0.0004161
2064.07	0.0004034
2073.72	0.0003723
2083.36	0.0003863
2093.01	0.0003782
2102.65	0.000440934
2112.3	0.00046209
2121.94	0.00052958
2131.59	0.00046135
2141.23	0.00050227
2150.88	0.000437836
2160.52	0.00045539
2170.17	0.0004126
2179.81	0.000327
2189.46	0.0003764
2199.1	0.0003732
2208.75	0.0003864
2218.39	0.0003513
2228.04	0.0003862
2237.68	0.0003427
2247.33	0.00046904
2256.97	0.0004188
2266.62	0.000471
2276.26	0.0003987
2285.91	0.0003702
2295.55	0.000432025
2305.2	0.0003791
2314.84	0.0003787
2324.49	0.000339
2334.13	0.000388
2343.78	0.0003689
2353.42	0.0003997
2363.07	0.0004073
2372.72	0.00051416
2382.36	0.0003532
2392.01	0.000297
2401.65	0.000291
2411.3	0.000326
2420.94	0.000385
2430.59	0.000276
2440.23	0.000252
2449.88	0.0003398
2459.52	0.000283
2469.17	0.0003473
2478.81	0.000305
2488.46	0.000257
2498.1	0.000218
2507.75	0.000241
2517.39	0.000158
2527.04	0.00025
2536.68	0.000212
2546.33	0.000224
2555.97	0.00016
2565.62	0.000259
2575.26	0.000249
2584.91	0.000156
2594.55	0.000234
2604.2	0.000192
2613.84	0.000173
2623.49	0.000117
2633.13	9.4e-05
2642.78	0.000129
2652.42	0.000135
2662.07	0.000116
2671.71	0.00014
2681.36	0.000222
2691	0.00014
2700.65	0.000105
2710.29	0.000119
2719.94	7.3e-05
2729.58	0.000145
2739.23	0.000152
2748.87	8.9e-05
2758.52	9.2e-05
2768.16	0.000123
2777.81	0.000105
2787.45	0.000104
2797.1	6.9e-05
2806.74	0.00016
2816.39	0.000114
2826.03	7.6e-05
2835.68	0.000237
2845.32	0.0003962
2854.97	0.0007193
2864.61	0.0009023
2874.26	0.0006969
2883.9	0.00047482
2893.55	0.00045101
2903.19	0.000594
2912.84	0.0010898
2922.48	0.001483
2932.13	0.0012832
2941.77	0.0009437
2951.42	0.001463
2961.06	0.001493
2970.71	0.0010955
2980.35	0.0007704
2990	0.0012073
2999.64	0.0010021
3009.29	0.000436894
3018.93	0.0005742
3028.58	0.0010535
3038.22	0.0013829
3047.87	0.001381
3057.51	0.001271
3067.16	0.0013181
3076.8	0.001673
3086.45	0.001523
3096.09	0.0010166
3105.74	0.00044656
3115.38	0.000273
3125.03	0.000122
3134.67	0.000256
3144.32	0.000179
3153.96	0.0002
3163.61	0.000109
3173.25	0.000196
3182.9	0.000172
3192.54	0.000156
3202.19	0.000229
3211.83	0.000137
3221.48	0.00019
3231.12	0.000148
3240.77	0.000192
3250.41	7.1e-05
3260.06	0.000153
3269.7	0.00023
3279.35	0.000229
3289	0.000204
3298.64	0.000205
3308.29	0.000209
3317.93	0.000298
3327.58	0.000166
3337.22	0.000302
3346.87	0.000275
3356.51	0.00023
3366.16	0.000325
3375.8	0.000308
3385.45	0.000235
3395.09	0.0003406
3404.74	0.000317
3414.38	0.000284
3424.03	0.0003568
3433.67	0.000301
3443.32	0.000187
3452.96	0.0003482
3462.61	0.000176
3472.25	0.000276
3481.9	0.000294
3491.54	0.00022
3501.19	0.000303
3510.83	0.000242
3520.48	0.000279
3530.12	0.000298
3539.77	0.000354
3549.41	0.00045955
3559.06	0.000292
3568.7	0.0006511
3578.35	0.0008298
3587.99	0.0008018
3597.64	0.0005485
3607.28	0.000318
3616.93	0.0004136
3626.57	0.0003402
3636.22	0.0003956
3645.86	0.0003796
3655.51	0.000313
3665.15	0.00025
3674.8	0.00031
3684.44	0.0003971
3694.09	0.0003948
3703.73	0.000174
3713.38	0.000156
3723.02	0.000207
3732.67	0.0003793
3742.31	0.000233
3751.96	0.00032
3761.6	0.000321
3771.25	0.00028
3780.89	0.000306
3790.54	0.000203
3800.18	0.0003384
3809.83	0.000265
3819.47	0.000228
3829.12	0.000191
3838.76	0.000302
3848.41	0.000241
3858.05	0.000245
3867.7	0.000161
3877.34	0.0003643
3886.99	0.000172
3896.63	0.000202
3906.28	0.000203
3915.92	0.000186
3925.57	0.000291
3935.21	0.000291
3944.86	0.00022
3954.5	7.7e-05
3964.15	0.000222
3973.79	0.000125
3983.44	0.000138
3993.08	0.000208
