Infrared Spectrum: 3,4-Methylenedioxybenzyl alcohol
Formula: C 8 H 8 O 3
CAS: 495-76-1
State: gas
Origin: EPA-IR VAPOR PHASE LIBRARY
1/CM	ABSORBANCE
551.7	0.00215
563.274	0.00171
574.848	0.00171
586.421	0.00251
597.995	0.00269
609.569	0.00287
621.143	0.00301
632.717	0.00376
644.291	0.00385
655.864	0.00312
667.438	0.00211
679.012	0.00159
690.586	0.00135
702.16	0.00172
713.734	0.00367
725.307	0.00341
736.881	0.0027
748.455	0.00436
760.029	0.00742
771.603	0.0089
783.177	0.01063
794.75	0.01919
806.324	0.03048
817.898	0.02161
829.472	0.01056
841.046	0.00866
852.619	0.01176
864.193	0.01287
875.767	0.00802
887.341	0.00547
898.915	0.00713
910.489	0.01464
922.062	0.02301
933.636	0.02985
945.21	0.03374
956.784	0.02671
968.358	0.01834
979.932	0.01864
991.505	0.02369
1003.08	0.03304
1014.65	0.04672
1026.23	0.05954
1037.8	0.07046
1049.37	0.07689
1060.95	0.05711
1072.52	0.03146
1084.1	0.02382
1095.67	0.02375
1107.24	0.02051
1118.82	0.01696
1130.39	0.01267
1141.97	0.00912
1153.54	0.00789
1165.11	0.00873
1176.69	0.01395
1188.26	0.02426
1199.83	0.02804
1211.41	0.03306
1222.98	0.05606
1234.56	0.10845
1246.13	0.14991
1257.7	0.09647
1269.28	0.03677
1280.85	0.01738
1292.42	0.0125
1304	0.01158
1315.57	0.01295
1327.15	0.01547
1338.72	0.01801
1350.29	0.02145
1361.87	0.02413
1373.44	0.02573
1385.02	0.02542
1396.59	0.02065
1408.16	0.01676
1419.74	0.02062
1431.31	0.04357
1442.88	0.07442
1454.46	0.05043
1466.03	0.03436
1477.61	0.05736
1489.18	0.1074
1500.75	0.07937
1512.33	0.03485
1523.9	0.01259
1535.48	0.00678
1547.05	0.00452
1558.62	0.00373
1570.2	0.00343
1581.77	0.00343
1593.34	0.00408
1604.92	0.00501
1616.49	0.00479
1628.07	0.00389
1639.64	0.00265
1651.21	0.00155
1662.79	0.00129
1674.36	0.00122
1685.93	0.00139
1697.51	0.00187
1709.08	0.00258
1720.66	0.00287
1732.23	0.00217
1743.8	0.00167
1755.38	0.00172
1766.95	0.00185
1778.53	0.00155
1790.1	0.00119
1801.67	0.00115
1813.25	0.0016
1824.82	0.00251
1836.39	0.00314
1847.97	0.003
1859.54	0.00281
1871.12	0.00273
1882.69	0.00233
1894.26	0.00167
1905.84	0.00113
1917.41	0.0009402
1928.99	0.0008124
1940.56	0.0008749
1952.13	0.0009893
1963.71	0.0009696
1975.28	0.00108
1986.85	0.00132
1998.43	0.00165
2010	0.00196
2021.58	0.00189
2033.15	0.0019
2044.72	0.00189
2056.3	0.00165
2067.87	0.00143
2079.44	0.00114
2091.02	0.00105
2102.59	0.0008405
2114.17	0.0007022
2125.74	0.0006475
2137.31	0.0006657
2148.89	0.0006748
2160.46	0.0006778
2172.04	0.0007237
2183.61	0.0007938
2195.18	0.0007818
2206.76	0.0007303
2218.33	0.0007397
2229.9	0.0007584
2241.48	0.0007593
2253.05	0.0007775
2264.63	0.0007717
2276.2	0.0008288
2287.77	0.0009644
2299.35	0.00107
2310.92	0.00106
2322.5	0.0009129
2334.07	0.0008756
2345.64	0.0007865
2357.22	0.0008356
2368.79	0.0009215
2380.36	0.000853
2391.94	0.0007889
2403.51	0.0006265
2415.09	0.0006369
2426.66	0.00064
2438.23	0.0007028
2449.81	0.0006729
2461.38	0.0006509
2472.96	0.0006084
2484.53	0.0006507
2496.1	0.0006955
2507.68	0.0008036
2519.25	0.00102
2530.82	0.00126
2542.4	0.00123
2553.97	0.0013
2565.55	0.00132
2577.12	0.00135
2588.69	0.00147
2600.27	0.0015
2611.84	0.00142
2623.41	0.00113
2634.99	0.000952
2646.56	0.00104
2658.14	0.00114
2669.71	0.00147
2681.28	0.00182
2692.86	0.00191
2704.43	0.0018
2716.01	0.0019
2727.58	0.00214
2739.15	0.00268
2750.73	0.00351
2762.3	0.00584
2773.87	0.00926
2785.45	0.00684
2797.02	0.00472
2808.6	0.00517
2820.17	0.00656
2831.74	0.00917
2843.32	0.01292
2854.89	0.01863
2866.47	0.02805
2878.04	0.03795
2889.61	0.03846
2901.19	0.03365
2912.76	0.03213
2924.33	0.03143
2935.91	0.02889
2947.48	0.02595
2959.06	0.02097
2970.63	0.01439
2982.2	0.01005
2993.78	0.00859
3005.35	0.00912
3016.92	0.01126
3028.5	0.01098
3040.07	0.00965
3051.65	0.00733
3063.22	0.00589
3074.79	0.00548
3086.37	0.00412
3097.94	0.00267
3109.52	0.00195
3121.09	0.00129
3132.66	0.0007919
3144.24	0.0004683
3155.81	0.0004137
3167.38	0.000373
3178.96	0.0002837
3190.53	0.0002738
3202.11	0.00032
3213.68	0.0003576
3225.25	0.0003373
3236.83	0.000344
3248.4	0.000378
3259.98	0.0002895
3271.55	0.0003147
3283.12	0.0002628
3294.7	0.0001545
3306.27	0.0003361
3317.84	0.0002912
3329.42	0.0003709
3340.99	0.0003656
3352.57	0.0004002
3364.14	0.0003633
3375.71	0.0004055
3387.29	0.000465
3398.86	0.0004001
3410.43	0.0005289
3422.01	0.0004896
3433.58	0.0005659
3445.16	0.0004825
3456.73	0.0005066
3468.3	0.0004834
3479.88	0.0005445
3491.45	0.00054
3503.03	0.0005324
3514.6	0.0005196
3526.17	0.0004551
3537.75	0.0005068
3549.32	0.0005388
3560.89	0.0005787
3572.47	0.0005792
3584.04	0.0007419
3595.62	0.0009147
3607.19	0.00119
3618.76	0.00177
3630.34	0.00347
3641.91	0.00629
3653.49	0.00804
3665.06	0.00683
3676.63	0.00425
3688.21	0.00273
3699.78	0.00161
3711.35	0.00112
3722.93	0.000921
3734.5	0.0006966
3746.08	0.0006895
3757.65	0.0005684
3769.22	0.0005293
3780.8	0.0006112
3792.37	0.0006321
3803.94	0.0007411
3815.52	0.0005266
3827.09	0.0007505
3838.67	0.0006936
3850.24	0.0008453
3861.81	0.0007669
3873.39	0.00094
3884.96	0.0008809
3896.54	0.0008627
3908.11	0.0007524
3919.68	0.00069
3931.26	0.0007041
3942.83	0.0007304
3954.4	0.0006695
3965.98	0.0006581
3977.55	0.0007129
3989.13	0.0005707
4000.7	0.0005546
