Infrared Spectrum: BENZENEACETONITRILE, Alpha-METHYLENE-
Formula: C9 H7 N
CAS: 495-10-3
State: LIQUID (NEAT)
Class: COBLENTZ III
Instrument: PERKIN-ELMER 521 (GRATING)
Instrument parameters: FILTERS AT 3150, 2500, 2000, 1150, 700, 410 AND GRATING CHANGES AT 2000, 630 CM^-^1
Sampling: TRANSMISSION
Path length: 0.0015 CM, NaCl CELL
Resolution: 4
Origin: STANDARD OIL OF OHIO
1/CM	TRANSMITTANCE
600	0.627
608.305	0.64
616.61	0.677
624.915	0.7
633.22	0.715
641.525	0.719
649.83	0.712
658.136	0.6611
666.441	0.5241
674.746	0.33
683.051	0.219
691.356	0.4059
699.661	0.4441
707.966	0.288
716.271	0.094
724.576	0.2549
732.881	0.625
741.186	0.679
749.491	0.5742
757.797	0.43
766.102	0.264
774.407	0.0499
782.712	0.5938
791.017	0.763
799.322	0.794
807.627	0.803
815.932	0.802
824.237	0.79
832.542	0.748
840.847	0.755
849.152	0.793
857.458	0.793
865.763	0.783
874.068	0.769
882.373	0.731
890.678	0.696
898.983	0.678
907.288	0.5433
915.593	0.2822
923.898	0.204
932.203	0.198
940.508	0.3606
948.813	0.5439
957.118	0.702
965.424	0.731
973.729	0.731
982.034	0.728
990.339	0.724
998.644	0.676
1006.95	0.698
1015.25	0.659
1023.56	0.5501
1031.86	0.756
1040.17	0.786
1048.47	0.789
1056.78	0.775
1065.08	0.699
1073.39	0.6869
1081.69	0.734
1090	0.738
1098.3	0.768
1106.61	0.788
1114.92	0.8
1123.22	0.795
1131.53	0.789
1139.83	0.776
1148.14	0.757
1156.44	0.754
1164.75	0.761
1173.05	0.751
1181.36	0.745
1189.66	0.764
1197.97	0.783
1206.27	0.782
1214.58	0.774
1222.88	0.75
1231.19	0.729
1239.49	0.725
1247.8	0.708
1256.1	0.639
1264.41	0.491
1272.71	0.5368
1281.02	0.565
1289.32	0.549
1297.63	0.5999
1305.93	0.643
1314.24	0.65
1322.54	0.7099
1330.85	0.717
1339.15	0.731
1347.46	0.73
1355.76	0.715
1364.07	0.686
1372.37	0.652
1380.68	0.621
1388.98	0.613
1397.29	0.619
1405.59	0.626
1413.9	0.648
1422.2	0.7688
1430.51	0.677
1438.81	0.5032
1447.12	0.5419
1455.42	0.849
1463.73	0.849
1472.03	0.84
1480.34	0.7441
1488.64	0.5042
1496.95	0.6913
1505.25	0.865
1513.56	0.865
1521.86	0.861
1530.17	0.855
1538.47	0.842
1546.78	0.828
1555.08	0.797
1563.39	0.751
1571.69	0.6471
1580	0.7438
1588.3	0.774
1596.61	0.665
1604.91	0.444
1613.22	0.8029
1621.53	0.858
1629.83	0.869
1638.14	0.873
1646.44	0.872
1654.75	0.871
1663.05	0.853
1671.36	0.828
1679.66	0.829
1687.97	0.845
1696.27	0.872
1704.58	0.874
1712.88	0.866
1721.19	0.856
1729.49	0.834
1737.8	0.8489
1746.1	0.886
1754.41	0.888
1762.71	0.894
1771.02	0.898
1779.32	0.9
1787.63	0.897
1795.93	0.884
1804.24	0.881
1812.54	0.885
1820.85	0.884
1829.15	0.878
1837.46	0.869
1845.76	0.853
1854.07	0.834
1862.37	0.827
1870.68	0.82
1878.98	0.814
1887.29	0.832
1895.59	0.852
1903.9	0.872
1912.2	0.897
1920.51	0.901
1928.81	0.9
1937.12	0.892
1945.42	0.865
1953.73	0.862
1962.03	0.869
1970.34	0.878
1978.64	0.894
1986.95	0.91
1995.25	0.914
2003.56	0.919
2011.86	0.919
2020.17	0.92
2028.47	0.921
2036.78	0.924
2045.08	0.9211
2053.39	0.9229
2061.69	0.923
2070	0.9239
2078.3	0.925
2086.61	0.926
2094.91	0.925
2103.22	0.925
2111.52	0.925
2119.83	0.925
2128.13	0.9248
2136.44	0.923
2144.75	0.923
2153.05	0.923
2161.36	0.92
2169.66	0.9182
2177.97	0.919
2186.27	0.9132
2194.58	0.9085
2202.88	0.8985
2211.19	0.8713
2219.49	0.7589
2227.8	0.5424
2236.1	0.6399
2244.41	0.8692
2252.71	0.8733
2261.02	0.8653
2269.32	0.8587
2277.63	0.8763
2285.93	0.914
2294.24	0.918
2302.54	0.921
2310.85	0.9194
2319.15	0.918
2327.46	0.919
2335.76	0.919
2344.07	0.9194
2352.37	0.921
2360.68	0.921
2368.98	0.923
2377.29	0.923
2385.59	0.923
2393.9	0.924
2402.2	0.923
2410.51	0.92
2418.81	0.919
2427.12	0.919
2435.42	0.919
2443.73	0.919
2452.03	0.9185
2460.34	0.918
2468.64	0.918
2476.95	0.916
2485.25	0.9126
2493.56	0.9213
2501.86	0.927
2510.17	0.926
2518.47	0.925
2526.78	0.926
2535.08	0.926
2543.39	0.926
2551.69	0.9257
2560	0.925
2568.3	0.924
2576.61	0.9224
2584.91	0.921
2593.22	0.921
2601.52	0.921
2609.83	0.921
2618.13	0.921
2626.44	0.921
2634.74	0.921
2643.05	0.921
2651.36	0.9238
2659.66	0.923
2667.97	0.9202
2676.27	0.92
2684.58	0.92
2692.88	0.92
2701.19	0.919
2709.49	0.92
2717.8	0.9227
2726.1	0.923
2734.41	0.923
2742.71	0.921
2751.02	0.919
2759.32	0.918
2767.63	0.917
2775.93	0.9171
2784.24	0.918
2792.54	0.9179
2800.85	0.916
2809.15	0.914
2817.46	0.913
2825.76	0.912
2834.07	0.906
2842.37	0.899
2850.68	0.898
2858.98	0.898
2867.29	0.897
2875.59	0.894
2883.9	0.8921
2892.2	0.888
2900.51	0.8851
2908.81	0.8741
2917.12	0.873
2925.42	0.869
2933.73	0.868
2942.03	0.871
2950.34	0.8681
2958.64	0.8623
2966.95	0.8582
2975.25	0.8495
2983.56	0.8262
2991.86	0.825
3000.17	0.8174
3008.47	0.8012
3016.78	0.7783
3025.08	0.6923
3033.39	0.6242
3041.69	0.6669
3050	0.6818
3058.3	0.6299
3066.61	0.6012
3074.91	0.7016
3083.22	0.7176
3091.52	0.7516
3099.83	0.7873
3108.13	0.7636
3116.44	0.7627
3124.74	0.8049
3133.05	0.8506
3141.35	0.8686
3149.66	0.8763
3157.97	0.8856
3166.27	0.8916
3174.58	0.893
3182.88	0.894
3191.19	0.894
3199.49	0.898
3207.8	0.8986
3216.1	0.9
3224.41	0.9
3232.71	0.901
3241.02	0.9005
3249.32	0.9005
3257.63	0.901
3265.93	0.9
3274.24	0.9
3282.54	0.9
3290.85	0.8995
3299.15	0.8999
3307.46	0.8986
3315.76	0.898
3324.07	0.898
3332.37	0.898
3340.68	0.8974
3348.98	0.897
3357.29	0.8976
3365.59	0.897
3373.9	0.8974
3382.2	0.8984
3390.51	0.9017
3398.81	0.906
3407.12	0.908
3415.42	0.908
3423.73	0.91
3432.03	0.91
3440.34	0.91
3448.64	0.911
3456.95	0.91
3465.25	0.911
3473.56	0.911
3481.86	0.911
3490.17	0.9122
3498.47	0.9132
3506.78	0.9162
3515.08	0.919
3523.39	0.919
3531.69	0.9198
3540	0.92
3548.3	0.919
3556.61	0.919
3564.91	0.92
3573.22	0.921
3581.52	0.921
3589.83	0.921
3598.13	0.921
3606.44	0.92
3614.74	0.92
3623.05	0.92
3631.35	0.919
3639.66	0.92
3647.96	0.923
3656.27	0.924
3664.58	0.925
3672.88	0.926
3681.19	0.927
3689.49	0.927
3697.8	0.927
3706.1	0.927
3714.41	0.927
3722.71	0.9271
3731.02	0.929
3739.32	0.9289
3747.63	0.927
3755.93	0.927
3764.24	0.93
3772.54	0.926
3780.85	0.925
3789.15	0.926
3797.46	0.927
3805.76	0.926
3814.07	0.926
3822.37	0.93
3830.68	0.93
3838.98	0.93
3847.29	0.929
3855.59	0.931
3863.9	0.931
3872.2	0.9308
3880.51	0.931
