Infrared Spectrum: AZOXYBENZENE
Formula: C12 H10 N2 O
CAS: 495-48-7
State: SOLUTION (10% CCl4 FOR 2.0-7.6, 2% CS2 FOR 7.6-16.0 MICRON)
Melting point: 36 C
Class: COBLENTZ III
Instrument: BAIRD (PRISM)
Instrument parameters: NaCl PRISM
Sampling: TRANSMISSION
Path length: 0.012 CM, 0.012 CM
Resolution: 2
Origin: DOW CHEMICAL COMPANY
MICROMETERS	TRANSMITTANCE
1.993	0.905
2.03212	0.905
2.07124	0.903
2.11036	0.902
2.14947	0.9
2.18859	0.9
2.22771	0.9
2.26683	0.9
2.30595	0.902
2.34507	0.903
2.38419	0.904
2.4233	0.904
2.46242	0.904
2.50154	0.903
2.54066	0.907
2.57978	0.91
2.6189	0.914
2.65802	0.915
2.69713	0.915
2.73625	0.915
2.77537	0.916
2.81449	0.916
2.85361	0.918
2.89273	0.916
2.93185	0.916
2.97096	0.916
3.01008	0.916
3.0492	0.915
3.08832	0.914
3.12744	0.909
3.16656	0.897
3.20568	0.856
3.24479	0.716
3.28391	0.649
3.32303	0.765
3.36215	0.869
3.40127	0.887
3.44039	0.889
3.47951	0.892
3.51862	0.898
3.55774	0.899
3.59686	0.897
3.63598	0.888
3.6751	0.888
3.71422	0.889
3.75334	0.908
3.79245	0.91
3.83157	0.911
3.87069	0.91
3.90981	0.909
3.94893	0.91
3.98805	0.911
4.02717	0.915
4.06628	0.919
4.1054	0.92
4.14452	0.918
4.18364	0.91
4.22276	0.91
4.26188	0.91
4.301	0.911
4.34011	0.918
4.37923	0.918
4.41835	0.919
4.45747	0.918
4.49659	0.921
4.53571	0.925
4.57483	0.93
4.61394	0.93
4.65306	0.93
4.69218	0.929
4.7313	0.93
4.77042	0.93
4.80954	0.93
4.84866	0.933
4.88777	0.935
4.92689	0.933
4.96601	0.933
5.00513	0.932
5.04425	0.921
5.08337	0.878
5.12249	0.858
5.1616	0.898
5.20072	0.908
5.23984	0.892
5.27896	0.877
5.31808	0.893
5.3572	0.914
5.39632	0.918
5.43543	0.92
5.47455	0.919
5.51367	0.891
5.55279	0.861
5.59191	0.889
5.63103	0.9
5.67015	0.872
5.70926	0.869
5.74838	0.882
5.7875	0.889
5.82662	0.889
5.86574	0.889
5.90486	0.88
5.94398	0.88
5.98309	0.892
6.02221	0.893
6.06133	0.903
6.10045	0.903
6.13957	0.899
6.17869	0.876
6.21781	0.816
6.25692	0.787
6.29604	0.8
6.33516	0.784
6.37428	0.8
6.4134	0.82
6.45252	0.82
6.49164	0.82
6.53075	0.811
6.56987	0.784
6.60899	0.715
6.64811	0.57
6.68723	0.3
6.72635	0.013
6.76547	0.051
6.80458	0.476
6.8437	0.591
6.88282	0.388
6.92194	0.117
6.96106	0.468
7.00018	0.684
7.0393	0.778
7.07841	0.804
7.11753	0.825
7.15665	0.836
7.19577	0.842
7.23489	0.844
7.27401	0.845
7.31313	0.845
7.35224	0.839
7.39136	0.82
7.43048	0.721
7.4696	0.529
7.50872	0.485
7.54784	0.649
7.58696	0.591
7.62607	0.474
7.66519	0.338
7.70431	0.405
7.74343	0.569
7.78255	0.577
7.82167	0.5
7.86079	0.682
7.8999	0.816
7.93902	0.856
7.97814	0.881
8.01726	0.898
8.05638	0.908
8.0955	0.924
8.13462	0.932
8.17373	0.933
8.21285	0.929
8.25197	0.927
8.29109	0.927
8.33021	0.922
8.36933	0.915
8.40845	0.899
8.44756	0.855
8.48668	0.81
8.5258	0.728
8.56492	0.556
8.60404	0.524
8.64316	0.709
8.68228	0.798
8.72139	0.842
8.76051	0.861
8.79963	0.874
8.83875	0.882
8.87787	0.888
8.91699	0.893
8.95611	0.894
8.99522	0.888
9.03434	0.852
9.07346	0.79
9.11258	0.751
9.1517	0.76
9.19082	0.81
9.22994	0.809
9.26905	0.751
9.30817	0.603
9.34729	0.517
9.38641	0.596
9.42553	0.775
9.46465	0.876
9.50377	0.91
9.54288	0.93
9.582	0.933
9.62112	0.933
9.66024	0.916
9.69936	0.761
9.73848	0.421
9.7776	0.481
9.81671	0.794
9.85583	0.864
9.89495	0.896
9.93407	0.897
9.97319	0.882
10.0123	0.885
10.0514	0.927
10.0905	0.93
10.1297	0.93
10.1688	0.926
10.2079	0.925
10.247	0.927
10.2861	0.929
10.3253	0.929
10.3644	0.927
10.4035	0.929
10.4426	0.932
10.4817	0.937
10.5208	0.938
10.56	0.938
10.5991	0.937
10.6382	0.929
10.6773	0.899
10.7164	0.823
10.7556	0.672
10.7947	0.525
10.8338	0.517
10.8729	0.597
10.912	0.636
10.9512	0.641
10.9903	0.623
11.0294	0.612
11.0685	0.667
11.1076	0.755
11.1467	0.831
11.1859	0.869
11.225	0.91
11.2641	0.938
11.3032	0.954
11.3423	0.971
11.3815	0.981
11.4206	0.987
11.4597	0.987
11.4988	0.988
11.5379	0.988
11.5771	0.988
11.6162	0.988
11.6553	0.988
11.6944	0.988
11.7335	0.987
11.7726	0.987
11.8118	0.984
11.8509	0.971
11.89	0.948
11.9291	0.922
11.9682	0.905
12.0074	0.896
12.0465	0.891
12.0856	0.894
12.1247	0.909
12.1638	0.924
12.2029	0.937
12.2421	0.944
12.2812	0.951
12.3203	0.953
12.3594	0.954
12.3985	0.955
12.4377	0.955
12.4768	0.955
12.5159	0.955
12.555	0.953
12.5941	0.946
12.6333	0.933
12.6724	0.915
12.7115	0.894
12.7506	0.864
12.7897	0.812
12.8288	0.72
12.868	0.591
12.9071	0.381
12.9462	0.229
12.9853	0.196
13.0244	0.185
13.0636	0.117
13.1027	0.053
13.1418	0.047
13.1809	0.079
13.22	0.191
13.2591	0.343
13.2983	0.498
13.3374	0.599
13.3765	0.687
13.4156	0.746
13.4547	0.795
13.4939	0.826
13.533	0.863
13.5721	0.881
13.6112	0.893
13.6503	0.904
13.6895	0.918
13.7286	0.924
13.7677	0.929
13.8068	0.929
13.8459	0.93
13.885	0.931
13.9242	0.931
13.9633	0.931
14.0024	0.929
14.0415	0.925
14.0806	0.916
14.1198	0.903
14.1589	0.886
14.198	0.856
14.2371	0.819
14.2762	0.771
14.3154	0.698
14.3545	0.625
14.3936	0.535
14.4327	0.413
14.4718	0.315
14.5109	0.221
14.5501	0.151
14.5892	0.117
14.6283	0.113
14.6674	0.138
14.7065	0.207
14.7457	0.3
14.7848	0.431
14.8239	0.513
14.863	0.574
14.9021	0.614
14.9412	0.645
14.9804	0.674
15.0195	0.705
15.0586	0.728
15.0977	0.746
15.1368	0.761
15.176	0.778
15.2151	0.789
15.2542	0.798
15.2933	0.808
15.3324	0.816
15.3716	0.823
15.4107	0.826
15.4498	0.83
15.4889	0.833
15.528	0.836
15.5671	0.838
15.6063	0.839
15.6454	0.842
15.6845	0.843
15.7236	0.845
15.7627	0.848
15.8019	0.849
15.841	0.849
15.8801	0.849
15.9192	0.849
15.9583	0.85
