Infrared Spectrum: Beta-BISABOLENE
Formula: C15 H24
CAS: 495-61-4
State: SOLUTION (10% IN CCl4 FOR 4000-1200 CM^-^1, 10% IN CS2 FOR 1200-450 CM^-^1) VS. SOLVENT
Class: COBLENTZ III
Instrument: CARY 90 (GRATING)
Instrument parameters: GRATING CHANGES AT 3000, 2000, 1200 CM^-^1
Sampling: TRANSMISSION
Path length: 0.01 CM, 0.01 CM
Resolution: 4
Origin: WESTERN REGIONAL RES. USDA
1/CM	TRANSMITTANCE
499.101	0.577
508.088	0.587
517.076	0.588
526.063	0.578
535.051	0.584
544.038	0.606
553.026	0.618
562.013	0.623
571	0.629
579.988	0.635
588.975	0.639
597.963	0.636
606.95	0.621
615.937	0.608
624.925	0.611
633.912	0.622
642.9	0.63
651.887	0.635
660.875	0.648
669.862	0.656
678.849	0.672
687.837	0.681
696.824	0.688
705.812	0.695
714.799	0.673
723.786	0.726
732.774	0.722
741.761	0.703
750.749	0.689
759.736	0.639
768.724	0.703
777.711	0.715
786.698	0.668
795.686	0.478
804.673	0.573
813.661	0.632
822.648	0.558
831.635	0.537
840.623	0.689
849.61	0.722
858.598	0.727
867.585	0.699
876.573	0.561
885.56	0.209
894.547	0.337
903.535	0.625
912.522	0.506
921.51	0.685
930.497	0.731
939.484	0.725
948.472	0.708
957.459	0.695
966.447	0.712
975.434	0.685
984.422	0.641
993.409	0.702
1002.4	0.711
1011.38	0.664
1020.37	0.638
1029.36	0.708
1038.35	0.691
1047.33	0.613
1056.32	0.734
1065.31	0.747
1074.3	0.742
1083.28	0.757
1092.27	0.745
1101.26	0.65
1110.25	0.658
1119.23	0.747
1128.22	0.77
1137.21	0.756
1146.2	0.632
1155.18	0.626
1164.17	0.747
1173.16	0.76
1182.14	0.757
1191.13	0.753
1200.12	0.745
1209.11	0.748
1218.09	0.709
1227.08	0.698
1236.07	0.694
1245.06	0.702
1254.04	0.753
1263.03	0.781
1272.02	0.77
1281.01	0.756
1289.99	0.74
1298.98	0.724
1307.97	0.672
1316.96	0.716
1325.94	0.676
1334.93	0.692
1343.92	0.676
1352.91	0.707
1361.89	0.675
1370.88	0.512
1379.87	0.233
1388.86	0.617
1397.84	0.659
1406.83	0.662
1415.82	0.601
1424.8	0.418
1433.79	0.155
1442.78	0.126
1451.77	0.129
1460.75	0.412
1469.74	0.628
1478.73	0.712
1487.72	0.75
1496.7	0.775
1505.69	0.793
1514.68	0.807
1523.67	0.81
1532.65	0.817
1541.64	0.823
1550.63	0.829
1559.62	0.835
1568.6	0.829
1577.59	0.811
1586.58	0.808
1595.57	0.808
1604.55	0.795
1613.54	0.773
1622.53	0.733
1631.52	0.531
1640.5	0.229
1649.49	0.576
1658.48	0.738
1667.47	0.731
1676.45	0.725
1685.44	0.81
1694.43	0.823
1703.41	0.825
1712.4	0.819
1721.39	0.827
1730.38	0.835
1739.36	0.825
1748.35	0.828
1757.34	0.835
1766.33	0.834
1775.31	0.823
1784.3	0.793
1793.29	0.793
1802.28	0.822
1811.26	0.833
1820.25	0.836
1829.24	0.842
1838.23	0.845
1847.21	0.846
1856.2	0.85
1865.19	0.85
1874.18	0.849
1883.16	0.849
1892.15	0.854
1901.14	0.855
1910.13	0.858
1919.11	0.86
1928.1	0.862
1937.09	0.858
1946.08	0.853
1955.06	0.852
1964.05	0.854
1973.04	0.853
1982.02	0.852
1991.01	0.85
2000	0.846
2008.99	0.844
2017.97	0.843
2026.96	0.842
2035.95	0.841
2044.94	0.84
2053.92	0.84
2062.91	0.84
2071.9	0.841
2080.89	0.841
2089.87	0.842
2098.86	0.843
2107.85	0.843
2116.84	0.844
2125.82	0.845
2134.81	0.845
2143.8	0.845
2152.79	0.845
2161.77	0.845
2170.76	0.845
2179.75	0.845
2188.74	0.845
2197.72	0.845
2206.71	0.845
2215.7	0.845
2224.69	0.845
2233.67	0.845
2242.66	0.845
2251.65	0.845
2260.63	0.845
2269.62	0.845
2278.61	0.844
2287.6	0.843
2296.58	0.842
2305.57	0.841
2314.56	0.841
2323.55	0.842
2332.53	0.842
2341.52	0.843
2350.51	0.843
2359.5	0.843
2368.48	0.8445
2377.47	0.846
2386.46	0.848
2395.45	0.85
2404.43	0.8515
2413.42	0.853
2422.41	0.8554
2431.4	0.858
2440.38	0.8572
2449.37	0.8546
2458.36	0.852
2467.35	0.851
2476.33	0.8527
2485.32	0.858
2494.31	0.86
2503.3	0.858
2512.28	0.855
2521.27	0.853
2530.26	0.854
2539.24	0.8547
2548.23	0.853
2557.22	0.8497
2566.21	0.845
2575.19	0.845
2584.18	0.847
2593.17	0.846
2602.16	0.8408
2611.14	0.8358
2620.13	0.8352
2629.12	0.8405
2638.11	0.849
2647.09	0.8427
2656.08	0.835
2665.07	0.8216
2674.06	0.813
2683.04	0.815
2692.03	0.818
2701.02	0.822
2710.01	0.822
2718.99	0.7897
2727.98	0.7702
2736.97	0.8
2745.96	0.817
2754.94	0.824
2763.93	0.828
2772.92	0.826
2781.91	0.8151
2790.89	0.8041
2799.88	0.7526
2808.87	0.7127
2817.85	0.5856
2826.84	0.4598
2835.83	0.322
2844.82	0.3586
2853.8	0.25
2862.79	0.2874
2871.78	0.2682
2880.77	0.2195
2889.75	0.1992
2898.74	0.1849
2907.73	0.1158
2916.72	0.0962
2925.7	0.1083
2934.69	0.1787
2943.68	0.2959
2952.67	0.3388
2961.65	0.2263
2970.64	0.2921
2979.63	0.3971
2988.62	0.5212
2997.6	0.595
3006.59	0.581
3015.58	0.6342
3024.57	0.709
3033.55	0.7362
3042.54	0.7358
3051.53	0.748
3060.51	0.7714
3069.5	0.7444
3078.49	0.6999
3087.48	0.7329
3096.46	0.7819
3105.45	0.8292
3114.44	0.8445
3123.43	0.8515
3132.41	0.8555
3141.4	0.8605
3150.39	0.864
3159.38	0.868
3168.36	0.87
3177.35	0.8714
3186.34	0.873
3195.33	0.873
3204.31	0.873
3213.3	0.871
3222.29	0.869
3231.28	0.869
3240.26	0.869
3249.25	0.8703
3258.24	0.873
3267.23	0.8763
3276.21	0.879
3285.2	0.881
3294.19	0.884
3303.18	0.886
3312.16	0.886
3321.15	0.8848
3330.14	0.881
3339.12	0.878
3348.11	0.8768
3357.1	0.876
3366.09	0.8782
3375.07	0.8802
3384.06	0.8819
3393.05	0.8799
3402.04	0.877
3411.02	0.8748
3420.01	0.8751
3429	0.8781
3437.99	0.879
3446.97	0.8769
3455.96	0.872
3464.95	0.87
3473.94	0.872
3482.92	0.876
3491.91	0.879
3500.9	0.882
3509.89	0.886
3518.87	0.889
3527.86	0.891
3536.85	0.89
3545.84	0.889
3554.82	0.887
3563.81	0.886
3572.8	0.885
3581.79	0.881
3590.77	0.8781
3599.76	0.876
3608.75	0.8721
3617.73	0.871
3626.72	0.8747
3635.71	0.878
3644.7	0.881
3653.68	0.887
3662.67	0.886
3671.66	0.884
3680.65	0.8825
3689.63	0.8803
3698.62	0.879
3707.61	0.876
3716.6	0.875
3725.58	0.8757
3734.57	0.877
3743.56	0.879
3752.55	0.8807
3761.53	0.882
3770.52	0.885
3779.51	0.887
3788.5	0.8886
3797.48	0.888
3806.47	0.885
3815.46	0.8814
3824.45	0.878
3833.43	0.8739
3842.42	0.8699
3851.41	0.866
3860.4	0.8615
3869.38	0.8585
3878.37	0.8585
3887.36	0.861
3896.34	0.8625
3905.33	0.8645
3914.32	0.867
3923.31	0.869
3932.29	0.871
3941.28	0.8738
3950.27	0.8774
3959.26	0.8814
3968.24	0.886
3977.23	0.8917
3986.22	0.8964
3995.21	0.9007
4004.19	0.9047
