Infrared Spectrum: HIPPURIC ACID
Formula: C9 H9 N O3
CAS: 495-69-2
State: SOLID (NUJOL MULL)
Class: COBLENTZ III
Instrument: BECKMAN IR-7 (GRATING)
Instrument parameters: GRATING CHANGES AT 3000, 2200, 1150 CM^-^1
Sampling: TRANSMISSION
Resolution: 4
Origin: WESTERN REGIONAL RES. USDA
1/CM	TRANSMITTANCE
593.528	0.788
602.589	0.779
611.651	0.692
620.712	0.652
629.774	0.545
638.835	0.636
647.897	0.749
656.958	0.4141
666.02	0.56
675.081	0.713
684.143	0.709
693.204	0.379
702.266	0.628
711.327	0.598
720.389	0.093
729.45	0.223
738.512	0.648
747.573	0.736
756.635	0.759
765.696	0.768
774.758	0.765
783.819	0.761
792.881	0.735
801.942	0.576
811.004	0.6419
820.065	0.734
829.127	0.625
838.188	0.5541
847.25	0.357
856.311	0.412
865.373	0.496
874.434	0.566
883.496	0.5889
892.557	0.742
901.619	0.774
910.68	0.787
919.742	0.791
928.803	0.79
937.865	0.758
946.926	0.7329
955.988	0.787
965.049	0.794
974.111	0.793
983.172	0.765
992.234	0.735
1001.3	0.358
1010.36	0.761
1019.42	0.766
1028.48	0.49
1037.54	0.79
1046.6	0.792
1055.66	0.783
1064.73	0.718
1073.79	0.674
1082.85	0.532
1091.91	0.698
1100.97	0.69
1110.03	0.676
1119.09	0.696
1128.16	0.667
1137.22	0.618
1146.28	0.539
1155.34	0.2411
1164.4	0.179
1173.46	0.049
1182.53	0.03
1191.59	0.172
1200.65	0.45
1209.71	0.586
1218.77	0.651
1227.83	0.674
1236.89	0.658
1245.96	0.626
1255.02	0.457
1264.08	0.636
1273.14	0.655
1282.2	0.598
1291.26	0.552
1300.32	0.351
1309.39	0.444
1318.45	0.3
1327.51	0.479
1336.57	0.3349
1345.63	0.621
1354.69	0.642
1363.76	0.641
1372.82	0.552
1381.88	0.522
1390.94	0.362
1400	0.448
1409.06	0.3548
1418.12	0.2319
1427.19	0.534
1436.25	0.608
1445.31	0.461
1454.37	0.461
1463.43	0.44
1472.49	0.515
1481.55	0.457
1490.62	0.293
1499.68	0.642
1508.74	0.639
1517.8	0.584
1526.86	0.463
1535.92	0.281
1544.99	0.092
1554.05	0.015
1563.11	0.059
1572.17	0.106
1581.23	0.457
1590.29	0.3459
1599.35	0.066
1608.42	0.087
1617.48	0.152
1626.54	0.388
1635.6	0.572
1644.66	0.653
1653.72	0.683
1662.78	0.703
1671.85	0.729
1680.91	0.747
1689.97	0.744
1699.03	0.708
1708.09	0.682
1717.15	0.612
1726.22	0.444
1735.28	0.103
1744.34	0.061
1753.4	0.074
1762.46	0.126
1771.52	0.527
1780.58	0.743
1789.65	0.79
1798.71	0.802
1807.77	0.809
1816.83	0.813
1825.89	0.813
1834.95	0.809
1844.01	0.814
1853.08	0.843
1862.14	0.857
1871.2	0.863
1880.26	0.868
1889.32	0.873
1898.38	0.875
1907.45	0.879
1916.51	0.875
1925.57	0.849
1934.63	0.866
1943.69	0.863
1952.75	0.871
1961.81	0.879
1970.88	0.877
1979.94	0.875
1989	0.856
1998.06	0.87
2007.12	0.873
2016.18	0.8716
2025.24	0.866
2034.31	0.863
2043.37	0.8622
2052.43	0.8658
2061.49	0.8739
2070.55	0.877
2079.61	0.878
2088.68	0.878
2097.74	0.878
2106.8	0.877
2115.86	0.877
2124.92	0.876
2133.98	0.875
2143.04	0.8741
2152.11	0.873
2161.17	0.873
2170.23	0.8723
2179.29	0.8715
2188.35	0.8691
2197.41	0.8661
2206.47	0.8519
2215.54	0.8473
2224.6	0.847
2233.66	0.847
2242.72	0.847
2251.78	0.846
2260.84	0.845
2269.91	0.843
2278.97	0.841
2288.03	0.8395
2297.09	0.838
2306.15	0.8363
2315.21	0.835
2324.27	0.834
2333.34	0.832
2342.4	0.8279
2351.46	0.8216
2360.52	0.8167
2369.58	0.8131
2378.64	0.812
2387.7	0.8119
2396.77	0.811
2405.83	0.811
2414.89	0.811
2423.95	0.81
2433.01	0.8089
2442.07	0.8046
2451.13	0.7998
2460.2	0.7627
2469.26	0.7349
2478.32	0.7229
2487.38	0.7284
2496.44	0.7446
2505.5	0.7647
2514.57	0.7746
2523.63	0.7833
2532.69	0.7877
2541.75	0.7897
2550.81	0.7852
2559.87	0.7653
2568.93	0.753
2578	0.7475
2587.06	0.7436
2596.12	0.7391
2605.18	0.7391
2614.24	0.7443
2623.3	0.7505
2632.36	0.7564
2641.43	0.758
2650.49	0.7584
2659.55	0.7537
2668.61	0.7437
2677.67	0.7315
2686.73	0.719
2695.8	0.7206
2704.86	0.7242
2713.92	0.7278
2722.98	0.73
2732.04	0.731
2741.1	0.73
2750.16	0.7278
2759.23	0.724
2768.29	0.721
2777.35	0.713
2786.41	0.6907
2795.47	0.6682
2804.53	0.6564
2813.59	0.6334
2822.66	0.5911
2831.72	0.4764
2840.78	0.2113
2849.84	0.184
2858.9	0.2114
2867.96	0.243
2877.03	0.2464
2886.09	0.2048
2895.15	0.1011
2904.21	0.058
2913.27	0.044
2922.33	0.0539
2931.39	0.0659
2940.46	0.086
2949.52	0.1157
2958.58	0.1332
2967.64	0.2045
2976.7	0.2527
2985.76	0.2562
2994.82	0.2491
3003.89	0.2389
3012.95	0.2244
3022.01	0.2078
3031.07	0.1908
3040.13	0.1748
3049.19	0.1608
3058.26	0.149
3067.32	0.1415
3076.38	0.136
3085.44	0.1369
3094.5	0.1502
3103.56	0.1636
3112.62	0.1803
3121.69	0.203
3130.75	0.2109
3139.81	0.2213
3148.87	0.2347
3157.93	0.2514
3166.99	0.2652
3176.05	0.2844
3185.12	0.3055
3194.18	0.3271
3203.24	0.3487
3212.3	0.3703
3221.36	0.386
3230.42	0.4034
3239.49	0.4191
3248.55	0.4329
3257.61	0.4437
3266.67	0.45
3275.73	0.452
3284.79	0.451
3293.85	0.4471
3302.92	0.4135
3311.98	0.3168
3321.04	0.1922
3330.1	0.0941
3339.16	0.1069
3348.22	0.2353
3357.28	0.3773
3366.35	0.4845
3375.41	0.5537
3384.47	0.6149
3393.53	0.6457
3402.59	0.6636
3411.65	0.6806
3420.72	0.7048
3429.78	0.7133
3438.84	0.7169
3447.9	0.719
3456.96	0.7201
3466.02	0.721
3475.08	0.724
3484.15	0.7329
3493.21	0.737
3502.27	0.7401
3511.33	0.7438
3520.39	0.747
3529.45	0.749
3538.51	0.751
3547.58	0.751
3556.64	0.751
3565.7	0.751
3574.76	0.75
3583.82	0.749
3592.88	0.749
3601.95	0.748
3611.01	0.747
3620.07	0.746
3629.13	0.744
3638.19	0.742
3647.25	0.7402
3656.31	0.7386
3665.38	0.737
3674.44	0.7354
3683.5	0.734
3692.56	0.733
3701.62	0.7316
3710.68	0.731
3719.74	0.73
3728.81	0.73
3737.87	0.73
3746.93	0.729
3755.99	0.728
3765.05	0.728
3774.11	0.727
3783.18	0.7262
3792.24	0.726
3801.3	0.724
3810.36	0.723
3819.42	0.722
3828.48	0.721
3837.54	0.72
3846.61	0.719
3855.67	0.718
3864.73	0.717
3873.79	0.7152
3882.85	0.7146
3891.91	0.714
3900.97	0.712
3910.04	0.711
3919.1	0.7102
3928.16	0.71
3937.22	0.71
3946.28	0.7084
3955.34	0.706
3964.41	0.705
3973.47	0.7016
