Infrared Spectrum: Benzhydroxamic acid
Formula: C 7 H 7 N O 2
CAS: 495-18-1
State: gas
Instrument: HP-GC/MS/IRD
Origin: NIST Mass Spectrometry Data Center
1/CM	ABSORBANCE
550	0.0018864
562	0.0021996
574	0.0021348
586	0.0019944
598	0.0016632
610	0.0015156
622	0.0013788
634	0.0014436
646	0.0016992
658	0.0029628
670	0.0066816
682	0.0101088
694	0.0137412
706	0.0139212
718	0.0088236
730	0.0044496
742	0.0027828
754	0.0025272
766	0.00225
778	0.0016992
790	0.0011916
802	0.0007632
814	0.0006444
826	0.0009108
838	0.0008892
850	9.72e-05
862	6.48e-05
874	0.000594
886	0.00207
898	0.0038232
910	0.0042156
922	0.0030888
934	0.0016596
946	0.0011844
958	0.0013032
970	0.0018612
982	0.0037728
994	0.0083772
1006	0.0111708
1018	0.0064548
1030	0.0022824
1042	0.0010584
1054	0.0009612
1066	0.0012384
1078	0.001314
1090	0.0012816
1102	0.0010872
1114	0.0007776
1126	0.0009504
1138	0.0009468
1150	0.0004608
1162	0.0004752
1174	0.001008
1186	0.001008
1198	0.0005436
1210	0.0005184
1222	0.0007596
1234	0.001314
1246	0.0020304
1258	0.003006
1270	0.0037836
1282	0.004626
1294	0.004212
1306	0.002736
1318	0.0027648
1330	0.0032544
1342	0.0048564
1354	0.0083376
1366	0.0171864
1378	0.0331092
1390	0.0323928
1402	0.0139716
1414	0.0060768
1426	0.0037872
1438	0.0036468
1450	0.0039492
1462	0.0027792
1474	0.0026172
1486	0.0036252
1498	0.0051264
1510	0.0052308
1522	0.0033264
1534	0.0019188
1546	0.0014652
1558	0.0015516
1570	0.0020016
1582	0.0024804
1594	0.0029304
1606	0.0028764
1618	0.0023652
1630	0.00261
1642	0.003672
1654	0.0050292
1666	0.0074052
1678	0.0154152
1690	0.0227988
1702	0.0192708
1714	0.0107784
1726	0.0059256
1738	0.0033336
1750	0.0023508
1762	0.0018324
1774	0.0012276
1786	0.0007452
1798	0.0008532
1810	0.0008568
1822	0.0005796
1834	0.0004176
1846	0.0003096
1858	0.0001764
1870	0.0002484
1882	0.0003096
1894	0.0004464
1906	0.0004104
1918	0.0002628
1930	0.0001872
1942	0.0003528
1954	0.0004428
1966	0.0004356
1978	0.0002016
1990	6.48e-05
2002	2.88e-05
2014	1.08e-05
2026	3.6e-06
2038	7.2e-06
2050	3.6e-06
2062	2.52e-05
2074	7.2e-06
2086	4.32e-05
2098	7.56e-05
2110	7.92e-05
2122	7.2e-05
2134	0.0001008
2146	0.0001764
2158	0.000288
2170	0.000468
2182	0.0006588
2194	0.0008856
2206	0.0011052
2218	0.0012564
2230	0.001692
2242	0.0030024
2254	0.0057924
2266	0.00864
2278	0.0100044
2290	0.0081648
2302	0.0042012
2314	0.0026028
2326	0.0020916
2338	0.0017388
2350	0.0015264
2362	0.0021312
2374	0.0018108
2386	0.0008424
2398	0.0003312
2410	0.0001476
2422	8.64e-05
2434	5.4e-05
2446	4.32e-05
2458	4.68e-05
2470	3.24e-05
2482	2.88e-05
2494	3.96e-05
2506	4.32e-05
2518	2.52e-05
2530	6.12e-05
2542	2.52e-05
2554	5.4e-05
2566	5.76e-05
2578	6.84e-05
2590	6.84e-05
2602	9e-05
2614	6.12e-05
2626	8.28e-05
2638	7.2e-05
2650	5.4e-05
2662	3.6e-05
2674	3.6e-06
2686	4.32e-05
2698	3.24e-05
2710	4.68e-05
2722	7.56e-05
2734	9.72e-05
2746	7.2e-05
2758	6.84e-05
2770	5.76e-05
2782	7.2e-06
2794	7.2e-06
2806	6.12e-05
2818	4.68e-05
2830	7.2e-05
2842	9.36e-05
2854	0.00018
2866	0.0002124
2878	0.0001476
2890	0.000108
2902	9.72e-05
2914	7.2e-05
2926	7.56e-05
2938	7.56e-05
2950	9.72e-05
2962	6.12e-05
2974	8.64e-05
2986	0.0001728
2998	0.0002988
3010	0.000504
3022	0.0010224
3034	0.001998
3046	0.002466
3058	0.0028404
3070	0.0045972
3082	0.0043848
3094	0.0026172
3106	0.0015912
3118	0.0007704
3130	0.0002952
3142	0.0001692
3154	0.000162
3166	0.0001512
3178	0.0001188
3190	7.92e-05
3202	5.76e-05
3214	4.32e-05
3226	1.44e-05
3238	2.16e-05
3250	7.56e-05
3262	6.48e-05
3274	0.0001296
3286	0.0002376
3298	0.0003708
3310	0.000666
3322	0.0013356
3334	0.0019116
3346	0.0021456
3358	0.0020448
3370	0.0018216
3382	0.0016524
3394	0.0015228
3406	0.0016776
3418	0.0023328
3430	0.003834
3442	0.0050976
3454	0.0044424
3466	0.0028116
3478	0.0018576
3490	0.0015048
3502	0.001458
3514	0.0016452
3526	0.0014868
3538	0.0005904
3550	0.0002808
3562	0.0002124
3574	0.0002556
3586	0.0003672
3598	0.0001872
3610	0.0002376
3622	0.0002232
3634	0.0003744
3646	0.0008496
3658	0.0016884
3670	0.0017784
3682	0.00063
3694	0.0001548
3706	8.28e-05
3718	3.24e-05
3730	7.92e-05
3742	3.6e-05
3754	0
3766	0
3778	0
3790	0
3802	0
3814	0
3826	0
3838	0
