Infrared Spectrum: 1,3-Diphenyl-2-buten-1-one
Formula: C 16 H 14 O
CAS: 495-45-4
State: gas
Origin: EPA-IR VAPOR PHASE LIBRARY
1/CM	ABSORBANCE
549.8	0.003366
559.445	0.006076
569.09	0.005246
578.734	0.002416
588.379	0.001856
598.024	0.002086
607.669	0.001516
617.313	0.001636
626.958	0.001446
636.603	0.001916
646.248	0.002796
655.893	0.004916
665.537	0.008456
675.182	0.011576
684.827	0.016896
694.472	0.023986
704.116	0.016446
713.761	0.008346
723.406	0.006316
733.051	0.007966
742.695	0.014126
752.34	0.019336
761.985	0.012496
771.63	0.006326
781.275	0.003946
790.919	0.002666
800.564	0.002076
810.209	0.001806
819.854	0.001686
829.498	0.002096
839.143	0.002986
848.788	0.006526
858.433	0.007106
868.078	0.004966
877.722	0.003166
887.367	0.002506
897.012	0.002556
906.657	0.002426
916.301	0.002846
925.946	0.003906
935.591	0.006586
945.236	0.013606
954.88	0.012626
964.525	0.005086
974.17	0.002956
983.815	0.002626
993.46	0.002916
1003.1	0.004196
1012.75	0.005906
1022.39	0.014336
1032.04	0.010216
1041.68	0.013596
1051.33	0.007156
1060.97	0.004156
1070.62	0.004236
1080.26	0.003456
1089.91	0.002146
1099.55	0.002086
1109.2	0.001956
1118.84	0.001566
1128.49	0.001336
1138.13	0.001356
1147.78	0.001746
1157.42	0.003056
1167.07	0.004986
1176.71	0.014436
1186.36	0.010256
1196	0.012566
1205.64	0.034506
1215.29	0.029246
1224.93	0.012476
1234.58	0.009586
1244.22	0.009246
1253.87	0.012906
1263.51	0.019646
1273.16	0.022556
1282.8	0.011776
1292.45	0.007396
1302.09	0.006496
1311.74	0.006176
1321.38	0.005596
1331.03	0.006266
1340.67	0.007636
1350.32	0.010226
1359.96	0.008246
1369.61	0.006166
1379.25	0.008016
1388.9	0.007696
1398.54	0.004736
1408.18	0.003856
1417.83	0.004066
1427.47	0.005016
1437.12	0.007176
1446.76	0.013066
1456.41	0.008256
1466.05	0.004486
1475.7	0.004016
1485.34	0.006066
1494.99	0.008156
1504.63	0.004226
1514.28	0.003366
1523.92	0.003496
1533.57	0.004026
1543.21	0.004806
1552.86	0.006066
1562.5	0.008426
1572.15	0.012276
1581.79	0.016506
1591.44	0.023506
1601.08	0.036416
1610.73	0.042516
1620.37	0.024616
1630.01	0.011526
1639.66	0.007526
1649.3	0.008086
1658.95	0.014436
1668.59	0.033956
1678.24	0.039816
1687.88	0.018616
1697.53	0.008126
1707.17	0.004946
1716.82	0.003206
1726.46	0.002466
1736.11	0.001666
1745.75	0.001446
1755.4	0.001286
1765.04	0.001406
1774.69	0.001376
1784.33	0.001396
1793.98	0.001966
1803.62	0.001936
1813.27	0.001656
1822.91	0.001326
1832.55	0.0010472
1842.2	0.0009277
1851.84	0.0008697
1861.49	0.001086
1871.13	0.001096
1880.78	0.001436
1890.42	0.001696
1900.07	0.001376
1909.71	0.001136
1919.36	0.0010201
1929	0.0010387
1938.65	0.001276
1948.29	0.001656
1957.94	0.001846
1967.58	0.001216
1977.23	0.0007426
1986.87	0.0004981
1996.52	0.0004186
2006.16	0.000398
2015.81	0.0004045
2025.45	0.0003761
2035.1	0.0003585
2044.74	0.0004782
2054.38	0.0004746
2064.03	0.0005283
2073.67	0.0005413
2083.32	0.0004693
2092.96	0.0004168
2102.61	0.0004191
2112.25	0.000405
2121.9	0.0004155
2131.54	0.0003363
2141.19	0.0003325
2150.83	0.0002718
2160.48	0.0002608
2170.12	0.0002555
2179.77	0.000326
2189.41	0.0002667
2199.06	0.0002351
2208.7	0.000319
2218.35	0.0003683
2227.99	0.0003572
2237.64	0.0003415
2247.28	0.0002741
2256.92	0.0003561
2266.57	0.0003052
2276.21	0.0004292
2285.86	0.0003502
2295.5	0.000345
2305.15	0.0003868
2314.79	0.0005901
2324.44	0.0005177
2334.08	0.0004941
2343.73	0.00048
2353.37	0.0003073
2363.02	0.0003944
2372.66	0.0003751
2382.31	0.0003968
2391.95	0.0004397
2401.6	0.0004453
2411.24	0.0005307
2420.89	0.0004425
2430.53	0.0003792
2440.18	0.0003976
2449.82	0.0003905
2459.47	0.0004364
2469.11	0.0002834
2478.75	0.0004768
2488.4	0.0003072
2498.04	0.0002804
2507.69	0.0003156
2517.33	0.0003522
2526.98	0.0002679
2536.62	0.0003239
2546.27	0.0003822
2555.91	0.0003397
2565.56	0.0003397
2575.2	0.0003641
2584.85	0.0004241
2594.49	0.0003464
2604.14	0.000335
2613.78	0.0003969
2623.43	0.0003482
2633.07	0.0003744
2642.72	0.0004109
2652.36	0.0003605
2662.01	0.0004027
2671.65	0.0003398
2681.29	0.0002613
2690.94	0.0003466
2700.58	0.0002933
2710.23	0.000373
2719.87	0.0003184
2729.52	0.0004113
2739.16	0.0003862
2748.81	0.0005078
2758.45	0.0003941
2768.1	0.0003107
2777.74	0.0004138
2787.39	0.0005068
2797.03	0.0005487
2806.68	0.0005783
2816.32	0.0005714
2825.97	0.0006192
2835.61	0.0007598
2845.26	0.0010015
2854.9	0.001186
2864.55	0.001386
2874.19	0.001336
2883.84	0.001276
2893.48	0.001336
2903.12	0.001486
2912.77	0.001966
2922.41	0.003216
2932.06	0.003866
2941.7	0.003276
2951.35	0.002616
2960.99	0.002386
2970.64	0.002026
2980.28	0.001926
2989.93	0.002166
2999.57	0.002446
3009.22	0.003216
3018.86	0.004846
3028.51	0.008136
3038.15	0.010286
3047.8	0.007796
3057.44	0.010456
3067.09	0.019206
3076.73	0.015966
3086.38	0.012306
3096.02	0.008536
3105.67	0.005326
3115.31	0.002616
3124.95	0.001566
3134.6	0.0010517
3144.24	0.0009545
3153.89	0.0009779
3163.53	0.0007095
3173.18	0.0006133
3182.82	0.0005562
3192.47	0.0003233
3202.11	0.0004536
3211.76	0.000428
3221.4	0.0004593
3231.05	0.0004044
3240.69	0.0004195
3250.34	0.000318
3259.98	0.0003648
3269.63	0.0004095
3279.27	0.0002948
3288.92	0.0003945
3298.56	0.0005104
3308.21	0.0003878
3317.85	0.0006025
3327.49	0.0008185
3337.14	0.0007979
3346.78	0.0007546
3356.43	0.0004342
3366.07	0.000488
3375.72	0.0003696
3385.36	0.0002751
3395.01	0.0003397
3404.65	0.0003721
3414.3	0.0002794
3423.94	0.0003493
3433.59	0.0002792
3443.23	0.0002118
3452.88	0.0002096
3462.52	0.0002267
3472.17	0.0002679
3481.81	0.0002374
3491.46	0.0002161
3501.1	0.000408
3510.75	0.00015179
3520.39	0.0001961
3530.04	0.0004244
3539.68	0.0002122
3549.32	0.000342
3558.97	0.0001695
3568.61	0.00015221
3578.26	0.000212
3587.9	0.0003887
3597.55	0.0004386
3607.19	0.0001871
3616.84	0.0003746
3626.48	0.0003173
3636.13	0.0002793
3645.77	0.000353
3655.42	0.0003551
3665.06	0.0002491
3674.71	0.0002618
3684.35	0.0002114
3694	0.0004693
3703.64	0.0004823
3713.29	0.0002763
3722.93	0.0003849
3732.58	0.000491
3742.22	0.0002734
3751.86	0.000231
3761.51	0.0004891
3771.15	0.000311
3780.8	0.000242
3790.44	0.0002386
3800.09	0.0001754
3809.73	0.0002679
3819.38	0.00013229
3829.02	0.00048
3838.67	0.0002962
3848.31	0.0004105
3857.96	0.0002452
3867.6	0.0003104
3877.25	0.000354
3886.89	0.0003026
3896.54	0.0004035
3906.18	0.0002692
3915.83	0.0004489
3925.47	0.0003604
3935.12	0.0003329
3944.76	0.0002865
3954.41	0.000342
3964.05	0.000388
3973.69	0.0003576
3983.34	0.0003084
3992.98	0.0004979
