Infrared Spectrum: UREA, 1,3-DIETHYL-1-NITROSO-
Formula: C5 H11 N3 O2
CAS: 49540-32-1
State: LIQUID (NEAT)
Class: COBLENTZ III
Instrument: PERKIN-ELMER 221 (GRATING)
Instrument parameters: FILTERS AT 980 CM ^-^1, GRATING FOR 4000-1428 CM^-^1, NaCl PRISM FOR 1428-650 CM^-^1
Sampling: TRANSMISSION
Path length: CAPILLARY
Resolution: 4
Origin: SOUTHERN RES. INSTITUTE
1/CM	TRANSMITTANCE
614.706	0.59
623.845	0.594
632.983	0.598
642.122	0.618
651.261	0.641
660.399	0.671
669.538	0.711
678.677	0.732
687.815	0.775
696.954	0.801
706.093	0.826
715.231	0.849
724.37	0.855
733.509	0.836
742.647	0.786
751.786	0.845
760.925	0.766
770.063	0.735
779.202	0.815
788.341	0.869
797.479	0.869
806.618	0.683
815.757	0.305
824.895	0.713
834.034	0.847
843.173	0.854
852.311	0.65
861.45	0.771
870.589	0.882
879.727	0.917
888.866	0.924
898.005	0.91
907.143	0.798
916.282	0.779
925.421	0.889
934.56	0.891
943.698	0.889
952.837	0.885
961.976	0.872
971.114	0.845
980.253	0.76
989.392	0.558
998.53	0.297
1007.67	0.201
1016.81	0.33
1025.95	0.635
1035.08	0.728
1044.22	0.588
1053.36	0.418
1062.5	0.599
1071.64	0.761
1080.78	0.792
1089.92	0.726
1099.06	0.682
1108.19	0.782
1117.33	0.825
1126.47	0.826
1135.61	0.791
1144.75	0.578
1153.89	0.586
1163.03	0.452
1172.16	0.144
1181.3	0.276
1190.44	0.584
1199.58	0.65
1208.72	0.716
1217.86	0.792
1227	0.846
1236.14	0.849
1245.27	0.849
1254.41	0.848
1263.55	0.842
1272.69	0.815
1281.83	0.761
1290.97	0.656
1300.11	0.54
1309.25	0.598
1318.38	0.732
1327.52	0.682
1336.66	0.457
1345.8	0.522
1354.94	0.647
1364.08	0.686
1373.22	0.716
1382.35	0.656
1391.49	0.718
1400.63	0.779
1409.77	0.786
1418.91	0.577
1428.05	0.56
1437.19	0.613
1446.33	0.389
1455.46	0.295
1464.6	0.338
1473.74	0.276
1482.88	0.127
1492.02	0.141
1501.16	0.263
1510.3	0.441
1519.43	0.326
1528.57	0.141
1537.71	0.114
1546.85	0.25
1555.99	0.503
1565.13	0.675
1574.27	0.742
1583.41	0.817
1592.54	0.836
1601.68	0.844
1610.82	0.839
1619.96	0.834
1629.1	0.835
1638.24	0.839
1647.38	0.836
1656.51	0.822
1665.65	0.795
1674.79	0.761
1683.93	0.718
1693.07	0.638
1702.21	0.434
1711.35	0.18
1720.49	0.112
1729.62	0.125
1738.76	0.156
1747.9	0.292
1757.04	0.575
1766.18	0.699
1775.32	0.82
1784.46	0.845
1793.59	0.864
1802.73	0.874
1811.87	0.881
1821.01	0.884
1830.15	0.887
1839.29	0.893
1848.43	0.895
1857.57	0.898
1866.7	0.901
1875.84	0.902
1884.98	0.903
1894.12	0.902
1903.26	0.901
1912.4	0.9
1921.54	0.902
1930.67	0.904
1939.81	0.904
1948.95	0.903
1958.09	0.901
1967.23	0.902
1976.37	0.901
1985.51	0.9
1994.65	0.899
2003.78	0.899
2012.92	0.901
2022.06	0.902
2031.2	0.902
2040.34	0.902
2049.48	0.899
2058.62	0.896
2067.75	0.895
2076.89	0.896
2086.03	0.898
2095.17	0.899
2104.31	0.899
2113.45	0.898
2122.59	0.897
2131.73	0.897
2140.86	0.896
2150	0.896
2159.14	0.896
2168.28	0.896
2177.42	0.896
2186.56	0.896
2195.7	0.896
2204.83	0.896
2213.97	0.897
2223.11	0.897
2232.25	0.897
2241.39	0.897
2250.53	0.896
2259.67	0.896
2268.81	0.894
2277.94	0.891
2287.08	0.889
2296.22	0.888
2305.36	0.886
2314.5	0.887
2323.64	0.887
2332.78	0.885
2341.91	0.885
2351.05	0.884
2360.19	0.884
2369.33	0.883
2378.47	0.886
2387.61	0.889
2396.75	0.89
2405.89	0.89
2415.02	0.888
2424.16	0.886
2433.3	0.884
2442.44	0.883
2451.58	0.882
2460.72	0.881
2469.86	0.88
2478.99	0.879
2488.13	0.877
2497.27	0.88
2506.41	0.886
2515.55	0.882
2524.69	0.88
2533.83	0.88
2542.97	0.883
2552.1	0.883
2561.24	0.883
2570.38	0.882
2579.52	0.88
2588.66	0.878
2597.8	0.877
2606.94	0.879
2616.08	0.88
2625.21	0.877
2634.35	0.874
2643.49	0.872
2652.63	0.871
2661.77	0.871
2670.91	0.87
2680.05	0.87
2689.18	0.869
2698.32	0.869
2707.46	0.869
2716.6	0.869
2725.74	0.87
2734.88	0.87
2744.02	0.871
2753.16	0.871
2762.29	0.871
2771.43	0.872
2780.57	0.871
2789.71	0.868
2798.85	0.854
2807.99	0.849
2817.13	0.844
2826.26	0.842
2835.4	0.842
2844.54	0.841
2853.68	0.836
2862.82	0.83
2871.96	0.795
2881.1	0.744
2890.24	0.723
2899.37	0.748
2908.51	0.75
2917.65	0.745
2926.79	0.73
2935.93	0.697
2945.07	0.624
2954.21	0.62
2963.34	0.66
2972.48	0.649
2981.62	0.545
2990.76	0.465
2999.9	0.537
3009.04	0.698
3018.18	0.761
3027.32	0.817
3036.45	0.835
3045.59	0.839
3054.73	0.84
3063.87	0.841
3073.01	0.842
3082.15	0.843
3091.29	0.845
3100.42	0.847
3109.56	0.849
3118.7	0.851
3127.84	0.849
3136.98	0.849
3146.12	0.847
3155.26	0.846
3164.4	0.845
3173.53	0.845
3182.67	0.842
3191.81	0.842
3200.95	0.842
3210.09	0.841
3219.23	0.839
3228.37	0.832
3237.5	0.827
3246.64	0.822
3255.78	0.816
3264.92	0.801
3274.06	0.793
3283.2	0.786
3292.34	0.764
3301.48	0.736
3310.61	0.708
3319.75	0.679
3328.89	0.632
3338.03	0.583
3347.17	0.541
3356.31	0.515
3365.45	0.507
3374.58	0.509
3383.72	0.522
3392.86	0.547
3402	0.572
3411.14	0.589
3420.28	0.599
3429.42	0.628
3438.56	0.645
3447.69	0.695
3456.83	0.771
3465.97	0.822
3475.11	0.828
3484.25	0.833
3493.39	0.839
3502.53	0.838
3511.66	0.842
3520.8	0.846
3529.94	0.848
3539.08	0.849
3548.22	0.85
3557.36	0.85
3566.5	0.851
3575.64	0.852
3584.77	0.852
3593.91	0.852
3603.05	0.851
3612.19	0.85
3621.33	0.849
3630.47	0.849
3639.61	0.849
3648.74	0.849
3657.88	0.847
3667.02	0.846
3676.16	0.846
3685.3	0.851
3694.44	0.853
3703.58	0.854
3712.72	0.85
3721.85	0.849
3730.99	0.848
3740.13	0.846
3749.27	0.847
3758.41	0.849
3767.55	0.849
3776.69	0.849
3785.82	0.851
3794.96	0.85
3804.1	0.849
3813.24	0.848
3822.38	0.848
3831.52	0.848
3840.66	0.848
3849.8	0.846
3858.93	0.842
3868.07	0.845
3877.21	0.849
3886.35	0.849
3895.49	0.849
3904.63	0.849
3913.77	0.849
3922.91	0.849
3932.04	0.849
3941.18	0.849
3950.32	0.849
3959.46	0.849
3968.6	0.849
3977.74	0.849
3986.88	0.849
3996.01	0.849
