Infrared Spectrum: 4-(Trifluoromethoxy)phenylacetonitrile
Formula: C 9 H 6 F 3 N O
CAS: 49561-96-8
State: gas
Origin: EPA-IR VAPOR PHASE LIBRARY
1/CM	ABSORBANCE
549.8	0.002466
559.445	0.002309
569.09	0.001711
578.734	0.00121
588.379	0.002039
598.024	0.001882
607.669	0.00403
617.313	0.00527
626.958	0.0058
636.603	0.00411
646.248	0.0028545
655.893	0.0032879
665.537	0.00515
675.182	0.00625
684.827	0.0055
694.472	0.00569
704.116	0.00486
713.761	0.00537
723.406	0.004
733.051	0.0031373
742.695	0.00357
752.34	0.0032934
761.985	0.0028352
771.63	0.00456
781.275	0.00476
790.919	0.00668
800.564	0.01067
810.209	0.01522
819.854	0.01625
829.498	0.01722
839.143	0.01457
848.788	0.0105
858.433	0.00631
868.078	0.0048
877.722	0.0031622
887.367	0.00363
897.012	0.00401
906.657	0.00502
916.301	0.00665
925.946	0.01013
935.591	0.00767
945.236	0.00565
954.88	0.0049
964.525	0.0034453
974.17	0.0031933
983.815	0.0027302
993.46	0.00259197
1003.1	0.002285
1012.75	0.00716
1022.39	0.01417
1032.04	0.0027887
1041.68	0.0034602
1051.33	0.002466
1060.97	0.00458
1070.62	0.00481
1080.26	0.0034883
1089.91	0.00602
1099.55	0.00861
1109.2	0.01072
1118.84	0.01107
1128.49	0.01298
1138.13	0.01556
1147.78	0.02519
1157.42	0.0425
1167.07	0.08426
1176.71	0.15741
1186.36	0.23923
1196	0.21327
1205.64	0.1965
1215.29	0.2896
1224.93	0.2888
1234.58	0.20271
1244.22	0.18554
1253.87	0.27259
1263.51	0.4727
1273.16	0.50114
1282.8	0.21863
1292.45	0.08575
1302.09	0.047
1311.74	0.0296
1321.38	0.02067
1331.03	0.01494
1340.67	0.01119
1350.32	0.00855
1359.96	0.00668
1369.61	0.00553
1379.25	0.00485
1388.9	0.00475
1398.54	0.00508
1408.18	0.00625
1417.83	0.0084
1427.47	0.01358
1437.12	0.00884
1446.76	0.00584
1456.41	0.00521
1466.05	0.00501
1475.7	0.00563
1485.34	0.00783
1494.99	0.01563
1504.63	0.05262
1514.28	0.07611
1523.92	0.02553
1533.57	0.0149
1543.21	0.00894
1552.86	0.00658
1562.5	0.00513
1572.15	0.00572
1581.79	0.00587
1591.44	0.00681
1601.08	0.00733
1610.73	0.00822
1620.37	0.00555
1630.01	0.004
1639.66	0.00369
1649.3	0.0029589
1658.95	0.0030081
1668.59	0.00262648
1678.24	0.002203
1687.88	0.002159
1697.53	0.002203
1707.17	0.001861
1716.82	0.002186
1726.46	0.001976
1736.11	0.002303
1745.75	0.002459
1755.4	0.0027081
1765.04	0.0032435
1774.69	0.00361
1784.33	0.002347
1793.98	0.002207
1803.62	0.002162
1813.27	0.002097
1822.91	0.00208
1832.55	0.002133
1842.2	0.002147
1851.84	0.002018
1861.49	0.00256168
1871.13	0.00266531
1880.78	0.0031319
1890.42	0.0034938
1900.07	0.0034367
1909.71	0.0031825
1919.36	0.002424
1929	0.002032
1938.65	0.001675
1948.29	0.001601
1957.94	0.001837
1967.58	0.001777
1977.23	0.0019
1986.87	0.002153
1996.52	0.002363
2006.16	0.0025278
2015.81	0.0025508
2025.45	0.002462
2035.1	0.002227
2044.74	0.0026156
2054.38	0.0027638
2064.03	0.002419
2073.67	0.002295
2083.32	0.002171
2092.96	0.002375
2102.61	0.002392
2112.25	0.002416
2121.9	0.00258385
2131.54	0.002211
2141.19	0.002113
2150.83	0.002315
2160.48	0.001597
2170.12	0.001943
2179.77	0.002008
2189.41	0.001946
2199.06	0.001762
2208.7	0.0013
2218.35	0.00114
2227.99	0.00107
2237.64	0.00126
2247.28	0.001669
2256.92	0.002083
2266.57	0.002129
2276.21	0.001676
2285.86	0.00136
2295.5	0.0012
2305.15	0.0014
2314.79	0.00144
2324.44	0.00155
2334.08	0.001915
2343.73	0.001865
2353.37	0.00178
2363.02	0.002008
2372.66	0.001874
2382.31	0.002381
2391.95	0.002425
2401.6	0.00257267
2411.24	0.0028371
2420.89	0.0030113
2430.53	0.0035312
2440.18	0.00386
2449.82	0.00371
2459.47	0.0035263
2469.11	0.0030198
2478.75	0.0029661
2488.4	0.0034904
2498.04	0.0031932
2507.69	0.00260903
2517.33	0.0025216
2526.98	0.002074
2536.62	0.002163
2546.27	0.001914
2555.91	0.001626
2565.56	0.001718
2575.2	0.001668
2584.85	0.0014
2594.49	0.001777
2604.14	0.00123
2613.78	0.00124
2623.43	0.00148
2633.07	0.0011
2642.72	0.00101
2652.36	0.00126
2662.01	0.00101
2671.65	0.00106
2681.29	0.00085
2690.94	0.00126
2700.58	0.00101
2710.23	0.00128
2719.87	0.00048
2729.52	0.00121
2739.16	0.00134
2748.81	0.00143
2758.45	0.00095
2768.1	0.001
2777.74	0.00098
2787.39	0.001679
2797.03	0.00148
2806.68	0.00147
2816.32	0.00113
2825.97	0.00139
2835.61	0.001616
2845.26	0.0013
2854.9	0.00152
2864.55	0.00114
2874.19	0.00089
2883.84	0.00155
2893.48	0.00078
2903.12	0.00148
2912.77	0.001644
2922.41	0.00233
2932.06	0.0034801
2941.7	0.0029158
2951.35	0.002008
2960.99	0.00145
2970.64	0.001813
2980.28	0.00079
2989.93	0.0015
2999.57	0.001599
3009.22	0.001836
3018.86	0.002314
3028.51	0.0033789
3038.15	0.0045
3047.8	0.00589
3057.44	0.00488
3067.09	0.0029483
3076.73	0.002394
3086.38	0.002044
3096.02	0.001983
3105.67	0.002107
3115.31	0.00149
3124.95	0.00124
3134.6	0.001845
3144.24	0.00096
3153.89	0.00115
3163.53	0.00077
3173.18	0.00123
3182.82	0.00116
3192.47	0.00119
3202.11	0.001597
3211.76	0.001826
3221.4	0.00059
3231.05	0.0011
3240.69	0.0012
3250.34	0.0012
3259.98	0.00127
3269.63	0.00104
3279.27	0.00115
3288.92	0.00085
3298.56	0.00128
3308.21	0.00083
3317.85	0.00115
3327.49	0.00084
3337.14	0.00152
3346.78	0.00088
3356.43	0.00072
3366.07	8e-05
3375.72	0.00098
3385.36	0.00058
3395.01	0.00075
3404.65	0.00084
3414.3	0.00133
3423.94	0.00063
3433.59	0.0004
3443.23	0.001
3452.88	0.00075
3462.52	0.0008
3472.17	0.00098
3481.81	0.00068
3491.46	0.0005
3501.1	0.00082
3510.75	0.00082
3520.39	0.00111
3530.04	0.00072
3539.68	0.001612
3549.32	0.00096
3558.97	0.00082
3568.61	0.00107
3578.26	0.00051
3587.9	0.00116
3597.55	0.00031
3607.19	0.00101
3616.84	0.00092
3626.48	0.00062
3636.13	0.00038
3645.77	0.00056
3655.42	0.00133
3665.06	0.00088
3674.71	0.00081
3684.35	0.00115
3694	0.00098
3703.64	0.00096
3713.29	0.00121
3722.93	0.00102
3732.58	0.00048
3742.22	0.001575
3751.86	0.00093
3761.51	0.00084
3771.15	0.00068
3780.8	0.00078
3790.44	0.0008
3800.09	0.002028
3809.73	0.00126
3819.38	0.00134
3829.02	0.00086
3838.67	0.00141
3848.31	0.00106
3857.96	0.00083
3867.6	0.00058
3877.25	0.00081
3886.89	0.0015
3896.54	0.00089
3906.18	0.00069
3915.83	0.00088
3925.47	0.00105
3935.12	0.00104
3944.76	0.00107
3954.41	0.00134
3964.05	0.00132
3973.69	0.00063
3983.34	0.00099
3992.98	0.00119
