Infrared Spectrum: p-Nitrophenyloctyl ether
Formula: C 14 H 21 N O 3
CAS: 49562-76-7
State: gas
Origin: EPA-IR VAPOR PHASE LIBRARY
1/CM	ABSORBANCE
549.8	0.0016821
559.445	0.0009969
569.09	0.0015021
578.734	0.0018621
588.379	0.0022921
598.024	0.0035521
607.669	0.0078021
617.313	0.0134721
626.958	0.0120121
636.603	0.0151321
646.248	0.0261621
655.893	0.0252321
665.537	0.0094021
675.182	0.0102321
684.827	0.0148821
694.472	0.0116521
704.116	0.0085621
713.761	0.0074321
723.406	0.0076421
733.051	0.0090621
742.695	0.0186621
752.34	0.0270921
761.985	0.0120021
771.63	0.0066521
781.275	0.0053421
790.919	0.0047821
800.564	0.0049821
810.209	0.0059021
819.854	0.0103321
829.498	0.0223821
839.143	0.0501821
848.788	0.0710921
858.433	0.0890321
868.078	0.0377421
877.722	0.0147921
887.367	0.0100321
897.012	0.0097921
906.657	0.0103621
916.301	0.0090021
925.946	0.0080621
935.591	0.0085921
945.236	0.0110121
954.88	0.0142521
964.525	0.0192121
974.17	0.0231821
983.815	0.0283321
993.46	0.0323121
1003.1	0.0365821
1012.75	0.0441621
1022.39	0.0532921
1032.04	0.0544321
1041.68	0.0449921
1051.33	0.0321021
1060.97	0.0253021
1070.62	0.0218521
1080.26	0.0190621
1089.91	0.0213621
1099.55	0.0327421
1109.2	0.0764821
1118.84	0.0485921
1128.49	0.0161121
1138.13	0.0104121
1147.78	0.0124021
1157.42	0.0272121
1167.07	0.0889221
1176.71	0.0510021
1186.36	0.0280121
1196	0.0251821
1205.64	0.0324721
1215.29	0.0519021
1224.93	0.0836921
1234.58	0.147652
1244.22	0.242742
1253.87	0.337892
1263.51	0.213272
1273.16	0.0915421
1282.8	0.0647721
1292.45	0.0903621
1302.09	0.0727221
1311.74	0.0607721
1321.38	0.0853221
1331.03	0.104252
1340.67	0.220242
1350.32	0.327282
1359.96	0.133392
1369.61	0.0666921
1379.25	0.0456921
1388.9	0.0379521
1398.54	0.0230521
1408.18	0.0167821
1417.83	0.0170321
1427.47	0.0196421
1437.12	0.0258621
1446.76	0.0329621
1456.41	0.0448021
1466.05	0.0665421
1475.7	0.0838821
1485.34	0.0821621
1494.99	0.191622
1504.63	0.123192
1514.28	0.0798621
1523.92	0.132982
1533.57	0.209922
1543.21	0.147722
1552.86	0.0728321
1562.5	0.0470821
1572.15	0.0490821
1581.79	0.0975021
1591.44	0.216562
1601.08	0.182322
1610.73	0.104822
1620.37	0.0483021
1630.01	0.0204521
1639.66	0.0124521
1649.3	0.0095521
1658.95	0.0072621
1668.59	0.0054821
1678.24	0.0043421
1687.88	0.0037821
1697.53	0.0032921
1707.17	0.0029321
1716.82	0.0027621
1726.46	0.0028621
1736.11	0.0031421
1745.75	0.0036621
1755.4	0.0048521
1765.04	0.0049621
1774.69	0.0031521
1784.33	0.0027721
1793.98	0.0028021
1803.62	0.0025721
1813.27	0.0022021
1822.91	0.0018921
1832.55	0.0017721
1842.2	0.0016921
1851.84	0.0019221
1861.49	0.0022821
1871.13	0.0028121
1880.78	0.0035721
1890.42	0.0044421
1900.07	0.0048721
1909.71	0.0045421
1919.36	0.0036621
1929	0.0026421
1938.65	0.0022221
1948.29	0.0023021
1957.94	0.0024621
1967.58	0.0028821
1977.23	0.0027321
1986.87	0.0024921
1996.52	0.0027021
2006.16	0.0030921
2015.81	0.0035021
2025.45	0.0034421
2035.1	0.0035621
2044.74	0.0034121
2054.38	0.0031421
2064.03	0.0028021
2073.67	0.0022821
2083.32	0.0020021
2092.96	0.0021221
2102.61	0.0021721
2112.25	0.0023121
2121.9	0.0022121
2131.54	0.0016121
2141.19	0.0013421
2150.83	0.0012421
2160.48	0.0011421
2170.12	0.0011021
2179.77	0.0011221
2189.41	0.0011121
2199.06	0.0013021
2208.7	0.0015321
2218.35	0.0017721
2227.99	0.0017121
2237.64	0.0013521
2247.28	0.0011821
2256.92	0.0013321
2266.57	0.0015521
2276.21	0.0017721
2285.86	0.0016721
2295.5	0.0015821
2305.15	0.0015221
2314.79	0.0014021
2324.44	0.0015121
2334.08	0.0016821
2343.73	0.0017121
2353.37	0.0018821
2363.02	0.0019521
2372.66	0.0019721
2382.31	0.0021821
2391.95	0.0022821
2401.6	0.0023821
2411.24	0.0024121
2420.89	0.0024021
2430.53	0.0026221
2440.18	0.0032321
2449.82	0.0042921
2459.47	0.0047321
2469.11	0.0039421
2478.75	0.0033521
2488.4	0.0032721
2498.04	0.0036521
2507.69	0.0034721
2517.33	0.0030721
2526.98	0.0029621
2536.62	0.0034121
2546.27	0.0040821
2555.91	0.0041621
2565.56	0.0041621
2575.2	0.0044021
2584.85	0.0042421
2594.49	0.0040521
2604.14	0.0042121
2613.78	0.0041221
2623.43	0.0037321
2633.07	0.0037121
2642.72	0.0037621
2652.36	0.0035421
2662.01	0.0035721
2671.65	0.0037621
2681.29	0.0039821
2690.94	0.0041321
2700.58	0.0043821
2710.23	0.0041921
2719.87	0.0041021
2729.52	0.0045021
2739.16	0.0050121
2748.81	0.0056221
2758.45	0.0056821
2768.1	0.0054421
2777.74	0.0058821
2787.39	0.0064421
2797.03	0.0074221
2806.68	0.0087321
2816.32	0.0109121
2825.97	0.0144121
2835.61	0.0203421
2845.26	0.0323021
2854.9	0.0607621
2864.55	0.0940321
2874.19	0.0904221
2883.84	0.0818321
2893.48	0.0728321
2903.12	0.0813121
2912.77	0.111842
2922.41	0.169412
2932.06	0.237442
2941.7	0.232942
2951.35	0.174272
2960.99	0.139742
2970.64	0.123202
2980.28	0.0663021
2989.93	0.0340821
2999.57	0.0205321
3009.22	0.0141121
3018.86	0.0106021
3028.51	0.0086921
3038.15	0.0072421
3047.8	0.0066921
3057.44	0.0066421
3067.09	0.0069221
3076.73	0.0086921
3086.38	0.0128221
3096.02	0.0105521
3105.67	0.0042721
3115.31	0.0032621
3124.95	0.0024321
3134.6	0.0020121
3144.24	0.0019321
3153.89	0.0017121
3163.53	0.0017421
3173.18	0.0017221
3182.82	0.0017221
3192.47	0.0017821
3202.11	0.0020221
3211.76	0.0019821
3221.4	0.0014621
3231.05	0.0010244
3240.69	0.0005994
3250.34	0.000645
3259.98	0.0004718
3269.63	0.0004931
3279.27	0.0004634
3288.92	0.000447
3298.56	0.0004882
3308.21	0.0004498
3317.85	0.0005473
3327.49	0.0003756
3337.14	0.0004341
3346.78	0.0005615
3356.43	0.0003251
3366.07	0.0003438
3375.72	0.0004415
3385.36	0.000533
3395.01	0.0002964
3404.65	0.0003338
3414.3	0.0003731
3423.94	0.0003777
3433.59	0.0003221
3443.23	0.00012123
3452.88	0.0004218
3462.52	0.0002986
3472.17	0.0001174
3481.81	0.0003222
3491.46	0.0002643
3501.1	6.9548e-05
3510.75	0.0002365
3520.39	0.0003265
3530.04	0.000246
3539.68	0.00014742
3549.32	0.00013362
3558.97	0.0001635
3568.61	9.405e-05
3578.26	0.0003345
3587.9	0.00011639
3597.55	0.000332
3607.19	9.441e-05
3616.84	0.0002737
3626.48	0.0005531
3636.13	0.0003048
3645.77	0.0005145
3655.42	0.0007113
3665.06	0.0006628
3674.71	0.0005067
3684.35	0.0007398
3694	0.0005353
3703.64	0.0004556
3713.29	0.0005024
3722.93	0.000823
3732.58	0.0006332
3742.22	0.0007582
3751.86	0.0005395
3761.51	0.0005766
3771.15	0.0005607
3780.8	0.0005021
3790.44	0.0006748
3800.09	0.0005785
3809.73	0.0005655
3819.38	0.0006131
3829.02	0.0007001
3838.67	0.0006516
3848.31	0.0005276
3857.96	0.0007543
3867.6	0.0005868
3877.25	0.0007509
3886.89	0.0006607
3896.54	0.0005045
3906.18	0.0006672
3915.83	0.0007433
3925.47	0.0008325
3935.12	0.0007468
3944.76	0.0007189
3954.41	0.0006386
3964.05	0.0008196
3973.69	0.000903
3983.34	0.0011721
3992.98	0.0010921
