Infrared Spectrum: Di(p-tolyl)methane
Formula: C 15 H 16
CAS: 4957-14-6
State: gas
Origin: EPA-IR VAPOR PHASE LIBRARY
1/CM	ABSORBANCE
549.8	0.001423
559.445	0.004033
569.09	0.004763
578.734	0.002243
588.379	0.0010209
598.024	0.0008204
607.669	0.0008982
617.313	0.0005052
626.958	0.0005576
636.603	0.000607
646.248	0.0006226
655.893	0.0005644
665.537	0.0004339
675.182	0.00071
684.827	0.0006316
694.472	0.0006307
704.116	0.0007995
713.761	0.000951
723.406	0.001593
733.051	0.003863
742.695	0.008143
752.34	0.008363
761.985	0.005163
771.63	0.005543
781.275	0.009603
790.919	0.016583
800.564	0.017253
810.209	0.011323
819.854	0.006543
829.498	0.003783
839.143	0.003503
848.788	0.003053
858.433	0.002063
868.078	0.001363
877.722	0.0010968
887.367	0.0010724
897.012	0.0011017
906.657	0.0010662
916.301	0.001253
925.946	0.001303
935.591	0.0011205
945.236	0.0011348
954.88	0.0009944
964.525	0.000804
974.17	0.0006899
983.815	0.0006556
993.46	0.0007273
1003.1	0.0007644
1012.75	0.003113
1022.39	0.006723
1032.04	0.001413
1041.68	0.001573
1051.33	0.001613
1060.97	0.0011451
1070.62	0.0010351
1080.26	0.001323
1089.91	0.002233
1099.55	0.002183
1109.2	0.004073
1118.84	0.004063
1128.49	0.002983
1138.13	0.001313
1147.78	0.0007186
1157.42	0.0007057
1167.07	0.0007901
1176.71	0.001603
1186.36	0.003133
1196	0.002573
1205.64	0.003533
1215.29	0.002923
1224.93	0.002043
1234.58	0.003023
1244.22	0.001563
1253.87	0.001293
1263.51	0.0010656
1273.16	0.0010809
1282.8	0.001453
1292.45	0.002023
1302.09	0.002003
1311.74	0.001893
1321.38	0.001973
1331.03	0.001943
1340.67	0.001713
1350.32	0.001523
1359.96	0.001403
1369.61	0.001503
1379.25	0.001993
1388.9	0.002293
1398.54	0.002643
1408.18	0.003473
1417.83	0.004323
1427.47	0.004763
1437.12	0.005333
1446.76	0.005003
1456.41	0.003803
1466.05	0.003553
1475.7	0.003533
1485.34	0.004663
1494.99	0.007873
1504.63	0.019203
1514.28	0.032133
1523.92	0.011933
1533.57	0.004273
1543.21	0.002743
1552.86	0.002203
1562.5	0.001823
1572.15	0.001823
1581.79	0.001623
1591.44	0.001573
1601.08	0.001543
1610.73	0.001943
1620.37	0.002123
1630.01	0.001763
1639.66	0.001303
1649.3	0.0009994
1658.95	0.0009541
1668.59	0.0008361
1678.24	0.0008179
1687.88	0.0006057
1697.53	0.0005185
1707.17	0.0004769
1716.82	0.0004981
1726.46	0.0005883
1736.11	0.0007127
1745.75	0.0007509
1755.4	0.0008281
1765.04	0.0008674
1774.69	0.001373
1784.33	0.002023
1793.98	0.001273
1803.62	0.0006544
1813.27	0.0004997
1822.91	0.0005004
1832.55	0.0004873
1842.2	0.0006546
1851.84	0.0007611
1861.49	0.0009032
1871.13	0.001233
1880.78	0.001773
1890.42	0.002323
1900.07	0.002043
1909.71	0.001263
1919.36	0.0008771
1929	0.0005798
1938.65	0.0004782
1948.29	0.0004276
1957.94	0.0004316
1967.58	0.0004516
1977.23	0.000341
1986.87	0.0003535
1996.52	0.0003246
2006.16	0.0003667
2015.81	0.0003389
2025.45	0.0003579
2035.1	0.00020466
2044.74	0.00025537
2054.38	0.0003017
2064.03	0.0003308
2073.67	0.0003699
2083.32	0.0003329
2092.96	0.0003373
2102.61	0.0003402
2112.25	0.0003211
2121.9	0.0003145
2131.54	0.0003207
2141.19	0.0003336
2150.83	0.00019813
2160.48	0.0002301
2170.12	0.00024331
2179.77	0.00026214
2189.41	0.0002434
2199.06	0.0003015
2208.7	0.00024957
2218.35	0.00025293
2227.99	0.0003051
2237.64	0.0002928
2247.28	0.00018988
2256.92	0.0003131
2266.57	0.0002898
2276.21	0.00025964
2285.86	0.0003244
2295.5	0.0004838
2305.15	0.0006092
2314.79	0.0003552
2324.44	0.0004144
2334.08	0.0004557
2343.73	0.0004392
2353.37	0.0003894
2363.02	0.0003546
2372.66	0.0003722
2382.31	0.000321
2391.95	0.0003127
2401.6	0.0004176
2411.24	0.0003866
2420.89	0.0003284
2430.53	0.0003142
2440.18	0.0004035
2449.82	0.0003321
2459.47	0.0003885
2469.11	0.0003555
2478.75	0.0003152
2488.4	0.0003132
2498.04	0.0003728
2507.69	0.0003679
2517.33	0.0002981
2526.98	0.0004077
2536.62	0.0003438
2546.27	0.0003128
2555.91	0.0003601
2565.56	0.0003979
2575.2	0.0005227
2584.85	0.0004645
2594.49	0.0005606
2604.14	0.0004565
2613.78	0.0004706
2623.43	0.0004543
2633.07	0.000299
2642.72	0.0004345
2652.36	0.0003355
2662.01	0.0003022
2671.65	0.0003095
2681.29	0.0003775
2690.94	0.0004592
2700.58	0.0004094
2710.23	0.0005231
2719.87	0.0006615
2729.52	0.0009859
2739.16	0.001453
2748.81	0.001203
2758.45	0.0007716
2768.1	0.0006985
2777.74	0.0007423
2787.39	0.0007782
2797.03	0.0009193
2806.68	0.0011301
2816.32	0.001563
2825.97	0.001993
2835.61	0.003123
2845.26	0.005033
2854.9	0.007003
2864.55	0.009393
2874.19	0.012163
2883.84	0.011853
2893.48	0.011023
2903.12	0.012533
2912.77	0.018133
2922.41	0.024993
2932.06	0.028373
2941.7	0.018923
2951.35	0.009933
2960.99	0.007233
2970.64	0.007163
2980.28	0.008973
2989.93	0.011723
2999.57	0.015483
3009.22	0.019563
3018.86	0.027523
3028.51	0.028583
3038.15	0.018473
3047.8	0.018043
3057.44	0.015703
3067.09	0.010553
3076.73	0.007433
3086.38	0.006233
3096.02	0.005003
3105.67	0.003503
3115.31	0.002333
3124.95	0.002093
3134.6	0.001733
3144.24	0.0010365
3153.89	0.0006408
3163.53	0.0004025
3173.18	0.0003753
3182.82	0.0003567
3192.47	0.0003966
3202.11	0.00042
3211.76	0.0004031
3221.4	0.0003338
3231.05	0.0003284
3240.69	0.0003135
3250.34	0.0003861
3259.98	0.0004252
3269.63	0.00022386
3279.27	0.0003315
3288.92	0.0003261
3298.56	0.0004659
3308.21	0.00023787
3317.85	0.0002491
3327.49	0.00025206
3337.14	0.00025451
3346.78	0.0003827
3356.43	0.0003743
3366.07	0.0003066
3375.72	0.0003038
3385.36	0.0002999
3395.01	0.0003729
3404.65	0.0003287
3414.3	8.69e-05
3423.94	0.000284
3433.59	0.00019196
3443.23	0.0003742
3452.88	0.0002749
3462.52	0.0001286
3472.17	0.000166086
3481.81	0.000187
3491.46	0.0001196
3501.1	0.0002752
3510.75	0.0003339
3520.39	0.00024503
3530.04	0.0001077
3539.68	0.0001436
3549.32	0.0004035
3558.97	0.000289
3568.61	0.00018574
3578.26	0.00021174
3587.9	0.0002672
3597.55	0.00016017
3607.19	0.00016086
3616.84	0.0003531
3626.48	0.00017451
3636.13	0.00020446
3645.77	0.0003803
3655.42	0.00015714
3665.06	0.0005002
3674.71	0.0003897
3684.35	0.0003279
3694	0.0001381
3703.64	0.0003595
3713.29	0.0002709
3722.93	0.0001286
3732.58	7.07e-05
3742.22	0.0003495
3751.86	0.0004643
3761.51	0.0002966
3771.15	0.00019243
3780.8	0.0004076
3790.44	0.0003626
3800.09	0.0003813
3809.73	0.0002748
3819.38	0.00025138
3829.02	0.000614
3838.67	0.0004509
3848.31	0.000362
3857.96	0.0002887
3867.6	0.0006421
3877.25	0.0004231
3886.89	0.0006371
3896.54	0.0002921
3906.18	0.0005405
3915.83	0.0003264
3925.47	0.0004889
3935.12	0.00025543
3944.76	0.00015637
3954.41	0.00024005
3964.05	0.00021776
3973.69	0.0003063
3983.34	0.0004475
3992.98	0.0003645
