Infrared Spectrum: Phthalan
Formula: C 8 H 8 O
CAS: 496-14-0
State: gas
Instrument: HP-GC/MS/IRD
Origin: NIST Mass Spectrometry Data Center
1/CM	ABSORBANCE
550	0.0003074
562	0.0003799
574	0.000522
586	0.0004843
598	0.0002494
610	0.0001218
622	5.8e-06
634	6.96e-05
646	0.0003132
658	0.0004031
670	0.0005626
682	0.0012528
694	0.0025201
706	0.003857
718	0.0093264
730	0.0197026
742	0.0236785
754	0.0118001
766	0.0031523
778	0.0011078
790	0.0013282
802	0.0023055
814	0.0030769
826	0.0033379
838	0.0029551
850	0.0016182
862	0.0009976
874	0.0008149
886	0.0015834
898	0.0051678
910	0.0108257
922	0.0085492
934	0.0018473
946	0.0009831
958	0.0006931
970	0.0006873
982	0.0008149
994	0.0010295
1006	0.0019517
1018	0.0037062
1030	0.0081548
1042	0.018879
1054	0.0246529
1066	0.0188819
1078	0.0075951
1090	0.0036917
1102	0.0025317
1114	0.0015225
1126	0.0009773
1138	0.0006322
1150	0.0006496
1162	0.0008584
1174	0.0007598
1186	0.0007018
1198	0.0006293
1210	0.0007395
1222	0.0007627
1234	0.0008062
1246	0.001276
1258	0.0022939
1270	0.0021837
1282	0.0009715
1294	0.0004727
1306	0.0004872
1318	0.0008555
1330	0.0010353
1342	0.0015921
1354	0.0041847
1366	0.0069629
1378	0.0049155
1390	0.000928
1402	0.0004988
1414	0.0005104
1426	0.0005394
1438	0.0009309
1450	0.0024563
1462	0.003799
1474	0.004988
1486	0.0034742
1498	0.0011658
1510	0.0005481
1522	0.0005046
1534	0.0003074
1546	0.0003277
1558	0.0005684
1570	0.0005452
1582	0.0010875
1594	0.0013369
1606	0.0011078
1618	0.0006873
1630	0.0003103
1642	0.0002726
1654	0.0006583
1666	0.0005046
1678	0.0003335
1690	0.00029
1702	0.000464
1714	0.0004843
1726	0.0003654
1738	0.0004669
1750	0.0004756
1762	0.0004495
1774	0.0007221
1786	0.0006844
1798	0.0004843
1810	0.000406
1822	0.0006235
1834	0.0006496
1846	0.0006177
1858	0.0006206
1870	0.0005974
1882	0.0006496
1894	0.0008294
1906	0.0007511
1918	0.0004843
1930	0.0007134
1942	0.0011455
1954	0.0011832
1966	0.000783
1978	0.0004292
1990	0.0002581
2002	0.0001914
2014	0.0001798
2026	0.0001624
2038	0.0001392
2050	0.0001392
2062	0.0001218
2074	7.25e-05
2086	6.67e-05
2098	7.54e-05
2110	8.7e-05
2122	5.51e-05
2134	5.51e-05
2146	9.28e-05
2158	5.51e-05
2170	0.0001334
2182	0.0001131
2194	8.41e-05
2206	7.25e-05
2218	8.7e-05
2230	0.0001276
2242	8.12e-05
2254	7.83e-05
2266	0.000116
2278	0.0001334
2290	0.0001218
2302	8.12e-05
2314	7.83e-05
2326	8.12e-05
2338	4.06e-05
2350	0
2362	0
2374	0
2386	0
2398	8.7e-06
2410	1.45e-05
2422	2.61e-05
2434	1.16e-05
2446	4.35e-05
2458	7.25e-05
2470	3.19e-05
2482	2.03e-05
2494	3.77e-05
2506	4.06e-05
2518	5.8e-05
2530	5.51e-05
2542	5.22e-05
2554	8.7e-05
2566	5.8e-05
2578	9.86e-05
2590	0.0001044
2602	0.0001972
2614	0.0002581
2626	0.0002755
2638	0.0004002
2650	0.0004872
2662	0.0005626
2674	0.0006641
2686	0.0007018
2698	0.0005365
2710	0.0004553
2722	0.000493
2734	0.0006438
2746	0.0009831
2758	0.0015225
2770	0.0020938
2782	0.0027318
2794	0.0038686
2806	0.0053708
2818	0.0069165
2830	0.0080127
2842	0.0089117
2854	0.0139519
2866	0.0231855
2878	0.0261754
2890	0.02233
2902	0.0178495
2914	0.0105879
2926	0.0059711
2938	0.0043732
2950	0.0051446
2962	0.0051707
2974	0.0039527
2986	0.0026593
2998	0.0019865
3010	0.0028304
3022	0.0054288
3034	0.0076212
3046	0.0083868
3058	0.0070934
3070	0.0083143
3082	0.0081258
3094	0.0055419
3106	0.0022388
3118	0.0011426
3130	0.0005307
3142	0.000261
3154	0.000261
3166	0.0002088
3178	0.0002523
3190	0.0001479
3202	7.54e-05
3214	5.51e-05
3226	4.35e-05
3238	8.99e-05
3250	6.09e-05
3262	7.83e-05
3274	7.83e-05
3286	8.7e-06
3298	8.99e-05
3310	9.57e-05
3322	4.06e-05
3334	9.28e-05
3346	3.48e-05
3358	5.22e-05
3370	9.28e-05
3382	0.0001015
3394	0.0001015
3406	0.0001131
3418	0.0001247
3430	0.0001363
3442	7.83e-05
3454	0.0001363
3466	0.0001131
3478	0.0001363
3490	0.0001189
3502	9.86e-05
3514	0.0001276
3526	0.0001827
3538	0.0001653
3550	0.0002378
3562	0.000203
3574	0.0001508
3586	0.0002552
3598	0.0001682
3610	0.0002407
3622	0.000174
3634	0.0001247
3646	0.000232
3658	0.000203
3670	0.0002175
3682	0.0001827
3694	0.0001769
3706	0.000203
3718	0.0001653
3730	0.0002233
3742	0.0003016
3754	0.0002668
3766	0.0001798
3778	0.0002349
3790	0.0002378
3802	0.0003161
3814	0.0003161
3826	0.0002291
3838	0.0003683
