Infrared Spectrum: 2,3-Dihydrobenzofuran
Formula: C 8 H 8 O
CAS: 496-16-2
State: gas
Instrument: HP-GC/MS/IRD
Origin: NIST Mass Spectrometry Data Center
1/CM	ABSORBANCE
550	0.0002112
562	0.000144
574	0.0002016
586	0.0008256
598	0.0008928
610	9.6e-05
622	0.0002016
634	0.0003168
646	0.0005472
658	0.0011424
670	0.0017184
682	0.0021504
694	0.003696
706	0.0060768
718	0.0089376
730	0.0249216
742	0.0525216
754	0.0376416
766	0.01896
778	0.004512
790	0.002688
802	0.0029472
814	0.0037632
826	0.0061536
838	0.0115392
850	0.0156096
862	0.0122688
874	0.005376
886	0.0036192
898	0.0045216
910	0.0060192
922	0.0089376
934	0.012768
946	0.0146784
958	0.0115584
970	0.0158688
982	0.0383616
994	0.0387456
1006	0.0224832
1018	0.0122784
1030	0.0047904
1042	0.0019968
1054	0.002016
1066	0.0024576
1078	0.0043296
1090	0.0069312
1102	0.0064896
1114	0.0032256
1126	0.0026304
1138	0.0040032
1150	0.007248
1162	0.01176
1174	0.0112704
1186	0.0074112
1198	0.0082848
1210	0.0288384
1222	0.080304
1234	0.0939456
1246	0.0436896
1258	0.0141408
1270	0.004848
1282	0.0039264
1294	0.0049536
1306	0.0071424
1318	0.0081216
1330	0.0069696
1342	0.0037728
1354	0.0037344
1366	0.0036864
1378	0.0032256
1390	0.0029088
1402	0.0018336
1414	0.0015552
1426	0.0024768
1438	0.0081792
1450	0.021024
1462	0.0415872
1474	0.0634848
1486	0.0591648
1498	0.0338592
1510	0.01008
1522	0.00264
1534	0.0018048
1546	0.0021984
1558	0.0026976
1570	0.0043008
1582	0.0125184
1594	0.0243168
1606	0.0274368
1618	0.0126912
1630	0.0040128
1642	0.0014208
1654	0.0012576
1666	0.001248
1678	0.0012
1690	0.0011904
1702	0.0012768
1714	0.0008544
1726	0.0004992
1738	0.000864
1750	0.0016224
1762	0.0022848
1774	0.0020448
1786	0.0011616
1798	0.0010368
1810	0.001056
1822	0.000864
1834	0.000912
1846	0.0009408
1858	0.0009024
1870	0.0016032
1882	0.0019968
1894	0.0016992
1906	0.0011328
1918	0.0017472
1930	0.0014976
1942	0.0005568
1954	0.00048
1966	0.0006144
1978	0.000624
1990	0.0004512
2002	0.0003936
2014	0.0003936
2026	0.000336
2038	0.0002688
2050	0.0003648
2062	0.0005472
2074	0.0005376
2086	0.0003264
2098	9.6e-05
2110	0
2122	0
2134	7.68e-05
2146	0.0001152
2158	0.0001632
2170	0.0001344
2182	9.6e-05
2194	4.8e-05
2206	0.0001152
2218	0.0001536
2230	0.00024
2242	0.00024
2254	0.0002496
2266	0.0001728
2278	0.0002016
2290	0.000384
2302	0.0006048
2314	0.0006144
2326	0.0003552
2338	0.0001632
2350	2.88e-05
2362	2.88e-05
2374	9.6e-05
2386	0.00024
2398	0.0002976
2410	0.0002304
2422	0.000192
2434	0.0003936
2446	0.0007488
2458	0.000864
2470	0.0005568
2482	0.0002016
2494	1.92e-05
2506	8.64e-05
2518	0.0002688
2530	0.0004608
2542	0.0005856
2554	0.0005568
2566	0.0003552
2578	0.0002688
2590	0.0003072
2602	0.0004224
2614	0.0005568
2626	0.000528
2638	0.0004512
2650	0.0003648
2662	0.0002496
2674	0.0002976
2686	0.0004416
2698	0.0008736
2710	0.0010464
2722	0.0007392
2734	0.0003168
2746	0.0003264
2758	0.0004128
2770	0.000624
2782	0.0008832
2794	0.0012384
2806	0.0015648
2818	0.0021024
2830	0.0030048
2842	0.0041856
2854	0.0074976
2866	0.011184
2878	0.014544
2890	0.020448
2902	0.0235872
2914	0.0224448
2926	0.0237792
2938	0.0264384
2950	0.029376
2962	0.0333792
2974	0.0292128
2986	0.0224448
2998	0.0144288
3010	0.0092256
3022	0.0104352
3034	0.015216
3046	0.0182304
3058	0.0177024
3070	0.0184896
3082	0.0167424
3094	0.011568
3106	0.005472
3118	0.0022848
3130	0.000912
3142	0.0005184
3154	0.0004032
3166	0.0003168
3178	0.0003936
3190	0.0003936
3202	0.0002976
3214	0.0002304
3226	0.0001632
3238	0.0001344
3250	2.88e-05
3262	7.68e-05
3274	7.68e-05
3286	5.76e-05
3298	6.72e-05
3310	0.0001056
3322	3.84e-05
3334	0.0001056
3346	5.76e-05
3358	5.76e-05
3370	9.6e-05
3382	8.64e-05
3394	0.0001056
3406	9.6e-05
3418	0.0001152
3430	0.0001248
3442	0.0001056
3454	5.76e-05
3466	0.0001152
3478	0.0001344
3490	0.0001248
3502	9.6e-05
3514	0.0001536
3526	0.000192
3538	0.000144
3550	0.0001824
3562	0.0002592
3574	0.0002016
3586	0.0002592
3598	0.00024
3610	0.0002976
3622	0.0002304
3634	0.0003168
3646	0.0002496
3658	0.0002592
3670	0.0002976
3682	0.0002208
3694	0.0002496
3706	0.0002304
3718	0.00024
3730	0.0002592
3742	0.0003168
3754	0.0003168
3766	0.0002592
3778	0.0003072
3790	0.000288
3802	0.000336
3814	0.0003072
3826	0.0003264
3838	0.0004512
