Infrared Spectrum: Indan
Formula: C 9 H 10
CAS: 496-11-7
State: gas
Instrument: HP-GC/MS/IRD
Origin: NIST Mass Spectrometry Data Center
1/CM	ABSORBANCE
550	0.000329
562	0.00042
574	0.000189
586	0.000287
598	0.000161
610	0.00021
622	0.000266
634	0.000217
646	0.000224
658	0.000168
670	4.9e-05
682	0.000105
694	0.000413
706	0.002177
718	0.010696
730	0.029813
742	0.049014
754	0.031185
766	0.011396
778	0.002289
790	0.000679
802	0.000497
814	0.000476
826	0.000462
838	0.000532
850	0.00063
862	0.000448
874	0.000364
886	0.000378
898	0.000672
910	0.000889
922	0.000826
934	0.000749
946	0.000385
958	0.000154
970	0.000168
982	0.00042
994	0.000651
1006	0.000868
1018	0.002317
1030	0.002555
1042	0.001155
1054	0.000581
1066	0.000854
1078	0.001288
1090	0.001064
1102	0.000413
1114	0.000287
1126	0.000231
1138	0.000392
1150	0.000973
1162	0.000938
1174	0.000322
1186	0.000231
1198	0.000749
1210	0.002226
1222	0.002625
1234	0.001442
1246	0.001141
1258	0.00196
1270	0.002205
1282	0.001435
1294	0.001134
1306	0.001988
1318	0.002065
1330	0.000875
1342	0.000532
1354	0.000665
1366	0.000553
1378	0.000693
1390	0.00084
1402	0.000707
1414	0.000868
1426	0.001918
1438	0.005068
1450	0.010199
1462	0.01169
1474	0.015281
1486	0.013664
1498	0.005859
1510	0.000854
1522	0.000301
1534	0.000126
1546	0.000168
1558	0.00035
1570	0.001092
1582	0.002345
1594	0.002772
1606	0.00203
1618	0.001211
1630	0.000588
1642	0.000364
1654	0.000525
1666	0.000854
1678	0.000763
1690	0.000399
1702	0.000329
1714	0.000259
1726	0.000154
1738	0.000182
1750	0.000322
1762	0.000686
1774	0.00112
1786	0.001155
1798	0.000756
1810	0.000812
1822	0.001085
1834	0.000805
1846	0.000679
1858	0.000854
1870	0.000868
1882	0.001358
1894	0.001876
1906	0.001505
1918	0.000707
1930	0.00105
1942	0.001169
1954	0.000504
1966	7.7e-05
1978	2.8e-05
1990	4.2e-05
2002	8.4e-05
2014	7.7e-05
2026	7e-06
2038	2.8e-05
2050	7.7e-05
2062	0.000112
2074	0.000126
2086	7.7e-05
2098	6.3e-05
2110	4.2e-05
2122	3.5e-05
2134	6.3e-05
2146	8.4e-05
2158	6.3e-05
2170	9.8e-05
2182	5.6e-05
2194	9.1e-05
2206	0.000147
2218	0.000168
2230	0.000112
2242	0.000119
2254	9.1e-05
2266	0.000112
2278	0.000259
2290	0.000434
2302	0.000581
2314	0.000448
2326	0.000217
2338	0.00014
2350	7.7e-05
2362	0
2374	0
2386	0
2398	0
2410	9.8e-05
2422	0.000175
2434	0.00021
2446	0.000126
2458	7e-05
2470	7.7e-05
2482	4.2e-05
2494	2.8e-05
2506	4.2e-05
2518	6.3e-05
2530	7.7e-05
2542	7e-05
2554	7.7e-05
2566	0.000168
2578	0.000294
2590	0.000287
2602	0.000294
2614	0.000364
2626	0.000308
2638	0.000182
2650	0.000182
2662	0.000252
2674	0.000294
2686	0.000245
2698	0.00021
2710	0.000273
2722	0.000364
2734	0.00049
2746	0.0007
2758	0.000819
2770	0.000945
2782	0.001057
2794	0.001232
2806	0.001624
2818	0.002373
2830	0.004676
2842	0.01309
2854	0.02548
2866	0.027923
2878	0.021672
2890	0.021301
2902	0.025109
2914	0.028833
2926	0.033089
2938	0.04305
2950	0.057428
2962	0.07
2974	0.043001
2986	0.016562
2998	0.008533
3010	0.012474
3022	0.020601
3034	0.02303
3046	0.018865
3058	0.020517
3070	0.024752
3082	0.02163
3094	0.009919
3106	0.004767
3118	0.002205
3130	0.001218
3142	0.00091
3154	0.000868
3166	0.000742
3178	0.000602
3190	0.000427
3202	0.000266
3214	0.000196
3226	0.000196
3238	0.000119
3250	8.4e-05
3262	2.8e-05
3274	5.6e-05
3286	7e-06
3298	5.6e-05
3310	7e-05
3322	7.7e-05
3334	7e-05
3346	6.3e-05
3358	1.4e-05
3370	6.3e-05
3382	9.8e-05
3394	4.2e-05
3406	6.3e-05
3418	7.7e-05
3430	0.000154
3442	0.000182
3454	0.000112
3466	9.8e-05
3478	0.000161
3490	0.000119
3502	0.000126
3514	0.00021
3526	0.000182
3538	0.000203
3550	0.000273
3562	0.000259
3574	0.000308
3586	0.000245
3598	0.000224
3610	0.000196
3622	0.000182
3634	0.00021
3646	0.000154
3658	0.000196
3670	0.000154
3682	0.000175
3694	0.000154
3706	0.000168
3718	0.00014
3730	0.000119
3742	0.000175
3754	0.000196
3766	0.00028
3778	0.000308
3790	0.000336
3802	0.000336
3814	0.000322
3826	0.000322
3838	0.000364
