Infrared Spectrum: 1,2-BENZENEDIAMINE, 4-METHYL-
Formula: C7 H10 N2
CAS: 496-72-0
State: SOLID (SPLIT MULL, FLUOROLUBE FOR 3800-1330 AND NUJOL FOR 1330-400 CM ^-^1)
Melting point: 89 C
Class: COBLENTZ III
Instrument: BECKMAN IR-9 (GRATING)
Instrument parameters: ORDER CHANGES AT 670, 1200, 2000 CM^-^1
Sampling: TRANSMISSION
Resolution: 4
Origin: DOW CHEMICAL COMPANY
1/CM	TRANSMITTANCE
395.019	0.591
404.477	0.588
413.935	0.632
423.392	0.708
432.85	0.769
442.308	0.744
451.766	0.313
461.223	0.819
470.681	0.91
480.139	0.919
489.597	0.939
499.055	0.948
508.512	0.957
517.97	0.97
527.428	0.977
536.886	0.982
546.343	0.98
555.801	0.973
565.259	0.936
574.717	0.695
584.175	0.752
593.632	0.935
603.09	0.944
612.548	0.93
622.006	0.911
631.464	0.88
640.921	0.851
650.379	0.81
659.837	0.763
669.295	0.716
678.752	0.673
688.21	0.576
697.668	0.451
707.126	0.338
716.584	0.288
726.041	0.489
735.499	0.592
744.957	0.435
754.415	0.444
763.872	0.492
773.33	0.525
782.788	0.576
792.246	0.607
801.704	0.332
811.161	0.211
820.619	0.257
830.077	0.304
839.535	0.369
848.992	0.435
858.45	0.473
867.908	0.616
877.366	0.502
886.824	0.425
896.281	0.563
905.739	0.655
915.197	0.723
924.655	0.755
934.112	0.6611
943.57	0.695
953.028	0.833
962.486	0.87
971.944	0.882
981.401	0.892
990.859	0.895
1000.32	0.883
1009.77	0.9
1019.23	0.911
1028.69	0.892
1038.15	0.85
1047.61	0.87
1057.06	0.904
1066.52	0.902
1075.98	0.844
1085.44	0.88
1094.89	0.922
1104.35	0.932
1113.81	0.92
1123.27	0.92
1132.73	0.914
1142.18	0.883
1151.64	0.854
1161.1	0.7731
1170.56	0.7201
1180.01	0.913
1189.47	0.933
1198.93	0.929
1208.39	0.919
1217.85	0.895
1227.3	0.872
1236.76	0.725
1246.22	0.414
1255.68	0.836
1265.13	0.883
1274.59	0.832
1284.05	0.6159
1293.51	0.5021
1302.97	0.86
1312.42	0.885
1321.88	0.917
1331.34	0.916
1340.8	0.927
1350.25	0.935
1359.71	0.932
1369.17	0.911
1378.63	0.889
1388.09	0.905
1397.54	0.897
1407	0.889
1416.46	0.877
1425.92	0.819
1435.37	0.704
1444.83	0.68
1454.29	0.688
1463.75	0.725
1473.21	0.77
1482.66	0.795
1492.12	0.783
1501.58	0.6819
1511.04	0.407
1520.49	0.3482
1529.95	0.6771
1539.41	0.797
1548.87	0.804
1558.33	0.775
1567.78	0.707
1577.24	0.639
1586.7	0.591
1596.16	0.476
1605.61	0.636
1615.07	0.491
1624.53	0.477
1633.99	0.551
1643.45	0.7441
1652.9	0.87
1662.36	0.926
1671.82	0.958
1681.28	0.976
1690.73	0.988
1700.19	0.991
1709.65	1.001
1719.11	0.995
1728.57	0.977
1738.02	0.966
1747.48	0.977
1756.94	0.988
1766.4	0.994
1775.85	0.994
1785.31	0.989
1794.77	0.985
1804.23	0.975
1813.69	0.977
1823.14	0.98
1832.6	0.98
1842.06	0.977
1851.52	0.967
1860.97	0.913
1870.43	0.955
1879.89	0.966
1889.35	0.97
1898.81	0.97
1908.26	0.97
1917.72	0.969
1927.18	0.966
1936.64	0.964
1946.1	0.963
1955.55	0.961
1965.01	0.96
1974.47	0.957
1983.93	0.957
1993.38	0.952
2002.84	0.946
2012.3	0.948
2021.76	0.951
2031.22	0.948
2040.67	0.947
2050.13	0.945
2059.59	0.942
2069.05	0.9414
2078.5	0.938
2087.96	0.9368
2097.42	0.935
2106.88	0.933
2116.34	0.933
2125.79	0.932
2135.25	0.93
2144.71	0.9293
2154.17	0.927
2163.62	0.926
2173.08	0.9235
2182.54	0.922
2192	0.92
2201.46	0.9175
2210.91	0.916
2220.37	0.9114
2229.83	0.9042
2239.29	0.8972
2248.74	0.8893
2258.2	0.8863
2267.66	0.885
2277.12	0.8773
2286.58	0.876
2296.03	0.875
2305.49	0.872
2314.95	0.8672
2324.41	0.864
2333.86	0.861
2343.32	0.858
2352.78	0.86
2362.24	0.858
2371.7	0.857
2381.15	0.869
2390.61	0.87
2400.07	0.8689
2409.53	0.867
2418.98	0.8671
2428.44	0.87
2437.9	0.8688
2447.36	0.8639
2456.82	0.863
2466.27	0.8596
2475.73	0.8549
2485.19	0.852
2494.65	0.854
2504.1	0.857
2513.56	0.86
2523.02	0.8626
2532.48	0.8548
2541.94	0.851
2551.39	0.8495
2560.85	0.845
2570.31	0.842
2579.77	0.842
2589.22	0.8404
2598.68	0.838
2608.14	0.836
2617.6	0.833
2627.06	0.8313
2636.51	0.8283
2645.97	0.825
2655.43	0.8159
2664.89	0.811
2674.34	0.8062
2683.8	0.8032
2693.26	0.802
2702.72	0.8006
2712.18	0.7931
2721.63	0.7771
2731.09	0.7844
2740.55	0.789
2750.01	0.785
2759.46	0.783
2768.92	0.782
2778.38	0.7779
2787.84	0.7755
2797.3	0.7709
2806.75	0.7623
2816.21	0.7526
2825.67	0.7402
2835.13	0.7264
2844.58	0.7014
2854.04	0.6609
2863.5	0.6429
2872.96	0.6783
2882.42	0.6793
2891.87	0.6619
2901.33	0.6095
2910.79	0.54
2920.25	0.5492
2929.7	0.5954
2939.16	0.6145
2948.62	0.6315
2958.08	0.6515
2967.54	0.663
2976.99	0.67
2986.45	0.675
2995.91	0.677
3005.37	0.6773
3014.82	0.6395
3024.28	0.5872
3033.74	0.6024
3043.2	0.6613
3052.66	0.6847
3062.11	0.6863
3071.57	0.6908
3081.03	0.7049
3090.49	0.7021
3099.94	0.6941
3109.4	0.685
3118.86	0.675
3128.32	0.663
3137.78	0.6519
3147.23	0.633
3156.69	0.6188
3166.15	0.6019
3175.61	0.5817
3185.06	0.5605
3194.52	0.5417
3203.98	0.5268
3213.44	0.5139
3222.9	0.5019
3232.35	0.4944
3241.81	0.4798
3251.27	0.4665
3260.73	0.4475
3270.18	0.4251
3279.64	0.3942
3289.1	0.3623
3298.56	0.3485
3308.02	0.3846
3317.47	0.5013
3326.93	0.5167
3336.39	0.4756
3345.85	0.3445
3355.3	0.2913
3364.76	0.2026
3374.22	0.0817
3383.68	0.3484
3393.14	0.6141
3402.59	0.6602
3412.05	0.676
3421.51	0.6838
3430.97	0.6884
3440.42	0.691
3449.88	0.6901
3459.34	0.688
3468.8	0.686
3478.26	0.6841
3487.71	0.683
3497.17	0.682
3506.63	0.68
3516.09	0.679
3525.54	0.679
3535	0.677
3544.46	0.675
3553.92	0.672
3563.38	0.672
3572.83	0.6682
3582.29	0.664
3591.75	0.6618
3601.21	0.661
3610.66	0.66
3620.12	0.658
3629.58	0.657
3639.04	0.654
3648.5	0.652
3657.95	0.6486
3667.41	0.648
3676.87	0.6455
3686.33	0.6425
3695.78	0.6395
3705.24	0.638
3714.7	0.633
3724.16	0.63
3733.62	0.627
3743.07	0.6252
3752.53	0.623
3761.99	0.6203
3771.45	0.6173
3780.9	0.616
3790.36	0.614
3799.82	0.616
