Infrared Spectrum: (.alpha.-Bromoisovaleryl)urea
Formula: C 6 H 11 Br N 2 O 2
CAS: 496-67-3
State: gas
Instrument: HP-GC/MS/IRD
Origin: NIST Mass Spectrometry Data Center
1/CM	ABSORBANCE
550	0.0006816
562	0.0001664
574	0.0007456
586	0.0014976
598	0.0011968
610	0.0011936
622	0.001472
634	0.0009696
646	0.0008576
658	0.0011648
670	0.001376
682	0.0013568
694	0.0010688
706	0.0011136
718	0.0015104
730	0.0026464
742	0.003776
754	0.0031552
766	0.001984
778	0.0015008
790	0.0012128
802	0.0013536
814	0.001808
826	0.0023584
838	0.002192
850	0.0018112
862	0.001728
874	0.0015296
886	0.0013952
898	0.0013152
910	0.0012832
922	0.001552
934	0.0017312
946	0.0016384
958	0.001504
970	0.0012672
982	0.0007904
994	0.0005344
1006	0.000432
1018	0.0003392
1030	0.0002944
1042	0.0002752
1054	0.0003296
1066	0.000496
1078	0.0006016
1090	0.000464
1102	0.000576
1114	0.0007424
1126	0.0005856
1138	0.0004224
1150	0.0006176
1162	0.00112
1174	0.0024288
1186	0.003616
1198	0.0027904
1210	0.0012416
1222	0.00096
1234	0.0010336
1246	0.0010784
1258	0.0010912
1270	0.0010784
1282	0.0013856
1294	0.0019552
1306	0.0029216
1318	0.0045376
1330	0.0066944
1342	0.0089312
1354	0.0095968
1366	0.0075488
1378	0.0053536
1390	0.0034752
1402	0.0018368
1414	0.0006528
1426	0.0004256
1438	0.000608
1450	0.0012416
1462	0.0021632
1474	0.0021216
1486	0.0010624
1498	0.0004576
1510	0.0004224
1522	0.0005344
1534	0.0007808
1546	0.0014176
1558	0.0038208
1570	0.0103776
1582	0.0137504
1594	0.0087168
1606	0.003824
1618	0.0018976
1630	0.0012576
1642	0.0011072
1654	0.0014592
1666	0.0024704
1678	0.0039776
1690	0.0061856
1702	0.0139712
1714	0.0289632
1726	0.0302112
1738	0.0180064
1750	0.0101472
1762	0.0051008
1774	0.0023776
1786	0.0012992
1798	0.0006528
1810	0.0003872
1822	0.0002976
1834	0.0002176
1846	0.0001728
1858	0.0001344
1870	0.000112
1882	0.000128
1894	0.0001024
1906	0.000128
1918	0.0001408
1930	0.0001632
1942	0.0001632
1954	0.0001504
1966	0.0001216
1978	9.6e-05
1990	8.64e-05
2002	6.72e-05
2014	7.68e-05
2026	9.28e-05
2038	7.36e-05
2050	8.32e-05
2062	9.28e-05
2074	9.28e-05
2086	0.0001248
2098	8.64e-05
2110	0.0001024
2122	9.92e-05
2134	0.0001152
2146	0.000128
2158	0.0001312
2170	0.0001216
2182	0.0001152
2194	0.000144
2206	0.000192
2218	0.0001824
2230	0.0001728
2242	0.0001632
2254	0.0001376
2266	0.000144
2278	0.0001376
2290	0.0001216
2302	0.0001152
2314	8.96e-05
2326	6.72e-05
2338	7.04e-05
2350	7.04e-05
2362	6.72e-05
2374	6.72e-05
2386	0.0001568
2398	0.0002048
2410	0.0002048
2422	0.0002304
2434	0.0002464
2446	0.0002624
2458	0.0002528
2470	0.0002144
2482	0.000192
2494	0.0002112
2506	0.0001888
2518	0.0001888
2530	0.000176
2542	0.000176
2554	0.0001952
2566	0.0001952
2578	0.0001824
2590	0.0001888
2602	0.000176
2614	0.0002112
2626	0.0001888
2638	0.0002048
2650	0.0002336
2662	0.0002144
2674	0.000208
2686	0.0001984
2698	0.0002144
2710	0.0001856
2722	0.0002048
2734	0.0002752
2746	0.0003488
2758	0.000336
2770	0.0003648
2782	0.000384
2794	0.0004192
2806	0.00048
2818	0.0005184
2830	0.0005792
2842	0.0006592
2854	0.000768
2866	0.0012512
2878	0.0025984
2890	0.0033184
2902	0.0029664
2914	0.0031616
2926	0.0036768
2938	0.0047584
2950	0.0051552
2962	0.0068544
2974	0.011344
2986	0.0084288
2998	0.0033248
3010	0.0012
3022	0.0006336
3034	0.000528
3046	0.0005056
3058	0.0005088
3070	0.0004416
3082	0.0004224
3094	0.0004128
3106	0.000368
3118	0.0003296
3130	0.0003936
3142	0.0003584
3154	0.0004032
3166	0.0003392
3178	0.0003584
3190	0.0003264
3202	0.000352
3214	0.0002048
3226	0.0002016
3238	0.0001792
3250	0.0002048
3262	0.0001536
3274	0.0002048
3286	0.0002368
3298	0.0002048
3310	0.0002368
3322	0.000208
3334	0.000176
3346	0.0002048
3358	0.0002336
3370	0.0003488
3382	0.0006208
3394	0.001104
3406	0.0021792
3418	0.00392
3430	0.0040864
3442	0.0019264
3454	0.0007968
3466	0.000656
3478	0.0007328
3490	0.0009376
3502	0.0015104
3514	0.0026112
3526	0.0044
3538	0.0066848
3550	0.0055872
3562	0.001728
3574	0.0004608
3586	0.00032
3598	0.0002656
3610	0.000192
3622	0.00016
3634	0.000192
3646	0.0001728
3658	0.0001152
3670	0.0001728
3682	9.28e-05
3694	0.0001536
3706	0.000144
3718	0.0001344
3730	0.0001696
3742	0.000144
3754	0.0001696
3766	0.0001952
3778	9.92e-05
3790	0.0001728
3802	0.0001408
3814	0.000128
3826	0.0001536
3838	0.0001344
