Infrared Spectrum: Ethyl 6-chloronicotinate
Formula: C 8 H 8 Cl N O 2
CAS: 49608-01-7
State: gas
Origin: EPA-IR VAPOR PHASE LIBRARY
1/CM	ABSORBANCE
549.8	0.001511
559.445	0.001281
569.09	0.0008543
578.734	0.001651
588.379	0.001961
598.024	0.001461
607.669	0.0003371
617.313	0.001311
626.958	0.001731
636.603	0.001911
646.248	0.001331
655.893	0.0006432
665.537	0.0011581
675.182	0.0008321
684.827	0.0008402
694.472	0.001231
704.116	0.001971
713.761	0.002501
723.406	0.002961
733.051	0.004061
742.695	0.006511
752.34	0.007801
761.985	0.016291
771.63	0.020101
781.275	0.013001
790.919	0.007761
800.564	0.005131
810.209	0.005341
819.854	0.008391
829.498	0.007941
839.143	0.011961
848.788	0.012931
858.433	0.010731
868.078	0.005101
877.722	0.003761
887.367	0.002911
897.012	0.002331
906.657	0.002451
916.301	0.002621
925.946	0.002151
935.591	0.003351
945.236	0.003801
954.88	0.003481
964.525	0.002881
974.17	0.003731
983.815	0.004891
993.46	0.006991
1003.1	0.009141
1012.75	0.018801
1022.39	0.037631
1032.04	0.025771
1041.68	0.012831
1051.33	0.008501
1060.97	0.006711
1070.62	0.007891
1080.26	0.011501
1089.91	0.024181
1099.55	0.062801
1109.2	0.153731
1118.84	0.200291
1128.49	0.151971
1138.13	0.074411
1147.78	0.023971
1157.42	0.016131
1167.07	0.013881
1176.71	0.014171
1186.36	0.009831
1196	0.009451
1205.64	0.009301
1215.29	0.012111
1224.93	0.017291
1234.58	0.026121
1244.22	0.042011
1253.87	0.057271
1263.51	0.124141
1273.16	0.190781
1282.8	0.141931
1292.45	0.116541
1302.09	0.031931
1311.74	0.017141
1321.38	0.011171
1331.03	0.009871
1340.67	0.014401
1350.32	0.021071
1359.96	0.036521
1369.61	0.048391
1379.25	0.026231
1388.9	0.015261
1398.54	0.011461
1408.18	0.009411
1417.83	0.008191
1427.47	0.008421
1437.12	0.011891
1446.76	0.023331
1456.41	0.043271
1466.05	0.031301
1475.7	0.012981
1485.34	0.007501
1494.99	0.005401
1504.63	0.004881
1514.28	0.004611
1523.92	0.004311
1533.57	0.004621
1543.21	0.006711
1552.86	0.013021
1562.5	0.020851
1572.15	0.032421
1581.79	0.068311
1591.44	0.066671
1601.08	0.015891
1610.73	0.006261
1620.37	0.004111
1630.01	0.003651
1639.66	0.003761
1649.3	0.003141
1658.95	0.003931
1668.59	0.004311
1678.24	0.004611
1687.88	0.005221
1697.53	0.006851
1707.17	0.009201
1716.82	0.016121
1726.46	0.041671
1736.11	0.101751
1745.75	0.134291
1755.4	0.074581
1765.04	0.023321
1774.69	0.008511
1784.33	0.006121
1793.98	0.005301
1803.62	0.004651
1813.27	0.003671
1822.91	0.003061
1832.55	0.002661
1842.2	0.002791
1851.84	0.002781
1861.49	0.002611
1871.13	0.002691
1880.78	0.002841
1890.42	0.002771
1900.07	0.002601
1909.71	0.001891
1919.36	0.001791
1929	0.001911
1938.65	0.002121
1948.29	0.002431
1957.94	0.002471
1967.58	0.002531
1977.23	0.002211
1986.87	0.001831
1996.52	0.001581
2006.16	0.001351
2015.81	0.001261
2025.45	0.001301
2035.1	0.001481
2044.74	0.001271
2054.38	0.0011417
2064.03	0.001301
2073.67	0.001301
2083.32	0.001441
2092.96	0.001381
2102.61	0.001201
2112.25	0.001531
2121.9	0.001841
2131.54	0.001531
2141.19	0.001211
2150.83	0.001431
2160.48	0.0009192
2170.12	0.0010725
2179.77	0.0009295
2189.41	0.0009842
2199.06	0.0008794
2208.7	0.0011681
2218.35	0.0011731
2227.99	0.001391
2237.64	0.001401
2247.28	0.001511
2256.92	0.0011569
2266.57	0.0011175
2276.21	0.0011942
2285.86	0.0011603
2295.5	0.001211
2305.15	0.0011666
2314.79	0.0011317
2324.44	0.001281
2334.08	0.0008256
2343.73	0.001241
2353.37	0.001271
2363.02	0.0010618
2372.66	0.001401
2382.31	0.001641
2391.95	0.001611
2401.6	0.0011246
2411.24	0.001411
2420.89	0.001351
2430.53	0.0010145
2440.18	0.001291
2449.82	0.001631
2459.47	0.001381
2469.11	0.001711
2478.75	0.001901
2488.4	0.001441
2498.04	0.001381
2507.69	0.001271
2517.33	0.001251
2526.98	0.001102
2536.62	0.0011234
2546.27	0.001231
2555.91	0.0011181
2565.56	0.0010303
2575.2	0.001291
2584.85	0.001541
2594.49	0.001441
2604.14	0.001301
2613.78	0.00084
2623.43	0.0008704
2633.07	0.0008889
2642.72	0.0011008
2652.36	0.0008503
2662.01	0.0010857
2671.65	0.0007771
2681.29	0.000686
2690.94	0.001105
2700.58	0.001281
2710.23	0.0008192
2719.87	0.0009811
2729.52	0.0009708
2739.16	0.0009801
2748.81	0.001231
2758.45	0.0010399
2768.1	0.0011266
2777.74	0.0009805
2787.39	0.001331
2797.03	0.0010318
2806.68	0.001261
2816.32	0.001651
2825.97	0.001661
2835.61	0.001481
2845.26	0.001421
2854.9	0.002421
2864.55	0.002521
2874.19	0.003091
2883.84	0.004691
2893.48	0.004841
2903.12	0.004511
2912.77	0.005741
2922.41	0.006001
2932.06	0.007031
2941.7	0.010551
2951.35	0.010561
2960.99	0.009211
2970.64	0.011451
2980.28	0.019361
2989.93	0.024091
2999.57	0.014801
3009.22	0.010121
3018.86	0.006351
3028.51	0.004171
3038.15	0.002891
3047.8	0.002451
3057.44	0.001721
3067.09	0.002601
3076.73	0.002501
3086.38	0.002271
3096.02	0.002951
3105.67	0.002581
3115.31	0.002121
3124.95	0.001701
3134.6	0.001471
3144.24	0.0010534
3153.89	0.001291
3163.53	0.001831
3173.18	0.001411
3182.82	0.0012
3192.47	0.0011846
3202.11	0.0010186
3211.76	0.001241
3221.4	0.0010307
3231.05	0.0003069
3240.69	0.0007807
3250.34	0.0008552
3259.98	0.0009166
3269.63	0.001461
3279.27	0.000681
3288.92	0.0006477
3298.56	0.0001417
3308.21	0.0006637
3317.85	0.000935
3327.49	0.0008412
3337.14	0.0010094
3346.78	0.0007693
3356.43	0.0008287
3366.07	0.0007186
3375.72	0.001221
3385.36	0.0007213
3395.01	0.0010223
3404.65	0.0011131
3414.3	0.0008376
3423.94	0.0010108
3433.59	0.0006908
3443.23	0.001271
3452.88	0.001301
3462.52	0.001581
3472.17	0.002091
3481.81	0.001661
3491.46	0.001621
3501.1	0.001221
3510.75	0.0008724
3520.39	0.001361
3530.04	0.0001354
3539.68	0.0006343
3549.32	0.0006595
3558.97	0.0008489
3568.61	0.0010115
3578.26	0.0005131
3587.9	0.0003815
3597.55	0.0009595
3607.19	0.0007856
3616.84	0.0008841
3626.48	0.0010178
3636.13	0.0007473
3645.77	0.0010048
3655.42	0.0005905
3665.06	0.0006543
3674.71	0.000712
3684.35	0.0003825
3694	0.0004183
3703.64	0.0010871
3713.29	0.0003865
3722.93	0.000669
3732.58	0.001201
3742.22	0.0009932
3751.86	0.000479
3761.51	0.0007513
3771.15	0.0011811
3780.8	0.0006712
3790.44	0.0007193
3800.09	0.001401
3809.73	0.00026139
3819.38	0.0006583
3829.02	0.0003487
3838.67	0.0004135
3848.31	0.0010866
3857.96	0.0005753
3867.6	0.0003829
3877.25	0.0005966
3886.89	0.0007345
3896.54	0.0004589
3906.18	0.0008216
3915.83	0.001261
3925.47	0.001541
3935.12	0.0009952
3944.76	0.0009386
3954.41	0.0007904
3964.05	0.0005867
3973.69	0.0007343
3983.34	0.0003531
3992.98	0.0007736
