Infrared Spectrum: 3-Bromochromone
Formula: C 9 H 5 Br O 2
CAS: 49619-82-1
State: gas
Origin: EPA-IR VAPOR PHASE LIBRARY
1/CM	ABSORBANCE
549.8	0.004119
559.445	0.005639
569.09	0.008599
578.734	0.004869
588.379	0.001899
598.024	0.001989
607.669	0.006569
617.313	0.033679
626.958	0.058729
636.603	0.006359
646.248	0.002909
655.893	0.004039
665.537	0.004029
675.182	0.012669
684.827	0.028069
694.472	0.021809
704.116	0.006769
713.761	0.002249
723.406	0.002859
733.051	0.007149
742.695	0.033039
752.34	0.093029
761.985	0.091979
771.63	0.036319
781.275	0.011439
790.919	0.005609
800.564	0.006389
810.209	0.009319
819.854	0.011059
829.498	0.022949
839.143	0.058269
848.788	0.023849
858.433	0.023989
868.078	0.096579
877.722	0.060089
887.367	0.045959
897.012	0.024569
906.657	0.009369
916.301	0.003979
925.946	0.002229
935.591	0.002229
945.236	0.003499
954.88	0.006969
964.525	0.005059
974.17	0.004029
983.815	0.004239
993.46	0.003539
1003.1	0.004919
1012.75	0.013049
1022.39	0.021209
1032.04	0.011889
1041.68	0.010099
1051.33	0.029299
1060.97	0.123889
1070.62	0.168939
1080.26	0.048979
1089.91	0.023809
1099.55	0.046589
1109.2	0.057109
1118.84	0.026109
1128.49	0.013069
1138.13	0.010099
1147.78	0.013379
1157.42	0.023419
1167.07	0.016659
1176.71	0.004989
1186.36	0.004329
1196	0.017209
1205.64	0.041399
1215.29	0.055339
1224.93	0.017479
1234.58	0.011179
1244.22	0.019689
1253.87	0.029009
1263.51	0.011159
1273.16	0.007639
1282.8	0.019069
1292.45	0.063599
1302.09	0.128869
1311.74	0.139039
1321.38	0.102149
1331.03	0.130569
1340.67	0.110479
1350.32	0.078089
1359.96	0.080779
1369.61	0.044919
1379.25	0.021999
1388.9	0.010929
1398.54	0.010119
1408.18	0.006199
1417.83	0.005799
1427.47	0.007519
1437.12	0.015309
1446.76	0.034719
1456.41	0.121489
1466.05	0.243739
1475.7	0.062939
1485.34	0.014179
1494.99	0.007229
1504.63	0.007409
1514.28	0.009699
1523.92	0.006679
1533.57	0.008169
1543.21	0.010489
1552.86	0.014159
1562.5	0.030849
1572.15	0.041159
1581.79	0.023829
1591.44	0.033369
1601.08	0.076149
1610.73	0.147149
1620.37	0.096079
1630.01	0.035869
1639.66	0.020829
1649.3	0.020239
1658.95	0.028439
1668.59	0.072479
1678.24	0.203169
1687.88	0.324369
1697.53	0.223469
1707.17	0.071739
1716.82	0.031649
1726.46	0.018879
1736.11	0.018519
1745.75	0.017169
1755.4	0.011929
1765.04	0.009839
1774.69	0.010249
1784.33	0.008269
1793.98	0.005149
1803.62	0.004989
1813.27	0.006279
1822.91	0.006479
1832.55	0.005189
1842.2	0.005209
1851.84	0.003449
1861.49	0.002549
1871.13	0.002789
1880.78	0.002789
1890.42	0.002279
1900.07	0.002969
1909.71	0.004209
1919.36	0.004039
1929	0.005379
1938.65	0.006779
1948.29	0.004589
1957.94	0.004379
1967.58	0.003749
1977.23	0.002279
1986.87	0.002179
1996.52	0.0016165
2006.16	0.0015584
2015.81	0.0015553
2025.45	0.001699
2035.1	0.002029
2044.74	0.002649
2054.38	0.002839
2064.03	0.001779
2073.67	0.001709
2083.32	0.002119
2092.96	0.001879
2102.61	0.0013809
2112.25	0.0013665
2121.9	0.001769
2131.54	0.002259
2141.19	0.001999
2150.83	0.001849
2160.48	0.002089
2170.12	0.002669
2179.77	0.002399
2189.41	0.002509
2199.06	0.002479
2208.7	0.001859
2218.35	0.001949
2227.99	0.001859
2237.64	0.001819
2247.28	0.002239
2256.92	0.002299
2266.57	0.002489
2276.21	0.001919
2285.86	0.001689
2295.5	0.002369
2305.15	0.002739
2314.79	0.002719
2324.44	0.002449
2334.08	0.001669
2343.73	0.002009
2353.37	0.001859
2363.02	0.002899
2372.66	0.002959
2382.31	0.002079
2391.95	0.001799
2401.6	0.002059
2411.24	0.002659
2420.89	0.002539
2430.53	0.001789
2440.18	0.0012392
2449.82	0.001779
2459.47	0.001879
2469.11	0.001869
2478.75	0.0016204
2488.4	0.002039
2498.04	0.001749
2507.69	0.0012015
2517.33	0.0014617
2526.98	0.001699
2536.62	0.0015957
2546.27	0.001829
2555.91	0.0014619
2565.56	0.0016383
2575.2	0.0015221
2584.85	0.001336
2594.49	0.0014603
2604.14	0.001384
2613.78	0.0013475
2623.43	0.0015328
2633.07	0.001999
2642.72	0.001659
2652.36	0.0015656
2662.01	0.001929
2671.65	0.002169
2681.29	0.002499
2690.94	0.0016066
2700.58	0.001779
2710.23	0.001909
2719.87	0.001879
2729.52	0.0014559
2739.16	0.0011115
2748.81	0.0014918
2758.45	0.001649
2768.1	0.002059
2777.74	0.002039
2787.39	0.0015749
2797.03	0.001729
2806.68	0.001283
2816.32	0.001939
2825.97	0.0015419
2835.61	0.0005816
2845.26	0.000458
2854.9	0.0008836
2864.55	0.001232
2874.19	0.001136
2883.84	0.0008677
2893.48	0.0013464
2903.12	0.0012247
2912.77	0.0010852
2922.41	0.0013545
2932.06	0.001251
2941.7	0.0014941
2951.35	0.0013654
2960.99	0.0008127
2970.64	0.0010235
2980.28	0.00073494
2989.93	0.0009346
2999.57	0.0010931
3009.22	0.002619
3018.86	0.003619
3028.51	0.003329
3038.15	0.003969
3047.8	0.005529
3057.44	0.008419
3067.09	0.010949
3076.73	0.022179
3086.38	0.025049
3096.02	0.015199
3105.67	0.004079
3115.31	0.0015671
3124.95	0.0015522
3134.6	0.001324
3144.24	0.0016365
3153.89	0.0012884
3163.53	0.00072091
3173.18	0.001363
3182.82	0.001649
3192.47	0.00073478
3202.11	0.0012415
3211.76	0.0010219
3221.4	0.00070749
3231.05	0.0011638
3240.69	0.000866
3250.34	0.0011338
3259.98	0.00067326
3269.63	0.000389
3279.27	0.0009578
3288.92	0.0012137
3298.56	0.001635
3308.21	0.0009814
3317.85	0.0013823
3327.49	0.0016346
3337.14	0.002109
3346.78	0.003399
3356.43	0.004729
3366.07	0.004779
3375.72	0.002339
3385.36	0.001689
3395.01	0.0013363
3404.65	0.0009597
3414.3	0.000509
3423.94	0.0007274
3433.59	0.0012061
3443.23	0.00074623
3452.88	0.0008669
3462.52	0.000451
3472.17	0.0008534
3481.81	0.00068282
3491.46	0.000304
3501.1	0.0009896
3510.75	0.000873
3520.39	0.00074457
3530.04	0.001409
3539.68	0.0008038
3549.32	0.000396
3558.97	0.000928
3568.61	0.0005713
3578.26	0.0009173
3587.9	0.000485
3597.55	0.0007823
3607.19	0.0006317
3616.84	0.00067359
3626.48	0.00041
3636.13	0.0005547
3645.77	0.0009229
3655.42	0.0005501
3665.06	0.000519
3674.71	0.0005617
3684.35	0.000274
3694	0.0007353
3703.64	0.0005708
3713.29	0.00070762
3722.93	0.0011922
3732.58	0.00067093
3742.22	0.00028
3751.86	0.000198
3761.51	0.000454
3771.15	0.0009514
3780.8	0.001087
3790.44	0.0007829
3800.09	0.00070432
3809.73	0.000546
3819.38	0.0012337
3829.02	0.0007901
3838.67	0.000354
3848.31	3.5e-05
3857.96	0.00073704
3867.6	0.0005701
3877.25	0.0009302
3886.89	0.000515
3896.54	0.0011317
3906.18	0.0016046
3915.83	0.0010105
3925.47	0.000385
3935.12	0.000796
3944.76	0.0006249
3954.41	0.00071829
3964.05	0.000344
3973.69	0.00073708
3983.34	0.0007855
3992.98	0.0010128
