Infrared Spectrum: ALLYLAMINE, N,N-BIS-(2,3-EPOXYPROPYL)-
Formula: C9 H15 N O2
CAS: 49623-99-6
State: LIQUID (NEAT)
Boiling point: 49 C AT 0.4 mmHg
Class: COBLENTZ III
Instrument: BAIRD (GRATING)
Instrument parameters: NaCl PRISM
Sampling: TRANSMISSION
Path length: 0.003 CM
Resolution: 2
Origin: WYANDOTTE CHEMICALS CORP.
1/CM	TRANSMITTANCE
3954.52	0.9618
3945.64	0.9621
3936.76	0.9623
3927.88	0.9625
3919.01	0.9628
3910.13	0.9628
3901.25	0.963
3892.37	0.9632
3883.49	0.9634
3874.61	0.9638
3865.73	0.9641
3856.85	0.9647
3847.98	0.9654
3839.1	0.9661
3830.22	0.9668
3821.34	0.9678
3812.46	0.969
3803.58	0.9702
3794.7	0.9718
3785.82	0.9736
3776.95	0.9755
3768.07	0.9778
3759.19	0.9803
3750.31	0.9835
3741.43	0.9869
3732.55	0.9897
3723.67	0.9908
3714.79	0.9909
3705.92	0.9904
3697.04	0.9897
3688.16	0.989
3679.28	0.9883
3670.4	0.9881
3661.52	0.9885
3652.64	0.9892
3643.76	0.9908
3634.89	0.9925
3626.01	0.9946
3617.13	0.996
3608.25	0.9963
3599.37	0.9964
3590.49	0.9952
3581.61	0.9933
3572.73	0.9917
3563.86	0.9909
3554.98	0.9901
3546.1	0.9897
3537.22	0.9895
3528.34	0.9893
3519.46	0.989
3510.58	0.9887
3501.71	0.9884
3492.83	0.9882
3483.95	0.9878
3475.07	0.9871
3466.19	0.9867
3457.31	0.9861
3448.43	0.9856
3439.55	0.985
3430.68	0.9845
3421.8	0.9839
3412.92	0.9833
3404.04	0.9828
3395.16	0.9825
3386.28	0.9824
3377.4	0.9825
3368.52	0.9828
3359.65	0.9832
3350.77	0.9834
3341.89	0.9837
3333.01	0.9839
3324.13	0.9839
3315.25	0.9838
3306.37	0.9837
3297.49	0.9836
3288.62	0.9832
3279.74	0.9828
3270.86	0.9825
3261.98	0.9818
3253.1	0.9806
3244.22	0.9789
3235.34	0.9764
3226.46	0.9745
3217.59	0.9734
3208.71	0.9721
3199.83	0.9711
3190.95	0.9693
3182.07	0.9663
3173.19	0.9634
3164.31	0.9604
3155.44	0.9574
3146.56	0.9534
3137.68	0.948
3128.8	0.9373
3119.92	0.9135
3111.04	0.8709
3102.16	0.8424
3093.28	0.8157
3084.41	0.6905
3075.53	0.6243
3066.65	0.5577
3057.77	0.4908
3048.89	0.4577
3040.01	0.4982
3031.13	0.559
3022.25	0.5175
3013.38	0.3988
3004.5	0.2796
2995.62	0.1928
2986.74	0.24
2977.86	0.3316
2968.98	0.4239
2960.1	0.4562
2951.22	0.4221
2942.35	0.353
2933.47	0.2903
2924.59	0.2879
2915.71	0.341
2906.83	0.3962
2897.95	0.442
2889.07	0.4664
2880.19	0.4796
2871.32	0.4853
2862.44	0.4872
2853.56	0.4799
2844.68	0.4064
2835.8	0.3317
2826.92	0.3036
2818.04	0.2851
2809.16	0.2654
2800.29	0.2393
2791.41	0.2301
2782.53	0.2275
2773.65	0.2944
2764.77	0.4113
2755.89	0.5289
2747.01	0.5958
2738.14	0.65
2729.26	0.7295
2720.38	0.7732
2711.5	0.7969
2702.62	0.8184
2693.74	0.8451
2684.86	0.8736
2675.98	0.9037
2667.11	0.9192
2658.23	0.9325
2649.35	0.9442
2640.47	0.9537
2631.59	0.9598
2622.71	0.9608
2613.83	0.9609
2604.95	0.9614
2596.08	0.9634
2587.2	0.9681
2578.32	0.9752
2569.44	0.9829
2560.56	0.9863
2551.68	0.9876
2542.8	0.9886
2533.92	0.9889
2525.05	0.9892
2516.17	0.9895
2507.29	0.9897
2498.41	0.9899
2489.53	0.9906
2480.65	0.9914
2471.77	0.9936
2462.89	0.9971
2454.02	1.001
2445.14	1.0042
2436.26	1.0052
2427.38	1.0041
2418.5	1.0024
2409.62	1
2400.74	0.9972
2391.87	0.9945
2382.99	0.9931
2374.11	0.9918
2365.23	0.992
2356.35	0.9938
2347.47	0.9978
2338.59	1.0036
2329.71	1.0062
2320.84	1.0038
2311.96	0.9998
2303.08	0.9945
2294.2	0.9914
2285.32	0.9883
2276.44	0.9805
2267.56	0.9781
2258.68	0.9771
2249.81	0.9733
2240.93	0.9713
2232.05	0.9715
2223.17	0.9725
2214.29	0.9749
2205.41	0.9775
2196.53	0.9813
2187.65	0.9854
2178.78	0.9902
2169.9	0.9949
2161.02	0.9982
2152.14	1.0003
2143.26	0.9999
2134.38	1.0008
2125.5	1.0017
2116.62	1.0025
2107.75	1.0032
2098.87	1.0033
2089.99	1.0034
2081.11	1.0034
2072.23	1.0033
2063.35	1.0036
2054.47	1.0038
2045.59	1.0042
2036.72	1.0047
2027.84	1.0056
2018.96	1.0065
2010.08	1.0045
2001.2	0.9983
1992.32	0.9905
1983.44	0.981
1974.57	0.9771
1965.69	0.98
1956.81	0.9858
1947.93	0.9924
1939.05	0.9989
1930.17	1.0035
1921.29	1.0031
1912.41	1.0039
1903.54	1.0002
1894.66	0.9977
1885.78	0.9934
1876.9	0.9875
1868.02	0.9809
1859.14	0.9724
1850.26	0.9642
1841.38	0.9609
1832.51	0.963
1823.63	0.9723
1814.75	0.983
1805.87	0.9954
1796.99	1.0047
1788.11	1.0068
1779.23	1.0078
1770.35	1.0084
1761.48	1.0085
1752.6	1.0078
1743.72	1.0068
1734.84	1.0057
1725.96	1.0042
1717.08	1.0031
1708.2	0.9977
1699.32	0.9916
1690.45	0.99
1681.57	0.9851
1672.69	0.9785
1663.81	0.9675
1654.93	0.7813
1646.05	0.6906
1637.17	0.9547
1628.29	0.9607
1619.42	0.9606
1610.54	0.9663
1601.66	0.9723
1592.78	0.9783
1583.9	0.9742
1575.02	0.976
1566.14	0.9719
1557.27	0.9672
1548.39	0.9429
1539.51	0.8991
1530.63	0.8636
1521.75	0.8642
1512.87	0.8683
1503.99	0.8625
1495.11	0.72
1486.24	0.6411
1477.36	0.7349
1468.48	0.5986
1459.6	0.4133
1450.72	0.4287
1441.84	0.4795
1432.96	0.4736
1424.08	0.3294
1415.21	0.521
1406.33	0.6428
1397.45	0.7613
1388.57	0.8378
1379.69	0.7732
1370.81	0.6563
1361.93	0.5379
1353.05	0.4317
1344.18	0.4633
1335.3	0.5444
1326.42	0.6165
1317.54	0.6837
1308.66	0.7172
1299.78	0.7124
1290.9	0.6716
1282.02	0.5907
1273.15	0.4375
1264.27	0.2885
1255.39	0.2169
1246.51	0.4843
1237.63	0.6653
1228.75	0.8149
1219.87	0.8846
1211	0.8974
1202.12	0.8825
1193.24	0.8344
1184.36	0.6993
1175.48	0.5234
1166.6	0.4379
1157.72	0.4538
1148.84	0.4398
1139.97	0.3663
1131.09	0.3553
1122.21	0.542
1113.33	0.5805
1104.45	0.6279
1095.57	0.5726
1086.69	0.4608
1077.81	0.4243
1068.94	0.3548
1060.06	0.4554
1051.18	0.582
1042.3	0.6936
1033.42	0.7341
1024.54	0.7426
1015.66	0.7073
1006.78	0.4458
997.906	0.1753
989.027	0.2091
980.148	0.2772
971.27	0.2658
962.391	0.3377
953.512	0.431
944.633	0.4197
935.755	0.2347
926.876	0.1035
917.997	0.0622
909.119	0.0786
900.24	0.2818
891.361	0.5213
882.482	0.6183
873.604	0.503
864.725	0.2464
855.846	0.1444
846.968	0.0851
838.089	0.1472
829.21	0.118
820.331	0.2031
811.453	0.5126
802.574	0.5099
793.695	0.5265
784.816	0.7976
775.938	0.7668
767.059	0.4442
758.18	0.3996
749.302	0.6024
740.423	0.7861
731.544	0.8757
722.665	0.9334
713.787	0.9452
704.908	0.9506
696.029	0.9394
687.151	0.9113
678.272	0.8769
669.393	0.8495
660.514	0.8277
651.636	0.7927
642.757	0.7813
633.878	0.7714
