Infrared Spectrum: 2,4,6-Triisopropylbenzoic acid
Formula: C16 H24 O2
CAS: 49623-71-4
State: gas
Origin: EPA-IR VAPOR PHASE LIBRARY
1/CM	ABSORBANCE
549.8	0.0052867
559.445	0.0055867
569.09	0.0066667
578.734	0.0092167
588.379	0.0114867
598.024	0.0144367
607.669	0.0130867
617.313	0.0123667
626.958	0.0079967
636.603	0.0039567
646.248	0.0026467
655.893	0.0028867
665.537	0.0020567
675.182	0.0015767
684.827	0.0012167
694.472	0.0015467
704.116	0.0027267
713.761	0.0064067
723.406	0.0093767
733.051	0.0044567
742.695	0.0026267
752.34	0.0029167
761.985	0.0049167
771.63	0.0127267
781.275	0.0115767
790.919	0.0037967
800.564	0.0016067
810.209	0.0014167
819.854	0.0020567
829.498	0.0020467
839.143	0.0026167
848.788	0.0017867
858.433	0.0014367
868.078	0.0037167
877.722	0.0093967
887.367	0.0029067
897.012	0.0014267
906.657	0.0012467
916.301	0.0017667
925.946	0.0031667
935.591	0.0048667
945.236	0.0052267
954.88	0.0028367
964.525	0.0017667
974.17	0.0015567
983.815	0.0013267
993.46	0.0016867
1003.1	0.0022167
1012.75	0.0022267
1022.39	0.0033467
1032.04	0.0059767
1041.68	0.0201367
1051.33	0.0341267
1060.97	0.0359467
1070.62	0.0215967
1080.26	0.0126667
1089.91	0.0127167
1099.55	0.0167767
1109.2	0.0170867
1118.84	0.0202467
1128.49	0.0209567
1138.13	0.0155167
1147.78	0.0128067
1157.42	0.0125067
1167.07	0.0185667
1176.71	0.0209667
1186.36	0.0141867
1196	0.0173467
1205.64	0.0181567
1215.29	0.0119767
1224.93	0.0078667
1234.58	0.0078867
1244.22	0.0086367
1253.87	0.0069967
1263.51	0.0070367
1273.16	0.0072167
1282.8	0.0092167
1292.45	0.0145667
1302.09	0.0183567
1311.74	0.0151367
1321.38	0.0102867
1331.03	0.0083767
1340.67	0.0076967
1350.32	0.0079767
1359.96	0.0098067
1369.61	0.0137267
1379.25	0.0073167
1388.9	0.0099167
1398.54	0.0057767
1408.18	0.0053167
1417.83	0.0070067
1427.47	0.0085867
1437.12	0.0071767
1446.76	0.0070167
1456.41	0.0108867
1466.05	0.0157167
1475.7	0.0107067
1485.34	0.0046067
1494.99	0.0029567
1504.63	0.0023867
1514.28	0.0021067
1523.92	0.0021167
1533.57	0.0026067
1543.21	0.0031967
1552.86	0.0036167
1562.5	0.0059267
1572.15	0.0085267
1581.79	0.0058767
1591.44	0.0071567
1601.08	0.0154167
1610.73	0.0119567
1620.37	0.0036667
1630.01	0.0019067
1639.66	0.0014267
1649.3	0.0013167
1658.95	0.0012167
1668.59	0.0013867
1678.24	0.0016167
1687.88	0.0023567
1697.53	0.0041267
1707.17	0.0062567
1716.82	0.0070767
1726.46	0.0065667
1736.11	0.0097267
1745.75	0.0299367
1755.4	0.101797
1765.04	0.0691567
1774.69	0.0169767
1784.33	0.0144467
1793.98	0.0121767
1803.62	0.0065667
1813.27	0.0038467
1822.91	0.0024267
1832.55	0.0018967
1842.2	0.0015167
1851.84	0.0011267
1861.49	0.0007825
1871.13	0.0006914
1880.78	0.0006751
1890.42	0.0006945
1900.07	0.0005818
1909.71	0.0005492
1919.36	0.0005675
1929	0.0006521
1938.65	0.0003985
1948.29	0.0003054
1957.94	0.0002559
1967.58	0.0003298
1977.23	0.0003249
1986.87	0.000293
1996.52	0.0002988
2006.16	0.000278
2015.81	0.0003325
2025.45	0.0003061
2035.1	0.0002724
2044.74	0.0003616
2054.38	0.000259
2064.03	0.0001975
2073.67	0.0003183
2083.32	0.0003217
2092.96	0.00035
2102.61	0.000336
2112.25	0.0003229
2121.9	0.000315
2131.54	0.0002507
2141.19	0.0002965
2150.83	0.0002253
2160.48	0.0002711
2170.12	0.0003734
2179.77	0.0003561
2189.41	0.0004091
2199.06	0.0004101
2208.7	0.0003781
2218.35	0.0003266
2227.99	0.000432
2237.64	0.0003829
2247.28	0.0002815
2256.92	0.0004057
2266.57	0.0003339
2276.21	0.0003164
2285.86	0.0003141
2295.5	0.0003607
2305.15	0.0003506
2314.79	0.0003307
2324.44	0.000309
2334.08	0.0004652
2343.73	0.000371
2353.37	0.0004005
2363.02	0.000442
2372.66	0.0004239
2382.31	0.0004441
2391.95	0.0004251
2401.6	0.0004664
2411.24	0.0003564
2420.89	0.0003805
2430.53	0.0002952
2440.18	0.0003839
2449.82	0.000412
2459.47	0.0003975
2469.11	0.0004646
2478.75	0.0004963
2488.4	0.0005193
2498.04	0.0003214
2507.69	0.0002595
2517.33	0.0002787
2526.98	0.0002509
2536.62	0.0003
2546.27	0.0003466
2555.91	0.0002961
2565.56	0.0004999
2575.2	0.0005247
2584.85	0.0005946
2594.49	0.0005944
2604.14	0.000563
2613.78	0.0005511
2623.43	0.0006107
2633.07	0.0004639
2642.72	0.0004714
2652.36	0.0004637
2662.01	0.0004702
2671.65	0.0004616
2681.29	0.0004908
2690.94	0.000572
2700.58	0.0006267
2710.23	0.0007113
2719.87	0.0011267
2729.52	0.0013767
2739.16	0.0013367
2748.81	0.0011967
2758.45	0.0013667
2768.1	0.0015367
2777.74	0.0012567
2787.39	0.0013067
2797.03	0.0016967
2806.68	0.0021267
2816.32	0.0024967
2825.97	0.0027367
2835.61	0.0030967
2845.26	0.0039267
2854.9	0.0061267
2864.55	0.0101367
2874.19	0.0216167
2883.84	0.0283567
2893.48	0.0213667
2903.12	0.0217267
2912.77	0.0237767
2922.41	0.0254267
2932.06	0.0349267
2941.7	0.0401667
2951.35	0.0350667
2960.99	0.0702567
2970.64	0.117807
2980.28	0.0566567
2989.93	0.0206267
2999.57	0.0113067
3009.22	0.0074067
3018.86	0.0054767
3028.51	0.0045867
3038.15	0.0041167
3047.8	0.0041367
3057.44	0.0046467
3067.09	0.0043867
3076.73	0.0031967
3086.38	0.0026667
3096.02	0.0022767
3105.67	0.0019367
3115.31	0.0016167
3124.95	0.0017267
3134.6	0.0012867
3144.24	0.0014267
3153.89	0.0011167
3163.53	0.0012567
3173.18	0.0013667
3182.82	0.0013467
3192.47	0.0013567
3202.11	0.0014167
3211.76	0.0012667
3221.4	0.0011567
3231.05	0.0007344
3240.69	0.0008001
3250.34	0.0005399
3259.98	0.000452
3269.63	0.0005564
3279.27	0.0003373
3288.92	0.0005144
3298.56	0.0003371
3308.21	0.000261
3317.85	0.0004979
3327.49	0.0002009
3337.14	0.000393
3346.78	0.0004399
3356.43	0.0003685
3366.07	0.0003892
3375.72	0.0003825
3385.36	0.0002842
3395.01	0.0002667
3404.65	0.0003583
3414.3	0.0002853
3423.94	0.0002404
3433.59	0.0003949
3443.23	0.0002683
3452.88	0.0002186
3462.52	0.0004187
3472.17	0.0005958
3481.81	0.0006014
3491.46	0.0009085
3501.1	0.0014467
3510.75	0.0009688
3520.39	0.0009515
3530.04	0.0013167
3539.68	0.0035767
3549.32	0.0279267
3558.97	0.0262067
3568.61	0.0032167
3578.26	0.0011667
3587.9	0.0006642
3597.55	0.0009173
3607.19	0.0017267
3616.84	0.0011367
3626.48	0.0004606
3636.13	0.000445
3645.77	0.0003354
3655.42	0.0003601
3665.06	0.0005535
3674.71	0.0002536
3684.35	0.0005002
3694	0.0003597
3703.64	0.0003477
3713.29	0.0004283
3722.93	0.0002562
3732.58	0.0003011
3742.22	0.0004463
3751.86	0.0003484
3761.51	0
3771.15	0.0002771
3780.8	0.0003424
3790.44	0.0002887
3800.09	0.0004553
3809.73	0.0002459
3819.38	0.0004486
3829.02	0.0005945
3838.67	0.0005129
3848.31	0.0005556
3857.96	0.000338
3867.6	0.000339
3877.25	0.0003219
3886.89	0.0003256
3896.54	0.0004781
3906.18	0.0002997
3915.83	0.0002616
3925.47	0.0003258
3935.12	0.0003637
3944.76	0.0004876
3954.41	0.0005455
3964.05	0.0004644
3973.69	0.0003555
3983.34	0.0004562
3992.98	0.0006621
