Infrared Spectrum: 4-Acetylphenylisocyanate
Formula: C 9 H 7 N O 2
CAS: 49647-20-3
State: gas
Origin: EPA-IR VAPOR PHASE LIBRARY
1/CM	ABSORBANCE
551.7	0.00397
563.274	0.00314
574.848	0.00497
586.421	0.00859
597.995	0.00958
609.569	0.00644
621.143	0.00457
632.717	0.00347
644.291	0.00283
655.864	0.00309
667.438	0.00385
679.012	0.00369
690.586	0.00271
702.16	0.00216
713.734	0.00182
725.307	0.00167
736.881	0.00169
748.455	0.00156
760.029	0.00194
771.603	0.00233
783.177	0.00366
794.75	0.00378
806.324	0.00395
817.898	0.00732
829.472	0.01223
841.046	0.01392
852.619	0.00732
864.193	0.00301
875.767	0.00173
887.341	0.00137
898.915	0.00125
910.489	0.00119
922.062	0.0014
933.636	0.00273
945.21	0.00697
956.784	0.00939
968.358	0.00445
979.932	0.00252
991.505	0.00243
1003.08	0.00323
1014.65	0.00544
1026.23	0.00278
1037.8	0.00155
1049.37	0.0015
1060.95	0.002
1072.52	0.00235
1084.1	0.00307
1095.67	0.00624
1107.24	0.01539
1118.82	0.02037
1130.39	0.00996
1141.97	0.00624
1153.54	0.007
1165.11	0.00816
1176.69	0.0079
1188.26	0.00362
1199.83	0.0027
1211.41	0.00428
1222.98	0.00807
1234.56	0.01115
1246.13	0.02774
1257.7	0.05342
1269.28	0.02515
1280.85	0.01201
1292.42	0.0053
1304	0.0047
1315.57	0.00337
1327.15	0.00285
1338.72	0.0039
1350.29	0.00894
1361.87	0.01704
1373.44	0.00876
1385.02	0.00493
1396.59	0.00638
1408.16	0.00761
1419.74	0.00625
1431.31	0.00669
1442.88	0.00664
1454.46	0.00428
1466.03	0.00277
1477.61	0.00262
1489.18	0.00343
1500.75	0.00594
1512.33	0.00956
1523.9	0.01161
1535.48	0.00926
1547.05	0.00483
1558.62	0.0055
1570.2	0.0099
1581.77	0.01492
1593.34	0.03744
1604.92	0.04546
1616.49	0.01828
1628.07	0.0061
1639.64	0.00449
1651.21	0.00486
1662.79	0.00591
1674.36	0.00687
1685.93	0.01328
1697.51	0.03747
1709.08	0.04515
1720.66	0.01648
1732.23	0.00569
1743.8	0.00344
1755.38	0.00288
1766.95	0.00211
1778.53	0.00157
1790.1	0.00139
1801.67	0.00119
1813.25	0.00102
1824.82	0.0009085
1836.39	0.000884
1847.97	0.0009729
1859.54	0.00111
1871.12	0.00134
1882.69	0.00161
1894.26	0.0018
1905.84	0.00179
1917.41	0.00156
1928.99	0.00139
1940.56	0.00123
1952.13	0.00111
1963.71	0.00102
1975.28	0.0009647
1986.85	0.0009409
1998.43	0.000882
2010	0.000907
2021.58	0.00103
2033.15	0.00111
2044.72	0.00117
2056.3	0.00127
2067.87	0.00135
2079.44	0.0016
2091.02	0.0021
2102.59	0.00294
2114.17	0.00405
2125.74	0.00502
2137.31	0.00578
2148.89	0.00636
2160.46	0.00722
2172.04	0.00949
2183.61	0.01449
2195.18	0.0226
2206.76	0.03188
2218.33	0.04081
2229.9	0.05136
2241.48	0.0685
2253.05	0.11663
2264.63	0.23212
2276.2	0.30333
2287.77	0.15759
2299.35	0.07996
2310.92	0.0515
2322.5	0.03342
2334.07	0.02667
2345.64	0.02941
2357.22	0.02814
2368.79	0.01592
2380.36	0.0087
2391.94	0.00584
2403.51	0.00441
2415.09	0.004
2426.66	0.00345
2438.23	0.00259
2449.81	0.00185
2461.38	0.0015
2472.96	0.0012
2484.53	0.00102
2496.1	0.0009861
2507.68	0.00104
2519.25	0.0009834
2530.82	0.0011
2542.4	0.00119
2553.97	0.00131
2565.55	0.0013
2577.12	0.00134
2588.69	0.00132
2600.27	0.00126
2611.84	0.00104
2623.41	0.000904
2634.99	0.0008057
2646.56	0.0008036
2658.14	0.000748
2669.71	0.0007045
2681.28	0.0006626
2692.86	0.0005957
2704.43	0.0006374
2716.01	0.0006957
2727.58	0.0006623
2739.15	0.0006545
2750.73	0.0005509
2762.3	0.0006285
2773.87	0.0006619
2785.45	0.0007134
2797.02	0.0007886
2808.6	0.0008184
2820.17	0.0008621
2831.74	0.0008656
2843.32	0.0009629
2854.89	0.00104
2866.47	0.00104
2878.04	0.0009814
2889.61	0.00103
2901.19	0.00122
2912.76	0.00134
2924.33	0.00167
2935.91	0.002
2947.48	0.00217
2959.06	0.00219
2970.63	0.00217
2982.2	0.00205
2993.78	0.00179
3005.35	0.00223
3016.92	0.00295
3028.5	0.00245
3040.07	0.0025
3051.65	0.00315
3063.22	0.00396
3074.79	0.00407
3086.37	0.00336
3097.94	0.00244
3109.52	0.00179
3121.09	0.00132
3132.66	0.00101
3144.24	0.0008504
3155.81	0.000573
3167.38	0.0005868
3178.96	0.0004934
3190.53	0.0004724
3202.11	0.000449
3213.68	0.0003904
3225.25	0.0004549
3236.83	0.0003069
3248.4	0.0003454
3259.98	0.0004195
3271.55	0.0004133
3283.12	0.0005286
3294.7	0.0005756
3306.27	0.0004555
3317.84	0.0005965
3329.42	0.0007719
3340.99	0.0008427
3352.57	0.00127
3364.14	0.0015
3375.71	0.00213
3387.29	0.00291
3398.86	0.00261
3410.43	0.00218
3422.01	0.00179
3433.58	0.00123
3445.16	0.00101
3456.73	0.000835
3468.3	0.0006862
3479.88	0.0007894
3491.45	0.0006614
3503.03	0.0004996
3514.6	0.000469
3526.17	0.0005473
3537.75	0.0006184
3549.32	0.0005059
3560.89	0.0005268
3572.47	0.0006032
3584.04	0.0006109
3595.62	0.0007128
3607.19	0.0007634
3618.76	0.0008804
3630.34	0.00104
3641.91	0.00101
3653.49	0.00119
3665.06	0.00115
3676.63	0.00141
3688.21	0.00149
3699.78	0.00186
3711.35	0.00188
3722.93	0.00138
3734.5	0.00132
3746.08	0.00102
3757.65	0.0009587
3769.22	0.0009663
3780.8	0.0008595
3792.37	0.00106
3803.94	0.00107
3815.52	0.0008559
3827.09	0.0006933
3838.67	0.0007911
3850.24	0.0008382
3861.81	0.0004405
3873.39	0.0005377
3884.96	0.000666
3896.54	0.0005553
3908.11	0.0004887
3919.68	0.0004884
3931.26	0.0005972
3942.83	0.0004523
3954.4	0.0006186
3965.98	0.0005921
3977.55	0.0006208
3989.13	0.0004901
4000.7	0.0006164
