Infrared Spectrum: Granatane hydrochoride
Formula: C9 H18 Cl N
CAS: 49656-52-2
State: SOLID (KBr DISC, 0.8% WT.)
Class: COBLENTZ III
Instrument: PERKIN-ELMER 157
Sampling: TRANSMISSION
Resolution: 2
Origin: BRITISH PETROLEUM CO. LTD., ENGLAND
1/CM	TRANSMITTANCE
667	0.8577
676	0.8518
685	0.7899
694	0.7477
703	0.8251
712	0.8817
721	0.895
730	0.8983
739	0.8922
748	0.8712
757	0.8884
766	0.8748
775	0.8727
784	0.8966
793	0.8853
802	0.8671
811	0.8079
820	0.7915
829	0.849
838	0.5356
847	0.8716
856	0.8734
865	0.855
874	0.7581
883	0.7465
892	0.636
901	0.5481
910	0.7705
919	0.8367
928	0.8105
937	0.6994
946	0.5157
955	0.7933
964	0.7162
973	0.59
982	0.095
991	0.6154
1000	0.7564
1009	0.7578
1018	0.6801
1027	0.2533
1036	0.7746
1045	0.7669
1054	0.7171
1063	0.4644
1072	0.5305
1081	0.3158
1090	0.4566
1099	0.7252
1108	0.6997
1117	0.6
1126	0.2032
1135	0.4563
1144	0.4975
1153	0.4438
1162	0.7089
1171	0.6935
1180	0.6074
1189	0.7494
1198	0.7505
1207	0.7465
1216	0.7297
1225	0.6539
1234	0.637
1243	0.3598
1252	0.6496
1261	0.5608
1270	0.2863
1279	0.6682
1288	0.6639
1297	0.3437
1306	0.634
1315	0.438
1324	0.5403
1333	0.6177
1342	0.587
1351	0.5317
1360	0.3975
1369	0.3123
1378	0.4462
1387	0.5114
1396	0.4961
1405	0.4589
1414	0.3433
1423	0.1625
1432	0.2393
1441	0.1713
1450	0.0569
1459	0.1929
1468	0.1177
1477	0.0952
1486	0.2132
1495	0.3918
1504	0.6006
1513	0.6307
1522	0.7189
1531	0.7388
1540	0.7466
1549	0.7597
1558	0.7628
1567	0.7639
1576	0.7607
1585	0.7473
1594	0.725
1603	0.6934
1612	0.6795
1621	0.7007
1630	0.7065
1639	0.7081
1648	0.7094
1657	0.711
1666	0.7339
1675	0.7586
1684	0.7641
1693	0.765
1702	0.7649
1711	0.7644
1720	0.7639
1729	0.7635
1738	0.7633
1747	0.7631
1756	0.7629
1765	0.7626
1774	0.7619
1783	0.7583
1792	0.7508
1801	0.7487
1810	0.7477
1819	0.7475
1828	0.7474
1837	0.7467
1846	0.7457
1855	0.7439
1864	0.741
1873	0.7368
1882	0.7328
1891	0.7304
1900	0.7288
1909	0.7273
1918	0.7238
1927	0.7182
1936	0.7109
1945	0.7067
1954	0.7022
1963	0.6996
1972	0.6984
1981	0.6958
1990	0.6895
1999	0.6835
2008	0.679
2017	0.6768
2026	0.6732
2035	0.6664
2044	0.6614
2053	0.6632
2062	0.6643
2071	0.66
2080	0.6562
2089	0.6517
2098	0.6469
2107	0.642
2116	0.6373
2125	0.6342
2134	0.631
2143	0.6246
2152	0.6185
2161	0.6154
2170	0.6123
2179	0.6071
2188	0.6013
2197	0.5949
2206	0.5874
2215	0.5807
2224	0.5756
2233	0.5717
2242	0.5645
2251	0.5518
2260	0.5456
2269	0.5444
2278	0.5436
2287	0.5406
2296	0.5288
2305	0.5107
2314	0.4899
2323	0.4697
2332	0.4417
2341	0.4084
2350	0.387
2359	0.3766
2368	0.3721
2377	0.3704
2386	0.3635
2395	0.3424
2404	0.3235
2413	0.3059
2422	0.2917
2431	0.26
2440	0.2311
2449	0.2175
2458	0.1889
2467	0.1507
2476	0.1453
2485	0.1375
2494	0.1199
2503	0.0985
2512	0.0811
2521	0.0659
2530	0.0454
2539	0.0442
2548	0.0436
2557	0.0429
2566	0.039
2575	0.0308
2584	0.0308
2593	0.0366
2602	0.0428
2611	0.0441
2620	0.0429
2629	0.0387
2638	0.0334
2647	0.0309
2656	0.0299
2665	0.0293
2674	0.0289
2683	0.0289
2692	0.0334
2701	0.0462
2710	0.0727
2719	0.0742
2728	0.0749
2737	0.0754
2746	0.0763
2755	0.0866
2764	0.0917
2773	0.0927
2782	0.0939
2791	0.1009
2800	0.1305
2809	0.1335
2818	0.1346
2827	0.1143
2836	0.0958
2845	0.0886
2854	0.0764
2863	0.0642
2872	0.0521
2881	0.0472
2890	0.0452
2899	0.0401
2908	0.0355
2917	0.0353
2926	0.0367
2935	0.0411
2944	0.0466
2953	0.0839
2962	0.1233
2971	0.1624
2980	0.2013
2989	0.2347
2998	0.2385
3007	0.2432
3016	0.2829
3025	0.3271
3034	0.364
3043	0.3798
3052	0.3957
3061	0.4097
3070	0.4287
3079	0.4358
3088	0.4408
3097	0.4441
3106	0.4454
3115	0.4459
3124	0.4458
3133	0.445
3142	0.4437
3151	0.4407
3160	0.4363
3169	0.4309
3178	0.4246
3187	0.4189
3196	0.4134
3205	0.4096
3214	0.4083
3223	0.4074
3232	0.4066
3241	0.4058
3250	0.4048
3259	0.3998
3268	0.3931
3277	0.3863
3286	0.3766
3295	0.3691
3304	0.3622
3313	0.3517
3322	0.345
3331	0.3356
3340	0.325
3349	0.3182
3358	0.3135
3367	0.3108
3376	0.3086
3385	0.3066
3394	0.3044
3403	0.3027
3412	0.3032
3421	0.3063
3430	0.3157
3439	0.3191
3448	0.3198
3457	0.3228
3466	0.3302
3475	0.3371
3484	0.3441
3493	0.3454
3502	0.3459
3511	0.3491
3520	0.3563
3529	0.363
3538	0.3727
3547	0.3828
3556	0.3887
3565	0.3968
3574	0.4012
3583	0.4036
3592	0.4053
3601	0.406
3610	0.4066
3619	0.4069
3628	0.4071
3637	0.4072
3646	0.407
3655	0.4081
3664	0.4064
3673	0.4058
3682	0.4053
3691	0.4047
3700	0.4038
3709	0.4025
3718	0.4007
3727	0.3982
3736	0.3944
3745	0.3925
3754	0.3913
3763	0.3907
3772	0.39
3781	0.3891
3790	0.3859
3799	0.3815
3808	0.377
3817	0.3742
3826	0.373
3835	0.3727
3844	0.3724
3853	0.3722
3862	0.3717
3871	0.3707
3880	0.3684
3889	0.3653
3898	0.3624
3907	0.36
3916	0.3581
3925	0.3563
3934	0.3541
3943	0.3517
3952	0.3501
3961	0.349
3970	0.3485
3979	0.348
3988	0.3475
3997	0.3473
