Infrared Spectrum: 7-Chloroquinaldine
Formula: C 10 H 8 Cl N
CAS: 4965-33-7
State: gas
Origin: EPA-IR VAPOR PHASE LIBRARY
1/CM	ABSORBANCE
549.8	0.001522
559.445	0.004112
569.09	0.007342
578.734	0.004162
588.379	0.001792
598.024	0.000937
607.669	0.003142
617.313	0.021152
626.958	0.019992
636.603	0.007412
646.248	0.003662
655.893	0.001652
665.537	0.0011723
675.182	0.0011738
684.827	0.001302
694.472	0.001242
704.116	0.0010907
713.761	0.002742
723.406	0.008662
733.051	0.012382
742.695	0.005352
752.34	0.006312
761.985	0.012042
771.63	0.015862
781.275	0.008232
790.919	0.002372
800.564	0.001532
810.209	0.004342
819.854	0.018442
829.498	0.046352
839.143	0.055702
848.788	0.027632
858.433	0.008212
868.078	0.007432
877.722	0.018742
887.367	0.030382
897.012	0.018592
906.657	0.039762
916.301	0.056832
925.946	0.023322
935.591	0.015852
945.236	0.014652
954.88	0.006482
964.525	0.004072
974.17	0.004942
983.815	0.004852
993.46	0.004332
1003.1	0.004492
1012.75	0.003832
1022.39	0.003732
1032.04	0.004702
1041.68	0.006182
1051.33	0.009552
1060.97	0.034522
1070.62	0.048462
1080.26	0.014522
1089.91	0.006822
1099.55	0.004582
1109.2	0.004702
1118.84	0.020692
1128.49	0.048952
1138.13	0.021702
1147.78	0.008192
1157.42	0.002672
1167.07	0.002552
1176.71	0.002482
1186.36	0.006102
1196	0.006172
1205.64	0.011272
1215.29	0.020052
1224.93	0.013932
1234.58	0.010112
1244.22	0.006462
1253.87	0.004062
1263.51	0.002342
1273.16	0.002182
1282.8	0.004232
1292.45	0.010442
1302.09	0.011152
1311.74	0.009232
1321.38	0.020712
1331.03	0.023272
1340.67	0.008522
1350.32	0.008112
1359.96	0.013182
1369.61	0.015952
1379.25	0.015192
1388.9	0.011832
1398.54	0.015732
1408.18	0.020172
1417.83	0.015812
1427.47	0.008682
1437.12	0.010062
1446.76	0.012922
1456.41	0.010792
1466.05	0.008902
1475.7	0.015532
1485.34	0.058452
1494.99	0.117832
1504.63	0.054732
1514.28	0.018052
1523.92	0.014192
1533.57	0.015352
1543.21	0.014592
1552.86	0.014922
1562.5	0.014502
1572.15	0.013932
1581.79	0.023712
1591.44	0.045692
1601.08	0.091922
1610.73	0.141162
1620.37	0.109432
1630.01	0.030292
1639.66	0.010082
1649.3	0.007312
1658.95	0.004752
1668.59	0.004612
1678.24	0.004432
1687.88	0.003462
1697.53	0.003092
1707.17	0.003952
1716.82	0.004162
1726.46	0.002952
1736.11	0.002992
1745.75	0.003442
1755.4	0.003012
1765.04	0.003752
1774.69	0.004382
1784.33	0.003312
1793.98	0.002112
1803.62	0.001842
1813.27	0.001412
1822.91	0.001282
1832.55	0.001312
1842.2	0.0011956
1851.84	0.001372
1861.49	0.001492
1871.13	0.001472
1880.78	0.002482
1890.42	0.003522
1900.07	0.002542
1909.71	0.002062
1919.36	0.002422
1929	0.002862
1938.65	0.002182
1948.29	0.001242
1957.94	0.0011324
1967.58	0.0010853
1977.23	0.0008323
1986.87	0.0007165
1996.52	0.0007124
2006.16	0.0006146
2015.81	0.0007445
2025.45	0.0007488
2035.1	0.0007747
2044.74	0.0008546
2054.38	0.000807
2064.03	0.000896
2073.67	0.000899
2083.32	0.0009223
2092.96	0.0009358
2102.61	0.0011399
2112.25	0.0010034
2121.9	0.0008068
2131.54	0.0008779
2141.19	0.0007015
2150.83	0.0005896
2160.48	0.0004906
2170.12	0.0004279
2179.77	0.0004603
2189.41	0.0005898
2199.06	0.0006017
2208.7	0.0005633
2218.35	0.0004589
2227.99	0.000658
2237.64	0.0009294
2247.28	0.0008848
2256.92	0.0008371
2266.57	0.000891
2276.21	0.000964
2285.86	0.0009604
2295.5	0.0007572
2305.15	0.0007493
2314.79	0.000942
2324.44	0.0009383
2334.08	0.0009256
2343.73	0.0008321
2353.37	0.0008782
2363.02	0.0008446
2372.66	0.0009121
2382.31	0.0010518
2391.95	0.0010914
2401.6	0.0009885
2411.24	0.0011824
2420.89	0.001402
2430.53	0.001522
2440.18	0.0011788
2449.82	0.0009209
2459.47	0.0009148
2469.11	0.0009686
2478.75	0.0010261
2488.4	0.0009547
2498.04	0.0007419
2507.69	0.0007244
2517.33	0.0007674
2526.98	0.0006411
2536.62	0.0010074
2546.27	0.0010638
2555.91	0.0010301
2565.56	0.0008616
2575.2	0.0009024
2584.85	0.001091
2594.49	0.0011376
2604.14	0.0009661
2613.78	0.0008104
2623.43	0.000661
2633.07	0.0006437
2642.72	0.0004935
2652.36	0.0007985
2662.01	0.0006589
2671.65	0.0006633
2681.29	0.0006201
2690.94	0.0005657
2700.58	0.0006304
2710.23	0.0008144
2719.87	0.001167
2729.52	0.001342
2739.16	0.001332
2748.81	0.0009197
2758.45	0.0008742
2768.1	0.0007003
2777.74	0.0008424
2787.39	0.0008656
2797.03	0.0008074
2806.68	0.0011044
2816.32	0.0011705
2825.97	0.001632
2835.61	0.002152
2845.26	0.003072
2854.9	0.004272
2864.55	0.005292
2874.19	0.005332
2883.84	0.005042
2893.48	0.005042
2903.12	0.005292
2912.77	0.006872
2922.41	0.012982
2932.06	0.022322
2941.7	0.016572
2951.35	0.009482
2960.99	0.007782
2970.64	0.005762
2980.28	0.004372
2989.93	0.004462
2999.57	0.005962
3009.22	0.008332
3018.86	0.011382
3028.51	0.012792
3038.15	0.013842
3047.8	0.021472
3057.44	0.032232
3067.09	0.030082
3076.73	0.015372
3086.38	0.007082
3096.02	0.004942
3105.67	0.003942
3115.31	0.002392
3124.95	0.001512
3134.6	0.0011094
3144.24	0.0009291
3153.89	0.0009131
3163.53	0.0010591
3173.18	0.0009345
3182.82	0.0009371
3192.47	0.0007214
3202.11	0.0006732
3211.76	0.000744
3221.4	0.0007443
3231.05	0.0006077
3240.69	0.0007005
3250.34	0.0004749
3259.98	0.0001966
3269.63	0.000226807
3279.27	0.0003368
3288.92	0.0001513
3298.56	0.00029248
3308.21	0.000348
3317.85	0.0001434
3327.49	0.0003569
3337.14	0.00031376
3346.78	0.0004094
3356.43	0.0002038
3366.07	0.0003312
3375.72	0.00027111
3385.36	6.7e-05
3395.01	0.0004276
3404.65	0.0001865
3414.3	0.0001964
3423.94	0.0003614
3433.59	0.00031473
3443.23	0.0001829
3452.88	0.00027691
3462.52	0.00029106
3472.17	0.00030112
3481.81	0.00023618
3491.46	0.0005326
3501.1	0.0003229
3510.75	0.0004566
3520.39	0.0004108
3530.04	0.00028551
3539.68	0.00023661
3549.32	0.0001977
3558.97	3.1e-05
3568.61	0.00032183
3578.26	0.00024038
3587.9	0.0001438
3597.55	0.0001458
3607.19	0.0001954
3616.84	0.000226918
3626.48	5.1e-05
3636.13	0.000396
3645.77	0.000159
3655.42	0.00030104
3665.06	0.0004567
3674.71	0.0001777
3684.35	0.0003402
3694	0.0003811
3703.64	0.0003547
3713.29	0.00030371
3722.93	0.0004679
3732.58	0.00028422
3742.22	0.0003511
3751.86	0.0002716
3761.51	0.00031031
3771.15	0.0002198
3780.8	0.000412
3790.44	0
3800.09	0.00023315
3809.73	0.00024201
3819.38	0.0004059
3829.02	0.000222529
3838.67	0.0004085
3848.31	0.00026261
3857.96	0.00027515
3867.6	0.0003619
3877.25	0.00025979
3886.89	0.00023644
3896.54	0.00030475
3906.18	0.0003733
3915.83	0.00026874
3925.47	0.00031919
3935.12	0.0004138
3944.76	0.0003602
3954.41	0.0004023
3964.05	0.000781
3973.69	0.0008831
3983.34	0.0007927
3992.98	0.0010823
