Infrared Spectrum: trans-2-Methyl-2-butenal
Formula: C 5 H 8 O
CAS: 497-03-0
State: gas
Instrument: HP-GC/MS/IRD
Origin: NIST Mass Spectrometry Data Center
1/CM	ABSORBANCE
550	0.0004256
562	7.84e-05
574	1.4e-05
586	9.24e-05
598	0.0001652
610	0.0003556
622	0.0008288
634	0.0008008
646	0.0007756
658	0.0003416
670	0.0001484
682	0.0001344
694	8.96e-05
706	0.0001792
718	0.0001876
730	0.0002632
742	0.0003304
754	0.000322
766	0.000532
778	0.0011116
790	0.0023268
802	0.0029456
814	0.0030184
826	0.0018116
838	0.0010864
850	0.0006328
862	0.0003444
874	0.0002436
886	0.0002968
898	0.0003416
910	0.00042
922	0.0007392
934	0.0012768
946	0.0017668
958	0.0017976
970	0.0013076
982	0.0008848
994	0.000966
1006	0.0014084
1018	0.0020412
1030	0.0023492
1042	0.0024192
1054	0.0022624
1066	0.0019012
1078	0.001344
1090	0.0008596
1102	0.0006132
1114	0.0004116
1126	0.0002632
1138	0.0002688
1150	0.0002884
1162	0.0003052
1174	0.0003808
1186	0.0006048
1198	0.0013132
1210	0.0030884
1222	0.0035252
1234	0.0026208
1246	0.0007196
1258	0.0004592
1270	0.00035
1282	0.0003556
1294	0.000322
1306	0.0004284
1318	0.0005852
1330	0.0009744
1342	0.0014784
1354	0.0016884
1366	0.0017444
1378	0.0021
1390	0.0029344
1402	0.0026824
1414	0.0021504
1426	0.0012404
1438	0.0011424
1450	0.0010332
1462	0.0009688
1474	0.0008316
1486	0.0007644
1498	0.0007112
1510	0.0006916
1522	0.0006832
1534	0.0006832
1546	0.0006552
1558	0.0005488
1570	0.0006048
1582	0.0007896
1594	0.0009632
1606	0.001106
1618	0.0013104
1630	0.0019768
1642	0.0031752
1654	0.0036708
1666	0.0034832
1678	0.0037212
1690	0.0114884
1702	0.0264852
1714	0.028
1726	0.0125244
1738	0.0025256
1750	0.0014364
1762	0.000952
1774	0.0005292
1786	0.0003528
1798	0.0003724
1810	0.00042
1822	0.000532
1834	0.0005068
1846	0.0004368
1858	0.0003416
1870	0.000252
1882	0.0001848
1894	0.0001092
1906	0.0001204
1918	9.52e-05
1930	0.0001064
1942	0.000112
1954	0.0001148
1966	0.0001232
1978	0.0001456
1990	0.0001316
2002	0.0001428
2014	0.0001988
2026	0.0001652
2038	0.0001372
2050	6.72e-05
2062	5.6e-05
2074	3.92e-05
2086	1.4e-05
2098	3.36e-05
2110	2.8e-05
2122	5.04e-05
2134	3.64e-05
2146	4.76e-05
2158	8.96e-05
2170	0.0001008
2182	0.0001008
2194	4.2e-05
2206	1.4e-05
2218	1.96e-05
2230	8.4e-06
2242	1.68e-05
2254	1.68e-05
2266	3.08e-05
2278	4.48e-05
2290	5.88e-05
2302	4.2e-05
2314	2.8e-05
2326	0
2338	8.4e-06
2350	2.8e-06
2362	2.8e-06
2374	2.8e-06
2386	4.76e-05
2398	5.6e-05
2410	0.0001036
2422	0.0001148
2434	0.0001344
2446	0.00014
2458	0.0001092
2470	7.56e-05
2482	3.92e-05
2494	5.32e-05
2506	7.28e-05
2518	5.6e-05
2530	6.44e-05
2542	5.04e-05
2554	5.32e-05
2566	6.72e-05
2578	0.000126
2590	0.0001372
2602	0.0001372
2614	0.0001428
2626	0.0001596
2638	0.0001932
2650	0.0002744
2662	0.0004172
2674	0.0009128
2686	0.002072
2698	0.0034944
2710	0.0037688
2722	0.0034132
2734	0.0023828
2746	0.0019264
2758	0.001946
2770	0.002142
2782	0.0027972
2794	0.0037912
2806	0.0042112
2818	0.0038864
2830	0.0027216
2842	0.00175
2854	0.0014812
2866	0.0015932
2878	0.001736
2890	0.0017696
2902	0.0020048
2914	0.00273
2926	0.0035952
2938	0.0036876
2950	0.0031584
2962	0.002436
2974	0.0020804
2986	0.0020328
2998	0.0021
3010	0.0023016
3022	0.0022904
3034	0.002086
3046	0.001792
3058	0.001442
3070	0.0010584
3082	0.0007672
3094	0.0005236
3106	0.000406
3118	0.0002632
3130	0.0002352
3142	0.0001736
3154	0.000112
3166	7.84e-05
3178	0.000112
3190	9.52e-05
3202	9.8e-05
3214	4.76e-05
3226	9.8e-05
3238	0.0001008
3250	8.4e-05
3262	7.28e-05
3274	8.4e-05
3286	8.4e-05
3298	7e-05
3310	8.96e-05
3322	0.0001092
3334	7.28e-05
3346	8.96e-05
3358	0.0001624
3370	0.0002436
3382	0.0004284
3394	0.0006216
3406	0.0005712
3418	0.0003248
3430	0.0002128
3442	0.0001344
3454	0.0001344
3466	0.000112
3478	3.64e-05
3490	6.44e-05
3502	0.0001232
3514	8.12e-05
3526	1.12e-05
3538	0.0001036
3550	3.36e-05
3562	6.44e-05
3574	9.24e-05
3586	5.6e-05
3598	0.0001092
3610	6.16e-05
3622	6.72e-05
3634	9.52e-05
3646	3.92e-05
3658	5.88e-05
3670	7e-05
3682	4.2e-05
3694	0.000112
3706	7e-05
3718	8.4e-05
3730	4.48e-05
3742	0.0001092
3754	6.44e-05
3766	5.32e-05
3778	8.12e-05
3790	5.04e-05
3802	0
3814	4.2e-05
3826	0.0001148
3838	6.16e-05
