Infrared Spectrum: Bicyclo[2.2.1]-2-heptanone
Formula: C 7 H 10 O
CAS: 497-38-1
State: gas
Instrument: HP-GC/MS/IRD
Origin: NIST Mass Spectrometry Data Center
1/CM	ABSORBANCE
550	0.0002332
562	0.0001144
574	0.0002816
586	0.0003784
598	0.0002244
610	3.52e-05
622	1.32e-05
634	0.00011
646	9.68e-05
658	0.0001496
670	0.0002948
682	0.0002816
694	0.0002684
706	0.0001408
718	0.000176
730	0.0002992
742	0.0008052
754	0.0011792
766	0.000858
778	0.0005896
790	0.0006644
802	0.0005368
814	0.0002904
826	0.0004136
838	0.0007876
850	0.0010692
862	0.00077
874	0.00055
886	0.0005104
898	0.0006864
910	0.0011
922	0.0014432
934	0.0018876
946	0.0017336
958	0.0009856
970	0.0003652
982	0.000154
994	0.0002552
1006	0.0004048
1018	0.0007216
1030	0.0012056
1042	0.0020108
1054	0.0025124
1066	0.0025124
1078	0.0015972
1090	0.0007832
1102	0.0008052
1114	0.0013728
1126	0.0017292
1138	0.0017424
1150	0.0022132
1162	0.0027852
1174	0.0026048
1186	0.001518
1198	0.0006688
1210	0.000462
1222	0.0005808
1234	0.0008228
1246	0.0008272
1258	0.0008492
1270	0.0011484
1282	0.0016236
1294	0.0019668
1306	0.0016984
1318	0.0010604
1330	0.0004928
1342	0.0002992
1354	0.0002244
1366	0.0002112
1378	0.0002464
1390	0.0005984
1402	0.0015092
1414	0.002376
1426	0.0018524
1438	0.0013728
1450	0.0015708
1462	0.0019492
1474	0.0013464
1486	0.0007436
1498	0.0004092
1510	0.0002464
1522	0.000198
1534	0.0002112
1546	0.0001892
1558	0.0002244
1570	0.0002376
1582	0.0002376
1594	0.0002068
1606	0.000242
1618	0.0003344
1630	0.0004048
1642	0.0004928
1654	0.000506
1666	0.0005016
1678	0.00066
1690	0.0009108
1702	0.0012628
1714	0.0018436
1726	0.0032736
1738	0.00825
1750	0.0250492
1762	0.0413864
1774	0.0377784
1786	0.0152724
1798	0.00451
1810	0.0025916
1822	0.0016456
1834	0.0011264
1846	0.000748
1858	0.0006248
1870	0.0005764
1882	0.0005324
1894	0.0004136
1906	0.000352
1918	0.0003388
1930	0.0003212
1942	0.0002816
1954	0.0002684
1966	0.0002728
1978	0.000264
1990	0.0002332
2002	0.0001892
2014	0.0001804
2026	0.0001848
2038	0.0001804
2050	0.0002024
2062	0.00022
2074	0.00022
2086	0.000198
2098	0.0002068
2110	0.0001804
2122	0.0001716
2134	0.000176
2146	0.000154
2158	0.0001628
2170	0.0001892
2182	0.0001628
2194	0.0001804
2206	0.000198
2218	0.0002068
2230	0.0001936
2242	0.0001848
2254	0.000198
2266	0.0001628
2278	0.000154
2290	0.000132
2302	0.00011
2314	0.0001452
2326	0.0001364
2338	0.0001188
2350	0.0001144
2362	0.00011
2374	7.92e-05
2386	6.16e-05
2398	7.04e-05
2410	8.36e-05
2422	0.0001056
2434	0.0001364
2446	0.000154
2458	0.0001232
2470	8.8e-05
2482	3.08e-05
2494	1.76e-05
2506	8.8e-06
2518	2.2e-05
2530	4.4e-06
2542	3.96e-05
2554	1.32e-05
2566	3.96e-05
2578	4.4e-05
2590	4.4e-05
2602	5.72e-05
2614	4.4e-05
2626	3.52e-05
2638	2.2e-05
2650	1.76e-05
2662	2.2e-05
2674	3.08e-05
2686	2.64e-05
2698	6.16e-05
2710	5.72e-05
2722	0.0001012
2734	8.8e-05
2746	0.00011
2758	0.0001144
2770	0.0001672
2782	0.000176
2794	0.0002156
2806	0.000264
2818	0.0003828
2830	0.000352
2842	0.0004576
2854	0.0010692
2866	0.0029656
2878	0.0063624
2890	0.0084568
2902	0.006622
2914	0.0059224
2926	0.007282
2938	0.0093016
2950	0.0162976
2962	0.0274164
2974	0.0288156
2986	0.0171424
2998	0.0072996
3010	0.0036388
3022	0.0017028
3034	0.0005236
3046	0.000308
3058	0.0002904
3070	0.0002992
3082	0.0003036
3094	0.0002112
3106	0.0001364
3118	5.72e-05
3130	3.96e-05
3142	4.84e-05
3154	6.16e-05
3166	0.00011
3178	0.0001628
3190	0.0001496
3202	0.0001276
3214	6.6e-05
3226	2.64e-05
3238	4.4e-06
3250	1.76e-05
3262	1.32e-05
3274	0
3286	2.64e-05
3298	3.08e-05
3310	3.96e-05
3322	8.8e-05
3334	0.0001276
3346	0.0001364
3358	8.8e-05
3370	7.48e-05
3382	0.000132
3394	0.0001056
3406	0.00011
3418	0.0001364
3430	0.0001716
3442	0.0001276
3454	0.0001408
3466	0.00022
3478	0.0002684
3490	0.0004708
3502	0.0007128
3514	0.0008712
3526	0.0007216
3538	0.0004488
3550	0.0002948
3562	0.0001716
3574	0.0001628
3586	0.0001364
3598	0.0001364
3610	0.00011
3622	0.0001144
3634	0.0001232
3646	0.0001496
3658	0.0001232
3670	0.000198
3682	0.0001628
3694	0.0001716
3706	0.0001584
3718	0.0002068
3730	0.0001892
3742	0.0001936
3754	0.0002288
3766	0.0001936
3778	0.0002112
3790	0.0001936
3802	0.000176
3814	0.0001848
3826	0.0002024
3838	0.0002332
