Infrared Spectrum: p-Phenoxystyrene
Formula: C 14 H 12 O
CAS: 4973-29-9
State: gas
Origin: EPA-IR VAPOR PHASE LIBRARY
1/CM	ABSORBANCE
549.8	0.001926
559.445	0.0011618
569.09	0.00050902
578.735	0.0008035
588.38	0.0010123
598.025	0.0008592
607.67	0.000869
617.315	0.0010758
626.96	0.001085
636.605	0.0012904
646.251	0.001626
655.896	0.001776
665.541	0.002166
675.186	0.004656
684.831	0.010236
694.476	0.011576
704.121	0.006806
713.766	0.004716
723.411	0.004776
733.056	0.006556
742.701	0.009386
752.346	0.011736
761.991	0.012016
771.636	0.009356
781.281	0.005706
790.926	0.004196
800.571	0.003676
810.216	0.004306
819.861	0.006096
829.507	0.010076
839.152	0.016846
848.797	0.018286
858.442	0.016796
868.087	0.032796
877.732	0.016406
887.377	0.008166
897.022	0.010966
906.667	0.014356
916.312	0.010356
925.957	0.004896
935.602	0.003186
945.247	0.003146
954.892	0.003136
964.537	0.003636
974.182	0.005316
983.827	0.007196
993.472	0.006236
1003.12	0.005126
1012.76	0.007866
1022.41	0.007266
1032.05	0.003496
1041.7	0.001806
1051.34	0.001896
1060.99	0.002896
1070.63	0.003426
1080.28	0.002466
1089.92	0.002106
1099.57	0.003416
1109.21	0.004026
1118.86	0.002916
1128.5	0.002196
1138.15	0.002846
1147.79	0.005496
1157.44	0.013806
1167.08	0.024216
1176.73	0.010446
1186.37	0.009836
1196.02	0.012516
1205.66	0.015956
1215.31	0.027156
1224.95	0.060986
1234.6	0.150686
1244.24	0.224786
1253.89	0.090256
1263.53	0.034096
1273.18	0.023206
1282.82	0.017326
1292.47	0.013876
1302.11	0.010586
1311.76	0.008936
1321.4	0.007976
1331.05	0.006286
1340.69	0.004856
1350.34	0.003526
1359.98	0.002896
1369.63	0.002606
1379.27	0.002676
1388.92	0.003386
1398.56	0.004636
1408.21	0.005326
1417.85	0.004456
1427.5	0.004036
1437.14	0.003936
1446.79	0.004936
1456.43	0.008156
1466.08	0.013206
1475.73	0.025316
1485.37	0.092716
1495.02	0.105176
1504.66	0.078306
1514.31	0.031406
1523.95	0.011646
1533.6	0.008876
1543.24	0.007246
1552.89	0.007006
1562.53	0.009506
1572.18	0.017856
1581.82	0.039116
1591.47	0.055196
1601.11	0.028806
1610.76	0.012596
1620.4	0.010156
1630.05	0.011886
1639.69	0.007216
1649.34	0.003846
1658.98	0.002826
1668.63	0.002206
1678.27	0.001736
1687.92	0.0014425
1697.56	0.001486
1707.21	0.001596
1716.85	0.001686
1726.5	0.001586
1736.14	0.0014223
1745.79	0.0013445
1755.43	0.001646
1765.08	0.002186
1774.72	0.001986
1784.37	0.001596
1794.01	0.0013471
1803.66	0.001626
1813.3	0.002766
1822.95	0.002986
1832.59	0.002016
1842.24	0.001586
1851.88	0.001496
1861.53	0.001666
1871.17	0.002206
1880.82	0.002546
1890.46	0.002356
1900.11	0.001616
1909.75	0.0014188
1919.4	0.001646
1929.04	0.001966
1938.69	0.002296
1948.33	0.002506
1957.98	0.002186
1967.62	0.001596
1977.27	0.0011978
1986.91	0.0010793
1996.56	0.0009372
2006.2	0.0009909
2015.85	0.0013223
2025.49	0.001886
2035.14	0.002236
2044.78	0.001886
2054.43	0.001526
2064.07	0.001616
2073.72	0.001506
2083.36	0.001107
2093.01	0.0009191
2102.65	0.0007676
2112.3	0.0006179
2121.94	0.00051822
2131.59	0.00047782
2141.23	0.0004261
2150.88	0.000332
2160.52	0.0004014
2170.17	0.00049398
2179.81	0.0003766
2189.46	0.0004293
2199.1	0.00051651
2208.75	0.00046186
2218.39	0.00047988
2228.04	0.0004304
2237.68	0.0004049
2247.33	0.000274
2256.97	0.0003774
2266.62	0.00047659
2276.26	0.0005762
2285.91	0.0006376
2295.55	0.0006252
2305.2	0.000709
2314.84	0.0007724
2324.49	0.0008843
2334.13	0.0007877
2343.78	0.0007012
2353.42	0.0007313
2363.07	0.0008638
2372.72	0.0009224
2382.36	0.0011074
2392.01	0.0014419
2401.65	0.001856
2411.3	0.001726
2420.94	0.001596
2430.59	0.001916
2440.23	0.002146
2449.88	0.001576
2459.52	0.0012222
2469.17	0.0010839
2478.81	0.0009743
2488.46	0.0007699
2498.1	0.0007191
2507.75	0.0007506
2517.39	0.0007189
2527.04	0.0006271
2536.68	0.0007099
2546.33	0.0008218
2555.97	0.000841
2565.62	0.0007973
2575.26	0.0006336
2584.91	0.000388
2594.55	0.0003814
2604.2	0.0003824
2613.84	0.0003505
2623.49	0.0003755
2633.13	0.000332
2642.78	0.00029
2652.42	0.000253
2662.07	0.000309
2671.71	0.000228
2681.36	0.000285
2691	0.0004133
2700.65	0.0004281
2710.29	0.00031
2719.94	0.000315
2729.58	0.0004096
2739.23	0.000449583
2748.87	0.00053016
2758.52	0.000325
2768.16	0.000312
2777.81	0.000265
2787.45	0.000315
2797.1	0.000241
2806.74	0.000245
2816.39	0.000313
2826.03	0.0003625
2835.68	0.0003696
2845.32	0.00048499
2854.97	0.00052746
2864.61	0.00043
2874.26	0.00047189
2883.9	0.00046396
2893.55	0.00050822
2903.19	0.00044075
2912.84	0.0006174
2922.48	0.00051421
2932.13	0.0005774
2941.77	0.0006149
2951.42	0.0006137
2961.06	0.0008405
2970.71	0.0013759
2980.35	0.002336
2990	0.003196
2999.64	0.003726
3009.29	0.007686
3018.93	0.010056
3028.58	0.009236
3038.22	0.014216
3047.87	0.014156
3057.51	0.010536
3067.16	0.010926
3076.8	0.014806
3086.45	0.014746
3096.09	0.015446
3105.74	0.007236
3115.38	0.003096
3125.03	0.001346
3134.67	0.0008704
3144.32	0.0005578
3153.96	0.00052597
3163.61	0.0003599
3173.25	0.0003801
3182.9	0.0003864
3192.54	0.000257
3202.19	0.0003544
3211.83	0.000295
3221.48	6.8e-05
3231.12	0.000139
3240.77	0.00046741
3250.41	0.000151
3260.06	3.1e-05
3269.7	0.000228
3279.35	0.000329
3289	0.000167
3298.64	0.000208
3308.29	0.00017
3317.93	0.000132
3327.58	0.000186
3337.22	0.000206
3346.87	0.000269
3356.51	6.5e-05
3366.16	0.000114
3375.8	0.0004119
3385.45	0.000211
3395.09	0.000143
3404.74	0.000119
3414.38	0.000214
3424.03	0.000421
3433.67	0.000293
3443.32	0.000166
3452.96	0.000284
3462.61	0.000197
3472.25	0.000199
3481.9	0.000324
3491.54	0.000307
3501.19	0.000334
3510.83	0.000174
3520.48	0.00029
3530.12	0.000287
3539.77	0.000302
3549.41	0.0003963
3559.06	0.0003485
3568.7	0.00048348
3578.35	0.000216
3587.99	0.000172
3597.64	0.000221
3607.28	0.0004712
3616.93	0.00048321
3626.57	0.000308
3636.22	0.000332
3645.86	0.000201
3655.51	0.0004292
3665.15	0.00047174
3674.8	0.00046378
3684.44	0.000278
3694.09	0.0003841
3703.73	0.000209
3713.38	0.000303
3723.02	0.00043646
3732.67	0.0003674
3742.31	0.00049663
3751.96	0.0003872
3761.6	0.000455708
3771.25	0.0003625
3780.89	0.00031
3790.54	0.0003905
3800.18	0.0004166
3809.83	0.000224
3819.47	0.00043798
3829.12	0.00044273
3838.76	0.000238
3848.41	0.000192
3858.05	0.00051011
3867.7	0.00048914
3877.34	0.0003679
3886.99	0.00052056
3896.63	0.00046723
3906.28	0.0005112
3915.92	0.00028
3925.57	0.00050274
3935.21	0.000319
3944.86	0.00052854
3954.5	0.00034
3964.15	0.0004231
3973.79	0.0003622
3983.44	0.00047848
3993.08	0.000196
