Infrared Spectrum: 2,6-Octadiene
Formula: C 8 H 14
CAS: 4974-27-0
State: gas
Instrument: HP-GC/MS/IRD
Origin: NIST Mass Spectrometry Data Center
1/CM	ABSORBANCE
550	0.0009683
562	0.0003335
574	0.0004002
586	0.0002415
598	0.0003519
610	0.0001449
622	0.0001978
634	0.0003059
646	0.0001633
658	0.0001932
670	0.0002507
682	0.000161
694	0.0001357
706	0.0001012
718	0.0001081
730	0.0001196
742	0.0001242
754	7.82e-05
766	0.0001081
778	0.0001449
790	0.0001242
802	0.0001702
814	0.000184
826	0.0003381
838	0.0003128
850	0.0003795
862	0.0004025
874	0.0005037
886	0.0008464
898	0.0011224
910	0.0015663
922	0.0025024
934	0.0040296
946	0.00644
958	0.0098371
970	0.0094116
982	0.0059616
994	0.0036018
1006	0.0022034
1018	0.0016836
1030	0.0016652
1042	0.0018216
1054	0.0018147
1066	0.0013409
1078	0.0008878
1090	0.0006647
1102	0.0005152
1114	0.0003979
1126	0.0003266
1138	0.0002806
1150	0.0002507
1162	0.0003059
1174	0.0003657
1186	0.0004577
1198	0.0004278
1210	0.0005819
1222	0.0006831
1234	0.0007061
1246	0.0007314
1258	0.0006808
1270	0.0006693
1282	0.0008947
1294	0.001058
1306	0.0011776
1318	0.0011109
1330	0.0010741
1342	0.0012535
1354	0.0010833
1366	0.0011339
1378	0.0014766
1390	0.0015571
1402	0.0013501
1414	0.0014766
1426	0.0021505
1438	0.0033258
1450	0.0035834
1462	0.0027922
1474	0.0018699
1486	0.0012765
1498	0.0009545
1510	0.000759
1522	0.0006693
1534	0.0005451
1546	0.0004508
1558	0.0004117
1570	0.0003565
1582	0.0003404
1594	0.0003036
1606	0.0003174
1618	0.0002944
1630	0.000253
1642	0.0003082
1654	0.0003542
1666	0.0004485
1678	0.0004761
1690	0.0004669
1702	0.000598
1714	0.0006256
1726	0.0005796
1738	0.0004968
1750	0.0003933
1762	0.0003634
1774	0.0003611
1786	0.000322
1798	0.0003036
1810	0.0002254
1822	0.0002254
1834	0.0002047
1846	0.0001794
1858	0.0001794
1870	0.0001541
1882	0.0001173
1894	0.0001334
1906	0.000115
1918	0.0001012
1930	0.0001058
1942	0.0001656
1954	0.0001633
1966	0.0001357
1978	0.0001472
1990	0.0002093
2002	0.0002323
2014	0.000161
2026	0.0001081
2038	0.0001127
2050	0.0001012
2062	7.36e-05
2074	0.0001127
2086	7.36e-05
2098	8.51e-05
2110	7.13e-05
2122	6.21e-05
2134	9.2e-05
2146	6.44e-05
2158	7.82e-05
2170	7.59e-05
2182	6.21e-05
2194	0.0001104
2206	6.67e-05
2218	6.44e-05
2230	3.45e-05
2242	9.2e-05
2254	8.74e-05
2266	4.37e-05
2278	6.21e-05
2290	5.29e-05
2302	8.28e-05
2314	9.43e-05
2326	0.0001081
2338	0.0001035
2350	0.0001081
2362	0.0001449
2374	0.0001449
2386	0.0001495
2398	0.0001104
2410	8.97e-05
2422	9.2e-05
2434	0.0001058
2446	0.0001265
2458	0.0001242
2470	9.43e-05
2482	8.51e-05
2494	6.9e-05
2506	6.67e-05
2518	0.0001035
2530	8.97e-05
2542	6.44e-05
2554	8.05e-05
2566	5.52e-05
2578	6.44e-05
2590	8.05e-05
2602	7.36e-05
2614	9.89e-05
2626	7.36e-05
2638	0.0001242
2650	0.0001012
2662	0.0001541
2674	0.0001679
2686	0.0002231
2698	0.000184
2710	0.0002392
2722	0.0003128
2734	0.0005612
2746	0.0007452
2758	0.000506
2770	0.0005129
2782	0.0005888
2794	0.0006877
2806	0.0008878
2818	0.001196
2830	0.0021344
2842	0.004163
2854	0.0068287
2866	0.0093288
2878	0.0089884
2890	0.0087676
2902	0.0115023
2914	0.0162978
2926	0.0226596
2938	0.0204953
2950	0.0140415
2962	0.0111366
2974	0.0097819
2986	0.0084617
2998	0.007889
3010	0.0080201
3022	0.0079718
3034	0.006601
3046	0.0044528
3058	0.0029624
3070	0.0020746
3082	0.0015847
3094	0.0012972
3106	0.0010097
3118	0.0007935
3130	0.0006854
3142	0.0004945
3154	0.0004255
3166	0.0002829
3178	0.0002116
3190	0.0002024
3202	0.0001587
3214	0.0001587
3226	0.0001495
3238	7.59e-05
3250	0.0001242
3262	9.66e-05
3274	4.83e-05
3286	8.74e-05
3298	3.91e-05
3310	6.67e-05
3322	3.22e-05
3334	4.6e-05
3346	3.91e-05
3358	8.51e-05
3370	8.97e-05
3382	6.9e-05
3394	0.0001196
3406	0.0001196
3418	0.0001334
3430	0.0001288
3442	0.000115
3454	0.0001403
3466	8.51e-05
3478	0.0001219
3490	0.0001242
3502	0.0001495
3514	0.0001058
3526	0.0002047
3538	0.0001426
3550	0.0001725
3562	0.0001863
3574	0.0001081
3586	0.0001127
3598	0.0001656
3610	0.000138
3622	0.0001518
3634	0.0001702
3646	0.0001817
3658	0.000138
3670	0.0002116
3682	0.0001587
3694	0.0001311
3706	0.0001679
3718	0.0002024
3730	0.0001656
3742	0.0001771
3754	0.0002208
3766	0.0001771
3778	0.0001748
3790	0.0002093
3802	0.0002047
3814	0.0001679
3826	0.0001748
3838	0.0001725
