Infrared Spectrum: FURAZAN, 3,4-DIMETHYL-
Formula: C4 H6 N2 O
CAS: 4975-21-7
State: LIQUID (NEAT)
Class: COBLENTZ II
Instrument: PERKIN-ELMER 180 (GRATING)
Instrument parameters: GRATING CHANGES AT 2000, 1000, 500, 250 CM^-^1
Sampling: TRANSMISSION
Path length: CAPILLARY, KBr CRYSTALS
Resolution: 4
Origin: STANDARD OIL OF OHIO
1/CM	TRANSMITTANCE
296.451	0.325
305.846	0.397
315.24	0.445
324.635	0.5029
334.029	0.559
343.424	0.61
352.818	0.655
362.213	0.691
371.608	0.721
381.002	0.746
390.397	0.763
399.791	0.78
409.186	0.793
418.58	0.812
427.975	0.825
437.369	0.829
446.764	0.834
456.159	0.84
465.553	0.844
474.948	0.846
484.342	0.853
493.737	0.857
503.131	0.863
512.526	0.867
521.921	0.871
531.315	0.871
540.71	0.87
550.104	0.868
559.499	0.871
568.893	0.877
578.288	0.875
587.683	0.865
597.077	0.7841
606.472	0.7909
615.866	0.773
625.261	0.361
634.655	0.842
644.05	0.876
653.445	0.883
662.839	0.878
672.234	0.875
681.628	0.851
691.023	0.7651
700.417	0.3234
709.812	0.7559
719.206	0.842
728.601	0.857
737.996	0.861
747.39	0.867
756.785	0.863
766.179	0.865
775.574	0.864
784.968	0.862
794.363	0.868
803.758	0.866
813.152	0.867
822.547	0.863
831.941	0.867
841.336	0.848
850.73	0.841
860.125	0.839
869.52	0.804
878.914	0.5153
888.309	0.5544
897.703	0.815
907.098	0.863
916.492	0.86
925.887	0.851
935.281	0.797
944.676	0.709
954.071	0.81
963.465	0.863
972.86	0.872
982.254	0.869
991.649	0.854
1001.04	0.83
1010.44	0.793
1019.83	0.67
1029.23	0.513
1038.62	0.239
1048.02	0.671
1057.41	0.796
1066.81	0.83
1076.2	0.845
1085.59	0.854
1094.99	0.847
1104.38	0.829
1113.78	0.827
1123.17	0.841
1132.57	0.859
1141.96	0.863
1151.36	0.857
1160.75	0.852
1170.15	0.86
1179.54	0.85
1188.93	0.838
1198.33	0.762
1207.72	0.5391
1217.12	0.351
1226.51	0.789
1235.91	0.846
1245.3	0.867
1254.7	0.869
1264.09	0.863
1273.49	0.858
1282.88	0.842
1292.27	0.846
1301.67	0.856
1311.06	0.86
1320.46	0.852
1329.85	0.832
1339.25	0.823
1348.64	0.812
1358.04	0.773
1367.43	0.725
1376.83	0.6091
1386.22	0.3359
1395.62	0.465
1405.01	0.501
1414.4	0.554
1423.8	0.466
1433.19	0.2651
1442.59	0.285
1451.98	0.2441
1461.38	0.3089
1470.77	0.54
1480.17	0.59
1489.56	0.437
1498.96	0.757
1508.35	0.794
1517.74	0.801
1527.14	0.811
1536.53	0.815
1545.93	0.825
1555.32	0.831
1564.72	0.836
1574.11	0.809
1583.51	0.648
1592.9	0.611
1602.3	0.814
1611.69	0.855
1621.08	0.868
1630.48	0.876
1639.87	0.884
1649.27	0.884
1658.66	0.881
1668.06	0.878
1677.45	0.853
1686.85	0.783
1696.24	0.768
1705.64	0.763
1715.03	0.725
1724.43	0.78
1733.82	0.796
1743.21	0.778
1752.61	0.761
1762	0.844
1771.4	0.885
1780.79	0.903
1790.19	0.914
1799.58	0.92
1808.98	0.926
1818.37	0.927
1827.77	0.923
1837.16	0.916
1846.55	0.918
1855.95	0.93
1865.34	0.93
1874.74	0.929
1884.13	0.928
1893.53	0.928
1902.92	0.931
1912.32	0.931
1921.71	0.932
1931.11	0.933
1940.5	0.935
1949.89	0.933
1959.29	0.93
1968.68	0.935
1978.08	0.934
1987.47	0.935
1996.87	0.934
2006.26	0.942
2015.66	0.9325
2025.05	0.935
2034.45	0.9441
2043.84	0.948
2053.23	0.9475
2062.63	0.946
2072.02	0.944
2081.42	0.9389
2090.81	0.9324
2100.21	0.929
2109.6	0.931
2119	0.9384
2128.39	0.9506
2137.79	0.953
2147.18	0.9514
2156.58	0.95
2165.97	0.952
2175.36	0.9533
2184.76	0.949
2194.15	0.946
2203.55	0.9544
2212.94	0.957
2222.34	0.9577
2231.73	0.96
2241.13	0.9593
2250.52	0.959
2259.92	0.959
2269.31	0.959
2278.7	0.959
2288.1	0.9567
2297.49	0.955
2306.89	0.953
2316.28	0.9472
2325.68	0.9486
2335.07	0.952
2344.47	0.9543
2353.86	0.9541
2363.26	0.953
2372.65	0.953
2382.04	0.945
2391.44	0.9401
2400.83	0.9356
2410.23	0.9311
2419.62	0.928
2429.02	0.9299
2438.41	0.9344
2447.81	0.9399
2457.2	0.943
2466.6	0.942
2475.99	0.942
2485.38	0.944
2494.78	0.946
2504.17	0.947
2513.57	0.9455
2522.96	0.943
2532.36	0.941
2541.75	0.941
2551.15	0.939
2560.54	0.943
2569.94	0.944
2579.33	0.9439
2588.73	0.941
2598.12	0.9398
2607.51	0.9334
2616.91	0.9341
2626.3	0.9376
2635.7	0.9401
2645.09	0.942
2654.49	0.943
2663.88	0.9423
2673.28	0.9408
2682.67	0.9393
2692.07	0.9388
2701.46	0.938
2710.85	0.937
2720.25	0.935
2729.64	0.9325
2739.04	0.929
2748.43	0.9203
2757.83	0.9065
2767.22	0.9143
2776.62	0.916
2786.01	0.9167
2795.41	0.9122
2804.8	0.9051
2814.19	0.8944
2823.59	0.8807
2832.98	0.8828
2842.38	0.8776
2851.77	0.8454
2861.17	0.812
2870.56	0.8229
2879.96	0.8361
2889.35	0.8442
2898.75	0.836
2908.14	0.8166
2917.53	0.7832
2926.93	0.7079
2936.32	0.6045
2945.72	0.708
2955.11	0.7401
2964.51	0.7093
2973.9	0.6897
2983.3	0.7258
2992.69	0.7325
3002.09	0.694
3011.48	0.7511
3020.88	0.7981
3030.27	0.8191
3039.66	0.8291
3049.06	0.8345
3058.45	0.84
3067.85	0.843
3077.24	0.8461
3086.64	0.8506
3096.03	0.8541
3105.43	0.8576
3114.82	0.859
3124.22	0.8616
3133.61	0.865
3143	0.869
3152.4	0.87
3161.79	0.8693
3171.19	0.8688
3180.58	0.8673
3189.98	0.867
3199.37	0.866
3208.77	0.864
3218.16	0.863
3227.56	0.863
3236.95	0.863
3246.34	0.863
3255.74	0.8658
3265.13	0.868
3274.53	0.869
3283.92	0.869
3293.32	0.8718
3302.71	0.875
3312.11	0.8768
3321.5	0.8783
3330.9	0.8826
3340.29	0.8843
3349.68	0.8868
3359.08	0.8914
3368.47	0.8949
3377.87	0.9004
3387.26	0.9039
3396.66	0.9084
3406.05	0.913
3415.45	0.9158
3424.84	0.9189
3434.24	0.922
3443.63	0.9249
3453.03	0.925
3462.42	0.928
3471.81	0.93
3481.21	0.93
3490.6	0.93
3500	0.93
3509.39	0.93
3518.79	0.93
3528.18	0.931
3537.58	0.932
3546.97	0.9345
3556.37	0.938
3565.76	0.9406
3575.15	0.9431
3584.55	0.945
3593.94	0.946
3603.34	0.946
3612.73	0.946
3622.13	0.945
3631.52	0.945
3640.92	0.946
3650.31	0.946
3659.71	0.946
3669.1	0.9462
3678.49	0.9523
3687.89	0.9572
3697.28	0.9647
3706.68	0.9682
3716.07	0.9717
3725.47	0.973
3734.86	0.973
3744.26	0.973
3753.65	0.973
3763.05	0.9727
3772.44	0.972
3781.83	0.9713
3791.23	0.972
3800.62	0.9753
3810.02	0.9734
3819.41	0.97
3828.81	0.9708
3838.2	0.972
3847.6	0.971
3856.99	0.969
3866.39	0.968
3875.78	0.967
3885.18	0.966
3894.57	0.966
3903.96	0.967
3913.36	0.968
3922.75	0.968
3932.15	0.966
3941.54	0.9641
3950.94	0.9616
3960.33	0.959
3969.73	0.958
3979.12	0.959
3988.52	0.96
3997.91	0.961
