Infrared Spectrum: N-tert-Butoxycarbonylimidazole
Formula: C 8 H 12 N 2 O 2
CAS: 49761-82-2
State: gas
Origin: EPA-IR VAPOR PHASE LIBRARY
1/CM	ABSORBANCE
549.8	0.011269
559.445	0.003659
569.09	0.002499
578.734	0.003229
588.379	0.006219
598.024	0.008279
607.669	0.005499
617.313	0.010229
626.958	0.014579
636.603	0.024479
646.248	0.045509
655.893	0.032059
665.537	0.026979
675.182	0.014749
684.827	0.017729
694.472	0.017959
704.116	0.016399
713.761	0.018319
723.406	0.062079
733.051	0.050979
742.695	0.059469
752.34	0.043779
761.985	0.033759
771.63	0.041669
781.275	0.038179
790.919	0.028219
800.564	0.026609
810.209	0.062199
819.854	0.057649
829.498	0.075669
839.143	0.089269
848.788	0.075159
858.433	0.039589
868.078	0.019189
877.722	0.017709
887.367	0.042209
897.012	0.026599
906.657	0.019429
916.301	0.015769
925.946	0.012549
935.591	0.010839
945.236	0.009409
954.88	0.010289
964.525	0.015539
974.17	0.029809
983.815	0.081089
993.46	0.246489
1003.1	0.271739
1012.75	0.079459
1022.39	0.039629
1032.04	0.040989
1041.68	0.041049
1051.33	0.057179
1060.97	0.065339
1070.62	0.039029
1080.26	0.044389
1089.91	0.127029
1099.55	0.111129
1109.2	0.032419
1118.84	0.038029
1128.49	0.069579
1138.13	0.145679
1147.78	0.269149
1157.42	0.362339
1167.07	0.350639
1176.71	0.254619
1186.36	0.173429
1196	0.099929
1205.64	0.062979
1215.29	0.059079
1224.93	0.098979
1234.58	0.260969
1244.22	0.326359
1253.87	0.126769
1263.51	0.080449
1273.16	0.157769
1282.8	0.344269
1292.45	0.481439
1302.09	0.411899
1311.74	0.375049
1321.38	0.209359
1331.03	0.049489
1340.67	0.025389
1350.32	0.029159
1359.96	0.083299
1369.61	0.288639
1379.25	0.531339
1388.9	0.377059
1398.54	0.132749
1408.18	0.072419
1417.83	0.045369
1427.47	0.036789
1437.12	0.036659
1446.76	0.058419
1456.41	0.100609
1466.05	0.119049
1475.7	0.127929
1485.34	0.124979
1494.99	0.080109
1504.63	0.038689
1514.28	0.027539
1523.92	0.030369
1533.57	0.023899
1543.21	0.018359
1552.86	0.016459
1562.5	0.016409
1572.15	0.016379
1581.79	0.015849
1591.44	0.021439
1601.08	0.025409
1610.73	0.022229
1620.37	0.017579
1630.01	0.016069
1639.66	0.018679
1649.3	0.018509
1658.95	0.015459
1668.59	0.015039
1678.24	0.015299
1687.88	0.017449
1697.53	0.017879
1707.17	0.015679
1716.82	0.017739
1726.46	0.023409
1736.11	0.029839
1745.75	0.066919
1755.4	0.219489
1765.04	0.461029
1774.69	0.437429
1784.33	0.167909
1793.98	0.050209
1803.62	0.023249
1813.27	0.014609
1822.91	0.009839
1832.55	0.007239
1842.2	0.006009
1851.84	0.005619
1861.49	0.006469
1871.13	0.007519
1880.78	0.007239
1890.42	0.005809
1900.07	0.004669
1909.71	0.004089
1919.36	0.003429
1929	0.002699
1938.65	0.002059
1948.29	0.001909
1957.94	0.001819
1967.58	0.002189
1977.23	0.002849
1986.87	0.003789
1996.52	0.004379
2006.16	0.004019
2015.81	0.003069
2025.45	0.002339
2035.1	0.001969
2044.74	0.001859
2054.38	0.001899
2064.03	0.002169
2073.67	0.002219
2083.32	0.002089
2092.96	0.001829
2102.61	0.002059
2112.25	0.002559
2121.9	0.002939
2131.54	0.002969
2141.19	0.002769
2150.83	0.002599
2160.48	0.002119
2170.12	0.002109
2179.77	0.002279
2189.41	0.002229
2199.06	0.001929
2208.7	0.002179
2218.35	0.002309
2227.99	0.002529
2237.64	0.002789
2247.28	0.003519
2256.92	0.004979
2266.57	0.007649
2276.21	0.013359
2285.86	0.024909
2295.5	0.045169
2305.15	0.069339
2314.79	0.086969
2324.44	0.097359
2334.08	0.090689
2343.73	0.095799
2353.37	0.107489
2363.02	0.125299
2372.66	0.098489
2382.31	0.045099
2391.95	0.007569
2401.6	0.003509
2411.24	0.003189
2420.89	0.002759
2430.53	0.002379
2440.18	0.002379
2449.82	0.002369
2459.47	0.002769
2469.11	0.002869
2478.75	0.002439
2488.4	0.002469
2498.04	0.002019
2507.69	0.001729
2517.33	0.002109
2526.98	0.002279
2536.62	0.002599
2546.27	0.002779
2555.91	0.003349
2565.56	0.003399
2575.2	0.003909
2584.85	0.004519
2594.49	0.004939
2604.14	0.004709
2613.78	0.003779
2623.43	0.003059
2633.07	0.002409
2642.72	0.002329
2652.36	0.002439
2662.01	0.002769
2671.65	0.002799
2681.29	0.002549
2690.94	0.002489
2700.58	0.002399
2710.23	0.002219
2719.87	0.002559
2729.52	0.003409
2739.16	0.004199
2748.81	0.004829
2758.45	0.004949
2768.1	0.004789
2777.74	0.004149
2787.39	0.004149
2797.03	0.004109
2806.68	0.004049
2816.32	0.004539
2825.97	0.005409
2835.61	0.006599
2845.26	0.008409
2854.9	0.010699
2864.55	0.013939
2874.19	0.018189
2883.84	0.022789
2893.48	0.027389
2903.12	0.031969
2912.77	0.037089
2922.41	0.041179
2932.06	0.048779
2941.7	0.065879
2951.35	0.057989
2960.99	0.051759
2970.64	0.065199
2980.28	0.105559
2989.93	0.130019
2999.57	0.073919
3009.22	0.037739
3018.86	0.026079
3028.51	0.014279
3038.15	0.009439
3047.8	0.008319
3057.44	0.009039
3067.09	0.010599
3076.73	0.010259
3086.38	0.010919
3096.02	0.010689
3105.67	0.009769
3115.31	0.009099
3124.95	0.011689
3134.6	0.013239
3144.24	0.009569
3153.89	0.007949
3163.53	0.009399
3173.18	0.008729
3182.82	0.004129
3192.47	0.002909
3202.11	0.002319
3211.76	0.002039
3221.4	0.002099
3231.05	0.001879
3240.69	0.001749
3250.34	0.001859
3259.98	0.001419
3269.63	0.001319
3279.27	0.001339
3288.92	0.001219
3298.56	0.001229
3308.21	0.001219
3317.85	0.0009923
3327.49	0.0006786
3337.14	0.0009791
3346.78	0.0011641
3356.43	0.0009211
3366.07	0.0009163
3375.72	0.0011732
3385.36	0.0007011
3395.01	0.0007936
3404.65	0.0009174
3414.3	0.0005509
3423.94	0.0008437
3433.59	0.0011303
3443.23	0.001539
3452.88	0.001679
3462.52	0.002879
3472.17	0.004699
3481.81	0.008049
3491.46	0.012529
3501.1	0.015879
3510.75	0.016789
3520.39	0.016559
3530.04	0.015089
3539.68	0.009139
3549.32	0.003909
3558.97	0.002019
3568.61	0.001989
3578.26	0.001529
3587.9	0.001969
3597.55	0.002219
3607.19	0.001579
3616.84	0.0010985
3626.48	0.001889
3636.13	0.001539
3645.77	0.001299
3655.42	0.0007319
3665.06	0.0005526
3674.71	0.001269
3684.35	0.002019
3694	0.002659
3703.64	0.002709
3713.29	0.001509
3722.93	0.002329
3732.58	0.003699
3742.22	0.002989
3751.86	0.001199
3761.51	0.0005497
3771.15	6.5e-05
3780.8	0.0003194
3790.44	0.0005885
3800.09	0.0005064
3809.73	5.5e-05
3819.38	0.0004946
3829.02	0.000122
3838.67	0.0002967
3848.31	0.0005822
3857.96	0.0007313
3867.6	0.0006044
3877.25	0.00048
3886.89	0.0004668
3896.54	0.00028541
3906.18	0.0004687
3915.83	0.0007258
3925.47	0.0006388
3935.12	0.000581
3944.76	0.0006228
3954.41	0.0007764
3964.05	0.0008893
3973.69	0.0008478
3983.34	0.0011545
3992.98	0.001259
