Infrared Spectrum: GLYCINE, N-ACETYL-2-CYANO-, ETHYL ESTER
Formula: C7 H10 N2 O3
CAS: 4977-62-2
State: SOLID (1.2 mg / 650 mg KBr DISC)
Class: COBLENTZ III
Instrument: PERKIN-ELMER 21 (GRATING)
Instrument parameters: FILTER CHANGE AT 1090 CM^-^1
Sampling: TRANSMISSION
Resolution: 4
Origin: SOUTHERN RESEARCH INST.
1/CM	TRANSMITTANCE
595.333	0.79
604.356	0.79
613.379	0.791
622.402	0.798
631.425	0.802
640.448	0.793
649.471	0.784
658.494	0.775
667.517	0.786
676.54	0.764
685.563	0.682
694.586	0.588
703.61	0.606
712.633	0.633
721.656	0.629
730.679	0.719
739.702	0.759
748.725	0.775
757.748	0.782
766.771	0.782
775.794	0.774
784.817	0.779
793.84	0.78
802.863	0.764
811.886	0.777
820.909	0.794
829.932	0.793
838.955	0.778
847.978	0.708
857.001	0.669
866.024	0.658
875.047	0.701
884.07	0.776
893.093	0.762
902.117	0.757
911.14	0.775
920.163	0.774
929.186	0.775
938.209	0.78
947.232	0.773
956.255	0.758
965.278	0.729
974.301	0.664
983.324	0.646
992.347	0.598
1001.37	0.587
1010.39	0.491
1019.42	0.325
1028.44	0.227
1037.46	0.255
1046.49	0.486
1055.51	0.55
1064.53	0.639
1073.55	0.658
1082.58	0.66
1091.6	0.644
1100.62	0.582
1109.65	0.501
1118.67	0.519
1127.69	0.475
1136.72	0.564
1145.74	0.643
1154.76	0.636
1163.78	0.65
1172.81	0.647
1181.83	0.629
1190.85	0.588
1199.88	0.479
1208.9	0.385
1217.92	0.225
1226.95	0.133
1235.97	0.233
1244.99	0.44
1254.02	0.492
1263.04	0.457
1272.06	0.382
1281.08	0.303
1290.11	0.266
1299.13	0.234
1308.15	0.186
1317.18	0.123
1326.2	0.146
1335.22	0.31
1344.25	0.466
1353.27	0.475
1362.29	0.448
1371.31	0.298
1380.34	0.193
1389.36	0.297
1398.38	0.401
1407.41	0.433
1416.43	0.436
1425.45	0.443
1434.48	0.436
1443.5	0.408
1452.52	0.43
1461.55	0.454
1470.57	0.469
1479.59	0.492
1488.61	0.516
1497.64	0.498
1506.66	0.433
1515.68	0.355
1524.71	0.17
1533.73	0.124
1542.75	0.158
1551.78	0.194
1560.8	0.314
1569.82	0.358
1578.84	0.35
1587.87	0.341
1596.89	0.324
1605.91	0.313
1614.94	0.302
1623.96	0.228
1632.98	0.185
1642.01	0.08
1651.03	0.064
1660.05	0.073
1669.08	0.12
1678.1	0.214
1687.12	0.329
1696.14	0.359
1705.17	0.49
1714.19	0.489
1723.21	0.364
1732.24	0.079
1741.26	0.09
1750.28	0.199
1759.31	0.319
1768.33	0.402
1777.35	0.477
1786.37	0.52
1795.4	0.553
1804.42	0.575
1813.44	0.597
1822.47	0.613
1831.49	0.625
1840.51	0.63
1849.54	0.641
1858.56	0.649
1867.58	0.654
1876.61	0.661
1885.63	0.667
1894.65	0.673
1903.67	0.678
1912.7	0.682
1921.72	0.685
1930.74	0.687
1939.77	0.691
1948.79	0.694
1957.81	0.697
1966.84	0.699
1975.86	0.701
1984.88	0.702
1993.9	0.702
2002.93	0.704
2011.95	0.706
2020.97	0.707
2030	0.707
2039.02	0.708
2048.04	0.709
2057.07	0.71
2066.09	0.71
2075.11	0.709
2084.14	0.707
2093.16	0.707
2102.18	0.708
2111.2	0.714
2120.23	0.718
2129.25	0.716
2138.27	0.716
2147.3	0.718
2156.32	0.721
2165.34	0.723
2174.37	0.723
2183.39	0.723
2192.41	0.723
2201.43	0.723
2210.46	0.724
2219.48	0.728
2228.5	0.727
2237.53	0.722
2246.55	0.71
2255.57	0.709
2264.6	0.724
2273.62	0.729
2282.64	0.733
2291.67	0.738
2300.69	0.734
2309.71	0.733
2318.73	0.733
2327.76	0.734
2336.78	0.735
2345.8	0.732
2354.83	0.729
2363.85	0.725
2372.87	0.72
2381.9	0.717
2390.92	0.717
2399.94	0.72
2408.96	0.72
2417.99	0.719
2427.01	0.717
2436.03	0.717
2445.06	0.714
2454.08	0.715
2463.1	0.711
2472.13	0.709
2481.15	0.709
2490.17	0.707
2499.2	0.707
2508.22	0.708
2517.24	0.709
2526.26	0.709
2535.29	0.708
2544.31	0.704
2553.33	0.702
2562.36	0.704
2571.38	0.705
2580.4	0.701
2589.43	0.7
2598.45	0.7
2607.47	0.701
2616.49	0.702
2625.52	0.703
2634.54	0.704
2643.56	0.702
2652.59	0.701
2661.61	0.701
2670.63	0.704
2679.66	0.702
2688.68	0.697
2697.7	0.701
2706.73	0.699
2715.75	0.696
2724.77	0.693
2733.79	0.689
2742.82	0.686
2751.84	0.677
2760.86	0.673
2769.89	0.668
2778.91	0.665
2787.93	0.642
2796.96	0.625
2805.98	0.603
2815	0.598
2824.02	0.59
2833.05	0.587
2842.07	0.582
2851.09	0.576
2860.12	0.578
2869.14	0.585
2878.16	0.586
2887.19	0.58
2896.21	0.558
2905.23	0.514
2914.26	0.483
2923.28	0.451
2932.3	0.411
2941.32	0.394
2950.35	0.435
2959.37	0.475
2968.39	0.467
2977.42	0.443
2986.44	0.436
2995.46	0.443
3004.49	0.454
3013.51	0.467
3022.53	0.485
3031.56	0.483
3040.58	0.471
3049.6	0.459
3058.62	0.445
3067.65	0.435
3076.67	0.449
3085.69	0.479
3094.72	0.49
3103.74	0.496
3112.76	0.497
3121.79	0.494
3130.81	0.49
3139.83	0.484
3148.85	0.467
3157.88	0.447
3166.9	0.423
3175.92	0.392
3184.95	0.363
3193.97	0.338
3202.99	0.314
3212.02	0.302
3221.04	0.274
3230.06	0.255
3239.09	0.221
3248.11	0.185
3257.13	0.152
3266.15	0.118
3275.18	0.08
3284.2	0.084
3293.22	0.086
3302.25	0.097
3311.27	0.112
3320.29	0.137
3329.32	0.158
3338.34	0.174
3347.36	0.187
3356.38	0.198
3365.41	0.204
3374.43	0.219
3383.45	0.22
3392.48	0.225
3401.5	0.227
3410.52	0.227
3419.55	0.238
3428.57	0.241
3437.59	0.247
3446.62	0.267
3455.64	0.273
3464.66	0.285
3473.68	0.298
3482.71	0.304
3491.73	0.311
3500.75	0.32
3509.78	0.331
3518.8	0.342
3527.82	0.351
3536.85	0.362
3545.87	0.381
3554.89	0.393
3563.91	0.405
3572.94	0.415
3581.96	0.426
3590.98	0.448
3600.01	0.47
3609.03	0.49
3618.05	0.507
3627.08	0.52
3636.1	0.528
3645.12	0.546
3654.15	0.553
3663.17	0.565
3672.19	0.579
3681.21	0.587
3690.24	0.588
3699.26	0.591
3708.28	0.594
3717.31	0.593
3726.33	0.599
3735.35	0.605
3744.38	0.611
3753.4	0.616
3762.42	0.613
3771.44	0.612
3780.47	0.612
3789.49	0.612
3798.51	0.612
3807.54	0.612
3816.56	0.614
3825.58	0.613
3834.61	0.61
3843.63	0.612
3852.65	0.613
3861.68	0.613
3870.7	0.611
3879.72	0.609
3888.74	0.611
3897.77	0.614
3906.79	0.612
3915.81	0.61
3924.84	0.612
3933.86	0.614
3942.88	0.615
3951.91	0.612
3960.93	0.609
3969.95	0.604
3978.97	0.603
3988	0.6
3997.02	0.589
