Infrared Spectrum: 2-(1,1,3,3-TETRAMETHYLBUTYL)-P-CRESOL
Formula: C15 H24 O
CAS: 4979-46-8
State: SOLID (MELT)
Melting point: 46-48 C
Class: COBLENTZ
Instrument: Not specified, most likely a prism, grating, or hybrid spectrometer.
Sampling: TRANSMISSION
Resolution: 4
Origin: TENNESSEE EASTMAN COMPANY, RESEARCH LABORATORIES
MICROMETERS	TRANSMITTANCE
2.014	0.957
2.05489	0.962
2.09579	0.96
2.13668	0.962
2.17757	0.967
2.21847	0.96
2.25936	0.94
2.30026	0.924
2.34115	0.933
2.38204	0.936
2.42294	0.938
2.46383	0.94
2.50472	0.947
2.54562	0.947
2.58651	0.945
2.6274	0.941
2.6683	0.948
2.70919	0.94
2.75009	0.594
2.79098	0.488
2.83187	0.338
2.87277	0.543
2.91366	0.683
2.95455	0.782
2.99545	0.832
3.03634	0.87
3.07724	0.882
3.11813	0.888
3.15902	0.897
3.19992	0.902
3.24081	0.888
3.2817	0.707
3.3226	0.437
3.36349	0.058
3.40438	0.071
3.44528	0.141
3.48617	0.353
3.52707	0.758
3.56796	0.844
3.60885	0.88
3.64975	0.876
3.69064	0.876
3.73153	0.897
3.77243	0.9
3.81332	0.907
3.85421	0.928
3.89511	0.928
3.936	0.931
3.9769	0.931
4.01779	0.924
4.05868	0.921
4.09958	0.928
4.14047	0.928
4.18136	0.928
4.22226	0.928
4.26315	0.921
4.30404	0.917
4.34494	0.928
4.38583	0.936
4.42673	0.941
4.46762	0.952
4.50851	0.953
4.54941	0.953
4.5903	0.952
4.63119	0.953
4.67209	0.953
4.71298	0.953
4.75388	0.955
4.79477	0.955
4.83566	0.957
4.87656	0.953
4.91745	0.95
4.95834	0.94
4.99924	0.947
5.04013	0.948
5.08102	0.948
5.12192	0.948
5.16281	0.948
5.20371	0.948
5.2446	0.948
5.28549	0.941
5.32639	0.928
5.36728	0.914
5.40817	0.921
5.44907	0.931
5.48996	0.928
5.53085	0.911
5.57175	0.923
5.61264	0.933
5.65354	0.912
5.69443	0.897
5.73532	0.88
5.77622	0.887
5.81711	0.899
5.858	0.9
5.8989	0.894
5.93979	0.897
5.98068	0.892
6.02158	0.89
6.06247	0.87
6.10337	0.876
6.14426	0.859
6.18515	0.794
6.22605	0.702
6.26694	0.805
6.30783	0.837
6.34873	0.861
6.38962	0.859
6.43052	0.841
6.47141	0.81
6.5123	0.789
6.5532	0.611
6.59409	0.268
6.63498	0.258
6.67588	0.317
6.71677	0.215
6.75766	0.218
6.79856	0.242
6.83945	0.287
6.88035	0.357
6.92124	0.471
6.96213	0.552
7.00303	0.541
7.04392	0.374
7.08481	0.264
7.12571	0.376
7.1666	0.355
7.20749	0.454
7.24839	0.598
7.28928	0.483
7.33018	0.177
7.37107	0.478
7.41196	0.572
7.45286	0.541
7.49375	0.442
7.53464	0.271
7.57554	0.482
7.61643	0.652
7.65732	0.748
7.69822	0.745
7.73911	0.608
7.78001	0.505
7.8209	0.635
7.86179	0.671
7.90269	0.541
7.94358	0.314
7.98447	0.246
8.02537	0.179
8.06626	0.3
8.10716	0.394
8.14805	0.408
8.18894	0.348
8.22984	0.287
8.27073	0.278
8.31162	0.278
8.35252	0.241
8.39341	0.165
8.4343	0.119
8.4752	0.165
8.51609	0.276
8.55699	0.336
8.59788	0.393
8.63877	0.507
8.67967	0.603
8.72056	0.596
8.76145	0.42
8.80235	0.259
8.84324	0.408
8.88413	0.441
8.92503	0.492
8.96592	0.639
9.00682	0.705
9.04771	0.735
9.0886	0.748
9.1295	0.747
9.17039	0.704
9.21128	0.483
9.25218	0.278
9.29307	0.488
9.33396	0.685
9.37486	0.748
9.41575	0.779
9.45665	0.788
9.49754	0.788
9.53843	0.772
9.57933	0.748
9.62022	0.748
9.66111	0.76
9.70201	0.764
9.7429	0.798
9.7838	0.818
9.82469	0.815
9.86558	0.788
9.90648	0.779
9.94737	0.806
9.98826	0.815
10.0292	0.818
10.0701	0.823
10.1109	0.827
10.1518	0.815
10.1927	0.764
10.2336	0.74
10.2745	0.798
10.3154	0.832
10.3563	0.849
10.3972	0.858
10.4381	0.859
10.479	0.858
10.5199	0.847
10.5608	0.829
10.6017	0.796
10.6426	0.777
10.6835	0.789
10.7243	0.794
10.7652	0.798
10.8061	0.788
10.847	0.772
10.8879	0.796
10.9288	0.83
10.9697	0.858
11.0106	0.868
11.0515	0.868
11.0924	0.841
11.1333	0.779
11.1742	0.75
11.2151	0.813
11.256	0.823
11.2969	0.793
11.3378	0.714
11.3786	0.658
11.4195	0.699
11.4604	0.762
11.5013	0.76
11.5422	0.806
11.5831	0.842
11.624	0.858
11.6649	0.864
11.7058	0.868
11.7467	0.873
11.7876	0.871
11.8285	0.87
11.8694	0.863
11.9103	0.852
11.9512	0.839
11.9921	0.818
12.0329	0.774
12.0738	0.692
12.1147	0.594
12.1556	0.519
12.1965	0.432
12.2374	0.335
12.2783	0.252
12.3192	0.191
12.3601	0.169
12.401	0.203
12.4419	0.34
12.4828	0.557
12.5237	0.702
12.5646	0.764
12.6055	0.794
12.6464	0.806
12.6872	0.81
12.7281	0.811
12.769	0.808
12.8099	0.789
12.8508	0.752
12.8917	0.654
12.9326	0.507
12.9735	0.4
13.0144	0.413
13.0553	0.54
13.0962	0.651
13.1371	0.721
13.178	0.752
13.2189	0.764
13.2598	0.769
13.3006	0.772
13.3415	0.776
13.3824	0.779
13.4233	0.774
13.4642	0.77
13.5051	0.776
13.546	0.786
13.5869	0.789
13.6278	0.789
13.6687	0.789
13.7096	0.789
13.7505	0.786
13.7914	0.781
13.8323	0.777
13.8732	0.777
13.9141	0.774
13.9549	0.769
13.9958	0.767
14.0367	0.758
14.0776	0.753
14.1185	0.748
14.1594	0.745
14.2003	0.741
14.2412	0.736
14.2821	0.731
14.323	0.723
14.3639	0.714
14.4048	0.702
14.4457	0.692
14.4866	0.69
14.5275	0.694
14.5684	0.695
14.6092	0.694
14.6501	0.69
14.691	0.682
14.7319	0.673
14.7728	0.666
14.8137	0.661
14.8546	0.656
14.8955	0.647
14.9364	0.637
14.9773	0.63
15.0182	0.622
15.0591	0.622
15.1	0.613
15.1409	0.606
15.1818	0.6
15.2227	0.594
15.2635	0.589
15.3044	0.582
15.3453	0.579
15.3862	0.577
15.4271	0.572
15.468	0.567
15.5089	0.564
15.5498	0.555
15.5907	0.553
15.6316	0.552
15.6725	0.548
15.7134	0.548
15.7543	0.547
15.7952	0.543
15.8361	0.541
15.877	0.54
15.9178	0.54
15.9587	0.541
