Infrared Spectrum: Cyclopentanecarboxylic acid, 3-amino-, cis-
Formula: C6 H11 N O2
CAS: 49805-32-5
State: SOLID (0.9 mg / 650 mg KBr DISC)
Class: COBLENTZ III
Instrument: PERKIN-ELMER 221-G (GRATING)
Sampling: TRANSMISSION
Resolution: 2
Origin: SOUTHERN RESEARCH INSTITUTE
1/CM	TRANSMITTANCE
627	0.9807
636	0.9674
645	0.9525
654	0.938
663	0.9244
672	0.9114
681	0.8992
690	0.8863
699	0.8644
708	0.8289
717	0.7651
726	0.5655
735	0.4083
744	0.6389
753	0.7929
762	0.7159
771	0.7117
780	0.8208
789	0.7808
798	0.8143
807	0.883
816	0.8907
825	0.8914
834	0.8879
843	0.8494
852	0.8601
861	0.8834
870	0.876
879	0.8546
888	0.8794
897	0.888
906	0.8788
915	0.8472
924	0.7759
933	0.8522
942	0.8608
951	0.8449
960	0.7842
969	0.8279
978	0.789
987	0.7429
996	0.6729
1005	0.7492
1014	0.7937
1023	0.762
1032	0.7292
1041	0.7471
1050	0.8019
1059	0.8008
1068	0.7828
1077	0.7051
1086	0.7438
1095	0.7348
1104	0.642
1113	0.7446
1122	0.7645
1131	0.7637
1140	0.7565
1149	0.7329
1158	0.6899
1167	0.5851
1176	0.6728
1185	0.6994
1194	0.6781
1203	0.568
1212	0.5946
1221	0.568
1230	0.5569
1239	0.6385
1248	0.613
1257	0.5629
1266	0.383
1275	0.4086
1284	0.4216
1293	0.1901
1302	0.4083
1311	0.3163
1320	0.1146
1329	0.3116
1338	0.5222
1347	0.5201
1356	0.4109
1365	0.2743
1374	0.1747
1383	0.1742
1392	0.1015
1401	0.0959
1410	0.1955
1419	0.3201
1428	0.197
1437	0.427
1446	0.4724
1455	0.4511
1464	0.4126
1473	0.3771
1482	0.2718
1491	0.2283
1500	0.1003
1509	0.0453
1518	0.0295
1527	0.0564
1536	0.0709
1545	0.0436
1554	0.0282
1563	0.0253
1572	0.02
1581	0.021
1590	0.114
1599	0.2131
1608	0.301
1617	0.3077
1626	0.2895
1635	0.2789
1644	0.3352
1653	0.254
1662	0.2844
1671	0.4546
1680	0.5621
1689	0.5967
1698	0.6813
1707	0.7079
1716	0.7328
1725	0.7727
1734	0.7846
1743	0.7961
1752	0.8066
1761	0.8163
1770	0.8266
1779	0.837
1788	0.8482
1797	0.8584
1806	0.8645
1815	0.8649
1824	0.8593
1833	0.8613
1842	0.869
1851	0.8805
1860	0.881
1869	0.8791
1878	0.8786
1887	0.8815
1896	0.8825
1905	0.8762
1914	0.8705
1923	0.8636
1932	0.8522
1941	0.8434
1950	0.8386
1959	0.8337
1968	0.8245
1977	0.816
1986	0.8109
1995	0.8015
2004	0.8062
2013	0.808
2022	0.8115
2031	0.809
2040	0.8034
2049	0.7952
2058	0.7933
2067	0.7924
2076	0.79
2085	0.7755
2094	0.7656
2103	0.7561
2112	0.7436
2121	0.7268
2130	0.7112
2139	0.6888
2148	0.6628
2157	0.6271
2166	0.59
2175	0.5427
2184	0.5009
2193	0.4607
2202	0.4158
2211	0.3751
2220	0.3253
2229	0.3144
2238	0.3214
2247	0.358
2256	0.4089
2265	0.4824
2274	0.5773
2283	0.5974
2292	0.6054
2301	0.6038
2310	0.5966
2319	0.5778
2328	0.5587
2337	0.5401
2346	0.5263
2355	0.5194
2364	0.5149
2373	0.503
2382	0.4887
2391	0.4728
2400	0.455
2409	0.4364
2418	0.4172
2427	0.3953
2436	0.3594
2445	0.338
2454	0.3229
2463	0.3143
2472	0.2866
2481	0.2619
2490	0.2431
2499	0.2246
2508	0.2072
2517	0.1891
2526	0.167
2535	0.1497
2544	0.1396
2553	0.1372
2562	0.1374
2571	0.1383
2580	0.1355
2589	0.1273
2598	0.1255
2607	0.1262
2616	0.1269
2625	0.1271
2634	0.127
2643	0.127
2652	0.126
2661	0.1197
2670	0.106
2679	0.1032
2688	0.1017
2697	0.0997
2706	0.0983
2715	0.1057
2724	0.1211
2733	0.1315
2742	0.138
2751	0.142
2760	0.1423
2769	0.1378
2778	0.1299
2787	0.1185
2796	0.1085
2805	0.103
2814	0.1079
2823	0.1165
2832	0.12
2841	0.119
2850	0.1221
2859	0.1293
2868	0.139
2877	0.1433
2886	0.1412
2895	0.1376
2904	0.1344
2913	0.1305
2922	0.1277
2931	0.127
2940	0.126
2949	0.1311
2958	0.1339
2967	0.1137
2976	0.1799
2985	0.2147
2994	0.2435
3003	0.2628
3012	0.2787
3021	0.2929
3030	0.3069
3039	0.3211
3048	0.34
3057	0.377
3066	0.4119
3075	0.4296
3084	0.4584
3093	0.484
3102	0.5092
3111	0.5255
3120	0.5394
3129	0.5534
3138	0.5882
3147	0.6039
3156	0.6144
3165	0.6263
3174	0.6373
3183	0.6458
3192	0.6516
3201	0.6563
3210	0.675
3219	0.6904
3228	0.6974
3237	0.7002
3246	0.7022
3255	0.7025
3264	0.7024
3273	0.702
3282	0.7015
3291	0.7009
3300	0.6997
3309	0.6985
3318	0.696
3327	0.6934
3336	0.6903
3345	0.6868
3354	0.6828
3363	0.678
3372	0.6741
3381	0.6712
3390	0.6694
3399	0.6693
3408	0.6703
3417	0.6722
3426	0.6749
3435	0.6789
3444	0.685
3453	0.6925
3462	0.6998
3471	0.7068
3480	0.7137
3489	0.7207
3498	0.7277
3507	0.7349
3516	0.7436
3525	0.7527
3534	0.7633
3543	0.7743
3552	0.7866
3561	0.7986
3570	0.8105
3579	0.8244
3588	0.8396
3597	0.8526
3606	0.8612
3615	0.8723
3624	0.8825
3633	0.8905
3642	0.8901
3651	0.8914
3660	0.8928
3669	0.8966
3678	0.9026
3687	0.9079
3696	0.9099
3705	0.9104
3714	0.9105
3723	0.9105
3732	0.9104
3741	0.9103
3750	0.9104
3759	0.9105
3768	0.9109
3777	0.9113
3786	0.912
3795	0.913
3804	0.914
3813	0.915
3822	0.9155
3831	0.9159
3840	0.9164
3849	0.9168
3858	0.9173
3867	0.9177
3876	0.9181
3885	0.9185
3894	0.9188
3903	0.9192
3912	0.9196
3921	0.9197
3930	0.9198
3939	0.9199
3948	0.9202
3957	0.9205
3966	0.9209
3975	0.9214
3984	0.9218
3993	0.9222
