Infrared Spectrum: 1,4-Dimethylenecyclohexane
Formula: C 8 H 12
CAS: 4982-20-1
State: gas
Instrument: HP-GC/MS/IRD
Origin: NIST Mass Spectrometry Data Center
1/CM	ABSORBANCE
550	0.0003828
562	5.64e-05
574	6.3e-05
586	0.0001812
598	0.0001722
610	0.0002406
622	0.0002922
634	0.0002226
646	0.0002754
658	0.0002856
670	0.00036
682	0.0007062
694	0.0012456
706	0.0007428
718	0.0003768
730	0.0002904
742	0.0003414
754	0.0003114
766	0.0003324
778	0.0005148
790	0.0005604
802	0.000444
814	0.0003762
826	0.00027
838	0.000372
850	0.0004308
862	0.0006918
874	0.0015294
886	0.0028752
898	0.0036804
910	0.0021042
922	0.0008772
934	0.0004662
946	0.0003738
958	0.0003486
970	0.0004674
982	0.0005004
994	0.0004368
1006	0.0003462
1018	0.0003048
1030	0.0002976
1042	0.0003006
1054	0.0002676
1066	0.0002856
1078	0.0002676
1090	0.0002916
1102	0.0002424
1114	0.0002496
1126	0.0003366
1138	0.0003528
1150	0.0004458
1162	0.000513
1174	0.0004788
1186	0.00045
1198	0.0003414
1210	0.0003084
1222	0.0002562
1234	0.0002778
1246	0.0002154
1258	0.0001974
1270	0.0002256
1282	0.0002766
1294	0.000324
1306	0.0005322
1318	0.000609
1330	0.0004746
1342	0.0003018
1354	0.0002724
1366	0.0002928
1378	0.000348
1390	0.0004812
1402	0.000576
1414	0.0006192
1426	0.0008652
1438	0.0013296
1450	0.0014334
1462	0.000945
1474	0.0004752
1486	0.0002742
1498	0.000225
1510	0.0002364
1522	0.0002604
1534	0.0002268
1546	0.0002046
1558	0.0002124
1570	0.000246
1582	0.0002634
1594	0.000273
1606	0.0003096
1618	0.0003876
1630	0.000783
1642	0.0015954
1654	0.0018
1666	0.0010374
1678	0.000375
1690	0.0002586
1702	0.0002232
1714	0.0001926
1726	0.0001668
1738	0.0001788
1750	0.0001752
1762	0.0002052
1774	0.0002988
1786	0.000432
1798	0.0004206
1810	0.0002796
1822	0.000162
1834	0.000138
1846	0.0001248
1858	0.000132
1870	0.0001218
1882	0.0001038
1894	0.0001104
1906	0.000111
1918	0.0001062
1930	9.12e-05
1942	9.24e-05
1954	9.9e-05
1966	8.22e-05
1978	8.52e-05
1990	8.88e-05
2002	7.86e-05
2014	7.92e-05
2026	9e-05
2038	8.28e-05
2050	7.56e-05
2062	7.44e-05
2074	8.28e-05
2086	6.84e-05
2098	8.82e-05
2110	6.78e-05
2122	7.08e-05
2134	7.32e-05
2146	6.18e-05
2158	7.02e-05
2170	4.14e-05
2182	4.86e-05
2194	6.18e-05
2206	5.94e-05
2218	7.2e-05
2230	7.62e-05
2242	5.22e-05
2254	3.54e-05
2266	5.22e-05
2278	4.32e-05
2290	4.44e-05
2302	1.62e-05
2314	3.54e-05
2326	5.34e-05
2338	2.88e-05
2350	2.4e-05
2362	4.32e-05
2374	1.44e-05
2386	3.42e-05
2398	2.64e-05
2410	6e-05
2422	5.22e-05
2434	4.74e-05
2446	2.94e-05
2458	3.24e-05
2470	2.04e-05
2482	4.62e-05
2494	2.64e-05
2506	4.2e-05
2518	1.08e-05
2530	2.7e-05
2542	9e-06
2554	1.32e-05
2566	2.04e-05
2578	2.28e-05
2590	4.2e-05
2602	3.54e-05
2614	2.94e-05
2626	4.2e-05
2638	5.16e-05
2650	5.64e-05
2662	5.28e-05
2674	2.28e-05
2686	1.8e-05
2698	3.12e-05
2710	5.34e-05
2722	7.14e-05
2734	5.76e-05
2746	9.9e-05
2758	9.18e-05
2770	0.000114
2782	0.0001212
2794	0.0001218
2806	0.0001542
2818	0.0002442
2830	0.0006192
2842	0.0012972
2854	0.0017694
2866	0.0013548
2878	0.0010566
2890	0.00135
2902	0.0019404
2914	0.0025938
2926	0.0033024
2938	0.0056646
2950	0.0056214
2962	0.003165
2974	0.0014586
2986	0.0015822
2998	0.0013188
3010	0.000492
3022	0.0003006
3034	0.0003174
3046	0.0003954
3058	0.0007752
3070	0.0015954
3082	0.0015396
3094	0.0008928
3106	0.00027
3118	0.000156
3130	8.28e-05
3142	6.24e-05
3154	2.52e-05
3166	3.24e-05
3178	4.44e-05
3190	3.36e-05
3202	4.32e-05
3214	5.22e-05
3226	4.08e-05
3238	5.52e-05
3250	5.34e-05
3262	7.56e-05
3274	9.42e-05
3286	6.24e-05
3298	0.0001158
3310	0.000108
3322	7.86e-05
3334	0.000111
3346	0.000117
3358	8.28e-05
3370	6.36e-05
3382	6.72e-05
3394	0.0001002
3406	8.04e-05
3418	0.0001068
3430	5.88e-05
3442	7.8e-05
3454	9.84e-05
3466	0.0001266
3478	8.7e-05
3490	7.8e-05
3502	9.36e-05
3514	0.0001146
3526	7.5e-05
3538	9.06e-05
3550	7.8e-05
3562	0.0001074
3574	9.24e-05
3586	0.000123
3598	0.0001176
3610	0.000123
3622	6.84e-05
3634	0.0001536
3646	0.00012
3658	0.0001098
3670	0.0001026
3682	7.74e-05
3694	0.0001062
3706	0.0001086
3718	0.000102
3730	9.18e-05
3742	0.0001152
3754	0.0001488
3766	0.000105
3778	6.66e-05
3790	0.0001164
3802	0.0001164
3814	0.0001242
3826	0.0001662
3838	0.000147
