Infrared Spectrum: Pyrimidine, 2,4-dichloro-5-nitro-
Formula: C4 H Cl2 N3 O2
CAS: 49845-33-2
State: LIQUID (NEAT)
Melting point: 30-31 C
Class: COBLENTZ III
Instrument: PERKIN-ELMER 21 (GRATING)
Instrument parameters: FILTER CHANGE ABOUT 1085 CM^-^1
Path length: CAPILLARY
Resolution: 2
Origin: SOUTHERN RESEARCH INSTITUTE
1/CM	TRANSMITTANCE
633	0.5244
641	0.5457
649	0.5775
657	0.5871
665	0.5805
673	0.5414
681	0.1456
689	0.1697
697	0.4888
705	0.7078
713	0.7099
721	0.6921
729	0.6693
737	0.7244
745	0.7199
753	0.6975
761	0.4406
769	0.2217
777	0.616
785	0.7053
793	0.5757
801	0.1263
809	0.3934
817	0.607
825	0.7235
833	0.7094
841	0.6511
849	0.4035
857	0.288
865	0.0541
873	0.0517
881	0.0961
889	0.4996
897	0.7338
905	0.7746
913	0.785
921	0.7819
929	0.7612
937	0.732
945	0.6788
953	0.4964
961	0.5473
969	0.6934
977	0.7402
985	0.7715
993	0.7764
1001	0.7767
1009	0.772
1017	0.7658
1025	0.7593
1033	0.7474
1041	0.7282
1049	0.6559
1057	0.3759
1065	0.2009
1073	0.5171
1081	0.6802
1089	0.6894
1097	0.686
1105	0.6643
1113	0.6406
1121	0.6769
1129	0.7087
1137	0.7058
1145	0.6919
1153	0.6411
1161	0.4534
1169	0.2023
1177	0.0808
1185	0.1151
1193	0.091
1201	0.0463
1209	0.0536
1217	0.2111
1225	0.4381
1233	0.5441
1241	0.595
1249	0.638
1257	0.6584
1265	0.654
1273	0.6214
1281	0.5464
1289	0.2578
1297	0.0578
1305	0.0506
1313	0.1254
1321	0.2132
1329	0.111
1337	0.0421
1345	0.0389
1353	0.039
1361	0.0391
1369	0.0404
1377	0.0416
1385	0.0832
1393	0.1205
1401	0.1399
1409	0.2222
1417	0.376
1425	0.544
1433	0.6083
1441	0.6186
1449	0.6021
1457	0.566
1465	0.5712
1473	0.571
1481	0.5189
1489	0.329
1497	0.1574
1505	0.0642
1513	0.0558
1521	0.0497
1529	0.0399
1537	0.0362
1545	0.0372
1553	0.0399
1561	0.0427
1569	0.0469
1577	0.088
1585	0.1771
1593	0.2831
1601	0.3806
1609	0.4382
1617	0.4858
1625	0.5608
1633	0.6442
1641	0.6736
1649	0.6852
1657	0.6913
1665	0.6968
1673	0.7015
1681	0.7045
1689	0.7057
1697	0.7032
1705	0.6981
1713	0.6924
1721	0.6914
1729	0.6924
1737	0.6949
1745	0.7048
1753	0.7179
1761	0.7357
1769	0.7482
1777	0.7539
1785	0.7562
1793	0.757
1801	0.7552
1809	0.7563
1817	0.7554
1825	0.7524
1833	0.7482
1841	0.7387
1849	0.725
1857	0.7127
1865	0.7059
1873	0.7046
1881	0.7114
1889	0.7218
1897	0.7254
1905	0.727
1913	0.7279
1921	0.7281
1929	0.7279
1937	0.7295
1945	0.7357
1953	0.7429
1961	0.7436
1969	0.743
1977	0.7412
1985	0.7432
1993	0.7493
2001	0.7523
2009	0.7524
2017	0.7511
2025	0.7497
2033	0.7471
2041	0.7423
2049	0.7354
2057	0.7268
2065	0.721
2073	0.7262
2081	0.7345
2089	0.7413
2097	0.7467
2105	0.7482
2113	0.7485
2121	0.7482
2129	0.7467
2137	0.7457
2145	0.7445
2153	0.742
2161	0.736
2169	0.733
2177	0.734
2185	0.7348
2193	0.7335
2201	0.7297
2209	0.7222
2217	0.7146
2225	0.7093
2233	0.7086
2241	0.7091
2249	0.7116
2257	0.7148
2265	0.7213
2273	0.7303
2281	0.7303
2289	0.7271
2297	0.7209
2305	0.713
2313	0.7059
2321	0.7
2329	0.6944
2337	0.6893
2345	0.685
2353	0.6838
2361	0.6832
2369	0.6825
2377	0.6807
2385	0.6785
2393	0.676
2401	0.6775
2409	0.6818
2417	0.685
2425	0.6819
2433	0.6793
2441	0.6738
2449	0.6635
2457	0.6496
2465	0.6385
2473	0.644
2481	0.6564
2489	0.6739
2497	0.6935
2505	0.6924
2513	0.6881
2521	0.6837
2529	0.6841
2537	0.685
2545	0.6867
2553	0.6898
2561	0.6935
2569	0.6973
2577	0.7009
2585	0.7042
2593	0.7053
2601	0.7056
2609	0.7034
2617	0.7012
2625	0.6989
2633	0.6966
2641	0.6945
2649	0.6928
2657	0.6911
2665	0.6901
2673	0.6891
2681	0.6887
2689	0.6904
2697	0.6922
2705	0.6939
2713	0.6955
2721	0.6971
2729	0.6987
2737	0.7002
2745	0.7017
2753	0.7032
2761	0.7043
2769	0.6994
2777	0.6925
2785	0.6825
2793	0.6722
2801	0.6617
2809	0.6516
2817	0.6426
2825	0.6383
2833	0.6349
2841	0.6319
2849	0.6289
2857	0.6259
2865	0.6259
2873	0.6259
2881	0.6286
2889	0.637
2897	0.6531
2905	0.6669
2913	0.677
2921	0.6815
2929	0.6835
2937	0.6855
2945	0.6858
2953	0.6846
2961	0.6815
2969	0.6761
2977	0.6667
2985	0.6513
2993	0.6272
3001	0.5923
3009	0.5605
3017	0.5291
3025	0.5152
3033	0.5233
3041	0.5452
3049	0.5738
3057	0.5836
3065	0.5794
3073	0.5715
3081	0.579
3089	0.6066
3097	0.6271
3105	0.6408
3113	0.6648
3121	0.6763
3129	0.6822
3137	0.686
3145	0.6887
3153	0.6902
3161	0.6903
3169	0.6903
3177	0.69
3185	0.6896
3193	0.6894
3201	0.6887
3209	0.6879
3217	0.6896
3225	0.6927
3233	0.6937
3241	0.6941
3249	0.6941
3257	0.6939
3265	0.6937
3273	0.6934
3281	0.6929
3289	0.6925
3297	0.692
3305	0.6915
3313	0.6909
3321	0.6903
3329	0.6896
3337	0.689
3345	0.6884
3353	0.6881
3361	0.6878
3369	0.6875
3377	0.6873
3385	0.6873
3393	0.6875
3401	0.6878
3409	0.688
3417	0.6881
3425	0.6881
3433	0.6882
3441	0.6881
3449	0.688
3457	0.6879
3465	0.6877
3473	0.6877
3481	0.6881
3489	0.6884
3497	0.6888
3505	0.6891
3513	0.6895
3521	0.6898
3529	0.69
3537	0.6903
3545	0.6906
3553	0.6907
3561	0.6907
3569	0.6908
3577	0.6901
3585	0.6888
3593	0.6874
3601	0.686
3609	0.684
3617	0.6819
3625	0.6799
3633	0.6791
3641	0.6795
3649	0.6803
3657	0.6835
3665	0.6864
3673	0.6885
3681	0.6906
3689	0.6925
3697	0.6945
3705	0.6959
3713	0.6971
3721	0.6978
3729	0.6976
3737	0.6974
3745	0.6971
3753	0.6967
3761	0.6964
3769	0.6964
3777	0.6966
3785	0.6968
3793	0.6972
