Infrared Spectrum: 3,7-Dimethyl-1-octene
Formula: C 10 H 20
CAS: 4984-01-4
State: gas
Instrument: HP-GC/MS/IRD
Origin: NIST Mass Spectrometry Data Center
1/CM	ABSORBANCE
550	0.0003328
562	0.0001632
574	1.92e-05
586	2.24e-05
598	5.44e-05
610	0.000128
622	0.0001216
634	0.0001824
646	0.0002912
658	0.0006624
670	0.0010176
682	0.0009504
694	0.000432
706	0.000352
718	0.0004352
730	0.000512
742	0.0004544
754	0.0002688
766	0.0002176
778	0.0002144
790	0.0002656
802	0.0002528
814	0.0002784
826	0.0003552
838	0.0004032
850	0.000464
862	0.000448
874	0.00064
886	0.0010016
898	0.0023104
910	0.0058816
922	0.0044064
934	0.001776
946	0.0011648
958	0.0010144
970	0.0010944
982	0.0017696
994	0.0028128
1006	0.001696
1018	0.0008672
1030	0.0007136
1042	0.0006624
1054	0.000608
1066	0.0004384
1078	0.0003968
1090	0.0003744
1102	0.0004256
1114	0.0005696
1126	0.0006144
1138	0.0007008
1150	0.0007008
1162	0.0009408
1174	0.0008512
1186	0.0004288
1198	0.0003936
1210	0.0004576
1222	0.000384
1234	0.0004064
1246	0.0003968
1258	0.0004064
1270	0.0005248
1282	0.0006336
1294	0.0007136
1306	0.0007936
1318	0.0009504
1330	0.0010912
1342	0.0011904
1354	0.0014944
1366	0.0024352
1378	0.003248
1390	0.002688
1402	0.001392
1414	0.0014848
1426	0.0015136
1438	0.0015872
1450	0.002768
1462	0.003968
1474	0.003264
1486	0.001552
1498	0.0007136
1510	0.0004032
1522	0.000272
1534	0.0001888
1546	0.0001952
1558	0.0001984
1570	0.0002688
1582	0.0003104
1594	0.000352
1606	0.0004064
1618	0.0006816
1630	0.0014112
1642	0.0017696
1654	0.0008928
1666	0.000416
1678	0.0002848
1690	0.0001952
1702	0.0001568
1714	0.000128
1726	0.0001088
1738	8.32e-05
1750	8.64e-05
1762	5.76e-05
1774	9.28e-05
1786	8.96e-05
1798	0.0001216
1810	0.0002208
1822	0.0004832
1834	0.0004928
1846	0.0002272
1858	9.92e-05
1870	9.6e-05
1882	4.8e-05
1894	7.04e-05
1906	4.48e-05
1918	3.52e-05
1930	3.2e-05
1942	1.92e-05
1954	3.84e-05
1966	5.44e-05
1978	6.72e-05
1990	5.12e-05
2002	5.44e-05
2014	4.16e-05
2026	3.84e-05
2038	4.16e-05
2050	5.76e-05
2062	3.84e-05
2074	1.6e-05
2086	2.56e-05
2098	2.88e-05
2110	2.24e-05
2122	1.92e-05
2134	0
2146	3.84e-05
2158	4.16e-05
2170	3.84e-05
2182	4.16e-05
2194	3.52e-05
2206	3.52e-05
2218	2.24e-05
2230	2.56e-05
2242	3.2e-05
2254	4.8e-05
2266	4.16e-05
2278	6.4e-05
2290	9.28e-05
2302	6.72e-05
2314	6.4e-05
2326	4.16e-05
2338	8e-05
2350	7.04e-05
2362	6.72e-05
2374	7.04e-05
2386	9.6e-05
2398	9.28e-05
2410	9.6e-05
2422	0.0001024
2434	0.0001056
2446	9.6e-05
2458	7.68e-05
2470	6.72e-05
2482	9.28e-05
2494	0.0001248
2506	0.0001248
2518	0.0001248
2530	0.000144
2542	0.0001568
2554	0.0001824
2566	0.0002048
2578	0.0002528
2590	0.0002688
2602	0.0002912
2614	0.0003008
2626	0.0003264
2638	0.0003296
2650	0.0003296
2662	0.0003264
2674	0.0003296
2686	0.000384
2698	0.0004224
2710	0.0004576
2722	0.0005728
2734	0.0006432
2746	0.0006112
2758	0.0005952
2770	0.0006464
2782	0.0007392
2794	0.0009216
2806	0.0011712
2818	0.0015264
2830	0.0022112
2842	0.0039936
2854	0.0073056
2866	0.0103072
2878	0.0132544
2890	0.0131776
2902	0.01504
2914	0.0191264
2926	0.0229888
2938	0.0248096
2950	0.023168
2962	0.0309536
2974	0.0248864
2986	0.0095552
2998	0.004976
3010	0.0032416
3022	0.0020416
3034	0.0014944
3046	0.0014304
3058	0.0016768
3070	0.0024192
3082	0.0036128
3094	0.0026464
3106	0.0011552
3118	0.000768
3130	0.0006016
3142	0.0005632
3154	0.0005376
3166	0.0005088
3178	0.0005216
3190	0.0004384
3202	0.0003872
3214	0.0003168
3226	0.00024
3238	0.000192
3250	0.0001792
3262	0.0001504
3274	0.0001568
3286	0.0001728
3298	0.0001376
3310	0.0001536
3322	0.0001216
3334	0.00016
3346	0.0001472
3358	0.0001408
3370	0.0001536
3382	8.32e-05
3394	0.0001344
3406	0.0001024
3418	9.92e-05
3430	8.96e-05
3442	5.76e-05
3454	0.0001152
3466	4.48e-05
3478	8e-05
3490	5.76e-05
3502	4.8e-05
3514	4.48e-05
3526	4.48e-05
3538	6.72e-05
3550	4.16e-05
3562	1.92e-05
3574	4.8e-05
3586	4.16e-05
3598	6.4e-05
3610	5.44e-05
3622	3.52e-05
3634	7.36e-05
3646	5.76e-05
3658	6.08e-05
3670	8.32e-05
3682	7.36e-05
3694	8e-05
3706	4.8e-05
3718	8e-05
3730	0.0001088
3742	5.76e-05
3754	4.8e-05
3766	3.2e-05
3778	8.32e-05
3790	6.08e-05
3802	0.0001184
3814	0.000112
3826	0.0001184
3838	0.0001376
