Infrared Spectrum: 3-Fluorobenzhydrazide
Formula: C 7 H 7 F N 2 O
CAS: 499-55-8
State: gas
Origin: EPA-IR VAPOR PHASE LIBRARY
1/CM	ABSORBANCE
549.8	0.002073
559.445	0.001833
569.09	0.001543
578.734	0.001483
588.379	0.001563
598.024	0.0010997
607.669	0.001363
617.313	0.001623
626.958	0.0012692
636.603	0.001463
646.248	0.001343
655.893	0.001423
665.537	0.002353
675.182	0.003043
684.827	0.003193
694.472	0.002313
704.116	0.001623
713.761	0.001843
723.406	0.002253
733.051	0.002913
742.695	0.004473
752.34	0.005063
761.985	0.003603
771.63	0.002853
781.275	0.002913
790.919	0.003873
800.564	0.003633
810.209	0.003523
819.854	0.005273
829.498	0.005443
839.143	0.003863
848.788	0.003613
858.433	0.003903
868.078	0.005063
877.722	0.005823
887.367	0.006773
897.012	0.007543
906.657	0.006703
916.301	0.005423
925.946	0.003873
935.591	0.003123
945.236	0.003473
954.88	0.004653
964.525	0.004223
974.17	0.002843
983.815	0.001763
993.46	0.001453
1003.1	0.001383
1012.75	0.001403
1022.39	0.0009432
1032.04	0.0013207
1041.68	0.0010224
1051.33	0.0011104
1060.97	0.001119
1070.62	0.001403
1080.26	0.001633
1089.91	0.001353
1099.55	0.001513
1109.2	0.001383
1118.84	0.0009897
1128.49	0.001563
1138.13	0.002263
1147.78	0.002233
1157.42	0.001723
1167.07	0.000994
1176.71	0.0011076
1186.36	0.0010629
1196	0.001793
1205.64	0.002413
1215.29	0.004843
1224.93	0.006453
1234.58	0.006203
1244.22	0.004533
1253.87	0.004603
1263.51	0.007143
1273.16	0.013263
1282.8	0.016803
1292.45	0.014553
1302.09	0.009243
1311.74	0.005963
1321.38	0.003313
1331.03	0.002263
1340.67	0.001903
1350.32	0.001763
1359.96	0.001703
1369.61	0.001513
1379.25	0.001443
1388.9	0.001693
1398.54	0.002083
1408.18	0.003203
1417.83	0.005233
1427.47	0.008383
1437.12	0.012473
1446.76	0.016643
1456.41	0.017993
1466.05	0.015243
1475.7	0.012613
1485.34	0.010843
1494.99	0.008873
1504.63	0.006743
1514.28	0.004223
1523.92	0.003013
1533.57	0.002343
1543.21	0.002223
1552.86	0.002423
1562.5	0.003213
1572.15	0.005633
1581.79	0.009993
1591.44	0.011413
1601.08	0.008453
1610.73	0.006453
1620.37	0.005913
1630.01	0.006213
1639.66	0.005923
1649.3	0.004563
1658.95	0.003673
1668.59	0.004113
1678.24	0.005683
1687.88	0.009433
1697.53	0.018963
1707.17	0.021173
1716.82	0.011873
1726.46	0.005973
1736.11	0.004433
1745.75	0.002763
1755.4	0.001763
1765.04	0.001383
1774.69	0.0011894
1784.33	0.0011346
1793.98	0.0010745
1803.62	0.0009869
1813.27	0.0008403
1822.91	0.0007954
1832.55	0.0007424
1842.2	0.0008062
1851.84	0.0008035
1861.49	0.000824
1871.13	0.0007066
1880.78	0.0007116
1890.42	0.0005903
1900.07	0.0006906
1909.71	0.0006272
1919.36	0.0007756
1929	0.0006786
1938.65	0.0007096
1948.29	0.0006373
1957.94	0.0005924
1967.58	0.0005221
1977.23	0.0004595
1986.87	0.0004577
1996.52	0.0005235
2006.16	0.0005058
2015.81	0.0005043
2025.45	0.0004812
2035.1	0.0004806
2044.74	0.00043921
2054.38	0.0004662
2064.03	0.0004548
2073.67	0.0004864
2083.32	0.0004679
2092.96	0.00043266
2102.61	0.0004637
2112.25	0.00042787
2121.9	0.0004684
2131.54	0.00042461
2141.19	0.00040836
2150.83	0.00040755
2160.48	0.0004513
2170.12	0.00038764
2179.77	0.00042208
2189.41	0.00043943
2199.06	0.00044102
2208.7	0.0003934
2218.35	0.00038204
2227.99	0.00042643
2237.64	0.00040953
2247.28	0.00038707
2256.92	0.00039218
2266.57	0.0002833
2276.21	0.00037796
2285.86	0.0004884
2295.5	0.00039812
2305.15	0.000345532
2314.79	0.0004605
2324.44	0.00037031
2334.08	0.00044025
2343.73	0.00035441
2353.37	0.0003684
2363.02	0.00042676
2372.66	0.00040115
2382.31	0.00042827
2391.95	0.00040976
2401.6	0.00043098
2411.24	0.00041825
2420.89	0.00040961
2430.53	0.00040358
2440.18	0.0004503
2449.82	0.00037214
2459.47	0.0005225
2469.11	0.00039589
2478.75	0.00037554
2488.4	0.0005178
2498.04	0.0005038
2507.69	0.000296
2517.33	0.0004577
2526.98	0.00041601
2536.62	0.000332
2546.27	0.0004146
2555.91	0.00033908
2565.56	0.0004622
2575.2	0.00042412
2584.85	0.00041638
2594.49	0.00040913
2604.14	0.00039226
2613.78	0.00040608
2623.43	0.00036488
2633.07	0.0003206
2642.72	0.00039459
2652.36	0.0002477
2662.01	0.000199
2671.65	0.0004608
2681.29	0.0002879
2690.94	0.0002993
2700.58	0.000352047
2710.23	0.00043004
2719.87	0.000505
2729.52	0.00042427
2739.16	0.00036071
2748.81	0.0004597
2758.45	0.0003134
2768.1	0.00038445
2777.74	0.0003009
2787.39	0.0003176
2797.03	0.00033627
2806.68	0.0005131
2816.32	0.0003088
2825.97	0.00038737
2835.61	0.000331
2845.26	0.00033784
2854.9	0.000346622
2864.55	0.0003397
2874.19	0.0002942
2883.84	0.00040731
2893.48	0.0002919
2903.12	0.0002615
2912.77	0.0003134
2922.41	0.000217
2932.06	0.000282
2941.7	0.00039193
2951.35	0.0003095
2960.99	0.00038612
2970.64	0.0002609
2980.28	0.00042158
2989.93	0.00033968
2999.57	0.0004753
3009.22	0.00039278
3018.86	0.00038372
3028.51	0.0005098
3038.15	0.0005573
3047.8	0.0009264
3057.44	0.001042
3067.09	0.0012496
3076.73	0.001683
3086.38	0.001663
3096.02	0.0009953
3105.67	0.0005313
3115.31	0.0004647
3124.95	0.00039843
3134.6	0.00036392
3144.24	0.0004633
3153.89	0.00036437
3163.53	0.000167
3173.18	0.0004725
3182.82	0.00039351
3192.47	0.0004499
3202.11	0.0005103
3211.76	0.0005226
3221.4	0.00040664
3231.05	0.0004752
3240.69	0.0002705
3250.34	0.000214
3259.98	0.0003758
3269.63	0.0002544
3279.27	0.00042328
3288.92	0.0005634
3298.56	0.00036004
3308.21	0.0006463
3317.85	0.0005216
3327.49	0.00042537
3337.14	0.0004797
3346.78	0.0006859
3356.43	0.0007228
3366.07	0.0005232
3375.72	0.0004784
3385.36	0.0005851
3395.01	0.0005607
3404.65	0.0004783
3414.3	0.0005635
3423.94	0.0008491
3433.59	0.0011275
3443.23	0.0013118
3452.88	0.002133
3462.52	0.003023
3472.17	0.003503
3481.81	0.003093
3491.46	0.001573
3501.1	0.0010366
3510.75	0.0006437
3520.39	0.0007219
3530.04	0.0005782
3539.68	0.00039221
3549.32	0.00040122
3558.97	0.0002955
3568.61	0.0005594
3578.26	0.00039742
3587.9	0.0004487
3597.55	0.00035581
3607.19	0.000316
3616.84	0.0002594
3626.48	0.00036341
3636.13	0.000211
3645.77	0.0003233
3655.42	0.00039139
3665.06	0.0003566
3674.71	0.00035728
3684.35	0.000204
3694	8.4e-05
3703.64	0.0002963
3713.29	0.000183
3722.93	0.0002759
3732.58	0.000174
3742.22	0.0002505
3751.86	0.000177
3761.51	5.4e-05
3771.15	0.000311
3780.8	0.0005574
3790.44	0.000255
3800.09	0.000239
3809.73	0.000225
3819.38	0.0002803
3829.02	0.0003083
3838.67	0.0002613
3848.31	0.0003863
3857.96	0.00036964
3867.6	0.0003104
3877.25	0.0002742
3886.89	0.00038698
3896.54	0.0002438
3906.18	0.000213
3915.83	8.2e-05
3925.47	0.000111
3935.12	0.00040212
3944.76	0.00040912
3954.41	4.4e-05
3964.05	0.000124
3973.69	0.0004686
3983.34	0.0002859
3992.98	0.0002677
