Infrared Spectrum: 1(7), 8-p-MENTHADIENE
Formula: C10 H16
CAS: 499-97-8
Class: COBLENTZ
Instrument: Not specified, most likely a prism, grating, or hybrid spectrometer.
Sampling: TRANSMISSION
Resolution: 4
Origin: INTERNATIONAL FLAVORS & FRAGRANCES, INC.
MICROMETERS	TRANSMITTANCE
2.047	0.964
2.08244	0.964
2.11787	0.961
2.15331	0.96
2.18874	0.955
2.22418	0.9348
2.25962	0.9309
2.29505	0.906
2.33049	0.914
2.36593	0.9246
2.40136	0.937
2.4368	0.94
2.47223	0.9349
2.50767	0.9341
2.54311	0.938
2.57854	0.946
2.61398	0.949
2.64941	0.9519
2.68485	0.9579
2.72029	0.961
2.75572	0.964
2.79116	0.97
2.82659	0.9661
2.86203	0.964
2.89747	0.96
2.9329	0.952
2.96834	0.954
3.00378	0.958
3.03921	0.957
3.07465	0.96
3.11008	0.96
3.14552	0.938
3.18096	0.5962
3.21639	0.6745
3.25183	0.787
3.28726	0.2709
3.3227	0.0906
3.35814	0.1239
3.39357	0.224
3.42901	0.186
3.46445	0.3238
3.49988	0.6782
3.53532	0.8137
3.57075	0.8692
3.60619	0.9078
3.64163	0.902
3.67706	0.9168
3.7125	0.928
3.74793	0.929
3.78337	0.932
3.81881	0.9429
3.85424	0.9539
3.88968	0.957
3.92511	0.958
3.96055	0.961
3.99599	0.964
4.03142	0.966
4.06686	0.967
4.1023	0.974
4.13773	0.974
4.17317	0.967
4.2086	0.97
4.24404	0.972
4.27948	0.974
4.31491	0.9801
4.35035	0.9809
4.38578	0.972
4.42122	0.97
4.45666	0.972
4.49209	0.9738
4.52753	0.978
4.56297	0.983
4.5984	0.9839
4.63384	0.984
4.66927	0.987
4.70471	0.987
4.74015	0.986
4.77558	0.9831
4.81102	0.9869
4.84645	0.9901
4.88189	0.984
4.91733	0.9889
4.95276	0.989
4.9882	0.9829
5.02364	0.987
5.05907	0.99
5.09451	0.9863
5.12994	0.984
5.16538	0.984
5.20082	0.9837
5.23625	0.9802
5.27169	0.9828
5.30712	0.98
5.34256	0.983
5.378	0.98
5.41343	0.9775
5.44887	0.978
5.4843	0.9565
5.51974	0.8721
5.55518	0.786
5.59061	0.8443
5.62605	0.9099
5.66149	0.9392
5.69692	0.9559
5.73236	0.955
5.76779	0.955
5.80323	0.952
5.83867	0.951
5.8741	0.9275
5.90954	0.8425
5.94497	0.8168
5.98041	0.4864
6.01585	0.3005
6.05128	0.5643
6.08672	0.7654
6.12216	0.8295
6.15759	0.8725
6.19303	0.8899
6.22846	0.8981
6.2639	0.9071
6.29934	0.9226
6.33477	0.934
6.37021	0.937
6.40564	0.9382
6.44108	0.937
6.47652	0.937
6.51195	0.93
6.54739	0.9226
6.58282	0.9167
6.61826	0.9118
6.6537	0.9032
6.68913	0.8858
6.72457	0.849
6.76001	0.7688
6.79544	0.4598
6.83088	0.1997
6.86631	0.1873
6.90175	0.246
6.93719	0.3968
6.97262	0.5819
7.00806	0.6872
7.04349	0.731
7.07893	0.7147
7.11437	0.7121
7.1498	0.7417
7.18524	0.693
7.22068	0.4531
7.25611	0.5833
7.29155	0.7458
7.32698	0.826
7.36242	0.8692
7.39786	0.8763
7.43329	0.879
7.46873	0.874
7.50416	0.8457
7.5396	0.7755
7.57504	0.8435
7.61047	0.876
7.64591	0.8778
7.68134	0.8872
7.71678	0.8762
7.75222	0.839
7.78765	0.8403
7.82309	0.8605
7.85853	0.8968
7.89396	0.9099
7.9294	0.9116
7.96483	0.8864
8.00027	0.859
8.03571	0.8298
8.07114	0.8035
8.10658	0.7402
8.14201	0.8179
8.17745	0.8668
8.21289	0.8895
8.24832	0.9085
8.28376	0.916
8.3192	0.9067
8.35463	0.8436
8.39007	0.7397
8.4255	0.7544
8.46094	0.8468
8.49638	0.9057
8.53181	0.9311
8.56725	0.937
8.60268	0.943
8.63812	0.9403
8.67356	0.9356
8.70899	0.9419
8.74443	0.943
8.77986	0.9483
8.8153	0.948
8.85074	0.9412
8.88617	0.9315
8.92161	0.926
8.95705	0.9285
8.99248	0.9388
9.02792	0.943
9.06335	0.94
9.09879	0.9307
9.13423	0.872
9.16966	0.7222
9.2051	0.8176
9.24053	0.8657
9.27597	0.8627
9.31141	0.8722
9.34684	0.8914
9.38228	0.912
9.41772	0.9229
9.45315	0.928
9.48859	0.928
9.52402	0.92
9.55946	0.9099
9.5949	0.8893
9.63033	0.8299
9.66577	0.8345
9.7012	0.8914
9.73664	0.903
9.77208	0.91
9.80751	0.9116
9.84295	0.8958
9.87839	0.8703
9.91382	0.8435
9.94926	0.7204
9.98469	0.6815
10.0201	0.68
10.0556	0.7086
10.091	0.7847
10.1264	0.8372
10.1619	0.8673
10.1973	0.8832
10.2327	0.9017
10.2682	0.909
10.3036	0.911
10.3391	0.9085
10.3745	0.9008
10.4099	0.876
10.4454	0.7774
10.4808	0.7602
10.5162	0.8307
10.5517	0.8643
10.5871	0.8783
10.6225	0.8874
10.658	0.894
10.6934	0.893
10.7289	0.8898
10.7643	0.882
10.7997	0.8732
10.8352	0.8584
10.8706	0.8367
10.906	0.8013
10.9415	0.7506
10.9769	0.6608
11.0123	0.5247
11.0478	0.4094
11.0832	0.2905
11.1186	0.1105
11.1541	0.057
11.1895	0.0492
11.225	0.047
11.2604	0.048
11.2958	0.0578
11.3313	0.1271
11.3667	0.2589
11.4021	0.4086
11.4376	0.5277
11.473	0.6331
11.5084	0.7006
11.5439	0.7518
11.5793	0.7903
11.6148	0.8206
11.6502	0.8467
11.6856	0.8615
11.7211	0.876
11.7565	0.888
11.7919	0.8912
11.8274	0.896
11.8628	0.8999
11.8982	0.9028
11.9337	0.905
11.9691	0.905
12.0046	0.9012
12.04	0.8901
12.0754	0.8556
12.1109	0.7122
12.1463	0.7729
12.1817	0.8482
12.2172	0.8833
12.2526	0.8966
12.288	0.902
12.3235	0.8968
12.3589	0.8574
12.3944	0.7252
12.4298	0.8008
12.4652	0.8672
12.5007	0.8936
12.5361	0.899
12.5715	0.9038
12.607	0.9112
12.6424	0.914
12.6778	0.911
12.7133	0.9118
12.7487	0.9198
12.7841	0.925
12.8196	0.926
12.855	0.928
12.8905	0.926
12.9259	0.9278
12.9613	0.926
12.9968	0.923
13.0322	0.9193
13.0676	0.9073
13.1031	0.895
13.1385	0.8846
13.1739	0.8901
13.2094	0.9001
13.2448	0.9059
13.2803	0.911
13.3157	0.9116
13.3511	0.912
13.3866	0.9102
13.422	0.908
13.4574	0.908
13.4929	0.906
13.5283	0.9033
13.5637	0.9005
13.5992	0.8977
13.6346	0.896
13.6701	0.8924
13.7055	0.888
13.7409	0.8848
13.7764	0.8803
13.8118	0.8744
13.8472	0.868
13.8827	0.864
13.9181	0.861
13.9535	0.8575
13.989	0.854
14.0244	0.853
14.0598	0.851
14.0953	0.85
14.1307	0.8474
14.1662	0.842
14.2016	0.8386
14.237	0.8343
14.2725	0.8286
14.3079	0.824
14.3433	0.821
14.3788	0.818
14.4142	0.816
14.4496	0.818
14.4851	0.818
14.5205	0.815
14.556	0.813
14.5914	0.809
14.6268	0.8045
14.6623	0.803
14.6977	0.7989
14.7331	0.794
14.7686	0.7883
14.804	0.783
14.8394	0.778
14.8749	0.777
14.9103	0.777
14.9458	0.7807
14.9812	0.787
