Infrared Spectrum: 3,5-Dimethylbenzoic aicd
Formula: C 9 H 10 O 2
CAS: 499-06-9
State: gas
Origin: EPA-IR VAPOR PHASE LIBRARY
1/CM	ABSORBANCE
501.5	0.0003886
513.074	0.0004058
524.648	0.0006622
536.222	0.0014604
547.796	0.0019004
559.37	0.0022204
570.944	0.0034604
582.518	0.0048304
594.092	0.0024604
605.666	0.0008646
617.24	0.0006749
628.814	0.0004931
640.388	0.0005493
651.962	0.0022304
663.536	0.0059304
675.11	0.0025804
686.684	0.0002964
698.258	7.428e-05
709.832	5.901e-05
721.406	0.000174
732.98	0.0001599
744.554	0.0004667
756.128	0.0020104
767.702	0.0042104
779.276	0.0020204
790.85	0.0005699
802.423	0.000153
813.997	9.354e-05
825.571	9.033e-05
837.145	0.0001225
848.719	0.0003756
860.293	0.0010704
871.867	0.0007789
883.441	0.0004787
895.015	0.0005055
906.589	0.0003374
918.163	0.0003414
929.737	0.0003935
941.311	0.0007672
952.885	0.0004981
964.459	0.0003328
976.033	0.0003463
987.607	0.0005524
999.181	0.0007188
1010.76	0.0003586
1022.33	0.0002022
1033.9	0.0004313
1045.48	0.0007172
1057.05	0.0008561
1068.63	0.0007751
1080.2	0.0013204
1091.77	0.0042804
1103.35	0.0087104
1114.92	0.0070004
1126.49	0.0037404
1138.07	0.0051504
1149.64	0.0097404
1161.22	0.0148904
1172.79	0.0103104
1184.36	0.0029104
1195.94	0.0010804
1207.51	0.0007998
1219.09	0.0007497
1230.66	0.000636
1242.23	0.0006148
1253.81	0.0006196
1265.38	0.0007461
1276.96	0.0006569
1288.53	0.0008436
1300.1	0.0013604
1311.68	0.0022804
1323.25	0.0040104
1334.83	0.0056604
1346.4	0.0037204
1357.97	0.0024004
1369.55	0.0033404
1381.12	0.0030504
1392.7	0.0019904
1404.27	0.0009733
1415.84	0.0008363
1427.42	0.0009862
1438.99	0.0016104
1450.57	0.0021004
1462.14	0.0013104
1473.71	0.0008109
1485.29	0.0007864
1496.86	0.0007487
1508.44	0.000671
1520.01	0.0006296
1531.58	0.000731
1543.16	0.000659
1554.73	0.0005395
1566.31	0.0005003
1577.88	0.0006133
1589.45	0.0011504
1601.03	0.0022004
1612.6	0.0024004
1624.18	0.0011004
1635.75	0.000368
1647.32	0.0002485
1658.9	0.0002193
1670.47	0.000262
1682.05	0.0003095
1693.62	0.0006081
1705.19	0.0013404
1716.77	0.0015804
1728.34	0.0018904
1739.92	0.0058804
1751.49	0.0212804
1763.06	0.0226104
1774.64	0.0062204
1786.21	0.0028804
1797.79	0.0019004
1809.36	0.0017804
1820.93	0.0008712
1832.51	0.0003772
1844.08	0.0002179
1855.66	0.0001639
1867.23	0.0001265
1878.8	0.0001078
1890.38	0.0001198
1901.95	9.434e-05
1913.53	0.0001758
1925.1	0.000189
1936.67	0.0001396
1948.25	0.00010494
1959.82	7.9e-05
1971.4	8.833e-05
1982.97	0.0001301
1994.54	0.0001259
2006.12	9.094e-05
2017.69	8.362e-05
2029.27	9.886e-05
2040.84	0.0001222
2052.41	0.00013
2063.99	8.1e-05
2075.56	6.75e-05
2087.14	3.795e-05
2098.71	5.233e-05
2110.28	5.455e-05
2121.86	8.225e-05
2133.43	7.07e-05
2145.01	6.911e-05
2156.58	7.789e-05
2168.15	8.527e-05
2179.73	7.614e-05
2191.3	7.632e-05
2202.88	8.357e-05
2214.45	0.0001128
2226.02	0.00010327
2237.6	9.761e-05
2249.17	7.975e-05
2260.74	9.382e-05
2272.32	9.461e-05
2283.89	0.0001158
2295.47	0.000125
2307.04	9.077e-05
2318.61	0.0001175
2330.19	0.0001234
2341.76	0.0001192
2353.34	9.893e-05
2364.91	9.862e-05
2376.48	0.00010635
2388.06	0.0001226
2399.63	0.00010603
2411.21	0.0001143
2422.78	0.0001329
2434.35	0.0001457
2445.93	0.0001359
2457.5	0.0001377
2469.08	0.000137
2480.65	0.0001175
2492.22	0.0001472
2503.8	9.12e-05
2515.37	0.0001141
2526.95	8.434e-05
2538.52	0.0001136
2550.09	0.0001176
2561.67	0.00010997
2573.24	0.00010425
2584.82	0.0001197
2596.39	0.0001417
2607.96	0.0001439
2619.54	0.0001129
2631.11	0.00010655
2642.69	0.00010329
2654.26	0.0001721
2665.83	9.141e-05
2677.41	0.0001061
2688.98	0.00010442
2700.56	8.212e-05
2712.13	0.0001537
2723.7	0.0001369
2735.28	0.0001858
2746.85	0.000273
2758.43	0.0002161
2770	0.0001665
2781.57	0.0001536
2793.15	0.0001806
2804.72	0.000205
2816.3	0.0002343
2827.87	0.000312
2839.44	0.0003945
2851.02	0.0006027
2862.59	0.0009743
2874.17	0.0013804
2885.74	0.0013504
2897.31	0.0012504
2908.89	0.0015704
2920.46	0.0023404
2932.04	0.0032504
2943.61	0.0025304
2955.18	0.0015004
2966.76	0.0009985
2978.33	0.0008915
2989.91	0.0010804
3001.48	0.0014504
3013.05	0.0020504
3024.63	0.0018404
3036.2	0.0013604
3047.78	0.000966
3059.35	0.0009136
3070.92	0.000755
3082.5	0.0005396
3094.07	0.0003301
3105.65	0.0002905
3117.22	0.0002322
3128.79	0.0001854
3140.37	0.0001156
3151.94	0.00010931
3163.52	0.0001193
3175.09	0.00010352
3186.66	0.0001662
3198.24	0.0001107
3209.81	0.0001169
3221.39	0.00012
3232.96	0.0001236
3244.53	0.0001152
3256.11	0.0001437
3267.68	9.247e-05
3279.26	0.00010074
3290.83	5.886e-05
3302.4	0.0001111
3313.98	9.674e-05
3325.55	9.215e-05
3337.13	8.762e-05
3348.7	8.455e-05
3360.27	9.827e-05
3371.85	0.00011021
3383.42	9.218e-05
3395	0.0001251
3406.57	4.839e-05
3418.14	0.0001183
3429.72	7.881e-05
3441.29	0.0001272
3452.86	0.0001757
3464.44	0.0001492
3476.01	0.0001765
3487.59	0.0002121
3499.16	0.0002975
3510.73	0.0001593
3522.31	0.0001477
3533.88	0.000194
3545.46	0.0001825
3557.03	0.0004144
3568.6	0.0020704
3580.18	0.0074704
3591.75	0.0052604
3603.33	0.0006273
3614.9	0.0002635
3626.47	0.0002269
3638.05	0.0001583
3649.62	0.0001107
3661.2	0.0001196
3672.77	0.0001401
3684.34	0.0001226
3695.92	3.131e-05
3707.49	0.0001753
3719.07	0.0001227
3730.64	7.47e-05
3742.21	9.206e-05
3753.79	1.6882e-05
3765.36	0.0001477
3776.94	9.76e-05
3788.51	4.126e-05
3800.08	0.0001216
3811.66	8.696e-05
3823.23	5.439e-05
3834.81	2.0008e-05
3846.38	9.4e-05
3857.95	1.12575e-05
3869.53	0.00010398
3881.1	0.0001693
3892.68	0.0001303
3904.25	0.0001429
3915.82	1.5578e-05
3927.4	0.0001224
3938.97	0.0001408
3950.55	0.0001009
3962.12	0.0001621
3973.69	9.404e-05
3985.27	0.0001041
3996.84	0.0001676
