Infrared Spectrum: 2,8-p-MENTHADIENE
Formula: C10 H16
CAS: 499-99-0
Class: COBLENTZ
Instrument: Not specified, most likely a prism, grating, or hybrid spectrometer.
Sampling: TRANSMISSION
Resolution: 4
Origin: INTERNATIONAL FLAVORS & FRAGRANCES, INC.
MICROMETERS	TRANSMITTANCE
2.011	0.9
2.04831	0.904
2.08561	0.906
2.12292	0.907
2.16023	0.907
2.19753	0.898
2.23484	0.862
2.27215	0.847
2.30945	0.863
2.34676	0.885
2.38407	0.888
2.42138	0.881
2.45868	0.894
2.49599	0.9
2.5333	0.907
2.5706	0.912
2.60791	0.919
2.64522	0.928
2.68252	0.933
2.71983	0.936
2.75714	0.931
2.79444	0.927
2.83175	0.927
2.86906	0.922
2.90636	0.921
2.94367	0.918
2.98098	0.915
3.01828	0.913
3.05559	0.915
3.0929	0.907
3.13021	0.895
3.16751	0.877
3.20482	0.524
3.24213	0.559
3.27943	0.304
3.31674	0.167
3.35405	0.057
3.39135	0.098
3.42866	0.121
3.46597	0.114
3.50327	0.479
3.54058	0.612
3.57789	0.782
3.61519	0.841
3.6525	0.844
3.68981	0.886
3.72711	0.903
3.76442	0.897
3.80173	0.906
3.83904	0.913
3.87634	0.915
3.91365	0.918
3.95096	0.928
3.98826	0.936
4.02557	0.937
4.06288	0.942
4.10018	0.942
4.13749	0.944
4.1748	0.945
4.2121	0.948
4.24941	0.95
4.28672	0.951
4.32402	0.953
4.36133	0.956
4.39864	0.957
4.43594	0.96
4.47325	0.963
4.51056	0.966
4.54787	0.969
4.58517	0.969
4.62248	0.969
4.65979	0.971
4.69709	0.972
4.7344	0.974
4.77171	0.968
4.80901	0.968
4.84632	0.969
4.88363	0.971
4.92093	0.969
4.95824	0.971
4.99555	0.974
5.03285	0.974
5.07016	0.972
5.10747	0.971
5.14478	0.962
5.18208	0.96
5.21939	0.966
5.2567	0.963
5.294	0.962
5.33131	0.96
5.36862	0.954
5.40592	0.957
5.44323	0.945
5.48054	0.916
5.51784	0.872
5.55515	0.838
5.59246	0.848
5.62976	0.891
5.66707	0.919
5.70438	0.924
5.74168	0.922
5.77899	0.924
5.8163	0.922
5.85361	0.918
5.89091	0.915
5.92822	0.909
5.96553	0.868
6.00283	0.661
6.04014	0.317
6.07745	0.547
6.11475	0.73
6.15206	0.767
6.18937	0.782
6.22667	0.818
6.26398	0.845
6.30129	0.859
6.33859	0.865
6.3759	0.863
6.41321	0.86
6.45051	0.854
6.48782	0.844
6.52513	0.826
6.56244	0.803
6.59974	0.771
6.63705	0.72
6.67436	0.685
6.71166	0.664
6.74897	0.586
6.78628	0.279
6.82358	0.124
6.86089	0.149
6.8982	0.201
6.9355	0.31
6.97281	0.503
7.01012	0.612
7.04742	0.655
7.08473	0.682
7.12204	0.649
7.15934	0.597
7.19665	0.441
7.23396	0.263
7.27127	0.414
7.30857	0.621
7.34588	0.72
7.38319	0.748
7.42049	0.765
7.4578	0.774
7.49511	0.783
7.53241	0.786
7.56972	0.768
7.60703	0.744
7.64433	0.729
7.68164	0.706
7.71895	0.653
7.75625	0.689
7.79356	0.744
7.83087	0.785
7.86817	0.815
7.90548	0.795
7.94279	0.795
7.9801	0.813
8.0174	0.813
8.05471	0.788
8.09202	0.733
8.12932	0.671
8.16663	0.582
8.20394	0.639
8.24124	0.709
8.27855	0.765
8.31586	0.8
8.35316	0.816
8.39047	0.822
8.42778	0.832
8.46508	0.85
8.50239	0.853
8.5397	0.832
8.577	0.836
8.61431	0.845
8.65162	0.844
8.68893	0.829
8.72623	0.835
8.76354	0.844
8.80085	0.841
8.83815	0.835
8.87546	0.812
8.91277	0.776
8.95007	0.656
8.98738	0.549
9.02469	0.683
9.06199	0.721
9.0993	0.739
9.13661	0.759
9.17391	0.795
9.21122	0.803
9.24853	0.806
9.28583	0.807
9.32314	0.803
9.36045	0.804
9.39776	0.801
9.43506	0.786
9.47237	0.726
9.50968	0.679
9.54698	0.677
9.58429	0.695
9.6216	0.701
9.6589	0.72
9.69621	0.745
9.73352	0.757
9.77082	0.748
9.80813	0.735
9.84544	0.721
9.88274	0.709
9.92005	0.7
9.95736	0.695
9.99466	0.708
10.032	0.701
10.0693	0.691
10.1066	0.717
10.1439	0.738
10.1812	0.739
10.2185	0.744
10.2558	0.745
10.2931	0.742
10.3304	0.733
10.3677	0.695
10.405	0.642
10.4423	0.653
10.4797	0.676
10.517	0.668
10.5543	0.596
10.5916	0.546
10.6289	0.605
10.6662	0.712
10.7035	0.789
10.7408	0.801
10.7781	0.812
10.8154	0.807
10.8527	0.804
10.89	0.791
10.9273	0.754
10.9646	0.683
11.0019	0.612
11.0393	0.496
11.0766	0.372
11.1139	0.213
11.1512	0.057
11.1885	0.033
11.2258	0.039
11.2631	0.089
11.3004	0.17
11.3377	0.284
11.375	0.396
11.4123	0.502
11.4496	0.582
11.4869	0.644
11.5242	0.717
11.5616	0.751
11.5989	0.779
11.6362	0.789
11.6735	0.791
11.7108	0.785
11.7481	0.757
11.7854	0.703
11.8227	0.526
11.86	0.481
11.8973	0.526
11.9346	0.565
11.9719	0.515
12.0092	0.49
12.0465	0.419
12.0838	0.422
12.1212	0.502
12.1585	0.624
12.1958	0.685
12.2331	0.701
12.2704	0.72
12.3077	0.736
12.345	0.753
12.3823	0.767
12.4196	0.783
12.4569	0.795
12.4942	0.797
12.5315	0.795
12.5688	0.794
12.6061	0.795
12.6435	0.798
12.6808	0.804
12.7181	0.809
12.7554	0.81
12.7927	0.807
12.83	0.801
12.8673	0.797
12.9046	0.794
12.9419	0.791
12.9792	0.788
13.0165	0.785
13.0538	0.783
13.0911	0.785
13.1284	0.785
13.1657	0.789
13.2031	0.794
13.2404	0.798
13.2777	0.801
13.315	0.803
13.3523	0.798
13.3896	0.789
13.4269	0.774
13.4642	0.748
13.5015	0.704
13.5388	0.588
13.5761	0.491
13.6134	0.332
13.6507	0.217
13.688	0.192
13.7253	0.234
13.7627	0.288
13.8	0.349
13.8373	0.422
13.8746	0.493
13.9119	0.556
13.9492	0.608
13.9865	0.629
14.0238	0.62
14.0611	0.608
14.0984	0.608
14.1357	0.621
14.173	0.633
14.2103	0.647
14.2476	0.644
14.285	0.635
14.3223	0.629
14.3596	0.629
14.3969	0.635
14.4342	0.644
14.4715	0.653
14.5088	0.662
14.5461	0.671
14.5834	0.677
14.6207	0.682
14.658	0.688
14.6953	0.691
14.7326	0.692
14.7699	0.692
14.8072	0.689
14.8446	0.685
14.8819	0.679
14.9192	0.667
14.9565	0.644
14.9938	0.629
