Infrared Spectrum: 3-Methylenecyclopropane-trans-1,2-dicarboxylic acid
Formula: C 6 H 6 O 4
CAS: 499-02-5
State: gas
Origin: EPA-IR VAPOR PHASE LIBRARY
1/CM	ABSORBANCE
549.8	0.018522
559.445	0.021932
569.09	0.020152
578.734	0.018282
588.379	0.015892
598.024	0.013322
607.669	0.012792
617.313	0.014412
626.958	0.012952
636.603	0.009702
646.248	0.006822
655.893	0.005102
665.537	0.005482
675.182	0.004192
684.827	0.004332
694.472	0.005492
704.116	0.006352
713.761	0.005892
723.406	0.003912
733.051	0.004182
742.695	0.004012
752.34	0.004632
761.985	0.004102
771.63	0.001982
781.275	0.002162
790.919	0.001942
800.564	0.002052
810.209	0.002582
819.854	0.002782
829.498	0.003472
839.143	0.004822
848.788	0.005412
858.433	0.006112
868.078	0.006152
877.722	0.006132
887.367	0.006032
897.012	0.008462
906.657	0.008882
916.301	0.005922
925.946	0.005152
935.591	0.005382
945.236	0.005262
954.88	0.004972
964.525	0.004052
974.17	0.004382
983.815	0.005362
993.46	0.006162
1003.1	0.006862
1012.75	0.007022
1022.39	0.007062
1032.04	0.007782
1041.68	0.008162
1051.33	0.009472
1060.97	0.010842
1070.62	0.014752
1080.26	0.017552
1089.91	0.021172
1099.55	0.035572
1109.2	0.064942
1118.84	0.091002
1128.49	0.079992
1138.13	0.048232
1147.78	0.039492
1157.42	0.039222
1167.07	0.033882
1176.71	0.023222
1186.36	0.014722
1196	0.009952
1205.64	0.008242
1215.29	0.007272
1224.93	0.007862
1234.58	0.008742
1244.22	0.008832
1253.87	0.009222
1263.51	0.010082
1273.16	0.010412
1282.8	0.010862
1292.45	0.010802
1302.09	0.010772
1311.74	0.010992
1321.38	0.011902
1331.03	0.013612
1340.67	0.016432
1350.32	0.018572
1359.96	0.020192
1369.61	0.020452
1379.25	0.018482
1388.9	0.015062
1398.54	0.011122
1408.18	0.007702
1417.83	0.006162
1427.47	0.005042
1437.12	0.003512
1446.76	0.002652
1456.41	0.002022
1466.05	0.001702
1475.7	0.001472
1485.34	0.001462
1494.99	0.001282
1504.63	0.001222
1514.28	0.001172
1523.92	0.001242
1533.57	0.0011496
1543.21	0.001212
1552.86	0.0008575
1562.5	0.0004059
1572.15	0.0009985
1581.79	0.001872
1591.44	0.002202
1601.08	0.001992
1610.73	0.002542
1620.37	0.001192
1630.01	0.0006178
1639.66	0.001702
1649.3	0.002792
1658.95	0.003752
1668.59	0.004202
1678.24	0.004082
1687.88	0.004352
1697.53	0.005362
1707.17	0.007072
1716.82	0.009982
1726.46	0.014902
1736.11	0.023172
1745.75	0.035982
1755.4	0.058072
1765.04	0.096052
1774.69	0.118672
1784.33	0.082652
1793.98	0.041742
1803.62	0.030622
1813.27	0.031912
1822.91	0.026252
1832.55	0.014552
1842.2	0.008192
1851.84	0.006002
1861.49	0.004562
1871.13	0.003682
1880.78	0.002922
1890.42	0.002352
1900.07	0.001872
1909.71	0.001692
1919.36	0.001462
1929	0.001422
1938.65	0.001232
1948.29	0.0010842
1957.94	0.0009963
1967.58	0.0010517
1977.23	0.0009555
1986.87	0.0008737
1996.52	0.0009512
2006.16	0.0008699
2015.81	0.001127
2025.45	0.0011304
2035.1	0.001172
2044.74	0.00094
2054.38	0.000948
2064.03	0.000913
2073.67	0.0007984
2083.32	0.0007314
2092.96	0.0006463
2102.61	0.0007079
2112.25	0.0006358
2121.9	0.0006999
2131.54	0.0007736
2141.19	0.0009981
2150.83	0.0006492
2160.48	0.0007512
2170.12	0.0007532
2179.77	0.0007148
2189.41	0.0006883
2199.06	0.0008159
2208.7	0.0008773
2218.35	0.000778
2227.99	0.001099
2237.64	0.0009929
2247.28	0.001047
2256.92	0.0010551
2266.57	0.0011457
2276.21	0.001482
2285.86	0.002232
2295.5	0.003472
2305.15	0.005252
2314.79	0.007182
2324.44	0.008302
2334.08	0.008082
2343.73	0.007342
2353.37	0.008152
2363.02	0.011142
2372.66	0.008732
2382.31	0.003592
2391.95	0.0011291
2401.6	0.0007835
2411.24	0.0008171
2420.89	0.0008852
2430.53	0.0009528
2440.18	0.0006947
2449.82	0.0007131
2459.47	0.0009666
2469.11	0.0008219
2478.75	0.0008082
2488.4	0.0008986
2498.04	0.0007612
2507.69	0.0007959
2517.33	0.0006392
2526.98	0.0007346
2536.62	0.0006136
2546.27	0.0006196
2555.91	0.0006748
2565.56	0.0006253
2575.2	0.0005095
2584.85	0.0005247
2594.49	0.0004474
2604.14	0.0006663
2613.78	0.0004794
2623.43	0.0004404
2633.07	0.0005918
2642.72	0.0004007
2652.36	0.0003515
2662.01	0.0004493
2671.65	0.0004786
2681.29	0.0004732
2690.94	0.0005594
2700.58	0.0004236
2710.23	0.0005705
2719.87	0.0004185
2729.52	0.00021341
2739.16	0.0004439
2748.81	0.0004689
2758.45	0.0005635
2768.1	0.0006234
2777.74	0.0004021
2787.39	0.0002712
2797.03	0.000539
2806.68	0.0006837
2816.32	0.0004124
2825.97	0.0005697
2835.61	0.0005024
2845.26	0.0007276
2854.9	0.0006421
2864.55	0.0007733
2874.19	0.0007482
2883.84	0.0008897
2893.48	0.0010449
2903.12	0.001332
2912.77	0.001432
2922.41	0.001572
2932.06	0.001162
2941.7	0.0010958
2951.35	0.0009384
2960.99	0.001352
2970.64	0.001602
2980.28	0.001712
2989.93	0.001342
2999.57	0.001372
3009.22	0.001682
3018.86	0.001472
3028.51	0.001262
3038.15	0.001332
3047.8	0.0009665
3057.44	0.0007085
3067.09	0.0010451
3076.73	0.0010851
3086.38	0.0010758
3096.02	0.001272
3105.67	0.0010843
3115.31	0.0008163
3124.95	0.0007898
3134.6	0.0005995
3144.24	0.0004256
3153.89	0.0005571
3163.53	0.0003682
3173.18	0.0004658
3182.82	0.0004038
3192.47	0.0003456
3202.11	0.0002708
3211.76	0.0003535
3221.4	0.0004238
3231.05	0.0002882
3240.69	0.0003821
3250.34	0.0003305
3259.98	0.00023568
3269.63	0.0003115
3279.27	0.00020434
3288.92	0.0005973
3298.56	0.0005566
3308.21	0.000504
3317.85	0.000497
3327.49	0.0005372
3337.14	0.0006518
3346.78	0.0003139
3356.43	0.0003865
3366.07	0.00054
3375.72	0.00049
3385.36	0.0004904
3395.01	0.000393
3404.65	0.0006729
3414.3	0.0007467
3423.94	0.0005247
3433.59	0.0003386
3443.23	0.0007124
3452.88	0.0005155
3462.52	0.0004007
3472.17	0.0007237
3481.81	0.0006256
3491.46	0.0007286
3501.1	0.0007988
3510.75	0.0011457
3520.39	0.001442
3530.04	0.001422
3539.68	0.001722
3549.32	0.001842
3558.97	0.006142
3568.61	0.028962
3578.26	0.044572
3587.9	0.026902
3597.55	0.006542
3607.19	0.002292
3616.84	0.001512
3626.48	0.001182
3636.13	0.000797
3645.77	0.0008088
3655.42	0.0005485
3665.06	0.0004914
3674.71	0.0005913
3684.35	0.0002956
3694	0.0003916
3703.64	0.0006071
3713.29	0.0005501
3722.93	0.0006319
3732.58	0.000744
3742.22	0.0005428
3751.86	0.0005073
3761.51	0.0004
3771.15	0.0001191
3780.8	0.0001284
3790.44	0.00019807
3800.09	0.0003044
3809.73	9.91e-05
3819.38	0.000389
3829.02	0.0003339
3838.67	0.0002679
3848.31	0.00018046
3857.96	0.0003134
3867.6	0.000551
3877.25	0.0004424
3886.89	0.00024988
3896.54	0.00016091
3906.18	0.0002615
3915.83	0.0005558
3925.47	0.00024416
3935.12	0.0003683
3944.76	0.0008343
3954.41	0.00020798
3964.05	0.00018291
3973.69	0.0003819
3983.34	0.0003615
3992.98	0.0003441
