Infrared Spectrum: RHODANINE, 3-BENZYLIDENEAMINO
Formula: C10 H8 N2 O S2
CAS: 4992-28-3
State: SOLID (KBr PELLET)
Melting point: 135-136 C
Class: COBLENTZ
Instrument: Not specified, most likely a prism, grating, or hybrid spectrometer.
Sampling: TRANSMISSION
Resolution: 4
Origin: TENNESSEE EASTMAN COMPANY, RESEARCH LABORATORIES
MICROMETERS	TRANSMITTANCE
2.041	0.655
2.08214	0.67
2.12329	0.682
2.16443	0.692
2.20558	0.699
2.24672	0.706
2.28786	0.713
2.32901	0.718
2.37015	0.722
2.4113	0.728
2.45244	0.73
2.49359	0.742
2.53473	0.753
2.57587	0.759
2.61702	0.765
2.65816	0.77
2.69931	0.771
2.74045	0.766
2.78159	0.715
2.82274	0.674
2.86388	0.636
2.90503	0.612
2.94617	0.622
2.98731	0.66
3.02846	0.699
3.0696	0.725
3.11075	0.744
3.15189	0.766
3.19304	0.787
3.23418	0.801
3.27532	0.801
3.31647	0.799
3.35761	0.749
3.39876	0.708
3.4399	0.823
3.48104	0.84
3.52219	0.849
3.56333	0.854
3.60448	0.869
3.64562	0.873
3.68676	0.876
3.72791	0.883
3.76905	0.886
3.8102	0.893
3.85134	0.897
3.89249	0.9
3.93363	0.902
3.97477	0.903
4.01592	0.905
4.05706	0.912
4.09821	0.914
4.13935	0.914
4.18049	0.917
4.22164	0.917
4.26278	0.917
4.30393	0.919
4.34507	0.919
4.38621	0.926
4.42736	0.926
4.4685	0.931
4.50965	0.938
4.55079	0.939
4.59194	0.941
4.63308	0.943
4.67422	0.945
4.71537	0.946
4.75651	0.948
4.79766	0.951
4.8388	0.953
4.87994	0.953
4.92109	0.953
4.96223	0.943
5.00338	0.948
5.04452	0.941
5.08566	0.946
5.12681	0.945
5.16795	0.945
5.2091	0.936
5.25024	0.936
5.29139	0.945
5.33253	0.948
5.37367	0.946
5.41482	0.941
5.45596	0.924
5.49711	0.924
5.53825	0.926
5.57939	0.891
5.62054	0.866
5.66168	0.789
5.70283	0.54
5.74397	0.077
5.78511	0.14
5.82626	0.397
5.8674	0.61
5.90855	0.77
5.94969	0.794
5.99084	0.811
6.03198	0.84
6.07312	0.838
6.11427	0.823
6.15541	0.653
6.19656	0.43
6.2377	0.526
6.27884	0.842
6.31999	0.674
6.36113	0.682
6.40228	0.847
6.44342	0.89
6.48456	0.902
6.52571	0.919
6.56685	0.919
6.608	0.922
6.64914	0.915
6.69029	0.909
6.73143	0.933
6.77257	0.931
6.81372	0.921
6.85486	0.763
6.89601	0.809
6.93715	0.917
6.97829	0.931
7.01944	0.936
7.06058	0.919
7.10173	0.917
7.14287	0.902
7.18401	0.857
7.22516	0.723
7.2663	0.753
7.30745	0.548
7.34859	0.821
7.38974	0.862
7.43088	0.864
7.47202	0.847
7.51317	0.792
7.55431	0.464
7.59546	0.715
7.6366	0.487
7.67774	0.228
7.71889	0.351
7.76003	0.56
7.80118	0.607
7.84232	0.581
7.88346	0.523
7.92461	0.44
7.96575	0.301
8.0069	0.138
8.04804	0.036
8.08919	0.032
8.13033	0.036
8.17147	0.06
8.21262	0.061
8.25376	0.084
8.29491	0.24
8.33605	0.473
8.37719	0.548
8.41834	0.62
8.45948	0.617
8.50063	0.65
8.54177	0.777
8.58291	0.725
8.62406	0.698
8.6652	0.802
8.70635	0.814
8.74749	0.801
8.78864	0.816
8.82978	0.835
8.87092	0.842
8.91207	0.842
8.95321	0.849
8.99436	0.852
9.0355	0.852
9.07664	0.809
9.11779	0.716
9.15893	0.783
9.20008	0.831
9.24122	0.811
9.28236	0.773
9.32351	0.828
9.36465	0.85
9.4058	0.857
9.44694	0.859
9.48809	0.859
9.52923	0.859
9.57037	0.857
9.61152	0.842
9.65266	0.756
9.69381	0.627
9.73495	0.65
9.77609	0.566
9.81724	0.493
9.85838	0.694
9.89953	0.795
9.94067	0.818
9.98181	0.818
10.023	0.842
10.0641	0.862
10.1052	0.866
10.1464	0.835
10.1875	0.749
10.2287	0.778
10.2698	0.838
10.311	0.861
10.3521	0.876
10.3933	0.883
10.4344	0.885
10.4755	0.89
10.5167	0.893
10.5578	0.895
10.599	0.895
10.6401	0.869
10.6813	0.783
10.7224	0.753
10.7636	0.823
10.8047	0.838
10.8458	0.801
10.887	0.574
10.9281	0.485
10.9693	0.672
11.0104	0.811
11.0516	0.854
11.0927	0.885
11.1339	0.902
11.175	0.907
11.2161	0.909
11.2573	0.897
11.2984	0.768
11.3396	0.521
11.3807	0.68
11.4219	0.85
11.463	0.891
11.5041	0.914
11.5453	0.922
11.5864	0.912
11.6276	0.91
11.6687	0.921
11.7099	0.931
11.751	0.938
11.7922	0.939
11.8333	0.945
11.8744	0.946
11.9156	0.946
11.9567	0.946
11.9979	0.948
12.039	0.948
12.0802	0.948
12.1213	0.95
12.1625	0.95
12.2036	0.95
12.2447	0.95
12.2859	0.95
12.327	0.95
12.3682	0.948
12.4093	0.938
12.4505	0.938
12.4916	0.929
12.5328	0.862
12.5739	0.801
12.615	0.813
12.6562	0.835
12.6973	0.837
12.7385	0.825
12.7796	0.801
12.8208	0.747
12.8619	0.648
12.903	0.433
12.9442	0.289
12.9853	0.186
13.0265	0.209
13.0676	0.392
13.1088	0.507
13.1499	0.56
13.1911	0.584
13.2322	0.588
13.2733	0.588
13.3145	0.588
13.3556	0.59
13.3968	0.591
13.4379	0.591
13.4791	0.602
13.5202	0.617
13.5614	0.634
13.6025	0.653
13.6436	0.665
13.6848	0.686
13.7259	0.708
13.7671	0.735
13.8082	0.77
13.8494	0.797
13.8905	0.814
13.9317	0.831
13.9728	0.843
14.0139	0.852
14.0551	0.852
14.0962	0.852
14.1374	0.847
14.1785	0.818
14.2197	0.78
14.2608	0.73
14.3019	0.68
14.3431	0.593
14.3842	0.493
14.4254	0.468
14.4665	0.512
14.5077	0.636
14.5488	0.747
14.59	0.819
14.6311	0.855
14.6722	0.885
14.7134	0.903
14.7545	0.917
14.7957	0.919
14.8368	0.924
14.878	0.927
14.9191	0.927
14.9603	0.927
15.0014	0.926
15.0425	0.926
15.0837	0.926
15.1248	0.926
15.166	0.926
15.2071	0.926
15.2483	0.926
15.2894	0.926
15.3306	0.926
15.3717	0.926
15.4128	0.922
15.454	0.921
15.4951	0.915
15.5363	0.914
15.5774	0.912
15.6186	0.909
15.6597	0.9
15.7008	0.886
15.742	0.874
15.7831	0.859
15.8243	0.852
15.8654	0.84
15.9066	0.828
15.9477	0.819
15.9889	0.816
16.03	0.816
