Infrared Spectrum: RHODANINE, 5-BENZYLIDENE-3-BENZYLIDENEAMINO-
Formula: C17 H12 N2 O S2
CAS: 4992-30-7
State: SOLID (KBr PELLET)
Melting point: 169-171 C
Class: COBLENTZ
Instrument: Not specified, most likely a prism, grating, or hybrid spectrometer.
Sampling: TRANSMISSION
Resolution: 4
Origin: TENNESSEE EASTMAN COMPANY, RESEARCH LABORATORIES
MICROMETERS	TRANSMITTANCE
2.034	0.529
2.0751	0.547
2.11619	0.564
2.15729	0.58
2.19839	0.588
2.23949	0.605
2.28058	0.617
2.32168	0.627
2.36278	0.639
2.40387	0.646
2.44497	0.653
2.48607	0.663
2.52716	0.679
2.56826	0.682
2.60936	0.687
2.65046	0.692
2.69155	0.699
2.73265	0.703
2.77375	0.701
2.81484	0.699
2.85594	0.687
2.89704	0.686
2.93814	0.684
2.97923	0.704
3.02033	0.73
3.06143	0.744
3.10252	0.754
3.14362	0.764
3.18472	0.776
3.22581	0.79
3.26691	0.79
3.30801	0.752
3.34911	0.805
3.3902	0.812
3.4313	0.815
3.4724	0.831
3.51349	0.837
3.55459	0.846
3.59569	0.851
3.63679	0.856
3.67788	0.86
3.71898	0.86
3.76008	0.861
3.80117	0.866
3.84227	0.872
3.88337	0.877
3.92446	0.88
3.96556	0.889
4.00666	0.895
4.04776	0.897
4.08885	0.901
4.12995	0.901
4.17105	0.902
4.21214	0.906
4.25324	0.909
4.29434	0.902
4.33544	0.904
4.37653	0.916
4.41763	0.926
4.45873	0.931
4.49982	0.931
4.54092	0.933
4.58202	0.935
4.62311	0.936
4.66421	0.94
4.70531	0.943
4.74641	0.941
4.7875	0.943
4.8286	0.945
4.8697	0.947
4.91079	0.948
4.95189	0.95
4.99299	0.95
5.03409	0.952
5.07518	0.943
5.11628	0.947
5.15738	0.95
5.19847	0.952
5.23957	0.95
5.28067	0.95
5.32176	0.952
5.36286	0.952
5.40396	0.952
5.44506	0.95
5.48615	0.947
5.52725	0.947
5.56835	0.95
5.60944	0.95
5.65054	0.945
5.69164	0.935
5.73274	0.883
5.77383	0.711
5.81493	0.331
5.85603	0.593
5.89712	0.793
5.93822	0.875
5.97932	0.892
6.02041	0.911
6.06151	0.912
6.10261	0.907
6.14371	0.894
6.1848	0.708
6.2259	0.467
6.267	0.662
6.30809	0.868
6.34919	0.691
6.39029	0.853
6.43139	0.889
6.47248	0.889
6.51358	0.895
6.55468	0.894
6.59577	0.901
6.63687	0.844
6.67797	0.773
6.71906	0.878
6.76016	0.883
6.80126	0.885
6.84236	0.813
6.88345	0.713
6.92455	0.831
6.96565	0.844
7.00674	0.848
7.04784	0.846
7.08894	0.843
7.13004	0.815
7.17113	0.725
7.21223	0.675
7.25333	0.733
7.29442	0.81
7.33552	0.82
7.37662	0.8
7.41771	0.766
7.45881	0.694
7.49991	0.407
7.54101	0.511
7.5821	0.634
7.6232	0.605
7.6643	0.655
7.70539	0.697
7.74649	0.675
7.78759	0.701
7.82869	0.701
7.86978	0.701
7.91088	0.699
7.95198	0.581
7.99307	0.325
8.03417	0.138
8.07527	0.081
8.11636	0.199
8.15746	0.441
8.19856	0.544
8.23966	0.363
8.28075	0.107
8.32185	0.172
8.36295	0.363
8.40404	0.535
8.44514	0.648
8.48624	0.66
8.52734	0.703
8.56843	0.721
8.60953	0.742
8.65063	0.764
8.69172	0.778
8.73282	0.784
8.77392	0.79
8.81501	0.791
8.85611	0.793
8.89721	0.793
8.93831	0.759
8.9794	0.703
9.0205	0.692
9.0616	0.728
9.10269	0.709
9.14379	0.672
9.18489	0.715
9.22599	0.749
9.26708	0.732
9.30818	0.723
9.34928	0.762
9.39037	0.781
9.43147	0.79
9.47257	0.79
9.51366	0.726
9.55476	0.636
9.59586	0.699
9.63696	0.762
9.67805	0.767
9.71915	0.767
9.76025	0.776
9.80134	0.796
9.84244	0.802
9.88354	0.805
9.92464	0.805
9.96573	0.808
10.0068	0.81
10.0479	0.81
10.089	0.812
10.1301	0.812
10.1712	0.812
10.2123	0.813
10.2534	0.819
10.2945	0.817
10.3356	0.819
10.3767	0.815
10.4178	0.762
10.4589	0.684
10.5	0.692
10.5411	0.754
10.5822	0.779
10.6233	0.795
10.6644	0.752
10.7055	0.749
10.7466	0.807
10.7877	0.819
10.8288	0.813
10.8699	0.808
10.911	0.836
10.9521	0.844
10.9932	0.844
11.0343	0.844
11.0754	0.849
11.1165	0.854
11.1575	0.856
11.1986	0.856
11.2397	0.856
11.2808	0.853
11.3219	0.834
11.363	0.836
11.4041	0.843
11.4452	0.851
11.4863	0.856
11.5274	0.86
11.5685	0.861
11.6096	0.841
11.6507	0.793
11.6918	0.781
11.7329	0.829
11.774	0.843
11.8151	0.848
11.8562	0.858
11.8973	0.861
11.9384	0.861
11.9795	0.865
12.0206	0.865
12.0617	0.866
12.1028	0.868
12.1439	0.872
12.185	0.872
12.2261	0.872
12.2672	0.873
12.3083	0.875
12.3494	0.875
12.3905	0.877
12.4316	0.877
12.4727	0.878
12.5138	0.878
12.5548	0.878
12.5959	0.878
12.637	0.878
12.6781	0.878
12.7192	0.878
12.7603	0.878
12.8014	0.866
12.8425	0.829
12.8836	0.755
12.9247	0.602
12.9658	0.563
13.0069	0.578
13.048	0.518
13.0891	0.551
13.1302	0.653
13.1713	0.703
13.2124	0.68
13.2535	0.658
13.2946	0.726
13.3357	0.817
13.3768	0.846
13.4179	0.858
13.459	0.866
13.5001	0.873
13.5412	0.882
13.5823	0.885
13.6234	0.889
13.6645	0.89
13.7056	0.894
13.7467	0.894
13.7878	0.897
13.8289	0.894
13.87	0.866
13.9111	0.846
13.9521	0.846
13.9932	0.861
14.0343	0.88
14.0754	0.894
14.1165	0.899
14.1576	0.899
14.1987	0.897
14.2398	0.878
14.2809	0.853
14.322	0.82
14.3631	0.788
14.4042	0.713
14.4453	0.627
14.4864	0.571
14.5275	0.534
14.5686	0.517
14.6097	0.554
14.6508	0.655
14.6919	0.742
14.733	0.793
14.7741	0.836
14.8152	0.856
14.8563	0.868
14.8974	0.873
14.9385	0.873
14.9796	0.873
15.0207	0.87
15.0618	0.87
15.1029	0.861
15.144	0.844
15.1851	0.841
15.2262	0.837
15.2673	0.839
15.3084	0.837
15.3494	0.836
15.3905	0.836
15.4316	0.836
15.4727	0.831
15.5138	0.82
15.5549	0.817
15.596	0.81
15.6371	0.808
15.6782	0.802
15.7193	0.783
15.7604	0.767
15.8015	0.754
15.8426	0.747
15.8837	0.744
15.9248	0.738
15.9659	0.726
16.007	0.726
