Infrared Spectrum: RHODANINE, 3-AMINO-5-BENZYLIDENE-
Formula: C10 H8 N2 O S2
CAS: 4992-29-4
State: SOLID (KBr PELLET)
Melting point: 197-198 C
Class: COBLENTZ
Instrument: Not specified, most likely a prism, grating, or hybrid spectrometer.
Sampling: TRANSMISSION
Resolution: 4
Origin: TENNESSEE EASTMAN COMPANY, RESEARCH LABORATORIES
MICROMETERS	TRANSMITTANCE
1.993	0.675
2.03414	0.682
2.07528	0.694
2.11642	0.704
2.15756	0.715
2.1987	0.723
2.23984	0.732
2.28098	0.744
2.32212	0.751
2.36326	0.753
2.4044	0.756
2.44554	0.759
2.48668	0.763
2.52782	0.778
2.56896	0.794
2.6101	0.797
2.65124	0.801
2.69238	0.801
2.73352	0.795
2.77466	0.722
2.8158	0.67
2.85694	0.627
2.89808	0.603
2.93922	0.603
2.98036	0.643
3.0215	0.61
3.06264	0.615
3.10378	0.584
3.14492	0.605
3.18606	0.715
3.2272	0.787
3.26834	0.799
3.30948	0.804
3.35062	0.828
3.39176	0.825
3.4329	0.837
3.47404	0.849
3.51518	0.864
3.55632	0.874
3.59746	0.881
3.6386	0.885
3.67974	0.89
3.72088	0.893
3.76202	0.898
3.80316	0.902
3.8443	0.905
3.88544	0.909
3.92658	0.914
3.96772	0.919
4.00886	0.921
4.05	0.921
4.09114	0.921
4.13228	0.922
4.17342	0.922
4.21456	0.933
4.2557	0.934
4.29684	0.936
4.33797	0.934
4.37911	0.934
4.42025	0.933
4.46139	0.934
4.50253	0.933
4.54367	0.936
4.58481	0.939
4.62595	0.941
4.66709	0.941
4.70823	0.941
4.74937	0.941
4.79051	0.943
4.83165	0.945
4.87279	0.945
4.91393	0.943
4.95507	0.946
4.99621	0.948
5.03735	0.95
5.07849	0.941
5.11963	0.941
5.16077	0.945
5.20191	0.946
5.24305	0.945
5.28419	0.943
5.32533	0.938
5.36647	0.938
5.40761	0.938
5.44875	0.938
5.48989	0.936
5.53103	0.934
5.57217	0.915
5.61331	0.9
5.65445	0.891
5.69559	0.809
5.73673	0.579
5.77787	0.133
5.81901	0.291
5.86015	0.253
5.90129	0.722
5.94243	0.777
5.98357	0.799
6.02471	0.816
6.06585	0.797
6.10699	0.789
6.14813	0.751
6.18927	0.59
6.23041	0.394
6.27155	0.21
6.31269	0.435
6.35383	0.62
6.39497	0.758
6.43611	0.837
6.47725	0.852
6.51839	0.866
6.55953	0.866
6.60067	0.859
6.64181	0.826
6.68295	0.766
6.72409	0.867
6.76523	0.871
6.80637	0.871
6.84751	0.792
6.88865	0.718
6.92979	0.819
6.97093	0.819
7.01207	0.804
7.05321	0.795
7.09435	0.787
7.13549	0.73
7.17663	0.638
7.21777	0.554
7.25891	0.581
7.30005	0.605
7.34119	0.54
7.38233	0.583
7.42347	0.679
7.46461	0.694
7.50575	0.765
7.54689	0.792
7.58803	0.794
7.62917	0.782
7.67031	0.72
7.71145	0.632
7.75259	0.572
7.79373	0.377
7.83487	0.169
7.87601	0.132
7.91715	0.245
7.95829	0.31
7.99943	0.31
8.04057	0.404
8.08171	0.533
8.12285	0.588
8.16399	0.602
8.20513	0.615
8.24627	0.569
8.28741	0.562
8.32855	0.579
8.36969	0.653
8.41083	0.694
8.45197	0.716
8.49311	0.759
8.53425	0.763
8.57539	0.725
8.61653	0.708
8.65767	0.749
8.69881	0.759
8.73995	0.754
8.78109	0.677
8.82223	0.413
8.86337	0.289
8.90451	0.526
8.94565	0.723
8.98678	0.771
9.02792	0.804
9.06906	0.806
9.1102	0.806
9.15134	0.809
9.19248	0.819
9.23362	0.823
9.27476	0.823
9.3159	0.813
9.35704	0.782
9.39818	0.761
9.43932	0.759
9.48046	0.761
9.5216	0.77
9.56274	0.794
9.60388	0.801
9.64502	0.806
9.68616	0.804
9.7273	0.804
9.76844	0.807
9.80958	0.797
9.85072	0.794
9.89186	0.797
9.933	0.758
9.97414	0.747
10.0153	0.773
10.0564	0.753
10.0976	0.74
10.1387	0.759
10.1798	0.821
10.221	0.85
10.2621	0.855
10.3033	0.859
10.3444	0.859
10.3855	0.859
10.4267	0.85
10.4678	0.835
10.509	0.821
10.5501	0.802
10.5912	0.782
10.6324	0.753
10.6735	0.699
10.7147	0.614
10.7558	0.523
10.7969	0.437
10.8381	0.399
10.8792	0.397
10.9204	0.495
10.9615	0.646
11.0026	0.734
11.0438	0.766
11.0849	0.799
11.1261	0.806
11.1672	0.813
11.2083	0.814
11.2495	0.83
11.2906	0.847
11.3318	0.855
11.3729	0.867
11.414	0.876
11.4552	0.885
11.4963	0.89
11.5375	0.898
11.5786	0.9
11.6197	0.898
11.6609	0.898
11.702	0.89
11.7432	0.873
11.7843	0.859
11.8254	0.864
11.8666	0.878
11.9077	0.886
11.9489	0.895
11.99	0.903
12.0311	0.909
12.0723	0.907
12.1134	0.909
12.1546	0.909
12.1957	0.915
12.2368	0.919
12.278	0.921
12.3191	0.921
12.3603	0.922
12.4014	0.922
12.4425	0.922
12.4837	0.922
12.5248	0.924
12.566	0.927
12.6071	0.927
12.6482	0.927
12.6894	0.926
12.7305	0.927
12.7717	0.927
12.8128	0.927
12.8539	0.926
12.8951	0.924
12.9362	0.905
12.9774	0.859
13.0185	0.799
13.0596	0.732
13.1008	0.686
13.1419	0.61
13.1831	0.411
13.2242	0.427
13.2653	0.677
13.3065	0.816
13.3476	0.871
13.3888	0.9
13.4299	0.912
13.471	0.921
13.5122	0.926
13.5533	0.931
13.5945	0.934
13.6356	0.934
13.6767	0.934
13.7179	0.933
13.759	0.909
13.8002	0.861
13.8413	0.83
13.8824	0.861
13.9236	0.914
13.9647	0.938
14.0059	0.948
14.047	0.953
14.0881	0.955
14.1293	0.953
14.1704	0.955
14.2116	0.955
14.2527	0.953
14.2938	0.953
14.335	0.953
14.3761	0.955
14.4173	0.953
14.4584	0.946
14.4995	0.924
14.5407	0.895
14.5818	0.854
14.623	0.814
14.6641	0.765
14.7052	0.68
14.7464	0.59
14.7875	0.514
14.8287	0.5
14.8698	0.564
14.9109	0.651
14.9521	0.74
14.9932	0.811
15.0344	0.873
15.0755	0.912
15.1166	0.927
15.1578	0.931
15.1989	0.933
15.2401	0.933
15.2812	0.933
15.3223	0.933
15.3635	0.933
15.4046	0.933
15.4458	0.926
15.4869	0.924
15.528	0.921
15.5692	0.915
15.6103	0.912
15.6515	0.902
15.6926	0.886
15.7337	0.869
15.7749	0.857
15.816	0.845
15.8572	0.833
15.8983	0.828
15.9394	0.823
