Infrared Spectrum: 4-Phenylcyclohexene
Formula: C 12 H 14
CAS: 4994-16-5
State: gas
Instrument: HP-GC/MS/IRD
Origin: NIST Mass Spectrometry Data Center
1/CM	ABSORBANCE
550	0.0007384
562	0.0001794
574	0.0001742
586	0.0004732
598	0.000988
610	0.0006058
622	0.0007124
634	0.0016718
646	0.0053482
658	0.0081978
670	0.0062452
682	0.0068848
694	0.011635
706	0.010088
718	0.0054236
730	0.004004
742	0.0056134
754	0.0069316
766	0.0035308
778	0.00143
790	0.000949
802	0.0005694
814	0.0002496
826	0.0002392
838	0.000338
850	0.0004056
862	0.0003926
874	0.0006968
886	0.0012194
898	0.0012012
910	0.0015392
922	0.001235
934	0.0009906
946	0.0008658
958	0.0006864
970	0.0009594
982	0.0006864
994	0.000507
1006	0.0006084
1018	0.0012584
1030	0.0023218
1042	0.0016744
1054	0.0011518
1066	0.001157
1078	0.0011154
1090	0.0006136
1102	0.0004628
1114	0.0003458
1126	0.0004212
1138	0.0008814
1150	0.000702
1162	0.0004498
1174	0.0005486
1186	0.000806
1198	0.0005434
1210	0.0003796
1222	0.0003302
1234	0.0004758
1246	0.0005616
1258	0.0005668
1270	0.00039
1282	0.0003978
1294	0.0005226
1306	0.0006318
1318	0.000897
1330	0.000988
1342	0.0008086
1354	0.0009568
1366	0.0010322
1378	0.000845
1390	0.0006786
1402	0.0004836
1414	0.0006266
1426	0.001508
1438	0.003601
1450	0.0041028
1462	0.0025324
1474	0.001755
1486	0.003471
1498	0.004147
1510	0.0019864
1522	0.0006942
1534	0.0005096
1546	0.0003614
1558	0.0004004
1570	0.0006734
1582	0.0015028
1594	0.0030134
1606	0.0032188
1618	0.001599
1630	0.0008476
1642	0.001534
1654	0.0020956
1666	0.0007696
1678	0.0004368
1690	0.000338
1702	0.0003276
1714	0.000312
1726	0.000338
1738	0.0003172
1750	0.000221
1762	0.0002288
1774	0.000338
1786	0.000689
1798	0.0007644
1810	0.0003328
1822	0.0002106
1834	0.0002444
1846	0.0003796
1858	0.0005746
1870	0.0006942
1882	0.0005434
1894	0.0003198
1906	0.0002782
1918	0.0004082
1930	0.0006474
1942	0.000767
1954	0.0005746
1966	0.000182
1978	7.28e-05
1990	5.2e-05
2002	4.16e-05
2014	2.6e-06
2026	0
2038	5.2e-06
2050	2.6e-05
2062	1.04e-05
2074	3.9e-05
2086	8.06e-05
2098	8.58e-05
2110	6.24e-05
2122	7.8e-06
2134	3.64e-05
2146	3.9e-05
2158	3.12e-05
2170	6.76e-05
2182	4.94e-05
2194	7.54e-05
2206	8.06e-05
2218	0.0001144
2230	0.000104
2242	0.0001378
2254	7.02e-05
2266	6.24e-05
2278	5.46e-05
2290	7.54e-05
2302	9.1e-05
2314	0.0001144
2326	0.0001456
2338	0.0001742
2350	0.0001066
2362	0.0001404
2374	0.0001482
2386	0.0001352
2398	5.2e-05
2410	5.46e-05
2422	7.02e-05
2434	6.76e-05
2446	5.2e-05
2458	9.88e-05
2470	9.36e-05
2482	0.000143
2494	9.62e-05
2506	0.0001196
2518	0.0001196
2530	0.0001586
2542	0.0001196
2554	0.0001144
2566	0.0001664
2578	0.0002106
2590	0.0002314
2602	0.0002522
2614	0.0002366
2626	0.0002756
2638	0.0003042
2650	0.0003432
2662	0.0003978
2674	0.0003432
2686	0.0002912
2698	0.0002912
2710	0.0002522
2722	0.0002912
2734	0.0003354
2746	0.0003926
2758	0.0004758
2770	0.000624
2782	0.000585
2794	0.0006396
2806	0.000871
2818	0.001339
2830	0.0028704
2842	0.0074958
2854	0.0094302
2866	0.0072566
2878	0.007319
2890	0.0100672
2902	0.0137072
2914	0.0199108
2926	0.0245986
2938	0.0186004
2950	0.0105066
2962	0.0044304
2974	0.0032058
2986	0.002444
2998	0.002548
3010	0.004433
3022	0.0140166
3034	0.026
3046	0.0103922
3058	0.0075608
3070	0.0104338
3082	0.0069628
3094	0.0044304
3106	0.00273
3118	0.0015496
3130	0.0007046
3142	0.0003848
3154	0.0004108
3166	0.000364
3178	0.0002522
3190	0.0001742
3202	0.0001664
3214	0.0002392
3226	0.000169
3238	0.0001508
3250	0.0001274
3262	0.0001924
3274	0.000221
3286	0.0002418
3298	0.0002444
3310	0.0002158
3322	0.00013
3334	0.0001352
3346	9.88e-05
3358	0.000104
3370	8.84e-05
3382	0.0001118
3394	0.0001586
3406	5.46e-05
3418	7.8e-05
3430	5.46e-05
3442	0.00013
3454	7.8e-05
3466	8.58e-05
3478	0.0001248
3490	7.54e-05
3502	9.36e-05
3514	6.24e-05
3526	3.9e-05
3538	7.02e-05
3550	0.000143
3562	7.28e-05
3574	6.5e-05
3586	3.9e-05
3598	8.32e-05
3610	0.0001482
3622	0.0001872
3634	0.0001456
3646	0.0001066
3658	0.000273
3670	0.0001768
3682	0.0002392
3694	0.0002314
3706	0.0001924
3718	0.0001924
3730	0.0002002
3742	0.000117
3754	0.0002262
3766	0.000234
3778	0.0002158
3790	0.000273
3802	0.0002288
3814	0.0001794
3826	0.000247
3838	0.00026
