Infrared Spectrum: Phenobarbital
Formula: C 12 H 12 N 2 O 3
CAS: 50-06-6
State: gas
Instrument: HP-GC/MS/IRD
Origin: NIST Mass Spectrometry Data Center
1/CM	ABSORBANCE
550	0.0013949
562	0.0005104
574	5.8e-06
586	0.0001508
598	0.0003915
610	0.0007598
622	0.0008874
634	0.0010904
646	0.0022098
658	0.0042311
670	0.0034858
682	0.0019372
694	0.0018908
706	0.0015457
718	0.0020474
730	0.0016965
742	0.0019604
754	0.0038425
766	0.0020996
778	0.0008062
790	0.0006206
802	0.0004582
814	0.0002639
826	9.28e-05
838	5.51e-05
850	2.61e-05
862	4.06e-05
874	6.38e-05
886	9.57e-05
898	9.57e-05
910	6.38e-05
922	0.0001682
934	0.0001305
946	0.0001102
958	0.0002088
970	0.0001856
982	0.0001421
994	0.0003219
1006	0.0006757
1018	0.0003567
1030	0.0004147
1042	0.0003567
1054	0.0002523
1066	0.0003132
1078	0.0003335
1090	0.0003335
1102	0.0004582
1114	0.0006989
1126	0.0008381
1138	0.0006815
1150	0.0005191
1162	0.0005365
1174	0.000812
1186	0.0016356
1198	0.0024563
1210	0.0016356
1222	0.0011484
1234	0.0011832
1246	0.001392
1258	0.0018792
1270	0.0031842
1282	0.0063713
1294	0.0093322
1306	0.0067715
1318	0.0043355
1330	0.0039643
1342	0.0045791
1354	0.0034365
1366	0.0035264
1378	0.0050228
1390	0.0063916
1402	0.006554
1414	0.0066758
1426	0.0035293
1438	0.0019981
1450	0.0017632
1462	0.0013224
1474	0.000986
1486	0.0011455
1498	0.001827
1510	0.0010614
1522	0.0005075
1534	0.0003596
1546	0.0002233
1558	0.0002233
1570	0.0003538
1582	0.0005829
1594	0.0007337
1606	0.000551
1618	0.000377
1630	0.0004321
1642	0.000464
1654	0.0004988
1666	0.0007395
1678	0.0011397
1690	0.0016646
1702	0.0023867
1714	0.0058928
1726	0.0174406
1738	0.014442
1750	0.0143985
1762	0.0234494
1774	0.029
1786	0.0172811
1798	0.0052896
1810	0.0026709
1822	0.0014384
1834	0.0008729
1846	0.0006612
1858	0.0006235
1870	0.0005974
1882	0.0005829
1894	0.0005191
1906	0.0004843
1918	0.0003625
1930	0.0002726
1942	0.0002407
1954	0.0002407
1966	0.0001885
1978	0.0001363
1990	0.0001305
2002	0.0001914
2014	0.0002117
2026	0.0001595
2038	0.0001131
2050	9.57e-05
2062	7.25e-05
2074	5.51e-05
2086	5.8e-05
2098	4.35e-05
2110	4.06e-05
2122	4.93e-05
2134	1.74e-05
2146	2.61e-05
2158	4.64e-05
2170	3.77e-05
2182	2.9e-05
2194	2.03e-05
2206	2.03e-05
2218	8.7e-06
2230	1.45e-05
2242	1.16e-05
2254	2.9e-06
2266	1.16e-05
2278	3.77e-05
2290	4.35e-05
2302	4.35e-05
2314	3.77e-05
2326	6.96e-05
2338	6.09e-05
2350	5.8e-05
2362	7.83e-05
2374	9.28e-05
2386	0.0001015
2398	0.000116
2410	8.99e-05
2422	8.41e-05
2434	6.67e-05
2446	6.09e-05
2458	6.09e-05
2470	6.09e-05
2482	6.09e-05
2494	8.41e-05
2506	6.67e-05
2518	6.96e-05
2530	7.83e-05
2542	6.96e-05
2554	6.96e-05
2566	6.96e-05
2578	6.09e-05
2590	4.93e-05
2602	7.54e-05
2614	4.35e-05
2626	5.22e-05
2638	5.51e-05
2650	6.09e-05
2662	4.93e-05
2674	6.38e-05
2686	6.38e-05
2698	8.41e-05
2710	6.96e-05
2722	0.0001073
2734	0.0001044
2746	0.0001276
2758	0.0001595
2770	0.0001537
2782	0.0001595
2794	0.0001247
2806	0.0001247
2818	0.0001247
2830	0.0001189
2842	0.0001073
2854	0.0001827
2866	0.0002088
2878	0.0003538
2890	0.000638
2902	0.0005162
2914	0.0003422
2926	0.0004437
2938	0.0007163
2950	0.0011455
2962	0.0009541
2974	0.0012064
2986	0.0013804
2998	0.000696
3010	0.0004437
3022	0.0003799
3034	0.0005191
3046	0.0006003
3058	0.0006699
3070	0.0012876
3082	0.0009425
3094	0.0005858
3106	0.0005075
3118	0.0003393
3130	0.0002349
3142	0.0001856
3154	0.0002175
3166	0.000232
3178	0.0001711
3190	0.0001247
3202	6.67e-05
3214	8.12e-05
3226	8.12e-05
3238	6.96e-05
3250	0.0001044
3262	7.54e-05
3274	7.54e-05
3286	8.12e-05
3298	8.12e-05
3310	7.83e-05
3322	8.99e-05
3334	8.41e-05
3346	8.41e-05
3358	7.83e-05
3370	0.0001102
3382	0.0001856
3394	0.0002668
3406	0.0007337
3418	0.0032567
3430	0.008091
3442	0.0031059
3454	0.0006873
3466	0.0004814
3478	0.0003712
3490	0.0002233
3502	0.0001798
3514	0.000174
3526	0.0002494
3538	0.0003248
3550	0.0002755
3562	0.0001595
3574	0.0001015
3586	6.09e-05
3598	6.96e-05
3610	1.45e-05
3622	5.51e-05
3634	2.32e-05
3646	4.64e-05
3658	6.38e-05
3670	2.9e-05
3682	3.19e-05
3694	3.19e-05
3706	4.93e-05
3718	1.74e-05
3730	2.32e-05
3742	2.9e-05
3754	0
3766	4.06e-05
3778	6.38e-05
3790	6.09e-05
3802	2.9e-05
3814	4.64e-05
3826	3.48e-05
3838	4.64e-05
