Infrared Spectrum: FORMALDEHYDE
Formula: C H2 O
CAS: 50-00-0
State: GAS (HEATING PARAFORMALDEHYDE; CONCENTRATION UNKNOWN)
Boiling point: -21 C
Class: COBLENTZ
Instrument: PERKIN-ELMER 297
Sampling: TRANSMISSION
Path length: 10 CM
Resolution: 4
Origin: DOW CHEMICAL COMPANY
1/CM	TRANSMITTANCE
587.635	0.729
595.981	0.6581
604.327	0.663
612.674	0.706
621.02	0.738
629.366	0.767
637.712	0.806
646.059	0.859
654.405	0.891
662.751	0.915
671.097	0.936
679.443	0.959
687.79	0.973
696.136	0.982
704.482	0.995
712.828	1.004
721.175	1.011
729.521	1.022
737.867	1.034
746.213	1.041
754.559	1.042
762.906	1.046
771.252	1.047
779.598	1.047
787.944	1.047
796.291	1.046
804.637	1.044
812.983	1.042
821.329	1.04
829.675	1.035
838.022	1.034
846.368	1.031
854.714	1.03
863.06	1.029
871.407	1.028
879.753	1.022
888.099	1.014
896.445	1.002
904.791	0.985
913.138	0.959
921.484	0.914
929.83	0.8291
938.176	0.7298
946.523	0.897
954.869	0.924
963.215	0.93
971.561	0.926
979.907	0.913
988.254	0.913
996.6	0.909
1004.95	0.904
1013.29	0.947
1021.64	0.971
1029.98	0.9427
1038.33	0.8891
1046.68	0.936
1055.02	0.9349
1063.37	0.938
1071.72	0.964
1080.06	0.937
1088.41	0.835
1096.75	0.802
1105.1	0.866
1113.45	0.866
1121.79	0.657
1130.14	0.891
1138.49	0.932
1146.83	0.951
1155.18	0.984
1163.52	0.75
1171.87	0.913
1180.22	0.942
1188.56	0.974
1196.91	0.9709
1205.26	0.9029
1213.6	0.7761
1221.95	0.869
1230.29	0.795
1238.64	0.788
1246.99	0.991
1255.33	0.975
1263.68	0.85
1272.03	0.8799
1280.37	0.6669
1288.72	0.746
1297.06	0.779
1305.41	0.805
1313.76	0.855
1322.1	0.778
1330.45	0.921
1338.8	0.862
1347.14	0.8271
1355.49	0.902
1363.83	0.898
1372.18	0.8536
1380.53	0.936
1388.87	0.91
1397.22	0.871
1405.56	0.917
1413.91	0.926
1422.26	0.871
1430.6	0.917
1438.95	0.904
1447.3	0.817
1455.64	0.741
1463.99	0.642
1472.33	0.56
1480.68	0.567
1489.03	0.657
1497.37	0.832
1505.72	0.5
1514.07	0.745
1522.41	0.648
1530.76	0.651
1539.1	0.662
1547.45	0.755
1555.8	0.845
1564.14	0.897
1572.49	0.926
1580.84	0.936
1589.18	0.937
1597.53	0.942
1605.87	0.94
1614.22	0.941
1622.57	0.942
1630.91	0.941
1639.26	0.94
1647.61	0.94
1655.95	0.914
1664.3	0.877
1672.64	0.818
1680.99	0.722
1689.34	0.5939
1697.68	0.345
1706.03	0.2659
1714.38	0.124
1722.72	0.115
1731.07	0.173
1739.41	0.336
1747.76	0.1669
1756.11	0.468
1764.45	0.1371
1772.8	0.044
1781.14	0.1219
1789.49	0.188
1797.84	0.309
1806.18	0.566
1814.53	0.82
1822.88	0.919
1831.22	0.947
1839.57	0.944
1847.91	0.947
1856.26	0.943
1864.61	0.944
1872.95	0.944
1881.3	0.941
1889.65	0.941
1897.99	0.941
1906.34	0.94
1914.68	0.937
1923.03	0.936
1931.38	0.935
1939.72	0.933
1948.07	0.932
1956.42	0.931
1964.76	0.931
1973.11	0.93
1981.45	0.929
1989.8	0.927
1998.15	0.925
2006.49	0.924
2014.84	0.922
2023.19	0.921
2031.53	0.92
2039.88	0.9195
2048.22	0.919
2056.57	0.917
2064.92	0.916
2073.26	0.915
2081.61	0.914
2089.96	0.9134
2098.3	0.913
2106.65	0.911
2114.99	0.91
2123.34	0.909
2131.69	0.908
2140.03	0.9068
2148.38	0.906
2156.72	0.905
2165.07	0.904
2173.42	0.903
2181.76	0.902
2190.11	0.9007
2198.46	0.9
2206.8	0.9
2215.15	0.899
2223.49	0.8983
2231.84	0.897
2240.19	0.895
2248.53	0.894
2256.88	0.893
2265.23	0.893
2273.57	0.892
2281.92	0.892
2290.26	0.891
2298.61	0.888
2306.96	0.887
2315.3	0.884
2323.65	0.881
2332	0.8777
2340.34	0.876
2348.69	0.88
2357.03	0.8818
2365.38	0.8833
2373.73	0.884
2382.07	0.887
2390.42	0.886
2398.77	0.886
2407.11	0.886
2415.46	0.8837
2423.8	0.882
2432.15	0.878
2440.5	0.8771
2448.84	0.873
2457.19	0.872
2465.54	0.87
2473.88	0.8651
2482.23	0.864
2490.57	0.861
2498.92	0.8644
2507.27	0.8592
2515.61	0.8664
2523.96	0.8653
2532.3	0.8543
2540.65	0.858
2549	0.8585
2557.34	0.8549
2565.69	0.861
2574.04	0.8611
2582.38	0.8559
2590.73	0.859
2599.07	0.844
2607.42	0.837
2615.77	0.821
2624.11	0.795
2632.46	0.7872
2640.81	0.7638
2649.15	0.7175
2657.5	0.6387
2665.84	0.7059
2674.19	0.558
2682.54	0.673
2690.88	0.5148
2699.23	0.5371
2707.58	0.4158
2715.92	0.4371
2724.27	0.4358
2732.61	0.2076
2740.96	0.1045
2749.31	0.0576
2757.65	0.0411
2766	0.0397
2774.35	0.0662
2782.69	0.0452
2791.04	0.1765
2799.38	0.0027
2807.73	0.0085
2816.08	0.03
2824.42	0.0265
2832.77	0.0637
2841.12	0.261
2849.46	0.1994
2857.81	0.1718
2866.15	0.0581
2874.5	0.0606
2882.85	0.1
2891.19	0.2227
2899.54	0.099
2907.88	0.3828
2916.23	0.2308
2924.58	0.2946
2932.92	0.3637
2941.27	0.347
2949.62	0.403
2957.96	0.3787
2966.31	0.345
2974.65	0.4341
2983	0.4626
2991.35	0.4893
2999.69	0.5573
3008.04	0.5763
3016.39	0.5939
3024.73	0.5057
3033.08	0.5403
3041.42	0.6278
3049.77	0.623
3058.12	0.7071
3066.46	0.7281
3074.81	0.6925
3083.16	0.7721
3091.5	0.7388
3099.85	0.7554
3108.19	0.7716
3116.54	0.736
3124.89	0.7842
3133.23	0.7823
3141.58	0.7724
3149.93	0.7779
3158.27	0.7835
3166.62	0.7819
3174.96	0.792
3183.31	0.794
3191.66	0.7895
3200	0.789
3208.35	0.791
3216.7	0.794
3225.04	0.794
3233.39	0.794
3241.73	0.7919
3250.08	0.791
3258.43	0.79
3266.77	0.787
3275.12	0.787
3283.46	0.784
3291.81	0.7834
3300.16	0.783
3308.5	0.782
3316.85	0.78
3325.2	0.7808
3333.54	0.78
3341.89	0.7812
3350.23	0.78
3358.58	0.78
3366.93	0.777
3375.27	0.7764
3383.62	0.778
3391.97	0.7747
3400.31	0.7638
3408.66	0.7573
3417	0.7389
3425.35	0.7033
3433.7	0.6798
3442.04	0.6514
3450.39	0.642
3458.74	0.6601
3467.08	0.7037
3475.43	0.6243
3483.77	0.7326
3492.12	0.6499
3500.47	0.583
3508.81	0.5983
3517.16	0.6572
3525.51	0.7376
3533.85	0.7768
3542.2	0.7898
3550.54	0.794
3558.89	0.794
3567.24	0.7943
3575.58	0.7942
3583.93	0.793
3592.28	0.794
3600.62	0.7943
3608.97	0.795
3617.31	0.7967
3625.66	0.796
3634.01	0.794
3642.35	0.793
3650.7	0.7961
3659.04	0.7981
3667.39	0.7934
3675.74	0.796
3684.08	0.7986
3692.43	0.795
3700.78	0.798
3709.12	0.7998
3717.47	0.8073
3725.81	0.8119
3734.16	0.8154
3742.51	0.82
3750.85	0.8191
3759.2	0.816
3767.55	0.813
3775.89	0.812
3784.24	0.811
3792.58	0.811
3800.93	0.812
3809.28	0.812
3817.62	0.81
3825.97	0.811
3834.32	0.81
3842.66	0.811
3851.01	0.8079
3859.35	0.806
3867.7	0.806
3876.05	0.804
3884.39	0.804
3892.74	0.804
3901.09	0.804
