Infrared Spectrum: PREDNISOLONE, 9Alpha-FLUORO-16Alpha-METHYL-
Formula: C22 H29 F O5
CAS: 50-02-2
State: SOLID (KBr DISC) VS KBr
Melting point: 262 C
Class: COBLENTZ III
Instrument: PERKIN-ELMER 21 (GRATING)
Instrument parameters: FILTER AT ABOUT 10 MICRONS
Sampling: TRANSMISSION
Resolution: 2
1/CM	TRANSMITTANCE
4000	0.8536
3991	0.8536
3982	0.8537
3973	0.8538
3964	0.8539
3955	0.854
3946	0.854
3937	0.8542
3928	0.8542
3919	0.8542
3910	0.8543
3901	0.8543
3892	0.8544
3883	0.8545
3874	0.8545
3865	0.8546
3856	0.8545
3847	0.8544
3838	0.8542
3829	0.854
3820	0.8539
3811	0.8541
3802	0.8545
3793	0.8553
3784	0.8564
3775	0.8575
3766	0.8586
3757	0.8588
3748	0.8591
3739	0.8587
3730	0.8581
3721	0.8573
3712	0.8556
3703	0.8537
3694	0.8513
3685	0.8473
3676	0.8428
3667	0.8363
3658	0.8286
3649	0.8205
3640	0.8078
3631	0.7948
3622	0.7815
3613	0.7682
3604	0.7449
3595	0.7206
3586	0.7051
3577	0.6917
3568	0.6467
3559	0.6162
3550	0.5884
3541	0.5612
3532	0.5339
3523	0.5065
3514	0.4789
3505	0.451
3496	0.4232
3487	0.395
3478	0.3749
3469	0.3557
3460	0.3272
3451	0.3151
3442	0.3026
3433	0.2883
3424	0.2804
3415	0.2782
3406	0.278
3397	0.2795
3388	0.2895
3379	0.3047
3370	0.3218
3361	0.3468
3352	0.3758
3343	0.4004
3334	0.4208
3325	0.4548
3316	0.4866
3307	0.5104
3298	0.5288
3289	0.547
3280	0.5653
3271	0.5831
3262	0.5982
3253	0.6129
3244	0.6271
3235	0.6445
3226	0.6681
3217	0.6804
3208	0.6925
3199	0.7048
3190	0.7169
3181	0.7293
3172	0.74
3163	0.749
3154	0.7561
3145	0.7626
3136	0.77
3127	0.7778
3118	0.7839
3109	0.7888
3100	0.7922
3091	0.7951
3082	0.7967
3073	0.7961
3064	0.7946
3055	0.7921
3046	0.7871
3037	0.7793
3028	0.7545
3019	0.7287
3010	0.7018
3001	0.6669
2992	0.6451
2983	0.6181
2974	0.518
2965	0.4395
2956	0.4255
2947	0.4238
2938	0.4266
2929	0.4512
2920	0.4819
2911	0.5126
2902	0.5435
2893	0.5667
2884	0.5688
2875	0.5704
2866	0.591
2857	0.6487
2848	0.7065
2839	0.7472
2830	0.7634
2821	0.7785
2812	0.7917
2803	0.806
2794	0.8138
2785	0.8203
2776	0.8255
2767	0.8275
2758	0.8283
2749	0.8289
2740	0.8294
2731	0.8299
2722	0.8313
2713	0.8333
2704	0.8351
2695	0.8347
2686	0.8346
2677	0.8351
2668	0.8356
2659	0.8363
2650	0.8375
2641	0.8391
2632	0.8412
2623	0.8441
2614	0.8468
2605	0.8482
2596	0.8495
2587	0.8506
2578	0.8512
2569	0.8518
2560	0.8525
2551	0.8532
2542	0.8537
2533	0.8543
2524	0.8549
2515	0.8556
2506	0.8562
2497	0.8568
2488	0.8575
2479	0.8588
2470	0.8599
2461	0.861
2452	0.8621
2443	0.8632
2434	0.8645
2425	0.8655
2416	0.8666
2407	0.8675
2398	0.8686
2389	0.869
2380	0.8694
2371	0.8696
2362	0.8693
2353	0.8689
2344	0.8683
2335	0.8675
2326	0.8668
2317	0.8668
2308	0.867
2299	0.8678
2290	0.8689
2281	0.87
2272	0.8711
2263	0.8716
2254	0.8715
2245	0.8714
2236	0.8712
2227	0.8709
2218	0.8705
2209	0.8702
2200	0.8699
2191	0.87
2182	0.8702
2173	0.8704
2164	0.8707
2155	0.8709
2146	0.871
2137	0.8711
2128	0.8712
2119	0.8713
2110	0.8714
2101	0.8714
2092	0.8714
2083	0.8714
2074	0.8715
2065	0.8718
2056	0.8721
2047	0.8728
2038	0.874
2029	0.8754
2020	0.8748
2011	0.8734
2002	0.8728
1993	0.8734
1984	0.874
1975	0.8745
1966	0.8751
1957	0.8757
1948	0.8763
1939	0.8768
1930	0.8782
1921	0.8791
1912	0.8792
1903	0.8795
1894	0.8799
1885	0.8801
1876	0.8802
1867	0.8801
1858	0.8792
1849	0.877
1840	0.8711
1831	0.8683
1822	0.8694
1813	0.8684
1804	0.8658
1795	0.862
1786	0.8568
1777	0.8497
1768	0.8338
1759	0.8174
1750	0.8015
1741	0.7651
1732	0.6133
1723	0.5474
1714	0.4164
1705	0.5625
1696	0.6592
1687	0.5573
1678	0.1656
1669	0.0854
1660	0.2972
1651	0.5134
1642	0.5533
1633	0.3837
1624	0.3045
1615	0.3677
1606	0.4269
1597	0.6102
1588	0.7214
1579	0.775
1570	0.8075
1561	0.8221
1552	0.834
1543	0.8365
1534	0.8438
1525	0.8484
1516	0.8463
1507	0.8436
1498	0.8375
1489	0.8124
1480	0.7601
1471	0.6699
1462	0.6206
1453	0.5417
1444	0.5772
1435	0.6172
1426	0.6386
1417	0.586
1408	0.5643
1399	0.5359
1390	0.5979
1381	0.6106
1372	0.6426
1363	0.6581
1354	0.6464
1345	0.693
1336	0.6936
1327	0.6758
1318	0.6606
1309	0.5933
1300	0.5175
1291	0.542
1282	0.5612
1273	0.5672
1264	0.6053
1255	0.6266
1246	0.5781
1237	0.5985
1228	0.6655
1219	0.6671
1210	0.676
1201	0.6906
1192	0.6693
1183	0.6741
1174	0.685
1165	0.6774
1156	0.6711
1147	0.6127
1138	0.4681
1129	0.5181
1120	0.6056
1111	0.6683
1102	0.6009
1093	0.5319
1084	0.5554
1075	0.4716
1066	0.4323
1057	0.4137
1048	0.5021
1039	0.4712
1030	0.5827
1021	0.6756
1012	0.6903
1003	0.7051
994	0.6671
985	0.6125
976	0.6176
967	0.735
958	0.6847
949	0.6657
940	0.7417
931	0.6308
922	0.6838
913	0.5688
904	0.6108
895	0.451
886	0.474
877	0.7026
868	0.7725
859	0.8056
850	0.7144
841	0.7844
832	0.7441
823	0.7881
814	0.7717
805	0.8019
796	0.8107
787	0.8118
778	0.8132
769	0.8001
760	0.7699
751	0.7764
742	0.8074
733	0.8171
724	0.789
715	0.7715
706	0.74
697	0.7595
688	0.7034
679	0.7319
670	0.7515
