Infrared Spectrum: Cyclophosphamide
Formula: C 7 H 15 Cl 2 N 2 O 2 P
CAS: 50-18-0
State: gas
Origin: EPA-IR VAPOR PHASE LIBRARY
1/CM	ABSORBANCE
549.8	0.003815
559.445	0.003675
569.09	0.002965
578.734	0.003135
588.379	0.001595
598.024	0.001955
607.669	0.001835
617.313	0.0011489
626.958	0.001945
636.603	0.001745
646.248	0.003155
655.893	0.003505
665.537	0.004535
675.182	0.004135
684.827	0.003295
694.472	0.004085
704.116	0.003805
713.761	0.004455
723.406	0.006935
733.051	0.008855
742.695	0.006515
752.34	0.006095
761.985	0.009705
771.63	0.014115
781.275	0.014795
790.919	0.015425
800.564	0.011475
810.209	0.007805
819.854	0.005645
829.498	0.005435
839.143	0.007765
848.788	0.008975
858.433	0.008135
868.078	0.004625
877.722	0.005255
887.367	0.005655
897.012	0.006255
906.657	0.009385
916.301	0.013265
925.946	0.010515
935.591	0.009155
945.236	0.008275
954.88	0.007505
964.525	0.008935
974.17	0.010895
983.815	0.010575
993.46	0.006305
1003.1	0.005745
1012.75	0.006225
1022.39	0.010875
1032.04	0.013715
1041.68	0.012455
1051.33	0.012995
1060.97	0.008685
1070.62	0.007095
1080.26	0.007445
1089.91	0.009505
1099.55	0.009495
1109.2	0.010605
1118.84	0.016425
1128.49	0.026985
1138.13	0.033495
1147.78	0.025485
1157.42	0.018555
1167.07	0.014925
1176.71	0.014065
1186.36	0.014865
1196	0.012295
1205.64	0.008615
1215.29	0.011245
1224.93	0.009305
1234.58	0.008595
1244.22	0.011495
1253.87	0.012995
1263.51	0.014495
1273.16	0.021155
1282.8	0.030845
1292.45	0.031605
1302.09	0.021985
1311.74	0.012605
1321.38	0.008635
1331.03	0.009585
1340.67	0.008325
1350.32	0.008675
1359.96	0.008605
1369.61	0.007255
1379.25	0.006995
1388.9	0.005885
1398.54	0.003965
1408.18	0.002885
1417.83	0.002775
1427.47	0.003045
1437.12	0.004315
1446.76	0.005005
1456.41	0.004515
1466.05	0.003925
1475.7	0.004645
1485.34	0.003575
1494.99	0.002425
1504.63	0.001845
1514.28	0.001705
1523.92	0.001635
1533.57	0.0013284
1543.21	0.0010955
1552.86	0.0014437
1562.5	0.001146
1572.15	0.0010586
1581.79	0.0011155
1591.44	0.0014553
1601.08	0.0014316
1610.73	0.001595
1620.37	0.0015447
1630.01	0.001625
1639.66	0.0013489
1649.3	0.0011228
1658.95	0.0011706
1668.59	0.001625
1678.24	0.0014778
1687.88	0.0014152
1697.53	0.0014475
1707.17	0.0013497
1716.82	0.0014389
1726.46	0.0015085
1736.11	0.0014725
1745.75	0.001585
1755.4	0.0014515
1765.04	0.0014331
1774.69	0.0012479
1784.33	0.0013701
1793.98	0.0013096
1803.62	0.0012424
1813.27	0.0015185
1822.91	0.0014401
1832.55	0.001383
1842.2	0.001221
1851.84	0.0015003
1861.49	0.0014337
1871.13	0.0012776
1880.78	0.0014921
1890.42	0.0012401
1900.07	0.0012976
1909.71	0.0012562
1919.36	0.0011656
1929	0.0010275
1938.65	0.0010298
1948.29	0.0010627
1957.94	0.0012189
1967.58	0.0011873
1977.23	0.0010591
1986.87	0.0013786
1996.52	0.0011634
2006.16	0.0011248
2015.81	0.0010056
2025.45	0.0011885
2035.1	0.0011975
2044.74	0.001285
2054.38	0.0011976
2064.03	0.0011823
2073.67	0.0008424
2083.32	0.0009418
2092.96	0.0008566
2102.61	0.0010913
2112.25	0.0010165
2121.9	0.0011914
2131.54	0.0010243
2141.19	0.0011275
2150.83	0.0011937
2160.48	0.0009791
2170.12	0.0012434
2179.77	0.001037
2189.41	0.0010165
2199.06	0.001263
2208.7	0.0010945
2218.35	0.0010316
2227.99	0.0006595
2237.64	0.0008527
2247.28	0.0012249
2256.92	0.0011015
2266.57	0.0010644
2276.21	0.0012903
2285.86	0.0011812
2295.5	0.000947
2305.15	0.0013184
2314.79	0.0013882
2324.44	0.0009062
2334.08	0.001211
2343.73	0.0009931
2353.37	0.0012154
2363.02	0.001483
2372.66	0.0013235
2382.31	0.0012819
2391.95	0.0013385
2401.6	0.0012204
2411.24	0.0011347
2420.89	0.0010737
2430.53	0.0013443
2440.18	0.0011798
2449.82	0.0012553
2459.47	0.0012688
2469.11	0.0013107
2478.75	0.0011815
2488.4	0.001099
2498.04	0.0012486
2507.69	0.0009433
2517.33	0.0009551
2526.98	0.000825
2536.62	0.0012038
2546.27	0.0008807
2555.91	0.0008804
2565.56	0.0008861
2575.2	0.0006702
2584.85	0.0007093
2594.49	0.000909
2604.14	0.0011527
2613.78	0.0012561
2623.43	0.0010104
2633.07	0.001248
2642.72	0.0006752
2652.36	0.0007637
2662.01	0.0011413
2671.65	0.0006874
2681.29	0.0008758
2690.94	0.0014253
2700.58	0.0007801
2710.23	0.0010539
2719.87	0.001765
2729.52	0.001605
2739.16	0.001625
2748.81	0.001585
2758.45	0.0014055
2768.1	0.0012981
2777.74	0.001745
2787.39	0.001825
2797.03	0.001875
2806.68	0.001775
2816.32	0.002625
2825.97	0.002435
2835.61	0.003945
2845.26	0.006175
2854.9	0.009105
2864.55	0.011835
2874.19	0.012765
2883.84	0.012425
2893.48	0.012545
2903.12	0.011485
2912.77	0.011335
2922.41	0.012645
2932.06	0.014455
2941.7	0.015525
2951.35	0.017785
2960.99	0.016255
2970.64	0.013125
2980.28	0.011575
2989.93	0.008645
2999.57	0.004235
3009.22	0.002555
3018.86	0.001865
3028.51	0.002025
3038.15	0.001645
3047.8	0.001805
3057.44	0.0014049
3067.09	0.0011538
3076.73	0.0012675
3086.38	0.0011633
3096.02	0.0013221
3105.67	0.0015349
3115.31	0.001885
3124.95	0.00092
3134.6	0.0009358
3144.24	0.00041
3153.89	0.0011184
3163.53	0.0004923
3173.18	0.0006694
3182.82	0.0012181
3192.47	0.0014318
3202.11	0.00063098
3211.76	0.0006763
3221.4	0.000353
3231.05	0.0008376
3240.69	0.0008343
3250.34	0.0004755
3259.98	0.0013192
3269.63	0.0012368
3279.27	0.0012474
3288.92	0.001895
3298.56	0.0012481
3308.21	0.0011656
3317.85	0.0012268
3327.49	0.0007872
3337.14	0.000747
3346.78	0.0011457
3356.43	0.0009769
3366.07	0.0011069
3375.72	0.00060707
3385.36	0.0008585
3395.01	0.0004897
3404.65	0.001935
3414.3	0.0008145
3423.94	0.0012331
3433.59	0.0006619
3443.23	0.0012862
3452.88	0.002035
3462.52	0.0013148
3472.17	0.000521
3481.81	0.0012516
3491.46	0.0014779
3501.1	0.0014312
3510.75	0.0008269
3520.39	0.001765
3530.04	0.0011395
3539.68	0.0011371
3549.32	0.00058748
3558.97	0.000857
3568.61	0.0010705
3578.26	0.0009675
3587.9	0.0009811
3597.55	0.001685
3607.19	0.0013149
3616.84	0.001735
3626.48	0.0014154
3636.13	0.0005204
3645.77	0.001845
3655.42	0.0013587
3665.06	0.001975
3674.71	0.0014762
3684.35	0.001845
3694	0.0010776
3703.64	0.0011786
3713.29	0.0015141
3722.93	0.0013517
3732.58	0.0007235
3742.22	0.0004976
3751.86	0.0013248
3761.51	0.0009416
3771.15	0.0006952
3780.8	0.001725
3790.44	0.001695
3800.09	0.001665
3809.73	0.0013086
3819.38	0.0006921
3829.02	0.0007482
3838.67	0.001755
3848.31	0.0011622
3857.96	0.0011502
3867.6	0.0011845
3877.25	0.0015142
3886.89	0.0012753
3896.54	0.00057316
3906.18	0.001905
3915.83	0.002075
3925.47	0.0007717
3935.12	0.0011267
3944.76	0.0013464
3954.41	0.001115
3964.05	0.0009674
3973.69	0.0013318
3983.34	0.002205
3992.98	0.0009542
