Infrared Spectrum: PIPERIDINE, N-METHYL-4-PHENYL-4-CARBETHOXY-, HYDROCHLORIDE
Formula: C15 H22 Cl N O2
CAS: 50-13-5
State: SOLID (1.6 mg / 250 mg KBr DISC)
Melting point: 186-189 C
Class: COBLENTZ III
Instrument: PERKIN-ELMER 21 (GRATING)
Instrument parameters: FILTER AT ABOUT 10 MICRONS
Sampling: TRANSMISSION
Resolution: 2
Origin: BUREAU OF CUSTOMS
1/CM	TRANSMITTANCE
4000	0.8713
3991	0.8721
3982	0.8728
3973	0.8736
3964	0.8744
3955	0.8751
3946	0.8755
3937	0.8759
3928	0.8762
3919	0.8763
3910	0.8759
3901	0.8756
3892	0.8753
3883	0.8756
3874	0.8759
3865	0.8762
3856	0.8766
3847	0.8768
3838	0.8773
3829	0.8778
3820	0.8784
3811	0.879
3802	0.8797
3793	0.8803
3784	0.8808
3775	0.8814
3766	0.8818
3757	0.882
3748	0.882
3739	0.8818
3730	0.8818
3721	0.8818
3712	0.8816
3703	0.8814
3694	0.8813
3685	0.8811
3676	0.8807
3667	0.8796
3658	0.8784
3649	0.877
3640	0.8756
3631	0.874
3622	0.8714
3613	0.8685
3604	0.8642
3595	0.8597
3586	0.8551
3577	0.8502
3568	0.8453
3559	0.8404
3550	0.836
3541	0.8315
3532	0.8268
3523	0.822
3514	0.8171
3505	0.8126
3496	0.8082
3487	0.8041
3478	0.7991
3469	0.7942
3460	0.7905
3451	0.7868
3442	0.7841
3433	0.783
3424	0.783
3415	0.7835
3406	0.7855
3397	0.7915
3388	0.7974
3379	0.8021
3370	0.8069
3361	0.8117
3352	0.8165
3343	0.8214
3334	0.8263
3325	0.8302
3316	0.8339
3307	0.8375
3298	0.8413
3289	0.843
3280	0.8448
3271	0.8463
3262	0.8474
3253	0.8484
3244	0.8495
3235	0.8503
3226	0.851
3217	0.8517
3208	0.8523
3199	0.853
3190	0.8535
3181	0.8534
3172	0.8534
3163	0.8531
3154	0.8527
3145	0.852
3136	0.8509
3127	0.8467
3118	0.8368
3109	0.8206
3100	0.8032
3091	0.7818
3082	0.77
3073	0.7615
3064	0.754
3055	0.7471
3046	0.7415
3037	0.7371
3028	0.7265
3019	0.7056
3010	0.6571
3001	0.6086
2992	0.5595
2983	0.5102
2974	0.4742
2965	0.4699
2956	0.4683
2947	0.4674
2938	0.4669
2929	0.4729
2920	0.4907
2911	0.513
2902	0.5355
2893	0.5582
2884	0.5809
2875	0.6039
2866	0.6269
2857	0.65
2848	0.6648
2839	0.6818
2830	0.6944
2821	0.7062
2812	0.7151
2803	0.7221
2794	0.7265
2785	0.7283
2776	0.7256
2767	0.7175
2758	0.7039
2749	0.6822
2740	0.6425
2731	0.6159
2722	0.594
2713	0.5743
2704	0.5506
2695	0.5032
2686	0.469
2677	0.4457
2668	0.4356
2659	0.4283
2650	0.4246
2641	0.4236
2632	0.4227
2623	0.4215
2614	0.4197
2605	0.4139
2596	0.4062
2587	0.4023
2578	0.4009
2569	0.3971
2560	0.3888
2551	0.3847
2542	0.3829
2533	0.3772
2524	0.3603
2515	0.3387
2506	0.336
2497	0.3278
2488	0.3207
2479	0.3195
2470	0.3247
2461	0.3334
2452	0.3379
2443	0.3394
2434	0.335
2425	0.3262
2416	0.3122
2407	0.2995
2398	0.292
2389	0.2866
2380	0.2842
2371	0.2823
2362	0.2834
2353	0.3002
2344	0.3299
2335	0.3523
2326	0.3768
2317	0.4105
2308	0.4601
2299	0.5155
2290	0.5537
2281	0.5898
2272	0.6203
2263	0.6404
2254	0.6595
2245	0.6791
2236	0.6937
2227	0.7078
2218	0.7221
2209	0.735
2200	0.7476
2191	0.7611
2182	0.7746
2173	0.7874
2164	0.7999
2155	0.8125
2146	0.8252
2137	0.8374
2128	0.8474
2119	0.8553
2110	0.862
2101	0.8684
2092	0.8743
2083	0.8797
2074	0.885
2065	0.8886
2056	0.892
2047	0.8957
2038	0.8982
2029	0.8983
2020	0.8948
2011	0.8921
2002	0.8935
1993	0.896
1984	0.899
1975	0.9018
1966	0.9055
1957	0.9089
1948	0.9115
1939	0.9136
1930	0.9148
1921	0.9149
1912	0.9134
1903	0.9085
1894	0.9035
1885	0.9056
1876	0.9113
1867	0.9153
1858	0.9187
1849	0.9187
1840	0.9121
1831	0.9012
1822	0.8874
1813	0.8817
1804	0.8789
1795	0.8733
1786	0.8635
1777	0.848
1768	0.8165
1759	0.7722
1750	0.6216
1741	0.3422
1732	0.0726
1723	0.1887
1714	0.3859
1705	0.576
1696	0.6886
1687	0.7053
1678	0.7432
1669	0.7831
1660	0.7968
1651	0.804
1642	0.8121
1633	0.8214
1624	0.8283
1615	0.8274
1606	0.7768
1597	0.8204
1588	0.7784
1579	0.84
1570	0.8567
1561	0.8624
1552	0.8568
1543	0.8561
1534	0.8518
1525	0.8331
1516	0.7962
1507	0.5697
1498	0.563
1489	0.3789
1480	0.3874
1471	0.4
1462	0.3775
1453	0.3064
1444	0.3839
1435	0.4466
1426	0.441
1417	0.5519
1408	0.6277
1399	0.6203
1390	0.5525
1381	0.5583
1372	0.5553
1363	0.6692
1354	0.7643
1345	0.7658
1336	0.7741
1327	0.7139
1318	0.5164
1309	0.374
1300	0.5915
1291	0.6012
1282	0.7076
1273	0.5906
1264	0.6524
1255	0.5841
1246	0.3632
1237	0.1972
1228	0.1268
1219	0.2373
1210	0.4422
1201	0.5584
1192	0.5699
1183	0.5743
1174	0.2773
1165	0.366
1156	0.2588
1147	0.4567
1138	0.5842
1129	0.6316
1120	0.7065
1111	0.6665
1102	0.3494
1093	0.4552
1084	0.6488
1075	0.6458
1066	0.4215
1057	0.6335
1048	0.5303
1039	0.6644
1030	0.5251
1021	0.5458
1012	0.5009
1003	0.5474
994	0.448
985	0.6428
976	0.5562
967	0.7426
958	0.7996
949	0.7258
940	0.6435
931	0.7255
922	0.813
913	0.6799
904	0.7671
895	0.8427
886	0.8574
877	0.8528
868	0.7358
859	0.668
850	0.8242
841	0.8455
832	0.8502
823	0.8793
814	0.8659
805	0.8459
796	0.7821
787	0.7088
778	0.6685
769	0.6675
760	0.7219
751	0.8538
742	0.7768
733	0.3264
724	0.7108
715	0.8171
706	0.6686
697	0.2941
688	0.6675
679	0.7569
670	0.7732
661	0.7958
652	0.6734
