Infrared Spectrum: Mephenytoin
Formula: C 12 H 14 N 2 O 2
CAS: 50-12-4
State: gas
Instrument: HP-GC/MS/IRD
Origin: NIST Mass Spectrometry Data Center
1/CM	ABSORBANCE
550	0.0003589
562	0.0001073
574	7.4e-06
586	0.0001813
598	0.0004033
610	0.0001665
622	9.62e-05
634	0.0003441
646	0.0006401
658	0.000222
670	0.00037
682	0.0008288
694	0.0018833
706	0.0016909
718	0.0011766
730	0.0009879
742	0.0008658
754	0.0013394
766	0.0015762
778	0.0009435
790	0.000407
802	0.0001924
814	0.0001295
826	6.66e-05
838	0.0001036
850	0.0002072
862	0.0004588
874	0.0002553
886	5.92e-05
898	2.22e-05
910	4.81e-05
922	8.14e-05
934	0.0002331
946	0.0003774
958	0.000814
970	0.001036
982	0.0005809
994	0.0003182
1006	0.0003478
1018	0.0003182
1030	0.0006808
1042	0.0012247
1054	0.0022348
1066	0.0013024
1078	0.0004736
1090	0.0003108
1102	0.0003663
1114	0.0004218
1126	0.0005328
1138	0.0011285
1150	0.0013246
1162	0.0005032
1174	0.0002368
1186	0.0002664
1198	0.0003626
1210	0.0004958
1222	0.0004699
1234	0.000333
1246	0.0003256
1258	0.0005994
1270	0.0014467
1282	0.0016132
1294	0.0016243
1306	0.0018944
1318	0.0015873
1330	0.0013579
1342	0.0011914
1354	0.0015022
1366	0.0024716
1378	0.0029341
1390	0.0049358
1402	0.0043845
1414	0.0020498
1426	0.0028157
1438	0.0061975
1450	0.0087098
1462	0.0050135
1474	0.0022718
1486	0.0013838
1498	0.0014393
1510	0.0007511
1522	0.000481
1534	0.00037
1546	0.0002775
1558	0.0002442
1570	0.000222
1582	0.0002405
1594	0.0003367
1606	0.0003108
1618	0.000185
1630	0.0001887
1642	0.0002701
1654	0.0003478
1666	0.0005069
1678	0.0006475
1690	0.0010175
1702	0.0017723
1714	0.00333
1726	0.0088541
1738	0.0305657
1750	0.028749
1762	0.0062826
1774	0.0030155
1786	0.0043919
1798	0.0120361
1810	0.0077108
1822	0.0018389
1834	0.0008288
1846	0.0004736
1858	0.0003552
1870	0.0003108
1882	0.0002738
1894	0.0002257
1906	0.0001776
1918	0.0001591
1930	0.0001554
1942	0.0001813
1954	0.0001961
1966	0.0001517
1978	0.000111
1990	9.25e-05
2002	7.03e-05
2014	5.18e-05
2026	4.07e-05
2038	2.59e-05
2050	2.59e-05
2062	1.85e-05
2074	1.48e-05
2086	2.22e-05
2098	2.96e-05
2110	2.59e-05
2122	1.85e-05
2134	2.59e-05
2146	1.85e-05
2158	2.59e-05
2170	1.11e-05
2182	0
2194	0
2206	1.11e-05
2218	0
2230	1.85e-05
2242	0
2254	1.48e-05
2266	1.11e-05
2278	7.4e-06
2290	1.48e-05
2302	2.96e-05
2314	3.7e-05
2326	3.7e-05
2338	7.03e-05
2350	7.77e-05
2362	7.03e-05
2374	3.7e-05
2386	3.7e-05
2398	4.81e-05
2410	4.07e-05
2422	3.7e-05
2434	5.55e-05
2446	5.92e-05
2458	4.07e-05
2470	2.96e-05
2482	2.22e-05
2494	1.48e-05
2506	2.59e-05
2518	1.11e-05
2530	2.59e-05
2542	7.4e-06
2554	7.4e-06
2566	1.11e-05
2578	7.4e-06
2590	0
2602	1.11e-05
2614	7.4e-06
2626	2.59e-05
2638	1.48e-05
2650	2.22e-05
2662	5.18e-05
2674	5.18e-05
2686	3.7e-05
2698	2.96e-05
2710	4.81e-05
2722	3.33e-05
2734	2.96e-05
2746	7.03e-05
2758	5.55e-05
2770	5.55e-05
2782	5.18e-05
2794	5.18e-05
2806	7.03e-05
2818	8.88e-05
2830	0.0001258
2842	0.0001406
2854	0.0002072
2866	0.0003478
2878	0.0005328
2890	0.0008621
2902	0.0007844
2914	0.0007881
2926	0.0011988
2938	0.0015762
2950	0.0017686
2962	0.001517
2974	0.0020609
2986	0.0019203
2998	0.0006697
3010	0.0003774
3022	0.0004477
3034	0.0006919
3046	0.0007733
3058	0.000777
3070	0.001369
3082	0.0009953
3094	0.0006771
3106	0.0004144
3118	0.0002701
3130	0.0001443
3142	0.0001073
3154	0.0001073
3166	0.0001221
3178	6.29e-05
3190	2.96e-05
3202	5.18e-05
3214	7.4e-06
3226	3.7e-05
3238	2.22e-05
3250	1.48e-05
3262	2.96e-05
3274	1.85e-05
3286	2.96e-05
3298	1.85e-05
3310	1.11e-05
3322	3.7e-06
3334	1.85e-05
3346	2.96e-05
3358	2.22e-05
3370	1.48e-05
3382	3.7e-05
3394	7.4e-05
3406	3.7e-05
3418	7.4e-05
3430	0.0001147
3442	0.0001332
3454	0.0003145
3466	0.0008806
3478	0.0014689
3490	0.0009102
3502	0.0003182
3514	0.0002294
3526	0.0002331
3538	0.0002109
3550	0.0001036
3562	9.62e-05
3574	0.000111
3586	6.29e-05
3598	0.0001036
3610	7.4e-05
3622	6.66e-05
3634	5.18e-05
3646	2.96e-05
3658	4.07e-05
3670	4.44e-05
3682	5.55e-05
3694	3.33e-05
3706	7.03e-05
3718	8.14e-05
3730	6.29e-05
3742	7.4e-06
3754	4.07e-05
3766	3.7e-05
3778	5.18e-05
3790	3.7e-05
3802	4.07e-05
3814	5.92e-05
3826	5.55e-05
3838	5.55e-05
