Infrared Spectrum: 4,4'-DDT
Formula: C 14 H 9 Cl 5
CAS: 50-29-3
State: gas
Instrument: HP-GC/MS/IRD
Origin: NIST Mass Spectrometry Data Center
1/CM	ABSORBANCE
550	0.0004224
562	0.000121
574	0.0001012
586	7.92e-05
598	0.0001408
610	0.0010978
622	0.0021142
634	0.000583
646	0.001276
658	0.0015026
670	0.001056
682	0.0016324
694	0.0013178
706	0.0016346
718	0.0013816
730	0.0012496
742	0.001122
754	0.0029128
766	0.013728
778	0.0209022
790	0.004609
802	0.0031768
814	0.0039424
826	0.0036102
838	0.0029524
850	0.0040744
862	0.0020548
874	0.0009614
886	0.001078
898	0.0010208
910	0.000275
922	0.0001804
934	0.0002288
946	0.0002288
958	0.0002684
970	0.0002926
982	0.0004114
994	0.0008206
1006	0.0026224
1018	0.0086834
1030	0.0011286
1042	0.0005236
1054	0.000385
1066	0.000616
1078	0.0016148
1090	0.0100056
1102	0.0084766
1114	0.0033198
1126	0.0016324
1138	0.0008206
1150	0.0005698
1162	0.0002574
1174	0.0002002
1186	0.000242
1198	0.0001672
1210	0.0002024
1222	0.0004466
1234	0.0003278
1246	0.0003124
1258	0.0004576
1270	0.0002684
1282	0.0001254
1294	0.0001034
1306	9.9e-05
1318	0.0001848
1330	0.0002134
1342	0.0002024
1354	0.0001496
1366	0.000132
1378	0.0001716
1390	0.0003828
1402	0.001232
1414	0.0012386
1426	0.0004466
1438	0.0007106
1450	0.000792
1462	0.0013508
1474	0.0018436
1486	0.008855
1498	0.0131912
1510	0.0016126
1522	0.0008514
1534	0.0004598
1546	0.0003366
1558	0.0003608
1570	0.0006556
1582	0.0011506
1594	0.0021274
1606	0.000847
1618	0.0005852
1630	0.0004136
1642	0.0003278
1654	0.000264
1666	0.0001298
1678	6.82e-05
1690	5.72e-05
1702	2.64e-05
1714	6.38e-05
1726	7.92e-05
1738	9.24e-05
1750	0.000132
1762	0.000275
1774	0.0004862
1786	0.0001628
1798	8.36e-05
1810	7.26e-05
1822	6.6e-05
1834	5.94e-05
1846	7.26e-05
1858	8.58e-05
1870	0.0001232
1882	0.0003102
1894	0.0006204
1906	0.0002596
1918	0.000132
1930	9.9e-05
1942	7.26e-05
1954	6.82e-05
1966	5.5e-05
1978	5.06e-05
1990	4.84e-05
2002	4.4e-05
2014	5.72e-05
2026	7.26e-05
2038	3.52e-05
2050	3.74e-05
2062	3.74e-05
2074	2.42e-05
2086	5.5e-05
2098	6.6e-05
2110	5.06e-05
2122	5.28e-05
2134	2.42e-05
2146	2.86e-05
2158	5.06e-05
2170	3.3e-05
2182	6.6e-05
2194	6.16e-05
2206	6.38e-05
2218	5.5e-05
2230	5.5e-05
2242	7.04e-05
2254	5.94e-05
2266	6.82e-05
2278	6.6e-05
2290	7.7e-05
2302	7.92e-05
2314	9.68e-05
2326	8.36e-05
2338	5.94e-05
2350	5.72e-05
2362	5.72e-05
2374	3.96e-05
2386	4.84e-05
2398	5.06e-05
2410	8.36e-05
2422	5.94e-05
2434	9.68e-05
2446	3.96e-05
2458	5.28e-05
2470	3.3e-05
2482	6.6e-05
2494	7.48e-05
2506	7.92e-05
2518	8.58e-05
2530	7.7e-05
2542	7.92e-05
2554	8.8e-05
2566	0.0001056
2578	0.0001166
2590	0.0001144
2602	0.0001386
2614	7.7e-05
2626	5.94e-05
2638	8.58e-05
2650	6.38e-05
2662	5.06e-05
2674	7.04e-05
2686	7.7e-05
2698	6.6e-05
2710	4.84e-05
2722	4.4e-05
2734	4.4e-05
2746	5.5e-05
2758	0.0001122
2770	3.96e-05
2782	4.62e-05
2794	7.04e-05
2806	3.3e-05
2818	8.14e-05
2830	5.72e-05
2842	7.26e-05
2854	7.7e-05
2866	7.26e-05
2878	5.28e-05
2890	8.58e-05
2902	6.38e-05
2914	0.0001518
2926	0.0004004
2938	0.0001848
2950	0.0001034
2962	7.04e-05
2974	0.000143
2986	0.0001518
2998	0.000132
3010	0.0002002
3022	0.0003982
3034	0.0008404
3046	0.000627
3058	0.0004642
3070	0.0003564
3082	0.0006358
3094	0.000913
3106	0.0005302
3118	0.0002662
3130	0.0001584
3142	7.92e-05
3154	9.02e-05
3166	5.72e-05
3178	2.2e-05
3190	1.98e-05
3202	4.18e-05
3214	5.06e-05
3226	5.28e-05
3238	1.1e-05
3250	2.42e-05
3262	4.84e-05
3274	5.28e-05
3286	6.6e-05
3298	0
3310	6.38e-05
3322	6.6e-05
3334	6.16e-05
3346	0.0001078
3358	6.38e-05
3370	2.2e-05
3382	2.86e-05
3394	5.06e-05
3406	9.02e-05
3418	1.98e-05
3430	1.76e-05
3442	8.36e-05
3454	7.26e-05
3466	5.28e-05
3478	6.16e-05
3490	0.0001056
3502	7.92e-05
3514	0.0001144
3526	7.04e-05
3538	5.28e-05
3550	7.26e-05
3562	3.96e-05
3574	6.38e-05
3586	9.46e-05
3598	2.86e-05
3610	6.16e-05
3622	0.0001144
3634	2.2e-05
3646	8.14e-05
3658	6.6e-05
3670	0.0001188
3682	8.58e-05
3694	0.000132
3706	8.14e-05
3718	0.000154
3730	0.0002222
3742	0.0001342
3754	0.0001056
3766	0.0001892
3778	0.0001386
3790	9.24e-05
3802	0.0001408
3814	0.000132
3826	9.9e-05
3838	0.0001738
