Infrared Spectrum: 11Beta,21-DIHYDROXYPREGN-4-ENE-3,20-DIONE
Formula: C21 H30 O4
CAS: 50-22-6
State: SOLID (KBr DISC)
Class: COBLENTZ III
Instrument: BECKMAN IR-7
Sampling: TRANSMISSION
Resolution: 4
Origin: THE WORCESTER FOUNDATION FOR EXPERIMENTAL BIOLOGY, Neal L. McNiven
1/CM	TRANSMITTANCE
596.358	0.458
605.099	0.406
613.84	0.401
622.581	0.424
631.322	0.445
640.063	0.449
648.803	0.538
657.544	0.596
666.285	0.589
675.026	0.596
683.767	0.614
692.508	0.647
701.249	0.6919
709.99	0.792
718.731	0.799
727.472	0.731
736.212	0.715
744.953	0.776
753.694	0.775
762.435	0.733
771.176	0.743
779.917	0.583
788.658	0.801
797.399	0.796
806.14	0.751
814.881	0.812
823.621	0.763
832.362	0.803
841.103	0.767
849.844	0.739
858.585	0.531
867.326	0.596
876.067	0.3659
884.808	0.721
893.549	0.626
902.29	0.588
911.031	0.576
919.771	0.702
928.512	0.667
937.253	0.617
945.994	0.406
954.735	0.491
963.476	0.618
972.217	0.713
980.958	0.653
989.699	0.569
998.44	0.453
1007.18	0.575
1015.92	0.437
1024.66	0.468
1033.4	0.265
1042.14	0.404
1050.88	0.38
1059.63	0.22
1068.37	0.272
1077.11	0.292
1085.85	0.453
1094.59	0.615
1103.33	0.609
1112.07	0.519
1120.81	0.467
1129.55	0.567
1138.29	0.606
1147.03	0.448
1155.78	0.344
1164.52	0.374
1173.26	0.53
1182	0.358
1190.74	0.279
1199.48	0.447
1208.22	0.39
1216.96	0.393
1225.7	0.431
1234.44	0.332
1243.18	0.277
1251.93	0.288
1260.67	0.315
1269.41	0.2
1278.15	0.242
1286.89	0.286
1295.63	0.404
1304.37	0.545
1313.11	0.485
1321.85	0.424
1330.59	0.412
1339.33	0.364
1348.08	0.352
1356.82	0.3
1365.56	0.377
1374.3	0.473
1383.04	0.44
1391.78	0.337
1400.52	0.433
1409.26	0.312
1418	0.41
1426.74	0.446
1435.48	0.383
1444.23	0.293
1452.97	0.511
1461.71	0.571
1470.45	0.611
1479.19	0.532
1487.93	0.676
1496.67	0.723
1505.41	0.737
1514.15	0.733
1522.89	0.73
1531.63	0.728
1540.38	0.713
1549.12	0.699
1557.86	0.654
1566.6	0.661
1575.34	0.625
1584.08	0.59
1592.82	0.538
1601.56	0.437
1610.3	0.316
1619.04	0.277
1627.78	0.226
1636.53	0.147
1645.27	0.055
1654.01	0.159
1662.75	0.342
1671.49	0.486
1680.23	0.485
1688.97	0.1619
1697.71	0.255
1706.45	0.489
1715.19	0.591
1723.93	0.704
1732.68	0.733
1741.42	0.754
1750.16	0.808
1758.9	0.844
1767.64	0.873
1776.38	0.899
1785.12	0.913
1793.86	0.919
1802.6	0.926
1811.34	0.933
1820.08	0.936
1828.83	0.944
1837.57	0.957
1846.31	0.96
1855.05	0.956
1863.79	0.952
1872.53	0.948
1881.27	0.944
1890.01	0.939
1898.75	0.936
1907.49	0.939
1916.23	0.951
1924.98	0.947
1933.72	0.943
1942.46	0.939
1951.2	0.936
1959.94	0.934
1968.68	0.931
1977.42	0.93
1986.16	0.927
1994.9	0.923
2003.64	0.9197
2012.38	0.918
2021.13	0.917
2029.87	0.915
2038.61	0.9136
2047.35	0.912
2056.09	0.91
2064.83	0.9086
2073.57	0.907
2082.31	0.9055
2091.05	0.904
2099.79	0.902
2108.53	0.9004
2117.28	0.8964
2126.02	0.8927
2134.76	0.8893
2143.5	0.8853
2152.24	0.8816
2160.98	0.8783
2169.72	0.8742
2178.46	0.8702
2187.2	0.8672
2195.94	0.8623
2204.68	0.8591
2213.43	0.8552
2222.17	0.8521
2230.91	0.85
2239.65	0.848
2248.39	0.845
2257.13	0.843
2265.87	0.8409
2274.61	0.8389
2283.35	0.8369
2292.09	0.836
2300.83	0.8338
2309.58	0.833
2318.32	0.833
2327.06	0.833
2335.8	0.833
2344.54	0.833
2353.28	0.8327
2362.02	0.831
2370.76	0.8286
2379.5	0.8268
2388.24	0.8212
2396.98	0.8181
2405.73	0.8135
2414.47	0.812
2423.21	0.8105
2431.95	0.8094
2440.69	0.8074
2449.43	0.8044
2458.17	0.8014
2466.91	0.799
2475.65	0.7973
2484.39	0.796
2493.13	0.7953
2501.88	0.794
2510.62	0.7904
2519.36	0.7843
2528.1	0.7764
2536.84	0.7694
2545.58	0.7632
2554.32	0.7591
2563.06	0.758
2571.8	0.756
2580.54	0.754
2589.28	0.749
2598.02	0.7459
2606.77	0.7399
2615.51	0.7369
2624.25	0.7329
2632.99	0.7275
2641.73	0.718
2650.47	0.6996
2659.21	0.6962
2667.95	0.7011
2676.69	0.7115
2685.43	0.7147
2694.17	0.7103
2702.92	0.7045
2711.66	0.6802
2720.4	0.6663
2729.14	0.6955
2737.88	0.694
2746.62	0.693
2755.36	0.692
2764.1	0.6889
2772.84	0.6781
2781.58	0.659
2790.32	0.6273
2799.07	0.58
2807.81	0.5209
2816.55	0.4338
2825.29	0.3748
2834.03	0.3269
2842.77	0.292
2851.51	0.3298
2860.25	0.3099
2868.99	0.2211
2877.73	0.2318
2886.47	0.222
2895.22	0.1973
2903.96	0.1661
2912.7	0.1453
2921.44	0.2308
2930.18	0.2296
2938.92	0.2104
2947.66	0.1986
2956.4	0.2657
2965.14	0.3349
2973.88	0.4567
2982.62	0.5373
2991.37	0.5848
3000.11	0.6038
3008.85	0.621
3017.59	0.683
3026.33	0.6867
3035.07	0.6908
3043.81	0.6987
3052.55	0.7044
3061.29	0.7124
3070.03	0.717
3078.77	0.719
3087.52	0.72
3096.26	0.72
3105	0.7184
3113.74	0.716
3122.48	0.715
3131.22	0.7143
3139.96	0.7133
3148.7	0.712
3157.44	0.712
3166.18	0.712
3174.92	0.7112
3183.67	0.7102
3192.41	0.707
3201.15	0.7012
3209.89	0.6953
3218.63	0.6891
3227.37	0.686
3236.11	0.678
3244.85	0.6536
3253.59	0.6216
3262.33	0.612
3271.07	0.6108
3279.82	0.6047
3288.56	0.6004
3297.3	0.591
3306.04	0.5761
3314.78	0.5626
3323.52	0.5327
3332.26	0.5034
3341	0.4695
3349.74	0.4466
3358.48	0.4066
3367.22	0.3826
3375.97	0.3638
3384.71	0.3399
3393.45	0.3098
3402.19	0.269
3410.93	0.2443
3419.67	0.2241
3428.41	0.2278
3437.15	0.256
3445.89	0.2334
3454.63	0.249
3463.37	0.2735
3472.12	0.3253
3480.86	0.3781
3489.6	0.4088
3498.34	0.4379
3507.08	0.4668
3515.82	0.4966
3524.56	0.5416
3533.3	0.5777
3542.04	0.6181
3550.78	0.6583
3559.52	0.6959
3568.27	0.7151
3577.01	0.7321
3585.75	0.7432
3594.49	0.7503
3603.23	0.7623
3611.97	0.7683
3620.71	0.7712
3629.45	0.773
3638.19	0.7754
3646.93	0.778
3655.67	0.7793
3664.42	0.781
3673.16	0.7813
3681.9	0.7826
3690.64	0.7816
3699.38	0.781
3708.12	0.78
3716.86	0.779
3725.6	0.778
3734.34	0.7775
3743.08	0.775
3751.82	0.773
3760.57	0.771
3769.31	0.77
3778.05	0.77
3786.79	0.77
3795.53	0.7676
3804.27	0.7626
3813.01	0.7593
3821.75	0.7524
3830.49	0.751
3839.23	0.7493
3847.97	0.749
3856.72	0.75
3865.46	0.751
3874.2	0.752
3882.94	0.751
3891.68	0.752
3900.42	0.752
3909.16	0.752
3917.9	0.753
3926.64	0.753
3935.38	0.7529
3944.12	0.753
3952.87	0.753
3961.61	0.7532
3970.35	0.7538
3979.09	0.753
3987.83	0.753
3996.57	0.753
