Infrared Spectrum: 11Beta,17,21-TRIHYDROXY PROGESTERONE
Formula: C21 H30 O5
CAS: 50-23-7
State: SOLID (KBr PELLET)
Class: COBLENTZ
Instrument: PERKIN-ELMER
Sampling: TRANSMISSION
Resolution: 4
Origin: ABBOTT LABORATORIES - WASHBURN
MICROMETERS	TRANSMITTANCE
2.526	0.689
2.5589	0.691
2.59179	0.6959
2.62469	0.699
2.65758	0.7039
2.69048	0.711
2.72337	0.713
2.75627	0.7068
2.78916	0.6294
2.82206	0.4866
2.85495	0.2654
2.88785	0.1523
2.92074	0.132
2.95364	0.1684
2.98653	0.2363
3.01943	0.3242
3.05232	0.4007
3.08522	0.4903
3.11811	0.5581
3.15101	0.597
3.1839	0.621
3.2168	0.6449
3.24969	0.655
3.28259	0.6314
3.31548	0.5542
3.34838	0.3533
3.38127	0.254
3.41417	0.212
3.44706	0.2662
3.47996	0.306
3.51285	0.4067
3.54575	0.5231
3.57864	0.5865
3.61154	0.6108
3.64443	0.613
3.67733	0.6159
3.71022	0.6306
3.74312	0.6395
3.77601	0.646
3.80891	0.653
3.8418	0.6629
3.8747	0.6709
3.90759	0.676
3.94049	0.683
3.97338	0.6878
4.00628	0.688
4.03917	0.6961
4.07207	0.703
4.10496	0.706
4.13786	0.709
4.17075	0.711
4.20365	0.7141
4.23654	0.709
4.26944	0.7158
4.30233	0.7208
4.33523	0.723
4.36812	0.728
4.40102	0.733
4.43391	0.733
4.46681	0.734
4.4997	0.7342
4.5326	0.7388
4.56549	0.7419
4.59839	0.746
4.63128	0.746
4.66418	0.746
4.69707	0.747
4.72997	0.751
4.76286	0.752
4.79576	0.754
4.82865	0.7569
4.86155	0.757
4.89444	0.7588
4.92734	0.7638
4.96023	0.764
4.99313	0.767
5.02602	0.767
5.05892	0.769
5.09181	0.772
5.12471	0.772
5.1576	0.772
5.1905	0.7725
5.22339	0.7762
5.25629	0.776
5.28918	0.777
5.32208	0.7788
5.35497	0.782
5.38787	0.781
5.42076	0.782
5.45366	0.774
5.48655	0.7704
5.51945	0.7636
5.55234	0.754
5.58524	0.7494
5.61813	0.742
5.65103	0.7253
5.68392	0.6972
5.71682	0.6444
5.74971	0.5498
5.78261	0.4171
5.8155	0.2473
5.8484	0.139
5.88129	0.3173
5.91419	0.4425
5.94708	0.3303
5.97998	0.1953
6.01287	0.1026
6.04577	0.0781
6.07866	0.0515
6.11156	0.1095
6.14445	0.1552
6.17735	0.2419
6.21024	0.22
6.24314	0.3685
6.27603	0.482
6.30893	0.5242
6.34182	0.5521
6.37472	0.5823
6.40761	0.5874
6.44051	0.6147
6.47341	0.63
6.5063	0.6395
6.5392	0.6499
6.57209	0.655
6.60499	0.6589
6.63788	0.656
6.67078	0.6545
6.70367	0.6397
6.73657	0.6017
6.76946	0.5311
6.80236	0.4893
6.83525	0.4423
6.86815	0.3891
6.90104	0.3254
6.93394	0.3303
6.96683	0.33
6.99973	0.2856
7.03262	0.3214
7.06552	0.3592
7.09841	0.3446
7.13131	0.3659
7.1642	0.3744
7.1971	0.31
7.22999	0.336
7.26289	0.369
7.29578	0.348
7.32868	0.3223
7.36157	0.308
7.39447	0.3135
7.42736	0.3167
7.46026	0.3149
7.49315	0.344
7.52605	0.379
7.55894	0.3824
7.59184	0.3537
7.62473	0.3631
7.65763	0.4536
7.69052	0.4487
7.72342	0.4255
7.75631	0.3948
7.78921	0.3333
7.8221	0.2639
7.855	0.2395
7.88789	0.2301
7.92079	0.2824
7.95368	0.3437
7.98658	0.3894
8.01947	0.3927
8.05237	0.3746
8.08526	0.2953
8.11816	0.2221
8.15105	0.2439
8.18395	0.2827
8.21684	0.2994
8.24974	0.3262
8.28263	0.3756
8.31553	0.375
8.34842	0.3445
8.38132	0.3646
8.41421	0.3722
8.44711	0.3735
8.48	0.4068
8.5129	0.4691
8.54579	0.4864
8.57869	0.4878
8.61158	0.4632
8.64448	0.4408
8.67737	0.4246
8.71027	0.4581
8.74316	0.464
8.77606	0.4572
8.80895	0.3752
8.84185	0.2808
8.87474	0.2616
8.90764	0.3313
8.94053	0.3506
8.97343	0.2787
9.00632	0.2266
9.03922	0.242
9.07211	0.2597
9.10501	0.3051
9.1379	0.2949
9.1708	0.2654
9.20369	0.2781
9.23659	0.3391
9.26948	0.364
9.30238	0.3619
9.33527	0.3635
9.36817	0.3986
9.40106	0.4186
9.43396	0.377
9.46685	0.2976
9.49975	0.2792
9.53264	0.2621
9.56554	0.2353
9.59843	0.2348
9.63133	0.2884
9.66422	0.2937
9.69712	0.281
9.73001	0.265
9.76291	0.301
9.7958	0.312
9.8287	0.3286
9.86159	0.3805
9.89449	0.4124
9.92738	0.3991
9.96028	0.3631
9.99317	0.4045
10.0261	0.4581
10.059	0.5363
10.0919	0.558
10.1248	0.5393
10.1576	0.4966
10.1905	0.5026
10.2234	0.543
10.2563	0.553
10.2892	0.55
10.3221	0.5458
10.355	0.522
10.3879	0.5267
10.4208	0.56
10.4537	0.5668
10.4866	0.557
10.5195	0.4838
10.5524	0.4343
10.5853	0.3996
10.6182	0.3755
10.6511	0.3894
10.684	0.4282
10.7169	0.447
10.7498	0.457
10.7827	0.484
10.8156	0.4753
10.8484	0.462
10.8813	0.4618
10.9142	0.466
10.9471	0.4649
10.98	0.4854
11.0129	0.5263
11.0458	0.538
11.0787	0.498
11.1116	0.402
11.1445	0.3416
11.1774	0.3323
11.2103	0.3597
11.2432	0.368
11.2761	0.4002
11.309	0.4594
11.3419	0.5106
11.3748	0.5318
11.4077	0.5371
11.4406	0.5282
11.4735	0.4759
11.5063	0.3756
11.5392	0.3553
11.5721	0.3427
11.605	0.3235
11.6379	0.4051
11.6708	0.4972
11.7037	0.5392
11.7366	0.5575
11.7695	0.5714
11.8024	0.6005
11.8353	0.6142
11.8682	0.64
11.9011	0.6502
11.934	0.651
11.9669	0.65
11.9998	0.65
12.0327	0.646
12.0656	0.646
12.0985	0.6505
12.1314	0.6521
12.1642	0.6587
12.1971	0.668
12.23	0.666
12.2629	0.6689
12.2958	0.6735
12.3287	0.669
12.3616	0.6667
12.3945	0.6623
12.4274	0.647
12.4603	0.6396
12.4932	0.6377
12.5261	0.636
12.559	0.64
12.5919	0.6447
12.6248	0.653
12.6577	0.655
12.6906	0.653
12.7235	0.6557
12.7564	0.6402
12.7893	0.5981
12.8221	0.5581
12.855	0.5372
12.8879	0.5528
12.9208	0.57
12.9537	0.5792
12.9866	0.583
13.0195	0.597
13.0524	0.6036
13.0853	0.615
13.1182	0.6308
13.1511	0.6428
13.184	0.6546
13.2169	0.6607
13.2498	0.661
13.2827	0.66
13.3156	0.6489
13.3485	0.6269
13.3814	0.5977
13.4143	0.5749
13.4472	0.5604
13.48	0.557
13.5129	0.5704
13.5458	0.59
13.5787	0.6101
13.6116	0.6366
13.6445	0.655
13.6774	0.663
13.7103	0.6735
13.7432	0.6838
13.7761	0.688
13.809	0.691
13.8419	0.6921
13.8748	0.696
13.9077	0.6982
13.9406	0.699
13.9735	0.6961
14.0064	0.694
14.0393	0.693
14.0722	0.691
14.1051	0.689
14.1379	0.6836
14.1708	0.6734
14.2037	0.6703
14.2366	0.6627
14.2695	0.6396
14.3024	0.6111
14.3353	0.5871
14.3682	0.5957
14.4011	0.6116
14.434	0.6314
14.4669	0.641
14.4998	0.648
14.5327	0.651
14.5656	0.6501
14.5985	0.6544
14.6314	0.651
14.6643	0.646
14.6972	0.643
14.7301	0.638
14.763	0.636
14.7959	0.631
14.8287	0.6204
14.8616	0.61
14.8945	0.606
14.9274	0.5986
14.9603	0.595
14.9932	0.597
