Infrared Spectrum: ESTRA-1,3,5(10)-TRIENE-3,17Beta-DIOL
Formula: C18 H24 O2
CAS: 50-28-2
State: SOLID (KBr DISC)
Class: COBLENTZ III
Instrument: BECKMAN IR-7
Sampling: TRANSMISSION
Resolution: 4
Origin: THE WORCESTER FOUNDATION FOR EXPERIMENTAL BIOLOGY, Neal L. McNiven
1/CM	TRANSMITTANCE
619.753	0.25
628.507	0.291
637.261	0.401
646.016	0.504
654.77	0.547
663.524	0.627
672.278	0.625
681.032	0.71
689.787	0.721
698.541	0.74
707.295	0.734
716.049	0.721
724.803	0.74
733.558	0.696
742.312	0.748
751.066	0.759
759.82	0.759
768.574	0.798
777.329	0.831
786.083	0.7681
794.837	0.874
803.591	0.903
812.345	0.851
821.1	0.5871
829.854	0.813
838.608	0.885
847.362	0.872
856.116	0.905
864.871	0.918
873.625	0.6571
882.379	0.891
891.133	0.965
899.887	0.9031
908.642	0.83
917.396	0.7091
926.15	0.769
934.904	0.835
943.658	0.892
952.413	0.836
961.167	0.8122
969.921	0.892
978.675	0.897
987.429	0.858
996.184	0.802
1004.94	0.6581
1013.69	0.51
1022.45	0.591
1031.2	0.673
1039.95	0.673
1048.71	0.4741
1057.46	0.387
1066.22	0.528
1074.97	0.582
1083.73	0.679
1092.48	0.764
1101.23	0.679
1109.99	0.772
1118.74	0.695
1127.5	0.675
1136.25	0.66
1145.01	0.757
1153.76	0.683
1162.51	0.758
1171.27	0.829
1180.02	0.818
1188.78	0.83
1197.53	0.772
1206.28	0.76
1215.04	0.662
1223.79	0.577
1232.55	0.419
1241.3	0.48
1250.06	0.358
1258.81	0.709
1267.56	0.732
1276.32	0.657
1285.07	0.496
1293.83	0.665
1302.58	0.633
1311.33	0.703
1320.09	0.672
1328.84	0.761
1337.6	0.735
1346.35	0.676
1355.11	0.558
1363.86	0.64
1372.61	0.724
1381.37	0.626
1390.12	0.727
1398.88	0.708
1407.63	0.639
1416.39	0.604
1425.14	0.676
1433.89	0.526
1442.65	0.475
1451.4	0.441
1460.16	0.498
1468.91	0.492
1477.66	0.692
1486.42	0.657
1495.17	0.449
1503.93	0.454
1512.68	0.721
1521.44	0.847
1530.19	0.898
1538.94	0.895
1547.7	0.902
1556.45	0.868
1565.21	0.862
1573.96	0.785
1582.72	0.565
1591.47	0.744
1600.22	0.62
1608.98	0.561
1617.73	0.63
1626.49	0.783
1635.24	0.823
1643.99	0.865
1652.75	0.873
1661.5	0.89
1670.26	0.89
1679.01	0.9
1687.77	0.917
1696.52	0.924
1705.27	0.945
1714.03	0.94
1722.78	0.931
1731.54	0.928
1740.29	0.935
1749.05	0.948
1757.8	0.972
1766.55	0.99
1775.31	0.994
1784.06	0.999
1792.82	1.002
1801.57	1.002
1810.32	1.002
1819.08	1
1827.83	0.997
1836.59	1.001
1845.34	0.999
1854.1	0.992
1862.85	0.971
1871.6	0.972
1880.36	0.989
1889.11	0.993
1897.87	1
1906.62	1.005
1915.37	1.006
1924.13	1
1932.88	1
1941.64	0.997
1950.39	0.989
1959.15	0.986
1967.9	0.991
1976.65	0.989
1985.41	0.991
1994.16	1.001
2002.92	0.997
2011.67	0.997
2020.43	0.996
2029.18	0.995
2037.93	0.994
2046.69	0.9929
2055.44	0.991
2064.2	0.9899
2072.95	0.989
2081.7	0.987
2090.46	0.9868
2099.21	0.986
2107.97	0.9848
2116.72	0.984
2125.48	0.983
2134.23	0.9828
2142.98	0.981
2151.74	0.9787
2160.49	0.9767
2169.25	0.9737
2178	0.97
2186.76	0.967
2195.51	0.9647
2204.26	0.962
2213.02	0.9606
2221.77	0.9583
2230.53	0.9556
2239.28	0.9526
2248.03	0.9506
2256.79	0.9476
2265.54	0.946
2274.3	0.944
2283.05	0.943
2291.81	0.941
2300.56	0.9395
2309.31	0.9375
2318.07	0.9283
2326.82	0.9185
2335.58	0.9154
2344.33	0.914
2353.08	0.912
2361.84	0.911
2370.59	0.91
2379.35	0.909
2388.1	0.9084
2396.86	0.9073
2405.61	0.9063
2414.36	0.906
2423.12	0.905
2431.87	0.903
2440.63	0.9003
2449.38	0.8972
2458.14	0.8935
2466.89	0.8902
2475.64	0.8872
2484.4	0.8852
2493.15	0.8825
2501.91	0.8725
2510.66	0.8681
2519.41	0.8636
2528.17	0.859
2536.92	0.8571
2545.68	0.8551
2554.43	0.8541
2563.19	0.853
2571.94	0.851
2580.69	0.849
2589.45	0.8351
2598.2	0.821
2606.96	0.814
2615.71	0.812
2624.47	0.81
2633.22	0.8079
2641.97	0.8058
2650.73	0.8019
2659.48	0.7979
2668.24	0.7949
2676.99	0.7919
2685.74	0.7899
2694.5	0.7868
2703.25	0.7838
2712.01	0.7808
2720.76	0.7778
2729.52	0.7748
2738.27	0.772
2747.02	0.7708
2755.78	0.7685
2764.53	0.764
2773.29	0.7607
2782.04	0.7541
2790.8	0.7236
2799.55	0.6305
2808.3	0.567
2817.06	0.6241
2825.81	0.66
2834.57	0.6321
2843.32	0.4834
2852.07	0.4104
2860.83	0.3828
2869.58	0.4444
2878.34	0.4835
2887.09	0.4543
2895.85	0.3871
2904.6	0.3411
2913.35	0.2709
2922.11	0.2234
2930.86	0.2117
2939.62	0.2866
2948.37	0.3256
2957.12	0.3518
2965.88	0.461
2974.63	0.5518
2983.39	0.6031
2992.14	0.62
3000.9	0.6132
3009.65	0.5789
3018.4	0.516
3027.16	0.5158
3035.91	0.5474
3044.67	0.544
3053.42	0.5244
3062.18	0.5152
3070.93	0.5114
3079.68	0.5054
3088.44	0.489
3097.19	0.468
3105.95	0.4481
3114.7	0.4266
3123.45	0.3961
3132.21	0.3803
3140.96	0.3658
3149.72	0.3395
3158.47	0.3236
3167.23	0.303
3175.98	0.2961
3184.73	0.289
3193.49	0.283
3202.24	0.2779
3211	0.271
3219.75	0.2649
3228.51	0.2619
3237.26	0.26
3246.01	0.2601
3254.77	0.2702
3263.52	0.273
3272.28	0.273
3281.03	0.2783
3289.78	0.2893
3298.54	0.294
3307.29	0.3036
3316.05	0.3112
3324.8	0.313
3333.56	0.313
3342.31	0.312
3351.06	0.312
3359.82	0.3107
3368.57	0.3087
3377.33	0.3031
3386.08	0.2887
3394.83	0.2793
3403.59	0.2634
3412.34	0.2331
3421.1	0.2122
3429.85	0.2022
3438.61	0.1962
3447.36	0.1896
3456.11	0.1884
3464.87	0.1943
3473.62	0.2271
3482.38	0.2738
3491.13	0.347
3499.89	0.3972
3508.64	0.4277
3517.39	0.4548
3526.15	0.4957
3534.9	0.5256
3543.66	0.5498
3552.41	0.5708
3561.16	0.5929
3569.92	0.6204
3578.67	0.6522
3587.43	0.6823
3596.18	0.7068
3604.94	0.7308
3613.69	0.7388
3622.44	0.7543
3631.2	0.7732
3639.95	0.7905
3648.71	0.8023
3657.46	0.8124
3666.22	0.8214
3674.97	0.828
3683.72	0.828
3692.48	0.826
3701.23	0.826
3709.99	0.8333
3718.74	0.836
3727.49	0.8389
3736.25	0.839
3745	0.839
3753.76	0.839
3762.51	0.839
3771.27	0.839
3780.02	0.839
3788.77	0.839
3797.53	0.839
3806.28	0.839
3815.04	0.839
3823.79	0.839
3832.55	0.839
3841.3	0.8391
3850.05	0.84
3858.81	0.84
3867.56	0.84
3876.32	0.84
3885.07	0.841
3893.82	0.841
3902.58	0.841
3911.33	0.841
3920.09	0.841
3928.84	0.841
3937.6	0.839
3946.35	0.8354
3955.1	0.8307
3963.86	0.829
3972.61	0.8257
3981.37	0.825
3990.12	0.826
3998.87	0.826
