Infrared Spectrum: PHTHALIMIDE, N-(2,6-DIOXO-3-PIPERIDYL)-
Formula: C13 H10 N2 O4
CAS: 50-35-1
State: SOLID (KBr DISC)
Melting point: 269-271 C
Class: COBLENTZ III
Instrument: PERKIN-ELMER 21 (GRATING)
Instrument parameters: FILTER AT ABOUT 10 MICRONS
Sampling: TRANSMISSION
Resolution: 2
1/CM	TRANSMITTANCE
4000	0.8731
3991	0.8733
3982	0.8735
3973	0.8737
3964	0.874
3955	0.8742
3946	0.8744
3937	0.8747
3928	0.8749
3919	0.8753
3910	0.8759
3901	0.8764
3892	0.8768
3883	0.8774
3874	0.8778
3865	0.8784
3856	0.8789
3847	0.8792
3838	0.8795
3829	0.8798
3820	0.8801
3811	0.8804
3802	0.8808
3793	0.8814
3784	0.8818
3775	0.8824
3766	0.883
3757	0.8835
3748	0.8841
3739	0.8846
3730	0.8848
3721	0.8849
3712	0.885
3703	0.8852
3694	0.8852
3685	0.8852
3676	0.885
3667	0.8848
3658	0.8846
3649	0.8844
3640	0.8832
3631	0.8821
3622	0.8809
3613	0.8798
3604	0.8782
3595	0.8767
3586	0.8751
3577	0.8733
3568	0.8716
3559	0.8698
3550	0.8683
3541	0.8667
3532	0.8627
3523	0.8578
3514	0.8528
3505	0.8473
3496	0.8421
3487	0.8383
3478	0.8345
3469	0.8336
3460	0.8333
3451	0.8336
3442	0.834
3433	0.8345
3424	0.8354
3415	0.8371
3406	0.8388
3397	0.8407
3388	0.8431
3379	0.8455
3370	0.848
3361	0.8501
3352	0.8521
3343	0.8542
3334	0.8548
3325	0.8552
3316	0.8549
3307	0.854
3298	0.85
3289	0.8425
3280	0.8254
3271	0.8099
3262	0.7943
3253	0.7785
3244	0.7626
3235	0.7468
3226	0.7308
3217	0.7247
3208	0.724
3199	0.725
3190	0.7285
3181	0.7336
3172	0.7391
3163	0.7426
3154	0.7443
3145	0.7482
3136	0.7414
3127	0.7271
3118	0.7203
3109	0.7178
3100	0.7208
3091	0.7299
3082	0.7433
3073	0.7567
3064	0.7708
3055	0.789
3046	0.8058
3037	0.8199
3028	0.8283
3019	0.8346
3010	0.8378
3001	0.8399
2992	0.841
2983	0.842
2974	0.8428
2965	0.8431
2956	0.841
2947	0.8328
2938	0.8234
2929	0.8171
2920	0.8151
2911	0.8147
2902	0.8176
2893	0.8211
2884	0.823
2875	0.8256
2866	0.8295
2857	0.839
2848	0.8456
2839	0.8514
2830	0.8571
2821	0.862
2812	0.8666
2803	0.8713
2794	0.8744
2785	0.8773
2776	0.8803
2767	0.8833
2758	0.8853
2749	0.8868
2740	0.8883
2731	0.8898
2722	0.8913
2713	0.893
2704	0.8947
2695	0.8964
2686	0.8981
2677	0.8992
2668	0.9003
2659	0.9013
2650	0.9023
2641	0.9033
2632	0.9043
2623	0.9049
2614	0.9054
2605	0.906
2596	0.9066
2587	0.9071
2578	0.9077
2569	0.9083
2560	0.9089
2551	0.9094
2542	0.9092
2533	0.9089
2524	0.9086
2515	0.9082
2506	0.9078
2497	0.9074
2488	0.9071
2479	0.9073
2470	0.9075
2461	0.9078
2452	0.9093
2443	0.9128
2434	0.9151
2425	0.9166
2416	0.9178
2407	0.9186
2398	0.9194
2389	0.9201
2380	0.9209
2371	0.9218
2362	0.9228
2353	0.9244
2344	0.926
2335	0.9275
2326	0.9274
2317	0.9271
2308	0.9267
2299	0.9262
2290	0.9257
2281	0.9252
2272	0.9258
2263	0.9265
2254	0.9275
2245	0.9285
2236	0.9297
2227	0.9307
2218	0.9318
2209	0.9323
2200	0.9328
2191	0.9335
2182	0.934
2173	0.9346
2164	0.9352
2155	0.9357
2146	0.936
2137	0.9364
2128	0.9367
2119	0.9371
2110	0.9375
2101	0.9378
2092	0.9383
2083	0.9385
2074	0.9388
2065	0.939
2056	0.9393
2047	0.9394
2038	0.9395
2029	0.9397
2020	0.9398
2011	0.94
2002	0.9402
1993	0.9405
1984	0.9407
1975	0.9409
1966	0.9407
1957	0.9401
1948	0.9415
1939	0.9338
1930	0.9309
1921	0.9296
1912	0.9283
1903	0.9278
1894	0.926
1885	0.9217
1876	0.9216
1867	0.9208
1858	0.9191
1849	0.9149
1840	0.9051
1831	0.8941
1822	0.8802
1813	0.8605
1804	0.8068
1795	0.6724
1786	0.6533
1777	0.6541
1768	0.7025
1759	0.603
1750	0.4953
1741	0.3866
1732	0.2834
1723	0.2503
1714	0.2031
1705	0.2202
1696	0.2545
1687	0.416
1678	0.5212
1669	0.5827
1660	0.6219
1651	0.696
1642	0.7343
1633	0.7651
1624	0.7732
1615	0.7597
1606	0.7912
1597	0.8399
1588	0.8556
1579	0.8731
1570	0.8837
1561	0.8914
1552	0.8975
1543	0.9032
1534	0.9081
1525	0.9202
1516	0.9297
1507	0.9328
1498	0.9362
1489	0.933
1480	0.8297
1471	0.7789
1462	0.8533
1453	0.8597
1444	0.8421
1435	0.8233
1426	0.8271
1417	0.7817
1408	0.6767
1399	0.4441
1390	0.3321
1381	0.466
1372	0.5328
1363	0.5377
1354	0.6589
1345	0.6483
1336	0.645
1327	0.5139
1318	0.7605
1309	0.7818
1300	0.7768
1291	0.8502
1282	0.8735
1273	0.8115
1264	0.5362
1255	0.6079
1246	0.7858
1237	0.8508
1228	0.8418
1219	0.766
1210	0.4586
1201	0.5154
1192	0.6242
1183	0.7038
1174	0.7204
1165	0.7624
1156	0.8054
1147	0.8224
1138	0.8328
1129	0.8172
1120	0.696
1111	0.6593
1102	0.7991
1093	0.7154
1084	0.759
1075	0.8071
1066	0.8454
1057	0.8627
1048	0.8694
1039	0.8708
1030	0.8596
1021	0.6968
1012	0.8321
1003	0.7538
994	0.7678
985	0.8189
976	0.8632
967	0.8875
958	0.9001
949	0.9075
940	0.9113
931	0.9109
922	0.9037
913	0.8497
904	0.8778
895	0.8252
886	0.7895
877	0.8373
868	0.7901
859	0.7147
850	0.7412
841	0.7878
832	0.8299
823	0.8607
814	0.8763
805	0.8241
796	0.8771
787	0.907
778	0.8725
769	0.9081
760	0.8768
751	0.888
742	0.8994
733	0.6324
724	0.5447
715	0.8268
706	0.8902
697	0.8791
688	0.9027
679	0.9302
670	0.8923
