Infrared Spectrum: 2,6-Dichlorobenzoic acid
Formula: C 7 H 4 Cl 2 O 2
CAS: 50-30-6
State: gas
Origin: EPA-IR VAPOR PHASE LIBRARY
1/CM	ABSORBANCE
549.8	0.006272
559.445	0.007412
569.09	0.010402
578.734	0.007662
588.379	0.002912
598.024	0.001622
607.669	0.001602
617.313	0.001642
626.958	0.0011166
636.603	0.003212
646.248	0.010432
655.893	0.009102
665.537	0.002392
675.182	0.0012274
684.827	0.001722
694.472	0.002192
704.116	0.001902
713.761	0.002012
723.406	0.004292
733.051	0.009372
742.695	0.014172
752.34	0.009552
761.985	0.005842
771.63	0.010282
781.275	0.012822
790.919	0.011242
800.564	0.013302
810.209	0.011782
819.854	0.002762
829.498	0.0010131
839.143	0.0007702
848.788	0.0008329
858.433	0.0004383
868.078	0.0006342
877.722	0.0006579
887.367	0.0009392
897.012	0.0009522
906.657	0.0006971
916.301	0.0008747
925.946	0.0007797
935.591	0.0008339
945.236	0.0006384
954.88	0.0008683
964.525	0.0011306
974.17	0.000836
983.815	0.0008078
993.46	0.0009869
1003.1	0.0009827
1012.75	0.001442
1022.39	0.001972
1032.04	0.003342
1041.68	0.007212
1051.33	0.008212
1060.97	0.004312
1070.62	0.004132
1080.26	0.008352
1089.91	0.007112
1099.55	0.005352
1109.2	0.012312
1118.84	0.027122
1128.49	0.036372
1138.13	0.021562
1147.78	0.007112
1157.42	0.005332
1167.07	0.005902
1176.71	0.010502
1186.36	0.021742
1196	0.025542
1205.64	0.010232
1215.29	0.002902
1224.93	0.002162
1234.58	0.002192
1244.22	0.002732
1253.87	0.003202
1263.51	0.003752
1273.16	0.005122
1282.8	0.007962
1292.45	0.011912
1302.09	0.011352
1311.74	0.006342
1321.38	0.003682
1331.03	0.004032
1340.67	0.005372
1350.32	0.006022
1359.96	0.004802
1369.61	0.002812
1379.25	0.001792
1388.9	0.0012232
1398.54	0.0010967
1408.18	0.001392
1417.83	0.004432
1427.47	0.016152
1437.12	0.020332
1446.76	0.007032
1456.41	0.003022
1466.05	0.001912
1475.7	0.001472
1485.34	0.001402
1494.99	0.001552
1504.63	0.001462
1514.28	0.0011462
1523.92	0.0010812
1533.57	0.0012007
1543.21	0.001932
1552.86	0.005392
1562.5	0.013192
1572.15	0.013392
1581.79	0.007922
1591.44	0.004812
1601.08	0.001922
1610.73	0.001562
1620.37	0.001292
1630.01	0.0010601
1639.66	0.0009502
1649.3	0.00091
1658.95	0.0010096
1668.59	0.0009073
1678.24	0.0007171
1687.88	0.0006964
1697.53	0.0009608
1707.17	0.001402
1716.82	0.002492
1726.46	0.004032
1736.11	0.004242
1745.75	0.003792
1755.4	0.006952
1765.04	0.023792
1774.69	0.057272
1784.33	0.055602
1793.98	0.019232
1803.62	0.006242
1813.27	0.005482
1822.91	0.005012
1832.55	0.003062
1842.2	0.001692
1851.84	0.001702
1861.49	0.001402
1871.13	0.0008606
1880.78	0.0005401
1890.42	0.000547
1900.07	0.0005414
1909.71	0.0006388
1919.36	0.0006874
1929	0.0009455
1938.65	0.000912
1948.29	0.0008158
1957.94	0.0005679
1967.58	0.0005885
1977.23	0.0004688
1986.87	0.0003871
1996.52	0.000401
2006.16	0.00029632
2015.81	0.00026061
2025.45	0.00023445
2035.1	0.000243667
2044.74	0.000247616
2054.38	0.000248889
2064.03	0.00026004
2073.67	0.00029199
2083.32	0.00027683
2092.96	0.00032934
2102.61	0.0003689
2112.25	0.00029019
2121.9	0.0003697
2131.54	0.0002941
2141.19	0.00032738
2150.83	0.00032902
2160.48	0.0004196
2170.12	0.000427
2179.77	0.00032453
2189.41	0.00033688
2199.06	0.0004145
2208.7	0.0004999
2218.35	0.0003951
2227.99	0.00028522
2237.64	0.0003456
2247.28	0.0003494
2256.92	0.0003779
2266.57	0.000303
2276.21	0.00026832
2285.86	0.00033832
2295.5	0.0004058
2305.15	0.0003619
2314.79	0.0004995
2324.44	0.0006548
2334.08	0.0004969
2343.73	0.0006088
2353.37	0.0005461
2363.02	0.0006388
2372.66	0.000619
2382.31	0.0004643
2391.95	0.0003914
2401.6	0.0003637
2411.24	0.000226
2420.89	0.0003498
2430.53	0.0003829
2440.18	0.0003696
2449.82	0.00025692
2459.47	0.0004179
2469.11	0.0003742
2478.75	0.0003435
2488.4	0.00026525
2498.04	0.0003972
2507.69	0.0003545
2517.33	0.00028366
2526.98	0.00025988
2536.62	0.0003655
2546.27	0.0003761
2555.91	0.0001653
2565.56	0.0003477
2575.2	0.000243914
2584.85	0.00033554
2594.49	0.00033923
2604.14	0.00023296
2613.78	0.00031771
2623.43	0.0003486
2633.07	0.00026652
2642.72	0.000245223
2652.36	0.00023325
2662.01	0.0003945
2671.65	0.0004348
2681.29	0.00025351
2690.94	0.0003694
2700.58	0.00029843
2710.23	0.0003662
2719.87	0.0001558
2729.52	0.000246792
2739.16	0.00025312
2748.81	0.00026918
2758.45	0.00032447
2768.1	0.00024021
2777.74	0.0001659
2787.39	0.00030047
2797.03	0.0002129
2806.68	0.00032209
2816.32	0.0003805
2825.97	0.0004554
2835.61	0.00028989
2845.26	0.0002174
2854.9	0.0003957
2864.55	0.00033356
2874.19	0.00033034
2883.84	0.00031016
2893.48	0.00031896
2903.12	0.00034022
2912.77	0.0005002
2922.41	0.0004407
2932.06	0.00028488
2941.7	0.00034044
2951.35	0.000452
2960.99	0.0005079
2970.64	0.00030979
2980.28	0.0005822
2989.93	0.0005273
2999.57	0.00028359
3009.22	0.0003305
3018.86	0.0005086
3028.51	0.000347
3038.15	0.000407
3047.8	0.0004848
3057.44	0.0009193
3067.09	0.0011487
3076.73	0.001342
3086.38	0.0009879
3096.02	0.0006748
3105.67	0.0005929
3115.31	0.00046
3124.95	0.0005274
3134.6	0.0005426
3144.24	0.0003883
3153.89	0.0002485
3163.53	0.00023488
3173.18	0.0004027
3182.82	0.0001923
3192.47	7.1e-05
3202.11	0.00028507
3211.76	0.000401
3221.4	0.0002758
3231.05	0.0001596
3240.69	0.00027047
3250.34	0.00033048
3259.98	0.0003562
3269.63	0.00029758
3279.27	0.0004767
3288.92	0.0002622
3298.56	0.0001491
3308.21	9.9e-05
3317.85	0.000258
3327.49	0.000475
3337.14	0.0003444
3346.78	0.00028811
3356.43	0.00026318
3366.07	0.0001544
3375.72	0.000126
3385.36	0.0004033
3395.01	0.0003559
3404.65	0.0003845
3414.3	0.0005112
3423.94	0.00031713
3433.59	6e-05
3443.23	0.00034028
3452.88	0.0004726
3462.52	0.00032392
3472.17	0.0004785
3481.81	0.0002175
3491.46	0.0004067
3501.1	0.0004348
3510.75	0.0005303
3520.39	0.0006387
3530.04	0.0012173
3539.68	0.001702
3549.32	0.005162
3558.97	0.020322
3568.61	0.021392
3578.26	0.005652
3587.9	0.0012055
3597.55	0.0006761
3607.19	0.0010852
3616.84	0.001085
3626.48	0.0006806
3636.13	0.0004067
3645.77	0.00025537
3655.42	0.0003133
3665.06	0.00029239
3674.71	0.00023435
3684.35	0.00029575
3694	0.0004115
3703.64	0.00027836
3713.29	0.0005262
3722.93	0.0005109
3732.58	0.00026132
3742.22	0.0005817
3751.86	0.0002193
3761.51	0.000128
3771.15	0.0001499
3780.8	0.00029196
3790.44	0.0001568
3800.09	0.0001739
3809.73	0.0003729
3819.38	0.00028759
3829.02	0.00023872
3838.67	0.0004718
3848.31	0.0003994
3857.96	0.00032208
3867.6	0.0003662
3877.25	0.00027997
3886.89	0.0004181
3896.54	0.00031718
3906.18	0.0003744
3915.83	0.000131
3925.47	0.00023714
3935.12	0.000173
3944.76	0.00025603
3954.41	0.0003431
3964.05	0.0003496
3973.69	0.00023575
3983.34	0.000542
3992.98	0.0003617
