Infrared Spectrum: Cocaine
Formula: C 17 H 21 N O 4
CAS: 50-36-2
State: gas
Instrument: HP-GC/MS/IRD
Origin: NIST Mass Spectrometry Data Center
1/CM	ABSORBANCE
550	0.0003036
562	0.0001551
574	5.94e-05
586	7.26e-05
598	6.6e-05
610	0.0002277
622	0.0003663
634	0.0001716
646	0.0001683
658	0.0003465
670	0.0007788
682	0.0016104
694	0.0021549
706	0.0053658
718	0.0037158
730	0.0013761
742	0.0008382
754	0.0005775
766	0.0010329
778	0.0012474
790	0.0006006
802	0.0007326
814	0.0003993
826	0.0004983
838	0.0005544
850	0.0006303
862	0.0007887
874	0.0006402
886	0.0004851
898	0.0004026
910	0.0003168
922	0.0004323
934	0.0005544
946	0.0006864
958	0.0008877
970	0.0009768
982	0.0013431
994	0.0017325
1006	0.0029898
1018	0.0043725
1030	0.0074811
1042	0.0064284
1054	0.003564
1066	0.0050094
1078	0.0037653
1090	0.0067155
1102	0.0117909
1114	0.0175593
1126	0.0102861
1138	0.0101178
1150	0.0082533
1162	0.0062139
1174	0.0093654
1186	0.006567
1198	0.0040062
1210	0.0045474
1222	0.0079464
1234	0.0106425
1246	0.0115995
1258	0.017061
1270	0.0316965
1282	0.0207999
1294	0.0077814
1306	0.0057453
1318	0.00561
1330	0.002838
1342	0.0028512
1354	0.0024453
1366	0.0019569
1378	0.0018249
1390	0.0013662
1402	0.0009603
1414	0.0008877
1426	0.0013365
1438	0.002739
1450	0.0034881
1462	0.0021153
1474	0.0019701
1486	0.0013035
1498	0.0007788
1510	0.0005181
1522	0.0004587
1534	0.0004521
1546	0.000429
1558	0.0003927
1570	0.0004818
1582	0.0006798
1594	0.0007029
1606	0.0008283
1618	0.0003993
1630	0.0003564
1642	0.0004554
1654	0.0004191
1666	0.0005082
1678	0.0007392
1690	0.001188
1702	0.0018216
1714	0.0036663
1726	0.0109857
1738	0.0178827
1750	0.0086889
1762	0.0090519
1774	0.0062766
1786	0.002046
1798	0.0011154
1810	0.0008316
1822	0.0005049
1834	0.00033
1846	0.0002508
1858	0.0002343
1870	0.0002112
1882	0.0001881
1894	0.0002112
1906	0.0002871
1918	0.0002937
1930	0.0002112
1942	0.0002211
1954	0.0002937
1966	0.0003069
1978	0.000198
1990	0.0001683
2002	0.0001518
2014	0.0001353
2026	0.0001419
2038	0.0001155
2050	0.0001221
2062	0.0001023
2074	0.0001254
2086	0.0001386
2098	0.0001386
2110	0.0001584
2122	0.0001452
2134	0.0001122
2146	8.91e-05
2158	8.91e-05
2170	8.58e-05
2182	5.28e-05
2194	8.91e-05
2206	7.26e-05
2218	5.28e-05
2230	6.6e-05
2242	5.94e-05
2254	5.28e-05
2266	3.63e-05
2278	5.61e-05
2290	5.28e-05
2302	3.63e-05
2314	5.94e-05
2326	6.6e-05
2338	9.57e-05
2350	0.0001023
2362	0.0001221
2374	0.0001188
2386	5.94e-05
2398	5.28e-05
2410	3.96e-05
2422	3.63e-05
2434	2.64e-05
2446	1.98e-05
2458	2.64e-05
2470	2.97e-05
2482	0
2494	1.98e-05
2506	1.65e-05
2518	3.63e-05
2530	3.63e-05
2542	3.96e-05
2554	3.96e-05
2566	5.28e-05
2578	7.59e-05
2590	6.6e-05
2602	9.9e-05
2614	7.26e-05
2626	9.24e-05
2638	9.57e-05
2650	7.92e-05
2662	0.0001023
2674	9.9e-05
2686	0.0001089
2698	0.0001023
2710	0.0001287
2722	0.000165
2734	0.0002112
2746	0.0002178
2758	0.0003498
2770	0.0005709
2782	0.0006138
2794	0.0010428
2806	0.002211
2818	0.0010725
2830	0.0007359
2842	0.0011682
2854	0.0023265
2866	0.0017754
2878	0.0021945
2890	0.0030525
2902	0.0024288
2914	0.002442
2926	0.0034056
2938	0.005346
2950	0.0096096
2962	0.0106722
2974	0.0094941
2986	0.0033528
2998	0.0016269
3010	0.0011913
3022	0.0011319
3034	0.0011451
3046	0.0011484
3058	0.0012078
3070	0.0020328
3082	0.0015741
3094	0.000957
3106	0.0006171
3118	0.0003465
3130	0.0002409
3142	0.0002244
3154	0.0002178
3166	0.0002178
3178	0.0001782
3190	0.0001353
3202	0.0001089
3214	8.25e-05
3226	0.0001023
3238	0.0001155
3250	8.25e-05
3262	0.0001089
3274	8.58e-05
3286	1.98e-05
3298	7.92e-05
3310	0.0001089
3322	9.9e-05
3334	7.92e-05
3346	9.57e-05
3358	7.59e-05
3370	5.28e-05
3382	0.0001089
3394	7.59e-05
3406	5.61e-05
3418	6.27e-05
3430	0.0001386
3442	0.0001518
3454	0.0001749
3466	0.0001815
3478	0.0001188
3490	0.0001221
3502	0.0001155
3514	0.0001254
3526	9.57e-05
3538	5.61e-05
3550	0.0001155
3562	8.91e-05
3574	0.0001056
3586	8.91e-05
3598	9.57e-05
3610	0
3622	5.61e-05
3634	8.91e-05
3646	4.29e-05
3658	4.62e-05
3670	9.24e-05
3682	7.59e-05
3694	0.0001023
3706	0.0001089
3718	8.58e-05
3730	8.58e-05
3742	8.91e-05
3754	9.9e-05
3766	9.57e-05
3778	7.26e-05
3790	8.58e-05
3802	4.95e-05
3814	7.92e-05
3826	8.58e-05
3838	7.92e-05
