Infrared Spectrum: 2,4,6-Trichlorobenzoic acid
Formula: C 7 H 3 Cl 3 O 2
CAS: 50-43-1
State: gas
Origin: EPA-IR VAPOR PHASE LIBRARY
1/CM	ABSORBANCE
549.8	0.018361
559.445	0.021541
569.09	0.023311
578.734	0.029731
588.379	0.028721
598.024	0.011461
607.669	0.006171
617.313	0.004051
626.958	0.003271
636.603	0.002601
646.248	0.002211
655.893	0.002181
665.537	0.002101
675.182	0.002481
684.827	0.004171
694.472	0.010451
704.116	0.022481
713.761	0.008251
723.406	0.004341
733.051	0.005421
742.695	0.009671
752.34	0.014821
761.985	0.012641
771.63	0.007141
781.275	0.010161
790.919	0.016431
800.564	0.019121
810.209	0.022441
819.854	0.041191
829.498	0.047981
839.143	0.072221
848.788	0.044441
858.433	0.035121
868.078	0.017481
877.722	0.004461
887.367	0.002701
897.012	0.003241
906.657	0.002501
916.301	0.001791
925.946	0.001571
935.591	0.001651
945.236	0.001761
954.88	0.001601
964.525	0.001751
974.17	0.002181
983.815	0.002191
993.46	0.002631
1003.1	0.002781
1012.75	0.003131
1022.39	0.003831
1032.04	0.007821
1041.68	0.017771
1051.33	0.026141
1060.97	0.017111
1070.62	0.010211
1080.26	0.010921
1089.91	0.017821
1099.55	0.075741
1109.2	0.148201
1118.84	0.049351
1128.49	0.015351
1138.13	0.016821
1147.78	0.028741
1157.42	0.024781
1167.07	0.014881
1176.71	0.030161
1186.36	0.072781
1196	0.063231
1205.64	0.022491
1215.29	0.009491
1224.93	0.006761
1234.58	0.007871
1244.22	0.009441
1253.87	0.010241
1263.51	0.009271
1273.16	0.011781
1282.8	0.019761
1292.45	0.031261
1302.09	0.034431
1311.74	0.036641
1321.38	0.025051
1331.03	0.016401
1340.67	0.016371
1350.32	0.023171
1359.96	0.036471
1369.61	0.045621
1379.25	0.033381
1388.9	0.023951
1398.54	0.013321
1408.18	0.005961
1417.83	0.005201
1427.47	0.008651
1437.12	0.010311
1446.76	0.008011
1456.41	0.007001
1466.05	0.003181
1475.7	0.003001
1485.34	0.003611
1494.99	0.003101
1504.63	0.003001
1514.28	0.004331
1523.92	0.008761
1533.57	0.024551
1543.21	0.052331
1552.86	0.059641
1562.5	0.046721
1572.15	0.074381
1581.79	0.087411
1591.44	0.036831
1601.08	0.009221
1610.73	0.005411
1620.37	0.004711
1630.01	0.004241
1639.66	0.003691
1649.3	0.002961
1658.95	0.002271
1668.59	0.001951
1678.24	0.001661
1687.88	0.001901
1697.53	0.002401
1707.17	0.004901
1716.82	0.011821
1726.46	0.017371
1736.11	0.015601
1745.75	0.011221
1755.4	0.015711
1765.04	0.053041
1774.69	0.176931
1784.33	0.179061
1793.98	0.048551
1803.62	0.018671
1813.27	0.013711
1822.91	0.013691
1832.55	0.009331
1842.2	0.005791
1851.84	0.003321
1861.49	0.002541
1871.13	0.002151
1880.78	0.001871
1890.42	0.001911
1900.07	0.001621
1909.71	0.001391
1919.36	0.0011635
1929	0.001041
1938.65	0.0012124
1948.29	0.0013162
1957.94	0.0010669
1967.58	0.0009543
1977.23	0.0009996
1986.87	0.0012349
1996.52	0.000933
2006.16	0.0007071
2015.81	0.0006614
2025.45	0.0006885
2035.1	0.0006878
2044.74	0.00041595
2054.38	0.0004572
2064.03	0.00046073
2073.67	0.0004883
2083.32	0.0004651
2092.96	0.0005138
2102.61	0.0006044
2112.25	0.0005244
2121.9	0.00041881
2131.54	0.00046513
2141.19	0.0005632
2150.83	0.0008358
2160.48	0.0007717
2170.12	0.0005286
2179.77	0.00041149
2189.41	0.0005172
2199.06	0.0006565
2208.7	0.0007433
2218.35	0.0006814
2227.99	0.0006164
2237.64	0.0005602
2247.28	0.0006203
2256.92	0.0005728
2266.57	0.0005415
2276.21	0.0005198
2285.86	0.000744
2295.5	0.0009436
2305.15	0.0009698
2314.79	0.0008498
2324.44	0.0008148
2334.08	0.0009071
2343.73	0.0009785
2353.37	0.001004
2363.02	0.001391
2372.66	0.0012019
2382.31	0.000802
2391.95	0.000555
2401.6	0.0005887
2411.24	0.0006551
2420.89	0.0006843
2430.53	0.000568
2440.18	0.0006107
2449.82	0.0005524
2459.47	0.0006659
2469.11	0.0006508
2478.75	0.0006266
2488.4	0.0005821
2498.04	0.0006503
2507.69	0.0005104
2517.33	0.00043644
2526.98	0.0004813
2536.62	0.00045279
2546.27	0.00047348
2555.91	0.00048066
2565.56	0.00039324
2575.2	0.0003009
2584.85	0.00045417
2594.49	0.00037929
2604.14	0.000388022
2613.78	0.0006233
2623.43	0.0006634
2633.07	0.00047719
2642.72	0.00038071
2652.36	0.00042013
2662.01	0.000303
2671.65	0.0003509
2681.29	0.0003112
2690.94	0.0005041
2700.58	0.00046573
2710.23	0.0003372
2719.87	0.0003233
2729.52	0.00041402
2739.16	0.000389406
2748.81	0.0002984
2758.45	0.000275
2768.1	0.000228
2777.74	0.00039566
2787.39	0.00042476
2797.03	0.00046194
2806.68	0.00045973
2816.32	0.0005005
2825.97	0.0006809
2835.61	0.00044363
2845.26	0.00041558
2854.9	0.00037194
2864.55	0.00037584
2874.19	0.0005068
2883.84	0.0006518
2893.48	0.0005381
2903.12	0.0005241
2912.77	0.0004405
2922.41	0.0005198
2932.06	0.0005458
2941.7	0.0007304
2951.35	0.0006192
2960.99	0.0011482
2970.64	0.001431
2980.28	0.001175
2989.93	0.0007104
2999.57	0.0005716
3009.22	0.0006435
3018.86	0.0005032
3028.51	0.0003054
3038.15	0.0003472
3047.8	0.00045275
3057.44	0.0003101
3067.09	0.000343
3076.73	0.0007916
3086.38	0.001701
3096.02	0.0013493
3105.67	0.0007594
3115.31	0.0007308
3124.95	0.0007024
3134.6	0.0006073
3144.24	0.0006429
3153.89	0.0006351
3163.53	0.0003378
3173.18	0.00046537
3182.82	0.000273
3192.47	0.000225
3202.11	0.0003055
3211.76	0.00040756
3221.4	8.8e-05
3231.05	9.4e-05
3240.69	0.000158
3250.34	0.00015
3259.98	0.00014
3269.63	0.0003044
3279.27	8.2e-05
3288.92	0.000382736
3298.56	0.000253
3308.21	0.00014
3317.85	0.000164
3327.49	0.00013
3337.14	0.000169
3346.78	0.00044563
3356.43	0.00027
3366.07	0.000173
3375.72	0.000211
3385.36	0.0003557
3395.01	0.00038664
3404.65	0.0003401
3414.3	0.0004154
3423.94	0.0005943
3433.59	0.000233
3443.23	0.000319
3452.88	0.000145
3462.52	0.000483
3472.17	0.0005074
3481.81	0.0004967
3491.46	0.0007274
3501.1	0.001411
3510.75	0.001431
3520.39	0.001531
3530.04	0.002211
3539.68	0.004271
3549.32	0.012981
3558.97	0.071721
3568.61	0.071521
3578.26	0.008051
3587.9	0.002291
3597.55	0.001771
3607.19	0.002081
3616.84	0.002381
3626.48	0.001441
3636.13	0.0006179
3645.77	0.0006386
3655.42	0.0007141
3665.06	0.000633
3674.71	0.0005879
3684.35	0.0006027
3694	0.00041152
3703.64	0.0005985
3713.29	0.00039844
3722.93	0.0004916
3732.58	0.0003685
3742.22	0.0004916
3751.86	0.000137
3761.51	0.0003315
3771.15	0.00043483
3780.8	0.000257
3790.44	0.0003183
3800.09	0.000267
3809.73	0.00040299
3819.38	0.0002857
3829.02	0.000245
3838.67	0.000245
3848.31	0.000273
3857.96	0.0003184
3867.6	0.000107
3877.25	0.000208
3886.89	0.0002812
3896.54	0.00026
3906.18	0.000388301
3915.83	0.00039294
3925.47	0.000274
3935.12	0.00045219
3944.76	0.0005556
3954.41	0.000247
3964.05	0.0003541
3973.69	0.00011
3983.34	0.0005226
3992.98	0.00047919
