Infrared Spectrum: CHLORPROMAZINE
Formula: C17 H19 Cl N2 S
CAS: 50-53-3
State: SOLUTION (CS2 FOR 2-15, C2Cl4 FOR 6.1-7.6 MICRONS)
Boiling point: 200-205 C AT 0.8 mmHg
Class: COBLENTZ III
Instrument: PERKIN-ELMER 21 (GRATING)
Instrument parameters: FILTER CHANGE AT 10 MICRON
Sampling: TRANSMISSION
Path length: 0.010 CM, 0.010 CM
Resolution: 2
MICROMETERS	TRANSMITTANCE
2.014	0.983
2.04732	0.983
2.08064	0.983
2.11396	0.983
2.14728	0.983
2.18061	0.983
2.21393	0.983
2.24725	0.983
2.28057	0.983
2.31389	0.98
2.34721	0.98
2.38053	0.98
2.41385	0.98
2.44717	0.98
2.4805	0.978
2.51382	0.979
2.54714	0.979
2.58046	0.98
2.61378	0.982
2.6471	0.983
2.68042	0.984
2.71374	0.984
2.74706	0.983
2.78038	0.983
2.81371	0.984
2.84703	0.986
2.88035	0.985
2.91367	0.984
2.94699	0.983
2.98031	0.982
3.01363	0.983
3.04695	0.983
3.08027	0.982
3.1136	0.982
3.14692	0.98
3.18024	0.975
3.21356	0.97
3.24688	0.94
3.2802	0.922
3.31352	0.933
3.34684	0.885
3.38016	0.72
3.41349	0.709
3.44681	0.82
3.48013	0.821
3.51345	0.767
3.54677	0.801
3.58009	0.722
3.61341	0.676
3.64673	0.821
3.68005	0.871
3.71338	0.902
3.7467	0.939
3.78002	0.951
3.81334	0.961
3.84666	0.964
3.87998	0.964
3.9133	0.965
3.94662	0.966
3.97994	0.967
4.01326	0.97
4.04659	0.972
4.07991	0.97
4.11323	0.975
4.14655	0.98
4.17987	0.982
4.21319	0.977
4.24651	0.976
4.27983	0.978
4.31315	0.98
4.34648	0.986
4.3798	0.985
4.41312	0.985
4.44644	0.985
4.47976	0.985
4.51308	0.986
4.5464	0.982
4.57972	0.982
4.61304	0.983
4.64637	0.983
4.67969	0.979
4.71301	0.977
4.74633	0.977
4.77965	0.979
4.81297	0.982
4.84629	0.988
4.87961	0.988
4.91293	0.978
4.94626	0.982
4.97958	0.986
5.0129	0.99
5.04622	0.986
5.07954	0.988
5.11286	0.992
5.14618	0.99
5.1795	0.983
5.21282	0.975
5.24614	0.984
5.27947	0.986
5.31279	0.98
5.34611	0.979
5.37943	0.98
5.41275	0.965
5.44607	0.972
5.47939	0.984
5.51271	0.99
5.54603	0.989
5.57936	0.984
5.61268	0.986
5.646	0.983
5.67932	0.982
5.71264	0.99
5.74596	0.992
5.77928	0.994
5.8126	0.991
5.84592	0.99
5.87925	0.99
5.91257	0.985
5.94589	0.982
5.97921	0.982
6.01253	0.979
6.04585	0.98
6.07917	0.971
6.11249	0.967
6.14581	0.958
6.17914	0.951
6.21246	0.913
6.24578	0.711
6.2791	0.549
6.31242	0.65
6.34574	0.464
6.37906	0.319
6.41238	0.554
6.4457	0.798
6.47902	0.852
6.51235	0.894
6.54567	0.928
6.57899	0.927
6.61231	0.9
6.64563	0.847
6.67895	0.771
6.71227	0.523
6.74559	0.513
6.77891	0.346
6.81224	0.053
6.84556	0.042
6.87888	0.112
6.9122	0.226
6.94552	0.442
6.97884	0.571
7.01216	0.636
7.04548	0.526
7.0788	0.255
7.11213	0.433
7.14545	0.649
7.17877	0.737
7.21209	0.695
7.24541	0.667
7.27873	0.63
7.31205	0.694
7.34537	0.728
7.37869	0.742
7.41202	0.736
7.44534	0.748
7.47866	0.724
7.51198	0.646
7.5453	0.6
7.57862	0.59
7.61194	0.629
7.64526	0.703
7.67858	0.826
7.7119	0.828
7.74523	0.792
7.77855	0.756
7.81187	0.679
7.84519	0.669
7.87851	0.737
7.91183	0.76
7.94515	0.756
7.97847	0.758
8.01179	0.585
8.04512	0.476
8.07844	0.521
8.11176	0.64
8.14508	0.709
8.1784	0.686
8.21172	0.649
8.24504	0.68
8.27836	0.785
8.31168	0.861
8.34501	0.919
8.37833	0.939
8.41165	0.951
8.44497	0.952
8.47829	0.945
8.51161	0.921
8.54493	0.899
8.57825	0.834
8.61157	0.844
8.6449	0.881
8.67822	0.865
8.71154	0.83
8.74486	0.887
8.77818	0.878
8.8115	0.842
8.84482	0.798
8.87814	0.654
8.91146	0.711
8.94478	0.853
8.97811	0.851
9.01143	0.798
9.04475	0.761
9.07807	0.738
9.11139	0.698
9.14471	0.68
9.17803	0.807
9.21135	0.881
9.24467	0.907
9.278	0.912
9.31132	0.9
9.34464	0.872
9.37796	0.855
9.41128	0.853
9.4446	0.844
9.47792	0.818
9.51124	0.802
9.54456	0.817
9.57789	0.807
9.61121	0.731
9.64453	0.691
9.67785	0.792
9.71117	0.864
9.74449	0.91
9.77781	0.926
9.81113	0.938
9.84445	0.945
9.87778	0.941
9.9111	0.935
9.94442	0.935
9.97774	0.951
10.0111	0.956
10.0444	0.961
10.0777	0.964
10.111	0.967
10.1443	0.965
10.1777	0.957
10.211	0.95
10.2443	0.929
10.2776	0.912
10.3109	0.914
10.3443	0.928
10.3776	0.937
10.4109	0.942
10.4442	0.95
10.4776	0.957
10.5109	0.964
10.5442	0.967
10.5775	0.965
10.6108	0.957
10.6442	0.944
10.6775	0.918
10.7108	0.869
10.7441	0.815
10.7774	0.771
10.8108	0.738
10.8441	0.733
10.8774	0.73
10.9107	0.713
10.944	0.742
10.9774	0.831
11.0107	0.878
11.044	0.91
11.0773	0.929
11.1107	0.94
11.144	0.945
11.1773	0.948
11.2106	0.952
11.2439	0.953
11.2773	0.952
11.3106	0.948
11.3439	0.942
11.3772	0.938
11.4105	0.933
11.4439	0.932
11.4772	0.932
11.5105	0.926
11.5438	0.916
11.5772	0.915
11.6105	0.915
11.6438	0.914
11.6771	0.908
11.7104	0.884
11.7438	0.868
11.7771	0.853
11.8104	0.837
11.8437	0.82
11.877	0.809
11.9104	0.802
11.9437	0.801
11.977	0.811
12.0103	0.836
12.0436	0.856
12.077	0.876
12.1103	0.896
12.1436	0.916
12.1769	0.928
12.2103	0.94
12.2436	0.946
12.2769	0.95
12.3102	0.951
12.3435	0.951
12.3769	0.942
12.4102	0.923
12.4435	0.87
12.4768	0.739
12.5101	0.561
12.5435	0.529
12.5768	0.625
12.6101	0.741
12.6434	0.847
12.6767	0.895
12.7101	0.923
12.7434	0.94
12.7767	0.953
12.81	0.958
12.8434	0.964
12.8767	0.969
12.91	0.97
12.9433	0.97
12.9766	0.97
13.01	0.97
13.0433	0.964
13.0766	0.959
13.1099	0.96
13.1432	0.957
13.1766	0.945
13.2099	0.933
13.2432	0.91
13.2765	0.864
13.3098	0.776
13.3432	0.652
13.3765	0.47
13.4098	0.357
13.4431	0.338
13.4765	0.389
13.5098	0.523
13.5431	0.688
13.5764	0.766
13.6097	0.801
13.6431	0.819
13.6764	0.819
13.7097	0.811
13.743	0.812
13.7763	0.855
13.8097	0.896
13.843	0.915
13.8763	0.925
13.9096	0.934
13.9429	0.948
13.9763	0.958
14.0096	0.969
14.0429	0.971
14.0762	0.972
14.1096	0.973
14.1429	0.979
14.1762	0.982
14.2095	0.984
14.2428	0.986
14.2762	0.988
14.3095	0.988
14.3428	0.988
14.3761	0.988
14.4094	0.99
14.4428	0.99
14.4761	0.994
14.5094	0.997
14.5427	0.997
14.576	0.997
14.6094	0.997
14.6427	0.995
14.676	0.989
14.7093	0.98
14.7427	0.976
14.776	0.97
14.8093	0.967
14.8426	0.973
14.8759	0.986
14.9093	0.991
14.9426	0.992
