Infrared Spectrum: Reserpine
Formula: C33 H40 N2 O9
CAS: 50-55-5
State: SOLID (NUJOL MULL)
Melting point: 264-265 C
Class: COBLENTZ III
Instrument: PERKIN-ELMER 21 (GRATING)
Resolution: 2
Origin: THE SQUIBB INSTITUTE FOR MEDICAL RESEARCH
1/CM	TRANSMITTANCE
668	0.8315
677	0.8545
686	0.8749
695	0.8774
704	0.8404
713	0.8761
722	0.8617
731	0.8429
740	0.7477
749	0.8517
758	0.7471
767	0.7882
776	0.8974
785	0.9027
794	0.7917
803	0.8768
812	0.8324
821	0.8599
830	0.9043
839	0.8973
848	0.8597
857	0.8593
866	0.8025
875	0.8579
884	0.8888
893	0.8556
902	0.8502
911	0.8624
920	0.839
929	0.845
938	0.7921
947	0.8436
956	0.7933
965	0.7159
974	0.507
983	0.6506
992	0.7032
1001	0.5711
1010	0.7167
1019	0.7087
1028	0.6204
1037	0.6554
1046	0.8013
1055	0.6865
1064	0.8066
1073	0.8002
1082	0.7017
1091	0.4696
1100	0.3847
1109	0.2714
1118	0.163
1127	0.4574
1136	0.5024
1145	0.5572
1154	0.5465
1163	0.5458
1172	0.5769
1181	0.524
1190	0.5972
1199	0.5392
1208	0.4048
1217	0.204
1226	0.3692
1235	0.3906
1244	0.3283
1253	0.4886
1262	0.3903
1271	0.416
1280	0.6043
1289	0.589
1298	0.6475
1307	0.6021
1316	0.4432
1325	0.2817
1334	0.5009
1343	0.4963
1352	0.5705
1361	0.6232
1370	0.6342
1379	0.737
1388	0.7854
1397	0.7346
1406	0.4574
1415	0.7152
1424	0.6709
1433	0.4828
1442	0.4216
1451	0.3395
1460	0.4231
1469	0.7021
1478	0.7422
1487	0.6133
1496	0.5549
1505	0.8734
1514	0.8839
1523	0.8807
1532	0.8716
1541	0.8635
1550	0.8261
1559	0.7904
1568	0.756
1577	0.5914
1586	0.5424
1595	0.7901
1604	0.8071
1613	0.7682
1622	0.7323
1631	0.8757
1640	0.8826
1649	0.8798
1658	0.8748
1667	0.8606
1676	0.8372
1685	0.7865
1694	0.6674
1703	0.4323
1712	0.3667
1721	0.478
1730	0.3763
1739	0.7061
1748	0.9032
1757	0.9268
1766	0.935
1775	0.9398
1784	0.9423
1793	0.9434
1802	0.9441
1811	0.9436
1820	0.9435
1829	0.9434
1838	0.9435
1847	0.9436
1856	0.9433
1865	0.9427
1874	0.9422
1883	0.9415
1892	0.9409
1901	0.9404
1910	0.94
1919	0.9396
1928	0.9393
1937	0.9393
1946	0.9392
1955	0.9392
1964	0.9392
1973	0.9391
1982	0.9389
1991	0.9386
2000	0.9383
2009	0.9379
2018	0.9361
2027	0.9345
2036	0.9331
2045	0.9329
2054	0.9335
2063	0.9339
2072	0.9338
2081	0.9326
2090	0.9296
2099	0.9266
2108	0.9237
2117	0.9239
2126	0.925
2135	0.9264
2144	0.9272
2153	0.928
2162	0.9283
2171	0.9284
2180	0.9276
2189	0.9268
2198	0.9259
2207	0.9253
2216	0.9247
2225	0.924
2234	0.9235
2243	0.9229
2252	0.9224
2261	0.9214
2270	0.9193
2279	0.9171
2288	0.9153
2297	0.9145
2306	0.9143
2315	0.9144
2324	0.9147
2333	0.915
2342	0.9154
2351	0.9158
2360	0.9159
2369	0.9161
2378	0.9163
2387	0.9163
2396	0.9162
2405	0.9162
2414	0.9162
2423	0.9161
2432	0.916
2441	0.9159
2450	0.9158
2459	0.9153
2468	0.9143
2477	0.9133
2486	0.9121
2495	0.9102
2504	0.9083
2513	0.9064
2522	0.9042
2531	0.902
2540	0.8998
2549	0.8975
2558	0.895
2567	0.8922
2576	0.8894
2585	0.8867
2594	0.8848
2603	0.8829
2612	0.881
2621	0.8792
2630	0.8777
2639	0.8766
2648	0.8757
2657	0.8746
2666	0.8738
2675	0.873
2684	0.8722
2693	0.8713
2702	0.8706
2711	0.869
2720	0.867
2729	0.8651
2738	0.8619
2747	0.8567
2756	0.847
2765	0.8322
2774	0.8127
2783	0.7909
2792	0.7714
2801	0.7446
2810	0.558
2819	0.3767
2828	0.3686
2837	0.3681
2846	0.3713
2855	0.3756
2864	0.3816
2873	0.389
2882	0.3959
2891	0.4039
2900	0.4133
2909	0.425
2918	0.4382
2927	0.4534
2936	0.5071
2945	0.5464
2954	0.5854
2963	0.6242
2972	0.6627
2981	0.7112
2990	0.7379
2999	0.7575
3008	0.7837
3017	0.7979
3026	0.8071
3035	0.8139
3044	0.8204
3053	0.8246
3062	0.8285
3071	0.8323
3080	0.8361
3089	0.8384
3098	0.8398
3107	0.84
3116	0.8402
3125	0.8401
3134	0.8399
3143	0.8392
3152	0.8385
3161	0.8378
3170	0.8371
3179	0.8363
3188	0.8352
3197	0.8341
3206	0.833
3215	0.8317
3224	0.8302
3233	0.8286
3242	0.8271
3251	0.8256
3260	0.8241
3269	0.8223
3278	0.8205
3287	0.8187
3296	0.8168
3305	0.8136
3314	0.8095
3323	0.8051
3332	0.7997
3341	0.7943
3350	0.7888
3359	0.7824
3368	0.776
3377	0.7676
3386	0.7588
3395	0.7516
3404	0.7457
3413	0.7413
3422	0.7552
3431	0.8001
3440	0.8321
3449	0.8324
3458	0.8302
3467	0.8324
3476	0.832
3485	0.8315
3494	0.8313
3503	0.831
3512	0.8307
3521	0.8305
3530	0.8302
3539	0.8299
3548	0.8295
3557	0.8291
3566	0.8287
3575	0.8283
3584	0.8279
3593	0.8274
3602	0.827
3611	0.8265
3620	0.8261
3629	0.8256
3638	0.8252
3647	0.8246
3656	0.824
3665	0.8231
3674	0.8224
3683	0.8216
3692	0.8208
3701	0.8201
3710	0.8194
3719	0.8186
3728	0.818
3737	0.8172
3746	0.8166
3755	0.8157
3764	0.8146
3773	0.8135
3782	0.8124
3791	0.8113
3800	0.8101
3809	0.809
3818	0.8079
3827	0.8068
3836	0.8058
3845	0.8048
3854	0.8037
3863	0.8027
3872	0.8016
3881	0.8007
3890	0.7996
3899	0.7986
3908	0.7975
3917	0.7965
3926	0.7955
3935	0.7944
3944	0.7934
3953	0.7924
3962	0.7913
3971	0.7903
3980	0.7892
3989	0.7883
3998	0.7873
