Infrared Spectrum: PURINE, 6-(METHYLTHIO)-
Formula: C6 H6 N4 S
CAS: 50-66-8
State: SOLID (1.0 mg / 650 mg KBr DISC)
Class: COBLENTZ III
Instrument: PERKIN-ELMER 21 (GRATING)
Instrument parameters: FILTER CHANGE ABOUT 1085 CM^-^1
Sampling: TRANSMISSION
Resolution: 4
Origin: SOUTHERN RESEARCH INSTITUTE
1/CM	TRANSMITTANCE
512.346	0.891
520.955	0.891
529.563	0.89
538.172	0.89
546.781	0.89
555.39	0.89
563.998	0.89
572.607	0.89
581.216	0.89
589.825	0.89
598.433	0.888
607.042	0.8853
615.651	0.876
624.26	0.8524
632.868	0.8198
641.477	0.6759
650.086	0.904
658.695	0.9139
667.303	0.8204
675.912	0.7949
684.521	0.9031
693.13	0.8746
701.738	0.8614
710.347	0.8219
718.956	0.823
727.565	0.81
736.173	0.7994
744.782	0.7883
753.391	0.7705
762	0.749
770.608	0.7351
779.217	0.707
787.826	0.6693
796.435	0.5286
805.043	0.6804
813.652	0.6317
822.261	0.5717
830.87	0.5061
839.478	0.3953
848.087	0.3571
856.696	0.3603
865.305	0.3744
873.913	0.6548
882.522	0.671
891.131	0.6692
899.74	0.6317
908.348	0.5518
916.957	0.3999
925.566	0.568
934.175	0.4219
942.783	0.557
951.392	0.6088
960.001	0.629
968.61	0.6136
977.218	0.5161
985.827	0.4216
994.436	0.686
1003.04	0.7572
1011.65	0.757
1020.26	0.753
1028.87	0.756
1037.48	0.7482
1046.09	0.7363
1054.7	0.729
1063.31	0.7199
1071.91	0.703
1080.52	0.6733
1089.13	0.6375
1097.74	0.674
1106.35	0.6579
1114.96	0.632
1123.57	0.5986
1132.18	0.5411
1140.78	0.4069
1149.39	0.4471
1158	0.5036
1166.61	0.5606
1175.22	0.5984
1183.83	0.6489
1192.44	0.6351
1201.05	0.5824
1209.65	0.5419
1218.26	0.5412
1226.87	0.524
1235.48	0.3266
1244.09	0.2397
1252.7	0.5554
1261.31	0.5181
1269.92	0.4276
1278.52	0.3003
1287.13	0.5197
1295.74	0.6018
1304.35	0.5327
1312.96	0.3332
1321.57	0.3055
1330.18	0.5675
1338.79	0.63
1347.39	0.6171
1356	0.5522
1364.61	0.4342
1373.22	0.2717
1381.83	0.2508
1390.44	0.569
1399.05	0.5736
1407.66	0.5422
1416.26	0.4673
1424.87	0.326
1433.48	0.4031
1442.09	0.3559
1450.7	0.3929
1459.31	0.5609
1467.92	0.5177
1476.53	0.4569
1485.13	0.4884
1493.74	0.4563
1502.35	0.597
1510.96	0.5186
1519.57	0.4677
1528.18	0.4188
1536.79	0.3494
1545.4	0.1977
1554	0.1604
1562.61	0.1954
1571.22	0.3542
1579.83	0.453
1588.44	0.3198
1597.05	0.3476
1605.66	0.2966
1614.27	0.5644
1622.87	0.665
1631.48	0.6585
1640.09	0.6535
1648.7	0.6508
1657.31	0.6634
1665.92	0.671
1674.53	0.673
1683.14	0.671
1691.74	0.67
1700.35	0.675
1708.96	0.674
1717.57	0.6732
1726.18	0.671
1734.79	0.6688
1743.4	0.6629
1752.01	0.6539
1760.61	0.6481
1769.22	0.6571
1777.83	0.663
1786.44	0.657
1795.05	0.653
1803.66	0.6441
1812.27	0.6321
1820.88	0.6437
1829.48	0.6528
1838.09	0.6569
1846.7	0.664
1855.31	0.6572
1863.92	0.656
1872.53	0.6488
1881.14	0.6413
1889.75	0.6339
1898.35	0.628
1906.96	0.6276
1915.57	0.6316
1924.18	0.6426
1932.79	0.648
1941.4	0.642
1950.01	0.6405
1958.62	0.639
1967.22	0.6324
1975.83	0.64
1984.44	0.6292
1993.05	0.6266
2001.66	0.6282
2010.27	0.6273
2018.88	0.6246
2027.49	0.614
2036.09	0.613
2044.7	0.611
2053.31	0.609
2061.92	0.609
2070.53	0.606
2079.14	0.605
2087.75	0.601
2096.36	0.5947
2104.96	0.59
2113.57	0.587
2122.18	0.584
2130.79	0.583
2139.4	0.578
2148.01	0.573
2156.62	0.573
2165.23	0.5707
2173.83	0.563
2182.44	0.561
2191.05	0.56
2199.66	0.5547
2208.27	0.55
2216.88	0.549
2225.49	0.542
2234.1	0.538
2242.7	0.535
2251.31	0.5297
2259.92	0.5236
2268.53	0.52
2277.14	0.5143
2285.75	0.508
2294.36	0.506
2302.97	0.49
2311.57	0.4747
2320.18	0.464
2328.79	0.4597
2337.4	0.455
2346.01	0.454
2354.62	0.453
2363.23	0.45
2371.84	0.4563
2380.44	0.449
2389.05	0.4463
2397.66	0.4437
2406.27	0.442
2414.88	0.441
2423.49	0.436
2432.1	0.426
2440.71	0.4207
2449.31	0.4157
2457.92	0.4097
2466.53	0.4003
2475.14	0.3957
2483.75	0.3907
2492.36	0.3856
2500.97	0.377
2509.58	0.371
2518.18	0.3463
2526.79	0.3376
2535.4	0.3247
2544.01	0.3157
2552.62	0.316
2561.23	0.3267
2569.84	0.3327
2578.45	0.3303
2587.05	0.3237
2595.66	0.3187
2604.27	0.3173
2612.88	0.314
2621.49	0.309
2630.1	0.305
2638.71	0.3057
2647.32	0.309
2655.92	0.3043
2664.53	0.293
2673.14	0.2903
2681.75	0.2857
2690.36	0.2763
2698.97	0.273
2707.58	0.275
2716.19	0.2737
2724.79	0.273
2733.4	0.271
2742.01	0.271
2750.62	0.2616
2759.23	0.2487
2767.84	0.2326
2776.45	0.2217
2785.06	0.224
2793.66	0.227
2802.27	0.2373
2810.88	0.257
2819.49	0.2884
2828.1	0.3303
2836.71	0.3485
2845.32	0.362
2853.93	0.3567
2862.53	0.351
2871.14	0.3507
2879.75	0.348
2888.36	0.3353
2896.97	0.325
2905.58	0.3099
2914.19	0.288
2922.8	0.2866
2931.4	0.2853
2940.01	0.282
2948.62	0.28
2957.23	0.2863
2965.84	0.2937
2974.45	0.302
2983.06	0.3137
2991.67	0.321
3000.27	0.3203
3008.88	0.315
3017.49	0.3127
3026.1	0.305
3034.71	0.3084
3043.32	0.3107
3051.93	0.3133
3060.54	0.3253
3069.14	0.3353
3077.75	0.341
3086.36	0.3413
3094.97	0.3557
3103.58	0.362
3112.19	0.3773
3120.8	0.4324
3129.41	0.459
3138.01	0.465
3146.62	0.4653
3155.23	0.471
3163.84	0.4793
3172.45	0.4827
3181.06	0.491
3189.67	0.493
3198.28	0.497
3206.88	0.498
3215.49	0.498
3224.1	0.498
3232.71	0.4977
3241.32	0.49
3249.93	0.487
3258.54	0.484
3267.15	0.481
3275.75	0.4757
3284.36	0.47
3292.97	0.4733
3301.58	0.464
3310.19	0.461
3318.8	0.455
3327.41	0.4497
3336.02	0.443
3344.62	0.4337
3353.23	0.4256
3361.84	0.4207
3370.45	0.412
3379.06	0.4047
3387.67	0.396
3396.28	0.3907
3404.89	0.388
3413.49	0.3827
3422.1	0.382
3430.71	0.3787
3439.32	0.377
3447.93	0.3783
3456.54	0.3843
3465.15	0.388
3473.76	0.3933
3482.36	0.3887
3490.97	0.391
3499.58	0.3983
3508.19	0.404
3516.8	0.4097
3525.41	0.4114
3534.02	0.4203
3542.63	0.422
3551.23	0.4264
3559.84	0.4297
3568.45	0.4333
3577.06	0.439
3585.67	0.444
3594.28	0.4447
3602.89	0.443
3611.5	0.447
3620.1	0.4533
3628.71	0.455
3637.32	0.459
3645.93	0.4603
