Infrared Spectrum: SORBITOL
Formula: C6 H14 O6
CAS: 50-70-4
State: SOLID (SPLIT MULL, FLUOROLUBE FOR 3800-1330 AND NUJOL FOR 1330-400 CM ^-^1)
Class: COBLENTZ III
Instrument: DOW KBr FOREPRISM-GRATING
Instrument parameters: BLAZED AT 3.5, 12.0, 20.0 MICRON, CHANGED AT 5.0, 7.5, 14.9 MICRON
Sampling: TRANSMISSION
Resolution: 4
Origin: DOW CHEMICAL COMPANY
1/CM	TRANSMITTANCE
383.411	0.646
392.112	0.645
400.812	0.639
409.513	0.637
418.214	0.638
426.915	0.663
435.615	0.664
444.316	0.66
453.017	0.654
461.717	0.649
470.418	0.607
479.119	0.451
487.82	0.553
496.52	0.616
505.221	0.605
513.922	0.66
522.622	0.649
531.323	0.627
540.024	0.612
548.725	0.594
557.425	0.563
566.126	0.518
574.827	0.469
583.527	0.376
592.228	0.369
600.929	0.361
609.629	0.343
618.33	0.312
627.031	0.251
635.732	0.18
644.432	0.141
653.133	0.221
661.834	0.196
670.534	0.177
679.235	0.18
687.936	0.201
696.637	0.227
705.337	0.249
714.038	0.256
722.739	0.252
731.439	0.309
740.14	0.365
748.841	0.442
757.542	0.512
766.242	0.549
774.943	0.527
783.644	0.66
792.344	0.766
801.045	0.818
809.746	0.855
818.447	0.894
827.147	0.934
835.848	0.935
844.549	0.922
853.249	0.89
861.95	0.716
870.651	0.279
879.352	0.433
888.052	0.309
896.753	0.693
905.454	0.965
914.154	0.984
922.855	0.938
931.556	0.724
940.257	0.5221
948.957	0.884
957.658	0.938
966.359	0.908
975.059	0.839
983.76	0.665
992.461	0.3079
1001.16	0.121
1009.86	0.211
1018.56	0.196
1027.26	0.44
1035.96	0.407
1044.67	0.1
1053.37	0.115
1062.07	0.287
1070.77	0.229
1079.47	0.171
1088.17	0.061
1096.87	0.065
1105.57	0.184
1114.27	0.2111
1122.97	0.53
1131.67	0.469
1140.37	0.742
1149.07	0.878
1157.77	0.904
1166.47	0.871
1175.18	0.759
1183.88	0.637
1192.58	0.699
1201.28	0.626
1209.98	0.603
1218.68	0.604
1227.38	0.521
1236.08	0.563
1244.78	0.431
1253.48	0.324
1262.18	0.551
1270.88	0.563
1279.58	0.547
1288.28	0.462
1296.99	0.364
1305.69	0.339
1314.39	0.349
1323.09	0.427
1331.79	0.514
1340.49	0.597
1349.19	0.616
1357.89	0.594
1366.59	0.555
1375.29	0.485
1383.99	0.496
1392.69	0.461
1401.39	0.387
1410.09	0.323
1418.8	0.297
1427.5	0.341
1436.2	0.395
1444.9	0.412
1453.6	0.489
1462.3	0.485
1471	0.5721
1479.7	0.69
1488.4	0.793
1497.1	0.843
1505.8	0.879
1514.5	0.904
1523.2	0.926
1531.9	0.941
1540.61	0.949
1549.31	0.957
1558.01	0.964
1566.71	0.969
1575.41	0.976
1584.11	0.978
1592.81	0.98
1601.51	0.98
1610.21	0.978
1618.91	0.976
1627.61	0.975
1636.31	0.974
1645.01	0.969
1653.71	0.967
1662.42	0.972
1671.12	0.978
1679.82	0.982
1688.52	0.987
1697.22	0.993
1705.92	0.994
1714.62	0.994
1723.32	0.993
1732.02	0.99
1740.72	0.987
1749.42	0.983
1758.12	0.982
1766.82	0.979
1775.52	0.976
1784.23	0.972
1792.93	0.971
1801.63	0.969
1810.33	0.968
1819.03	0.967
1827.73	0.964
1836.43	0.963
1845.13	0.961
1853.83	0.959
1862.53	0.954
1871.23	0.95
1879.93	0.948
1888.63	0.948
1897.33	0.948
1906.04	0.945
1914.74	0.941
1923.44	0.937
1932.14	0.935
1940.84	0.929
1949.54	0.923
1958.24	0.923
1966.94	0.92
1975.64	0.919
1984.34	0.914
1993.04	0.905
2001.74	0.903
2010.44	0.901
2019.14	0.9
2027.85	0.8971
2036.55	0.893
2045.25	0.8881
2053.95	0.882
2062.65	0.877
2071.35	0.8713
2080.05	0.87
2088.75	0.867
2097.45	0.866
2106.15	0.863
2114.85	0.8567
2123.55	0.852
2132.25	0.852
2140.95	0.851
2149.66	0.8483
2158.36	0.8433
2167.06	0.8393
2175.76	0.834
2184.46	0.8307
2193.16	0.828
2201.86	0.8268
2210.56	0.8222
2219.26	0.8184
2227.96	0.814
2236.66	0.804
2245.36	0.7955
2254.06	0.789
2262.76	0.7805
2271.47	0.775
2280.17	0.768
2288.87	0.7621
2297.57	0.7517
2306.27	0.74
2314.97	0.7342
2323.67	0.731
2332.37	0.729
2341.07	0.727
2349.77	0.7247
2358.47	0.72
2367.17	0.718
2375.87	0.716
2384.57	0.7127
2393.28	0.7052
2401.98	0.6973
2410.68	0.6926
2419.38	0.6896
2428.08	0.6828
2436.78	0.678
2445.48	0.6688
2454.18	0.658
2462.88	0.6486
2471.58	0.6429
2480.28	0.634
2488.98	0.6309
2497.68	0.6239
2506.38	0.6179
2515.09	0.611
2523.79	0.605
2532.49	0.603
2541.19	0.6
2549.89	0.598
2558.59	0.597
2567.29	0.596
2575.99	0.5921
2584.69	0.589
2593.39	0.5824
2602.09	0.5714
2610.79	0.5622
2619.49	0.5422
2628.19	0.5262
2636.9	0.5032
2645.6	0.4952
2654.3	0.491
2663	0.4883
2671.7	0.4828
2680.4	0.477
2689.1	0.4693
2697.8	0.459
2706.5	0.4503
2715.2	0.4464
2723.9	0.442
2732.6	0.439
2741.3	0.4378
2750	0.4343
2758.71	0.4259
2767.41	0.4189
2776.11	0.4095
2784.81	0.4039
2793.51	0.3935
2802.21	0.3816
2810.91	0.3715
2819.61	0.3566
2828.31	0.3481
2837.01	0.338
2845.71	0.3236
2854.41	0.3068
2863.11	0.2835
2871.81	0.2592
2880.52	0.251
2889.22	0.249
2897.92	0.246
2906.62	0.2281
2915.32	0.1887
2924.02	0.1897
2932.72	0.1701
2941.42	0.1786
2950.12	0.2136
2958.82	0.2144
2967.52	0.3245
2976.22	0.336
2984.92	0.3146
2993.62	0.3089
3002.33	0.3271
3011.03	0.3309
3019.73	0.3166
3028.43	0.2926
3037.13	0.2736
3045.83	0.251
3054.53	0.226
3063.23	0.207
3071.93	0.1892
3080.63	0.1741
3089.33	0.1581
3098.03	0.1392
3106.73	0.1242
3115.43	0.1092
3124.13	0.0887
3132.84	0.073
3141.54	0.0643
3150.24	0.0572
3158.94	0.053
3167.64	0.05
3176.34	0.046
3185.04	0.0422
3193.74	0.04
3202.44	0.038
3211.14	0.034
3219.84	0.0313
3228.54	0.0286
3237.24	0.0257
3245.94	0.024
3254.65	0.028
3263.35	0.0306
3272.05	0.031
3280.75	0.031
3289.45	0.03
3298.15	0.024
3306.85	0.021
3315.55	0.022
3324.25	0.02
3332.95	0.025
3341.65	0.028
3350.35	0.031
3359.05	0.0344
3367.75	0.039
3376.46	0.04
3385.16	0.0424
3393.86	0.049
3402.56	0.0517
3411.26	0.058
3419.96	0.0643
3428.66	0.0765
3437.36	0.1073
3446.06	0.1458
3454.76	0.1885
3463.46	0.2248
3472.16	0.2666
3480.86	0.3136
3489.56	0.3555
3498.27	0.396
3506.97	0.4488
3515.67	0.5156
3524.37	0.5828
3533.07	0.6312
3541.77	0.6771
3550.47	0.7301
3559.17	0.7876
3567.87	0.8321
3576.57	0.8701
3585.27	0.894
3593.97	0.9309
3602.67	0.9519
3611.37	0.9599
3620.08	0.967
3628.78	0.968
3637.48	0.968
3646.18	0.965
3654.88	0.964
3663.58	0.9609
3672.28	0.9592
3680.98	0.9562
3689.68	0.9492
3698.38	0.946
3707.08	0.939
3715.78	0.9355
3724.48	0.9315
3733.18	0.9245
3741.89	0.9166
3750.59	0.914
3759.29	0.911
3767.99	0.903
3776.69	0.8994
3785.39	0.894
3794.09	0.892
