Infrared Spectrum: URIDINE, 2'-DEOXY-5-FLUORO-
Formula: C9 H11 F N2 O5
CAS: 50-91-9
State: SOLID (1.0 mg / 650 mg KBr DISC)
Class: COBLENTZ III
Instrument: PERKIN-ELMER 221 (GRATING)
Instrument parameters: FILTER AT 980 CM^-^1. GRATING 4000-1428 AND NaCl PRISM 1428-650 CM^-^1
Sampling: TRANSMISSION
Resolution: 4
Origin: SOUTHERN RESEARCH INSTITUTE
1/CM	TRANSMITTANCE
650.175	0.665
658.679	0.7043
667.183	0.7248
675.687	0.7175
684.192	0.5754
692.696	0.712
701.2	0.7141
709.704	0.7266
718.208	0.745
726.712	0.7444
735.217	0.6881
743.721	0.5981
752.225	0.5755
760.729	0.6354
769.233	0.7313
777.737	0.7615
786.242	0.642
794.746	0.7573
803.25	0.7319
811.754	0.6887
820.258	0.6332
828.762	0.5528
837.267	0.4723
845.771	0.5224
854.275	0.5063
862.779	0.6143
871.283	0.6207
879.787	0.576
888.292	0.477
896.796	0.7011
905.3	0.734
913.804	0.683
922.308	0.5834
930.812	0.5479
939.317	0.6748
947.821	0.7118
956.325	0.6947
964.829	0.6807
973.333	0.6046
981.837	0.5491
990.342	0.5555
998.846	0.3806
1007.35	0.4211
1015.85	0.572
1024.36	0.5157
1032.86	0.4123
1041.37	0.1758
1049.87	0.2143
1058.37	0.4886
1066.88	0.591
1075.38	0.4877
1083.89	0.6148
1092.39	0.5662
1100.9	0.7822
1109.4	0.824
1117.9	0.816
1126.41	0.6967
1134.91	0.4394
1143.42	0.4892
1151.92	0.787
1160.42	0.822
1168.93	0.8041
1177.43	0.7536
1185.94	0.6529
1194.44	0.5341
1202.95	0.456
1211.45	0.5503
1219.95	0.5188
1228.46	0.4386
1236.96	0.4163
1245.47	0.5383
1253.97	0.3722
1262.47	0.2849
1270.98	0.1996
1279.48	0.3766
1287.99	0.6244
1296.49	0.6581
1305	0.6677
1313.5	0.6658
1322	0.5963
1330.51	0.5027
1339.01	0.5804
1347.52	0.524
1356.02	0.402
1364.52	0.5057
1373.03	0.6425
1381.53	0.7898
1390.04	0.8059
1398.54	0.7326
1407.05	0.5544
1415.55	0.5974
1424.05	0.6417
1432.56	0.6414
1441.06	0.5148
1449.57	0.6546
1458.07	0.7137
1466.57	0.722
1475.08	0.6345
1483.58	0.4149
1492.09	0.6108
1500.59	0.7523
1509.1	0.811
1517.6	0.835
1526.1	0.8533
1534.61	0.8526
1543.11	0.8343
1551.62	0.8284
1560.12	0.8139
1568.62	0.808
1577.13	0.7766
1585.63	0.7524
1594.14	0.721
1602.64	0.6875
1611.15	0.647
1619.65	0.6028
1628.15	0.5563
1636.66	0.5012
1645.16	0.4296
1653.67	0.366
1662.17	0.2327
1670.67	0.1422
1679.18	0.1312
1687.68	0.1134
1696.19	0.108
1704.69	0.1023
1713.2	0.0904
1721.7	0.0926
1730.2	0.1025
1738.71	0.1823
1747.21	0.2923
1755.72	0.3938
1764.22	0.46
1772.72	0.4955
1781.23	0.5343
1789.73	0.5811
1798.24	0.6302
1806.74	0.6545
1815.25	0.7051
1823.75	0.7319
1832.25	0.7547
1840.76	0.7825
1849.26	0.7898
1857.77	0.795
1866.27	0.8039
1874.77	0.8307
1883.28	0.8466
1891.78	0.8511
1900.29	0.862
1908.79	0.867
1917.3	0.872
1925.8	0.8774
1934.3	0.8862
1942.81	0.9015
1951.31	0.913
1959.82	0.918
1968.32	0.92
1976.82	0.9229
1985.33	0.928
1993.83	0.9269
2002.34	0.929
2010.84	0.913
2019.35	0.9139
2027.85	0.9218
2036.35	0.9269
2044.86	0.927
2053.36	0.924
2061.87	0.9171
2070.37	0.9169
2078.87	0.9249
2087.38	0.9328
2095.88	0.931
2104.39	0.9341
2112.89	0.936
2121.4	0.9281
2129.9	0.927
2138.4	0.928
2146.91	0.93
2155.41	0.934
2163.92	0.934
2172.42	0.9328
2180.92	0.933
2189.43	0.933
2197.93	0.933
2206.44	0.93
2214.94	0.9271
2223.45	0.9241
2231.95	0.924
2240.45	0.925
2248.96	0.929
2257.46	0.9252
2265.97	0.9202
2274.47	0.918
2282.97	0.913
2291.48	0.912
2299.98	0.911
2308.49	0.9051
2316.99	0.9
2325.5	0.8941
2334	0.888
2342.5	0.889
2351.01	0.886
2359.51	0.8862
2368.02	0.884
2376.52	0.885
2385.02	0.889
2393.53	0.8851
2402.03	0.878
2410.54	0.874
2419.04	0.872
2427.55	0.873
2436.05	0.874
2444.55	0.874
2453.06	0.874
2461.56	0.872
2470.07	0.8661
2478.57	0.8688
2487.07	0.872
2495.58	0.872
2504.08	0.8739
2512.59	0.871
2521.09	0.867
2529.6	0.863
2538.1	0.864
2546.6	0.8541
2555.11	0.8511
2563.61	0.8491
2572.12	0.849
2580.62	0.846
2589.12	0.845
2597.63	0.8412
2606.13	0.8331
2614.64	0.83
2623.14	0.83
2631.65	0.8281
2640.15	0.8271
2648.65	0.8221
2657.16	0.8181
2665.66	0.812
2674.17	0.8132
2682.67	0.7982
2691.17	0.7852
2699.68	0.7771
2708.18	0.773
2716.69	0.776
2725.19	0.777
2733.7	0.776
2742.2	0.773
2750.7	0.7672
2759.21	0.757
2767.71	0.7403
2776.22	0.7331
2784.72	0.7182
2793.22	0.7012
2801.73	0.6872
2810.23	0.6712
2818.74	0.6542
2827.24	0.6194
2835.75	0.5499
2844.25	0.4865
2852.75	0.4472
2861.26	0.4722
2869.76	0.6199
2878.27	0.664
2886.77	0.6431
2895.27	0.6113
2903.78	0.5971
2912.28	0.5872
2920.79	0.5711
2929.29	0.5382
2937.8	0.5379
2946.3	0.5733
2954.8	0.598
2963.31	0.599
2971.81	0.599
2980.32	0.5864
2988.82	0.5466
2997.32	0.5212
3005.83	0.513
3014.33	0.4963
3022.84	0.4518
3031.34	0.422
3039.85	0.4121
3048.35	0.3891
3056.85	0.389
3065.36	0.3959
3073.86	0.4177
3082.37	0.4645
3090.87	0.476
3099.37	0.5265
3107.88	0.6049
3116.38	0.6
3124.89	0.5882
3133.39	0.588
3141.9	0.5898
3150.4	0.5969
3158.9	0.5922
3167.41	0.5812
3175.91	0.5311
3184.42	0.524
3192.92	0.5318
3201.42	0.5519
3209.93	0.554
3218.43	0.5511
3226.94	0.5461
3235.44	0.5382
3243.95	0.5232
3252.45	0.5023
3260.95	0.4756
3269.46	0.4475
3277.96	0.4232
3286.47	0.3846
3294.97	0.3552
3303.47	0.3266
3311.98	0.317
3320.48	0.316
3328.99	0.3169
3337.49	0.313
3346	0.31
3354.5	0.301
3363	0.2931
3371.51	0.2748
3380.01	0.2552
3388.52	0.2333
3397.02	0.2141
3405.52	0.216
3414.03	0.2248
3422.53	0.2526
3431.04	0.2886
3439.54	0.3168
3448.05	0.3399
3456.55	0.3849
3465.05	0.4048
3473.56	0.4648
3482.06	0.5035
3490.57	0.5378
3499.07	0.569
3507.57	0.6076
3516.08	0.6427
3524.58	0.6669
3533.09	0.6998
3541.59	0.7149
3550.1	0.7356
3558.6	0.7548
3567.1	0.7778
3575.61	0.7949
3584.11	0.8099
3592.62	0.8169
3601.12	0.8348
3609.62	0.8596
3618.13	0.872
3626.63	0.8798
3635.14	0.8909
3643.64	0.9019
3652.15	0.912
3660.65	0.913
3669.15	0.9142
3677.66	0.917
3686.16	0.917
3694.67	0.919
3703.17	0.9218
3711.67	0.922
3720.18	0.922
3728.68	0.92
3737.19	0.922
3745.69	0.923
3754.2	0.924
3762.7	0.924
3771.2	0.924
3779.71	0.924
3788.21	0.925
3796.72	0.925
3805.22	0.92
3813.72	0.918
3822.23	0.917
3830.73	0.917
3839.24	0.9162
3847.74	0.914
3856.25	0.9168
3864.75	0.916
3873.25	0.917
3881.76	0.9161
3890.26	0.913
3898.77	0.9139
3907.27	0.912
