Infrared Spectrum: 5-Heptylresorcinol
Formula: C13 H20 O2
CAS: 500-67-4
State: gas
Origin: EPA-IR VAPOR PHASE LIBRARY
1/CM	ABSORBANCE
549.8	0.0023974
559.445	0.0026074
569.09	0.0029374
578.734	0.0022374
588.379	0.0022974
598.024	0.0019374
607.669	0.0022474
617.313	0.0016974
626.958	0.0015274
636.603	0.0013974
646.248	0.0022474
655.893	0.0015574
665.537	0.0025474
675.182	0.0060774
684.827	0.0103874
694.472	0.0052474
704.116	0.0022074
713.761	0.0018874
723.406	0.0018174
733.051	0.0014874
742.695	0.0014874
752.34	0.0014374
761.985	0.0013574
771.63	0.0013574
781.275	0.0017974
790.919	0.0028274
800.564	0.0041774
810.209	0.0061874
819.854	0.0101874
829.498	0.0115574
839.143	0.0098374
848.788	0.0092674
858.433	0.0058274
868.078	0.0037174
877.722	0.0031374
887.367	0.0025074
897.012	0.0026074
906.657	0.0026774
916.301	0.0030274
925.946	0.0028874
935.591	0.0029474
945.236	0.0032474
954.88	0.0039874
964.525	0.0064674
974.17	0.0112974
983.815	0.0198774
993.46	0.0197574
1003.1	0.0117774
1012.75	0.0069174
1022.39	0.0049874
1032.04	0.0036474
1041.68	0.0025874
1051.33	0.0022574
1060.97	0.0021474
1070.62	0.0023674
1080.26	0.0024974
1089.91	0.0035974
1099.55	0.0057474
1109.2	0.0100574
1118.84	0.0198074
1128.49	0.0372974
1138.13	0.0518174
1147.78	0.0589274
1157.42	0.0436774
1167.07	0.0290574
1176.71	0.0242374
1186.36	0.0174574
1196	0.0195474
1205.64	0.0318074
1215.29	0.0249774
1224.93	0.0117274
1234.58	0.0068274
1244.22	0.0054774
1253.87	0.0057974
1263.51	0.0071874
1273.16	0.0100774
1282.8	0.0148574
1292.45	0.0169074
1302.09	0.0141874
1311.74	0.0154374
1321.38	0.0174274
1331.03	0.0183874
1340.67	0.0184474
1350.32	0.0156974
1359.96	0.0096874
1369.61	0.0056474
1379.25	0.0044374
1388.9	0.0039474
1398.54	0.0034574
1408.18	0.0039774
1417.83	0.0056774
1427.47	0.0085474
1437.12	0.0124374
1446.76	0.0173574
1456.41	0.0211074
1466.05	0.0253474
1475.7	0.0214674
1485.34	0.0146574
1494.99	0.0121274
1504.63	0.0106774
1514.28	0.0093974
1523.92	0.0067874
1533.57	0.0049174
1543.21	0.0037774
1552.86	0.0039474
1562.5	0.0055274
1572.15	0.0100074
1581.79	0.0219374
1591.44	0.0439374
1601.08	0.0611774
1610.73	0.0612974
1620.37	0.0502774
1630.01	0.0314574
1639.66	0.0156574
1649.3	0.0082074
1658.95	0.0054174
1668.59	0.0041474
1678.24	0.0032574
1687.88	0.0024774
1697.53	0.0020674
1707.17	0.0016474
1716.82	0.0013974
1726.46	0.0012974
1736.11	0.0009926
1745.75	0.0007511
1755.4	0.0006688
1765.04	0.0005831
1774.69	0.0005113
1784.33	0.0004677
1793.98	0.0004681
1803.62	0.0005291
1813.27	0.00041
1822.91	0.000429
1832.55	0.0003428
1842.2	0.000294
1851.84	0.0003227
1861.49	0.0002
1871.13	0.00016579
1880.78	0.0001945
1890.42	0.0002605
1900.07	0.0002572
1909.71	0.0002646
1919.36	0.00015701
1929	0.0002377
1938.65	0.000269
1948.29	0.0002513
1957.94	0.0002502
1967.58	0.0002755
1977.23	0.0003532
1986.87	0.0004162
1996.52	0.0003597
2006.16	0.0003004
2015.81	0.000341
2025.45	0.0003762
2035.1	0.0003128
2044.74	0.0003229
2054.38	0.0003981
2064.03	0.0003379
2073.67	0.0003552
2083.32	0.0003906
2092.96	0.0003807
2102.61	0.0005323
2112.25	0.0006012
2121.9	0.0006969
2131.54	0.0007851
2141.19	0.0008246
2150.83	0.0006914
2160.48	0.0007209
2170.12	0.0006208
2179.77	0.0005705
2189.41	0.0005139
2199.06	0.0003789
2208.7	0.0004355
2218.35	0.0004309
2227.99	0.0004733
2237.64	0.0004038
2247.28	0.0003783
2256.92	0.0005313
2266.57	0.0006078
2276.21	0.0006334
2285.86	0.0007432
2295.5	0.0007431
2305.15	0.0007502
2314.79	0.000903
2324.44	0.0008871
2334.08	0.0008984
2343.73	0.0008579
2353.37	0.0007575
2363.02	0.0006986
2372.66	0.0007117
2382.31	0.0007174
2391.95	0.0007715
2401.6	0.0007404
2411.24	0.0008257
2420.89	0.0008377
2430.53	0.0009002
2440.18	0.0009013
2449.82	0.0010437
2459.47	0.0010974
2469.11	0.0010361
2478.75	0.0011074
2488.4	0.0011674
2498.04	0.0010136
2507.69	0.0007481
2517.33	0.0007147
2526.98	0.000631
2536.62	0.0005834
2546.27	0.0005538
2555.91	0.0004969
2565.56	0.0006938
2575.2	0.000465
2584.85	0.0007265
2594.49	0.0006351
2604.14	0.0007026
2613.78	0.0008061
2623.43	0.00087
2633.07	0.0008949
2642.72	0.0009629
2652.36	0.0009826
2662.01	0.0009399
2671.65	0.001044
2681.29	0.0011174
2690.94	0.0009247
2700.58	0.0010448
2710.23	0.0009116
2719.87	0.000897
2729.52	0.0010774
2739.16	0.0012274
2748.81	0.0013674
2758.45	0.0013274
2768.1	0.0014274
2777.74	0.0015974
2787.39	0.0020474
2797.03	0.0022774
2806.68	0.0025974
2816.32	0.0033274
2825.97	0.0042574
2835.61	0.0057474
2845.26	0.0094274
2854.9	0.0191174
2864.55	0.0292674
2874.19	0.0252574
2883.84	0.0204474
2893.48	0.0180774
2903.12	0.0219774
2912.77	0.0321174
2922.41	0.0522174
2932.06	0.0756474
2941.7	0.0693874
2951.35	0.0429474
2960.99	0.0332174
2970.64	0.0303074
2980.28	0.0156174
2989.93	0.0084074
2999.57	0.0058474
3009.22	0.0050574
3018.86	0.0061574
3028.51	0.0069374
3038.15	0.0056574
3047.8	0.0049374
3057.44	0.0038474
3067.09	0.0029774
3076.73	0.0021874
3086.38	0.0016674
3096.02	0.0013174
3105.67	0.0008763
3115.31	0.001061
3124.95	0.0007989
3134.6	0.0006021
3144.24	0.0005596
3153.89	0.000649
3163.53	0.000598
3173.18	0.0004445
3182.82	0.0004838
3192.47	0.0005789
3202.11	0.0003836
3211.76	0.0003413
3221.4	0.0004614
3231.05	0.0004194
3240.69	0.0004464
3250.34	0.0002736
3259.98	0.000387
3269.63	0.0002212
3279.27	0.0001858
3288.92	0.0003527
3298.56	0.0003399
3308.21	0.0004114
3317.85	0.0004127
3327.49	0.0005925
3337.14	0.000767
3346.78	0.0006016
3356.43	0.0007708
3366.07	0.0008027
3375.72	0.0006915
3385.36	0.0005128
3395.01	0.0003683
3404.65	0.0004162
3414.3	0.000358
3423.94	0.0004817
3433.59	0.0003303
3443.23	0.0004224
3452.88	0.0003644
3462.52	0.0001703
3472.17	0.0002546
3481.81	0.0002526
3491.46	0.00016418
3501.1	0.000398
3510.75	0.0004172
3520.39	3.37e-05
3530.04	0.0003152
3539.68	0.0001756
3549.32	0
3558.97	0.00016663
3568.61	0.0002808
3578.26	0.0003793
3587.9	0.0003158
3597.55	0.0004323
3607.19	0.000785
3616.84	0.0015374
3626.48	0.0036774
3636.13	0.0120974
3645.77	0.0388274
3655.42	0.0434774
3665.06	0.0097974
3674.71	0.0021974
3684.35	0.0008776
3694	0.0004763
3703.64	0.0002395
3713.29	0.0003171
3722.93	0.00011553
3732.58	3.9e-05
3742.22	0.0002826
3751.86	0.00010551
3761.51	0.0001916
3771.15	0.0003023
3780.8	9.381e-05
3790.44	0.00013411
3800.09	0.0002162
3809.73	0.0003125
3819.38	0.0004613
3829.02	0.0005896
3838.67	0.0005579
3848.31	0.0004644
3857.96	0.00034
3867.6	0.0004492
3877.25	0.0004505
3886.89	0.0005518
3896.54	0.0004494
3906.18	0.0004212
3915.83	0.0004673
3925.47	0.0006168
3935.12	0.0006153
3944.76	0.0006722
3954.41	0.0006394
3964.05	0.0004471
3973.69	0.0004364
3983.34	0.0003221
3992.98	0.0002581
