Infrared Spectrum: 4-Methyl-1-isopropylcyclohexene
Formula: C 10 H 18
CAS: 500-00-5
State: gas
Instrument: HP-GC/MS/IRD
Origin: NIST Mass Spectrometry Data Center
1/CM	ABSORBANCE
550	0.0005642
562	0.0006138
574	0.0003162
586	7.75e-05
598	9.3e-05
610	0.0001426
622	3.41e-05
634	8.99e-05
646	0.0001085
658	0.0001426
670	0.0001457
682	7.13e-05
694	0.0001147
706	7.44e-05
718	0.0001457
730	0.0001023
742	0.0001643
754	0.0001953
766	0.0002108
778	0.0001984
790	0.0004433
802	0.0010385
814	0.0012245
826	0.0005797
838	0.0002046
850	0.0002325
862	0.0002852
874	0.000403
886	0.0007812
898	0.0012245
910	0.0008494
922	0.0004805
934	0.0003999
946	0.0003472
958	0.0003255
970	0.0002852
982	0.0003751
994	0.000775
1006	0.001147
1018	0.0012276
1030	0.0008184
1042	0.0005735
1054	0.0007874
1066	0.0009021
1078	0.0011501
1090	0.0009641
1102	0.0006479
1114	0.0005363
1126	0.0005332
1138	0.0006975
1150	0.0006262
1162	0.0004154
1174	0.0004712
1186	0.0005828
1198	0.0005084
1210	0.000434
1222	0.0005301
1234	0.0005735
1246	0.0005921
1258	0.0006076
1270	0.0006975
1282	0.001364
1294	0.0014725
1306	0.0009269
1318	0.0007905
1330	0.000961
1342	0.0010478
1354	0.0014539
1366	0.0022103
1378	0.0029946
1390	0.0022816
1402	0.000992
1414	0.0007936
1426	0.0012121
1438	0.0022351
1450	0.003348
1462	0.0040641
1474	0.0030876
1486	0.0013516
1498	0.0006169
1510	0.0003813
1522	0.0002914
1534	0.0002108
1546	0.0001705
1558	0.0001767
1570	0.0001457
1582	0.0001395
1594	0.0001674
1606	0.0001953
1618	0.0002418
1630	0.0002325
1642	0.0002542
1654	0.00031
1666	0.0003224
1678	0.0002573
1690	0.0002232
1702	0.0002573
1714	0.0002294
1726	0.000124
1738	0.0001333
1750	0.0001333
1762	8.37e-05
1774	0.0001178
1786	8.37e-05
1798	8.06e-05
1810	5.58e-05
1822	5.89e-05
1834	4.96e-05
1846	7.44e-05
1858	6.2e-05
1870	7.44e-05
1882	5.58e-05
1894	8.06e-05
1906	6.51e-05
1918	7.44e-05
1930	6.2e-05
1942	3.41e-05
1954	4.96e-05
1966	2.48e-05
1978	3.72e-05
1990	2.79e-05
2002	9.3e-06
2014	3.1e-05
2026	4.03e-05
2038	3.41e-05
2050	2.79e-05
2062	3.41e-05
2074	3.1e-05
2086	4.03e-05
2098	4.34e-05
2110	2.48e-05
2122	1.24e-05
2134	2.79e-05
2146	6.2e-06
2158	4.03e-05
2170	4.03e-05
2182	2.17e-05
2194	3.72e-05
2206	5.27e-05
2218	4.65e-05
2230	7.13e-05
2242	6.82e-05
2254	7.75e-05
2266	3.72e-05
2278	3.72e-05
2290	2.17e-05
2302	4.96e-05
2314	4.65e-05
2326	7.75e-05
2338	8.68e-05
2350	7.44e-05
2362	0.0001054
2374	9.92e-05
2386	7.44e-05
2398	7.44e-05
2410	7.13e-05
2422	7.75e-05
2434	0.0001147
2446	8.99e-05
2458	0.000124
2470	0.0001333
2482	0.0001209
2494	0.0001302
2506	0.0001302
2518	0.0001147
2530	0.0001333
2542	0.0001364
2554	0.0001612
2566	0.0002046
2578	0.000279
2590	0.0002976
2602	0.0002635
2614	0.0003038
2626	0.0003162
2638	0.0003782
2650	0.0003658
2662	0.0004123
2674	0.0003875
2686	0.0003782
2698	0.0004216
2710	0.0004929
2722	0.0006448
2734	0.0006975
2746	0.0006634
2758	0.0006417
2770	0.000713
2782	0.0008866
2794	0.0010788
2806	0.0014694
2818	0.0023281
2830	0.0052948
2842	0.008835
2854	0.0093248
2866	0.0108252
2878	0.016337
2890	0.0182466
2902	0.0204042
2914	0.0261206
2926	0.0277419
2938	0.0224843
2950	0.0205995
2962	0.0305939
2974	0.0235228
2986	0.0087079
2998	0.0040982
3010	0.0027931
3022	0.0023405
3034	0.0019902
3046	0.0017887
3058	0.0014601
3070	0.0010354
3082	0.0008122
3094	0.0007099
3106	0.0006324
3118	0.0005456
3130	0.0005394
3142	0.000558
3154	0.0004433
3166	0.0004805
3178	0.0004402
3190	0.0003906
3202	0.0003162
3214	0.000248
3226	0.0002511
3238	0.0002356
3250	0.0001984
3262	0.0001922
3274	0.0001953
3286	0.0001705
3298	0.000155
3310	0.000186
3322	0.0001209
3334	0.0001457
3346	0.000186
3358	9.3e-05
3370	0.0001054
3382	0.0001147
3394	8.68e-05
3406	8.68e-05
3418	7.44e-05
3430	1.86e-05
3442	9.92e-05
3454	7.44e-05
3466	0.0001147
3478	0.0001054
3490	7.13e-05
3502	6.2e-05
3514	0.0001364
3526	5.89e-05
3538	5.58e-05
3550	4.34e-05
3562	5.58e-05
3574	0.0001116
3586	8.68e-05
3598	9.92e-05
3610	9.3e-05
3622	0.0001302
3634	7.75e-05
3646	0.0001178
3658	0.0001457
3670	0.0001302
3682	0.0001736
3694	0.0001488
3706	0.0001147
3718	0.0001519
3730	0.0001054
3742	0.0001426
3754	0.000186
3766	0.0001984
3778	0.0001736
3790	0.0001457
3802	0.0001798
3814	0.0001829
3826	0.0002139
3838	0.0001829
