Infrared Spectrum: PYROCATECHOL, 4,4'-(2,3-DIMETHYLTETRAMETHYLENE)DI-
Formula: C18 H22 O4
CAS: 500-38-9
State: SOLID (KBr PELLET)
Class: COBLENTZ
Instrument: Not specified, most likely a prism, grating, or hybrid spectrometer.
Sampling: TRANSMISSION
Resolution: 4
Origin: TENNESSEE EASTMAN COMPANY, RESEARCH LABORATORIES
MICROMETERS	TRANSMITTANCE
2.034	0.765
2.07498	0.767
2.11596	0.767
2.15694	0.77
2.19792	0.782
2.2389	0.796
2.27988	0.797
2.32086	0.799
2.36183	0.803
2.40281	0.808
2.44379	0.811
2.48477	0.813
2.52575	0.816
2.56673	0.82
2.60771	0.82
2.64869	0.823
2.68967	0.825
2.73065	0.784
2.77163	0.681
2.81261	0.559
2.85359	0.273
2.89457	0.046
2.93555	0.111
2.97653	0.125
3.0175	0.097
3.05848	0.094
3.09946	0.107
3.14044	0.109
3.18142	0.231
3.2224	0.395
3.26338	0.482
3.30436	0.563
3.34534	0.53
3.38632	0.376
3.4273	0.488
3.46828	0.397
3.50926	0.676
3.55024	0.726
3.59122	0.732
3.63219	0.712
3.67317	0.722
3.71415	0.758
3.75513	0.784
3.79611	0.797
3.83709	0.799
3.87807	0.801
3.91905	0.82
3.96003	0.84
4.00101	0.854
4.04199	0.856
4.08297	0.861
4.12395	0.864
4.16493	0.871
4.20591	0.886
4.24689	0.895
4.28786	0.885
4.32884	0.881
4.36982	0.9
4.4108	0.921
4.45178	0.924
4.49276	0.929
4.53374	0.933
4.57472	0.938
4.6157	0.94
4.65668	0.941
4.69766	0.941
4.73864	0.941
4.77962	0.938
4.8206	0.936
4.86158	0.928
4.90255	0.928
4.94353	0.931
4.98451	0.941
5.02549	0.952
5.06647	0.952
5.10745	0.952
5.14843	0.952
5.18941	0.952
5.23039	0.95
5.27137	0.948
5.31235	0.928
5.35333	0.864
5.39431	0.931
5.43529	0.938
5.47627	0.94
5.51725	0.94
5.55822	0.94
5.5992	0.94
5.64018	0.931
5.68116	0.904
5.72214	0.89
5.76312	0.885
5.8041	0.876
5.84508	0.859
5.88606	0.851
5.92704	0.859
5.96802	0.851
6.009	0.839
6.04998	0.823
6.09096	0.78
6.13194	0.691
6.17291	0.426
6.21389	0.231
6.25487	0.599
6.29585	0.75
6.33683	0.799
6.37781	0.806
6.41879	0.702
6.45977	0.648
6.50075	0.176
6.54173	0.116
6.58271	0.166
6.62369	0.57
6.66467	0.638
6.70565	0.652
6.74663	0.575
6.78761	0.357
6.82858	0.34
6.86956	0.188
6.91054	0.089
6.95152	0.339
6.9925	0.547
7.03348	0.577
7.07446	0.455
7.11544	0.239
7.15642	0.116
7.1974	0.126
7.23838	0.174
7.27936	0.344
7.32034	0.407
7.36132	0.392
7.4023	0.38
7.44327	0.428
7.48425	0.482
7.52523	0.436
7.56621	0.493
7.60719	0.57
7.64817	0.532
7.68915	0.263
7.73013	0.101
7.77111	0.179
7.81209	0.214
7.85307	0.15
7.89405	0.253
7.93503	0.285
7.97601	0.19
8.01699	0.095
8.05797	0.042
8.09894	0.046
8.13992	0.111
8.1809	0.248
8.22188	0.25
8.26286	0.224
8.30384	0.226
8.34482	0.126
8.3858	0.147
8.42678	0.226
8.46776	0.248
8.50874	0.327
8.54972	0.41
8.5907	0.479
8.63168	0.414
8.67266	0.4
8.71363	0.407
8.75461	0.599
8.79559	0.659
8.83657	0.65
8.87755	0.493
8.91853	0.243
8.95951	0.25
9.00049	0.373
9.04147	0.332
9.08245	0.313
9.12343	0.57
9.16441	0.561
9.20539	0.655
9.24637	0.736
9.28735	0.753
9.32833	0.756
9.3693	0.741
9.41028	0.76
9.45126	0.803
9.49224	0.818
9.53322	0.827
9.5742	0.83
9.61518	0.832
9.65616	0.832
9.69714	0.832
9.73812	0.828
9.7791	0.823
9.82008	0.792
9.86106	0.803
9.90204	0.815
9.94302	0.816
9.98399	0.784
10.025	0.803
10.066	0.833
10.1069	0.842
10.1479	0.849
10.1889	0.851
10.2299	0.847
10.2709	0.827
10.3118	0.756
10.3528	0.51
10.3938	0.325
10.4348	0.477
10.4757	0.681
10.5167	0.763
10.5577	0.811
10.5987	0.832
10.6397	0.797
10.6806	0.76
10.7216	0.821
10.7626	0.837
10.8036	0.845
10.8446	0.866
10.8855	0.88
10.9265	0.88
10.9675	0.88
11.0085	0.878
11.0495	0.876
11.0904	0.861
11.1314	0.842
11.1724	0.844
11.2134	0.849
11.2544	0.809
11.2953	0.684
11.3363	0.563
11.3773	0.671
11.4183	0.714
11.4593	0.726
11.5002	0.532
11.5412	0.65
11.5822	0.789
11.6232	0.821
11.6641	0.82
11.7051	0.717
11.7461	0.64
11.7871	0.768
11.8281	0.847
11.869	0.863
11.91	0.861
11.951	0.815
11.992	0.698
12.033	0.66
12.0739	0.657
12.1149	0.664
12.1559	0.679
12.1969	0.618
12.2379	0.635
12.2788	0.714
12.3198	0.758
12.3608	0.772
12.4018	0.779
12.4428	0.767
12.4837	0.686
12.5247	0.525
12.5657	0.297
12.6067	0.241
12.6477	0.246
12.6886	0.328
12.7296	0.535
12.7706	0.678
12.8116	0.744
12.8525	0.765
12.8935	0.77
12.9345	0.767
12.9755	0.724
13.0165	0.602
13.0574	0.39
13.0984	0.251
13.1394	0.39
13.1804	0.571
13.2214	0.654
13.2623	0.678
13.3033	0.684
13.3443	0.703
13.3853	0.734
13.4263	0.748
13.4672	0.748
13.5082	0.748
13.5492	0.741
13.5902	0.732
13.6312	0.719
13.6721	0.705
13.7131	0.696
13.7541	0.69
13.7951	0.688
13.8361	0.703
13.877	0.729
13.918	0.765
13.959	0.791
14	0.801
14.041	0.799
14.0819	0.787
14.1229	0.761
14.1639	0.741
14.2049	0.724
14.2458	0.702
14.2868	0.688
14.3278	0.672
14.3688	0.659
14.4098	0.642
14.4507	0.633
14.4917	0.618
14.5327	0.604
14.5737	0.597
14.6147	0.58
14.6556	0.575
14.6966	0.561
14.7376	0.547
14.7786	0.535
14.8196	0.522
14.8605	0.511
14.9015	0.503
14.9425	0.491
14.9835	0.472
15.0245	0.467
15.0654	0.467
15.1064	0.465
15.1474	0.465
15.1884	0.464
15.2294	0.462
15.2703	0.458
15.3113	0.457
15.3523	0.457
15.3933	0.453
15.4342	0.45
15.4752	0.44
15.5162	0.429
15.5572	0.424
15.5982	0.424
15.6391	0.421
15.6801	0.422
15.7211	0.419
15.7621	0.419
15.8031	0.419
15.844	0.419
15.885	0.419
15.926	0.421
15.967	0.421
