Infrared Spectrum: Phenylsulphonylacetone
Formula: C 9 H 10 O 3 S
CAS: 5000-44-2
State: gas
Origin: EPA-IR VAPOR PHASE LIBRARY
1/CM	ABSORBANCE
549.8	0.014791
559.445	0.005841
569.09	0.003851
578.735	0.003991
588.38	0.006731
598.025	0.014861
607.67	0.018921
617.315	0.014461
626.96	0.005341
636.605	0.002201
646.251	0.001691
655.896	0.002511
665.541	0.004061
675.186	0.007681
684.831	0.015061
694.476	0.012601
704.121	0.008431
713.766	0.013041
723.411	0.018651
733.056	0.024801
742.701	0.024481
752.346	0.014071
761.991	0.014021
771.636	0.010391
781.281	0.009331
790.926	0.013451
800.571	0.013631
810.216	0.007141
819.861	0.004211
829.507	0.003621
839.152	0.003241
848.797	0.003721
858.442	0.004051
868.087	0.003231
877.732	0.001781
887.377	0.0009397
897.022	0.0008699
906.667	0.0008659
916.312	0.0010136
925.957	0.0010281
935.602	0.0011317
945.247	0.0013477
954.892	0.001931
964.537	0.003151
974.182	0.005121
983.827	0.008281
993.472	0.008621
1003.12	0.006151
1012.76	0.004641
1022.41	0.004931
1032.05	0.003631
1041.7	0.002721
1051.34	0.002741
1060.99	0.004091
1070.63	0.006541
1080.28	0.015501
1089.92	0.019331
1099.57	0.009151
1109.21	0.006691
1118.86	0.007771
1128.5	0.009431
1138.15	0.013231
1147.79	0.024581
1157.44	0.050961
1167.08	0.063361
1176.73	0.038121
1186.37	0.020671
1196.02	0.021121
1205.66	0.030291
1215.31	0.031601
1224.95	0.026201
1234.6	0.022281
1244.24	0.014981
1253.89	0.008481
1263.53	0.006621
1273.18	0.006441
1282.82	0.006861
1292.47	0.006611
1302.11	0.006721
1311.76	0.008591
1321.4	0.014581
1331.05	0.028961
1340.69	0.055481
1350.34	0.077891
1359.98	0.049561
1369.63	0.022681
1379.27	0.012361
1388.92	0.009471
1398.56	0.007911
1408.21	0.005821
1417.85	0.005151
1427.5	0.005481
1437.14	0.007651
1446.79	0.010851
1456.43	0.006871
1466.08	0.003331
1475.73	0.003361
1485.37	0.003201
1495.02	0.001911
1504.66	0.001541
1514.31	0.001491
1523.95	0.001511
1533.6	0.001481
1543.24	0.0013204
1552.89	0.0012939
1562.53	0.0013127
1572.18	0.0014486
1581.82	0.001921
1591.47	0.001841
1601.11	0.001701
1610.76	0.001931
1620.4	0.002351
1630.05	0.002101
1639.69	0.001621
1649.34	0.001681
1658.98	0.002061
1668.63	0.002431
1678.27	0.003201
1687.92	0.004371
1697.56	0.006171
1707.21	0.010361
1716.85	0.019551
1726.5	0.031961
1736.14	0.034121
1745.79	0.022951
1755.43	0.013241
1765.08	0.008111
1774.72	0.004891
1784.37	0.003101
1794.01	0.002291
1803.66	0.002291
1813.3	0.001791
1822.95	0.0013066
1832.59	0.0010672
1842.24	0.0009266
1851.88	0.0008232
1861.53	0.0007885
1871.17	0.0006681
1880.82	0.0008814
1890.46	0.0011426
1900.11	0.0012233
1909.75	0.0012109
1919.4	0.0009407
1929.04	0.0006585
1938.69	0.0007265
1948.33	0.0009919
1957.98	0.0012197
1967.62	0.001221
1977.27	0.0010746
1986.91	0.0006693
1996.56	0.00051144
2006.2	0.000470389
2015.85	0.00048454
2025.49	0.000421
2035.14	0.000389
2044.78	0.0003816
2054.43	0.0004069
2064.07	0.0004404
2073.72	0.0004507
2083.36	0.00050789
2093.01	0.0004545
2102.65	0.00048758
2112.3	0.00050408
2121.94	0.0003798
2131.59	0.000445
2141.23	0.00043
2150.88	0.00051006
2160.52	0.00051334
2170.17	0.00055256
2179.81	0.00055821
2189.46	0.00046874
2199.1	0.00049103
2208.75	0.0004342
2218.39	0.0004405
2228.04	0.00051518
2237.68	0.0006159
2247.33	0.0006705
2256.97	0.00056379
2266.62	0.0006301
2276.26	0.00049065
2285.91	0.0004352
2295.55	0.00041
2305.2	0.0004594
2314.84	0.00053901
2324.49	0.0006921
2334.13	0.0005956
2343.78	0.00054281
2353.42	0.00055759
2363.07	0.000361
2372.72	0.0004115
2382.36	0.00054913
2392.01	0.0004983
2401.65	0.0003724
2411.3	0.0004273
2420.94	0.0004356
2430.59	0.00050705
2440.23	0.000475732
2449.88	0.00051365
2459.52	0.0005352
2469.17	0.0004571
2478.81	0.00049545
2488.46	0.0004437
2498.1	0.00049745
2507.75	0.00052465
2517.39	0.0004473
2527.04	0.0004226
2536.68	0.0004266
2546.33	0.0004397
2555.97	0.000480425
2565.62	0.00048571
2575.26	0.00051896
2584.91	0.00052735
2594.55	0.0004659
2604.2	0.00054242
2613.84	0.00048595
2623.49	0.0003711
2633.13	0.0004204
2642.78	0.000286
2652.42	0.0003935
2662.07	0.0004344
2671.71	0.00053921
2681.36	0.0003884
2691	0.000279
2700.65	0.000305
2710.29	0.000324
2719.94	0.000259
2729.58	0.000343
2739.23	0.0003976
2748.87	0.0004295
2758.52	0.000284
2768.16	0.00025
2777.81	0.000184
2787.45	0.000357
2797.1	0.000337
2806.74	0.000186
2816.39	0.000345
2826.03	0.0003804
2835.68	0.0003729
2845.32	0.0004538
2854.97	0.0004421
2864.61	0.00048127
2874.26	0.00050028
2883.9	0.0005722
2893.55	0.0006597
2903.19	0.0006686
2912.84	0.000799
2922.48	0.0011494
2932.13	0.0013916
2941.77	0.0012866
2951.42	0.0009444
2961.06	0.0009592
2970.71	0.0010824
2980.35	0.0011657
2990	0.0011318
2999.64	0.0014197
3009.29	0.001931
3018.93	0.002431
3028.58	0.002101
3038.22	0.001671
3047.87	0.001871
3057.51	0.003201
3067.16	0.006981
3076.8	0.009821
3086.45	0.005811
3096.09	0.003201
3105.74	0.001501
3115.38	0.0008042
3125.03	0.0006758
3134.67	0.00062
3144.32	0.0006036
3153.96	0.000715
3163.61	0.0007169
3173.25	0.0006482
3182.9	0.00049378
3192.54	0.0003899
3202.19	0.0004107
3211.83	0.000252
3221.48	0.000312
3231.12	0.000341
3240.77	0.000334
3250.41	0.000255
3260.06	0.000225
3269.7	0.000259
3279.35	0.000216
3289	0.0004534
3298.64	0.000246
3308.29	0.000324
3317.93	0.000214
3327.58	0.000107
3337.22	0.000255
3346.87	0.000206
3356.51	0.000189
3366.16	0.000149
3375.8	0.000123
3385.45	0.000245
3395.09	0.000179
3404.74	0.000356
3414.38	0.000287
3424.03	0.0006787
3433.67	0.0007846
3443.32	0.00088
3452.96	0.0007608
3462.61	0.00051826
3472.25	0.0004276
3481.9	0.00053555
3491.54	0.000235
3501.19	0.000153
3510.83	0.000239
3520.48	0.000331
3530.12	0.00018
3539.77	0.000122
3549.41	3.5e-05
3559.06	0.000117
3568.7	0.000242
3578.35	0.000143
3587.99	2.3e-05
3597.64	0.000244
3607.28	0.000261
3616.93	0.000111
3626.57	0.000233
3636.22	0.000205
3645.86	0.00016
3655.51	0.000207
3665.15	0.000221
3674.8	0.000318
3684.44	0.000159
3694.09	0.00021
3703.73	0.0004506
3713.38	0.000368
3723.02	0.00046157
3732.67	0.000249
3742.31	0.000122
3751.96	0.000219
3761.6	0.000388
3771.25	0.000281
3780.89	0.000233
3790.54	0.000105
3800.18	0.00025
3809.83	0.000182
3819.47	0.000209
3829.12	0.00026
3838.76	5e-05
3848.41	0.000281
3858.05	0.000131
3867.7	6.9e-05
3877.34	0.000299
3886.99	0.00048859
3896.63	0.000329
3906.28	0.000248
3915.92	0.0003936
3925.57	0.00052457
3935.21	0.000211
3944.86	0.000354
3954.5	0.000201
3964.15	0.000351
3973.79	0.000305
3983.44	0.000301
3993.08	0.0004398
