Infrared Spectrum: 4-Chlorophenylsulphonylacetone
Formula: C 9 H 9 Cl O 3 S
CAS: 5000-48-6
State: gas
Origin: EPA-IR VAPOR PHASE LIBRARY
1/CM	ABSORBANCE
549.8	0.015011
559.445	0.016461
569.09	0.015781
578.734	0.007301
588.379	0.008061
598.024	0.014481
607.669	0.012601
617.313	0.006951
626.958	0.008731
636.603	0.016891
646.248	0.005971
655.893	0.002091
665.537	0.001531
675.182	0.001671
684.827	0.001631
694.472	0.001981
704.116	0.003621
713.761	0.006071
723.406	0.010801
733.051	0.011281
742.695	0.011631
752.34	0.029301
761.985	0.041411
771.63	0.021621
781.275	0.015301
790.919	0.022511
800.564	0.021781
810.209	0.014651
819.854	0.015411
829.498	0.019251
839.143	0.010111
848.788	0.006971
858.433	0.006751
868.078	0.005621
877.722	0.003151
887.367	0.002111
897.012	0.001471
906.657	0.0008374
916.301	0.0011423
925.946	0.0011534
935.591	0.001751
945.236	0.002151
954.88	0.002701
964.525	0.004421
974.17	0.006701
983.815	0.011691
993.46	0.011191
1003.1	0.008831
1012.75	0.019871
1022.39	0.010351
1032.04	0.004471
1041.68	0.003691
1051.33	0.004031
1060.97	0.005271
1070.62	0.009911
1080.26	0.037411
1089.91	0.067051
1099.55	0.038261
1109.2	0.013861
1118.84	0.011071
1128.49	0.011071
1138.13	0.015211
1147.78	0.023701
1157.42	0.049641
1167.07	0.075691
1176.71	0.039811
1186.36	0.020231
1196	0.023381
1205.64	0.032891
1215.29	0.032171
1224.93	0.026451
1234.58	0.023081
1244.22	0.017981
1253.87	0.011571
1263.51	0.010811
1273.16	0.010281
1282.8	0.008421
1292.45	0.007371
1302.09	0.006491
1311.74	0.006411
1321.38	0.009251
1331.03	0.018881
1340.67	0.048571
1350.32	0.098561
1359.96	0.072511
1369.61	0.029061
1379.25	0.015761
1388.9	0.017141
1398.54	0.017011
1408.18	0.009371
1417.83	0.006631
1427.47	0.006101
1437.12	0.005641
1446.76	0.004641
1456.41	0.004161
1466.05	0.007791
1475.7	0.021731
1485.34	0.012231
1494.99	0.003721
1504.63	0.002671
1514.28	0.002281
1523.92	0.002591
1533.57	0.003081
1543.21	0.004091
1552.86	0.005221
1562.5	0.007121
1572.15	0.012291
1581.79	0.023031
1591.44	0.016431
1601.08	0.004281
1610.73	0.003171
1620.37	0.003481
1630.01	0.003071
1639.66	0.003511
1649.3	0.003901
1658.95	0.003501
1668.59	0.002621
1678.24	0.003191
1687.88	0.004891
1697.53	0.006991
1707.17	0.010861
1716.82	0.020421
1726.46	0.033981
1736.11	0.036981
1745.75	0.025581
1755.4	0.015671
1765.04	0.009271
1774.69	0.006071
1784.33	0.004111
1793.98	0.002601
1803.62	0.001721
1813.27	0.001571
1822.91	0.001461
1832.55	0.001441
1842.2	0.001351
1851.84	0.001321
1861.49	0.000941
1871.13	0.0007615
1880.78	0.0008992
1890.42	0.0011213
1900.07	0.001431
1909.71	0.002251
1919.36	0.001671
1929	0.0009754
1938.65	0.0008658
1948.29	0.0008359
1957.94	0.0007392
1967.58	0.0007264
1977.23	0.0005956
1986.87	0.0006269
1996.52	0.0006685
2006.16	0.000575
2015.81	0.0006466
2025.45	0.0005085
2035.1	0.0004356
2044.74	0.0004728
2054.38	0.0005511
2064.03	0.00048
2073.67	0.00037669
2083.32	0.0004826
2092.96	0.0005721
2102.61	0.0006402
2112.25	0.0007094
2121.9	0.0005488
2131.54	0.0005066
2141.19	0.00036016
2150.83	0.000704
2160.48	0.0007284
2170.12	0.0008357
2179.77	0.000832
2189.41	0.0006368
2199.06	0.0004783
2208.7	0.0005074
2218.35	0.000578
2227.99	0.0006532
2237.64	0.0005744
2247.28	0.000829
2256.92	0.0008906
2266.57	0.0007596
2276.21	0.0006987
2285.86	0.0007928
2295.5	0.0006792
2305.15	0.0007287
2314.79	0.0005855
2324.44	0.000608
2334.08	0.0007118
2343.73	0.0006262
2353.37	0.0006198
2363.02	0.0005817
2372.66	0.0005171
2382.31	0.0005515
2391.95	0.0005907
2401.6	0.0006693
2411.24	0.0006726
2420.89	0.0004872
2430.53	0.00062
2440.18	0.000524
2449.82	0.00036171
2459.47	0.0004822
2469.11	0.0006789
2478.75	0.0005674
2488.4	0.0006342
2498.04	0.0007938
2507.69	0.0007799
2517.33	0.0006937
2526.98	0.0008924
2536.62	0.0010222
2546.27	0.0010305
2555.91	0.0010041
2565.56	0.000822
2575.2	0.0005883
2584.85	0.000742
2594.49	0.0009286
2604.14	0.0006982
2613.78	0.0004924
2623.43	0.0006223
2633.07	0.0004826
2642.72	0.0006002
2652.36	0.0005964
2662.01	0.000428
2671.65	0.0006943
2681.29	0.0005707
2690.94	0.00036901
2700.58	0.000289216
2710.23	0.0004437
2719.87	0.000175
2729.52	0.0006048
2739.16	0.0007184
2748.81	0.0005151
2758.45	0.00033217
2768.1	0.000565
2777.74	0.0004467
2787.39	0.0006136
2797.03	0.00035068
2806.68	0.000135
2816.32	0.0005451
2825.97	0.00036556
2835.61	0.000419
2845.26	0.0005956
2854.9	0.0004467
2864.55	0.0007184
2874.19	0.0004674
2883.84	0.0005535
2893.48	0.0007148
2903.12	0.0005887
2912.77	0.0007214
2922.41	0.0011593
2932.06	0.001631
2941.7	0.001601
2951.35	0.001431
2960.99	0.001281
2970.64	0.0012206
2980.28	0.0012103
2989.93	0.00113
2999.57	0.001601
3009.22	0.001571
3018.86	0.002001
3028.51	0.001501
3038.15	0.0012466
3047.8	0.0012568
3057.44	0.0011615
3067.09	0.001541
3076.73	0.002311
3086.38	0.001611
3096.02	0.0011375
3105.67	0.0010585
3115.31	0.0010115
3124.95	0.0007593
3134.6	0.0007789
3144.24	0.0010155
3153.89	0.0008924
3163.53	0.00033062
3173.18	0.0004156
3182.82	0.0006197
3192.47	0.0008542
3202.11	0.0003914
3211.76	0.0004391
3221.4	0.0004302
3231.05	0.0006522
3240.69	0.0007855
3250.34	0.000459
3259.98	0.00029376
3269.63	0.0002001
3279.27	0.0004019
3288.92	0.0004657
3298.56	0.0006075
3308.21	0.0004559
3317.85	1.7e-05
3327.49	0.0005904
3337.14	0.000287027
3346.78	0.0004119
3356.43	0.0002453
3366.07	0.0004828
3375.72	0.0005385
3385.36	0.0004085
3395.01	0.0006068
3404.65	0.0006835
3414.3	0.0005824
3423.94	0.0010019
3433.59	0.0010139
3443.23	0.0007102
3452.88	0.0010417
3462.52	0.0012698
3472.17	0.00056
3481.81	0.0006329
3491.46	0.0005581
3501.1	0.0004672
3510.75	0
3520.39	0.00027989
3530.04	0.0005114
3539.68	0.0004553
3549.32	0.000177
3558.97	0.0004752
3568.61	0.00016
3578.26	0.0002388
3587.9	0.0002242
3597.55	0.0006385
3607.19	9.9e-05
3616.84	0.0002078
3626.48	0.0004189
3636.13	0.0003833
3645.77	0.000144
3655.42	0.0005812
3665.06	0.00029239
3674.71	0.00033053
3684.35	0.0004551
3694	0.0002783
3703.64	0.0004831
3713.29	0.0006864
3722.93	0.0002777
3732.58	0.00029125
3742.22	0.0002282
3751.86	0.000699
3761.51	0.0006534
3771.15	0.0005166
3780.8	0.00037472
3790.44	0.000531
3800.09	0.000101
3809.73	0.0008262
3819.38	0.0006979
3829.02	0.0005815
3838.67	0.0005077
3848.31	0.0002578
3857.96	0.0007786
3867.6	0.0006375
3877.25	0.000290393
3886.89	0.0004108
3896.54	0.0002697
3906.18	0.00035728
3915.83	0.000551
3925.47	0.0006337
3935.12	0.0005103
3944.76	0.000114
3954.41	0.0002628
3964.05	0.0007405
3973.69	0.000126
3983.34	0.0009504
3992.98	0.0004296
