Infrared Spectrum: .alpha.-Isopropylideneaminooxypropionic acid
Formula: C 6 H 11 N O 3
CAS: 5001-36-5
State: gas
Origin: EPA-IR VAPOR PHASE LIBRARY
1/CM	ABSORBANCE
549.8	0.016505
559.445	0.019815
569.09	0.023435
578.734	0.023355
588.379	0.022055
598.024	0.022275
607.669	0.019075
617.313	0.015735
626.958	0.013735
636.603	0.011415
646.248	0.008885
655.893	0.006075
665.537	0.004285
675.182	0.004035
684.827	0.003005
694.472	0.003465
704.116	0.003735
713.761	0.004125
723.406	0.005025
733.051	0.006815
742.695	0.007355
752.34	0.006385
761.985	0.005475
771.63	0.005595
781.275	0.005845
790.919	0.006375
800.564	0.006715
810.209	0.006725
819.854	0.005105
829.498	0.004905
839.143	0.004225
848.788	0.004365
858.433	0.004875
868.078	0.007565
877.722	0.013485
887.367	0.025745
897.012	0.032575
906.657	0.024305
916.301	0.015725
925.946	0.019065
935.591	0.029065
945.236	0.036095
954.88	0.030065
964.525	0.019285
974.17	0.014125
983.815	0.009735
993.46	0.008085
1003.1	0.008295
1012.75	0.012595
1022.39	0.020855
1032.04	0.027235
1041.68	0.028875
1051.33	0.030505
1060.97	0.036145
1070.62	0.042385
1080.26	0.053965
1089.91	0.077585
1099.55	0.097555
1109.2	0.084735
1118.84	0.052955
1128.49	0.034985
1138.13	0.027035
1147.78	0.025625
1157.42	0.026795
1167.07	0.026855
1176.71	0.022855
1186.36	0.018075
1196	0.013445
1205.64	0.011035
1215.29	0.008675
1224.93	0.008555
1234.58	0.009085
1244.22	0.009135
1253.87	0.012265
1263.51	0.017715
1273.16	0.018805
1282.8	0.016595
1292.45	0.016335
1302.09	0.018825
1311.74	0.021965
1321.38	0.023795
1331.03	0.024825
1340.67	0.025525
1350.32	0.027235
1359.96	0.030865
1369.61	0.037205
1379.25	0.038805
1388.9	0.028625
1398.54	0.017425
1408.18	0.012525
1417.83	0.010775
1427.47	0.010735
1437.12	0.012665
1446.76	0.014205
1456.41	0.012655
1466.05	0.009025
1475.7	0.006215
1485.34	0.004685
1494.99	0.004345
1504.63	0.003775
1514.28	0.003515
1523.92	0.003195
1533.57	0.003025
1543.21	0.002915
1552.86	0.002715
1562.5	0.002455
1572.15	0.002525
1581.79	0.002635
1591.44	0.002445
1601.08	0.002285
1610.73	0.002595
1620.37	0.002705
1630.01	0.002835
1639.66	0.003725
1649.3	0.004715
1658.95	0.004125
1668.59	0.003085
1678.24	0.002375
1687.88	0.002175
1697.53	0.002445
1707.17	0.002955
1716.82	0.004325
1726.46	0.006985
1736.11	0.011545
1745.75	0.017155
1755.4	0.026685
1765.04	0.047675
1774.69	0.077285
1784.33	0.094895
1793.98	0.099105
1803.62	0.078385
1813.27	0.041435
1822.91	0.020615
1832.55	0.012875
1842.2	0.008715
1851.84	0.005815
1861.49	0.003795
1871.13	0.002725
1880.78	0.002115
1890.42	0.001895
1900.07	0.001515
1909.71	0.001565
1919.36	0.001465
1929	0.001385
1938.65	0.0012437
1948.29	0.0011718
1957.94	0.0012545
1967.58	0.0012172
1977.23	0.0011225
1986.87	0.0012584
1996.52	0.0011698
2006.16	0.0010275
2015.81	0.001161
2025.45	0.0010403
2035.1	0.0010083
2044.74	0.0010052
2054.38	0.0009483
2064.03	0.0006951
2073.67	0.0007572
2083.32	0.0007748
2092.96	0.0009587
2102.61	0.0008607
2112.25	0.0007116
2121.9	0.0007501
2131.54	0.0007972
2141.19	0.0007864
2150.83	0.0007701
2160.48	0.0007856
2170.12	0.0009443
2179.77	0.0010008
2189.41	0.0011315
2199.06	0.001315
2208.7	0.0011152
2218.35	0.001179
2227.99	0.0010972
2237.64	0.0009256
2247.28	0.001076
2256.92	0.0011886
2266.57	0.0009982
2276.21	0.0010824
2285.86	0.0008586
2295.5	0.001045
2305.15	0.0011017
2314.79	0.001084
2324.44	0.0013007
2334.08	0.001475
2343.73	0.0011742
2353.37	0.001535
2363.02	0.001375
2372.66	0.001315
2382.31	0.0011666
2391.95	0.0009623
2401.6	0.0007786
2411.24	0.0007925
2420.89	0.0009232
2430.53	0.000937
2440.18	0.0009761
2449.82	0.0009454
2459.47	0.0009288
2469.11	0.0009684
2478.75	0.0009766
2488.4	0.0010685
2498.04	0.0008434
2507.69	0.0008402
2517.33	0.0010228
2526.98	0.0008067
2536.62	0.00081
2546.27	0.0005007
2555.91	0.0006126
2565.56	0.0007287
2575.2	0.000738
2584.85	0.0006989
2594.49	0.0009123
2604.14	0.0009291
2613.78	0.0007824
2623.43	0.000865
2633.07	0.0010807
2642.72	0.0008034
2652.36	0.0008131
2662.01	0.0010846
2671.65	0.0009484
2681.29	0.0008168
2690.94	0.001149
2700.58	0.0009915
2710.23	0.0008614
2719.87	0.0011122
2729.52	0.0011379
2739.16	0.0012387
2748.81	0.0012997
2758.45	0.0010828
2768.1	0.001335
2777.74	0.0010786
2787.39	0.0012296
2797.03	0.001425
2806.68	0.001855
2816.32	0.001815
2825.97	0.002315
2835.61	0.002485
2845.26	0.003245
2854.9	0.004565
2864.55	0.005785
2874.19	0.006425
2883.84	0.006905
2893.48	0.007435
2903.12	0.008515
2912.77	0.011445
2922.41	0.019845
2932.06	0.026795
2941.7	0.024235
2951.35	0.019735
2960.99	0.015325
2970.64	0.010925
2980.28	0.011345
2989.93	0.017555
2999.57	0.021845
3009.22	0.015615
3018.86	0.007965
3028.51	0.005285
3038.15	0.004675
3047.8	0.003995
3057.44	0.003795
3067.09	0.003565
3076.73	0.003155
3086.38	0.003305
3096.02	0.002805
3105.67	0.003015
3115.31	0.002895
3124.95	0.003015
3134.6	0.002555
3144.24	0.002415
3153.89	0.002475
3163.53	0.002565
3173.18	0.002725
3182.82	0.002525
3192.47	0.002525
3202.11	0.002725
3211.76	0.002935
3221.4	0.002645
3231.05	0.003045
3240.69	0.002895
3250.34	0.003135
3259.98	0.003225
3269.63	0.002935
3279.27	0.003465
3288.92	0.003295
3298.56	0.003175
3308.21	0.003685
3317.85	0.003095
3327.49	0.003095
3337.14	0.003085
3346.78	0.003275
3356.43	0.003195
3366.07	0.003325
3375.72	0.002885
3385.36	0.003315
3395.01	0.002775
3404.65	0.002595
3414.3	0.002845
3423.94	0.002935
3433.59	0.002555
3443.23	0.002305
3452.88	0.002595
3462.52	0.002895
3472.17	0.003065
3481.81	0.003275
3491.46	0.004055
3501.1	0.005045
3510.75	0.007465
3520.39	0.009715
3530.04	0.010935
3539.68	0.009475
3549.32	0.008945
3558.97	0.013665
3568.61	0.029405
3578.26	0.029685
3587.9	0.012645
3597.55	0.003945
3607.19	0.002265
3616.84	0.001865
3626.48	0.001425
3636.13	0.0008132
3645.77	0.0006669
3655.42	0.0007258
3665.06	0.0005484
3674.71	0.00037825
3684.35	0.0004829
3694	0.0003433
3703.64	0.0007654
3713.29	0.0003027
3722.93	0.000528
3732.58	0.00040318
3742.22	0.000483
3751.86	0.000702
3761.51	0.0005365
3771.15	0.0006866
3780.8	0.0004514
3790.44	0.0007917
3800.09	0.000875
3809.73	0.0007687
3819.38	0.0008948
3829.02	0.0006192
3838.67	0.0005468
3848.31	0.000323916
3857.96	0.0007163
3867.6	0.00037536
3877.25	0.0011736
3886.89	0.0008669
3896.54	0.0007542
3906.18	0.0004235
3915.83	0.000716
3925.47	0.0008142
3935.12	0.0007692
3944.76	0.000187
3954.41	0.000723
3964.05	0.0007784
3973.69	0.0005478
3983.34	0.0005946
3992.98	0.0007798
