Infrared Spectrum: BUTYRIC ACID, 2-[(ISOPROPYLIDENEAMINO)OXY]-
Formula: C7 H13 N O3
CAS: 5001-37-6
State: LIQUID (NEAT)
Class: COBLENTZ III
Instrument: PERKIN-ELMER 21 (GRATING)
Instrument parameters: FILTER CHANGE AT ABOUT 1085 CM^-^1
Sampling: TRANSMISSION
Path length: CAPILLARY
Resolution: 2
Origin: SOUTHERN RESEARCH INSTITUTE
1/CM	TRANSMITTANCE
604.762	0.689
613.06	0.693
621.358	0.6999
629.656	0.707
637.954	0.7258
646.252	0.7318
654.55	0.7366
662.848	0.7372
671.146	0.7388
679.444	0.748
687.742	0.7597
696.04	0.7727
704.338	0.775
712.637	0.774
720.935	0.7644
729.233	0.7544
737.531	0.7364
745.829	0.725
754.127	0.722
762.425	0.7191
770.723	0.7076
779.021	0.6813
787.319	0.632
795.617	0.6632
803.915	0.689
812.213	0.689
820.511	0.6724
828.809	0.6265
837.107	0.603
845.405	0.6481
853.703	0.65
862.001	0.6368
870.299	0.6267
878.597	0.609
886.895	0.576
895.193	0.549
903.491	0.4484
911.789	0.3921
920.088	0.4093
928.386	0.4361
936.684	0.4692
944.982	0.4768
953.28	0.4828
961.578	0.5073
969.876	0.5465
978.174	0.5787
986.472	0.5834
994.77	0.5424
1003.07	0.43
1011.37	0.4149
1019.66	0.5163
1027.96	0.595
1036.26	0.599
1044.56	0.5977
1052.86	0.5656
1061.15	0.4027
1069.45	0.3717
1077.75	0.4108
1086.05	0.4477
1094.35	0.4925
1102.64	0.5112
1110.94	0.4999
1119.24	0.4187
1127.54	0.4121
1135.84	0.4199
1144.13	0.3763
1152.43	0.3301
1160.73	0.4253
1169.03	0.551
1177.33	0.549
1185.62	0.4919
1193.92	0.446
1202.22	0.3922
1210.52	0.365
1218.82	0.363
1227.11	0.3592
1235.41	0.3597
1243.71	0.3933
1252.01	0.4241
1260.31	0.426
1268.61	0.4286
1276.9	0.4254
1285.2	0.4562
1293.5	0.4845
1301.8	0.4895
1310.1	0.5175
1318.39	0.5489
1326.69	0.5598
1334.99	0.5307
1343.29	0.5094
1351.59	0.5176
1359.88	0.535
1368.18	0.5269
1376.48	0.4153
1384.78	0.422
1393.08	0.4382
1401.37	0.509
1409.67	0.525
1417.97	0.514
1426.27	0.4878
1434.57	0.475
1442.86	0.45
1451.16	0.4299
1459.46	0.4708
1467.76	0.4829
1476.06	0.5082
1484.35	0.6037
1492.65	0.6316
1500.95	0.6486
1509.25	0.656
1517.55	0.659
1525.84	0.659
1534.14	0.654
1542.44	0.655
1550.74	0.6616
1559.04	0.6588
1567.33	0.647
1575.63	0.646
1583.93	0.641
1592.23	0.6401
1600.53	0.632
1608.82	0.6185
1617.12	0.5952
1625.42	0.5637
1633.72	0.5417
1642.02	0.5094
1650.32	0.4967
1658.61	0.4888
1666.91	0.4806
1675.21	0.4628
1683.51	0.4286
1691.81	0.3832
1700.1	0.2956
1708.4	0.2203
1716.7	0.1657
1725	0.143
1733.3	0.1599
1741.59	0.1857
1749.89	0.2266
1758.19	0.2712
1766.49	0.3396
1774.79	0.4562
1783.08	0.5313
1791.38	0.578
1799.68	0.5965
1807.98	0.606
1816.28	0.609
1824.57	0.619
1832.87	0.62
1841.17	0.62
1849.47	0.619
1857.77	0.623
1866.06	0.625
1874.36	0.627
1882.66	0.627
1890.96	0.626
1899.26	0.625
1907.55	0.6253
1915.85	0.621
1924.15	0.62
1932.45	0.6192
1940.75	0.6175
1949.04	0.619
1957.34	0.617
1965.64	0.619
1973.94	0.62
1982.24	0.619
1990.53	0.619
1998.83	0.619
2007.13	0.62
2015.43	0.62
2023.73	0.62
2032.02	0.62
2040.32	0.619
2048.62	0.619
2056.92	0.619
2065.22	0.619
2073.52	0.619
2081.81	0.619
2090.11	0.619
2098.41	0.617
2106.71	0.619
2115.01	0.617
2123.3	0.627
2131.6	0.629
2139.9	0.627
2148.2	0.627
2156.5	0.63
2164.79	0.632
2173.09	0.63
2181.39	0.627
2189.69	0.625
2197.99	0.622
2206.28	0.623
2214.58	0.626
2222.88	0.621
2231.18	0.621
2239.48	0.621
2247.77	0.621
2256.07	0.616
2264.37	0.616
2272.67	0.616
2280.97	0.616
2289.26	0.616
2297.56	0.616
2305.86	0.612
2314.16	0.608
2322.46	0.596
2330.75	0.591
2339.05	0.591
2347.35	0.589
2355.65	0.588
2363.95	0.588
2372.24	0.583
2380.54	0.584
2388.84	0.586
2397.14	0.584
2405.44	0.571
2413.73	0.57
2422.03	0.569
2430.33	0.563
2438.63	0.558
2446.93	0.548
2455.22	0.537
2463.52	0.528
2471.82	0.528
2480.12	0.524
2488.42	0.52
2496.72	0.516
2505.01	0.511
2513.31	0.509
2521.61	0.504
2529.91	0.5
2538.21	0.492
2546.5	0.489
2554.8	0.489
2563.1	0.489
2571.4	0.491
2579.7	0.491
2587.99	0.489
2596.29	0.489
2604.59	0.485
2612.89	0.482
2621.19	0.481
2629.48	0.482
2637.78	0.484
2646.08	0.485
2654.38	0.494
2662.68	0.494
2670.97	0.491
2679.27	0.491
2687.57	0.491
2695.87	0.488
2704.17	0.488
2712.46	0.488
2720.76	0.485
2729.06	0.485
2737.36	0.484
2745.66	0.478
2753.95	0.475
2762.25	0.472
2770.55	0.466
2778.85	0.461
2787.15	0.454
2795.44	0.446
2803.74	0.432
2812.04	0.426
2820.34	0.419
2828.64	0.408
2836.93	0.402
2845.23	0.39
2853.53	0.382
2861.83	0.3659
2870.13	0.352
2878.42	0.34
2886.72	0.324
2895.02	0.319
2903.32	0.314
2911.62	0.304
2919.92	0.277
2928.21	0.273
2936.51	0.262
2944.81	0.268
2953.11	0.27
2961.41	0.27
2969.7	0.264
2978	0.264
2986.3	0.277
2994.6	0.298
3002.9	0.324
3011.19	0.337
3019.49	0.341
3027.79	0.344
3036.09	0.345
3044.39	0.352
3052.68	0.354
3060.98	0.354
3069.28	0.354
3077.58	0.357
3085.88	0.356
3094.17	0.356
3102.47	0.357
3110.77	0.359
3119.07	0.362
3127.37	0.364
3135.66	0.363
3143.96	0.367
3152.26	0.369
3160.56	0.369
3168.86	0.37
3177.15	0.37
3185.45	0.37
3193.75	0.373
3202.05	0.378
3210.35	0.38
3218.64	0.382
3226.94	0.38
3235.24	0.387
3243.54	0.39
3251.84	0.399
3260.13	0.4
3268.43	0.4
3276.73	0.4
3285.03	0.405
3293.33	0.41
3301.62	0.413
3309.92	0.417
3318.22	0.422
3326.52	0.425
3334.82	0.425
3343.12	0.425
3351.41	0.428
3359.71	0.432
3368.01	0.435
3376.31	0.435
3384.61	0.436
3392.9	0.435
3401.2	0.433
3409.5	0.435
3417.8	0.439
3426.1	0.436
3434.39	0.436
3442.69	0.438
3450.99	0.439
3459.29	0.439
3467.59	0.437
3475.88	0.437
3484.18	0.437
3492.48	0.441
3500.78	0.446
3509.08	0.451
3517.37	0.454
3525.67	0.454
3533.97	0.454
3542.27	0.457
3550.57	0.462
3558.86	0.468
3567.16	0.479
3575.46	0.485
3583.76	0.495
3592.06	0.504
3600.35	0.517
3608.65	0.521
3616.95	0.523
3625.25	0.531
3633.55	0.541
3641.84	0.551
3650.14	0.551
3658.44	0.562
3666.74	0.567
3675.04	0.575
3683.33	0.581
3691.63	0.587
3699.93	0.593
3708.23	0.595
3716.53	0.596
3724.83	0.599
3733.12	0.602
3741.42	0.604
3749.72	0.607
3758.02	0.609
3766.32	0.61
3774.61	0.61
3782.91	0.609
3791.21	0.609
3799.51	0.61
