Infrared Spectrum: BUTYRONITRILE, 4-DIISOPROPYLAMINO-2-PHENYL-2-(2-PYRIDYL)-
Formula: C21 H27 N3
CAS: 5005-46-9
State: SOLUTION (10% CCl4 FOR 3800-1330, 10% CS2 FOR 1330-460 CM^-^1)
Class: COBLENTZ III
Instrument: DOW KBr FOREPRISM-GRATING
Instrument parameters: BLAZED AT 3.5, 12.0, 20.0 MICRON AND CHANGED AT 5.0, 7.5, 14.9 MICRON
Sampling: TRANSMISSION
Path length: 0.011 CM, 0.011 CM
Resolution: 2
Origin: DOW CHEMICAL COMPANY
1/CM	TRANSMITTANCE
468.935	1.109
477.811	0.887
486.687	0.867
495.562	0.846
504.438	0.876
513.314	0.875
522.19	0.871
531.065	0.84
539.941	0.686
548.817	0.839
557.693	0.875
566.568	0.865
575.444	0.909
584.32	0.933
593.196	0.943
602.071	0.951
610.947	0.914
619.823	0.7
628.699	0.831
637.574	0.813
646.45	0.797
655.326	0.835
664.202	0.84
673.077	0.872
681.953	0.865
690.829	0.5519
699.705	0.1661
708.58	0.76
717.456	0.883
726.332	0.853
735.208	0.742
744.083	0.225
752.959	0.349
761.835	0.65
770.711	0.673
779.586	0.596
788.462	0.74
797.338	0.911
806.214	0.944
815.089	0.959
823.965	0.952
832.841	0.904
841.717	0.868
850.592	0.8
859.468	0.81
868.344	0.815
877.22	0.799
886.095	0.826
894.971	0.872
903.847	0.893
912.723	0.907
921.598	0.903
930.474	0.885
939.35	0.915
948.226	0.936
957.101	0.918
965.977	0.912
974.853	0.853
983.729	0.821
992.604	0.639
1001.48	0.885
1010.36	0.9
1019.23	0.814
1028.11	0.655
1036.98	0.761
1045.86	0.72
1054.73	0.71
1063.61	0.732
1072.49	0.764
1081.36	0.829
1090.24	0.818
1099.11	0.742
1107.99	0.608
1116.86	0.583
1125.74	0.6641
1134.62	0.706
1143.49	0.62
1152.37	0.533
1161.24	0.448
1170.12	0.466
1179	0.556
1187.87	0.602
1196.75	0.487
1205.62	0.343
1214.5	0.56
1223.37	0.7
1232.25	0.792
1241.13	0.799
1250	0.813
1258.88	0.808
1267.75	0.825
1276.63	0.796
1285.5	0.797
1294.38	0.749
1303.26	0.727
1312.13	0.691
1321.01	0.626
1329.88	0.645
1338.76	0.777
1347.63	0.801
1356.51	0.68
1365.39	0.4271
1374.26	0.563
1383.14	0.425
1392.01	0.477
1400.89	0.735
1409.76	0.817
1418.64	0.782
1427.52	0.4159
1436.39	0.552
1445.27	0.5578
1454.14	0.512
1463.02	0.3709
1471.89	0.3321
1480.77	0.5661
1489.65	0.5259
1498.52	0.4091
1507.4	0.659
1516.27	0.664
1525.15	0.637
1534.03	0.574
1542.9	0.479
1551.78	0.45
1560.65	0.483
1569.53	0.403
1578.4	0.4759
1587.28	0.108
1596.16	0.466
1605.03	0.638
1613.91	0.778
1622.78	0.833
1631.66	0.85
1640.53	0.858
1649.41	0.858
1658.29	0.811
1667.16	0.767
1676.04	0.803
1684.91	0.858
1693.79	0.89
1702.66	0.911
1711.54	0.921
1720.42	0.927
1729.29	0.936
1738.17	0.941
1747.04	0.945
1755.92	0.951
1764.79	0.955
1773.67	0.95
1782.55	0.957
1791.42	0.954
1800.3	0.939
1809.17	0.947
1818.05	0.955
1826.92	0.955
1835.8	0.958
1844.68	0.948
1853.55	0.955
1862.43	0.948
1871.3	0.932
1880.18	0.944
1889.06	0.948
1897.93	0.955
1906.81	0.959
1915.68	0.955
1924.56	0.962
1933.43	0.957
1942.31	0.925
1951.19	0.936
1960.06	0.944
1968.94	0.955
1977.81	0.95
1986.69	0.958
1995.56	0.969
2004.44	0.9765
2013.32	0.976
2022.19	0.976
2031.07	0.975
2039.94	0.975
2048.82	0.975
2057.69	0.973
2066.57	0.972
2075.45	0.972
2084.32	0.972
2093.2	0.972
2102.07	0.9756
2110.95	0.977
2119.82	0.979
2128.7	0.979
2137.58	0.979
2146.45	0.979
2155.33	0.979
2164.2	0.979
2173.08	0.979
2181.95	0.9763
2190.83	0.9723
2199.71	0.966
2208.58	0.9529
2217.46	0.9584
2226.33	0.963
2235.21	0.936
2244.09	0.886
2252.96	0.9557
2261.84	0.9583
2270.71	0.9578
2279.59	0.9542
2288.46	0.95
2297.34	0.9508
2306.22	0.9566
2315.09	0.9646
2323.97	0.9728
2332.84	0.976
2341.72	0.976
2350.59	0.9733
2359.47	0.9692
2368.35	0.9652
2377.22	0.965
2386.1	0.965
2394.97	0.965
2403.85	0.963
2412.72	0.9611
2421.6	0.959
2430.48	0.959
2439.35	0.959
2448.23	0.959
2457.1	0.958
2465.98	0.9571
2474.85	0.957
2483.73	0.957
2492.61	0.958
2501.48	0.959
2510.36	0.958
2519.23	0.958
2528.11	0.958
2536.98	0.957
2545.86	0.955
2554.74	0.955
2563.61	0.951
2572.49	0.9469
2581.36	0.9389
2590.24	0.9228
2599.12	0.9037
2607.99	0.8859
2616.87	0.8921
2625.74	0.9184
2634.62	0.933
2643.49	0.933
2652.37	0.9318
2661.25	0.927
2670.12	0.9247
2679	0.9207
2687.87	0.9177
2696.75	0.9135
2705.62	0.8997
2714.5	0.8968
2723.38	0.8938
2732.25	0.8898
2741.13	0.8846
2750	0.8744
2758.88	0.8611
2767.75	0.8361
2776.63	0.8233
2785.51	0.8045
2794.38	0.7735
2803.26	0.7356
2812.13	0.7067
2821.01	0.7076
2829.88	0.71
2838.76	0.71
2847.64	0.7008
2856.51	0.6575
2865.39	0.5445
2874.26	0.472
2883.14	0.554
2892.01	0.547
2900.89	0.5221
2909.77	0.4847
2918.64	0.4213
2927.52	0.3034
2936.39	0.317
2945.27	0.347
2954.15	0.2716
2963.02	0.0898
2971.9	0.065
2980.77	0.136
2989.65	0.2876
2998.52	0.5643
3007.4	0.6644
3016.28	0.7413
3025.15	0.7416
3034.03	0.7474
3042.9	0.783
3051.78	0.7185
3060.65	0.6524
3069.53	0.6597
3078.41	0.7708
3087.28	0.771
3096.16	0.8522
3105.03	0.8782
3113.91	0.903
3122.78	0.912
3131.66	0.912
3140.54	0.911
3149.41	0.911
3158.29	0.9132
3167.16	0.916
3176.04	0.919
3184.91	0.9216
3193.79	0.923
3202.67	0.9256
3211.54	0.927
3220.42	0.929
3229.29	0.93
3238.17	0.93
3247.04	0.93
3255.92	0.929
3264.8	0.927
3273.67	0.9263
3282.55	0.926
3291.42	0.925
3300.3	0.9235
3309.18	0.923
3318.05	0.922
3326.93	0.922
3335.8	0.922
3344.68	0.922
3353.55	0.923
3362.43	0.923
3371.31	0.925
3380.18	0.926
3389.06	0.9298
3397.93	0.932
3406.81	0.9338
3415.68	0.936
3424.56	0.939
3433.44	0.9427
3442.31	0.9467
3451.19	0.9509
3460.06	0.9538
3468.94	0.957
3477.81	0.959
3486.69	0.962
3495.57	0.965
3504.44	0.9679
3513.32	0.968
3522.19	0.968
3531.07	0.968
3539.94	0.97
3548.82	0.972
3557.7	0.975
3566.57	0.975
3575.45	0.95
3584.32	0.983
3593.2	0.9769
3602.08	0.9831
3610.95	0.991
3619.83	0.993
3628.7	0.993
3637.58	0.994
3646.45	0.994
3655.33	0.994
3664.21	0.994
3673.08	0.994
3681.96	0.994
3690.83	0.994
3699.71	0.994
3708.58	0.994
3717.46	0.994
3726.34	0.994
3735.21	0.994
3744.09	0.995
3752.96	0.995
3761.84	0.995
3770.71	0.995
3779.59	0.997
3788.47	0.997
3797.34	0.997
3806.22	0.997
