Infrared Spectrum: Cyclobutanecarboxylic acid chloride
Formula: C 5 H 7 Cl O
CAS: 5006-22-4
State: gas
Instrument: HP-GC/MS/IRD
Origin: NIST Mass Spectrometry Data Center
1/CM	ABSORBANCE
550	0.0016821
562	0.0006497
574	0.0008188
586	0.0002759
598	5.34e-05
610	0.0005073
622	0.0013261
634	0.0031506
646	0.0042987
658	0.0046636
670	0.004984
682	0.0057939
694	0.0089178
706	0.0197936
718	0.0258278
730	0.0168744
742	0.0053044
754	0.0047437
766	0.0069064
778	0.0110627
790	0.0192329
802	0.0273497
814	0.0240923
826	0.0136259
838	0.0095853
850	0.0081791
862	0.0090424
874	0.0109381
886	0.0110716
898	0.0085173
910	0.0072624
922	0.0112674
934	0.021894
946	0.0314882
958	0.0246441
970	0.0094696
982	0.0027857
994	0.0020114
1006	0.0025187
1018	0.0040762
1030	0.0063012
1042	0.0103329
1054	0.0204344
1066	0.025009
1078	0.0165184
1090	0.007476
1102	0.0057227
1114	0.005251
1126	0.0055714
1138	0.0058918
1150	0.0041207
1162	0.0020025
1174	0.001335
1186	0.0014774
1198	0.0020648
1210	0.0024653
1222	0.0022873
1234	0.0027056
1246	0.0031239
1258	0.0021004
1270	0.0004539
1282	0.0002136
1294	0.0005963
1306	0.0017622
1318	0.0035689
1330	0.0032663
1342	0.0015664
1354	0.0009523
1366	0.0009078
1378	0.0007209
1390	0.0004539
1402	0.0004272
1414	0.0006319
1426	0.0012104
1438	0.0021983
1450	0.0024742
1462	0.0017889
1474	0.0009167
1486	0.0004183
1498	0.0002403
1510	0.0001869
1522	0.000178
1534	0.0001602
1546	8.01e-05
1558	2.67e-05
1570	1.78e-05
1582	8.01e-05
1594	2.67e-05
1606	2.67e-05
1618	5.34e-05
1630	9.79e-05
1642	0.0001602
1654	0.0002047
1666	0.0003115
1678	0.0004183
1690	0.0005607
1702	0.0008811
1714	0.0013973
1726	0.0022873
1738	0.0040406
1750	0.0071645
1762	0.0125668
1774	0.0240745
1786	0.0490479
1798	0.081613
1810	0.0865347
1822	0.0604221
1834	0.027056
1846	0.0120951
1858	0.0067462
1870	0.0044589
1882	0.0030705
1894	0.002136
1906	0.0014685
1918	0.0010057
1930	0.0007209
1942	0.0005785
1954	0.0005696
1966	0.0005963
1978	0.0006141
1990	0.0005251
2002	0.0004806
2014	0.0004717
2026	0.0004539
2038	0.000356
2050	0.0003738
2062	0.0004717
2074	0.0006319
2086	0.0008277
2098	0.001068
2110	0.001246
2122	0.0015041
2134	0.0017177
2146	0.0015219
2158	0.0010591
2170	0.0006319
2182	0.0004895
2194	0.0004628
2206	0.0004361
2218	0.0004094
2230	0.0004539
2242	0.0004094
2254	0.0003115
2266	0.0002492
2278	0.0002403
2290	0.0001335
2302	0.0001068
2314	0.0001335
2326	0.0001869
2338	0.0001869
2350	0.0002314
2362	0.0002848
2374	0.0003204
2386	0.000267
2398	0.0002225
2410	0.0001602
2422	0.0001157
2434	0.0001068
2446	5.34e-05
2458	6.23e-05
2470	7.12e-05
2482	2.67e-05
2494	4.45e-05
2506	1.78e-05
2518	1.78e-05
2530	5.34e-05
2542	0
2554	6.23e-05
2566	6.23e-05
2578	7.12e-05
2590	8.9e-05
2602	8.01e-05
2614	0.0001424
2626	0.0001335
2638	0.0001602
2650	0.000178
2662	0.0001335
2674	0.0002136
2686	0.0002314
2698	0.0002581
2710	0.0002759
2722	0.000178
2734	0.0001958
2746	0.0001869
2758	0.0002047
2770	0.0002314
2782	0.0002581
2794	0.0002759
2806	0.0003738
2818	0.0004895
2830	0.0007743
2842	0.0012193
2854	0.0020826
2866	0.0040495
2878	0.0067284
2890	0.0073514
2902	0.0064258
2914	0.0065059
2926	0.0082948
2938	0.0125668
2950	0.021182
2962	0.0276167
2974	0.0271806
2986	0.0260325
2998	0.0270293
3010	0.0197758
3022	0.0093361
3034	0.0039605
3046	0.002403
3058	0.0017533
3070	0.0013261
3082	0.0008989
3094	0.0006408
3106	0.0004094
3118	0.0002581
3130	0.0002136
3142	0.0001869
3154	0.0001691
3166	0.0001246
3178	5.34e-05
3190	4.45e-05
3202	9.79e-05
3214	7.12e-05
3226	4.45e-05
3238	8.9e-05
3250	8.9e-05
3262	0.0001691
3274	0.0001513
3286	0.0001157
3298	6.23e-05
3310	4.45e-05
3322	4.45e-05
3334	4.45e-05
3346	8.01e-05
3358	2.67e-05
3370	5.34e-05
3382	3.56e-05
3394	0
3406	3.56e-05
3418	5.34e-05
3430	0.0001068
3442	7.12e-05
3454	0.0001246
3466	9.79e-05
3478	0.0001335
3490	0.0002047
3502	0.0002136
3514	0.000267
3526	0.0003382
3538	0.0004183
3550	0.0006764
3562	0.0010947
3574	0.0014863
3586	0.0017622
3598	0.0016465
3610	0.0012282
3622	0.0008455
3634	0.0006319
3646	0.0004895
3658	0.0003115
3670	0.000267
3682	0.0002581
3694	0.0002225
3706	0.0002848
3718	0.000356
3730	0.0003026
3742	0.0002403
3754	0.000267
3766	0.0002937
3778	0.0002314
3790	0.0002403
3802	0.000178
3814	0.0001691
3826	0.0001513
3838	0.0002848
