Infrared Spectrum: 2-(M-PHENOXYPHENOXY)-3-(5-NONYL) PYRAZINE
Formula: C25 H30 N2 O2
CAS: 5008-88-8
State: LIQUID
Class: COBLENTZ
Instrument: Not specified, most likely a prism, grating, or hybrid spectrometer.
Sampling: TRANSMISSION
Path length: 0.0015 CM
Resolution: 4
Origin: WYANDOTTE CHEMICALS CORP., WYANDOTTE, MICHIGAN, USA
MICROMETERS	TRANSMITTANCE
2.02	0.963
2.05985	0.965
2.0997	0.973
2.13955	0.976
2.17939	0.941
2.21924	0.93
2.25909	0.933
2.29894	0.936
2.33879	0.921
2.37864	0.925
2.41849	0.946
2.45834	0.946
2.49818	0.953
2.53803	0.96
2.57788	0.956
2.61773	0.96
2.65758	0.948
2.69743	0.935
2.73728	0.936
2.77712	0.925
2.81697	0.908
2.85682	0.893
2.89667	0.88
2.93652	0.868
2.97637	0.863
3.01622	0.865
3.05607	0.851
3.09591	0.858
3.13576	0.85
3.17561	0.845
3.21546	0.715
3.25531	0.455
3.29516	0.658
3.33501	0.069
3.37485	0.038
3.4147	0.151
3.45455	0.183
3.4944	0.266
3.53425	0.725
3.5741	0.818
3.61395	0.856
3.6538	0.838
3.69364	0.87
3.73349	0.88
3.77334	0.896
3.81319	0.903
3.85304	0.9
3.89289	0.901
3.93274	0.908
3.97258	0.92
4.01243	0.92
4.05228	0.918
4.09213	0.898
4.13198	0.888
4.17183	0.85
4.21168	0.886
4.25153	0.835
4.29137	0.835
4.33122	0.845
4.37107	0.903
4.41092	0.935
4.45077	0.931
4.49062	0.933
4.53047	0.925
4.57031	0.905
4.61016	0.925
4.65001	0.93
4.68986	0.92
4.72971	0.93
4.76956	0.935
4.80941	0.923
4.84926	0.926
4.8891	0.928
4.92895	0.921
4.9688	0.906
5.00865	0.921
5.0485	0.911
5.08835	0.918
5.1282	0.906
5.16804	0.89
5.20789	0.863
5.24774	0.865
5.28759	0.888
5.32744	0.91
5.36729	0.89
5.40714	0.885
5.44699	0.901
5.48683	0.913
5.52668	0.916
5.56653	0.891
5.60638	0.876
5.64623	0.888
5.68608	0.883
5.72593	0.858
5.76577	0.833
5.80562	0.815
5.84547	0.8
5.88532	0.803
5.92517	0.788
5.96502	0.78
6.00487	0.748
6.04472	0.718
6.08456	0.63
6.12441	0.445
6.16426	0.079
6.20411	0.023
6.24396	0.061
6.28381	0.188
6.32366	0.386
6.3635	0.549
6.40335	0.557
6.4432	0.324
6.48305	0.169
6.5229	0.422
6.56275	0.509
6.6026	0.387
6.64245	0.036
6.68229	0.024
6.72214	0.038
6.76199	0.059
6.80184	0.073
6.84169	0.118
6.88154	0.144
6.92139	0.229
6.96123	0.351
7.00108	0.259
7.04093	0.064
7.08078	0.026
7.12063	0.031
7.16048	0.089
7.20033	0.164
7.24018	0.121
7.28002	0.096
7.31987	0.049
7.35972	0.031
7.39957	0.079
7.43942	0.146
7.47927	0.211
7.51912	0.247
7.55897	0.249
7.59881	0.171
7.63866	0.119
7.67851	0.089
7.71836	0.059
7.75821	0.051
7.79806	0.038
7.83791	0.028
7.87775	0.024
7.9176	0.026
7.95745	0.031
7.9973	0.079
8.03715	0.156
8.077	0.201
8.11685	0.202
8.1567	0.091
8.19654	0.023
8.23639	0.021
8.27624	0.048
8.31609	0.176
8.35594	0.264
8.39579	0.291
8.43564	0.198
8.47548	0.078
8.51533	0.033
8.55518	0.024
8.59503	0.028
8.63488	0.039
8.67473	0.064
8.71458	0.124
8.75443	0.153
8.79427	0.029
8.83412	0.029
8.87397	0.056
8.91382	0.143
8.95367	0.292
8.99352	0.48
9.03337	0.53
9.07321	0.409
9.11306	0.415
9.15291	0.52
9.19276	0.519
9.23261	0.439
9.27246	0.369
9.31231	0.391
9.35216	0.552
9.392	0.667
9.43185	0.72
9.4717	0.743
9.51155	0.757
9.5514	0.762
9.59125	0.765
9.6311	0.763
9.67094	0.752
9.71079	0.668
9.75064	0.455
9.79049	0.529
9.83034	0.652
9.87019	0.622
9.91004	0.567
9.94989	0.495
9.98973	0.56
10.0296	0.677
10.0694	0.683
10.1093	0.665
10.1491	0.599
10.189	0.482
10.2288	0.329
10.2687	0.166
10.3085	0.049
10.3484	0.036
10.3882	0.049
10.4281	0.123
10.4679	0.237
10.5078	0.367
10.5476	0.48
10.5875	0.56
10.6273	0.622
10.6672	0.665
10.707	0.708
10.7469	0.737
10.7867	0.738
10.8266	0.743
10.8664	0.753
10.9063	0.747
10.9461	0.737
10.986	0.712
11.0258	0.67
11.0656	0.64
11.1055	0.617
11.1453	0.58
11.1852	0.512
11.225	0.437
11.2649	0.394
11.3047	0.392
11.3446	0.427
11.3844	0.449
11.4243	0.437
11.4641	0.409
11.504	0.369
11.5438	0.349
11.5837	0.321
11.6235	0.307
11.6634	0.301
11.7032	0.297
11.7431	0.291
11.7829	0.282
11.8228	0.279
11.8626	0.302
11.9025	0.389
11.9423	0.469
11.9822	0.539
12.022	0.585
12.0619	0.607
12.1017	0.625
12.1416	0.632
12.1814	0.635
12.2213	0.63
12.2611	0.632
12.301	0.622
12.3408	0.632
12.3807	0.64
12.4205	0.652
12.4604	0.66
12.5002	0.662
12.54	0.627
12.5799	0.572
12.6197	0.475
12.6596	0.362
12.6994	0.269
12.7393	0.231
12.7791	0.219
12.819	0.224
12.8588	0.229
12.8987	0.239
12.9385	0.251
12.9784	0.276
13.0182	0.281
13.0581	0.296
13.0979	0.301
13.1378	0.292
13.1776	0.272
13.2175	0.239
13.2573	0.211
13.2972	0.207
13.337	0.224
13.3769	0.251
13.4167	0.289
13.4566	0.307
13.4964	0.319
13.5363	0.334
13.5761	0.349
13.616	0.387
13.6558	0.44
13.6957	0.472
13.7355	0.514
13.7754	0.557
13.8152	0.608
13.8551	0.655
13.8949	0.697
13.9348	0.722
13.9746	0.738
14.0144	0.753
14.0543	0.76
14.0941	0.763
14.134	0.762
14.1738	0.753
14.2137	0.745
14.2535	0.717
14.2934	0.655
14.3332	0.555
14.3731	0.397
14.4129	0.241
14.4528	0.179
14.4926	0.153
14.5325	0.151
14.5723	0.183
14.6122	0.198
14.652	0.214
14.6919	0.249
14.7317	0.306
14.7716	0.409
14.8114	0.492
14.8513	0.6
14.8911	0.655
14.931	0.688
14.9708	0.703
15.0107	0.703
15.0505	0.682
15.0904	0.695
15.1302	0.732
15.1701	0.752
15.2099	0.745
15.2498	0.738
15.2896	0.738
15.3295	0.735
15.3693	0.73
15.4092	0.73
15.449	0.732
15.4889	0.72
15.5287	0.723
15.5685	0.715
15.6084	0.71
15.6482	0.705
15.6881	0.697
15.7279	0.687
15.7678	0.675
15.8076	0.667
15.8475	0.658
15.8873	0.647
15.9272	0.642
15.967	0.627
