Infrared Spectrum: 2-PHENOXY-3-(5-NONYL) PYRAZINE
Formula: C19 H26 N2 O
CAS: 5008-87-7
State: LIQUID
Class: COBLENTZ
Instrument: Not specified, most likely a prism, grating, or hybrid spectrometer.
Sampling: TRANSMISSION
Path length: 0.0015 CM
Resolution: 4
Origin: WYANDOTTE CHEMICALS CORP., WYANDOTTE, MICHIGAN, USA
MICROMETERS	TRANSMITTANCE
2.013	0.97
2.05291	0.966
2.09281	0.965
2.13272	0.963
2.17262	0.948
2.21253	0.916
2.25244	0.921
2.29234	0.931
2.33225	0.923
2.37215	0.923
2.41206	0.935
2.45196	0.941
2.49187	0.94
2.53178	0.941
2.57168	0.951
2.61159	0.941
2.65149	0.95
2.6914	0.93
2.73131	0.936
2.77121	0.933
2.81112	0.916
2.85102	0.898
2.89093	0.878
2.93083	0.868
2.97074	0.851
3.01065	0.85
3.05055	0.863
3.09046	0.865
3.13036	0.853
3.17027	0.846
3.21018	0.785
3.25008	0.52
3.28999	0.682
3.32989	0.362
3.3698	0.028
3.4097	0.074
3.44961	0.196
3.48952	0.131
3.52942	0.677
3.56933	0.8
3.60923	0.85
3.64914	0.831
3.68905	0.86
3.72895	0.866
3.76886	0.881
3.80876	0.895
3.84867	0.9
3.88858	0.906
3.92848	0.906
3.96839	0.913
4.00829	0.913
4.0482	0.906
4.0881	0.903
4.12801	0.901
4.16792	0.905
4.20782	0.895
4.24773	0.875
4.28763	0.873
4.32754	0.885
4.36745	0.931
4.40735	0.94
4.44726	0.93
4.48716	0.933
4.52707	0.935
4.56697	0.933
4.60688	0.933
4.64679	0.931
4.68669	0.928
4.7266	0.931
4.7665	0.936
4.80641	0.93
4.84632	0.931
4.88622	0.931
4.92613	0.925
4.96603	0.92
5.00594	0.91
5.04584	0.91
5.08575	0.921
5.12566	0.918
5.16556	0.905
5.20547	0.89
5.24537	0.913
5.28528	0.911
5.32519	0.921
5.36509	0.916
5.405	0.911
5.4449	0.928
5.48481	0.931
5.52472	0.92
5.56462	0.893
5.60453	0.893
5.64443	0.895
5.68434	0.908
5.72424	0.885
5.76415	0.848
5.80406	0.82
5.84396	0.801
5.88387	0.782
5.92377	0.783
5.96368	0.785
6.00359	0.772
6.04349	0.77
6.0834	0.755
6.1233	0.707
6.16321	0.617
6.20311	0.256
6.24302	0.447
6.28293	0.449
6.32283	0.632
6.36274	0.678
6.40264	0.595
6.44255	0.337
6.48246	0.188
6.52236	0.422
6.56227	0.535
6.60217	0.449
6.64208	0.071
6.68198	0.201
6.72189	0.389
6.7618	0.202
6.8017	0.159
6.84161	0.237
6.88151	0.341
6.92142	0.404
6.96133	0.435
7.00123	0.341
7.04114	0.086
7.08104	0.031
7.12095	0.039
7.16086	0.148
7.20076	0.194
7.24067	0.143
7.28057	0.123
7.32048	0.088
7.36038	0.053
7.40029	0.134
7.4402	0.239
7.4801	0.351
7.52001	0.386
7.55991	0.4
7.59982	0.357
7.63973	0.256
7.67963	0.168
7.71954	0.131
7.75944	0.126
7.79935	0.101
7.83925	0.094
7.87916	0.136
7.91907	0.281
7.95897	0.374
7.99888	0.437
8.03878	0.449
8.07869	0.392
8.1186	0.366
8.1585	0.272
8.19841	0.153
8.23831	0.056
8.27822	0.033
8.31812	0.046
8.35803	0.181
8.39794	0.264
8.43784	0.206
8.47775	0.096
8.51765	0.069
8.55756	0.071
8.59747	0.129
8.63737	0.232
8.67728	0.317
8.71718	0.427
8.75709	0.557
8.797	0.63
8.8369	0.617
8.87681	0.514
8.91671	0.502
8.95662	0.544
8.99652	0.6
9.03643	0.572
9.07634	0.42
9.11624	0.5
9.15615	0.618
9.19605	0.632
9.23596	0.612
9.27587	0.547
9.31577	0.52
9.35568	0.643
9.39558	0.708
9.43549	0.753
9.47539	0.783
9.5153	0.795
9.55521	0.801
9.59511	0.806
9.63502	0.8
9.67492	0.785
9.71483	0.652
9.75474	0.534
9.79464	0.668
9.83455	0.742
9.87445	0.657
9.91436	0.603
9.95427	0.7
9.99417	0.76
10.0341	0.785
10.074	0.81
10.1139	0.826
10.1538	0.823
10.1937	0.821
10.2336	0.811
10.2735	0.813
10.3134	0.798
10.3533	0.782
10.3932	0.753
10.4331	0.745
10.473	0.737
10.5129	0.74
10.5529	0.748
10.5928	0.757
10.6327	0.762
10.6726	0.773
10.7125	0.775
10.7524	0.778
10.7923	0.783
10.8322	0.798
10.8721	0.798
10.912	0.778
10.9519	0.715
10.9918	0.592
11.0317	0.464
11.0716	0.474
11.1115	0.554
11.1514	0.555
11.1913	0.532
11.2313	0.603
11.2712	0.678
11.3111	0.725
11.351	0.752
11.3909	0.747
11.4308	0.72
11.4707	0.69
11.5106	0.687
11.5505	0.693
11.5904	0.69
11.6303	0.657
11.6702	0.608
11.7101	0.545
11.75	0.477
11.7899	0.427
11.8298	0.399
11.8697	0.434
11.9097	0.527
11.9496	0.602
11.9895	0.64
12.0294	0.647
12.0693	0.643
12.1092	0.65
12.1491	0.653
12.189	0.652
12.2289	0.655
12.2688	0.648
12.3087	0.642
12.3486	0.643
12.3885	0.652
12.4284	0.663
12.4683	0.67
12.5082	0.682
12.5481	0.7
12.5881	0.703
12.628	0.7
12.6679	0.668
12.7078	0.605
12.7477	0.542
12.7876	0.474
12.8275	0.445
12.8674	0.424
12.9073	0.422
12.9472	0.442
12.9871	0.465
13.027	0.49
13.0669	0.505
13.1068	0.512
13.1467	0.504
13.1866	0.48
13.2265	0.45
13.2665	0.43
13.3064	0.422
13.3463	0.422
13.3862	0.427
13.4261	0.434
13.466	0.422
13.5059	0.41
13.5458	0.412
13.5857	0.444
13.6256	0.474
13.6655	0.512
13.7054	0.529
13.7453	0.539
13.7852	0.55
13.8251	0.559
13.865	0.547
13.9049	0.532
13.9449	0.525
13.9848	0.549
14.0247	0.59
14.0646	0.628
14.1045	0.67
14.1444	0.69
14.1843	0.705
14.2242	0.702
14.2641	0.703
14.304	0.687
14.3439	0.668
14.3838	0.633
14.4237	0.562
14.4636	0.467
14.5035	0.351
14.5434	0.251
14.5833	0.226
14.6232	0.276
14.6632	0.399
14.7031	0.547
14.743	0.638
14.7829	0.69
14.8228	0.722
14.8627	0.725
14.9026	0.737
14.9425	0.74
14.9824	0.728
15.0223	0.692
15.0622	0.683
15.1021	0.72
15.142	0.745
15.1819	0.738
15.2218	0.725
15.2617	0.71
15.3016	0.702
15.3416	0.7
15.3815	0.698
15.4214	0.69
15.4613	0.687
15.5012	0.683
15.5411	0.675
15.581	0.668
15.6209	0.67
15.6608	0.665
15.7007	0.657
15.7406	0.657
15.7805	0.653
15.8204	0.645
15.8603	0.637
15.9002	0.635
15.9401	0.632
15.98	0.628
