Infrared Spectrum: 2-(2,2,4-TRIMETHYLPENTOXY)-3-(5-NONYL) PYRAZINE
Formula: C21 H38 N2 O
CAS: 5008-90-2
State: LIQUID
Class: COBLENTZ
Instrument: Not specified, most likely a prism, grating, or hybrid spectrometer.
Sampling: TRANSMISSION
Path length: 0.003 CM
Resolution: 4
Origin: WYANDOTTE CHEMICALS CORP., WYANDOTTE, MICHIGAN, USA
MICROMETERS	TRANSMITTANCE
2.068	0.958
2.10892	0.957
2.14984	0.943
2.19075	0.899
2.23167	0.876
2.27259	0.88
2.31351	0.887
2.35442	0.894
2.39534	0.909
2.43626	0.916
2.47718	0.923
2.51809	0.941
2.55901	0.931
2.59993	0.941
2.64085	0.947
2.68176	0.943
2.72268	0.948
2.7636	0.936
2.80452	0.923
2.84544	0.917
2.88635	0.9
2.92727	0.9
2.96819	0.88
3.00911	0.875
3.05002	0.868
3.09094	0.847
3.13186	0.82
3.17278	0.813
3.21369	0.803
3.25461	0.531
3.29553	0.618
3.33645	0.097
3.37736	0.058
3.41828	0.059
3.4592	0.068
3.50012	0.2
3.54104	0.555
3.58195	0.702
3.62287	0.764
3.66379	0.757
3.70471	0.779
3.74562	0.808
3.78654	0.82
3.82746	0.841
3.86838	0.859
3.90929	0.861
3.95021	0.878
3.99113	0.882
4.03205	0.878
4.07296	0.871
4.11388	0.878
4.1548	0.885
4.19572	0.885
4.23664	0.899
4.27755	0.902
4.31847	0.895
4.35939	0.902
4.40031	0.904
4.44122	0.902
4.48214	0.911
4.52306	0.912
4.56398	0.912
4.60489	0.921
4.64581	0.912
4.68673	0.921
4.72765	0.921
4.76856	0.928
4.80948	0.933
4.8504	0.938
4.89132	0.938
4.93224	0.94
4.97315	0.931
5.01407	0.923
5.05499	0.929
5.09591	0.936
5.13682	0.936
5.17774	0.94
5.21866	0.929
5.25958	0.933
5.30049	0.914
5.34141	0.917
5.38233	0.94
5.42325	0.95
5.46416	0.943
5.50508	0.938
5.546	0.928
5.58692	0.919
5.62784	0.88
5.66875	0.9
5.70967	0.909
5.75059	0.899
5.79151	0.868
5.83242	0.859
5.87334	0.858
5.91426	0.842
5.95518	0.822
5.99609	0.817
6.03701	0.817
6.07793	0.808
6.11885	0.811
6.15976	0.808
6.20068	0.796
6.2416	0.726
6.28252	0.547
6.32344	0.639
6.36435	0.704
6.40527	0.565
6.44619	0.328
6.48711	0.141
6.52802	0.401
6.56894	0.664
6.60986	0.69
6.65078	0.666
6.69169	0.535
6.73261	0.232
6.77353	0.104
6.81445	0.116
6.85536	0.14
6.89628	0.172
6.9372	0.184
6.97812	0.105
7.01904	0.058
7.05995	0.064
7.10087	0.198
7.14179	0.28
7.18271	0.075
7.22362	0.064
7.26454	0.141
7.30546	0.126
7.34638	0.169
7.38729	0.102
7.42821	0.061
7.46913	0.071
7.51005	0.131
7.55096	0.165
7.59188	0.155
7.6328	0.114
7.67372	0.102
7.71464	0.138
7.75555	0.174
7.79647	0.2
7.83739	0.276
7.87831	0.34
7.91922	0.406
7.96014	0.461
8.00106	0.441
8.04198	0.499
8.08289	0.541
8.12381	0.529
8.16473	0.5
8.20565	0.447
8.24656	0.437
8.28748	0.451
8.3284	0.463
8.36932	0.393
8.41024	0.242
8.45115	0.102
8.49207	0.08
8.53299	0.107
8.57391	0.124
8.61482	0.14
8.65574	0.155
8.69666	0.184
8.73758	0.268
8.77849	0.406
8.81941	0.41
8.86033	0.287
8.90125	0.288
8.94216	0.357
8.98308	0.403
9.024	0.372
9.06492	0.232
9.10584	0.347
9.14675	0.459
9.18767	0.483
9.22859	0.475
9.26951	0.526
9.31042	0.589
9.35134	0.618
9.39226	0.622
9.43318	0.649
9.47409	0.652
9.51501	0.63
9.55593	0.547
9.59685	0.449
9.63776	0.379
9.67868	0.382
9.7196	0.333
9.76052	0.241
9.80144	0.157
9.84235	0.119
9.88327	0.109
9.92419	0.109
9.96511	0.201
10.006	0.273
10.0469	0.29
10.0879	0.299
10.1288	0.345
10.1697	0.441
10.2106	0.497
10.2515	0.5
10.2924	0.47
10.3334	0.471
10.3743	0.5
10.4152	0.576
10.4561	0.618
10.497	0.634
10.538	0.644
10.5789	0.659
10.6198	0.661
10.6607	0.661
10.7016	0.694
10.7425	0.719
10.7835	0.7
10.8244	0.641
10.8653	0.637
10.9062	0.661
10.9471	0.712
10.988	0.745
11.029	0.762
11.0699	0.75
11.1108	0.733
11.1517	0.731
11.1926	0.733
11.2336	0.717
11.2745	0.709
11.3154	0.69
11.3563	0.719
11.3972	0.738
11.4381	0.728
11.4791	0.676
11.52	0.586
11.5609	0.5
11.6018	0.56
11.6427	0.641
11.6836	0.68
11.7246	0.67
11.7655	0.635
11.8064	0.565
11.8473	0.461
11.8882	0.347
11.9292	0.273
11.9701	0.326
12.011	0.514
12.0519	0.671
12.0928	0.75
12.1337	0.782
12.1747	0.801
12.2156	0.813
12.2565	0.818
12.2974	0.825
12.3383	0.822
12.3792	0.829
12.4202	0.834
12.4611	0.837
12.502	0.847
12.5429	0.858
12.5838	0.849
12.6248	0.851
12.6657	0.839
12.7066	0.822
12.7475	0.808
12.7884	0.791
12.8293	0.791
12.8703	0.788
12.9112	0.788
12.9521	0.784
12.993	0.776
13.0339	0.758
13.0748	0.719
13.1158	0.704
13.1567	0.699
13.1976	0.709
13.2385	0.704
13.2794	0.707
13.3204	0.699
13.3613	0.711
13.4022	0.711
13.4431	0.719
13.484	0.709
13.5249	0.704
13.5659	0.694
13.6068	0.687
13.6477	0.673
13.6886	0.652
13.7295	0.632
13.7704	0.611
13.8114	0.62
13.8523	0.663
13.8932	0.704
13.9341	0.733
13.975	0.76
14.016	0.776
14.0569	0.788
14.0978	0.798
14.1387	0.803
14.1796	0.808
14.2205	0.81
14.2615	0.813
14.3024	0.805
14.3433	0.801
14.3842	0.798
14.4251	0.791
14.466	0.782
14.507	0.777
14.5479	0.779
14.5888	0.767
14.6297	0.757
14.6706	0.757
14.7116	0.748
14.7525	0.74
14.7934	0.735
14.8343	0.719
14.8752	0.705
14.9161	0.7
14.9571	0.704
14.998	0.692
15.0389	0.654
15.0798	0.593
15.1207	0.588
15.1616	0.61
15.2026	0.641
15.2435	0.644
15.2844	0.647
15.3253	0.639
15.3662	0.637
15.4072	0.639
15.4481	0.623
15.489	0.611
15.5299	0.6
15.5708	0.6
15.6117	0.586
15.6527	0.572
15.6936	0.57
15.7345	0.558
15.7754	0.555
15.8163	0.538
15.8572	0.533
15.8982	0.523
15.9391	0.512
15.98	0.505
