Infrared Spectrum: 2-(P-t-BUTYLPHENOXY)-3-(5-NONYL) PYRAZINE
Formula: C23 H34 N2 O
CAS: 5008-89-9
State: LIQUID
Class: COBLENTZ
Instrument: Not specified, most likely a prism, grating, or hybrid spectrometer.
Sampling: TRANSMISSION
Path length: CAPILLARY
Resolution: 4
Origin: WYANDOTTE CHEMICALS CORP., WYANDOTTE, MICHIGAN, USA
MICROMETERS	TRANSMITTANCE
2.053	0.971
2.09283	0.968
2.13266	0.963
2.17249	0.955
2.21231	0.932
2.25214	0.941
2.29197	0.933
2.3318	0.943
2.37163	0.936
2.41146	0.948
2.45128	0.938
2.49111	0.941
2.53094	0.948
2.57077	0.953
2.6106	0.96
2.65043	0.961
2.69026	0.96
2.73008	0.955
2.76991	0.943
2.80974	0.94
2.84957	0.943
2.8894	0.94
2.92923	0.935
2.96905	0.925
3.00888	0.92
3.04871	0.91
3.08854	0.892
3.12837	0.887
3.1682	0.877
3.20803	0.84
3.24785	0.63
3.28768	0.759
3.32751	0.353
3.36734	0.082
3.40717	0.2
3.447	0.331
3.48682	0.318
3.52665	0.729
3.56648	0.825
3.60631	0.867
3.64614	0.859
3.68597	0.865
3.7258	0.87
3.76562	0.885
3.80545	0.893
3.84528	0.895
3.88511	0.895
3.92494	0.897
3.96477	0.902
4.00459	0.9
4.04442	0.895
4.08425	0.888
4.12408	0.882
4.16391	0.885
4.20374	0.89
4.24357	0.88
4.28339	0.91
4.32322	0.938
4.36305	0.927
4.40288	0.905
4.44271	0.908
4.48254	0.903
4.52236	0.91
4.56219	0.913
4.60202	0.908
4.64185	0.915
4.68168	0.907
4.72151	0.912
4.76134	0.913
4.80116	0.913
4.84099	0.902
4.88082	0.907
4.92065	0.908
4.96048	0.902
5.00031	0.9
5.04013	0.9
5.07996	0.898
5.11979	0.9
5.15962	0.908
5.19945	0.905
5.23928	0.9
5.27911	0.878
5.31893	0.859
5.35876	0.893
5.39859	0.902
5.43842	0.903
5.47825	0.897
5.51808	0.897
5.5579	0.885
5.59773	0.882
5.63756	0.883
5.67739	0.873
5.71722	0.882
5.75705	0.887
5.79688	0.865
5.8367	0.862
5.87653	0.849
5.91636	0.854
5.95619	0.82
5.99602	0.809
6.03585	0.815
6.07567	0.814
6.1155	0.794
6.15533	0.726
6.19516	0.723
6.23499	0.756
6.27482	0.756
6.31465	0.779
6.35447	0.804
6.3943	0.764
6.43413	0.65
6.47396	0.461
6.51379	0.593
6.55362	0.315
6.59344	0.155
6.63327	0.49
6.6731	0.56
6.71293	0.524
6.75276	0.441
6.79259	0.31
6.83242	0.398
6.87224	0.484
6.91207	0.547
6.9519	0.6
6.99173	0.548
7.03156	0.305
7.07139	0.101
7.11121	0.059
7.15104	0.177
7.19087	0.358
7.2307	0.306
7.27053	0.238
7.31036	0.145
7.35019	0.134
7.39001	0.203
7.42984	0.354
7.46967	0.472
7.5095	0.5
7.54933	0.522
7.58916	0.5
7.62898	0.436
7.66881	0.341
7.70864	0.296
7.74847	0.305
7.7883	0.283
7.82813	0.232
7.86796	0.212
7.90778	0.379
7.94761	0.533
7.98744	0.57
8.02727	0.582
8.0671	0.495
8.10693	0.348
8.14675	0.257
8.18658	0.157
8.22641	0.089
8.26624	0.21
8.30607	0.434
8.3459	0.56
8.38573	0.54
8.42555	0.388
8.46538	0.167
8.50521	0.091
8.54504	0.18
8.58487	0.376
8.6247	0.47
8.66452	0.53
8.70435	0.593
8.74418	0.674
8.78401	0.723
8.82384	0.729
8.86367	0.631
8.9035	0.587
8.94332	0.494
8.98315	0.407
9.02298	0.605
9.06281	0.529
9.10264	0.553
9.14247	0.665
9.18229	0.701
9.22212	0.696
9.26195	0.718
9.30178	0.754
9.34161	0.776
9.38144	0.789
9.42127	0.8
9.46109	0.805
9.50092	0.807
9.54075	0.81
9.58058	0.819
9.62041	0.814
9.66024	0.797
9.70006	0.754
9.73989	0.696
9.77972	0.635
9.81955	0.461
9.85938	0.648
9.89921	0.718
9.93904	0.789
9.97886	0.809
10.0187	0.825
10.0585	0.827
10.0983	0.832
10.1382	0.832
10.178	0.825
10.2178	0.817
10.2577	0.815
10.2975	0.81
10.3373	0.797
10.3771	0.789
10.417	0.769
10.4568	0.761
10.4966	0.754
10.5365	0.757
10.5763	0.771
10.6161	0.779
10.6559	0.781
10.6958	0.792
10.7356	0.797
10.7754	0.804
10.8153	0.799
10.8551	0.794
10.8949	0.799
10.9347	0.802
10.9746	0.777
11.0144	0.701
11.0542	0.597
11.0941	0.499
11.1339	0.52
11.1737	0.633
11.2135	0.709
11.2534	0.741
11.2932	0.772
11.333	0.782
11.3729	0.789
11.4127	0.779
11.4525	0.774
11.4923	0.751
11.5322	0.741
11.572	0.714
11.6118	0.655
11.6517	0.572
11.6915	0.472
11.7313	0.389
11.7711	0.366
11.811	0.359
11.8508	0.338
11.8906	0.321
11.9305	0.336
11.9703	0.411
12.0101	0.519
12.0499	0.592
12.0898	0.633
12.1296	0.65
12.1694	0.681
12.2093	0.703
12.2491	0.718
12.2889	0.719
12.3287	0.718
12.3686	0.709
12.4084	0.701
12.4482	0.713
12.4881	0.742
12.5279	0.774
12.5677	0.794
12.6075	0.81
12.6474	0.82
12.6872	0.822
12.727	0.83
12.7669	0.83
12.8067	0.829
12.8465	0.822
12.8863	0.822
12.9262	0.83
12.966	0.825
13.0058	0.817
13.0457	0.807
13.0855	0.796
13.1253	0.787
13.1651	0.789
13.205	0.796
13.2448	0.802
13.2846	0.804
13.3245	0.802
13.3643	0.799
13.4041	0.794
13.4439	0.779
13.4838	0.777
13.5236	0.762
13.5634	0.751
13.6033	0.736
13.6431	0.733
13.6829	0.736
13.7227	0.754
13.7626	0.769
13.8024	0.792
13.8422	0.807
13.8821	0.814
13.9219	0.819
13.9617	0.824
14.0015	0.832
14.0414	0.837
14.0812	0.845
14.121	0.85
14.1609	0.855
14.2007	0.857
14.2405	0.859
14.2803	0.862
14.3202	0.859
14.36	0.854
14.3998	0.857
14.4397	0.859
14.4795	0.852
14.5193	0.847
14.5591	0.84
14.599	0.834
14.6388	0.824
14.6786	0.82
14.7185	0.817
14.7583	0.827
14.7981	0.829
14.8379	0.829
14.8778	0.835
14.9176	0.829
14.9574	0.827
14.9973	0.817
15.0371	0.776
15.0769	0.723
15.1167	0.708
15.1566	0.734
15.1964	0.776
15.2362	0.805
15.276	0.809
15.3159	0.812
15.3557	0.809
15.3955	0.814
15.4354	0.814
15.4752	0.805
15.515	0.81
15.5548	0.807
15.5947	0.805
15.6345	0.804
15.6743	0.797
15.7142	0.799
15.754	0.796
15.7938	0.789
15.8336	0.776
15.8735	0.781
15.9133	0.777
15.9531	0.762
15.993	0.761
