Infrared Spectrum: Diphenylacetylene
Formula: C 14 H 10
CAS: 501-65-5
State: gas
Instrument: HP-GC/MS/IRD
Origin: NIST Mass Spectrometry Data Center
1/CM	ABSORBANCE
550	0.0012796
562	0.000714
574	0.0006902
586	0.0009352
598	0.0004298
610	0.00042
622	0.0004872
634	0.0004774
646	0.0006426
658	0.0020202
670	0.0046074
682	0.0083286
694	0.0089614
706	0.0053298
718	0.0026362
730	0.0042168
742	0.0099106
754	0.014
766	0.00889
778	0.002695
790	0.0010654
802	0.0009114
814	0.0005782
826	0.0003318
838	0.0003472
850	0.000343
862	0.0004284
874	0.0006048
886	0.0008568
898	0.0010108
910	0.0011256
922	0.0007532
934	0.0003108
946	0.0001204
958	0.000133
970	0.0001722
982	0.0001736
994	0.0003122
1006	0.0003892
1018	0.0013972
1030	0.0021252
1042	0.0008596
1054	0.0010724
1066	0.0012698
1078	0.0008988
1090	0.00056
1102	0.0003472
1114	0.0001372
1126	4.06e-05
1138	4.2e-06
1150	6.3e-05
1162	7.14e-05
1174	0.000308
1186	7.42e-05
1198	2.66e-05
1210	3.78e-05
1222	9.1e-05
1234	0.0001442
1246	0.0001834
1258	0.0002016
1270	0.000217
1282	0.0002828
1294	0.000833
1306	0.0021154
1318	0.000679
1330	0.0003094
1342	0.0001932
1354	0.0002296
1366	0.0002478
1378	0.0002016
1390	0.0001162
1402	0.0001358
1414	0.0003248
1426	0.0007518
1438	0.0015596
1450	0.0013216
1462	0.000749
1474	0.0012292
1486	0.0038626
1498	0.0119476
1510	0.0025214
1522	0.00091
1534	0.0009562
1546	0.000546
1558	0.0005824
1570	0.000987
1582	0.0019208
1594	0.0053746
1606	0.0075516
1618	0.0011242
1630	0.0003878
1642	0.0002842
1654	0.0005026
1666	0.0007504
1678	0.000203
1690	0.0001316
1702	0.0001694
1714	0.0002422
1726	0.000504
1738	0.0005894
1750	0.0004676
1762	0.0002758
1774	0.000308
1786	0.0006258
1798	0.0009114
1810	0.0005782
1822	0.0005586
1834	0.0002436
1846	0.000266
1858	0.0004046
1870	0.0006034
1882	0.0009646
1894	0.0006202
1906	0.0002212
1918	0.0003388
1930	0.0005978
1942	0.0007882
1954	0.001113
1966	0.0004326
1978	0.0001022
1990	7.7e-05
2002	6.16e-05
2014	2.66e-05
2026	3.64e-05
2038	0
2050	1.54e-05
2062	2.94e-05
2074	2.66e-05
2086	2.52e-05
2098	2.94e-05
2110	2.24e-05
2122	2.38e-05
2134	2.66e-05
2146	3.78e-05
2158	6.16e-05
2170	6.44e-05
2182	5.46e-05
2194	1.4e-05
2206	1.96e-05
2218	3.92e-05
2230	5.18e-05
2242	7.42e-05
2254	0.000119
2266	0.0001078
2278	4.62e-05
2290	4.48e-05
2302	7.42e-05
2314	0.0002226
2326	0.000161
2338	0.0001638
2350	0.000133
2362	7e-05
2374	1.12e-05
2386	2.94e-05
2398	2.94e-05
2410	3.22e-05
2422	5.32e-05
2434	9.66e-05
2446	4.9e-05
2458	5.18e-05
2470	4.06e-05
2482	4.2e-05
2494	4.2e-05
2506	5.18e-05
2518	2.52e-05
2530	5.18e-05
2542	5.04e-05
2554	2.24e-05
2566	2.1e-05
2578	5.04e-05
2590	7e-05
2602	7.84e-05
2614	7.84e-05
2626	7.7e-05
2638	4.9e-05
2650	4.62e-05
2662	4.2e-05
2674	5.32e-05
2686	4.34e-05
2698	6.02e-05
2710	7.7e-05
2722	7.84e-05
2734	0.0001526
2746	0.0001764
2758	0.0001428
2770	0.0001022
2782	7.98e-05
2794	5.18e-05
2806	7.84e-05
2818	7.56e-05
2830	9.66e-05
2842	0.000119
2854	0.0001624
2866	0.0001876
2878	0.000238
2890	0.0002408
2902	0.0002086
2914	0.000168
2926	0.0002338
2938	0.0002296
2950	0.0001848
2962	0.0002282
2974	0.0002912
2986	0.0003374
2998	0.000574
3010	0.001141
3022	0.0021966
3034	0.0042336
3046	0.0042336
3058	0.0062944
3070	0.0112462
3082	0.0068852
3094	0.0057638
3106	0.00371
3118	0.0011466
3130	0.0005334
3142	0.0005264
3154	0.0003402
3166	0.0001246
3178	0.000119
3190	0.0001064
3202	9.94e-05
3214	0.0001274
3226	5.04e-05
3238	5.18e-05
3250	6.44e-05
3262	3.5e-05
3274	6.02e-05
3286	4.62e-05
3298	2.1e-05
3310	4.76e-05
3322	5.88e-05
3334	8.68e-05
3346	7.7e-05
3358	7.56e-05
3370	6.44e-05
3382	8.54e-05
3394	7.7e-05
3406	3.08e-05
3418	2.94e-05
3430	3.92e-05
3442	5.74e-05
3454	7.84e-05
3466	7.56e-05
3478	4.76e-05
3490	1.4e-05
3502	2.38e-05
3514	6.72e-05
3526	6.02e-05
3538	5.88e-05
3550	6.86e-05
3562	4.2e-06
3574	8.4e-05
3586	3.36e-05
3598	0.0001022
3610	6.02e-05
3622	7.28e-05
3634	7.84e-05
3646	0.0001288
3658	0.0001064
3670	0.0001064
3682	0.000119
3694	8.4e-05
3706	9.1e-05
3718	0.0001442
3730	0.000105
3742	8.26e-05
3754	0.0001218
3766	0.0001428
3778	0.000119
3790	0.0001232
3802	7e-05
3814	5.88e-05
3826	6.86e-05
3838	0.0001106
