Infrared Spectrum: 3-n-Pentadecylphenol
Formula: C 21 H 36 O
CAS: 501-24-6
State: gas
Origin: EPA-IR VAPOR PHASE LIBRARY
1/CM	ABSORBANCE
549.8	0.001906
559.445	0.0005599
569.09	0.000698
578.734	0.0010369
588.379	0.001996
598.024	0.0011206
607.669	0.0007411
617.313	0.00033324
626.958	0.0006546
636.603	0.000656
646.248	0.0006194
655.893	0.001706
665.537	0.002366
675.182	0.006286
684.827	0.014756
694.472	0.017576
704.116	0.008596
713.761	0.007866
723.406	0.008116
733.051	0.008146
742.695	0.009666
752.34	0.011946
761.985	0.016636
771.63	0.021336
781.275	0.016696
790.919	0.008156
800.564	0.004366
810.209	0.003566
819.854	0.003126
829.498	0.004136
839.143	0.005826
848.788	0.007046
858.433	0.007196
868.078	0.007676
877.722	0.008316
887.367	0.006416
897.012	0.006426
906.657	0.007066
916.301	0.007706
925.946	0.008976
935.591	0.010326
945.236	0.009746
954.88	0.006746
964.525	0.004696
974.17	0.003676
983.815	0.003476
993.46	0.004146
1003.1	0.004126
1012.75	0.003076
1022.39	0.002706
1032.04	0.002836
1041.68	0.003466
1051.33	0.003646
1060.97	0.004546
1070.62	0.005876
1080.26	0.006326
1089.91	0.004966
1099.55	0.004346
1109.2	0.005276
1118.84	0.007026
1128.49	0.010706
1138.13	0.024006
1147.78	0.048376
1157.42	0.042256
1167.07	0.027296
1176.71	0.030986
1186.36	0.038516
1196	0.039356
1205.64	0.024616
1215.29	0.014146
1224.93	0.010036
1234.58	0.009196
1244.22	0.011506
1253.87	0.016796
1263.51	0.025376
1273.16	0.030666
1282.8	0.023436
1292.45	0.019036
1302.09	0.020256
1311.74	0.020596
1321.38	0.016106
1331.03	0.012816
1340.67	0.013166
1350.32	0.013546
1359.96	0.011276
1369.61	0.008956
1379.25	0.006936
1388.9	0.005746
1398.54	0.005076
1408.18	0.005516
1417.83	0.006636
1427.47	0.009546
1437.12	0.018296
1446.76	0.034696
1456.41	0.043266
1466.05	0.037366
1475.7	0.027706
1485.34	0.026136
1494.99	0.020036
1504.63	0.011466
1514.28	0.007096
1523.92	0.006136
1533.57	0.005506
1543.21	0.005096
1552.86	0.005946
1562.5	0.008906
1572.15	0.015726
1581.79	0.030456
1591.44	0.045026
1601.08	0.044996
1610.73	0.040256
1620.37	0.025676
1630.01	0.011346
1639.66	0.005136
1649.3	0.002876
1658.95	0.002136
1668.59	0.001896
1678.24	0.001846
1687.88	0.001656
1697.53	0.001696
1707.17	0.001616
1716.82	0.001646
1726.46	0.001716
1736.11	0.001606
1745.75	0.001486
1755.4	0.001306
1765.04	0.0010826
1774.69	0.0008989
1784.33	0.0008308
1793.98	0.0008627
1803.62	0.0009878
1813.27	0.0010796
1822.91	0.001296
1832.55	0.001356
1842.2	0.0012303
1851.84	0.0008128
1861.49	0.0008247
1871.13	0.000774
1880.78	0.0008125
1890.42	0.0010894
1900.07	0.001436
1909.71	0.001836
1919.36	0.001716
1929	0.0010665
1938.65	0.0008365
1948.29	0.0006291
1957.94	0.0006631
1967.58	0.0007134
1977.23	0.0008018
1986.87	0.0006905
1996.52	0.0007645
2006.16	0.0007957
2015.81	0.0009709
2025.45	0.0009485
2035.1	0.0010587
2044.74	0.0010003
2054.38	0.0009617
2064.03	0.0010356
2073.67	0.0009104
2083.32	0.000939
2092.96	0.0008079
2102.61	0.0009886
2112.25	0.0009483
2121.9	0.0009673
2131.54	0.0009242
2141.19	0.0008476
2150.83	0.0010511
2160.48	0.0009397
2170.12	0.0009919
2179.77	0.0009909
2189.41	0.0010434
2199.06	0.0009882
2208.7	0.0010277
2218.35	0.0009285
2227.99	0.000956
2237.64	0.0009398
2247.28	0.0009052
2256.92	0.0007631
2266.57	0.0010202
2276.21	0.0008776
2285.86	0.0009575
2295.5	0.0011567
2305.15	0.0010591
2314.79	0.001276
2324.44	0.001446
2334.08	0.001346
2343.73	0.001336
2353.37	0.001416
2363.02	0.001436
2372.66	0.001296
2382.31	0.001366
2391.95	0.001336
2401.6	0.001516
2411.24	0.001366
2420.89	0.001436
2430.53	0.001456
2440.18	0.001356
2449.82	0.001486
2459.47	0.001376
2469.11	0.001376
2478.75	0.001416
2488.4	0.001376
2498.04	0.0012512
2507.69	0.001556
2517.33	0.001516
2526.98	0.001696
2536.62	0.001646
2546.27	0.001626
2555.91	0.001486
2565.56	0.001656
2575.2	0.001636
2584.85	0.002006
2594.49	0.002096
2604.14	0.002436
2613.78	0.002426
2623.43	0.002606
2633.07	0.002786
2642.72	0.003056
2652.36	0.003076
2662.01	0.003446
2671.65	0.003686
2681.29	0.003716
2690.94	0.003606
2700.58	0.003416
2710.23	0.003296
2719.87	0.003386
2729.52	0.003716
2739.16	0.003986
2748.81	0.004256
2758.45	0.004636
2768.1	0.004926
2777.74	0.005366
2787.39	0.006636
2797.03	0.007896
2806.68	0.009626
2816.32	0.012036
2825.97	0.015556
2835.61	0.021806
2845.26	0.037906
2854.9	0.090396
2864.55	0.133406
2874.19	0.088446
2883.84	0.064856
2893.48	0.062566
2903.12	0.086236
2912.77	0.133876
2922.41	0.231776
2932.06	0.361516
2941.7	0.268876
2951.35	0.133566
2960.99	0.084966
2970.64	0.067986
2980.28	0.036666
2989.93	0.022066
2999.57	0.016686
3009.22	0.015636
3018.86	0.015246
3028.51	0.015226
3038.15	0.019506
3047.8	0.017136
3057.44	0.013306
3067.09	0.011416
3076.73	0.009706
3086.38	0.007306
3096.02	0.005596
3105.67	0.004426
3115.31	0.003476
3124.95	0.002486
3134.6	0.001806
3144.24	0.001586
3153.89	0.001746
3163.53	0.001646
3173.18	0.001376
3182.82	0.001486
3192.47	0.0009929
3202.11	0.0012089
3211.76	0.0010301
3221.4	0.0010622
3231.05	0.0007873
3240.69	0.000749
3250.34	0.0006452
3259.98	0.0008256
3269.63	0.0006165
3279.27	0.000459
3288.92	0.0003905
3298.56	0.0007744
3308.21	0.0004595
3317.85	0.0005133
3327.49	0.0008404
3337.14	0.0011428
3346.78	0.0010032
3356.43	0.0010007
3366.07	0.0007465
3375.72	0.0008099
3385.36	0.0010336
3395.01	0.0008782
3404.65	0.0009049
3414.3	0.0008452
3423.94	0.0009841
3433.59	0.0003679
3443.23	0.0008695
3452.88	0.0004876
3462.52	0.0007038
3472.17	0.0006714
3481.81	0.0006043
3491.46	0.0004763
3501.1	0.0004309
3510.75	0.0004171
3520.39	0.000269645
3530.04	0.0004899
3539.68	0.0006588
3549.32	0.0004217
3558.97	0.0003987
3568.61	0.0006609
3578.26	0.0006292
3587.9	0.0009
3597.55	0.001276
3607.19	0.001536
3616.84	0.001966
3626.48	0.004496
3636.13	0.011916
3645.77	0.031236
3655.42	0.035756
3665.06	0.009186
3674.71	0.003046
3684.35	0.001546
3694	0.0011455
3703.64	0.0010943
3713.29	0.0007777
3722.93	0.0009979
3732.58	0.0007037
3742.22	0.0009951
3751.86	0.0006734
3761.51	0.0009973
3771.15	0.0005394
3780.8	0.0011867
3790.44	0.0006639
3800.09	0.0011105
3809.73	0.0011013
3819.38	0.001446
3829.02	0.0008802
3838.67	0.001296
3848.31	0.0010501
3857.96	0.0011033
3867.6	0.0008927
3877.25	0.0010135
3886.89	0.0005976
3896.54	0.0012037
3906.18	0.0009458
3915.83	0.0008562
3925.47	0.0008517
3935.12	0.0010201
3944.76	0.0009652
3954.41	0.0009827
3964.05	0.0010493
3973.69	0.0008252
3983.34	0.0009995
3992.98	0.0006314
