Infrared Spectrum: Carbobenzoxy chloride
Formula: C 8 H 7 Cl O 2
CAS: 501-53-1
State: gas
Instrument: HP-GC/MS/IRD
Origin: NIST Mass Spectrometry Data Center
1/CM	ABSORBANCE
550	0.0010458
562	0.000498
574	0.0011454
586	0.002075
598	0.001494
610	0.0002988
622	0.0001162
634	0.0005146
646	0.0017762
658	0.0025232
670	0.0130144
682	0.0127654
694	0.0207832
706	0.01743
718	0.0119022
730	0.009628
742	0.01079
754	0.0071878
766	0.0040504
778	0.0054946
790	0.010956
802	0.0165336
814	0.0124998
826	0.0054448
838	0.0027224
850	0.0020086
862	0.0025564
874	0.0037848
886	0.0042828
898	0.003569
910	0.002656
922	0.0021912
934	0.002739
946	0.0030046
958	0.002822
970	0.0025066
982	0.002656
994	0.0033366
1006	0.0037018
1018	0.0031374
1030	0.0036686
1042	0.001909
1054	0.0022078
1066	0.0038346
1078	0.0064242
1090	0.0114208
1102	0.0255806
1114	0.0622334
1126	0.130808
1138	0.166
1150	0.118707
1162	0.0621836
1174	0.0218954
1186	0.011454
1198	0.0093126
1210	0.009794
1222	0.0061088
1234	0.0047974
1246	0.005395
1258	0.007885
1270	0.0076692
1282	0.0046314
1294	0.0027888
1306	0.0019754
1318	0.0016102
1330	0.0014276
1342	0.0016434
1354	0.0028552
1366	0.0052456
1378	0.0046978
1390	0.0020086
1402	0.0008964
1414	0.000581
1426	0.0008632
1438	0.0020916
1450	0.0042828
1462	0.0047808
1474	0.0025066
1486	0.0016434
1498	0.0027722
1510	0.0011786
1522	0.000166
1534	4.98e-05
1546	1.66e-05
1558	3.32e-05
1570	0.0001826
1582	0.0003652
1594	0.0004814
1606	0.0004482
1618	0.0001826
1630	3.32e-05
1642	1.66e-05
1654	1.66e-05
1666	6.64e-05
1678	0.0002158
1690	0.0002988
1702	0.0006142
1714	0.0012284
1726	0.0024402
1738	0.0047476
1750	0.008383
1762	0.0161518
1774	0.0366528
1786	0.072957
1798	0.0697532
1810	0.0321542
1822	0.0139772
1834	0.0064076
1846	0.0038014
1858	0.0023074
1870	0.0015604
1882	0.0011288
1894	0.000747
1906	0.0005312
1918	0.0006142
1930	0.0008964
1942	0.0010292
1954	0.000996
1966	0.000664
1978	0.0001494
1990	8.3e-05
2002	0.0001162
2014	0.0001162
2026	0.0001162
2038	0.0001162
2050	0.0001328
2062	0.0001992
2074	0.0001992
2086	0.0001826
2098	0.0001992
2110	0.000166
2122	8.3e-05
2134	3.32e-05
2146	3.32e-05
2158	3.32e-05
2170	8.3e-05
2182	9.96e-05
2194	0.000166
2206	0.000249
2218	0.0004482
2230	0.0006806
2242	0.001079
2254	0.0015438
2266	0.0021414
2278	0.003486
2290	0.0068226
2302	0.0127654
2314	0.0199698
2326	0.0241032
2338	0.0222274
2350	0.0190236
2362	0.0312744
2374	0.0228914
2386	0.0055112
2398	0.0006806
2410	0.0003486
2422	0.0002656
2434	0.0001162
2446	9.96e-05
2458	8.3e-05
2470	8.3e-05
2482	0
2494	4.98e-05
2506	3.32e-05
2518	3.32e-05
2530	3.32e-05
2542	1.66e-05
2554	0
2566	0
2578	4.98e-05
2590	8.3e-05
2602	8.3e-05
2614	4.98e-05
2626	4.98e-05
2638	6.64e-05
2650	6.64e-05
2662	1.66e-05
2674	8.3e-05
2686	4.98e-05
2698	8.3e-05
2710	0.0001162
2722	4.98e-05
2734	8.3e-05
2746	6.64e-05
2758	6.64e-05
2770	8.3e-05
2782	0.0001494
2794	0.000166
2806	0.0002656
2818	0.0003486
2830	0.0003818
2842	0.0002822
2854	0.0002988
2866	0.0004814
2878	0.0007636
2890	0.0012616
2902	0.0014442
2914	0.001328
2926	0.0013446
2938	0.0016766
2950	0.0026228
2962	0.0041002
2974	0.0045318
2986	0.0032868
2998	0.0024568
3010	0.0024734
3022	0.003735
3034	0.0069388
3046	0.0080012
3058	0.005976
3070	0.0084494
3082	0.0079182
3094	0.0047808
3106	0.0032702
3118	0.0018592
3130	0.0007636
3142	0.0002988
3154	0.0002324
3166	0.0002158
3178	0.000166
3190	9.96e-05
3202	0.0001162
3214	3.32e-05
3226	4.98e-05
3238	9.96e-05
3250	8.3e-05
3262	0.0001162
3274	9.96e-05
3286	4.98e-05
3298	6.64e-05
3310	4.98e-05
3322	1.66e-05
3334	9.96e-05
3346	8.3e-05
3358	9.96e-05
3370	0.0001162
3382	6.64e-05
3394	0.0001328
3406	0.0001494
3418	8.3e-05
3430	6.64e-05
3442	8.3e-05
3454	9.96e-05
3466	0.0001162
3478	0.0002158
3490	0.000166
3502	0.0001826
3514	0.0002988
3526	0.0002988
3538	0.0005478
3550	0.0008632
3562	0.0010458
3574	0.000996
3586	0.0007802
3598	0.0007304
3610	0.000581
3622	0.000581
3634	0.0006806
3646	0.0003984
3658	0.0003652
3670	0.0004316
3682	0.000498
3694	0.0006806
3706	0.0006474
3718	0.0005146
3730	0.0007968
3742	0.0007304
3754	0.0003652
3766	0.000166
3778	0.0002158
3790	0.000166
3802	0.0001992
3814	0.0002324
3826	0.000249
3838	0.0002324
