Infrared Spectrum: m-Fluorophenylacetonitrile
Formula: C8 H6 F N
CAS: 501-00-8
State: SOLUTION (10% CCl4 FOR 3800-1330, 10% CS2 FOR 1330-460 CM^-^1)
Class: COBLENTZ III
Instrument: DOW KBr FOREPRISM-GRATING
Instrument parameters: BLAZED AT 3.5, 12.0, 20.0 MICRON AND CHANGED AT 5.0, 7.5, 14.9 MICRON
Sampling: TRANSMISSION
Path length: 0.010 CM, 0.010 CM
Resolution: 2
Origin: DOW CHEMICAL COMPANY
1/CM	TRANSMITTANCE
3796	0.8793
3787	0.8789
3778	0.8804
3769	0.8793
3760	0.8791
3751	0.8784
3742	0.8791
3733	0.8839
3724	0.8859
3715	0.8842
3706	0.8807
3697	0.8764
3688	0.8716
3679	0.8704
3670	0.8716
3661	0.8732
3652	0.8752
3643	0.8768
3634	0.8783
3625	0.8794
3616	0.88
3607	0.8802
3598	0.88
3589	0.8802
3580	0.8781
3571	0.8751
3562	0.873
3553	0.8723
3544	0.872
3535	0.8717
3526	0.8712
3517	0.8713
3508	0.8716
3499	0.8717
3490	0.872
3481	0.8723
3472	0.8727
3463	0.873
3454	0.8733
3445	0.8736
3436	0.874
3427	0.8743
3418	0.8747
3409	0.8751
3400	0.8755
3391	0.8758
3382	0.8762
3373	0.877
3364	0.8779
3355	0.8789
3346	0.8797
3337	0.8813
3328	0.8817
3319	0.8829
3310	0.885
3301	0.8856
3292	0.8865
3283	0.8879
3274	0.8887
3265	0.8894
3256	0.8889
3247	0.8892
3238	0.8883
3229	0.8839
3220	0.8801
3211	0.8795
3202	0.8794
3193	0.8809
3184	0.8816
3175	0.8824
3166	0.8819
3157	0.8818
3148	0.8809
3139	0.8808
3130	0.8802
3121	0.877
3112	0.8734
3103	0.8692
3094	0.8373
3085	0.8277
3076	0.7855
3067	0.7777
3058	0.8044
3049	0.8064
3040	0.8177
3031	0.8291
3022	0.8432
3013	0.8604
3004	0.8722
2995	0.8727
2986	0.8736
2977	0.8677
2968	0.8613
2959	0.8557
2950	0.8539
2941	0.8518
2932	0.85
2923	0.8496
2914	0.852
2905	0.8614
2896	0.8704
2887	0.8791
2878	0.8876
2869	0.89
2860	0.8924
2851	0.8934
2842	0.8941
2833	0.8925
2824	0.8922
2815	0.8938
2806	0.897
2797	0.8994
2788	0.9007
2779	0.9033
2770	0.9033
2761	0.9023
2752	0.9015
2743	0.9012
2734	0.9016
2725	0.9019
2716	0.9039
2707	0.9062
2698	0.9078
2689	0.9085
2680	0.9094
2671	0.9101
2662	0.9104
2653	0.911
2644	0.91
2635	0.9092
2626	0.9086
2617	0.907
2608	0.9056
2599	0.9062
2590	0.9068
2581	0.9075
2572	0.9099
2563	0.9121
2554	0.914
2545	0.9147
2536	0.9154
2527	0.9148
2518	0.9141
2509	0.9134
2500	0.9146
2491	0.9157
2482	0.9165
2473	0.9179
2464	0.918
2455	0.917
2446	0.9175
2437	0.917
2428	0.9167
2419	0.9146
2410	0.9123
2401	0.9103
2392	0.909
2383	0.9102
2374	0.9129
2365	0.9133
2356	0.9164
2347	0.9178
2338	0.9168
2329	0.9152
2320	0.9154
2311	0.9148
2302	0.9129
2293	0.905
2284	0.889
2275	0.8465
2266	0.7207
2257	0.7873
2248	0.8688
2239	0.903
2230	0.9151
2221	0.9175
2212	0.9195
2203	0.9214
2194	0.9228
2185	0.9231
2176	0.9219
2167	0.9188
2158	0.9183
2149	0.9191
2140	0.9199
2131	0.9199
2122	0.919
2113	0.9192
2104	0.9186
2095	0.918
2086	0.9176
2077	0.9174
2068	0.9174
2059	0.9167
2050	0.9165
2041	0.9148
2032	0.9133
2023	0.9124
2014	0.9113
2005	0.9106
1996	0.896
1987	0.8851
1978	0.8861
1969	0.8871
1960	0.8897
1951	0.8874
1942	0.8708
1933	0.8351
1924	0.8654
1915	0.8822
1906	0.8832
1897	0.8828
1888	0.8764
1879	0.8758
1870	0.8723
1861	0.841
1852	0.855
1843	0.877
1834	0.8774
1825	0.8657
1816	0.8696
1807	0.8768
1798	0.881
1789	0.8822
1780	0.8815
1771	0.8805
1762	0.8782
1753	0.8624
1744	0.8415
1735	0.8537
1726	0.8719
1717	0.868
1708	0.8657
1699	0.8666
1690	0.8652
1681	0.8606
1672	0.8511
1663	0.842
1654	0.8416
1645	0.8292
1636	0.7869
1627	0.5295
1618	0.1526
1609	0.4424
1600	0.0834
1591	0.2233
1582	0.4099
1573	0.5779
1564	0.617
1555	0.5903
1546	0.6376
1537	0.6855
1528	0.6133
1519	0.6162
1510	0.6636
1501	0.5016
1492	0.0542
1483	0.4496
1474	0.7058
1465	0.6552
1456	0.0918
1447	0.5118
1438	0.6376
1429	0.6941
1420	0.3287
1411	0.7036
1402	0.8178
1393	0.8635
1384	0.8898
1375	0.8793
1366	0.8833
1357	0.8832
1348	0.8801
1339	0.8671
1330	0.836
1321	0.7761
1312	0.7361
1303	0.7486
1294	0.7975
1285	0.7667
1276	0.4451
1267	0.5099
1258	0.3667
1249	0.2313
1240	0.4767
1231	0.6014
1222	0.7164
1213	0.7916
1204	0.8305
1195	0.8527
1186	0.86
1177	0.8465
1168	0.8204
1159	0.7319
1150	0.7755
1141	0.2836
1132	0.4939
1123	0.8297
1114	0.8755
1105	0.8898
1096	0.8871
1087	0.8711
1078	0.7246
1069	0.8574
1060	0.8869
1051	0.8912
1042	0.8922
1033	0.8915
1024	0.8871
1015	0.8896
1006	0.8206
997	0.8747
988	0.8478
979	0.8425
970	0.7117
961	0.6471
952	0.4797
943	0.7725
934	0.5806
925	0.7283
916	0.7947
907	0.757
898	0.591
889	0.3326
880	0.6721
871	0.6938
862	0.5511
853	0.4198
844	0.7774
835	0.8392
826	0.8517
817	0.8474
808	0.834
799	0.7604
790	0.4081
781	0.081
772	0.4344
763	0.6954
754	0.622
745	0.4223
736	0.7592
727	0.8302
718	0.8343
709	0.8135
700	0.7859
691	0.5794
682	0.2067
673	0.7624
664	0.8259
655	0.8126
646	0.8188
637	0.8255
628	0.8344
619	0.8431
610	0.8466
601	0.8446
592	0.842
583	0.8381
574	0.8341
565	0.8277
556	0.8131
547	0.7858
538	0.7885
529	0.607
520	0.7047
511	0.7931
502	0.7934
493	0.7906
484	0.7832
475	0.7755
466	0.7648
