Infrared Spectrum: 2,3-BUTANEDIONE OXIME THIOSEMICARBAZONE
Formula: C5 H10 N4 O S
CAS: 5012-80-6
State: SOLID (OIL MULL)
Melting point: 202 C DECOMPOSES
Class: COBLENTZ
Instrument: Not specified, most likely a prism, grating, or hybrid spectrometer.
Sampling: TRANSMISSION
Resolution: 4
Origin: WYANDOTTE CHEMICALS CORP., WYANDOTTE, MICHIGAN, USA
MICROMETERS	TRANSMITTANCE
2.316	0.561
2.35584	0.576
2.39568	0.591
2.43553	0.604
2.47537	0.622
2.51521	0.637
2.55505	0.647
2.59489	0.647
2.63473	0.672
2.67458	0.682
2.71442	0.689
2.75426	0.696
2.7941	0.707
2.83394	0.734
2.87378	0.752
2.91363	0.765
2.95347	0.528
2.99331	0.591
3.03315	0.548
3.07299	0.34
3.11283	0.26
3.15268	0.318
3.19252	0.275
3.23236	0.317
3.2722	0.26
3.31204	0.254
3.35188	0.029
3.39173	0.026
3.43157	0.033
3.47141	0.034
3.51125	0.041
3.55109	0.239
3.59093	0.392
3.63078	0.465
3.67062	0.495
3.71046	0.529
3.7503	0.568
3.79014	0.574
3.82998	0.581
3.86983	0.616
3.90967	0.634
3.94951	0.656
3.98935	0.669
4.02919	0.677
4.06903	0.687
4.10888	0.689
4.14872	0.687
4.18856	0.689
4.2284	0.699
4.26824	0.704
4.30808	0.707
4.34793	0.699
4.38777	0.692
4.42761	0.722
4.46745	0.734
4.50729	0.749
4.54713	0.75
4.58698	0.752
4.62682	0.757
4.66666	0.765
4.7065	0.772
4.74634	0.779
4.78618	0.782
4.82603	0.799
4.86587	0.805
4.90571	0.807
4.94555	0.815
4.98539	0.817
5.02523	0.822
5.06508	0.825
5.10492	0.828
5.14476	0.825
5.1846	0.825
5.22444	0.825
5.26428	0.843
5.30413	0.85
5.34397	0.862
5.38381	0.872
5.42365	0.88
5.46349	0.892
5.50333	0.903
5.54318	0.913
5.58302	0.92
5.62286	0.925
5.6627	0.928
5.70254	0.928
5.74239	0.923
5.78223	0.9
5.82207	0.847
5.86191	0.799
5.90175	0.857
5.94159	0.905
5.98144	0.933
6.02128	0.95
6.06112	0.963
6.10096	0.936
6.1408	0.815
6.18064	0.455
6.22049	0.257
6.26033	0.471
6.30017	0.679
6.34001	0.784
6.37985	0.838
6.41969	0.895
6.45954	0.95
6.49938	0.95
6.53922	0.911
6.57906	0.802
6.6189	0.533
6.65874	0.279
6.69859	0.204
6.73843	0.192
6.77827	0.137
6.81811	0.076
6.85795	0.063
6.89779	0.084
6.93764	0.147
6.97748	0.227
7.01732	0.32
7.05716	0.37
7.097	0.367
7.13684	0.333
7.17669	0.357
7.21653	0.249
7.25637	0.124
7.29621	0.074
7.33605	0.116
7.37589	0.079
7.41574	0.176
7.45558	0.264
7.49542	0.347
7.53526	0.378
7.5751	0.372
7.61494	0.475
7.65479	0.523
7.69463	0.426
7.73447	0.31
7.77431	0.259
7.81415	0.262
7.85399	0.325
7.89384	0.393
7.93368	0.428
7.97352	0.426
8.01336	0.441
8.0532	0.458
8.09304	0.468
8.13289	0.47
8.17273	0.473
8.21257	0.438
8.25241	0.4
8.29225	0.335
8.33209	0.25
8.37194	0.212
8.41178	0.235
8.45162	0.277
8.49146	0.284
8.5313	0.225
8.57114	0.205
8.61099	0.197
8.65083	0.171
8.69067	0.144
8.73051	0.144
8.77035	0.156
8.81019	0.109
8.85004	0.054
8.88988	0.034
8.92972	0.034
8.96956	0.041
9.0094	0.058
9.04925	0.056
9.08909	0.046
9.12893	0.034
9.16877	0.033
9.20861	0.029
9.24845	0.034
9.2883	0.036
9.32814	0.054
9.36798	0.089
9.40782	0.157
9.44766	0.219
9.4875	0.259
9.52735	0.305
9.56719	0.328
9.60703	0.35
9.64687	0.353
9.68671	0.347
9.72655	0.34
9.7664	0.3
9.80624	0.257
9.84608	0.2
9.88592	0.177
9.92576	0.189
9.9656	0.24
10.0054	0.289
10.0453	0.333
10.0851	0.347
10.125	0.313
10.1648	0.287
10.2047	0.274
10.2445	0.289
10.2843	0.35
10.3242	0.411
10.364	0.436
10.4039	0.445
10.4437	0.466
10.4835	0.518
10.5234	0.551
10.5632	0.576
10.6031	0.566
10.6429	0.498
10.6828	0.372
10.7226	0.23
10.7624	0.192
10.8023	0.219
10.8421	0.259
10.882	0.33
10.9218	0.375
10.9616	0.428
11.0015	0.46
11.0413	0.48
11.0812	0.5
11.121	0.509
11.1609	0.503
11.2007	0.495
11.2405	0.514
11.2804	0.503
11.3202	0.45
11.3601	0.448
11.3999	0.521
11.4397	0.584
11.4796	0.636
11.5194	0.679
11.5593	0.702
11.5991	0.722
11.639	0.73
11.6788	0.732
11.7186	0.727
11.7585	0.719
11.7983	0.652
11.8382	0.509
11.878	0.435
11.9178	0.463
11.9577	0.554
11.9975	0.621
12.0374	0.651
12.0772	0.686
12.1171	0.707
12.1569	0.719
12.1967	0.72
12.2366	0.719
12.2764	0.715
12.3163	0.71
12.3561	0.705
12.3959	0.705
12.4358	0.705
12.4756	0.697
12.5155	0.672
12.5553	0.637
12.5952	0.601
12.635	0.554
12.6748	0.496
12.7147	0.453
12.7545	0.443
12.7944	0.395
12.8342	0.302
12.874	0.29
12.9139	0.297
12.9537	0.332
12.9936	0.353
13.0334	0.363
13.0733	0.37
13.1131	0.373
13.1529	0.365
13.1928	0.355
13.2326	0.322
13.2725	0.3
13.3123	0.265
13.3521	0.245
13.392	0.224
13.4318	0.204
13.4717	0.2
13.5115	0.194
13.5514	0.235
13.5912	0.292
13.631	0.345
13.6709	0.368
13.7107	0.39
13.7506	0.38
13.7904	0.363
13.8302	0.33
13.8701	0.305
13.9099	0.295
13.9498	0.279
13.9896	0.275
14.0295	0.282
14.0693	0.307
14.1091	0.345
14.149	0.375
14.1888	0.401
14.2287	0.42
14.2685	0.426
14.3083	0.43
14.3482	0.428
14.388	0.423
14.4279	0.42
14.4677	0.423
14.5076	0.433
14.5474	0.456
14.5872	0.495
14.6271	0.526
14.6669	0.558
14.7068	0.583
14.7466	0.594
14.7864	0.583
14.8263	0.556
14.8661	0.551
14.906	0.554
14.9458	0.571
14.9857	0.602
15.0255	0.617
15.0653	0.614
15.1052	0.604
15.145	0.614
15.1849	0.636
15.2247	0.651
15.2645	0.666
15.3044	0.664
15.3442	0.656
15.3841	0.654
15.4239	0.647
15.4638	0.637
15.5036	0.627
15.5434	0.626
15.5833	0.627
15.6231	0.624
15.663	0.624
15.7028	0.622
15.7426	0.621
15.7825	0.614
15.8223	0.614
15.8622	0.612
15.902	0.611
15.9419	0.601
15.9817	0.596
