Infrared Spectrum: N-METHYL-2,4-DICHLOROBENZYLAMINE
Formula: C8 H9 Cl2 N
CAS: 5013-77-4
Class: COBLENTZ
Instrument: PERKIN-ELMER
Sampling: TRANSMISSION
Path length: CAPILLARY
Resolution: 4
Origin: ABBOTT LABORATORIES - WASHBURN
MICROMETERS	TRANSMITTANCE
2.52	0.842
2.55273	0.849
2.58545	0.852
2.61818	0.8541
2.6509	0.859
2.68363	0.8619
2.71635	0.8619
2.74908	0.8541
2.7818	0.857
2.81453	0.8518
2.84725	0.8519
2.87998	0.8418
2.9127	0.8238
2.94543	0.7994
2.97815	0.7488
3.01088	0.7079
3.0436	0.6908
3.07633	0.7269
3.10905	0.784
3.14178	0.792
3.1745	0.7919
3.20723	0.771
3.23995	0.7281
3.27268	0.718
3.3054	0.7177
3.33813	0.6233
3.37085	0.4506
3.40358	0.3736
3.4363	0.3992
3.46903	0.3989
3.50175	0.348
3.53448	0.4328
3.5672	0.3923
3.59993	0.4918
3.63265	0.7355
3.66538	0.7673
3.6981	0.779
3.73083	0.791
3.76355	0.8123
3.79628	0.8253
3.829	0.83
3.86173	0.832
3.89445	0.8351
3.92718	0.8339
3.9599	0.835
3.99263	0.8402
4.02535	0.8471
4.05808	0.849
4.0908	0.85
4.12353	0.852
4.15625	0.85
4.18898	0.849
4.2217	0.849
4.25443	0.854
4.28715	0.855
4.31988	0.855
4.3526	0.857
4.38533	0.857
4.41805	0.859
4.45078	0.859
4.4835	0.852
4.51623	0.8542
4.54895	0.8583
4.58168	0.8541
4.6144	0.859
4.64713	0.859
4.67985	0.86
4.71258	0.857
4.7453	0.855
4.77803	0.859
4.81075	0.8538
4.84348	0.8522
4.8762	0.859
4.90893	0.862
4.94165	0.86
4.97438	0.8536
5.0071	0.855
5.03983	0.857
5.07255	0.855
5.10528	0.8493
5.138	0.847
5.17073	0.8414
5.20345	0.8294
5.23618	0.8169
5.2689	0.8148
5.30163	0.8328
5.33435	0.8412
5.36708	0.8495
5.3998	0.852
5.43253	0.845
5.46525	0.849
5.49798	0.849
5.5307	0.8456
5.56343	0.842
5.59615	0.834
5.62888	0.8315
5.66161	0.8188
5.69433	0.814
5.72706	0.7961
5.75978	0.7871
5.79251	0.7955
5.82523	0.812
5.85796	0.817
5.89068	0.815
5.92341	0.8139
5.95613	0.8074
5.98886	0.8027
6.02158	0.799
6.05431	0.7927
6.08703	0.7818
6.11976	0.772
6.15248	0.776
6.18521	0.7625
6.21793	0.6666
6.25066	0.4295
6.28338	0.2363
6.31611	0.4532
6.34883	0.5704
6.38156	0.3655
6.41428	0.42
6.44701	0.6643
6.47973	0.7148
6.51246	0.7564
6.54518	0.7506
6.57791	0.742
6.61063	0.7085
6.64336	0.6563
6.67608	0.5951
6.70881	0.5164
6.74153	0.3815
6.77426	0.1778
6.80698	0.099
6.83971	0.1818
6.87243	0.2459
6.90516	0.2296
6.93788	0.2167
6.97061	0.3407
7.00333	0.4953
7.03606	0.5429
7.06878	0.551
7.10151	0.6522
7.13423	0.6589
7.16696	0.6105
7.19968	0.443
7.23241	0.2719
7.26513	0.4057
7.29786	0.5787
7.33058	0.6086
7.36331	0.5182
7.39603	0.4046
7.42876	0.504
7.46148	0.6273
7.49421	0.6885
7.52693	0.7432
7.55966	0.766
7.59238	0.7765
7.62511	0.7728
7.65783	0.7617
7.69056	0.756
7.72328	0.751
7.75601	0.7467
7.78873	0.7513
7.82146	0.749
7.85418	0.7464
7.88691	0.7331
7.91963	0.6977
7.95236	0.6565
7.98508	0.6588
8.01781	0.683
8.05053	0.688
8.08326	0.6883
8.11598	0.706
8.14871	0.7232
8.18143	0.7365
8.21416	0.746
8.24688	0.7498
8.27961	0.7157
8.31233	0.6423
8.34506	0.5838
8.37778	0.6081
8.41051	0.6559
8.44323	0.6829
8.47596	0.7011
8.50868	0.7122
8.54141	0.6868
8.57413	0.6377
8.60686	0.6011
8.63958	0.6031
8.67231	0.5781
8.70503	0.5712
8.73776	0.54
8.77049	0.472
8.80321	0.3913
8.83594	0.354
8.86866	0.3506
8.90139	0.3632
8.93411	0.378
8.96684	0.3998
8.99956	0.3965
9.03229	0.3503
9.06501	0.2475
9.09774	0.1612
9.13046	0.1325
9.16319	0.2072
9.19591	0.4406
9.22864	0.5899
9.26136	0.664
9.29409	0.6989
9.32681	0.7125
9.35954	0.7236
9.39226	0.73
9.42499	0.7103
9.45771	0.6273
9.49044	0.4779
9.52316	0.2718
9.55589	0.185
9.58861	0.3585
9.62134	0.5923
9.65406	0.6917
9.68679	0.7294
9.71951	0.7574
9.75224	0.7769
9.78496	0.7862
9.81769	0.7931
9.85041	0.796
9.88314	0.797
9.91586	0.7968
9.94859	0.7919
9.98131	0.7841
10.014	0.7676
10.0468	0.7562
10.0795	0.7242
10.1122	0.682
10.1449	0.6795
10.1777	0.7077
10.2104	0.7256
10.2431	0.7266
10.2758	0.7071
10.3086	0.6885
10.3413	0.679
10.374	0.6762
10.4067	0.6741
10.4395	0.6839
10.4722	0.6966
10.5049	0.704
10.5376	0.7107
10.5704	0.718
10.6031	0.7291
10.6358	0.7438
10.6685	0.7581
10.7013	0.771
10.734	0.7698
10.7667	0.7507
10.7994	0.7238
10.8322	0.7124
10.8649	0.703
10.8976	0.708
10.9303	0.708
10.9631	0.703
10.9958	0.6923
11.0285	0.7051
11.0612	0.723
11.094	0.733
11.1267	0.734
11.1594	0.734
11.1921	0.7296
11.2249	0.7172
11.2576	0.7055
11.2903	0.6959
11.323	0.6831
11.3558	0.6413
11.3885	0.6054
11.4212	0.5415
11.4539	0.4556
11.4867	0.3739
11.5194	0.2748
11.5521	0.2432
11.5848	0.2366
11.6176	0.2711
11.6503	0.3038
11.683	0.2897
11.7157	0.2303
11.7485	0.1972
11.7812	0.1966
11.8139	0.2556
11.8466	0.2897
11.8794	0.299
11.9121	0.3007
11.9448	0.2844
11.9775	0.2631
12.0103	0.2386
12.043	0.2185
12.0757	0.2039
12.1084	0.1982
12.1412	0.1879
12.1739	0.1616
12.2066	0.14
12.2393	0.1263
12.2721	0.1145
12.3048	0.1321
12.3375	0.1669
12.3702	0.2344
12.403	0.2916
12.4357	0.3401
12.4684	0.3653
12.5011	0.3864
12.5339	0.394
12.5666	0.393
12.5993	0.3877
12.632	0.3758
12.6648	0.3691
12.6975	0.3543
12.7302	0.3445
12.7629	0.3335
12.7957	0.3294
12.8284	0.3175
12.8611	0.3109
12.8938	0.3083
12.9266	0.305
12.9593	0.303
12.992	0.302
13.0247	0.303
13.0575	0.305
13.0902	0.31
13.1229	0.3159
13.1556	0.3276
13.1884	0.3353
13.2211	0.3485
13.2538	0.3565
13.2865	0.3643
13.3193	0.368
13.352	0.3758
13.3847	0.3803
13.4174	0.385
13.4502	0.3984
13.4829	0.4013
13.5156	0.4074
13.5483	0.4161
13.5811	0.4356
13.6138	0.4524
13.6465	0.4688
13.6792	0.4794
13.712	0.49
13.7447	0.499
13.7774	0.495
13.8101	0.499
13.8429	0.497
13.8756	0.4908
13.9083	0.489
13.941	0.4848
13.9738	0.485
14.0065	0.484
14.0392	0.4785
14.0719	0.4825
14.1047	0.48
14.1374	0.4762
14.1701	0.4748
14.2028	0.477
14.2356	0.4703
14.2683	0.4562
14.301	0.4463
14.3337	0.4362
14.3665	0.4302
14.3992	0.424
14.4319	0.4109
14.4646	0.396
14.4974	0.388
14.5301	0.3936
14.5628	0.394
14.5955	0.3997
14.6283	0.4116
14.661	0.4367
14.6937	0.4668
14.7264	0.4977
14.7592	0.5219
14.7919	0.541
14.8246	0.5587
14.8573	0.5776
14.8901	0.593
14.9228	0.6107
14.9555	0.6287
