Infrared Spectrum: 5-Nonanone
Formula: C 9 H 18 O
CAS: 502-56-7
State: gas
Instrument: HP-GC/MS/IRD
Origin: NIST Mass Spectrometry Data Center
1/CM	ABSORBANCE
550	0.0002639
562	0.00029
574	0.0001914
586	0.0002523
598	0.0001885
610	0.0002407
622	0.0002494
634	0.0002987
646	0.0001914
658	0.0001682
670	0.0001421
682	9.86e-05
694	0.0001885
706	0.0003045
718	0.0004466
730	0.0007221
742	0.0008874
754	0.0009715
766	0.0007743
778	0.0005887
790	0.0003654
802	0.0002552
814	0.0001798
826	1.74e-05
838	0.0001566
850	0.0002001
862	0.0002697
874	0.0003538
886	0.0003683
898	0.000406
910	0.0003509
922	0.0003799
934	0.0004727
946	0.0006409
958	0.0006931
970	0.0007366
982	0.0007395
994	0.0007888
1006	0.0010527
1018	0.0017168
1030	0.0033002
1042	0.0040977
1054	0.0029116
1066	0.0019053
1078	0.0014471
1090	0.0013949
1102	0.0016443
1114	0.0024911
1126	0.0034597
1138	0.0037352
1150	0.0034278
1162	0.0028797
1174	0.0019488
1186	0.0015138
1198	0.0015747
1210	0.001769
1222	0.0019662
1234	0.0021315
1246	0.0022794
1258	0.0023838
1270	0.0019575
1282	0.0017893
1294	0.0019778
1306	0.0021837
1318	0.0025143
1330	0.0032335
1342	0.0041905
1354	0.00493
1366	0.0045153
1378	0.0034162
1390	0.0029435
1402	0.0024795
1414	0.0027956
1426	0.0029783
1438	0.0031349
1450	0.0037816
1462	0.0041267
1474	0.0031581
1486	0.0017226
1498	0.0009454
1510	0.0006264
1522	0.0004669
1534	0.0003625
1546	0.0002755
1558	0.0002726
1570	0.0002349
1582	0.0002436
1594	0.0002465
1606	0.0002552
1618	0.0002697
1630	0.0003451
1642	0.0003886
1654	0.0005104
1666	0.0007888
1678	0.0012818
1690	0.0023635
1702	0.005481
1714	0.0126556
1726	0.017313
1738	0.0106111
1750	0.0035902
1762	0.0014616
1774	0.0007772
1786	0.0004988
1798	0.0003422
1810	0.0002523
1822	0.0002001
1834	0.0001392
1846	0.0001276
1858	0.000116
1870	7.54e-05
1882	6.38e-05
1894	4.93e-05
1906	3.77e-05
1918	5.51e-05
1930	5.51e-05
1942	2.32e-05
1954	1.16e-05
1966	1.16e-05
1978	1.74e-05
1990	1.16e-05
2002	2.9e-05
2014	4.35e-05
2026	4.64e-05
2038	4.64e-05
2050	4.64e-05
2062	4.06e-05
2074	2.9e-05
2086	5.22e-05
2098	3.48e-05
2110	3.77e-05
2122	4.06e-05
2134	4.35e-05
2146	7.83e-05
2158	4.93e-05
2170	4.93e-05
2182	4.93e-05
2194	5.22e-05
2206	6.38e-05
2218	5.51e-05
2230	3.19e-05
2242	5.8e-05
2254	2.03e-05
2266	1.16e-05
2278	3.48e-05
2290	2.61e-05
2302	3.48e-05
2314	1.74e-05
2326	4.93e-05
2338	2.61e-05
2350	3.77e-05
2362	2.03e-05
2374	4.64e-05
2386	3.77e-05
2398	5.8e-05
2410	5.22e-05
2422	4.06e-05
2434	4.64e-05
2446	3.19e-05
2458	1.16e-05
2470	2.61e-05
2482	1.74e-05
2494	1.16e-05
2506	3.19e-05
2518	4.93e-05
2530	3.48e-05
2542	3.48e-05
2554	6.09e-05
2566	6.67e-05
2578	9.28e-05
2590	8.99e-05
2602	9.86e-05
2614	8.99e-05
2626	0.0001247
2638	0.0001827
2650	0.0002117
2662	0.0002639
2674	0.0002958
2686	0.0003161
2698	0.0002494
2710	0.0003074
2722	0.000319
2734	0.0004292
2746	0.0005394
2758	0.0006235
2770	0.000638
2782	0.0007627
2794	0.0009628
2806	0.0013166
2818	0.0017255
2830	0.0022185
2842	0.0032422
2854	0.0053853
2866	0.0092974
2878	0.012876
2890	0.0136271
2902	0.0129427
2914	0.0151438
2926	0.0196736
2938	0.0249197
2950	0.0258796
2962	0.0281068
2974	0.0250357
2986	0.0116145
2998	0.0054404
3010	0.0031581
3022	0.0020735
3034	0.0015486
3046	0.0012412
3058	0.0009657
3070	0.0007627
3082	0.0006815
3094	0.0006003
3106	0.0005162
3118	0.0004698
3130	0.0003973
3142	0.0003393
3154	0.0002842
3166	0.00029
3178	0.0002697
3190	0.0002465
3202	0.0001827
3214	0.0001595
3226	0.0001566
3238	9.57e-05
3250	8.41e-05
3262	6.09e-05
3274	5.22e-05
3286	5.22e-05
3298	5.8e-06
3310	2.03e-05
3322	3.48e-05
3334	6.96e-05
3346	6.38e-05
3358	6.67e-05
3370	8.41e-05
3382	0.0001363
3394	0.0001653
3406	0.0002117
3418	0.0002813
3430	0.0004089
3442	0.0002871
3454	0.0002465
3466	0.0001102
3478	0.0001015
3490	7.25e-05
3502	7.83e-05
3514	6.38e-05
3526	6.96e-05
3538	5.51e-05
3550	6.09e-05
3562	2.9e-06
3574	6.09e-05
3586	5.22e-05
3598	7.54e-05
3610	3.19e-05
3622	8.41e-05
3634	9.86e-05
3646	7.83e-05
3658	6.67e-05
3670	5.8e-05
3682	8.99e-05
3694	6.09e-05
3706	0.000116
3718	0.0001015
3730	8.41e-05
3742	8.41e-05
3754	6.96e-05
3766	7.54e-05
3778	8.99e-05
3790	5.51e-05
3802	6.38e-05
3814	0.0001131
3826	6.96e-05
3838	0.0001044
