Infrared Spectrum: Cyclooctanone
Formula: C 8 H 14 O
CAS: 502-49-8
State: gas
Instrument: HP-GC/MS/IRD
Origin: NIST Mass Spectrometry Data Center
1/CM	ABSORBANCE
550	0.0003744
562	0.0001872
574	9.88e-05
586	7.28e-05
598	8.84e-05
610	0.0001196
622	8.84e-05
634	3.64e-05
646	6.76e-05
658	8.84e-05
670	4.16e-05
682	0.0001352
694	0.0001924
706	0.0002964
718	0.0003848
730	0.0004888
742	0.0005772
754	0.000546
766	0.0005148
778	0.0006968
790	0.0008788
802	0.001144
814	0.0014144
826	0.0014716
838	0.0016744
850	0.0015548
862	0.0008424
874	0.0004732
886	0.0003224
898	0.0003068
910	0.0005304
922	0.0007384
934	0.000858
946	0.0008996
958	0.0010868
970	0.00104
982	0.0007696
994	0.0007592
1006	0.0007072
1018	0.0006396
1030	0.0006136
1042	0.0007228
1054	0.0013208
1066	0.0020124
1078	0.0025532
1090	0.0032708
1102	0.002886
1114	0.0016484
1126	0.0013364
1138	0.0023088
1150	0.0031928
1162	0.0027664
1174	0.0020904
1186	0.0025532
1198	0.0039884
1210	0.0039936
1222	0.00247
1234	0.0020592
1246	0.002522
1258	0.002704
1270	0.0021632
1282	0.0014248
1294	0.0011024
1306	0.001508
1318	0.0029068
1330	0.0044252
1342	0.004654
1354	0.0034008
1366	0.0017368
1378	0.0007696
1390	0.0006604
1402	0.0012844
1414	0.0025376
1426	0.003484
1438	0.0054028
1450	0.0079872
1462	0.0080028
1474	0.0054392
1486	0.0026416
1498	0.0009828
1510	0.000468
1522	0.000312
1534	0.0002756
1546	0.00026
1558	0.0002496
1570	0.0002912
1582	0.0003432
1594	0.0003432
1606	0.0003744
1618	0.000442
1630	0.000572
1642	0.000728
1654	0.000936
1666	0.0015756
1678	0.0027612
1690	0.0061152
1702	0.0168844
1714	0.0295152
1726	0.0240032
1738	0.0081848
1750	0.0026728
1762	0.0015028
1774	0.0009412
1786	0.0006708
1798	0.00052
1810	0.0004004
1822	0.0002808
1834	0.0002184
1846	0.0001716
1858	0.0001508
1870	0.0001248
1882	0.0001196
1894	0.0001196
1906	0.0001196
1918	0.0001196
1930	0.0001196
1942	0.000104
1954	8.84e-05
1966	7.8e-05
1978	5.72e-05
1990	3.64e-05
2002	6.24e-05
2014	7.28e-05
2026	7.28e-05
2038	6.76e-05
2050	9.88e-05
2062	7.28e-05
2074	7.8e-05
2086	6.76e-05
2098	9.88e-05
2110	7.8e-05
2122	8.84e-05
2134	8.32e-05
2146	9.88e-05
2158	9.88e-05
2170	9.88e-05
2182	0.000104
2194	0.000104
2206	0.000104
2218	9.36e-05
2230	6.24e-05
2242	8.32e-05
2254	9.88e-05
2266	0.0001196
2278	0.0001092
2290	9.88e-05
2302	5.72e-05
2314	4.16e-05
2326	3.64e-05
2338	2.08e-05
2350	3.12e-05
2362	2.6e-05
2374	3.64e-05
2386	3.64e-05
2398	4.16e-05
2410	4.68e-05
2422	5.2e-05
2434	3.12e-05
2446	4.16e-05
2458	2.08e-05
2470	1.04e-05
2482	1.56e-05
2494	1.56e-05
2506	3.64e-05
2518	3.64e-05
2530	6.76e-05
2542	6.76e-05
2554	9.88e-05
2566	0.0001092
2578	9.36e-05
2590	0.0001248
2602	0.000156
2614	0.000156
2626	0.0001924
2638	0.00026
2650	0.0003224
2662	0.0004108
2674	0.0005824
2686	0.0007644
2698	0.0008008
2710	0.0006292
2722	0.0004056
2734	0.0003328
2746	0.0003484
2758	0.00039
2770	0.0004784
2782	0.0006968
2794	0.0008892
2806	0.0012116
2818	0.0015236
2830	0.00182
2842	0.003224
2854	0.00819
2866	0.0129012
2878	0.0121888
2890	0.0108108
2902	0.0138424
2914	0.0219804
2926	0.0380588
2938	0.052
2950	0.0419276
2962	0.0234624
2974	0.0111644
2986	0.0044616
2998	0.002028
3010	0.0011232
3022	0.0007488
3034	0.000546
3046	0.0003952
3058	0.0003276
3070	0.0002652
3082	0.0002392
3094	0.0001924
3106	0.0001768
3118	0.000156
3130	0.0001612
3142	0.0001612
3154	0.0001716
3166	0.0001456
3178	9.88e-05
3190	6.76e-05
3202	6.76e-05
3214	6.76e-05
3226	7.28e-05
3238	9.36e-05
3250	8.84e-05
3262	0.0001144
3274	7.8e-05
3286	7.8e-05
3298	5.2e-05
3310	1.04e-05
3322	5.72e-05
3334	7.28e-05
3346	8.32e-05
3358	0.0001196
3370	0.0001612
3382	0.000234
3394	0.0004056
3406	0.0005616
3418	0.0006292
3430	0.000416
3442	0.0002028
3454	0.00013
3466	8.84e-05
3478	7.8e-05
3490	2.6e-05
3502	1.04e-05
3514	2.08e-05
3526	2.6e-05
3538	2.6e-05
3550	6.76e-05
3562	3.64e-05
3574	2.08e-05
3586	5.2e-06
3598	2.6e-05
3610	3.64e-05
3622	1.56e-05
3634	2.6e-05
3646	4.16e-05
3658	5.72e-05
3670	6.24e-05
3682	4.68e-05
3694	4.68e-05
3706	4.16e-05
3718	5.72e-05
3730	7.28e-05
3742	5.2e-05
3754	8.84e-05
3766	0.0001144
3778	0.000104
3790	0.0001092
3802	6.24e-05
3814	4.16e-05
3826	0.000104
3838	6.24e-05
