Infrared Spectrum: E-CAPROLACTONE
Formula: C6 H10 O2
CAS: 502-44-3
State: SOLUTION (10% IN CCl4 FOR 3800-1340, 10% IN CS2 FOR 1340-400 CM^-^1)
Class: COBLENTZ III
Instrument: DOW KBr FOREPRISM-GRATING
Instrument parameters: BLAZED AT 3.5, 12.0, 20.0 MICRON, CHANGED AT 5.0, 7.5, 14.9 MICRON
Sampling: TRANSMISSION
Path length: 0.011, 0.011 CM
Resolution: 4
Origin: DOW CHEMICAL COMPANY
1/CM	TRANSMITTANCE
452.246	0.92
460.774	0.92
469.301	0.916
477.829	0.897
486.356	0.822
494.884	0.814
503.411	0.917
511.939	0.957
520.467	0.964
528.994	0.974
537.522	0.976
546.049	0.993
554.577	0.988
563.105	0.944
571.632	0.353
580.16	0.881
588.687	0.976
597.215	1.006
605.742	1.025
614.27	1.029
622.798	1.029
631.325	1.022
639.853	1.004
648.38	0.961
656.908	0.924
665.436	0.958
673.963	0.956
682.491	0.925
691.018	0.708
699.546	0.649
708.073	0.945
716.601	0.96
725.129	0.916
733.656	0.736
742.184	0.898
750.711	0.978
759.239	1.004
767.767	1.009
776.294	1.006
784.822	0.997
793.349	0.988
801.877	0.988
810.404	0.977
818.932	0.892
827.46	0.958
835.987	0.934
844.515	0.804
853.042	0.464
861.57	0.538
870.098	0.714
878.625	0.86
887.153	0.87
895.68	0.8331
904.208	0.989
912.735	0.998
921.263	1.004
929.791	1.004
938.318	0.992
946.846	0.961
955.373	0.873
963.901	0.305
972.429	0.856
980.956	0.789
989.484	0.224
998.011	0.729
1006.54	0.805
1015.07	0.1769
1023.59	0.732
1032.12	0.84
1040.65	0.781
1049.18	0.532
1057.7	0.052
1066.23	0.1341
1074.76	0.454
1083.29	0.3258
1091.81	0.144
1100.34	0.2339
1108.87	0.5091
1117.4	0.824
1125.93	0.856
1134.45	0.826
1142.98	0.701
1151.51	0.556
1160.04	0.0879
1168.56	0.008
1177.09	0.032
1185.62	0.3081
1194.15	0.6101
1202.67	0.773
1211.2	0.801
1219.73	0.7139
1228.26	0.137
1236.78	0.722
1245.31	0.6449
1253.84	0.032
1262.37	0.501
1270.89	0.514
1279.42	0.2649
1287.95	0.081
1296.48	0.0491
1305	0.628
1313.53	0.748
1322.06	0.6479
1330.59	0.105
1339.11	0.605
1347.64	0.3578
1356.17	0.3651
1364.7	0.4051
1373.22	0.796
1381.75	0.756
1390.28	0.2489
1398.81	0.3701
1407.34	0.738
1415.86	0.793
1424.39	0.756
1432.92	0.421
1441.45	0.2131
1449.97	0.193
1458.5	0.388
1467.03	0.593
1475.56	0.306
1484.08	0.4891
1492.61	0.764
1501.14	0.773
1509.67	0.757
1518.19	0.729
1526.72	0.701
1535.25	0.637
1543.78	0.536
1552.3	0.5
1560.83	0.548
1569.36	0.629
1577.89	0.668
1586.41	0.658
1594.94	0.717
1603.47	0.796
1612	0.864
1620.52	0.868
1629.05	0.864
1637.58	0.908
1646.11	0.901
1654.64	0.854
1663.16	0.821
1671.69	0.805
1680.22	0.758
1688.75	0.709
1697.27	0.59
1705.8	0.3619
1714.33	0.101
1722.86	0.034
1731.38	0.009
1739.91	0.012
1748.44	0.012
1756.97	0.025
1765.49	0.284
1774.02	0.5
1782.55	0.662
1791.08	0.792
1799.6	0.848
1808.13	0.892
1816.66	0.892
1825.19	0.888
1833.71	0.868
1842.24	0.901
1850.77	0.905
1859.3	0.926
1867.82	0.94
1876.35	0.937
1884.88	0.946
1893.41	0.932
1901.93	0.932
1910.46	0.941
1918.99	0.942
1927.52	0.96
1936.05	0.96
1944.57	0.96
1953.1	0.965
1961.63	0.964
1970.16	0.961
1978.68	0.956
1987.21	0.958
1995.74	0.969
2004.27	1.0025
2012.79	1.0035
2021.32	1.0015
2029.85	1.0155
2038.38	1.0075
2046.9	1.0055
2055.43	1.009
2063.96	1.0045
2072.49	1.006
2081.01	1.0125
2089.54	1.013
2098.07	1.0095
2106.6	1.004
2115.12	0.9989
2123.65	1.001
2132.18	1.0062
2140.71	1.01
2149.23	1.0085
2157.76	1.002
2166.29	0.9978
2174.82	0.9909
2183.35	1.0016
2191.87	1.002
2200.4	1.0004
2208.93	0.9934
2217.46	1.0031
2225.98	1.006
2234.51	1.001
2243.04	0.9928
2251.57	0.99
2260.09	0.9894
2268.62	0.989
2277.15	0.988
2285.68	0.988
2294.2	0.989
2302.73	0.988
2311.26	0.9904
2319.79	0.987
2328.31	0.984
2336.84	0.988
2345.37	0.998
2353.9	1.0121
2362.42	1.0164
2370.95	1.0065
2379.48	1
2388.01	0.998
2396.53	1
2405.06	0.9964
2413.59	0.9907
2422.12	0.9913
2430.65	0.99
2439.17	0.9884
2447.7	0.9867
2456.23	0.9913
2464.76	0.9977
2473.28	1
2481.81	0.998
2490.34	0.997
2498.87	0.996
2507.39	0.994
2515.92	0.994
2524.45	0.9933
2532.98	0.994
2541.5	0.9907
2550.03	0.981
2558.56	0.986
2567.09	0.99
2575.61	0.992
2584.14	0.9933
2592.67	0.993
2601.2	0.9893
2609.72	0.9887
2618.25	0.99
2626.78	0.9866
2635.31	0.9803
2643.83	0.978
2652.36	0.9794
2660.89	0.977
2669.42	0.9733
2677.94	0.9683
2686.47	0.965
2695	0.9563
2703.53	0.9349
2712.06	0.9533
2720.58	0.9744
2729.11	0.981
2737.64	0.978
2746.17	0.97
2754.69	0.9547
2763.22	0.937
2771.75	0.958
2780.28	0.956
2788.8	0.9505
2797.33	0.9412
2805.86	0.9292
2814.39	0.9217
2822.91	0.9122
2831.44	0.8777
2839.97	0.6809
2848.5	0.6744
2857.02	0.4099
2865.55	0.307
2874.08	0.5408
2882.61	0.5971
2891.13	0.4349
2899.66	0.4132
2908.19	0.2651
2916.72	0.1496
2925.24	0.0817
2933.77	0.0273
2942.3	0.0361
2950.83	0.1149
2959.36	0.258
2967.88	0.4005
2976.41	0.341
2984.94	0.3861
2993.47	0.6298
3001.99	0.7925
3010.52	0.883
3019.05	0.9163
3027.58	0.9334
3036.1	0.9537
3044.63	0.9648
3053.16	0.9688
3061.69	0.9699
3070.21	0.977
3078.74	0.981
3087.27	0.981
3095.8	0.9849
3104.32	0.988
3112.85	0.9917
3121.38	0.9929
3129.91	0.996
3138.43	0.998
3146.96	1
3155.49	1.001
3164.02	1
3172.54	1
3181.07	1
3189.6	1
3198.13	1
3206.66	0.998
3215.18	1
3223.71	1
3232.24	0.998
3240.77	0.997
3249.29	0.9979
3257.82	1
3266.35	1.001
3274.88	1.001
3283.4	1.002
3291.93	1
3300.46	1
3308.99	1.001
3317.51	1.001
3326.04	1
3334.57	1.002
3343.1	1.004
3351.62	1.004
3360.15	1.002
3368.68	1.001
3377.21	1.001
3385.73	1
3394.26	0.9941
3402.79	0.9881
3411.32	0.98
3419.84	0.9731
3428.37	0.9501
3436.9	0.9331
3445.43	0.9101
3453.95	0.894
3462.48	0.8999
3471.01	0.904
3479.54	0.917
3488.07	0.934
3496.59	0.94
3505.12	0.948
3513.65	0.952
3522.18	0.953
3530.7	0.953
3539.23	0.954
3547.76	0.956
3556.29	0.958
3564.81	0.962
3573.34	0.964
3581.87	0.965
3590.4	0.973
3598.92	0.973
3607.45	0.973
3615.98	0.972
3624.51	0.968
3633.03	0.9679
3641.56	0.968
3650.09	0.965
3658.62	0.964
3667.14	0.962
3675.67	0.9538
3684.2	0.944
3692.73	0.9531
3701.25	0.9682
3709.78	0.976
3718.31	0.978
3726.84	0.9811
3735.37	0.984
3743.89	0.9859
3752.42	0.98
3760.95	0.981
3769.48	0.981
3778	0.98
3786.53	0.9822
