Infrared Spectrum: Farnesal
Formula: C 15 H 24 O
CAS: 502-67-0
State: gas
Origin: EPA-IR VAPOR PHASE LIBRARY
1/CM	ABSORBANCE
549.8	0.001532
559.445	0.0011235
569.09	0.0009339
578.734	0.001482
588.379	0.0012708
598.024	0.0010494
607.669	0.0011421
617.313	0.0007334
626.958	0.0006808
636.603	0.0005724
646.248	0.000719
655.893	0.00030469
665.537	0.0007008
675.182	0.0009264
684.827	0.0010767
694.472	0.001702
704.116	0.002202
713.761	0.001412
723.406	0.001392
733.051	0.001742
742.695	0.002272
752.34	0.001912
761.985	0.001922
771.63	0.001722
781.275	0.001992
790.919	0.002422
800.564	0.002602
810.209	0.003492
819.854	0.004642
829.498	0.004872
839.143	0.004472
848.788	0.003782
858.433	0.002932
868.078	0.002722
877.722	0.002282
887.367	0.002162
897.012	0.002342
906.657	0.002142
916.301	0.002182
925.946	0.002342
935.591	0.002172
945.236	0.002182
954.88	0.002602
964.525	0.003542
974.17	0.003442
983.815	0.003412
993.46	0.003082
1003.1	0.003172
1012.75	0.002562
1022.39	0.002432
1032.04	0.002842
1041.68	0.002462
1051.33	0.002972
1060.97	0.002662
1070.62	0.002782
1080.26	0.003452
1089.91	0.004932
1099.55	0.006742
1109.2	0.009962
1118.84	0.005862
1128.49	0.003302
1138.13	0.002192
1147.78	0.002882
1157.42	0.003402
1167.07	0.003792
1176.71	0.005182
1186.36	0.008942
1196	0.007652
1205.64	0.003502
1215.29	0.002782
1224.93	0.002682
1234.58	0.002202
1244.22	0.001622
1253.87	0.001752
1263.51	0.001642
1273.16	0.001432
1282.8	0.001552
1292.45	0.002002
1302.09	0.002312
1311.74	0.002782
1321.38	0.003262
1331.03	0.003212
1340.67	0.002822
1350.32	0.003292
1359.96	0.003952
1369.61	0.005792
1379.25	0.009652
1388.9	0.010172
1398.54	0.006842
1408.18	0.005652
1417.83	0.005122
1427.47	0.005752
1437.12	0.007492
1446.76	0.008812
1456.41	0.007352
1466.05	0.005322
1475.7	0.003772
1485.34	0.002812
1494.99	0.002422
1504.63	0.002182
1514.28	0.002052
1523.92	0.002042
1533.57	0.001982
1543.21	0.002132
1552.86	0.002142
1562.5	0.002352
1572.15	0.002602
1581.79	0.003242
1591.44	0.004152
1601.08	0.006732
1610.73	0.013192
1620.37	0.017062
1630.01	0.011572
1639.66	0.008552
1649.3	0.006242
1658.95	0.006232
1668.59	0.007642
1678.24	0.012662
1687.88	0.032772
1697.53	0.062062
1707.17	0.029872
1716.82	0.012472
1726.46	0.005672
1736.11	0.003512
1745.75	0.002732
1755.4	0.001782
1765.04	0.001332
1774.69	0.0012179
1784.33	0.0011249
1793.98	0.0009811
1803.62	0.0010004
1813.27	0.0008584
1822.91	0.0008216
1832.55	0.0007056
1842.2	0.000713
1851.84	0.0006886
1861.49	0.0007023
1871.13	0.0005679
1880.78	0.000538
1890.42	0.0005257
1900.07	0.0006568
1909.71	0.0005609
1919.36	0.0005279
1929	0.0005431
1938.65	0.0005424
1948.29	0.0005245
1957.94	0.0005384
1967.58	0.0004833
1977.23	0.0004423
1986.87	0.0004836
1996.52	0.0004991
2006.16	0.000539
2015.81	0.0004916
2025.45	0.0005287
2035.1	0.0004441
2044.74	0.0005291
2054.38	0.0004472
2064.03	0.0005029
2073.67	0.0004861
2083.32	0.0004145
2092.96	0.0004175
2102.61	0.0004778
2112.25	0.000518
2121.9	0.0004614
2131.54	0.0004914
2141.19	0.0005115
2150.83	0.0005648
2160.48	0.0004369
2170.12	0.0005049
2179.77	0.0004485
2189.41	0.0005953
2199.06	0.0006353
2208.7	0.0004682
2218.35	0.0005654
2227.99	0.0005309
2237.64	0.0004198
2247.28	0.0005112
2256.92	0.0004178
2266.57	0.0004535
2276.21	0.00037804
2285.86	0.0004688
2295.5	0.0005511
2305.15	0.0005422
2314.79	0.00039162
2324.44	0.0004447
2334.08	0.0004373
2343.73	0.000527
2353.37	0.0004393
2363.02	0.0004823
2372.66	0.0004329
2382.31	0.0005195
2391.95	0.0005068
2401.6	0.0004787
2411.24	0.0005627
2420.89	0.0004661
2430.53	0.0004693
2440.18	0.0005697
2449.82	0.0004394
2459.47	0.0004614
2469.11	0.0005045
2478.75	0.0005146
2488.4	0.0004879
2498.04	0.0004528
2507.69	0.0004479
2517.33	0.000567
2526.98	0.000572
2536.62	0.0004915
2546.27	0.0004976
2555.91	0.0005936
2565.56	0.0005537
2575.2	0.0006237
2584.85	0.0005715
2594.49	0.0006721
2604.14	0.0005798
2613.78	0.0007641
2623.43	0.0008024
2633.07	0.0009375
2642.72	0.0008964
2652.36	0.0010385
2662.01	0.0010554
2671.65	0.0012907
2681.29	0.001582
2690.94	0.002002
2700.58	0.003232
2710.23	0.005552
2719.87	0.009702
2729.52	0.008982
2739.16	0.006592
2748.81	0.005712
2758.45	0.005562
2768.1	0.004722
2777.74	0.003582
2787.39	0.003512
2797.03	0.003592
2806.68	0.004482
2816.32	0.006022
2825.97	0.009592
2835.61	0.013292
2845.26	0.013572
2854.9	0.016162
2864.55	0.018342
2874.19	0.017382
2883.84	0.017062
2893.48	0.019342
2903.12	0.022902
2912.77	0.027892
2922.41	0.032482
2932.06	0.032152
2941.7	0.028092
2951.35	0.022732
2960.99	0.019552
2970.64	0.019012
2980.28	0.017872
2989.93	0.015592
2999.57	0.012392
3009.22	0.009802
3018.86	0.008392
3028.51	0.007532
3038.15	0.006542
3047.8	0.005502
3057.44	0.004382
3067.09	0.003552
3076.73	0.002682
3086.38	0.002312
3096.02	0.001872
3105.67	0.001532
3115.31	0.001382
3124.95	0.0010767
3134.6	0.0008679
3144.24	0.0005827
3153.89	0.0007398
3163.53	0.0005521
3173.18	0.00038555
3182.82	0.00035764
3192.47	0.00031083
3202.11	0.000438
3211.76	0.0005182
3221.4	0.0004276
3231.05	0.00030772
3240.69	0.00035481
3250.34	0.00030608
3259.98	0.0004332
3269.63	0.00036134
3279.27	0.0004397
3288.92	0.00035071
3298.56	0.0004637
3308.21	0.0006737
3317.85	0.0004225
3327.49	0.0005326
3337.14	0.000465
3346.78	0.0006774
3356.43	0.000774
3366.07	0.0010628
3375.72	0.001152
3385.36	0.0008113
3395.01	0.0007501
3404.65	0.0004683
3414.3	0.0004607
3423.94	0.0004823
3433.59	0.0005112
3443.23	0.00033781
3452.88	0.0003927
3462.52	0.000139
3472.17	0.00035654
3481.81	0.0004144
3491.46	0.00032619
3501.1	0.00037863
3510.75	0.0004462
3520.39	0.00028847
3530.04	0.0002616
3539.68	0.0004575
3549.32	0.0004069
3558.97	0.0003378
3568.61	0.000157
3578.26	0.0002611
3587.9	0.0002234
3597.55	0.00034496
3607.19	0.00030583
3616.84	0.0005094
3626.48	0.00036735
3636.13	0.00038138
3645.77	0.0005359
3655.42	0.000293289
3665.06	0.0004568
3674.71	0.0002219
3684.35	0.0004291
3694	0.00033785
3703.64	0.0005547
3713.29	0.0002075
3722.93	0.000144
3732.58	0.000189
3742.22	0.0004309
3751.86	0.0006748
3761.51	0.000292237
3771.15	0.00036996
3780.8	0.00032971
3790.44	0.0005284
3800.09	0.0002101
3809.73	0.00034478
3819.38	0.0004042
3829.02	0.00028537
3838.67	0.00033542
3848.31	0.00037638
3857.96	0.00035644
3867.6	0.0004931
3877.25	0.0003581
3886.89	0.00037563
3896.54	0.000449
3906.18	0.0004606
3915.83	0.0004627
3925.47	0.0004025
3935.12	0.0004535
3944.76	0.0005892
3954.41	0.0002608
3964.05	0.00037999
3973.69	0.000108
3983.34	0.00035027
3992.98	0.000539
