Infrared Spectrum: 4-OXOHEPTANEDIOIC ACID
Formula: C7 H10 O5
CAS: 502-50-1
State: SOLID (PELLET)
Melting point: 141-142.5 C
Class: COBLENTZ
Instrument: Not specified, most likely a prism, grating, or hybrid spectrometer.
Sampling: TRANSMISSION
Resolution: 4
Origin: TENNESSEE EASTMAN COMPANY, RESEARCH LABORATORIES
MICROMETERS	TRANSMITTANCE
2.027	0.998
2.0669	1.001
2.10681	0.996
2.14671	1
2.18661	1
2.22651	1.003
2.26642	1.001
2.30632	1.001
2.34622	1.004
2.38613	1.001
2.42603	1.004
2.46593	1.004
2.50583	1.006
2.54574	1.008
2.58564	1.004
2.62554	1.008
2.66545	1.009
2.70535	1.004
2.74525	1.001
2.78515	0.973
2.82506	0.953
2.86496	0.931
2.90486	0.906
2.94477	0.867
2.98467	0.83
3.02457	0.772
3.06447	0.687
3.10438	0.571
3.14428	0.42
3.18418	0.322
3.22409	0.249
3.26399	0.225
3.30389	0.234
3.34379	0.282
3.3837	0.307
3.4236	0.299
3.4635	0.39
3.50341	0.451
3.54331	0.504
3.58321	0.561
3.62311	0.541
3.66302	0.528
3.70292	0.574
3.74282	0.619
3.78273	0.551
3.82263	0.573
3.86253	0.573
3.90243	0.649
3.94234	0.714
3.98224	0.732
4.02214	0.74
4.06205	0.827
4.10195	0.867
4.14185	0.877
4.18175	0.905
4.22166	0.928
4.26156	0.93
4.30146	0.926
4.34137	0.936
4.38127	0.953
4.42117	0.948
4.46107	0.948
4.50098	0.948
4.54088	0.956
4.58078	0.965
4.62069	0.966
4.66059	0.966
4.70049	0.966
4.74039	0.968
4.7803	0.973
4.8202	0.976
4.8601	0.978
4.90001	0.978
4.93991	0.978
4.97981	0.978
5.01971	0.976
5.05962	0.973
5.09952	0.971
5.13942	0.97
5.17933	0.966
5.21923	0.965
5.25913	0.968
5.29903	0.956
5.33894	0.951
5.37884	0.941
5.41874	0.936
5.45865	0.925
5.49855	0.91
5.53845	0.898
5.57835	0.862
5.61826	0.833
5.65816	0.812
5.69806	0.775
5.73797	0.666
5.77787	0.375
5.81777	0.099
5.85767	0.021
5.89758	0.021
5.93748	0.036
5.97738	0.232
6.01729	0.436
6.05719	0.566
6.09709	0.664
6.13699	0.715
6.1769	0.755
6.2168	0.803
6.2567	0.845
6.29661	0.86
6.33651	0.873
6.37641	0.87
6.41631	0.863
6.45622	0.892
6.49612	0.877
6.53602	0.898
6.57593	0.885
6.61583	0.892
6.65573	0.89
6.69563	0.883
6.73554	0.838
6.77544	0.805
6.81534	0.755
6.85525	0.584
6.89515	0.287
6.93505	0.34
6.97495	0.32
7.01486	0.387
7.05476	0.415
7.09466	0.159
7.13457	0.544
7.17447	0.676
7.21437	0.732
7.25427	0.651
7.29418	0.433
7.33408	0.481
7.37398	0.621
7.41389	0.639
7.45379	0.602
7.49369	0.388
7.53359	0.106
7.5735	0.063
7.6134	0.235
7.6533	0.401
7.69321	0.541
7.73311	0.659
7.77301	0.657
7.81291	0.727
7.85282	0.764
7.89272	0.752
7.93262	0.799
7.97253	0.777
8.01243	0.483
8.05233	0.245
8.09223	0.563
8.13214	0.571
8.17204	0.461
8.21194	0.485
8.25185	0.712
8.29175	0.817
8.33165	0.837
8.37155	0.858
8.41146	0.85
8.45136	0.862
8.49126	0.888
8.53117	0.898
8.57107	0.906
8.61097	0.913
8.65087	0.915
8.69078	0.913
8.73068	0.905
8.77058	0.911
8.81049	0.92
8.85039	0.913
8.89029	0.91
8.93019	0.885
8.9701	0.81
9.01	0.586
9.0499	0.318
9.08981	0.697
9.12971	0.794
9.16961	0.835
9.20951	0.88
9.24942	0.903
9.28932	0.915
9.32922	0.921
9.36913	0.925
9.40903	0.928
9.44893	0.931
9.48883	0.931
9.52874	0.91
9.56864	0.883
9.60854	0.906
9.64845	0.918
9.68835	0.91
9.72825	0.885
9.76815	0.787
9.80806	0.676
9.84796	0.803
9.88786	0.86
9.92777	0.885
9.96767	0.901
10.0076	0.91
10.0475	0.91
10.0874	0.91
10.1273	0.903
10.1672	0.895
10.2071	0.883
10.247	0.868
10.2869	0.857
10.3268	0.845
10.3667	0.838
10.4066	0.832
10.4465	0.828
10.4864	0.822
10.5263	0.818
10.5662	0.817
10.6061	0.81
10.646	0.802
10.6859	0.789
10.7258	0.767
10.7657	0.745
10.8056	0.712
10.8455	0.666
10.8854	0.584
10.9253	0.481
10.9652	0.463
11.0051	0.443
11.045	0.43
11.0849	0.443
11.1249	0.453
11.1648	0.46
11.2047	0.44
11.2446	0.415
11.2845	0.39
11.3244	0.377
11.3643	0.387
11.4042	0.421
11.4441	0.463
11.484	0.506
11.5239	0.549
11.5638	0.614
11.6037	0.661
11.6436	0.7
11.6835	0.725
11.7234	0.747
11.7633	0.767
11.8032	0.78
11.8431	0.794
11.883	0.8
11.9229	0.803
11.9628	0.808
12.0027	0.815
12.0426	0.813
12.0825	0.812
12.1224	0.8
12.1623	0.782
12.2022	0.744
12.2421	0.691
12.282	0.694
12.3219	0.775
12.3618	0.813
12.4017	0.8
12.4416	0.78
12.4815	0.855
12.5215	0.916
12.5614	0.936
12.6013	0.948
12.6412	0.955
12.6811	0.956
12.721	0.958
12.7609	0.958
12.8008	0.961
12.8407	0.963
12.8806	0.965
12.9205	0.97
12.9604	0.971
13.0003	0.971
13.0402	0.973
13.0801	0.973
13.12	0.973
13.1599	0.973
13.1998	0.973
13.2397	0.975
13.2796	0.976
13.3195	0.973
13.3594	0.97
13.3993	0.963
13.4392	0.953
13.4791	0.958
13.519	0.965
13.5589	0.968
13.5988	0.97
13.6387	0.968
13.6786	0.965
13.7185	0.96
13.7584	0.958
13.7983	0.953
13.8382	0.94
13.8781	0.928
13.9181	0.916
13.958	0.898
13.9979	0.875
14.0378	0.848
14.0777	0.837
14.1176	0.837
14.1575	0.848
14.1974	0.867
14.2373	0.882
14.2772	0.898
14.3171	0.91
14.357	0.916
14.3969	0.921
14.4368	0.923
14.4767	0.926
14.5166	0.926
14.5565	0.926
14.5964	0.926
14.6363	0.923
14.6762	0.918
14.7161	0.908
14.756	0.9
14.7959	0.888
14.8358	0.862
14.8757	0.845
14.9156	0.827
14.9555	0.815
14.9954	0.81
15.0353	0.815
15.0752	0.825
15.1151	0.827
15.155	0.823
15.1949	0.815
15.2348	0.805
15.2747	0.797
15.3147	0.787
15.3546	0.77
15.3945	0.76
15.4344	0.749
15.4743	0.737
15.5142	0.73
15.5541	0.72
15.594	0.714
15.6339	0.7
15.6738	0.694
15.7137	0.676
15.7536	0.669
15.7935	0.659
15.8334	0.651
15.8733	0.639
15.9132	0.626
15.9531	0.611
15.993	0.609
