Infrared Spectrum: Cyclopentadecanone
Formula: C 15 H 28 O
CAS: 502-72-7
State: gas
Instrument: HP-GC/MS/IRD
Origin: NIST Mass Spectrometry Data Center
1/CM	ABSORBANCE
550	0.0005092
562	0.0002077
574	0.0001139
586	0.0002412
598	0.0001474
610	0.0001876
622	0.0001608
634	0.0001072
646	1.34e-05
658	0
670	0.0001072
682	0.0001943
694	0.0004757
706	0.0010452
718	0.0011926
730	0.0010854
742	0.0009849
754	0.0006231
766	0.0004288
778	0.0003484
790	0.0003283
802	0.0003417
814	0.0002613
826	0.000335
838	0.0003819
850	0.0003819
862	0.0004154
874	0.0003685
886	0.0003685
898	0.0003685
910	0.000335
922	0.0003417
934	0.0003551
946	0.0004422
958	0.0005695
970	0.0006968
982	0.0007772
994	0.0008308
1006	0.0008509
1018	0.0008576
1030	0.0011256
1042	0.0013936
1054	0.0016147
1066	0.0018425
1078	0.0017621
1090	0.0012797
1102	0.0012931
1114	0.0019631
1126	0.0021842
1138	0.0016683
1150	0.0014472
1162	0.0013266
1174	0.0013735
1186	0.0015477
1198	0.001675
1210	0.0017018
1222	0.0015142
1234	0.001407
1246	0.0014941
1258	0.001608
1270	0.0017554
1282	0.0019765
1294	0.0019631
1306	0.0016683
1318	0.0017219
1330	0.0022646
1342	0.0034773
1354	0.0043215
1366	0.0031624
1378	0.0016348
1390	0.0010921
1402	0.0013936
1414	0.002278
1426	0.00268
1438	0.0034706
1450	0.0057017
1462	0.0062377
1474	0.0027604
1486	0.0009983
1498	0.0005628
1510	0.0003886
1522	0.0002747
1534	0.0002211
1546	0.0002077
1558	0.0001675
1570	0.000134
1582	0.0001407
1594	0.0001474
1606	0.0001608
1618	0.0001876
1630	0.0002144
1642	0.0002814
1654	0.0004087
1666	0.0006566
1678	0.0012194
1690	0.001943
1702	0.0038659
1714	0.0112828
1726	0.0154033
1738	0.0050183
1750	0.0018425
1762	0.0010251
1774	0.0006164
1786	0.0003819
1798	0.0002546
1810	0.0001541
1822	0.0001139
1834	9.38e-05
1846	7.37e-05
1858	4.69e-05
1870	5.36e-05
1882	1.34e-05
1894	2.01e-05
1906	1.34e-05
1918	0
1930	0
1942	6.7e-06
1954	0
1966	0
1978	0
1990	0
2002	2.68e-05
2014	6.7e-06
2026	2.01e-05
2038	2.68e-05
2050	2.01e-05
2062	3.35e-05
2074	4.02e-05
2086	1.34e-05
2098	1.34e-05
2110	2.68e-05
2122	2.01e-05
2134	3.35e-05
2146	4.02e-05
2158	5.36e-05
2170	5.36e-05
2182	3.35e-05
2194	4.69e-05
2206	2.68e-05
2218	2.01e-05
2230	3.35e-05
2242	2.01e-05
2254	2.68e-05
2266	2.01e-05
2278	2.01e-05
2290	3.35e-05
2302	4.69e-05
2314	3.35e-05
2326	1.34e-05
2338	2.01e-05
2350	0
2362	6.7e-06
2374	2.68e-05
2386	1.34e-05
2398	2.01e-05
2410	2.01e-05
2422	4.02e-05
2434	2.01e-05
2446	1.34e-05
2458	0
2470	0
2482	1.34e-05
2494	4.69e-05
2506	8.04e-05
2518	9.38e-05
2530	9.38e-05
2542	0.000134
2554	0.0001206
2566	0.0001139
2578	0.0001273
2590	0.0001474
2602	0.0001809
2614	0.0002479
2626	0.0003015
2638	0.0003484
2650	0.000469
2662	0.0005427
2674	0.0006365
2686	0.0006968
2698	0.0006231
2710	0.0005293
2722	0.0004824
2734	0.0005092
2746	0.0005494
2758	0.0006164
2770	0.0007303
2782	0.0009179
2794	0.0012395
2806	0.0016482
2818	0.0022579
2830	0.0030351
2842	0.0049245
2854	0.0143983
2866	0.0246895
2878	0.0160934
2890	0.0123883
2902	0.0181704
2914	0.0311617
2926	0.0528697
2938	0.0651843
2950	0.0380694
2962	0.0183982
2974	0.0077184
2986	0.003819
2998	0.0022579
3010	0.0015209
3022	0.0010921
3034	0.0008174
3046	0.0006432
3058	0.0005494
3070	0.0004891
3082	0.0003752
3094	0.0003417
3106	0.000268
3118	0.0002613
3130	0.0002077
3142	0.000201
3154	0.0001943
3166	0.0001608
3178	0.0001608
3190	0.0001407
3202	0.0001407
3214	0.0001139
3226	7.37e-05
3238	9.38e-05
3250	7.37e-05
3262	7.37e-05
3274	5.36e-05
3286	5.36e-05
3298	5.36e-05
3310	3.35e-05
3322	2.01e-05
3334	0.0001005
3346	8.04e-05
3358	8.04e-05
3370	0.0001273
3382	0.0001608
3394	0.0001206
3406	0.000201
3418	0.0002613
3430	0.0003149
3442	0.0002144
3454	0.000134
3466	8.04e-05
3478	4.02e-05
3490	6.03e-05
3502	5.36e-05
3514	2.68e-05
3526	5.36e-05
3538	0
3550	4.69e-05
3562	6.7e-06
3574	6.03e-05
3586	8.04e-05
3598	7.37e-05
3610	7.37e-05
3622	0.0001005
3634	0.000134
3646	0.0001407
3658	8.04e-05
3670	6.03e-05
3682	6.7e-05
3694	0.0001072
3706	8.04e-05
3718	0.0001072
3730	0.0001139
3742	0.0001139
3754	9.38e-05
3766	0.000134
3778	0.0001139
3790	0.0001206
3802	0.0001072
3814	0.0001206
3826	0.0001742
3838	0.000134
