Infrared Spectrum: N-ETHYLPHTHALIMIDE
Formula: C10 H9 N O2
CAS: 5022-29-7
State: SOLUTION (5% CHCl3)
Class: COBLENTZ
Instrument: Not specified, most likely a prism, grating, or hybrid spectrometer.
Sampling: TRANSMISSION
Path length: 0.009 CM
Resolution: 4
MICROMETERS	TRANSMITTANCE
2.117	0.981
2.15349	0.987
2.18999	0.983
2.22648	0.987
2.26298	0.985
2.29947	0.974
2.33597	0.974
2.37246	0.978
2.40896	0.978
2.44545	0.976
2.48195	0.974
2.51844	0.978
2.55493	0.972
2.59143	0.978
2.62792	0.971
2.66442	0.976
2.70091	0.967
2.73741	0.972
2.7739	0.976
2.8104	0.927
2.84689	0.925
2.88339	0.92
2.91988	0.942
2.95638	0.96
2.99287	0.963
3.02936	0.963
3.06586	0.963
3.10235	0.96
3.13885	0.956
3.17534	0.953
3.21184	0.931
3.24833	0.893
3.28483	0.81
3.32132	0.772
3.35782	0.799
3.39431	0.853
3.4308	0.902
3.4673	0.916
3.50379	0.945
3.54029	0.956
3.57678	0.958
3.61328	0.958
3.64977	0.958
3.68627	0.956
3.72276	0.956
3.75926	0.956
3.79575	0.956
3.83225	0.954
3.86874	0.954
3.90523	0.954
3.94173	0.954
3.97822	0.953
4.01472	0.949
4.05121	0.936
4.08771	0.929
4.1242	0.92
4.1607	0.935
4.19719	0.945
4.23369	0.953
4.27018	0.953
4.30667	0.945
4.34317	0.949
4.37966	0.954
4.41616	0.958
4.45265	0.954
4.48915	0.949
4.52564	0.958
4.56214	0.953
4.59863	0.953
4.63513	0.947
4.67162	0.954
4.70812	0.953
4.74461	0.951
4.7811	0.949
4.8176	0.951
4.85409	0.951
4.89059	0.949
4.92708	0.953
4.96358	0.951
5.00007	0.949
5.03657	0.936
5.07306	0.942
5.10956	0.931
5.14605	0.924
5.18254	0.925
5.21904	0.927
5.25553	0.933
5.29203	0.931
5.32852	0.938
5.36502	0.935
5.40151	0.92
5.43801	0.933
5.4745	0.929
5.511	0.913
5.54749	0.889
5.58399	0.512
5.62048	0.296
5.65697	0.684
5.69347	0.705
5.72996	0.613
5.76646	0.463
5.80295	0.203
5.83945	0.016
5.87594	0.151
5.91244	0.474
5.94893	0.667
5.98543	0.814
6.02192	0.884
6.05841	0.904
6.09491	0.906
6.1314	0.898
6.1679	0.801
6.20439	0.851
6.24089	0.873
6.27738	0.897
6.31388	0.913
6.35037	0.909
6.38687	0.907
6.42336	0.909
6.45986	0.925
6.49635	0.922
6.53284	0.916
6.56934	0.916
6.60583	0.916
6.64233	0.902
6.67882	0.9
6.71532	0.909
6.75181	0.88
6.78831	0.579
6.8248	0.615
6.8613	0.606
6.89779	0.564
6.93428	0.453
6.97078	0.767
7.00727	0.799
7.04377	0.714
7.08026	0.608
7.11676	0.292
7.15325	0.084
7.18975	0.351
7.22624	0.404
7.26274	0.429
7.29923	0.648
7.33573	0.671
7.37222	0.351
7.40871	0.259
7.44521	0.521
7.4817	0.462
7.5182	0.604
7.55469	0.797
7.59119	0.839
7.62768	0.826
7.66418	0.857
7.70067	0.879
7.73717	0.875
7.77366	0.877
7.81015	0.889
7.84665	0.897
7.88314	0.898
7.91964	0.882
7.95613	0.886
7.99263	0.87
8.02912	0.851
8.06562	0.805
8.10211	0.731
8.13861	0.653
8.1751	0.64
8.2116	0.644
8.24809	0.638
8.28458	0.637
8.32108	0.592
8.35757	0.55
8.39407	0.727
8.43056	0.651
8.46706	0.817
8.50355	0.861
8.54005	0.768
8.57654	0.841
8.61304	0.9
8.64953	0.891
8.68602	0.904
8.72252	0.916
8.75901	0.925
8.79551	0.927
8.832	0.927
8.8685	0.925
8.90499	0.927
8.94149	0.925
8.97798	0.925
9.01448	0.922
9.05097	0.909
9.08747	0.897
9.12396	0.841
9.16045	0.776
9.19695	0.763
9.23344	0.826
9.26994	0.839
9.30643	0.828
9.34293	0.832
9.37942	0.853
9.41592	0.875
9.45241	0.87
9.48891	0.859
9.5254	0.821
9.56189	0.749
9.59839	0.635
9.63488	0.319
9.67138	0.2
9.70787	0.324
9.74437	0.584
9.78086	0.72
9.81736	0.79
9.85385	0.846
9.89035	0.873
9.92684	0.886
9.96334	0.884
9.99983	0.898
10.0363	0.898
10.0728	0.907
10.1093	0.913
10.1458	0.922
10.1823	0.918
10.2188	0.925
10.2553	0.925
10.2918	0.924
10.3283	0.924
10.3648	0.916
10.4013	0.915
10.4378	0.911
10.4743	0.918
10.5108	0.925
10.5472	0.925
10.5837	0.925
10.6202	0.929
10.6567	0.927
10.6932	0.925
10.7297	0.929
10.7662	0.925
10.8027	0.92
10.8392	0.916
10.8757	0.922
10.9122	0.922
10.9487	0.924
10.9852	0.922
11.0217	0.922
11.0582	0.913
11.0947	0.906
11.1312	0.875
11.1677	0.81
11.2042	0.667
11.2406	0.714
11.2771	0.812
11.3136	0.853
11.3501	0.828
11.3866	0.649
11.4231	0.373
11.4596	0.629
11.4961	0.776
11.5326	0.853
11.5691	0.891
11.6056	0.907
11.6421	0.922
11.6786	0.929
11.7151	0.931
11.7516	0.931
11.7881	0.935
11.8246	0.933
11.8611	0.929
11.8975	0.925
11.934	0.922
11.9705	0.931
12.007	0.935
12.0435	0.935
12.08	0.924
12.1165	0.916
12.153	0.918
12.1895	0.92
12.226	0.927
12.2625	0.927
12.299	0.92
12.3355	0.909
12.372	0.915
12.4085	0.911
12.445	0.909
12.4815	0.909
12.518	0.9
12.5545	0.895
12.5909	0.88
12.6274	0.861
12.6639	0.851
12.7004	0.844
12.7369	0.828
12.7734	0.824
12.8099	0.814
12.8464	0.797
12.8829	0.783
12.9194	0.779
12.9559	0.781
12.9924	0.777
13.0289	0.779
13.0654	0.781
13.1019	0.765
13.1384	0.749
13.1749	0.743
13.2114	0.743
13.2478	0.74
13.2843	0.74
13.3208	0.738
13.3573	0.74
13.3938	0.734
13.4303	0.729
13.4668	0.729
13.5033	0.72
13.5398	0.705
13.5763	0.703
13.6128	0.702
13.6493	0.698
13.6858	0.696
13.7223	0.691
13.7588	0.687
13.7953	0.676
13.8318	0.64
13.8683	0.577
13.9048	0.471
13.9412	0.366
13.9777	0.35
14.0142	0.391
14.0507	0.481
14.0872	0.574
14.1237	0.655
14.1602	0.689
14.1967	0.712
14.2332	0.758
14.2697	0.803
14.3062	0.833
14.3427	0.844
14.3792	0.853
14.4157	0.861
14.4522	0.861
14.4887	0.866
14.5252	0.87
14.5617	0.877
14.5981	0.879
14.6346	0.882
14.6711	0.898
14.7076	0.893
14.7441	0.904
14.7806	0.907
14.8171	0.909
14.8536	0.906
14.8901	0.897
14.9266	0.893
14.9631	0.886
14.9996	0.873
15.0361	0.848
15.0726	0.823
15.1091	0.817
15.1456	0.846
15.1821	0.879
15.2186	0.891
15.255	0.924
15.2915	0.935
15.328	0.944
15.3645	0.945
15.401	0.951
15.4375	0.962
15.474	0.962
15.5105	0.962
15.547	0.963
15.5835	0.962
