Infrared Spectrum: 2-NORBORNANONE, 3-(MORPHOLINOMETHYL)-
Formula: C12 H19 N O2
CAS: 5025-07-0
State: SOLUTION (10% IN CCl4 FOR 3800-1330, 10% IN CS2 FOR 1330-460 CM^-^1)
Class: COBLENTZ III
Instrument: DOW KBr FOREPRISM-GRATING
Instrument parameters: BLAZED AT 3.5, 12.0, 20.0 MICRON, CHANGED AT 5.0, 7.5, 14.9 MICRON
Sampling: TRANSMISSION
Path length: 0.011, 0.010 CM
Resolution: 4
Origin: DOW CHEMICAL COMPANY
1/CM	TRANSMITTANCE
451.783	0.796
460.55	0.79
469.317	0.796
478.083	0.8
486.85	0.827
495.617	0.827
504.384	0.797
513.151	0.781
521.917	0.864
530.684	0.88
539.451	0.872
548.218	0.87
556.985	0.894
565.751	0.913
574.518	0.92
583.285	0.912
592.052	0.923
600.819	0.915
609.586	0.876
618.352	0.637
627.119	0.878
635.886	0.882
644.653	0.85
653.42	0.834
662.186	0.878
670.953	0.908
679.72	0.926
688.487	0.926
697.254	0.923
706.02	0.922
714.787	0.912
723.554	0.896
732.321	0.731
741.088	0.868
749.854	0.815
758.621	0.824
767.388	0.879
776.155	0.846
784.922	0.726
793.688	0.852
802.455	0.889
811.222	0.86
819.989	0.885
828.756	0.838
837.523	0.749
846.289	0.685
855.056	0.622
863.823	0.4099
872.59	0.414
881.357	0.668
890.123	0.741
898.89	0.74
907.657	0.485
916.424	0.6821
925.191	0.835
933.957	0.66
942.724	0.822
951.491	0.7419
960.258	0.883
969.025	0.891
977.791	0.82
986.558	0.846
995.325	0.797
1004.09	0.6039
1012.86	0.3073
1021.63	0.707
1030.39	0.559
1039.16	0.797
1047.93	0.83
1056.69	0.794
1065.46	0.5779
1074.23	0.376
1082.99	0.4361
1091.76	0.725
1100.53	0.649
1109.29	0.2289
1118.06	0.009
1126.83	0.3631
1135.59	0.346
1144.36	0.2951
1153.13	0.632
1161.89	0.701
1170.66	0.4959
1179.43	0.755
1188.19	0.604
1196.96	0.789
1205.73	0.6071
1214.5	0.771
1223.26	0.775
1232.03	0.785
1240.8	0.709
1249.56	0.764
1258.33	0.656
1267.1	0.4259
1275.86	0.525
1284.63	0.534
1293.4	0.404
1302.16	0.391
1310.93	0.6331
1319.7	0.725
1328.46	0.675
1337.23	0.6401
1346	0.787
1354.76	0.5118
1363.53	0.699
1372.3	0.63
1381.06	0.841
1389.83	0.812
1398.6	0.6771
1407.37	0.891
1416.13	0.905
1424.9	0.88
1433.67	0.813
1442.43	0.6618
1451.2	0.407
1459.97	0.3771
1468.73	0.741
1477.5	0.7521
1486.27	0.853
1495.03	0.833
1503.8	0.801
1512.57	0.752
1521.33	0.709
1530.1	0.66
1538.87	0.578
1547.63	0.507
1556.4	0.534
1565.17	0.608
1573.93	0.659
1582.7	0.679
1591.47	0.74
1600.23	0.822
1609	0.865
1617.77	0.902
1626.54	0.92
1635.3	0.934
1644.07	0.938
1652.84	0.928
1661.6	0.904
1670.37	0.86
1679.14	0.804
1687.9	0.74
1696.67	0.76
1705.44	0.716
1714.2	0.7
1722.97	0.59
1731.74	0.3088
1740.5	0.01
1749.27	0.009
1758.04	0.3021
1766.8	0.683
1775.57	0.812
1784.34	0.867
1793.1	0.887
1801.87	0.894
1810.64	0.874
1819.4	0.898
1828.17	0.92
1836.94	0.93
1845.71	0.93
1854.47	0.943
1863.24	0.943
1872.01	0.946
1880.77	0.953
1889.54	0.953
1898.31	0.946
1907.07	0.943
1915.84	0.945
1924.61	0.942
1933.37	0.942
1942.14	0.941
1950.91	0.942
1959.67	0.941
1968.44	0.934
1977.21	0.931
1985.97	0.926
1994.74	0.932
2003.51	0.946
2012.27	0.949
2021.04	0.949
2029.81	0.953
2038.58	0.954
2047.34	0.957
2056.11	0.961
2064.88	0.96
2073.64	0.96
2082.41	0.957
2091.18	0.9581
2099.94	0.961
2108.71	0.9609
2117.48	0.9569
2126.24	0.9559
2135.01	0.957
2143.78	0.96
2152.54	0.956
2161.31	0.9562
2170.08	0.961
2178.84	0.961
2187.61	0.9649
2196.38	0.965
2205.14	0.963
2213.91	0.961
2222.68	0.9609
2231.44	0.956
2240.21	0.953
2248.98	0.9489
2257.75	0.9448
2266.51	0.9407
2275.28	0.9367
2284.05	0.935
2292.81	0.932
2301.58	0.9342
2310.35	0.9395
2319.11	0.9532
2327.88	0.9693
2336.65	0.9707
2345.41	0.9777
2354.18	0.969
2362.95	0.967
2371.71	0.9666
2380.48	0.961
2389.25	0.9602
2398.01	0.963
2406.78	0.9604
2415.55	0.954
2424.31	0.957
2433.08	0.9654
2441.85	0.965
2450.62	0.963
2459.38	0.963
2468.15	0.9595
2476.92	0.96
2485.68	0.963
2494.45	0.964
2503.22	0.9632
2511.98	0.964
2520.75	0.964
2529.52	0.964
2538.28	0.964
2547.05	0.9625
2555.82	0.9515
2564.58	0.953
2573.35	0.952
2582.12	0.9546
2590.88	0.9537
2599.65	0.949
2608.42	0.9506
2617.18	0.9487
2625.95	0.9457
2634.72	0.93
2643.48	0.9117
2652.25	0.8691
2661.02	0.872
2669.79	0.8797
2678.55	0.836
2687.32	0.7667
2696.09	0.8161
2704.85	0.8323
2713.62	0.8212
2722.39	0.778
2731.15	0.725
2739.92	0.742
2748.69	0.7035
2757.45	0.5679
2766.22	0.522
2774.99	0.5514
2783.75	0.5468
2792.52	0.4837
2801.29	0.3006
2810.05	0.176
2818.82	0.2203
2827.59	0.3677
2836.35	0.4488
2845.12	0.4116
2853.89	0.2174
2862.66	0.27
2871.42	0.2611
2880.19	0.1862
2888.96	0.3166
2897.72	0.3514
2906.49	0.3509
2915.26	0.2175
2924.02	0.2253
2932.79	0.1687
2941.56	0.1403
2950.32	0.1017
2959.09	0.0611
2967.86	0.0654
2976.62	0.1856
2985.39	0.3503
2994.16	0.4704
3002.92	0.7045
3011.69	0.8101
3020.46	0.8661
3029.22	0.8986
3037.99	0.9315
3046.76	0.943
3055.52	0.9511
3064.29	0.956
3073.06	0.961
3081.83	0.9635
3090.59	0.9675
3099.36	0.972
3108.13	0.971
3116.89	0.972
3125.66	0.9714
3134.43	0.971
3143.19	0.9731
3151.96	0.9714
3160.73	0.969
3169.49	0.971
3178.26	0.969
3187.03	0.9674
3195.79	0.968
3204.56	0.9676
3213.33	0.969
3222.09	0.969
3230.86	0.969
3239.63	0.969
3248.39	0.972
3257.16	0.972
3265.93	0.974
3274.69	0.975
3283.46	0.974
3292.23	0.975
3301	0.976
3309.76	0.9727
3318.53	0.975
3327.3	0.972
3336.06	0.972
3344.83	0.972
3353.6	0.971
3362.36	0.968
3371.13	0.969
3379.9	0.969
3388.66	0.969
3397.43	0.969
3406.2	0.969
3414.96	0.967
3423.73	0.9633
3432.5	0.9579
3441.26	0.953
3450.03	0.9416
3458.8	0.9216
3467.56	0.911
3476.33	0.9222
3485.1	0.9464
3493.87	0.956
3502.63	0.96
3511.4	0.961
3520.17	0.967
3528.93	0.968
3537.7	0.969
3546.47	0.967
3555.23	0.974
3564	0.975
3572.77	0.976
3581.53	0.978
3590.3	0.979
3599.07	0.979
3607.83	0.979
3616.6	0.979
3625.37	0.979
3634.13	0.978
3642.9	0.978
3651.67	0.9792
3660.43	0.976
3669.2	0.974
3677.97	0.974
3686.73	0.976
3695.5	0.98
3704.27	0.9821
3713.04	0.983
3721.8	0.984
3730.57	0.984
3739.34	0.983
3748.1	0.982
3756.87	0.983
3765.64	0.982
3774.4	0.984
3783.17	0.986
3791.94	0.9842
