Infrared Spectrum: N-Mesitylenesulphonylimidazole
Formula: C 12 H 14 N 2 O 2 S
CAS: 50257-39-1
State: gas
Origin: EPA-IR VAPOR PHASE LIBRARY
1/CM	ABSORBANCE
549.8	0.011188
559.445	0.006708
569.09	0.010728
578.734	0.012678
588.379	0.031838
598.024	0.081658
607.669	0.066158
617.313	0.026628
626.958	0.012038
636.603	0.015058
646.248	0.025748
655.893	0.059148
665.537	0.181188
675.182	0.106268
684.827	0.026658
694.472	0.011348
704.116	0.011208
713.761	0.021588
723.406	0.019508
733.051	0.013208
742.695	0.012518
752.34	0.006128
761.985	0.003328
771.63	0.002938
781.275	0.002438
790.919	0.003928
800.564	0.005328
810.209	0.009288
819.854	0.009958
829.498	0.013208
839.143	0.009498
848.788	0.013728
858.433	0.007478
868.078	0.003158
877.722	0.003638
887.367	0.009248
897.012	0.005988
906.657	0.003228
916.301	0.003068
925.946	0.002228
935.591	0.002558
945.236	0.002998
954.88	0.003558
964.525	0.003978
974.17	0.003808
983.815	0.004858
993.46	0.005628
1003.1	0.004748
1012.75	0.006628
1022.39	0.011078
1032.04	0.026218
1041.68	0.111068
1051.33	0.131558
1060.97	0.031338
1070.62	0.009598
1080.26	0.010508
1089.91	0.020318
1099.55	0.020918
1109.2	0.007168
1118.84	0.007868
1128.49	0.014518
1138.13	0.065528
1147.78	0.135028
1157.42	0.045648
1167.07	0.036788
1176.71	0.087448
1186.36	0.097048
1196	0.068568
1205.64	0.034648
1215.29	0.019268
1224.93	0.012588
1234.58	0.013658
1244.22	0.016268
1253.87	0.015058
1263.51	0.017298
1273.16	0.011928
1282.8	0.008188
1292.45	0.005398
1302.09	0.003778
1311.74	0.003788
1321.38	0.004268
1331.03	0.006138
1340.67	0.009828
1350.32	0.011838
1359.96	0.019088
1369.61	0.051418
1379.25	0.107088
1388.9	0.065438
1398.54	0.032618
1408.18	0.032348
1417.83	0.029958
1427.47	0.025338
1437.12	0.021638
1446.76	0.027408
1456.41	0.040418
1466.05	0.038638
1475.7	0.026408
1485.34	0.016988
1494.99	0.012128
1504.63	0.012668
1514.28	0.018448
1523.92	0.014578
1533.57	0.009298
1543.21	0.011438
1552.86	0.015168
1562.5	0.014588
1572.15	0.012708
1581.79	0.014298
1591.44	0.021848
1601.08	0.035018
1610.73	0.020128
1620.37	0.007268
1630.01	0.004418
1639.66	0.003478
1649.3	0.003558
1658.95	0.003448
1668.59	0.002948
1678.24	0.002978
1687.88	0.003098
1697.53	0.002668
1707.17	0.002418
1716.82	0.003268
1726.46	0.003748
1736.11	0.002078
1745.75	0.0016303
1755.4	0.0017737
1765.04	0.0015116
1774.69	0.0012262
1784.33	0.0009873
1793.98	0.0007735
1803.62	0.000949
1813.27	0.00091756
1822.91	0.00088349
1832.55	0.00091373
1842.2	0.00088872
1851.84	0.0009587
1861.49	0.0007868
1871.13	0.00088443
1880.78	0.0009791
1890.42	0.0010685
1900.07	0.0009829
1909.71	0.0009609
1919.36	0.0010379
1929	0.0011263
1938.65	0.0007999
1948.29	0.0010546
1957.94	0.0009301
1967.58	0.0010671
1977.23	0.0007827
1986.87	0.00087128
1996.52	0.0009289
2006.16	0.0010181
2015.81	0.00088082
2025.45	0.0010658
2035.1	0.0012149
2044.74	0.0010067
2054.38	0.0007644
2064.03	0.0009335
2073.67	0.0011332
2083.32	0.0011093
2092.96	0.0012433
2102.61	0.0012328
2112.25	0.0011571
2121.9	0.0014634
2131.54	0.0015796
2141.19	0.0013438
2150.83	0.00087274
2160.48	0.0010938
2170.12	0.00087156
2179.77	0.0010991
2189.41	0.0011309
2199.06	0.00088383
2208.7	0.0009625
2218.35	0.000722
2227.99	0.000954
2237.64	0.0008622
2247.28	0.0011898
2256.92	0.00086046
2266.57	0.0010334
2276.21	0.0009319
2285.86	0.0010166
2295.5	0.0012017
2305.15	0.00082024
2314.79	0.0011716
2324.44	0.0012089
2334.08	0.0010776
2343.73	0.0012148
2353.37	0.0009768
2363.02	0.00090861
2372.66	0.0011492
2382.31	0.0012461
2391.95	0.0013288
2401.6	0.0011154
2411.24	0.0013286
2420.89	0.0015071
2430.53	0.0016563
2440.18	0.0014629
2449.82	0.0013824
2459.47	0.0016498
2469.11	0.0015187
2478.75	0.0015008
2488.4	0.0016025
2498.04	0.0017881
2507.69	0.001858
2517.33	0.0014877
2526.98	0.0015415
2536.62	0.0015597
2546.27	0.0016992
2555.91	0.001675
2565.56	0.0014169
2575.2	0.0013325
2584.85	0.0012247
2594.49	0.0013053
2604.14	0.0012494
2613.78	0.0012886
2623.43	0.0010202
2633.07	0.0010826
2642.72	0.0011171
2652.36	0.0011719
2662.01	0.0009391
2671.65	0.0010428
2681.29	0.0009736
2690.94	0.001047
2700.58	0.001069
2710.23	0.0010341
2719.87	0.0012321
2729.52	0.0011205
2739.16	0.0015025
2748.81	0.001968
2758.45	0.002018
2768.1	0.0015537
2777.74	0.00126
2787.39	0.001429
2797.03	0.0016247
2806.68	0.0014417
2816.32	0.001455
2825.97	0.0016521
2835.61	0.002218
2845.26	0.003058
2854.9	0.004088
2864.55	0.005768
2874.19	0.006848
2883.84	0.006568
2893.48	0.006328
2903.12	0.006548
2912.77	0.007968
2922.41	0.010618
2932.06	0.014868
2941.7	0.017218
2951.35	0.018788
2960.99	0.014638
2970.64	0.010058
2980.28	0.010938
2989.93	0.013428
2999.57	0.013198
3009.22	0.010388
3018.86	0.009558
3028.51	0.011658
3038.15	0.013808
3047.8	0.010848
3057.44	0.006228
3067.09	0.004138
3076.73	0.002958
3086.38	0.002288
3096.02	0.002278
3105.67	0.002008
3115.31	0.002628
3124.95	0.003598
3134.6	0.003698
3144.24	0.002998
3153.89	0.003518
3163.53	0.003538
3173.18	0.0017767
3182.82	0.0011128
3192.47	0.0010156
3202.11	0.0010258
3211.76	0.00082617
3221.4	0.000629
3231.05	0.0007716
3240.69	0.0007441
3250.34	0.000634
3259.98	0.000474
3269.63	0.000489
3279.27	0.00041
3288.92	0.0007314
3298.56	0.00046
3308.21	0.0007352
3317.85	0.000634
3327.49	0.0007494
3337.14	0.000643
3346.78	0.0007972
3356.43	0.0007319
3366.07	0.000655
3375.72	0.000712
3385.36	0.000628
3395.01	0.000611
3404.65	0.000654
3414.3	0.000572
3423.94	0.000537
3433.59	0.000614
3443.23	0.000383
3452.88	0.000475
3462.52	0.000581
3472.17	0.000508
3481.81	0.000639
3491.46	0.0007685
3501.1	0.000571
3510.75	0.0008814
3520.39	0.000633
3530.04	0.0008035
3539.68	0.000648
3549.32	0.000663
3558.97	0.0008391
3568.61	0.000564
3578.26	0.000485
3587.9	0.00028
3597.55	0.000397
3607.19	0.000625
3616.84	0.000523
3626.48	0.00047
3636.13	0.000569
3645.77	0.000531
3655.42	0.000478
3665.06	0.000158
3674.71	0.000583
3684.35	0.000598
3694	0.000561
3703.64	0.000136
3713.29	0.0007389
3722.93	0.000625
3732.58	0.000535
3742.22	0.00086563
3751.86	0.000268
3761.51	0.000401
3771.15	0.000484
3780.8	0.0009797
3790.44	0.000635
3800.09	0.00065
3809.73	0.0005
3819.38	0.000289
3829.02	0.000614
3838.67	0.000511
3848.31	0.000297
3857.96	0.000302
3867.6	0.000395
3877.25	0.000424
3886.89	0.000346
3896.54	0.000659
3906.18	0.000632
3915.83	0.00086504
3925.47	0.000308
3935.12	0.000599
3944.76	0.000611
3954.41	0.000693
3964.05	0.000702
3973.69	0.00084951
3983.34	0.000547
3992.98	0.00086323
