Infrared Spectrum: N-2,4,6-Trisopropylbenzenesulphonylimidazole
Formula: C 18 H 26 N 2 O 2 S
CAS: 50257-40-4
State: gas
Origin: EPA-IR VAPOR PHASE LIBRARY
1/CM	ABSORBANCE
549.8	0.013292
559.445	0.013122
569.09	0.012752
578.734	0.019922
588.379	0.040152
598.024	0.035102
607.669	0.017662
617.313	0.010752
626.958	0.011562
636.603	0.011612
646.248	0.017512
655.893	0.024742
665.537	0.065282
675.182	0.045192
684.827	0.011412
694.472	0.005422
704.116	0.003952
713.761	0.007192
723.406	0.007252
733.051	0.007272
742.695	0.005892
752.34	0.003292
761.985	0.002332
771.63	0.0016037
781.275	0.001772
790.919	0.0015791
800.564	0.003182
810.209	0.005852
819.854	0.004792
829.498	0.007712
839.143	0.004242
848.788	0.0014139
858.433	0.002212
868.078	0.002572
877.722	0.006292
887.367	0.008942
897.012	0.004142
906.657	0.002462
916.301	0.002862
925.946	0.004852
935.591	0.006512
945.236	0.003822
954.88	0.002852
964.525	0.002422
974.17	0.002432
983.815	0.002862
993.46	0.002822
1003.1	0.002842
1012.75	0.003512
1022.39	0.005322
1032.04	0.013012
1041.68	0.062102
1051.33	0.057382
1060.97	0.012482
1070.62	0.008442
1080.26	0.006902
1089.91	0.010722
1099.55	0.013052
1109.2	0.006922
1118.84	0.004812
1128.49	0.011292
1138.13	0.038622
1147.78	0.065312
1157.42	0.022822
1167.07	0.022182
1176.71	0.038492
1186.36	0.043412
1196	0.027762
1205.64	0.009692
1215.29	0.006462
1224.93	0.006292
1234.58	0.007482
1244.22	0.008852
1253.87	0.009622
1263.51	0.009572
1273.16	0.005952
1282.8	0.003052
1292.45	0.003292
1302.09	0.004042
1311.74	0.005822
1321.38	0.004732
1331.03	0.004622
1340.67	0.007332
1350.32	0.011802
1359.96	0.015062
1369.61	0.022572
1379.25	0.032232
1388.9	0.041862
1398.54	0.018762
1408.18	0.011942
1417.83	0.019102
1427.47	0.025962
1437.12	0.015152
1446.76	0.014252
1456.41	0.020272
1466.05	0.022332
1475.7	0.014732
1485.34	0.006692
1494.99	0.004532
1504.63	0.005282
1514.28	0.008452
1523.92	0.005472
1533.57	0.005452
1543.21	0.007552
1552.86	0.008812
1562.5	0.008832
1572.15	0.006582
1581.79	0.007812
1591.44	0.016252
1601.08	0.017742
1610.73	0.006002
1620.37	0.003312
1630.01	0.002202
1639.66	0.001992
1649.3	0.002122
1658.95	0.001812
1668.59	0.001692
1678.24	0.001682
1687.88	0.0016459
1697.53	0.0014881
1707.17	0.0012416
1716.82	0.0015298
1726.46	0.0015006
1736.11	0.000927
1745.75	0.0010484
1755.4	0.00075779
1765.04	0.001092
1774.69	0.0013561
1784.33	0.0010798
1793.98	0.0009837
1803.62	0.0011235
1813.27	0.0009806
1822.91	0.0008986
1832.55	0.000838
1842.2	0.00075343
1851.84	0.0007849
1861.49	0.0008817
1871.13	0.000803
1880.78	0.0008144
1890.42	0.0008608
1900.07	0.0005992
1909.71	0.0005964
1919.36	0.00070276
1929	0.0006145
1938.65	0.0005944
1948.29	0.000509
1957.94	0.00071732
1967.58	0.0006477
1977.23	0.0008761
1986.87	0.0006321
1996.52	0.0008112
2006.16	0.00073255
2015.81	0.000804
2025.45	0.0009701
2035.1	0.0010371
2044.74	0.00073159
2054.38	0.0007913
2064.03	0.00068577
2073.67	0.000877
2083.32	0.00070429
2092.96	0.0008563
2102.61	0.0009106
2112.25	0.0007219
2121.9	0.0008096
2131.54	0.0010334
2141.19	0.0009364
2150.83	0.0008659
2160.48	0.0008454
2170.12	0.0008457
2179.77	0.0009415
2189.41	0.0010788
2199.06	0.0008681
2208.7	0.0008208
2218.35	0.0008434
2227.99	0.0009277
2237.64	0.0009799
2247.28	0.0009036
2256.92	0.0007368
2266.57	0.00073242
2276.21	0.0007875
2285.86	0.0008796
2295.5	0.0007607
2305.15	0.0010094
2314.79	0.0008326
2324.44	0.0008661
2334.08	0.0009281
2343.73	0.0008454
2353.37	0.00072559
2363.02	0.0007869
2372.66	0.0009041
2382.31	0.0009713
2391.95	0.0006303
2401.6	0.0007901
2411.24	0.0009594
2420.89	0.0010018
2430.53	0.00094
2440.18	0.0010611
2449.82	0.0009865
2459.47	0.0012151
2469.11	0.0013368
2478.75	0.0013106
2488.4	0.001376
2498.04	0.0011906
2507.69	0.001494
2517.33	0.0011767
2526.98	0.000961
2536.62	0.0010211
2546.27	0.0011627
2555.91	0.0013467
2565.56	0.0013273
2575.2	0.0010196
2584.85	0.001252
2594.49	0.0012468
2604.14	0.0015292
2613.78	0.0012595
2623.43	0.0011741
2633.07	0.0012393
2642.72	0.001159
2652.36	0.0010165
2662.01	0.0010914
2671.65	0.001137
2681.29	0.0009298
2690.94	0.0011584
2700.58	0.0011206
2710.23	0.0007859
2719.87	0.0015484
2729.52	0.0015555
2739.16	0.0015662
2748.81	0.0015206
2758.45	0.0014311
2768.1	0.001862
2777.74	0.001832
2787.39	0.0013465
2797.03	0.001772
2806.68	0.002022
2816.32	0.002342
2825.97	0.002332
2835.61	0.002372
2845.26	0.003162
2854.9	0.004842
2864.55	0.006892
2874.19	0.014582
2883.84	0.019292
2893.48	0.013822
2903.12	0.014742
2912.77	0.015782
2922.41	0.016862
2932.06	0.023332
2941.7	0.026382
2951.35	0.022522
2960.99	0.047582
2970.64	0.072022
2980.28	0.038162
2989.93	0.014722
2999.57	0.007942
3009.22	0.005372
3018.86	0.004612
3028.51	0.004392
3038.15	0.004132
3047.8	0.004032
3057.44	0.004622
3067.09	0.004412
3076.73	0.003692
3086.38	0.002972
3096.02	0.002532
3105.67	0.002452
3115.31	0.002532
3124.95	0.003172
3134.6	0.002982
3144.24	0.002712
3153.89	0.002842
3163.53	0.002542
3173.18	0.001772
3182.82	0.001712
3192.47	0.0015024
3202.11	0.001682
3211.76	0.001141
3221.4	0.0014523
3231.05	0.0008529
3240.69	0.0010425
3250.34	0.00075892
3259.98	0.0008534
3269.63	0.000876
3279.27	0.0009657
3288.92	0.0012085
3298.56	0.000895
3308.21	0.0009023
3317.85	0.0007642
3327.49	0.0006069
3337.14	0.00072847
3346.78	0.000771
3356.43	0.0006295
3366.07	0.0008637
3375.72	0.0005674
3385.36	0.000527
3395.01	0.0009043
3404.65	0.0008481
3414.3	0.00054
3423.94	0.0007311
3433.59	0.0010157
3443.23	0.000661981
3452.88	0.00069829
3462.52	0.0009512
3472.17	0.0010364
3481.81	0.000292
3491.46	0.000432
3501.1	0.000441
3510.75	0.0005982
3520.39	0.00071792
3530.04	0.0006097
3539.68	0.0006275
3549.32	0.00069496
3558.97	0
3568.61	0.000503
3578.26	0.0008003
3587.9	0.0007972
3597.55	0.0005897
3607.19	0.0007927
3616.84	0.00072639
3626.48	0.0008087
3636.13	0.0006444
3645.77	0.000445
3655.42	0.000477
3665.06	0.0006417
3674.71	7.9e-05
3684.35	0.0007888
3694	0.00070589
3703.64	0.0011388
3713.29	0.000402
3722.93	0.000554
3732.58	0.000355
3742.22	0.00043
3751.86	0.0006465
3761.51	0.000523
3771.15	0.0010104
3780.8	0.00071121
3790.44	0.000451
3800.09	0.0008487
3809.73	0.00068504
3819.38	0.0010944
3829.02	0.0008621
3838.67	0.00065786
3848.31	0.00073448
3857.96	0.0009459
3867.6	0.0009815
3877.25	0.0013097
3886.89	0.0008953
3896.54	0.0009821
3906.18	0.00073436
3915.83	0.0009637
3925.47	0.00059
3935.12	0.000437
3944.76	0.000272
3954.41	0.001104
3964.05	0.000385
3973.69	0.0008248
3983.34	0.0007822
3992.98	0.0007666
