Infrared Spectrum: p-Nonyloxyaniline
Formula: C 15 H 25 N O
CAS: 50262-67-4
State: gas
Origin: EPA-IR VAPOR PHASE LIBRARY
1/CM	ABSORBANCE
549.8	0.0061504
559.445	0.0053604
569.09	0.0047104
578.734	0.0051204
588.379	0.0049004
598.024	0.0050304
607.669	0.0055304
617.313	0.0058504
626.958	0.0075404
636.603	0.0101904
646.248	0.0139404
655.893	0.0153204
665.537	0.0120204
675.182	0.0103904
684.827	0.0104104
694.472	0.0103304
704.116	0.0105904
713.761	0.0105004
723.406	0.0104704
733.051	0.0091504
742.695	0.0085104
752.34	0.0070504
761.985	0.0067304
771.63	0.0060904
781.275	0.0056604
790.919	0.0072104
800.564	0.0097804
810.209	0.0151404
819.854	0.0201904
829.498	0.0144404
839.143	0.0095404
848.788	0.0066504
858.433	0.0053404
868.078	0.0047704
877.722	0.0040704
887.367	0.0036204
897.012	0.0035704
906.657	0.0036704
916.301	0.0045104
925.946	0.0045404
935.591	0.0046804
945.236	0.0042804
954.88	0.0043004
964.525	0.0044204
974.17	0.0061504
983.815	0.0075304
993.46	0.0084004
1003.1	0.0104204
1012.75	0.0128604
1022.39	0.0151204
1032.04	0.0173304
1041.68	0.0182104
1051.33	0.0169004
1060.97	0.0138804
1070.62	0.0118404
1080.26	0.0091304
1089.91	0.0069504
1099.55	0.0060004
1109.2	0.0055804
1118.84	0.0058404
1128.49	0.0051804
1138.13	0.0037904
1147.78	0.0028404
1157.42	0.0044504
1167.07	0.0073804
1176.71	0.0067704
1186.36	0.0085404
1196	0.0158704
1205.64	0.0244004
1215.29	0.0410604
1224.93	0.0702404
1234.58	0.10029
1244.22	0.0718004
1253.87	0.0374504
1263.51	0.0264304
1273.16	0.0160204
1282.8	0.0130604
1292.45	0.0117904
1302.09	0.0101904
1311.74	0.0078804
1321.38	0.0068604
1331.03	0.0057704
1340.67	0.0050204
1350.32	0.0051704
1359.96	0.0048804
1369.61	0.0055204
1379.25	0.0086504
1388.9	0.0099704
1398.54	0.0057404
1408.18	0.0041904
1417.83	0.0041204
1427.47	0.0049004
1437.12	0.0064104
1446.76	0.0088504
1456.41	0.0120904
1466.05	0.0160704
1475.7	0.0206904
1485.34	0.0154704
1494.99	0.0290704
1504.63	0.0986104
1514.28	0.11773
1523.92	0.0317504
1533.57	0.0111704
1543.21	0.0056004
1552.86	0.0040804
1562.5	0.0034904
1572.15	0.0033804
1581.79	0.0040404
1591.44	0.0050904
1601.08	0.0071304
1610.73	0.0132404
1620.37	0.0149304
1630.01	0.0118104
1639.66	0.0063204
1649.3	0.0035104
1658.95	0.0026104
1668.59	0.0019004
1678.24	0.0015404
1687.88	0.0013104
1697.53	0.0013004
1707.17	0.0013804
1716.82	0.0015404
1726.46	0.0016404
1736.11	0.0013004
1745.75	0.0012604
1755.4	0.0011404
1765.04	0.0010804
1774.69	0.0009381
1784.33	0.0010704
1793.98	0.0010604
1803.62	0.0012404
1813.27	0.0013704
1822.91	0.0013904
1832.55	0.0016104
1842.2	0.0018404
1851.84	0.0018004
1861.49	0.0016204
1871.13	0.0013204
1880.78	0.0010804
1890.42	0.0009892
1900.07	0.0010285
1909.71	0.00104
1919.36	0.0011404
1929	0.0011804
1938.65	0.0011604
1948.29	0.0011704
1957.94	0.0013004
1967.58	0.0012704
1977.23	0.0013004
1986.87	0.0012104
1996.52	0.0014004
2006.16	0.0012704
2015.81	0.0013804
2025.45	0.0013004
2035.1	0.0013204
2044.74	0.0013704
2054.38	0.0012704
2064.03	0.0011804
2073.67	0.0012204
2083.32	0.0012004
2092.96	0.0009726
2102.61	0.0008993
2112.25	0.0008305
2121.9	0.0006491
2131.54	0.0005832
2141.19	0.0005474
2150.83	0.0005369
2160.48	0.0005413
2170.12	0.0004675
2179.77	0.000603
2189.41	0.0006182
2199.06	0.0005227
2208.7	0.0003443
2218.35	0.0004864
2227.99	0.0005049
2237.64	0.0005628
2247.28	0.0006818
2256.92	0.0007096
2266.57	0.0007173
2276.21	0.0006833
2285.86	0.000709
2295.5	0.000667
2305.15	0.000707
2314.79	0.0007148
2324.44	0.0007513
2334.08	0.0007174
2343.73	0.0009182
2353.37	0.0009248
2363.02	0.0008102
2372.66	0.0006158
2382.31	0.0007093
2391.95	0.0007576
2401.6	0.0006563
2411.24	0.0006222
2420.89	0.0006587
2430.53	0.0006505
2440.18	0.000786
2449.82	0.0008305
2459.47	0.0009251
2469.11	0.0008671
2478.75	0.0007902
2488.4	0.0006777
2498.04	0.0007094
2507.69	0.0009039
2517.33	0.0011304
2526.98	0.0009674
2536.62	0.0007651
2546.27	0.0006746
2555.91	0.0006819
2565.56	0.0007339
2575.2	0.0007715
2584.85	0.000796
2594.49	0.0008448
2604.14	0.0008578
2613.78	0.0009547
2623.43	0.0008767
2633.07	0.0010704
2642.72	0.0011204
2652.36	0.0011704
2662.01	0.0013604
2671.65	0.0013504
2681.29	0.0016104
2690.94	0.0015404
2700.58	0.0014604
2710.23	0.0015104
2719.87	0.0015704
2729.52	0.0018804
2739.16	0.0021704
2748.81	0.0022104
2758.45	0.0021904
2768.1	0.0021804
2777.74	0.0022604
2787.39	0.0024004
2797.03	0.0028504
2806.68	0.0033904
2816.32	0.0043704
2825.97	0.0059504
2835.61	0.0086804
2845.26	0.0144004
2854.9	0.0286204
2864.55	0.0420904
2874.19	0.0380704
2883.84	0.0327704
2893.48	0.0298004
2903.12	0.0364504
2912.77	0.0505904
2922.41	0.0743304
2932.06	0.10115
2941.7	0.0910504
2951.35	0.0647804
2960.99	0.0499904
2970.64	0.0398304
2980.28	0.0208104
2989.93	0.0122804
2999.57	0.0101504
3009.22	0.0107504
3018.86	0.0101704
3028.51	0.0108304
3038.15	0.0140004
3047.8	0.0091404
3057.44	0.0053004
3067.09	0.0048204
3076.73	0.0042704
3086.38	0.0034604
3096.02	0.0030004
3105.67	0.0027704
3115.31	0.0022904
3124.95	0.0017304
3134.6	0.0012804
3144.24	0.0009714
3153.89	0.0007211
3163.53	0.0008462
3173.18	0.0006354
3182.82	0.0005534
3192.47	0.0006616
3202.11	0.0006608
3211.76	0.000679
3221.4	0.0006151
3231.05	0.0003759
3240.69	0.0005565
3250.34	0.0004549
3259.98	0.0005166
3269.63	0.0005484
3279.27	0.0005251
3288.92	0.0004762
3298.56	0.0003213
3308.21	0.0003083
3317.85	0.00035
3327.49	0.0003063
3337.14	0.0001556
3346.78	0.0002626
3356.43	0.0003764
3366.07	0.0003022
3375.72	0.0008703
3385.36	0.0013404
3395.01	0.0019904
3404.65	0.0025904
3414.3	0.0012504
3423.94	0.0005555
3433.59	0.0009156
3443.23	0.0009435
3452.88	0.0009713
3462.52	0.0015304
3472.17	0.0018304
3481.81	0.0021204
3491.46	0.0015004
3501.1	0.0011404
3510.75	0.0005621
3520.39	0.0001775
3530.04	0.0004789
3539.68	0.0005018
3549.32	0.0004442
3558.97	0.0004202
3568.61	0.0004154
3578.26	0.0005241
3587.9	0.0003111
3597.55	0.0002176
3607.19	0.0001547
3616.84	0.0001489
3626.48	0.0002107
3636.13	0.00010359
3645.77	0.0003826
3655.42	0.0003578
3665.06	0.0002871
3674.71	0.00010268
3684.35	0.0005134
3694	0.0003185
3703.64	0.00013136
3713.29	0.000156
3722.93	0.0001688
3732.58	0.0003909
3742.22	0.0002256
3751.86	9.904e-05
3761.51	0.00012597
3771.15	5.874e-05
3780.8	0.000402
3790.44	0.00013909
3800.09	0.000145
3809.73	0.0001324
3819.38	0.0003528
3829.02	0.0002054
3838.67	0.000204
3848.31	0.0001535
3857.96	0.0005616
3867.6	0.0004088
3877.25	0.0004947
3886.89	0.0004451
3896.54	0.000506
3906.18	0.0006175
3915.83	0.0005949
3925.47	0.0007531
3935.12	0.0003802
3944.76	0.0001859
3954.41	0.0005542
3964.05	0.0006861
3973.69	0.0003909
3983.34	0.000581
3992.98	0.000868
