Infrared Spectrum: 6-Methyl-1-heptene
Formula: C 8 H 16
CAS: 5026-76-6
State: gas
Instrument: HP-GC/MS/IRD
Origin: NIST Mass Spectrometry Data Center
1/CM	ABSORBANCE
550	0.0008125
562	0.0001025
574	0.0001725
586	0.000175
598	0.0003225
610	0.00041
622	0.0007
634	0.0008175
646	0.0006775
658	0.00029
670	0.00015
682	8.5e-05
694	0.0001225
706	9.25e-05
718	0.000125
730	0.000165
742	0.00025
754	0.0002425
766	0.000185
778	0.0001125
790	0.0001675
802	0.00019
814	0.0002175
826	0.0002375
838	0.000415
850	0.00044
862	0.00061
874	0.000785
886	0.001235
898	0.0024775
910	0.0048025
922	0.0041625
934	0.00208
946	0.0013775
958	0.0011675
970	0.0012575
982	0.0017275
994	0.002195
1006	0.001655
1018	0.000935
1030	0.0006425
1042	0.000475
1054	0.0004325
1066	0.000285
1078	0.0002425
1090	0.0002925
1102	0.0002175
1114	0.00031
1126	0.0003425
1138	0.0003625
1150	0.0005675
1162	0.0008675
1174	0.0008625
1186	0.0005475
1198	0.000475
1210	0.000465
1222	0.00046
1234	0.0004275
1246	0.000375
1258	0.00034
1270	0.000435
1282	0.0005025
1294	0.0005725
1306	0.000595
1318	0.00074
1330	0.00092
1342	0.0010575
1354	0.001355
1366	0.00195
1378	0.0023575
1390	0.002155
1402	0.00124
1414	0.000965
1426	0.00115
1438	0.00175
1450	0.0026175
1462	0.00312
1474	0.00279
1486	0.00146
1498	0.00069
1510	0.000395
1522	0.0003075
1534	0.00022
1546	0.0002325
1558	0.000235
1570	0.000185
1582	0.0002075
1594	0.0002625
1606	0.00036
1618	0.0007125
1630	0.0016225
1642	0.00222
1654	0.00113
1666	0.00043
1678	0.000285
1690	0.0002175
1702	0.0001975
1714	0.000165
1726	0.00013
1738	0.0001275
1750	0.00011
1762	9.5e-05
1774	0.0001275
1786	0.0001175
1798	0.00014
1810	0.0002675
1822	0.0005225
1834	0.0005375
1846	0.000295
1858	0.0001625
1870	0.0001075
1882	7e-05
1894	6e-05
1906	6e-05
1918	4e-05
1930	2.75e-05
1942	2.75e-05
1954	1.75e-05
1966	6.75e-05
1978	7.75e-05
1990	5.75e-05
2002	5.5e-05
2014	2.25e-05
2026	2.5e-05
2038	2.75e-05
2050	4.25e-05
2062	3e-05
2074	5.25e-05
2086	5e-06
2098	1.5e-05
2110	3.75e-05
2122	3.5e-05
2134	1.75e-05
2146	1.5e-05
2158	5e-05
2170	1.25e-05
2182	3.5e-05
2194	2.25e-05
2206	3.75e-05
2218	1e-05
2230	3.75e-05
2242	4.5e-05
2254	4.5e-05
2266	6e-05
2278	8.5e-05
2290	5.75e-05
2302	3.25e-05
2314	7.5e-05
2326	7.5e-05
2338	6.5e-05
2350	6.75e-05
2362	7e-05
2374	5e-05
2386	7e-05
2398	3e-05
2410	3.75e-05
2422	4e-05
2434	5.25e-05
2446	5.75e-05
2458	4.75e-05
2470	2.75e-05
2482	5e-05
2494	6.25e-05
2506	3.5e-05
2518	5.75e-05
2530	5.5e-05
2542	3.5e-05
2554	6.5e-05
2566	9.5e-05
2578	0.0001125
2590	0.0001225
2602	0.00018
2614	0.0001725
2626	0.00021
2638	0.000205
2650	0.0001925
2662	0.0002
2674	0.0002225
2686	0.000235
2698	0.0002325
2710	0.00029
2722	0.000375
2734	0.0003975
2746	0.000385
2758	0.0003925
2770	0.0004475
2782	0.0005275
2794	0.000665
2806	0.00092
2818	0.0012875
2830	0.002015
2842	0.0037175
2854	0.00612
2866	0.0084025
2878	0.0103175
2890	0.0110025
2902	0.0127025
2914	0.0164075
2926	0.0203875
2938	0.0223875
2950	0.0215175
2962	0.025
2974	0.0185875
2986	0.0077325
2998	0.0044875
3010	0.0032075
3022	0.0020175
3034	0.00145
3046	0.0013775
3058	0.001675
3070	0.0023625
3082	0.0035975
3094	0.0028625
3106	0.0011725
3118	0.0007275
3130	0.00048
3142	0.0004
3154	0.0003575
3166	0.0003025
3178	0.0003375
3190	0.0002975
3202	0.0002125
3214	0.000145
3226	9.25e-05
3238	4e-05
3250	0.0001525
3262	5.5e-05
3274	6.5e-05
3286	8.5e-05
3298	3.75e-05
3310	6e-05
3322	6.5e-05
3334	5.75e-05
3346	0.00012
3358	9.25e-05
3370	8.75e-05
3382	7.75e-05
3394	0.000105
3406	7e-05
3418	8e-05
3430	7e-05
3442	4.25e-05
3454	7.5e-05
3466	3.75e-05
3478	7e-05
3490	5.75e-05
3502	9e-05
3514	0.0001125
3526	8.5e-05
3538	8.25e-05
3550	8e-05
3562	0.00012
3574	0.0001
3586	7.75e-05
3598	8.75e-05
3610	6.5e-05
3622	8e-05
3634	8.75e-05
3646	0.00012
3658	0.0001475
3670	0.0001475
3682	9.75e-05
3694	8e-05
3706	0.00013
3718	6e-05
3730	0.000165
3742	0.0001
3754	0.00011
3766	0.0001075
3778	0.0001375
3790	0.000165
3802	0.000155
3814	8.75e-05
3826	0.0001375
3838	0.0001825
