Infrared Spectrum: p-Nonyloxybenzaldehyde
Formula: C 16 H 24 O 2
CAS: 50262-46-9
State: gas
Origin: EPA-IR VAPOR PHASE LIBRARY
1/CM	ABSORBANCE
549.8	0.001515
559.445	0.0012386
569.09	0.0010943
578.734	0.0010453
588.379	0.002945
598.024	0.004305
607.669	0.006505
617.313	0.007925
626.958	0.003715
636.603	0.003045
646.248	0.004465
655.893	0.003425
665.537	0.001585
675.182	0.001088
684.827	0.0011755
694.472	0.001515
704.116	0.001685
713.761	0.002045
723.406	0.001975
733.051	0.002175
742.695	0.002165
752.34	0.002845
761.985	0.002645
771.63	0.003025
781.275	0.002915
790.919	0.003475
800.564	0.005485
810.209	0.008015
819.854	0.012975
829.498	0.017335
839.143	0.015325
848.788	0.015075
858.433	0.010865
868.078	0.005335
877.722	0.003235
887.367	0.002315
897.012	0.002345
906.657	0.002245
916.301	0.002705
925.946	0.003455
935.591	0.003065
945.236	0.003065
954.88	0.003115
964.525	0.003505
974.17	0.004535
983.815	0.006435
993.46	0.008015
1003.1	0.009285
1012.75	0.010545
1022.39	0.012715
1032.04	0.012525
1041.68	0.012075
1051.33	0.010145
1060.97	0.007815
1070.62	0.006025
1080.26	0.004655
1089.91	0.004065
1099.55	0.004655
1109.2	0.005325
1118.84	0.004755
1128.49	0.004465
1138.13	0.005725
1147.78	0.014545
1157.42	0.065925
1167.07	0.031575
1176.71	0.008585
1186.36	0.008245
1196	0.014965
1205.64	0.028105
1215.29	0.031565
1224.93	0.039625
1234.58	0.048095
1244.22	0.066945
1253.87	0.072465
1263.51	0.041645
1273.16	0.020435
1282.8	0.015725
1292.45	0.020995
1302.09	0.029185
1311.74	0.019705
1321.38	0.011145
1331.03	0.007465
1340.67	0.006195
1350.32	0.005925
1359.96	0.005065
1369.61	0.005075
1379.25	0.007805
1388.9	0.011755
1398.54	0.006965
1408.18	0.004895
1417.83	0.005485
1427.47	0.006925
1437.12	0.005395
1446.76	0.006535
1456.41	0.008775
1466.05	0.011705
1475.7	0.013575
1485.34	0.007705
1494.99	0.011625
1504.63	0.031955
1514.28	0.019415
1523.92	0.005995
1533.57	0.004065
1543.21	0.003825
1552.86	0.004445
1562.5	0.007365
1572.15	0.017725
1581.79	0.031385
1591.44	0.045045
1601.08	0.076665
1610.73	0.042185
1620.37	0.014085
1630.01	0.006355
1639.66	0.004325
1649.3	0.003565
1658.95	0.003725
1668.59	0.004745
1678.24	0.006735
1687.88	0.009275
1697.53	0.016545
1707.17	0.041125
1716.82	0.098805
1726.46	0.038535
1736.11	0.009455
1745.75	0.004075
1755.4	0.002605
1765.04	0.002165
1774.69	0.001705
1784.33	0.001435
1793.98	0.001405
1803.62	0.001265
1813.27	0.0010993
1822.91	0.0010105
1832.55	0.0010061
1842.2	0.0009628
1851.84	0.0011308
1861.49	0.0010832
1871.13	0.0011165
1880.78	0.0012362
1890.42	0.001575
1900.07	0.001575
1909.71	0.0012139
1919.36	0.0011156
1929	0.0011706
1938.65	0.0010737
1948.29	0.0010919
1957.94	0.0011456
1967.58	0.001275
1977.23	0.001335
1986.87	0.001405
1996.52	0.001485
2006.16	0.001825
2015.81	0.001865
2025.45	0.001535
2035.1	0.001355
2044.74	0.001315
2054.38	0.001295
2064.03	0.0011422
2073.67	0.0011473
2083.32	0.0010026
2092.96	0.0009062
2102.61	0.0009263
2112.25	0.0009307
2121.9	0.0007237
2131.54	0.0006991
2141.19	0.0006123
2150.83	0.0006421
2160.48	0.0006554
2170.12	0.0006576
2179.77	0.0005794
2189.41	0.000604
2199.06	0.0006298
2208.7	0.0005349
2218.35	0.0006585
2227.99	0.0006214
2237.64	0.0006522
2247.28	0.0007957
2256.92	0.0008182
2266.57	0.0007612
2276.21	0.0007659
2285.86	0.0007498
2295.5	0.0006421
2305.15	0.0007908
2314.79	0.0006952
2324.44	0.0007141
2334.08	0.0006902
2343.73	0.0006411
2353.37	0.0006789
2363.02	0.0005978
2372.66	0.0006969
2382.31	0.0008092
2391.95	0.0008022
2401.6	0.0008914
2411.24	0.0010649
2420.89	0.0010897
2430.53	0.0009753
2440.18	0.0010672
2449.82	0.0012087
2459.47	0.0012523
2469.11	0.001221
2478.75	0.0010846
2488.4	0.0012134
2498.04	0.0012086
2507.69	0.001251
2517.33	0.0011891
2526.98	0.001345
2536.62	0.001435
2546.27	0.001675
2555.91	0.001675
2565.56	0.001645
2575.2	0.001575
2584.85	0.001715
2594.49	0.001655
2604.14	0.001625
2613.78	0.001555
2623.43	0.001435
2633.07	0.001435
2642.72	0.001625
2652.36	0.001655
2662.01	0.001935
2671.65	0.002575
2681.29	0.003595
2690.94	0.004505
2700.58	0.006035
2710.23	0.009285
2719.87	0.013995
2729.52	0.014125
2739.16	0.008795
2748.81	0.005855
2758.45	0.004635
2768.1	0.004845
2777.74	0.006035
2787.39	0.008645
2797.03	0.010315
2806.68	0.010555
2816.32	0.012015
2825.97	0.010535
2835.61	0.009155
2845.26	0.011555
2854.9	0.020325
2864.55	0.029735
2874.19	0.026805
2883.84	0.023655
2893.48	0.021185
2903.12	0.024805
2912.77	0.035255
2922.41	0.054175
2932.06	0.075745
2941.7	0.069375
2951.35	0.049505
2960.99	0.038575
2970.64	0.032695
2980.28	0.017785
2989.93	0.009765
2999.57	0.006675
3009.22	0.005185
3018.86	0.004635
3028.51	0.004765
3038.15	0.004955
3047.8	0.003395
3057.44	0.002815
3067.09	0.003225
3076.73	0.003835
3086.38	0.003115
3096.02	0.003155
3105.67	0.002575
3115.31	0.001925
3124.95	0.001465
3134.6	0.0012459
3144.24	0.0010747
3153.89	0.0010729
3163.53	0.0008384
3173.18	0.0008591
3182.82	0.0007204
3192.47	0.0009795
3202.11	0.0006975
3211.76	0.0005441
3221.4	0.0004306
3231.05	0.00044
3240.69	0.0004191
3250.34	0.00031496
3259.98	0.00032041
3269.63	0.0004203
3279.27	0.000583
3288.92	0.0004824
3298.56	0.0005013
3308.21	0.0004224
3317.85	0.0005053
3327.49	0.000599
3337.14	0.0005145
3346.78	0.000655
3356.43	0.0004803
3366.07	0.0004984
3375.72	0.0004007
3385.36	0.0006445
3395.01	0.0009084
3404.65	0.001315
3414.3	0.001515
3423.94	0.0011632
3433.59	0.0008158
3443.23	0.0004889
3452.88	0.0006812
3462.52	0.0004669
3472.17	0.0002272
3481.81	0.0003769
3491.46	0.00033923
3501.1	0.0004402
3510.75	0.000172
3520.39	0.00030146
3530.04	0.0004076
3539.68	0.00031454
3549.32	0.000258442
3558.97	0.00027998
3568.61	0.0004643
3578.26	0.0003656
3587.9	0.0005056
3597.55	0.00034016
3607.19	0.00028601
3616.84	0.0003691
3626.48	0.0003979
3636.13	0.0005268
3645.77	0.0005601
3655.42	0.0005508
3665.06	0.0005448
3674.71	0.0004225
3684.35	0.0006636
3694	0.0003794
3703.64	0.000388
3713.29	0.00033392
3722.93	0.0004054
3732.58	0.0004724
3742.22	0.0005546
3751.86	0.000461
3761.51	0.00031867
3771.15	0.0004043
3780.8	0.000596
3790.44	0.00033175
3800.09	0.0004709
3809.73	0.0005447
3819.38	0.0004097
3829.02	0.0005978
3838.67	0.00035156
3848.31	0.0004032
3857.96	0.0004891
3867.6	0.0006176
3877.25	0.0005141
3886.89	0.0005968
3896.54	0.0004284
3906.18	0.0005372
3915.83	0.0006191
3925.47	0.0006717
3935.12	0.0004288
3944.76	0.0004077
3954.41	0.0006665
3964.05	0.000512
3973.69	0.0005391
3983.34	0.000561
3992.98	0.0006948
