Infrared Spectrum: p-Propionoxybenzaldehyde
Formula: C 10 H 10 O 3
CAS: 50262-48-1
State: gas
Origin: EPA-IR VAPOR PHASE LIBRARY
1/CM	ABSORBANCE
549.8	0.00161
559.445	0.00164
569.09	0.00174
578.734	0.00172
588.379	0.00159
598.024	0.00163
607.669	0.00248
617.313	0.0042
626.958	0.00694
636.603	0.00573
646.248	0.00732
655.893	0.00745
665.537	0.00603
675.182	0.0045
684.827	0.00387
694.472	0.0034
704.116	0.00395
713.761	0.00479
723.406	0.00355
733.051	0.0027
742.695	0.00243
752.34	0.00304
761.985	0.0044
771.63	0.00801
781.275	0.00942
790.919	0.00762
800.564	0.0094
810.209	0.01494
819.854	0.01779
829.498	0.01584
839.143	0.0177
848.788	0.02647
858.433	0.02883
868.078	0.01846
877.722	0.01717
887.367	0.0172
897.012	0.01246
906.657	0.00693
916.301	0.00409
925.946	0.0034
935.591	0.00354
945.236	0.00437
954.88	0.00566
964.525	0.00973
974.17	0.01937
983.815	0.02237
993.46	0.01581
1003.1	0.01405
1012.75	0.01699
1022.39	0.0106
1032.04	0.00988
1041.68	0.01543
1051.33	0.02484
1060.97	0.03093
1070.62	0.03134
1080.26	0.02978
1089.91	0.02962
1099.55	0.03667
1109.2	0.05565
1118.84	0.08728
1128.49	0.10972
1138.13	0.10403
1147.78	0.10488
1157.42	0.15289
1167.07	0.09343
1176.71	0.09396
1186.36	0.09619
1196	0.10304
1205.64	0.16894
1215.29	0.13209
1224.93	0.04424
1234.58	0.0257
1244.22	0.01849
1253.87	0.01651
1263.51	0.01725
1273.16	0.01749
1282.8	0.01582
1292.45	0.01763
1302.09	0.0166
1311.74	0.01118
1321.38	0.01365
1331.03	0.01767
1340.67	0.02016
1350.32	0.02373
1359.96	0.01793
1369.61	0.01169
1379.25	0.0142
1388.9	0.01373
1398.54	0.00951
1408.18	0.00839
1417.83	0.00954
1427.47	0.01064
1437.12	0.00915
1446.76	0.00791
1456.41	0.00815
1466.05	0.01267
1475.7	0.01058
1485.34	0.00866
1494.99	0.02044
1504.63	0.02943
1514.28	0.01237
1523.92	0.00576
1533.57	0.00464
1543.21	0.00421
1552.86	0.00435
1562.5	0.00568
1572.15	0.00996
1581.79	0.02454
1591.44	0.05251
1601.08	0.06189
1610.73	0.02737
1620.37	0.00971
1630.01	0.00633
1639.66	0.00553
1649.3	0.00549
1658.95	0.00606
1668.59	0.0073
1678.24	0.00881
1687.88	0.01107
1697.53	0.01783
1707.17	0.03886
1716.82	0.12291
1726.46	0.13928
1736.11	0.03218
1745.75	0.01901
1755.4	0.02286
1765.04	0.03702
1774.69	0.06027
1784.33	0.07386
1793.98	0.05623
1803.62	0.02871
1813.27	0.01321
1822.91	0.00752
1832.55	0.00523
1842.2	0.00394
1851.84	0.00314
1861.49	0.0026
1871.13	0.00256
1880.78	0.00266
1890.42	0.00284
1900.07	0.00312
1909.71	0.00311
1919.36	0.00269
1929	0.00225
1938.65	0.00203
1948.29	0.0021
1957.94	0.00219
1967.58	0.00247
1977.23	0.00244
1986.87	0.0021
1996.52	0.00216
2006.16	0.0024
2015.81	0.0024
2025.45	0.00202
2035.1	0.00173
2044.74	0.00174
2054.38	0.00186
2064.03	0.00194
2073.67	0.0014
2083.32	0.0011302
2092.96	0.000829
2102.61	0.000826
2112.25	0.0008543
2121.9	0.0008372
2131.54	0.0008239
2141.19	0.000881
2150.83	0.0008169
2160.48	0.0008116
2170.12	0.0007322
2179.77	0.0007811
2189.41	0.0006304
2199.06	0.0007703
2208.7	0.0007539
2218.35	0.0007255
2227.99	0.000706
2237.64	0.0008413
2247.28	0.0008488
2256.92	0.0008491
2266.57	0.0009493
2276.21	0.0010078
2285.86	0.0008858
2295.5	0.0007495
2305.15	0.0008542
2314.79	0.0008854
2324.44	0.0007354
2334.08	0.0007405
2343.73	0.0007618
2353.37	0.0010893
2363.02	0.0012877
2372.66	0.0012712
2382.31	0.0012526
2391.95	0.00148
2401.6	0.00143
2411.24	0.00144
2420.89	0.001269
2430.53	0.0010338
2440.18	0.0009231
2449.82	0.0008684
2459.47	0.0008625
2469.11	0.0006848
2478.75	0.0007602
2488.4	0.0007737
2498.04	0.0007026
2507.69	0.0007548
2517.33	0.0007337
2526.98	0.0006506
2536.62	0.0006577
2546.27	0.0006368
2555.91	0.0006585
2565.56	0.0010204
2575.2	0.0012265
2584.85	0.00141
2594.49	0.0013199
2604.14	0.0012283
2613.78	0.0011158
2623.43	0.0011321
2633.07	0.0010489
2642.72	0.0010916
2652.36	0.0012858
2662.01	0.00158
2671.65	0.0023
2681.29	0.00324
2690.94	0.00432
2700.58	0.00713
2710.23	0.01188
2719.87	0.01759
2729.52	0.01848
2739.16	0.01232
2748.81	0.00734
2758.45	0.00601
2768.1	0.00684
2777.74	0.00904
2787.39	0.0111
2797.03	0.01238
2806.68	0.01429
2816.32	0.01705
2825.97	0.0141
2835.61	0.00869
2845.26	0.00531
2854.9	0.00341
2864.55	0.00289
2874.19	0.00283
2883.84	0.00375
2893.48	0.00537
2903.12	0.00557
2912.77	0.00497
2922.41	0.00525
2932.06	0.00652
2941.7	0.00789
2951.35	0.012
2960.99	0.01048
2970.64	0.00797
2980.28	0.01048
2989.93	0.0167
2999.57	0.01287
3009.22	0.00821
3018.86	0.00622
3028.51	0.0052
3038.15	0.00544
3047.8	0.00444
3057.44	0.00323
3067.09	0.00336
3076.73	0.00343
3086.38	0.00281
3096.02	0.00268
3105.67	0.00256
3115.31	0.00208
3124.95	0.0011881
3134.6	0.0008669
3144.24	0.0010004
3153.89	0.0006818
3163.53	0.000961
3173.18	0.0009284
3182.82	0.0006817
3192.47	0.0006716
3202.11	0.0006198
3211.76	0.0005527
3221.4	0.0004294
3231.05	0.0004698
3240.69	0.0002578
3250.34	0.0002824
3259.98	0.000194
3269.63	0.0002632
3279.27	0.0002432
3288.92	0.0003468
3298.56	0.00032192
3308.21	0.000197
3317.85	0.0002817
3327.49	0.00038261
3337.14	0.0002529
3346.78	0.00036558
3356.43	0.00037358
3366.07	0.0002919
3375.72	0.0004141
3385.36	0.0006358
3395.01	0.0005328
3404.65	0.0011085
3414.3	0.00177
3423.94	0.00219
3433.59	0.00168
3443.23	0.0010043
3452.88	0.0006541
3462.52	0.00035219
3472.17	0.00031034
3481.81	0.0003022
3491.46	0.0004413
3501.1	0.0005616
3510.75	0.0005893
3520.39	0.0005754
3530.04	0.0009402
3539.68	0.0010482
3549.32	0.0011575
3558.97	0.0008148
3568.61	0.0006447
3578.26	0.0004463
3587.9	0.0004663
3597.55	0.00041144
3607.19	0.0002599
3616.84	0.0005095
3626.48	0.0004592
3636.13	0.0002375
3645.77	0.000541
3655.42	0.00041999
3665.06	0.000172
3674.71	0.0003066
3684.35	0.0006499
3694	0.0002473
3703.64	0.0002672
3713.29	0.000188
3722.93	0.0002596
3732.58	0.000142
3742.22	0.0004264
3751.86	0.000201
3761.51	0.000165
3771.15	0.000127
3780.8	0.0003019
3790.44	0.000205
3800.09	0.000326859
3809.73	0.000175
3819.38	0.00017
3829.02	0.000152
3838.67	0.0004845
3848.31	0.0002351
3857.96	0.000133
3867.6	0.0002504
3877.25	0.00039319
3886.89	0.00037392
3896.54	0.0002398
3906.18	0.000169
3915.83	0.0002691
3925.47	0.00040026
3935.12	0.000167
3944.76	0.0002337
3954.41	0.00036292
3964.05	0.000191
3973.69	0.0002576
3983.34	0.0002675
3992.98	0.000461
