Infrared Spectrum: p-Butyryloxybenzaldehyde
Formula: C 11 H 12 O 3
CAS: 50262-49-2
State: gas
Origin: EPA-IR VAPOR PHASE LIBRARY
1/CM	ABSORBANCE
549.8	0.0016853
559.445	0.0014153
569.09	0.0019653
578.734	0.0014953
588.379	0.0018453
598.024	0.0020653
607.669	0.0027253
617.313	0.0041353
626.958	0.0063653
636.603	0.0048753
646.248	0.0060553
655.893	0.0059953
665.537	0.0050853
675.182	0.0040353
684.827	0.0036553
694.472	0.0036653
704.116	0.0039953
713.761	0.0044853
723.406	0.0048253
733.051	0.0050753
742.695	0.0046453
752.34	0.0051553
761.985	0.0070553
771.63	0.0113453
781.275	0.0096053
790.919	0.0079553
800.564	0.0075053
810.209	0.0107853
819.854	0.0151653
829.498	0.0170553
839.143	0.0214353
848.788	0.0298553
858.433	0.0258753
868.078	0.0147453
877.722	0.0127753
887.367	0.0143553
897.012	0.0151953
906.657	0.0173553
916.301	0.0227553
925.946	0.0165953
935.591	0.0091753
945.236	0.0061953
954.88	0.0042653
964.525	0.0030253
974.17	0.0027153
983.815	0.0028953
993.46	0.0041553
1003.1	0.0064553
1012.75	0.0139053
1022.39	0.0119553
1032.04	0.0150453
1041.68	0.0143153
1051.33	0.0161853
1060.97	0.0216853
1070.62	0.0330753
1080.26	0.0493953
1089.91	0.0583753
1099.55	0.0553553
1109.2	0.0500253
1118.84	0.0605153
1128.49	0.0873753
1138.13	0.110465
1147.78	0.116655
1157.42	0.156035
1167.07	0.0858653
1176.71	0.0807953
1186.36	0.0730653
1196	0.0945653
1205.64	0.179455
1215.29	0.124095
1224.93	0.0471253
1234.58	0.0325553
1244.22	0.0269353
1253.87	0.0203953
1263.51	0.0168753
1273.16	0.0157253
1282.8	0.0173453
1292.45	0.0236153
1302.09	0.0236353
1311.74	0.0148153
1321.38	0.0117553
1331.03	0.0113353
1340.67	0.0135753
1350.32	0.0179053
1359.96	0.0189053
1369.61	0.0166453
1379.25	0.0163953
1388.9	0.0144353
1398.54	0.0103553
1408.18	0.0088453
1417.83	0.0101653
1427.47	0.0111853
1437.12	0.0087353
1446.76	0.0076053
1456.41	0.0080953
1466.05	0.0084953
1475.7	0.0072653
1485.34	0.0083653
1494.99	0.0207453
1504.63	0.0322553
1514.28	0.0110653
1523.92	0.0046853
1533.57	0.0038053
1543.21	0.0037853
1552.86	0.0043153
1562.5	0.0059053
1572.15	0.0101753
1581.79	0.0235953
1591.44	0.0532053
1601.08	0.0624853
1610.73	0.0256953
1620.37	0.0090353
1630.01	0.0057353
1639.66	0.0050953
1649.3	0.0051153
1658.95	0.0057953
1668.59	0.0071153
1678.24	0.0092053
1687.88	0.0117253
1697.53	0.0183753
1707.17	0.0364453
1716.82	0.118505
1726.46	0.138645
1736.11	0.0308553
1745.75	0.0192653
1755.4	0.0240953
1765.04	0.0398653
1774.69	0.0632953
1784.33	0.0686953
1793.98	0.0445753
1803.62	0.0220953
1813.27	0.0117453
1822.91	0.0073953
1832.55	0.0051853
1842.2	0.0038953
1851.84	0.0030553
1861.49	0.0026553
1871.13	0.0024853
1880.78	0.0025153
1890.42	0.0026153
1900.07	0.0028553
1909.71	0.0028553
1919.36	0.0025553
1929	0.0023053
1938.65	0.0019453
1948.29	0.0019453
1957.94	0.0021853
1967.58	0.0024453
1977.23	0.0023553
1986.87	0.0021353
1996.52	0.0019653
2006.16	0.0021453
2015.81	0.0020053
2025.45	0.0018853
2035.1	0.0017353
2044.74	0.0017453
2054.38	0.0019053
2064.03	0.0018353
2073.67	0.0013353
2083.32	0.0011253
2092.96	0.0010753
2102.61	0.0010337
2112.25	0.0009697
2121.9	0.0009498
2131.54	0.0008255
2141.19	0.0007466
2150.83	0.0007707
2160.48	0.000659
2170.12	0.0006534
2179.77	0.0006791
2189.41	0.0006889
2199.06	0.0006597
2208.7	0.0006489
2218.35	0.0006309
2227.99	0.0006684
2237.64	0.0006863
2247.28	0.0008127
2256.92	0.0009795
2266.57	0.0009058
2276.21	0.0009319
2285.86	0.0008345
2295.5	0.0007026
2305.15	0.000804
2314.79	0.0008932
2324.44	0.0007015
2334.08	0.0005837
2343.73	0.0006994
2353.37	0.0010452
2363.02	0.0011853
2372.66	0.0011353
2382.31	0.0012253
2391.95	0.0012753
2401.6	0.0014053
2411.24	0.0013453
2420.89	0.0012253
2430.53	0.000981
2440.18	0.0008375
2449.82	0.00082
2459.47	0.0007264
2469.11	0.0006941
2478.75	0.0006765
2488.4	0.0007783
2498.04	0.00071
2507.69	0.0007847
2517.33	0.0008291
2526.98	0.000707
2536.62	0.0006948
2546.27	0.0006325
2555.91	0.0007635
2565.56	0.0010361
2575.2	0.0012453
2584.85	0.0014653
2594.49	0.0013453
2604.14	0.0011553
2613.78	0.00094
2623.43	0.0010549
2633.07	0.0009901
2642.72	0.0009216
2652.36	0.0011953
2662.01	0.0016253
2671.65	0.0022853
2681.29	0.0032553
2690.94	0.0043453
2700.58	0.0070053
2710.23	0.0116553
2719.87	0.0169753
2729.52	0.0184153
2739.16	0.0119453
2748.81	0.0073953
2758.45	0.0059253
2768.1	0.0066853
2777.74	0.0087453
2787.39	0.0111853
2797.03	0.0121053
2806.68	0.0138453
2816.32	0.0171653
2825.97	0.0141253
2835.61	0.0089053
2845.26	0.0057953
2854.9	0.0045153
2864.55	0.0046253
2874.19	0.0067753
2883.84	0.0111553
2893.48	0.0108753
2903.12	0.0086853
2912.77	0.0088153
2922.41	0.0102453
2932.06	0.0130853
2941.7	0.0186253
2951.35	0.0208853
2960.99	0.0202753
2970.64	0.0254253
2980.28	0.0286053
2989.93	0.0185253
2999.57	0.0100953
3009.22	0.0062153
3018.86	0.0048053
3028.51	0.0046053
3038.15	0.0054253
3047.8	0.0040953
3057.44	0.0032353
3067.09	0.0035253
3076.73	0.0037953
3086.38	0.0029053
3096.02	0.0026953
3105.67	0.0025253
3115.31	0.0021253
3124.95	0.0012253
3134.6	0.0010022
3144.24	0.0008899
3153.89	0.0006755
3163.53	0.0007732
3173.18	0.0007546
3182.82	0.0005847
3192.47	0.0004518
3202.11	0.0005228
3211.76	0.0004953
3221.4	0.0003821
3231.05	0.0003907
3240.69	0.0003236
3250.34	0.0003692
3259.98	0.0001876
3269.63	0.0002449
3279.27	0.0003605
3288.92	0.0002121
3298.56	0.0004092
3308.21	0.0002003
3317.85	0.00015385
3327.49	0.000285
3337.14	0.0002068
3346.78	0.0003377
3356.43	0.0002697
3366.07	0.0003479
3375.72	0.0003732
3385.36	0.0005515
3395.01	0.0006953
3404.65	0.0010201
3414.3	0.0016653
3423.94	0.0021753
3433.59	0.0014953
3443.23	0.0007766
3452.88	0.0004718
3462.52	0.0003337
3472.17	0.0003031
3481.81	0.0003624
3491.46	0.0002867
3501.1	0.0004007
3510.75	0.0004086
3520.39	0.0008369
3530.04	0.0009249
3539.68	0.0010653
3549.32	0.0008618
3558.97	0.0007878
3568.61	0.0006703
3578.26	0.0003814
3587.9	0.0004363
3597.55	0.000311
3607.19	0.0002704
3616.84	0.0003887
3626.48	0.0004002
3636.13	0.0004427
3645.77	0.000323
3655.42	0.0003217
3665.06	0.000421
3674.71	0.0002884
3684.35	0.00048
3694	0.000353
3703.64	0.0001765
3713.29	0.0003652
3722.93	0.0003612
3732.58	0.0003269
3742.22	0.0002936
3751.86	0.0003537
3761.51	0.0004008
3771.15	0.0002883
3780.8	7.19e-05
3790.44	0.0002766
3800.09	0.0002477
3809.73	0.0003175
3819.38	0.0004109
3829.02	0.00011164
3838.67	0.0003926
3848.31	0.0003137
3857.96	5.61218e-05
3867.6	0.0002505
3877.25	0.0004667
3886.89	0.0001678
3896.54	0.0002625
3906.18	0.0001918
3915.83	7.8e-06
3925.47	0.0004868
3935.12	0.0004317
3944.76	0.0004933
3954.41	0.0002378
3964.05	0.000372
3973.69	0.0004427
3983.34	0.0003046
3992.98	0.0004069
