Infrared Spectrum: p-Hexyloxybenzylidene p-aminophenol
Formula: C 19 H 23 N O 2
CAS: 50262-77-6
State: gas
Origin: EPA-IR VAPOR PHASE LIBRARY
1/CM	ABSORBANCE
549.8	0.0025421
559.445	0.0016921
569.09	0.0009073
578.734	0.0008584
588.379	0.0008238
598.024	0.0008173
607.669	0.0010821
617.313	0.0007565
626.958	0.0005661
636.603	0.0005325
646.248	0.0005434
655.893	0.0004342
665.537	0.0003106
675.182	0.0003309
684.827	0.000485
694.472	0.00046
704.116	0.000499
713.761	0.0009505
723.406	0.0009837
733.051	0.0009975
742.695	0.0015021
752.34	0.0019121
761.985	0.0026221
771.63	0.0030121
781.275	0.0025521
790.919	0.0031621
800.564	0.0032021
810.209	0.0035121
819.854	0.0057321
829.498	0.0085721
839.143	0.0083521
848.788	0.0053021
858.433	0.0030721
868.078	0.0023621
877.722	0.0030521
887.367	0.0041921
897.012	0.0020821
906.657	0.0014821
916.301	0.0014521
925.946	0.0015621
935.591	0.0021021
945.236	0.0019921
954.88	0.0018921
964.525	0.0021121
974.17	0.0021421
983.815	0.0019721
993.46	0.0022121
1003.1	0.0037921
1012.75	0.0062921
1022.39	0.0063421
1032.04	0.0052721
1041.68	0.0045021
1051.33	0.0041321
1060.97	0.0030121
1070.62	0.0025621
1080.26	0.0030221
1089.91	0.0031921
1099.55	0.0036621
1109.2	0.0038721
1118.84	0.0027721
1128.49	0.0026421
1138.13	0.0035821
1147.78	0.0049621
1157.42	0.0188121
1167.07	0.0462821
1176.71	0.0226621
1186.36	0.0204621
1196	0.0106121
1205.64	0.0094221
1215.29	0.0130421
1224.93	0.0169821
1234.58	0.0270221
1244.22	0.0396221
1253.87	0.0378321
1263.51	0.0148121
1273.16	0.0086521
1282.8	0.0081821
1292.45	0.0091021
1302.09	0.0111521
1311.74	0.0086421
1321.38	0.0065421
1331.03	0.0046121
1340.67	0.0035321
1350.32	0.0026621
1359.96	0.0026021
1369.61	0.0026721
1379.25	0.0030821
1388.9	0.0036521
1398.54	0.0024421
1408.18	0.0023321
1417.83	0.0044421
1427.47	0.0047321
1437.12	0.0039821
1446.76	0.0030521
1456.41	0.0038621
1466.05	0.0050021
1475.7	0.0069121
1485.34	0.0052321
1494.99	0.0118121
1504.63	0.0409421
1514.28	0.0340021
1523.92	0.0081521
1533.57	0.0038121
1543.21	0.0027921
1552.86	0.0026621
1562.5	0.0036821
1572.15	0.0080021
1581.79	0.0075321
1591.44	0.0109421
1601.08	0.0236321
1610.73	0.0187621
1620.37	0.0103321
1630.01	0.0184121
1639.66	0.0090121
1649.3	0.0036621
1658.95	0.0023421
1668.59	0.0017621
1678.24	0.0014121
1687.88	0.0011121
1697.53	0.0010276
1707.17	0.0009177
1716.82	0.0007997
1726.46	0.000862
1736.11	0.0008668
1745.75	0.0008167
1755.4	0.0007942
1765.04	0.000761
1774.69	0.0007575
1784.33	0.000573
1793.98	0.000604
1803.62	0.0005682
1813.27	0.0005306
1822.91	0.0005503
1832.55	0.0006096
1842.2	0.0005873
1851.84	0.0006464
1861.49	0.0007706
1871.13	0.0006685
1880.78	0.0006855
1890.42	0.0007138
1900.07	0.0006391
1909.71	0.0005392
1919.36	0.0006445
1929	0.000767
1938.65	0.0007187
1948.29	0.0006462
1957.94	0.0006575
1967.58	0.0006346
1977.23	0.0006411
1986.87	0.0005665
1996.52	0.0006156
2006.16	0.0007561
2015.81	0.0007737
2025.45	0.0007833
2035.1	0.0007802
2044.74	0.000811
2054.38	0.0007666
2064.03	0.0006456
2073.67	0.0006309
2083.32	0.0006069
2092.96	0.0005182
2102.61	0.0005063
2112.25	0.0004541
2121.9	0.0004115
2131.54	0.0003463
2141.19	0.0003518
2150.83	0.0003581
2160.48	0.0003728
2170.12	0.0003039
2179.77	0.0003294
2189.41	0.0002652
2199.06	0.0002894
2208.7	0.0003233
2218.35	0.0002957
2227.99	0.0002983
2237.64	0.0003004
2247.28	0.0004022
2256.92	0.000412
2266.57	0.0003355
2276.21	0.0003625
2285.86	0.0004181
2295.5	0.0003758
2305.15	0.0003502
2314.79	0.0004383
2324.44	0.0004947
2334.08	0.0004571
2343.73	0.0005536
2353.37	0.0005214
2363.02	0.0004523
2372.66	0.0005436
2382.31	0.0005757
2391.95	0.0004724
2401.6	0.0006193
2411.24	0.0007003
2420.89	0.0007635
2430.53	0.0006946
2440.18	0.0005533
2449.82	0.0005999
2459.47	0.0006538
2469.11	0.0006475
2478.75	0.0006657
2488.4	0.0006629
2498.04	0.0006936
2507.69	0.0007108
2517.33	0.0006386
2526.98	0.0006793
2536.62	0.0007422
2546.27	0.000699
2555.91	0.0006193
2565.56	0.0005768
2575.2	0.000638
2584.85	0.0006106
2594.49	0.000572
2604.14	0.0005279
2613.78	0.0005545
2623.43	0.0004599
2633.07	0.0005278
2642.72	0.0004703
2652.36	0.0004742
2662.01	0.0004461
2671.65	0.0004938
2681.29	0.0004322
2690.94	0.0004685
2700.58	0.000581
2710.23	0.0005491
2719.87	0.0005605
2729.52	0.0006649
2739.16	0.0007072
2748.81	0.0008545
2758.45	0.0008796
2768.1	0.0008265
2777.74	0.0007595
2787.39	0.0008778
2797.03	0.0008817
2806.68	0.0010502
2816.32	0.0011921
2825.97	0.0015621
2835.61	0.0021421
2845.26	0.0035521
2854.9	0.0058621
2864.55	0.0080621
2874.19	0.0086321
2883.84	0.0081221
2893.48	0.0066421
2903.12	0.0067221
2912.77	0.0083721
2922.41	0.0112021
2932.06	0.0147721
2941.7	0.0156021
2951.35	0.0132621
2960.99	0.0122021
2970.64	0.0112921
2980.28	0.0061421
2989.93	0.0037221
2999.57	0.0031721
3009.22	0.0031621
3018.86	0.0029921
3028.51	0.0036921
3038.15	0.0047321
3047.8	0.0023721
3057.44	0.0022021
3067.09	0.0027021
3076.73	0.0028321
3086.38	0.0017821
3096.02	0.0015821
3105.67	0.0013621
3115.31	0.0010721
3124.95	0.0007473
3134.6	0.0006001
3144.24	0.0004256
3153.89	0.0005242
3163.53	0.0003619
3173.18	0.0003397
3182.82	0.0004076
3192.47	0.0004417
3202.11	0.000516
3211.76	0.0004081
3221.4	0.0003949
3231.05	0.0004354
3240.69	0.0004465
3250.34	0.0003647
3259.98	0.0004408
3269.63	0.0003857
3279.27	0.0002505
3288.92	0.0002182
3298.56	0.0002657
3308.21	0.0001929
3317.85	0.000211
3327.49	0.000213
3337.14	0.0002318
3346.78	0.0003366
3356.43	0.0004049
3366.07	0.000379
3375.72	0.0003441
3385.36	0.0003773
3395.01	0.0002749
3404.65	0.0003115
3414.3	0.0001546
3423.94	0.0003585
3433.59	0.0002101
3443.23	0.0003141
3452.88	0.0002139
3462.52	0.0003553
3472.17	0.0001739
3481.81	0.0002862
3491.46	0.0001913
3501.1	4.264e-05
3510.75	7.068e-05
3520.39	0.00015094
3530.04	0.0001654
3539.68	0.0002386
3549.32	0.0003249
3558.97	0.0002015
3568.61	0.0002653
3578.26	0.0001688
3587.9	0.0002837
3597.55	0.0003711
3607.19	0.0003292
3616.84	0.0002586
3626.48	0.0008167
3636.13	0.0019821
3645.77	0.0063221
3655.42	0.0122721
3665.06	0.0018221
3674.71	0.0007527
3684.35	0.0005306
3694	0.0002912
3703.64	4.704e-05
3713.29	0.0002737
3722.93	0.0002973
3732.58	0.0003557
3742.22	3.86e-05
3751.86	0.0001636
3761.51	0.0002783
3771.15	0.0001985
3780.8	0.0002493
3790.44	0.000321
3800.09	0.0002432
3809.73	0.0002428
3819.38	0.00013071
3829.02	8.488e-05
3838.67	0.0002534
3848.31	0.0001876
3857.96	0.0002197
3867.6	0.00014374
3877.25	0.0003235
3886.89	0.0003403
3896.54	0.000243
3906.18	0.0002164
3915.83	0.0004588
3925.47	0.0002927
3935.12	0.00012695
3944.76	0.0003509
3954.41	0.0002618
3964.05	0.0001778
3973.69	0.0002301
3983.34	0.00013227
3992.98	0.0002912
