Infrared Spectrum: sym-Tetraacetylethane
Formula: C 10 H 14 O 4
CAS: 5027-32-7
State: gas
Origin: EPA-IR VAPOR PHASE LIBRARY
1/CM	ABSORBANCE
549.8	0.001963
559.445	0.001016
569.09	0.0007778
578.734	0.0009505
588.379	0.0009251
598.024	0.0006079
607.669	0.001001
617.313	0.0011772
626.958	0.0007011
636.603	0.0010614
646.248	0.0009432
655.893	0.0006466
665.537	0.0010702
675.182	0.001433
684.827	0.001403
694.472	0.0009834
704.116	0.0009678
713.761	0.0007501
723.406	0.0007317
733.051	0.0007708
742.695	0.0010359
752.34	0.0010054
761.985	0.0009909
771.63	0.0009711
781.275	0.0011895
790.919	0.001333
800.564	0.0010711
810.209	0.001533
819.854	0.001593
829.498	0.001763
839.143	0.001933
848.788	0.002263
858.433	0.002603
868.078	0.003213
877.722	0.004183
887.367	0.006653
897.012	0.010963
906.657	0.013503
916.301	0.009963
925.946	0.008353
935.591	0.008373
945.236	0.008823
954.88	0.009743
964.525	0.010803
974.17	0.011473
983.815	0.011173
993.46	0.009063
1003.1	0.007373
1012.75	0.006423
1022.39	0.006103
1032.04	0.005273
1041.68	0.004163
1051.33	0.003603
1060.97	0.003543
1070.62	0.003403
1080.26	0.002883
1089.91	0.003583
1099.55	0.003153
1109.2	0.003203
1118.84	0.003463
1128.49	0.003713
1138.13	0.004373
1147.78	0.005673
1157.42	0.006093
1167.07	0.006453
1176.71	0.007383
1186.36	0.007993
1196	0.009263
1205.64	0.011173
1215.29	0.014163
1224.93	0.018043
1234.58	0.021573
1244.22	0.021103
1253.87	0.019453
1263.51	0.018813
1273.16	0.018903
1282.8	0.019413
1292.45	0.019913
1302.09	0.020033
1311.74	0.020323
1321.38	0.020423
1331.03	0.020673
1340.67	0.021203
1350.32	0.022673
1359.96	0.025883
1369.61	0.030113
1379.25	0.034293
1388.9	0.036393
1398.54	0.035113
1408.18	0.032033
1417.83	0.029043
1427.47	0.026983
1437.12	0.025413
1446.76	0.024463
1456.41	0.024043
1466.05	0.023893
1475.7	0.023893
1485.34	0.024163
1494.99	0.024653
1504.63	0.025443
1514.28	0.026453
1523.92	0.027593
1533.57	0.029053
1543.21	0.031123
1552.86	0.034183
1562.5	0.038473
1572.15	0.043573
1581.79	0.048843
1591.44	0.052863
1601.08	0.055593
1610.73	0.057513
1620.37	0.057113
1630.01	0.052203
1639.66	0.043593
1649.3	0.034323
1658.95	0.026823
1668.59	0.021413
1678.24	0.017583
1687.88	0.015113
1697.53	0.013463
1707.17	0.012903
1716.82	0.012153
1726.46	0.010243
1736.11	0.008863
1745.75	0.007363
1755.4	0.006143
1765.04	0.005413
1774.69	0.004843
1784.33	0.004473
1793.98	0.004313
1803.62	0.004073
1813.27	0.003803
1822.91	0.003813
1832.55	0.003583
1842.2	0.003593
1851.84	0.003473
1861.49	0.003383
1871.13	0.003373
1880.78	0.003303
1890.42	0.003243
1900.07	0.003153
1909.71	0.003063
1919.36	0.002983
1929	0.002933
1938.65	0.002813
1948.29	0.002733
1957.94	0.002833
1967.58	0.002803
1977.23	0.002843
1986.87	0.002863
1996.52	0.002823
2006.16	0.002813
2015.81	0.002873
2025.45	0.002863
2035.1	0.002933
2044.74	0.002823
2054.38	0.002843
2064.03	0.002763
2073.67	0.002713
2083.32	0.002763
2092.96	0.002753
2102.61	0.002643
2112.25	0.002553
2121.9	0.002533
2131.54	0.002443
2141.19	0.002403
2150.83	0.002343
2160.48	0.002423
2170.12	0.002333
2179.77	0.002333
2189.41	0.002393
2199.06	0.002423
2208.7	0.002523
2218.35	0.002483
2227.99	0.002513
2237.64	0.002513
2247.28	0.002553
2256.92	0.002623
2266.57	0.002813
2276.21	0.002833
2285.86	0.002653
2295.5	0.002683
2305.15	0.002623
2314.79	0.002663
2324.44	0.002673
2334.08	0.002683
2343.73	0.002703
2353.37	0.002673
2363.02	0.002723
2372.66	0.002713
2382.31	0.002643
2391.95	0.002503
2401.6	0.002633
2411.24	0.002603
2420.89	0.002563
2430.53	0.002583
2440.18	0.002593
2449.82	0.002613
2459.47	0.002613
2469.11	0.002673
2478.75	0.002623
2488.4	0.002723
2498.04	0.002923
2507.69	0.002913
2517.33	0.003033
2526.98	0.003103
2536.62	0.003123
2546.27	0.003223
2555.91	0.003213
2565.56	0.003183
2575.2	0.003343
2584.85	0.003223
2594.49	0.003293
2604.14	0.003233
2613.78	0.003343
2623.43	0.003283
2633.07	0.003213
2642.72	0.003343
2652.36	0.003223
2662.01	0.003183
2671.65	0.003183
2681.29	0.003243
2690.94	0.003133
2700.58	0.003223
2710.23	0.003163
2719.87	0.003273
2729.52	0.003353
2739.16	0.003193
2748.81	0.003283
2758.45	0.003143
2768.1	0.003353
2777.74	0.003233
2787.39	0.003233
2797.03	0.003363
2806.68	0.003223
2816.32	0.003343
2825.97	0.003423
2835.61	0.003433
2845.26	0.003393
2854.9	0.003403
2864.55	0.003353
2874.19	0.003323
2883.84	0.003353
2893.48	0.003383
2903.12	0.003493
2912.77	0.003803
2922.41	0.004913
2932.06	0.006583
2941.7	0.006373
2951.35	0.005423
2960.99	0.005013
2970.64	0.004663
2980.28	0.004483
2989.93	0.004213
2999.57	0.004203
3009.22	0.004383
3018.86	0.004623
3028.51	0.004873
3038.15	0.004973
3047.8	0.004603
3057.44	0.004173
3067.09	0.003763
3076.73	0.003443
3086.38	0.003193
3096.02	0.002913
3105.67	0.002623
3115.31	0.002433
3124.95	0.002613
3134.6	0.002133
3144.24	0.002223
3153.89	0.002083
3163.53	0.001963
3173.18	0.001943
3182.82	0.001893
3192.47	0.001743
3202.11	0.001893
3211.76	0.001853
3221.4	0.001793
3231.05	0.001743
3240.69	0.001593
3250.34	0.001463
3259.98	0.001313
3269.63	0.001353
3279.27	0.001453
3288.92	0.001195
3298.56	0.001223
3308.21	0.0011268
3317.85	0.0010411
3327.49	0.001099
3337.14	0.0009559
3346.78	0.0009342
3356.43	0.0009794
3366.07	0.00104
3375.72	0.0006332
3385.36	0.0007691
3395.01	0.0007792
3404.65	0.0008055
3414.3	0.0006049
3423.94	0.0006221
3433.59	0.0006985
3443.23	0.0004708
3452.88	0.0004118
3462.52	0.0005617
3472.17	0.0004652
3481.81	0.0005957
3491.46	0.0004762
3501.1	0.0004037
3510.75	0.0005255
3520.39	0.0004523
3530.04	0.0005247
3539.68	0.0004902
3549.32	0.0004492
3558.97	0.0005445
3568.61	0.0005491
3578.26	0.0003511
3587.9	0.0005089
3597.55	0.00021671
3607.19	0.0004036
3616.84	0.0003199
3626.48	0.0004809
3636.13	0.0003626
3645.77	0.0004909
3655.42	0.0003384
3665.06	0.0004415
3674.71	0.0003174
3684.35	0.0004137
3694	0.0003752
3703.64	0.0003673
3713.29	0.000513
3722.93	0.0003596
3732.58	0.0004055
3742.22	0.0003939
3751.86	0.00042
3761.51	0.0003817
3771.15	0.00028531
3780.8	0.0003148
3790.44	0.0004044
3800.09	0.0001793
3809.73	0.0003283
3819.38	0.0004697
3829.02	0.0003702
3838.67	0.000248
3848.31	0.0004291
3857.96	0.00027834
3867.6	0.0003239
3877.25	0.0004861
3886.89	0.0003303
3896.54	0.0004867
3906.18	0.0003658
3915.83	0.0001788
3925.47	0.00028708
3935.12	8.4e-05
3944.76	0.0005015
3954.41	0.0004791
3964.05	0.00028922
3973.69	0.0003769
3983.34	0.00021684
3992.98	0.000312
