Infrared Spectrum: 2-METHYL-4-OXO-1,4a,9-TRIAZAFLUORENE
Formula: C11 H9 N3 O
CAS: 50290-51-2
State: SOLID (KBr PRESSING)
Melting point: 296 C
Class: COBLENTZ
Instrument: Not specified, most likely a prism, grating, or hybrid spectrometer.
Sampling: TRANSMISSION
Resolution: 4
Origin: EASTMAN KODAK COMPANY, RESEARCH LABORATORIES, ROCHESTER, N.Y.
MICROMETERS	TRANSMITTANCE
2.049	0.765
2.08421	0.767
2.11942	0.768
2.15464	0.772
2.18985	0.779
2.22506	0.777
2.26027	0.777
2.29548	0.781
2.3307	0.789
2.36591	0.784
2.40112	0.793
2.43633	0.791
2.47154	0.789
2.50676	0.795
2.54197	0.802
2.57718	0.8
2.61239	0.8
2.6476	0.805
2.68282	0.805
2.71803	0.772
2.75324	0.716
2.78845	0.625
2.82367	0.56
2.85888	0.511
2.89409	0.5
2.9293	0.521
2.96451	0.555
2.99973	0.59
3.03494	0.628
3.07015	0.633
3.10536	0.632
3.14057	0.642
3.17579	0.637
3.211	0.618
3.24621	0.567
3.28142	0.551
3.31663	0.565
3.35185	0.551
3.38706	0.49
3.42227	0.457
3.45748	0.486
3.49269	0.46
3.52791	0.443
3.56312	0.434
3.59833	0.437
3.63354	0.444
3.66875	0.46
3.70397	0.471
3.73918	0.502
3.77439	0.546
3.8096	0.577
3.84481	0.604
3.88003	0.64
3.91524	0.676
3.95045	0.702
3.98566	0.728
4.02087	0.747
4.05609	0.767
4.0913	0.779
4.12651	0.793
4.16172	0.791
4.19694	0.796
4.23215	0.809
4.26736	0.817
4.30257	0.838
4.33778	0.84
4.373	0.844
4.40821	0.852
4.44342	0.852
4.47863	0.856
4.51384	0.856
4.54906	0.861
4.58427	0.868
4.61948	0.868
4.65469	0.866
4.6899	0.865
4.72512	0.872
4.76033	0.875
4.79554	0.882
4.83075	0.884
4.86596	0.884
4.90118	0.886
4.93639	0.887
4.9716	0.889
5.00681	0.891
5.04202	0.891
5.07724	0.889
5.11245	0.891
5.14766	0.88
5.18287	0.882
5.21808	0.884
5.2533	0.88
5.28851	0.88
5.32372	0.88
5.35893	0.889
5.39414	0.879
5.42936	0.873
5.46457	0.87
5.49978	0.872
5.53499	0.872
5.57021	0.87
5.60542	0.866
5.64063	0.861
5.67584	0.835
5.71105	0.823
5.74627	0.744
5.78148	0.612
5.81669	0.437
5.8519	0.404
5.88711	0.353
5.92233	0.161
5.95754	0.152
5.99275	0.308
6.02796	0.374
6.06317	0.241
6.09839	0.196
6.1336	0.353
6.16881	0.231
6.20402	0.183
6.23923	0.313
6.27445	0.218
6.30966	0.185
6.34487	0.183
6.38008	0.262
6.41529	0.352
6.45051	0.425
6.48572	0.506
6.52093	0.586
6.55614	0.632
6.59135	0.637
6.62657	0.635
6.66178	0.632
6.69699	0.591
6.7322	0.534
6.76742	0.506
6.80263	0.528
6.83784	0.553
6.87305	0.218
6.90826	0.362
6.94348	0.457
6.97869	0.43
7.0139	0.334
7.04911	0.369
7.08432	0.464
7.11954	0.527
7.15475	0.6
7.18996	0.649
7.22517	0.581
7.26038	0.647
7.2956	0.649
7.33081	0.464
7.36602	0.591
7.40123	0.732
7.43644	0.737
7.47166	0.76
7.50687	0.788
7.54208	0.8
7.57729	0.81
7.6125	0.768
7.64772	0.77
7.68293	0.8
7.71814	0.765
7.75335	0.527
7.78856	0.723
7.82378	0.8
7.85899	0.81
7.8942	0.816
7.92941	0.805
7.96462	0.747
7.99984	0.64
8.03505	0.607
8.07026	0.698
8.10547	0.781
8.14069	0.819
8.1759	0.83
8.21111	0.802
8.24632	0.747
8.28153	0.667
8.31675	0.642
8.35196	0.693
8.38717	0.751
8.42238	0.781
8.45759	0.796
8.49281	0.772
8.52802	0.777
8.56323	0.795
8.59844	0.803
8.63365	0.805
8.66887	0.805
8.70408	0.803
8.73929	0.784
8.7745	0.707
8.80971	0.5
8.84493	0.611
8.88014	0.761
8.91535	0.802
8.95056	0.805
8.98577	0.802
9.02099	0.8
9.0562	0.81
9.09141	0.821
9.12662	0.828
9.16183	0.828
9.19705	0.831
9.23226	0.838
9.26747	0.842
9.30268	0.84
9.33789	0.84
9.37311	0.842
9.40832	0.838
9.44353	0.833
9.47874	0.8
9.51396	0.777
9.54917	0.793
9.58438	0.809
9.61959	0.816
9.6548	0.812
9.69002	0.788
9.72523	0.753
9.76044	0.735
9.79565	0.737
9.83086	0.732
9.86608	0.723
9.90129	0.711
9.9365	0.772
9.97171	0.807
10.0069	0.826
10.0421	0.803
10.0773	0.735
10.1126	0.758
10.1478	0.807
10.183	0.856
10.2182	0.865
10.2534	0.866
10.2886	0.87
10.3238	0.87
10.359	0.872
10.3943	0.877
10.4295	0.88
10.4647	0.879
10.4999	0.884
10.5351	0.884
10.5703	0.887
10.6055	0.887
10.6407	0.882
10.676	0.879
10.7112	0.865
10.7464	0.859
10.7816	0.856
10.8168	0.845
10.852	0.854
10.8872	0.866
10.9224	0.868
10.9576	0.865
10.9929	0.859
11.0281	0.854
11.0633	0.854
11.0985	0.845
11.1337	0.838
11.1689	0.809
11.2041	0.728
11.2393	0.633
11.2746	0.656
11.3098	0.707
11.345	0.709
11.3802	0.702
11.4154	0.707
11.4506	0.716
11.4858	0.723
11.521	0.725
11.5563	0.726
11.5915	0.733
11.6267	0.733
11.6619	0.725
11.6971	0.719
11.7323	0.718
11.7675	0.705
11.8027	0.691
11.838	0.688
11.8732	0.684
11.9084	0.677
11.9436	0.684
11.9788	0.69
12.014	0.684
12.0492	0.684
12.0844	0.691
12.1196	0.684
12.1549	0.683
12.1901	0.681
12.2253	0.672
12.2605	0.658
12.2957	0.651
12.3309	0.642
12.3661	0.653
12.4013	0.705
12.4366	0.754
12.4718	0.786
12.507	0.796
12.5422	0.802
12.5774	0.803
12.6126	0.803
12.6478	0.805
12.683	0.807
12.7183	0.812
12.7535	0.814
12.7887	0.809
12.8239	0.802
12.8591	0.786
12.8943	0.758
12.9295	0.721
12.9647	0.674
12.9999	0.625
13.0352	0.574
13.0704	0.462
13.1056	0.367
13.1408	0.383
13.176	0.399
13.2112	0.404
13.2464	0.406
13.2816	0.448
13.3169	0.486
13.3521	0.471
13.3873	0.446
13.4225	0.479
13.4577	0.53
13.4929	0.583
13.5281	0.605
13.5633	0.602
13.5986	0.579
13.6338	0.56
13.669	0.59
13.7042	0.649
13.7394	0.709
13.7746	0.768
13.8098	0.791
13.845	0.805
13.8802	0.805
13.9155	0.807
13.9507	0.807
13.9859	0.805
14.0211	0.802
14.0563	0.788
14.0915	0.761
14.1267	0.733
14.1619	0.691
14.1972	0.609
14.2324	0.507
14.2676	0.45
14.3028	0.443
14.338	0.507
14.3732	0.569
14.4084	0.635
14.4436	0.695
14.4789	0.73
14.5141	0.763
14.5493	0.775
14.5845	0.782
14.6197	0.782
14.6549	0.789
14.6901	0.789
14.7253	0.791
14.7606	0.793
14.7958	0.791
14.831	0.788
14.8662	0.782
14.9014	0.782
14.9366	0.786
14.9718	0.784
15.007	0.768
15.0422	0.744
15.0775	0.716
15.1127	0.665
15.1479	0.642
15.1831	0.654
15.2183	0.695
15.2535	0.723
15.2887	0.739
15.3239	0.753
15.3592	0.753
15.3944	0.754
15.4296	0.756
15.4648	0.754
15.5	0.754
15.5352	0.756
15.5704	0.756
15.6056	0.761
15.6409	0.761
15.6761	0.763
15.7113	0.761
15.7465	0.761
15.7817	0.758
15.8169	0.754
15.8521	0.754
15.8873	0.754
15.9225	0.756
15.9578	0.754
15.993	0.744
