Infrared Spectrum: 3,3,5-Trimethylcyclohexene
Formula: C 9 H 16
CAS: 503-45-7
State: gas
Instrument: HP-GC/MS/IRD
Origin: NIST Mass Spectrometry Data Center
1/CM	ABSORBANCE
550	0.00024
562	0.000112
574	2.24e-05
586	5.76e-05
598	8.96e-05
610	2.24e-05
622	0
634	7.36e-05
646	0.0001248
658	0.0002368
670	0.0004416
682	0.0003232
694	0.0006112
706	0.0023392
718	0.005312
730	0.0046624
742	0.0018336
754	0.000384
766	0.0002016
778	0.0002368
790	0.0001376
802	0.0001664
814	0.0001344
826	7.68e-05
838	0.0002368
850	0.000304
862	0.0005728
874	0.0009952
886	0.0007072
898	0.000416
910	0.0005728
922	0.0006144
934	0.0005536
946	0.0004672
958	0.00032
970	0.000448
982	0.0012384
994	0.0014304
1006	0.0007008
1018	0.0002752
1030	0.0002944
1042	0.0003584
1054	0.0005888
1066	0.000384
1078	0.0002656
1090	0.0001536
1102	0.0001152
1114	0.0001824
1126	0.000224
1138	0.0002816
1150	0.0003424
1162	0.0006016
1174	0.0008768
1186	0.0008448
1198	0.0007296
1210	0.0006912
1222	0.000464
1234	0.000352
1246	0.0003936
1258	0.000656
1270	0.0009344
1282	0.000944
1294	0.000576
1306	0.0003488
1318	0.000288
1330	0.0004992
1342	0.0011424
1354	0.0024128
1366	0.0034624
1378	0.0027136
1390	0.0018208
1402	0.001168
1414	0.000624
1426	0.0009472
1438	0.0020416
1450	0.0035648
1462	0.0044352
1474	0.0032032
1486	0.0014176
1498	0.00048
1510	0.0002432
1522	0.00016
1534	0.0001056
1546	0.0001216
1558	0.000112
1570	7.68e-05
1582	0.000112
1594	0.0001184
1606	0.0001696
1618	0.0001792
1630	0.0003648
1642	0.0006592
1654	0.0006848
1666	0.0004896
1678	0.000608
1690	0.0005952
1702	0.0003232
1714	0.0001312
1726	9.92e-05
1738	8.96e-05
1750	7.04e-05
1762	3.84e-05
1774	6.08e-05
1786	6.72e-05
1798	5.44e-05
1810	6.4e-05
1822	7.04e-05
1834	0.0001536
1846	0.0001344
1858	0.0001152
1870	0.0001216
1882	9.28e-05
1894	8.32e-05
1906	6.72e-05
1918	7.04e-05
1930	6.08e-05
1942	8e-05
1954	4.48e-05
1966	4.48e-05
1978	3.2e-05
1990	1.6e-05
2002	6.4e-06
2014	4.48e-05
2026	6.08e-05
2038	4.8e-05
2050	5.44e-05
2062	3.2e-05
2074	3.2e-06
2086	1.92e-05
2098	5.44e-05
2110	1.28e-05
2122	2.24e-05
2134	1.92e-05
2146	7.04e-05
2158	7.36e-05
2170	7.04e-05
2182	3.84e-05
2194	3.84e-05
2206	9.6e-06
2218	3.2e-05
2230	0
2242	2.88e-05
2254	4.16e-05
2266	3.84e-05
2278	5.12e-05
2290	5.76e-05
2302	4.8e-05
2314	7.36e-05
2326	1.6e-05
2338	4.48e-05
2350	2.88e-05
2362	6.4e-05
2374	6.4e-06
2386	5.44e-05
2398	3.52e-05
2410	7.04e-05
2422	5.12e-05
2434	6.72e-05
2446	8.64e-05
2458	4.8e-05
2470	4.48e-05
2482	8.64e-05
2494	5.76e-05
2506	5.76e-05
2518	4.8e-05
2530	6.4e-05
2542	6.72e-05
2554	8.32e-05
2566	0.0001312
2578	0.0001344
2590	0.0001248
2602	0.0001184
2614	0.0001824
2626	0.0002848
2638	0.0003136
2650	0.000208
2662	0.000176
2674	0.0001632
2686	0.0002048
2698	0.0003232
2710	0.0004288
2722	0.0005504
2734	0.0005888
2746	0.0005536
2758	0.000544
2770	0.0005184
2782	0.0005792
2794	0.0008224
2806	0.0011712
2818	0.0020256
2830	0.0049088
2842	0.0072992
2854	0.0070496
2866	0.0092192
2878	0.0122784
2890	0.0129856
2902	0.0190688
2914	0.0252064
2926	0.020496
2938	0.0166688
2950	0.023424
2962	0.032
2974	0.0194944
2986	0.0055968
2998	0.0031872
3010	0.00688
3022	0.0086848
3034	0.0046464
3046	0.0016384
3058	0.0013376
3070	0.0010592
3082	0.0007136
3094	0.0005824
3106	0.000432
3118	0.0004064
3130	0.0004032
3142	0.0003968
3154	0.0003712
3166	0.0004064
3178	0.0004096
3190	0.0004064
3202	0.0003552
3214	0.000304
3226	0.0002208
3238	0.0002048
3250	0.0001472
3262	0.0001344
3274	0.0001728
3286	0.0001856
3298	0.0001728
3310	0.0001344
3322	8.64e-05
3334	9.6e-05
3346	0.000112
3358	8.64e-05
3370	3.2e-05
3382	2.24e-05
3394	0.0001024
3406	9.6e-05
3418	0.0001152
3430	8e-05
3442	0
3454	1.6e-05
3466	3.2e-06
3478	2.56e-05
3490	6.4e-05
3502	2.24e-05
3514	9.6e-06
3526	6.4e-06
3538	6.4e-06
3550	4.16e-05
3562	4.8e-05
3574	0
3586	2.56e-05
3598	3.52e-05
3610	2.88e-05
3622	1.28e-05
3634	0.000112
3646	8.96e-05
3658	4.8e-05
3670	1.6e-05
3682	4.8e-05
3694	4.8e-05
3706	8e-05
3718	3.84e-05
3730	5.76e-05
3742	0.0001088
3754	5.76e-05
3766	0.0001056
3778	5.44e-05
3790	4.48e-05
3802	8.96e-05
3814	0.0001504
3826	0.000112
3838	8.32e-05
