Infrared Spectrum: METHANE DISULFONIC ACID
Formula: C H4 O6 S2
CAS: 503-40-2
State: SOLID (KBr PELLET)
Class: COBLENTZ
Instrument: PERKIN-ELMER
Sampling: TRANSMISSION
Resolution: 4
Origin: STANDARD OIL OF OHIO
MICROMETERS	TRANSMITTANCE
2.02	0.628
2.05384	0.647
2.08768	0.657
2.12151	0.671
2.15535	0.683
2.18919	0.695
2.22303	0.706
2.25686	0.715
2.2907	0.724
2.32454	0.732
2.35838	0.741
2.39221	0.747
2.42605	0.754
2.45989	0.759
2.49373	0.764
2.52756	0.773
2.5614	0.78
2.59524	0.785
2.62908	0.787
2.66291	0.795
2.69675	0.787
2.73059	0.749
2.76443	0.666
2.79826	0.553
2.8321	0.449
2.86594	0.386
2.89978	0.327
2.93361	0.281
2.96745	0.26
3.00129	0.264
3.03513	0.296
3.06896	0.323
3.1028	0.347
3.13664	0.373
3.17048	0.4
3.20431	0.432
3.23815	0.458
3.27199	0.451
3.30583	0.449
3.33966	0.475
3.3735	0.487
3.40734	0.526
3.44118	0.548
3.47501	0.567
3.50885	0.58
3.54269	0.596
3.57653	0.606
3.61036	0.614
3.6442	0.626
3.67804	0.635
3.71188	0.645
3.74571	0.654
3.77955	0.664
3.81339	0.672
3.84723	0.679
3.88106	0.688
3.9149	0.696
3.94874	0.701
3.98258	0.705
4.01642	0.712
4.05025	0.717
4.08409	0.72
4.11793	0.724
4.15177	0.727
4.1856	0.73
4.21944	0.737
4.25328	0.742
4.28712	0.739
4.32095	0.735
4.35479	0.734
4.38863	0.73
4.42247	0.73
4.4563	0.727
4.49014	0.724
4.52398	0.724
4.55782	0.729
4.59165	0.73
4.62549	0.734
4.65933	0.732
4.69317	0.735
4.727	0.737
4.76084	0.737
4.79468	0.735
4.82852	0.739
4.86235	0.742
4.89619	0.742
4.93003	0.741
4.96387	0.744
4.9977	0.746
5.03154	0.747
5.06538	0.747
5.09922	0.747
5.13305	0.746
5.16689	0.746
5.20073	0.741
5.23457	0.735
5.2684	0.725
5.30224	0.722
5.33608	0.715
5.36992	0.71
5.40375	0.701
5.43759	0.698
5.47143	0.691
5.50527	0.684
5.5391	0.679
5.57294	0.669
5.60678	0.666
5.64062	0.655
5.67445	0.65
5.70829	0.649
5.74213	0.642
5.77597	0.63
5.8098	0.626
5.84364	0.625
5.87748	0.635
5.91132	0.649
5.94516	0.652
5.97899	0.666
6.01283	0.669
6.04667	0.676
6.08051	0.678
6.11434	0.678
6.14818	0.671
6.18202	0.674
6.21586	0.681
6.24969	0.701
6.28353	0.751
6.31737	0.788
6.35121	0.809
6.38504	0.819
6.41888	0.827
6.45272	0.821
6.48656	0.826
6.52039	0.824
6.55423	0.829
6.58807	0.833
6.62191	0.838
6.65574	0.841
6.68958	0.844
6.72342	0.848
6.75726	0.855
6.79109	0.863
6.82493	0.865
6.85877	0.873
6.89261	0.875
6.92644	0.88
6.96028	0.889
6.99412	0.896
7.02796	0.897
7.06179	0.892
7.09563	0.877
7.12947	0.87
7.16331	0.858
7.19714	0.839
7.23098	0.802
7.26482	0.763
7.29866	0.775
7.33249	0.783
7.36633	0.792
7.40017	0.8
7.43401	0.805
7.46784	0.809
7.50168	0.8
7.53552	0.781
7.56936	0.768
7.60319	0.756
7.63703	0.742
7.67087	0.73
7.70471	0.713
7.73854	0.696
7.77238	0.647
7.80622	0.584
7.84006	0.413
7.8739	0.212
7.90773	0.405
7.94157	0.446
7.97541	0.373
8.00925	0.219
8.04308	0.119
8.07692	0.023
8.11076	0.005
8.1446	0.001
8.17843	0.003
8.21227	0.008
8.24611	0.086
8.27995	0.18
8.31378	0.149
8.34762	0.243
8.38146	0.403
8.4153	0.444
8.44913	0.47
8.48297	0.488
8.51681	0.502
8.55065	0.514
8.58448	0.534
8.61832	0.57
8.65216	0.618
8.686	0.66
8.71983	0.698
8.75367	0.722
8.78751	0.734
8.82135	0.746
8.85518	0.752
8.88902	0.758
8.92286	0.764
8.9567	0.778
8.99053	0.785
9.02437	0.783
9.05821	0.768
9.09205	0.752
9.12588	0.735
9.15972	0.725
9.19356	0.715
9.2274	0.7
9.26123	0.608
9.29507	0.509
9.32891	0.49
9.36275	0.495
9.39658	0.538
9.43042	0.597
9.46426	0.652
9.4981	0.678
9.53193	0.7
9.56577	0.715
9.59961	0.724
9.63345	0.72
9.66728	0.701
9.70112	0.609
9.73496	0.386
9.7688	0.137
9.80264	0.073
9.83647	0.296
9.87031	0.492
9.90415	0.538
9.93799	0.623
9.97182	0.678
10.0057	0.72
10.0395	0.747
10.0733	0.768
10.1072	0.783
10.141	0.795
10.1748	0.805
10.2087	0.809
10.2425	0.816
10.2764	0.819
10.3102	0.822
10.344	0.824
10.3779	0.827
10.4117	0.833
10.4455	0.836
10.4794	0.838
10.5132	0.843
10.5471	0.841
10.5809	0.841
10.6147	0.843
10.6486	0.841
10.6824	0.843
10.7162	0.848
10.7501	0.848
10.7839	0.851
10.8178	0.855
10.8516	0.853
10.8854	0.855
10.9193	0.856
10.9531	0.858
10.9869	0.858
11.0208	0.858
11.0546	0.858
11.0885	0.858
11.1223	0.86
11.1561	0.858
11.19	0.858
11.2238	0.86
11.2576	0.863
11.2915	0.863
11.3253	0.868
11.3592	0.872
11.393	0.873
11.4268	0.87
11.4607	0.87
11.4945	0.868
11.5283	0.868
11.5622	0.868
11.596	0.867
11.6299	0.867
11.6637	0.867
11.6975	0.865
11.7314	0.865
11.7652	0.863
11.7991	0.863
11.8329	0.865
11.8667	0.868
11.9006	0.868
11.9344	0.865
11.9682	0.863
12.0021	0.86
12.0359	0.844
12.0698	0.836
12.1036	0.824
12.1374	0.804
12.1713	0.756
12.2051	0.666
12.2389	0.541
12.2728	0.417
12.3066	0.304
12.3405	0.291
12.3743	0.407
12.4081	0.534
12.442	0.664
12.4758	0.71
12.5096	0.741
12.5435	0.773
12.5773	0.8
12.6112	0.817
12.645	0.827
12.6788	0.839
12.7127	0.846
12.7465	0.848
12.7803	0.843
12.8142	0.827
12.848	0.79
12.8819	0.724
12.9157	0.662
12.9495	0.689
12.9834	0.763
13.0172	0.807
13.051	0.839
13.0849	0.855
13.1187	0.862
13.1526	0.868
13.1864	0.873
13.2202	0.872
13.2541	0.872
13.2879	0.873
13.3217	0.877
13.3556	0.875
13.3894	0.877
13.4233	0.877
13.4571	0.879
13.4909	0.877
13.5248	0.873
13.5586	0.873
13.5924	0.873
13.6263	0.873
13.6601	0.875
13.694	0.877
13.7278	0.877
13.7616	0.875
13.7955	0.875
13.8293	0.87
13.8631	0.875
13.897	0.875
13.9308	0.868
13.9647	0.867
13.9985	0.868
14.0323	0.87
14.0662	0.87
14.1	0.872
14.1338	0.87
14.1677	0.87
14.2015	0.872
14.2354	0.872
14.2692	0.868
14.303	0.868
14.3369	0.867
14.3707	0.867
14.4045	0.867
14.4384	0.868
14.4722	0.868
14.5061	0.868
14.5399	0.865
14.5737	0.865
14.6076	0.867
14.6414	0.865
14.6752	0.862
14.7091	0.856
14.7429	0.858
14.7768	0.862
14.8106	0.863
14.8444	0.865
14.8783	0.867
14.9121	0.867
14.9459	0.863
14.9798	0.856
15.0136	0.85
15.0475	0.848
15.0813	0.853
15.1151	0.855
15.149	0.853
15.1828	0.851
15.2166	0.85
15.2505	0.85
15.2843	0.848
15.3182	0.848
15.352	0.844
15.3858	0.836
