Infrared Spectrum: N-(3-Aminopropyl)-imidazole
Formula: C 6 H 11 N 3
CAS: 5036-48-6
State: gas
Instrument: HP-GC/MS/IRD
Origin: NIST Mass Spectrometry Data Center
1/CM	ABSORBANCE
550	0.0007648
562	6.24e-05
574	0.0002784
586	0.0005408
598	0.0009968
610	0.0020128
622	0.0028272
634	0.0026208
646	0.0042672
658	0.0068352
670	0.0057856
682	0.0042592
694	0.0049232
706	0.0082848
718	0.0127776
730	0.011048
742	0.0083792
754	0.0085248
766	0.0089552
778	0.0082608
790	0.0080416
802	0.0099856
814	0.008504
826	0.0044592
838	0.0028592
850	0.0025744
862	0.00212
874	0.001752
886	0.0022048
898	0.0038704
910	0.002936
922	0.0011536
934	0.0009152
946	0.00072
958	0.0007968
970	0.0008224
982	0.0008304
994	0.0010288
1006	0.0017344
1018	0.0038608
1030	0.005296
1042	0.0036288
1054	0.003184
1066	0.0077104
1078	0.0107248
1090	0.006112
1102	0.0043168
1114	0.0037872
1126	0.0022032
1138	0.001128
1150	0.000928
1162	0.0008784
1174	0.0009264
1186	0.0011776
1198	0.0017776
1210	0.0040048
1222	0.0104816
1234	0.0107472
1246	0.0035472
1258	0.002408
1270	0.005296
1282	0.0076544
1294	0.0046464
1306	0.0023808
1318	0.0019616
1330	0.0022656
1342	0.0037504
1354	0.0055536
1366	0.0057024
1378	0.0054336
1390	0.0042688
1402	0.0027856
1414	0.0021712
1426	0.0027248
1438	0.0045024
1450	0.006856
1462	0.00668
1474	0.004792
1486	0.0073904
1498	0.015368
1510	0.0122976
1522	0.0039152
1534	0.0021424
1546	0.0015184
1558	0.0023024
1570	0.002776
1582	0.001992
1594	0.0021712
1606	0.0032656
1618	0.004016
1630	0.0035744
1642	0.0025504
1654	0.0019072
1666	0.0011616
1678	0.00092
1690	0.0012752
1702	0.0009872
1714	0.0004352
1726	0.000304
1738	0.0002944
1750	0.000256
1762	0.0002144
1774	0.000192
1786	0.000168
1798	0.0001808
1810	0.0001648
1822	0.0001984
1834	0.0001904
1846	0.0001888
1858	0.0001456
1870	0.000128
1882	8.48e-05
1894	5.28e-05
1906	5.92e-05
1918	6.88e-05
1930	5.6e-05
1942	5.6e-05
1954	4.32e-05
1966	3.52e-05
1978	2.4e-05
1990	4.32e-05
2002	3.04e-05
2014	1.12e-05
2026	1.92e-05
2038	4.8e-06
2050	2.72e-05
2062	3.84e-05
2074	3.52e-05
2086	3.68e-05
2098	1.6e-06
2110	4.16e-05
2122	4.48e-05
2134	8e-05
2146	0.0001056
2158	5.12e-05
2170	4.96e-05
2182	1.44e-05
2194	2.88e-05
2206	7.36e-05
2218	4.16e-05
2230	2.88e-05
2242	2.88e-05
2254	4.16e-05
2266	7.04e-05
2278	0.0001232
2290	0.0001024
2302	0.0001424
2314	0.0001392
2326	0.0001168
2338	0.0001072
2350	0.0001376
2362	0.0002384
2374	0.0002016
2386	0.0001104
2398	9.44e-05
2410	5.76e-05
2422	9.12e-05
2434	0.0001136
2446	0.0001152
2458	0.0001488
2470	0.00012
2482	9.76e-05
2494	0.0001152
2506	0.0001456
2518	0.0001856
2530	0.000176
2542	0.0001536
2554	0.0001328
2566	0.0002384
2578	0.0002112
2590	0.0001936
2602	0.0002272
2614	0.0002608
2626	0.0002688
2638	0.0002816
2650	0.0003488
2662	0.0003728
2674	0.0004736
2686	0.0006448
2698	0.0007216
2710	0.0006768
2722	0.000784
2734	0.0009296
2746	0.0009408
2758	0.0010032
2770	0.0010992
2782	0.0011472
2794	0.0011008
2806	0.0012464
2818	0.0016432
2830	0.0023328
2842	0.0034608
2854	0.0051792
2866	0.0070848
2878	0.0079424
2890	0.0071296
2902	0.0065424
2914	0.0079616
2926	0.0116064
2938	0.0150992
2950	0.0149088
2962	0.0115888
2974	0.0071888
2986	0.0038528
2998	0.0019584
3010	0.0009696
3022	0.0006656
3034	0.000432
3046	0.0003584
3058	0.0003552
3070	0.0002304
3082	0.0003136
3094	0.0005968
3106	0.0012688
3118	0.0019072
3130	0.00148
3142	0.0010512
3154	0.000664
3166	0.0003152
3178	0.0002384
3190	0.0001776
3202	0.0002048
3214	0.0001296
3226	0.0002352
3238	0.0001392
3250	5.6e-05
3262	8.48e-05
3274	0.0001104
3286	8.64e-05
3298	9.92e-05
3310	9.76e-05
3322	0.000136
3334	0.0001584
3346	0.0002272
3358	0.0002928
3370	0.0001904
3382	0.0001152
3394	0.0002672
3406	0.0002768
3418	0.0003232
3430	0.0002912
3442	0.000216
3454	0.0001488
3466	0.000104
3478	0.0001856
3490	7.52e-05
3502	0.0001456
3514	3.68e-05
3526	0.0001728
3538	0.0001312
3550	0.000112
3562	0.0001728
3574	8.96e-05
3586	0.0001344
3598	0.0001328
3610	0.0001728
3622	0.0001024
3634	0.0001472
3646	0.000208
3658	0.0001328
3670	0.0001744
3682	0.0001424
3694	0.0001296
3706	0.0001216
3718	7.36e-05
3730	0.0001344
3742	0.0001296
3754	0.0001824
3766	0.0001552
3778	0.0001536
3790	0.0001408
3802	0.000168
3814	0.000112
3826	0.0001664
3838	0.0001744
