Infrared Spectrum: 5,8-Dimethyltetralone
Formula: C 12 H 14 O
CAS: 5037-63-8
State: gas
Instrument: HP-GC/MS/IRD
Origin: NIST Mass Spectrometry Data Center
1/CM	ABSORBANCE
550	0.0005112
562	0.0007164
574	0.0016596
586	0.0014256
598	0.0009648
610	0.0015012
622	0.0008064
634	0.0003888
646	0.0002268
658	6.12e-05
670	5.76e-05
682	7.2e-05
694	6.48e-05
706	3.6e-05
718	5.04e-05
730	0.0001296
742	0.000126
754	0.0002592
766	0.000198
778	0.0002376
790	0.0006516
802	0.0033264
814	0.005922
826	0.0026784
838	0.0009684
850	0.0006984
862	0.0009576
874	0.0013716
886	0.0021636
898	0.0011304
910	0.000666
922	0.0006804
934	0.0007344
946	0.00144
958	0.001674
970	0.0007776
982	0.0005364
994	0.000774
1006	0.0015228
1018	0.0016992
1030	0.0016056
1042	0.0020844
1054	0.0014976
1066	0.0009504
1078	0.0010728
1090	0.0016452
1102	0.0024876
1114	0.0023184
1126	0.0010944
1138	0.0007596
1150	0.0009504
1162	0.0023436
1174	0.004806
1186	0.0037224
1198	0.0011232
1210	0.0008136
1222	0.0011484
1234	0.0024156
1246	0.0071532
1258	0.0116712
1270	0.0098208
1282	0.0073188
1294	0.0029736
1306	0.0022032
1318	0.0039024
1330	0.003078
1342	0.001782
1354	0.0015624
1366	0.0013356
1378	0.0027684
1390	0.004086
1402	0.0020448
1414	0.0020952
1426	0.0033516
1438	0.0045324
1450	0.0054612
1462	0.0075744
1474	0.0080748
1486	0.003402
1498	0.0014652
1510	0.0011448
1522	0.0011052
1534	0.0011124
1546	0.00153
1558	0.0029988
1570	0.0052992
1582	0.0040464
1594	0.0016164
1606	0.001098
1618	0.0011592
1630	0.0011412
1642	0.0014184
1654	0.0024624
1666	0.0038592
1678	0.008676
1690	0.026514
1702	0.0345096
1714	0.0130752
1726	0.0042336
1738	0.0024948
1750	0.001584
1762	0.0009036
1774	0.000576
1786	0.0004032
1798	0.0002808
1810	0.0002016
1822	0.0001908
1834	0.0002232
1846	0.00027
1858	0.0002052
1870	0.0002592
1882	0.0004752
1894	0.0005184
1906	0.0002088
1918	0.0001188
1930	8.64e-05
1942	0.0001044
1954	8.64e-05
1966	0.000126
1978	0.0001116
1990	0.0001044
2002	2.88e-05
2014	3.6e-05
2026	2.88e-05
2038	2.52e-05
2050	3.96e-05
2062	4.68e-05
2074	1.8e-05
2086	3.96e-05
2098	6.12e-05
2110	6.84e-05
2122	0
2134	2.52e-05
2146	2.52e-05
2158	2.16e-05
2170	1.8e-05
2182	5.76e-05
2194	6.12e-05
2206	5.76e-05
2218	4.32e-05
2230	1.44e-05
2242	3.24e-05
2254	2.88e-05
2266	6.48e-05
2278	9e-05
2290	7.2e-05
2302	6.84e-05
2314	6.48e-05
2326	8.28e-05
2338	9.72e-05
2350	7.92e-05
2362	7.2e-05
2374	5.76e-05
2386	5.76e-05
2398	6.84e-05
2410	9e-05
2422	7.92e-05
2434	8.28e-05
2446	7.56e-05
2458	0.0001008
2470	9e-05
2482	0.0001044
2494	0.0001044
2506	7.56e-05
2518	0.0001152
2530	0.0001188
2542	0.000108
2554	9.72e-05
2566	9.36e-05
2578	9.72e-05
2590	0.000108
2602	0.0001224
2614	0.0001548
2626	0.0001692
2638	0.0001836
2650	0.0002304
2662	0.0002736
2674	0.000306
2686	0.0002376
2698	0.00027
2710	0.0002448
2722	0.0002664
2734	0.0003888
2746	0.0006372
2758	0.0006444
2770	0.000486
2782	0.0004932
2794	0.0006696
2806	0.0008244
2818	0.0012564
2830	0.0019044
2842	0.0027396
2854	0.0039852
2866	0.0054684
2878	0.007902
2890	0.0071028
2902	0.0060552
2914	0.0062244
2926	0.0097776
2938	0.0176904
2950	0.0209484
2962	0.0145872
2974	0.0091044
2986	0.0070488
2998	0.0043092
3010	0.0040212
3022	0.0041148
3034	0.0033156
3046	0.0034128
3058	0.0042156
3070	0.0027684
3082	0.0011592
3094	0.0007164
3106	0.0005832
3118	0.0005292
3130	0.0004428
3142	0.00036
3154	0.0003924
3166	0.0003564
3178	0.0002628
3190	0.0002196
3202	0.00018
3214	0.0001836
3226	0.0001476
3238	0.000108
3250	0.0001044
3262	0.000198
3274	0.00018
3286	0.0001332
3298	0.0001332
3310	0.0001296
3322	0.0001512
3334	0.0002052
3346	0.0002556
3358	0.0003168
3370	0.0005256
3382	0.0005652
3394	0.0003492
3406	0.000234
3418	0.0001872
3430	0.00018
3442	6.48e-05
3454	9.72e-05
3466	0.000108
3478	5.04e-05
3490	0.0001188
3502	6.48e-05
3514	5.76e-05
3526	8.64e-05
3538	8.28e-05
3550	7.56e-05
3562	7.92e-05
3574	2.16e-05
3586	8.64e-05
3598	1.08e-05
3610	2.88e-05
3622	8.28e-05
3634	9e-05
3646	4.32e-05
3658	6.12e-05
3670	1.8e-05
3682	6.84e-05
3694	6.84e-05
3706	7.2e-05
3718	9.72e-05
3730	0.000108
3742	7.2e-05
3754	0.0001656
3766	0.0001548
3778	0.0001296
3790	7.56e-05
3802	0.000144
3814	0.0001044
3826	0.0001872
3838	0.0001224
