Infrared Spectrum: Dihydro-2,4(1H,3H)-pyrimidinedione
Formula: C 4 H 6 N 2 O 2
CAS: 504-07-4
State: gas
Origin: EPA-IR VAPOR PHASE LIBRARY
1/CM	ABSORBANCE
549.8	0.001342
559.445	0.0010345
569.09	0.0010767
578.734	0.0008118
588.379	0.000615
598.024	0.0005484
607.669	0.0007143
617.313	0.0007762
626.958	0.0009253
636.603	0.001492
646.248	0.001762
655.893	0.001972
665.537	0.001792
675.182	0.001372
684.827	0.0009375
694.472	0.0006822
704.116	0.000783
713.761	0.0006675
723.406	0.000485
733.051	0.0005417
742.695	0.0010112
752.34	0.0010243
761.985	0.001472
771.63	0.0010791
781.275	0.0007951
790.919	0.0004774
800.564	0.0005148
810.209	0.00027088
819.854	0.0002996
829.498	0.0003112
839.143	0.0005446
848.788	0.0004787
858.433	0.0003542
868.078	0.00019269
877.722	0.00019621
887.367	0.00021144
897.012	0.000445
906.657	0.0003146
916.301	0.0003311
925.946	0.0003405
935.591	0.0003803
945.236	0.00022124
954.88	0.00022616
964.525	0.0001098
974.17	0.0004141
983.815	0.00026426
993.46	0.000113
1003.1	0.00026191
1012.75	6.6e-05
1022.39	0.00023618
1032.04	0
1041.68	0.0001347
1051.33	5.2e-05
1060.97	0.00019713
1070.62	0.0003862
1080.26	0.0007181
1089.91	0.001172
1099.55	0.002032
1109.2	0.002712
1118.84	0.002182
1128.49	0.0011275
1138.13	0.000171775
1147.78	0.0009085
1157.42	0.0007944
1167.07	0.001432
1176.71	0.002592
1186.36	0.002542
1196	0.001762
1205.64	0.001832
1215.29	0.001622
1224.93	0.002232
1234.58	0.002072
1244.22	0.001822
1253.87	0.002292
1263.51	0.002482
1273.16	0.001802
1282.8	0.001252
1292.45	0.0009277
1302.09	0.000993
1311.74	0.001312
1321.38	0.001532
1331.03	0.001682
1340.67	0.001862
1350.32	0.002372
1359.96	0.003252
1369.61	0.003792
1379.25	0.003782
1388.9	0.003502
1398.54	0.002482
1408.18	0.002052
1417.83	0.002142
1427.47	0.002632
1437.12	0.002952
1446.76	0.002682
1456.41	0.002002
1466.05	0.001392
1475.7	0.001472
1485.34	0.001602
1494.99	0.001402
1504.63	0.0010806
1514.28	0.0009231
1523.92	0.0007358
1533.57	0.0006643
1543.21	0.0006432
1552.86	0.0007663
1562.5	0.0007663
1572.15	0.0005331
1581.79	0.0004337
1591.44	0.0004321
1601.08	0.0005012
1610.73	0.0004057
1620.37	0.0005657
1630.01	0.0005003
1639.66	0.0004965
1649.3	0.0005271
1658.95	0.0006249
1668.59	0.0006836
1678.24	0.0008872
1687.88	0.001282
1697.53	0.002082
1707.17	0.002822
1716.82	0.003682
1726.46	0.004972
1736.11	0.008492
1745.75	0.015392
1755.4	0.021332
1765.04	0.020722
1774.69	0.013192
1784.33	0.004872
1793.98	0.002372
1803.62	0.001552
1813.27	0.0011523
1822.91	0.0008608
1832.55	0.0006683
1842.2	0.0005255
1851.84	0.0004953
1861.49	0.000417
1871.13	0.0004963
1880.78	0.0004353
1890.42	0.000423
1900.07	0.0004026
1909.71	0.0003589
1919.36	0.0003243
1929	0.0003025
1938.65	0.0003348
1948.29	0.0002556
1957.94	0.00020854
1967.58	0.0002634
1977.23	0.0002811
1986.87	0.0002789
1996.52	0.0002831
2006.16	0.00021993
2015.81	0.00023962
2025.45	0.00023376
2035.1	0.00022778
2044.74	0.00020485
2054.38	0.00016394
2064.03	0.00023971
2073.67	0.000254
2083.32	0.00021643
2092.96	0.000229
2102.61	0.00022108
2112.25	0.0001574
2121.9	0.00021112
2131.54	0.00021642
2141.19	0.00026396
2150.83	0.00022106
2160.48	0.00020878
2170.12	0.0001598
2179.77	0.00026765
2189.41	0.0002347
2199.06	0.0001605
2208.7	0.00023736
2218.35	0.000181153
2227.99	0.00021658
2237.64	0.0001323
2247.28	0.00024798
2256.92	0.0002483
2266.57	0.00022978
2276.21	0.0002761
2285.86	0.0003166
2295.5	0.00025689
2305.15	0.0003096
2314.79	0.0002765
2324.44	0.0004323
2334.08	0.0004389
2343.73	0.0003528
2353.37	0.0003976
2363.02	0.0004896
2372.66	0.0003451
2382.31	0.00025806
2391.95	0.000174367
2401.6	0.00025249
2411.24	0.000180219
2420.89	0.00021353
2430.53	0.00022508
2440.18	0.0001607
2449.82	0.00019043
2459.47	0.00023645
2469.11	0.00024303
2478.75	0.00020464
2488.4	0.00026404
2498.04	0.0002741
2507.69	0.000179623
2517.33	0.00022903
2526.98	0.00019336
2536.62	0.00026249
2546.27	0.00019816
2555.91	0.00022705
2565.56	0.0001608
2575.2	0.000124
2584.85	0.00020874
2594.49	0.00024346
2604.14	0.0002341
2613.78	0.00022172
2623.43	0.0001657
2633.07	0.00027184
2642.72	0.00023506
2652.36	0.0001407
2662.01	0.0001294
2671.65	0.0002446
2681.29	0.00020052
2690.94	0.00024921
2700.58	0.0001613
2710.23	0.000171419
2719.87	0.0001046
2729.52	0.00019332
2739.16	0.00025579
2748.81	0.0003114
2758.45	0.00026923
2768.1	0.00024397
2777.74	0.00024894
2787.39	0.00024816
2797.03	0.0003816
2806.68	0.0003801
2816.32	0.0002978
2825.97	0.0003403
2835.61	0.0003512
2845.26	0.0005273
2854.9	0.0004544
2864.55	0.0005894
2874.19	0.0007903
2883.84	0.00096
2893.48	0.0007884
2903.12	0.0007081
2912.77	0.0004045
2922.41	0.0004895
2932.06	0.0006216
2941.7	0.0005467
2951.35	0.0006164
2960.99	0.0006113
2970.64	0.0005239
2980.28	0.00071
2989.93	0.0008073
2999.57	0.0005917
3009.22	0.000371
3018.86	0.00022528
3028.51	0.00025156
3038.15	0.0003608
3047.8	0.00023342
3057.44	0.0003092
3067.09	0.0001454
3076.73	0.0003317
3086.38	0.00018653
3096.02	0.0002937
3105.67	0.0003078
3115.31	0.000258
3124.95	0.0002748
3134.6	0.0003068
3144.24	0.00024663
3153.89	0.0003312
3163.53	0.00044
3173.18	0.0002273
3182.82	0.0003416
3192.47	0.00025635
3202.11	0.0003476
3211.76	0.0002965
3221.4	0.0003935
3231.05	0.000309
3240.69	0.0004712
3250.34	0.0003567
3259.98	0.0003539
3269.63	0.0003013
3279.27	0.00025311
3288.92	0.0003328
3298.56	0.0004161
3308.21	0.0003797
3317.85	0.00026093
3327.49	0.0003016
3337.14	0.000338
3346.78	0.0003564
3356.43	0.0003064
3366.07	0.000452
3375.72	0.0003844
3385.36	0.0004354
3395.01	0.0004258
3404.65	0.0005691
3414.3	0.0009
3423.94	0.001292
3433.59	0.001822
3443.23	0.001922
3452.88	0.001622
3462.52	0.001672
3472.17	0.001492
3481.81	0.001272
3491.46	0.0005615
3501.1	0.0003795
3510.75	0.0004869
3520.39	0.0004286
3530.04	0.0003943
3539.68	0.0003038
3549.32	0.00026138
3558.97	0.0003546
3568.61	0.0001399
3578.26	0.0003525
3587.9	0.0002965
3597.55	0.00025063
3607.19	0.0003118
3616.84	0.00020628
3626.48	0.00016984
3636.13	0.0004238
3645.77	0.0003683
3655.42	0.0001582
3665.06	0.0002737
3674.71	0.000181982
3684.35	0.0003493
3694	0.00024828
3703.64	0.00025311
3713.29	0.00024419
3722.93	0.00016966
3732.58	0.0002952
3742.22	0.0003069
3751.86	0.0003354
3761.51	0.0003508
3771.15	0.0003091
3780.8	0.0003269
3790.44	0.00019951
3800.09	0.00019668
3809.73	0.0003637
3819.38	0.0002988
3829.02	0.0002417
3838.67	0.0001357
3848.31	0.0004335
3857.96	0.0003662
3867.6	0.0002774
3877.25	0.00021964
3886.89	0.0001967
3896.54	0.00022014
3906.18	0.0003506
3915.83	0.0002752
3925.47	0.0002971
3935.12	0.0002939
3944.76	9.64e-05
3954.41	0.0001457
3964.05	0.0002782
3973.69	0.0003577
3983.34	0.00023662
3992.98	0.00026642
