Infrared Spectrum: Orcinol
Formula: C 7 H 8 O 2
CAS: 504-15-4
State: gas
Instrument: HP-GC/MS/IRD
Origin: NIST Mass Spectrometry Data Center
1/CM	ABSORBANCE
550	0.0007904
562	0.0007228
574	0.000949
586	0.0012532
598	0.0010504
610	0.000702
622	0.0004264
634	0.0002522
646	0.0002236
658	0.0013936
670	0.0033644
682	0.002093
694	0.0007488
706	5.2e-06
718	2.86e-05
730	6.76e-05
742	4.42e-05
754	9.1e-05
766	0.0001768
778	0.0003302
790	0.0010608
802	0.0025454
814	0.0039702
826	0.0055172
838	0.004199
850	0.0029848
862	0.001365
874	0.0007332
886	0.0006058
898	0.000741
910	0.0007306
922	0.0006682
934	0.0008684
946	0.002353
958	0.00533
970	0.0061802
982	0.0039026
994	0.0023036
1006	0.003731
1018	0.0045474
1030	0.0031356
1042	0.0015574
1054	0.0011154
1066	0.0011388
1078	0.0013468
1090	0.0018278
1102	0.0031278
1114	0.0065598
1126	0.0140738
1138	0.0231998
1150	0.025662
1162	0.01937
1174	0.011635
1186	0.0080496
1198	0.008541
1210	0.011193
1222	0.0073996
1234	0.002847
1246	0.002002
1258	0.002145
1270	0.0032968
1282	0.0063206
1294	0.0076076
1306	0.0068562
1318	0.0066742
1330	0.0070616
1342	0.0063596
1354	0.0031538
1366	0.0012662
1378	0.0009438
1390	0.0009802
1402	0.0011024
1414	0.0015964
1426	0.0027898
1438	0.0042952
1450	0.0053352
1462	0.0064636
1474	0.0067652
1486	0.006318
1498	0.0065702
1510	0.0058526
1522	0.0043394
1534	0.003237
1546	0.0023686
1558	0.0026052
1570	0.004888
1582	0.0116584
1594	0.0207558
1606	0.0229788
1618	0.0190788
1630	0.014794
1642	0.0081718
1654	0.0034372
1666	0.0017992
1678	0.0013052
1690	0.000923
1702	0.0006786
1714	0.0006422
1726	0.0006838
1738	0.0006344
1750	0.000416
1762	0.000247
1774	0.0001768
1786	0.0001248
1798	0.000104
1810	6.24e-05
1822	7.8e-05
1834	5.46e-05
1846	5.46e-05
1858	5.2e-05
1870	6.5e-05
1882	2.6e-05
1894	5.2e-05
1906	6.5e-05
1918	7.28e-05
1930	4.42e-05
1942	4.94e-05
1954	3.12e-05
1966	7.8e-05
1978	5.72e-05
1990	2.08e-05
2002	2.34e-05
2014	3.64e-05
2026	2.6e-05
2038	1.04e-05
2050	5.2e-06
2062	1.3e-05
2074	1.82e-05
2086	7.02e-05
2098	0.0001404
2110	0.000221
2122	0.0002054
2134	0.0001482
2146	0.0001508
2158	0.0001378
2170	0.0001612
2182	0.0001742
2194	0.000143
2206	0.000104
2218	7.54e-05
2230	4.42e-05
2242	1.82e-05
2254	3.38e-05
2266	7.02e-05
2278	0.000104
2290	0.0001586
2302	0.0002054
2314	0.0002028
2326	0.000182
2338	0.0002314
2350	0.0002158
2362	0.000221
2374	0.0001742
2386	0.0002028
2398	0.000234
2410	0.0002158
2422	0.0001716
2434	0.0002444
2446	0.0003016
2458	0.0003432
2470	0.0003926
2482	0.000429
2494	0.0003796
2506	0.0002704
2518	0.0001612
2530	0.00013
2542	8.58e-05
2554	2.86e-05
2566	6.24e-05
2578	3.9e-05
2590	4.42e-05
2602	7.02e-05
2614	9.88e-05
2626	6.24e-05
2638	5.98e-05
2650	4.94e-05
2662	4.94e-05
2674	6.76e-05
2686	4.94e-05
2698	2.08e-05
2710	2.6e-06
2722	5.98e-05
2734	0.00013
2746	0.0001742
2758	0.0001508
2770	0.000104
2782	9.1e-05
2794	0.0001482
2806	0.0002132
2818	0.000208
2830	0.0003146
2842	0.0004524
2854	0.000702
2866	0.0011206
2878	0.0013026
2890	0.0010712
2902	0.0011388
2914	0.0017888
2926	0.0028548
2938	0.0029328
2950	0.001963
2962	0.0011518
2974	0.0008424
2986	0.0009542
2998	0.0011986
3010	0.001703
3022	0.0026572
3034	0.0030472
3046	0.002275
3058	0.0016354
3070	0.0010842
3082	0.0006474
3094	0.000442
3106	0.0003068
3118	0.0001924
3130	0.0001326
3142	7.02e-05
3154	2.6e-06
3166	1.82e-05
3178	2.08e-05
3190	3.64e-05
3202	6.24e-05
3214	2.34e-05
3226	8.32e-05
3238	5.72e-05
3250	5.98e-05
3262	5.98e-05
3274	4.68e-05
3286	6.24e-05
3298	0.0001144
3310	0.0001248
3322	0.0001508
3334	0.0003068
3346	0.0002886
3358	0.0003406
3370	0.0002288
3382	0.000247
3394	0.0001898
3406	0.0001872
3418	0.0002184
3430	0.0002548
3442	0.0002028
3454	0.0001872
3466	0.000169
3478	0.0001248
3490	0.0001508
3502	0.000143
3514	0.0001222
3526	0.0001404
3538	0.000169
3550	0.0001872
3562	0.0001456
3574	0.0001898
3586	0.0002678
3598	0.0003016
3610	0.0005304
3622	0.0012064
3634	0.004823
3646	0.015054
3658	0.0145054
3670	0.0037934
3682	0.0006474
3694	0.0002418
3706	0.0002392
3718	0.0001274
3730	0.0001118
3742	9.62e-05
3754	0.0001404
3766	0.0001274
3778	0.0001222
3790	8.06e-05
3802	0.0001404
3814	0.0001872
3826	0.0001872
3838	0.0001846
