Infrared Spectrum: PYRIDINE, 4-AMINO-
Formula: C5 H6 N2
CAS: 504-24-5
State: SOLID (SPLIT MULL, FLUOROLUBE FOR 3800-1330 AND NUJOL FOR 1330-450 CM ^-^1)
Melting point: 158 C
Class: COBLENTZ III
Instrument: DOW KBr FOREPRISM-GRATING
Instrument parameters: BLAZED AT 3.5, 12.0, 20.0 MICRON, CHANGED AT 5.0, 7.5, 14.9 MICRON
Sampling: TRANSMISSION
Resolution: 4
Origin: DOW CHEMICAL COMPANY
1/CM	TRANSMITTANCE
449.684	0.895
458.228	0.905
466.773	0.932
475.317	0.948
483.861	0.964
492.406	0.969
500.95	0.973
509.494	0.969
518.038	0.955
526.583	0.91
535.127	0.763
543.671	0.9007
552.216	0.994
560.76	1
569.304	1
577.849	0.998
586.393	0.989
594.937	0.998
603.481	0.991
612.026	0.985
620.57	0.98
629.114	0.972
637.659	0.96
646.203	0.933
654.747	0.905
663.292	0.87
671.836	0.804
680.38	0.76
688.924	0.751
697.469	0.785
706.013	0.85
714.557	0.885
723.102	0.886
731.646	0.908
740.19	0.87
748.735	0.914
757.279	0.913
765.823	0.904
774.368	0.901
782.912	0.894
791.456	0.889
800	0.87
808.545	0.836
817.089	0.733
825.633	0.3102
834.178	0.752
842.722	0.661
851.266	0.8219
859.811	0.947
868.355	0.923
876.899	0.904
885.443	0.898
893.988	0.902
902.532	0.91
911.076	0.914
919.621	0.916
928.165	0.919
936.709	0.916
945.254	0.913
953.798	0.905
962.342	0.897
970.886	0.877
979.431	0.8
987.975	0.6551
996.519	0.4934
1005.06	0.979
1013.61	0.988
1022.15	0.985
1030.7	0.979
1039.24	0.976
1047.79	0.969
1056.33	0.922
1064.87	0.958
1073.42	0.948
1081.96	0.941
1090.51	0.936
1099.05	0.933
1107.6	0.933
1116.14	0.935
1124.68	0.948
1133.23	0.955
1141.77	0.944
1150.32	0.944
1158.86	0.939
1167.41	0.935
1175.95	0.927
1184.49	0.92
1193.04	0.922
1201.58	0.908
1210.13	0.872
1218.67	0.6939
1227.22	0.9004
1235.76	0.967
1244.3	0.947
1252.85	0.927
1261.39	0.891
1269.94	0.75
1278.48	0.747
1287.03	0.855
1295.57	0.852
1304.11	0.835
1312.66	0.822
1321.2	0.783
1329.75	0.698
1338.29	0.533
1346.84	0.852
1355.38	0.847
1363.92	0.917
1372.47	0.914
1381.01	0.92
1389.56	0.935
1398.1	0.938
1406.65	0.932
1415.19	0.929
1423.73	0.919
1432.28	0.858
1440.82	0.5391
1449.37	0.936
1457.91	0.945
1466.46	0.919
1475	0.886
1483.54	0.847
1492.09	0.855
1500.63	0.7721
1509.18	0.3952
1517.72	0.748
1526.27	0.769
1534.81	0.836
1543.35	0.9
1551.9	0.851
1560.44	0.751
1568.99	0.8
1577.53	0.711
1586.08	0.4861
1594.62	0.21
1603.16	0.044
1611.71	0.6859
1620.25	0.905
1628.8	0.895
1637.34	0.807
1645.89	0.4669
1654.43	0.422
1662.97	0.8
1671.52	0.922
1680.06	0.925
1688.61	0.986
1697.15	1
1705.7	1.002
1714.24	1.004
1722.79	1.004
1731.33	1.004
1739.87	1.004
1748.42	1.004
1756.96	1.005
1765.51	1.002
1774.05	1.001
1782.6	1
1791.14	1
1799.68	0.998
1808.23	0.994
1816.77	0.986
1825.32	0.988
1833.86	0.982
1842.41	0.982
1850.95	0.991
1859.49	0.986
1868.04	0.989
1876.58	0.983
1885.13	0.982
1893.67	0.98
1902.22	0.979
1910.76	0.98
1919.3	0.964
1927.85	0.964
1936.39	0.979
1944.94	0.977
1953.48	0.975
1962.03	0.979
1970.57	0.979
1979.11	0.977
1987.66	0.973
1996.2	0.967
2004.75	0.963
2013.29	0.96
2021.84	0.96
2030.38	0.958
2038.92	0.954
2047.47	0.9449
2056.01	0.935
2064.56	0.9451
2073.1	0.9515
2081.65	0.951
2090.19	0.948
2098.73	0.948
2107.28	0.9368
2115.82	0.941
2124.37	0.942
2132.91	0.942
2141.46	0.9431
2150	0.9409
2158.54	0.935
2167.09	0.9319
2175.63	0.9254
2184.18	0.923
2192.72	0.9282
2201.27	0.9299
2209.81	0.9278
2218.35	0.9269
2226.9	0.923
2235.44	0.92
2243.99	0.917
2252.53	0.913
2261.08	0.91
2269.62	0.91
2278.16	0.908
2286.71	0.907
2295.25	0.9051
2303.8	0.8997
2312.34	0.8957
2320.89	0.8919
2329.43	0.897
2337.97	0.901
2346.52	0.901
2355.06	0.905
2363.61	0.9107
2372.15	0.9075
2380.7	0.9
2389.24	0.897
2397.79	0.8943
2406.33	0.8942
2414.87	0.894
2423.42	0.8918
2431.96	0.8883
2440.51	0.886
2449.05	0.886
2457.6	0.8894
2466.14	0.8896
2474.68	0.883
2483.23	0.879
2491.77	0.882
2500.32	0.882
2508.86	0.8822
2517.41	0.8785
2525.95	0.8715
2534.49	0.8512
2543.04	0.8448
2551.58	0.8708
2560.13	0.8797
2568.67	0.8775
2577.22	0.875
2585.76	0.8722
2594.3	0.867
2602.85	0.8614
2611.39	0.86
2619.94	0.8572
2628.48	0.852
2637.03	0.852
2645.57	0.8482
2654.11	0.8352
2662.66	0.8311
2671.2	0.8252
2679.75	0.8161
2688.29	0.7977
2696.84	0.777
2705.38	0.7875
2713.92	0.8083
2722.47	0.816
2731.01	0.8207
2739.56	0.8194
2748.1	0.8102
2756.65	0.7826
2765.19	0.764
2773.73	0.7785
2782.28	0.791
2790.82	0.795
2799.37	0.797
2807.91	0.7894
2816.46	0.7842
2825	0.779
2833.54	0.7742
2842.09	0.7672
2850.63	0.7622
2859.18	0.7516
2867.72	0.741
2876.27	0.7381
2884.81	0.7326
2893.35	0.7222
2901.9	0.7079
2910.44	0.6971
2918.99	0.689
2927.53	0.6881
2936.08	0.676
2944.62	0.6572
2953.16	0.6353
2961.71	0.6082
2970.25	0.5842
2978.8	0.5691
2987.34	0.557
2995.89	0.558
3004.43	0.5709
3012.97	0.5827
3021.52	0.5831
3030.06	0.5631
3038.61	0.523
3047.15	0.527
3055.7	0.479
3064.24	0.4219
3072.78	0.3793
3081.33	0.347
3089.87	0.3505
3098.42	0.347
3106.96	0.3791
3115.51	0.4235
3124.05	0.481
3132.6	0.5163
3141.14	0.5619
3149.68	0.622
3158.23	0.6516
3166.77	0.6832
3175.32	0.7037
3183.86	0.7113
3192.41	0.7256
3200.95	0.7332
3209.49	0.7386
3218.04	0.7502
3226.58	0.7682
3235.13	0.7883
3243.67	0.7946
3252.22	0.797
3260.76	0.805
3269.3	0.813
3277.85	0.7986
3286.39	0.7633
3294.94	0.7092
3303.48	0.6665
3312.03	0.6732
3320.57	0.7252
3329.11	0.7551
3337.66	0.7941
3346.2	0.8149
3354.75	0.8333
3363.29	0.835
3371.84	0.8377
3380.38	0.835
3388.92	0.8254
3397.47	0.817
3406.01	0.7883
3414.56	0.762
3423.1	0.7018
3431.65	0.464
3440.19	0.179
3448.73	0.5964
3457.28	0.8527
3465.82	0.861
3474.37	0.858
3482.91	0.8543
3491.46	0.845
3500	0.8426
3508.54	0.8328
3517.09	0.832
3525.63	0.8286
3534.18	0.8236
3542.72	0.823
3551.27	0.829
3559.81	0.83
3568.35	0.829
3576.9	0.82
3585.44	0.822
3593.99	0.825
3602.53	0.8222
3611.08	0.82
3619.62	0.8215
3628.16	0.8167
3636.71	0.8132
3645.25	0.8162
3653.8	0.8076
3662.34	0.811
3670.89	0.8084
3679.43	0.8056
3687.97	0.8106
3696.52	0.8056
3705.06	0.8072
3713.61	0.7994
3722.15	0.798
3730.7	0.8013
3739.24	0.8002
3747.78	0.7963
3756.33	0.7912
3764.87	0.7887
3773.42	0.7863
3781.96	0.786
3790.51	0.786
3799.05	0.785
