Infrared Spectrum: 2-Aminopyridine
Formula: C 5 H 6 N 2
CAS: 504-29-0
State: gas
Instrument: HP-GC/MS/IRD
Origin: NIST Mass Spectrometry Data Center
1/CM	ABSORBANCE
550	0.0008288
562	0.0001218
574	0.0005572
586	0.0005866
598	0.0005852
610	0.0005768
622	0.0005068
634	0.0003318
646	0.0003976
658	0.00049
670	0.0007224
682	0.0016156
694	0.0009632
706	0.0019124
718	0.0023926
730	0.0010738
742	0.000882
754	0.0007826
766	0.0007238
778	0.0005964
790	0.0004648
802	0.0006692
814	0.0011578
826	0.0015428
838	0.0010696
850	0.0010178
862	0.0013272
874	0.0017766
886	0.0028672
898	0.004326
910	0.0059556
922	0.0046592
934	0.0023646
946	0.001414
958	0.001519
970	0.0016072
982	0.001281
994	0.0009926
1006	0.0008036
1018	0.0008232
1030	0.0005054
1042	0.0006076
1054	0.000462
1066	0.000504
1078	0.0008512
1090	0.0014294
1102	0.0023184
1114	0.0010276
1126	0.0008246
1138	0.0006384
1150	0.0004396
1162	0.0012432
1174	5.04e-05
1186	0.0002324
1198	0.001134
1210	0.003213
1222	0.0075558
1234	0.0035546
1246	0.0020734
1258	0.003262
1270	0.0025942
1282	0.0014154
1294	0.0011312
1306	0.0008022
1318	0.0009436
1330	0.0013076
1342	0.0007966
1354	0.0005614
1366	0.000518
1378	0.000567
1390	0.0006132
1402	0.0006398
1414	0.0007812
1426	0.000777
1438	0.0004914
1450	0.0004942
1462	0.0004312
1474	0.000497
1486	0.0006356
1498	0.0003906
1510	0.00035
1522	0.0003276
1534	0.0004018
1546	0.000371
1558	0.0004102
1570	0.0006608
1582	0.0008792
1594	0.0009394
1606	0.0009688
1618	0.0007616
1630	0.0005446
1642	0.0004928
1654	0.0005908
1666	0.000805
1678	0.0010892
1690	0.0023548
1702	0.0015666
1714	0.0009128
1726	0.0008148
1738	0.000714
1750	0.0008176
1762	0.0013664
1774	0.00357
1786	0.006923
1798	0.0121786
1810	0.012705
1822	0.0070434
1834	0.0030114
1846	0.0026712
1858	0.0037632
1870	0.0049
1882	0.0027664
1894	0.001463
1906	0.0007728
1918	0.000504
1930	0.0004102
1942	0.0004004
1954	0.0003668
1966	0.0003626
1978	0.0003976
1990	0.0003584
2002	0.0003962
2014	0.0003612
2026	0.000287
2038	0.0002632
2050	0.0002702
2062	0.0002422
2074	0.0002198
2086	0.0002044
2098	0.0002016
2110	0.0001932
2122	0.000161
2134	0.0002226
2146	0.0002422
2158	0.0002366
2170	0.0002184
2182	0.0001862
2194	0.0001834
2206	0.0001764
2218	0.0001652
2230	0.0001722
2242	0.000217
2254	0.00021
2266	0.0001372
2278	0.0001456
2290	0.0001666
2302	0.0001708
2314	0.000189
2326	0.0001372
2338	0.0001764
2350	0.00021
2362	0.0001624
2374	0.0001722
2386	0.0001694
2398	0.0001288
2410	8.96e-05
2422	0.0001484
2434	0.000126
2446	9.24e-05
2458	0.0001358
2470	0.0001582
2482	0.0001036
2494	0.00014
2506	0.0001456
2518	9.1e-05
2530	0.000112
2542	0.0001372
2554	0.0001204
2566	0.0001022
2578	0.0001022
2590	5.04e-05
2602	9.94e-05
2614	5.18e-05
2626	5.18e-05
2638	0.0001134
2650	7.84e-05
2662	0.0001484
2674	8.12e-05
2686	8.54e-05
2698	7e-05
2710	8.96e-05
2722	0.0001218
2734	0.0001218
2746	0.0001008
2758	0.0001582
2770	0.000161
2782	9.52e-05
2794	0.0002408
2806	0.000168
2818	0.0001526
2830	0.0001344
2842	0.000112
2854	0.0001568
2866	0.0001022
2878	0.0001918
2890	0.0002198
2902	0.000182
2914	0.0001344
2926	0.0001512
2938	0.0001414
2950	0.0001246
2962	0.0001722
2974	8.4e-05
2986	0.0001162
2998	0.00014
3010	0.0002002
3022	9.38e-05
3034	0.0001722
3046	0.0002044
3058	0.0001232
3070	0.0001652
3082	0.0002212
3094	0.0001554
3106	0.0002352
3118	0.000182
3130	0.0002184
3142	0.0002058
3154	0.0002254
3166	0.0002114
3178	0.000126
3190	0.0001834
3202	0.0001428
3214	0.0001862
3226	0.0002254
3238	0.0001848
3250	0.0002212
3262	0.0001204
3274	0.0001932
3286	0.0002394
3298	0.0002016
3310	0.0001568
3322	0.0001484
3334	9.52e-05
3346	0.0001498
3358	0.000105
3370	0.000189
3382	0.0001358
3394	0.0001148
3406	0.0001358
3418	7.56e-05
3430	0
3442	0.0002296
3454	9.52e-05
3466	0.0001848
3478	0.0001694
3490	0.0002716
3502	6.16e-05
3514	0.000105
3526	0.0001008
3538	0.0001484
3550	8.68e-05
3562	0.000105
3574	0.0002268
3586	0.0001498
3598	9.24e-05
3610	0.0002786
3622	0.0002198
3634	0.0003388
3646	0.000252
3658	0.000217
3670	0.0001582
3682	0.000133
3694	0.0001834
3706	0.0002016
3718	3.22e-05
3730	7.98e-05
3742	9.1e-05
3754	0.0001862
3766	0.0001008
3778	9.52e-05
3790	0.0001624
3802	0.0001372
3814	8.54e-05
3826	0.0002142
3838	6.72e-05
