Infrared Spectrum: 2,6,11,15-Tetramethylhexadecane
Formula: C 20 H 42
CAS: 504-44-9
State: gas
Instrument: HP-GC/MS/IRD
Origin: NIST Mass Spectrometry Data Center
1/CM	ABSORBANCE
550	0.0008178
562	0.000376
574	0.0003196
586	0.000141
598	0.0002209
610	0.0001128
622	6.58e-05
634	0.0001645
646	0.0001692
658	9.4e-05
670	1.41e-05
682	0.0002115
694	0.0002021
706	0.0002397
718	0.0004042
730	0.0006157
742	0.0005029
754	0.0003149
766	0.0002914
778	0.0002585
790	0.0003196
802	0.000235
814	0.0003431
826	0.0003384
838	0.0003807
850	0.0003525
862	0.000282
874	0.0002914
886	0.0002585
898	0.000376
910	0.0004559
922	0.0006298
934	0.0006298
946	0.0005452
958	0.0004747
970	0.0005593
982	0.0005076
994	0.0004512
1006	0.0004559
1018	0.0005076
1030	0.00047
1042	0.0004606
1054	0.0004418
1066	0.0003008
1078	0.0002538
1090	0.0002303
1102	0.0003055
1114	0.0003572
1126	0.0004465
1138	0.0006909
1150	0.0010105
1162	0.0013113
1174	0.0011844
1186	0.0006862
1198	0.0006768
1210	0.0007285
1222	0.0006439
1234	0.0005687
1246	0.0006157
1258	0.0005499
1270	0.000752
1282	0.0007661
1294	0.0008554
1306	0.0010105
1318	0.0011891
1330	0.001504
1342	0.0019364
1354	0.0023782
1366	0.0035579
1378	0.0048833
1390	0.0039433
1402	0.0014711
1414	0.0010951
1426	0.0011891
1438	0.0021056
1450	0.003948
1462	0.0063591
1474	0.0049115
1486	0.0020304
1498	0.0011045
1510	0.0009306
1522	0.0006627
1534	0.0004277
1546	0.0004512
1558	0.0005123
1570	0.0002491
1582	0.0002021
1594	0.0002397
1606	0.0002303
1618	0.0002961
1630	0.0002961
1642	0.0003102
1654	0.0004794
1666	0.0003478
1678	0.0003901
1690	0.0003478
1702	0.0004559
1714	0.0003807
1726	0.0002491
1738	0.0003384
1750	0.0003948
1762	0.0002867
1774	0.0002867
1786	0.000282
1798	0.0002632
1810	0.0002303
1822	0.0002256
1834	0.0002115
1846	0.0002914
1858	0.0001927
1870	0.0002444
1882	0.0001786
1894	0.000188
1906	0.0001551
1918	0.0002115
1930	0.0001504
1942	0.0001974
1954	0.0001504
1966	0.000188
1978	0.0001598
1990	0.0001786
2002	0.0001457
2014	0.0001786
2026	0.0001833
2038	0.0001739
2050	0.0001645
2062	0.0001833
2074	0.0001739
2086	0.0001739
2098	0.0001692
2110	0.0001739
2122	0.0001598
2134	0.0001739
2146	0.000188
2158	0.0001739
2170	0.0001833
2182	0.0001833
2194	0.0001645
2206	0.0001692
2218	0.0001739
2230	0.000188
2242	0.000188
2254	0.0001974
2266	0.0002115
2278	0.000188
2290	0.0001645
2302	0.0001175
2314	9.4e-06
2326	4.7e-06
2338	4.7e-06
2350	4.7e-06
2362	4.7e-06
2374	4.7e-06
2386	0.0001739
2398	0.0002303
2410	0.0002162
2422	0.0002115
2434	0.000235
2446	0.0002068
2458	0.0002162
2470	0.0002256
2482	0.0002209
2494	0.0002256
2506	0.0002491
2518	0.0002632
2530	0.0002914
2542	0.0003149
2554	0.0003196
2566	0.0003525
2578	0.0004089
2590	0.00047
2602	0.0005029
2614	0.0005546
2626	0.0005687
2638	0.0005734
2650	0.0005593
2662	0.0005734
2674	0.0006392
2686	0.0006486
2698	0.0006862
2710	0.0007708
2722	0.0009212
2734	0.0010152
2746	0.0009306
2758	0.0009729
2770	0.0010716
2782	0.0012267
2794	0.0015134
2806	0.0019599
2818	0.0025944
2830	0.0036519
2842	0.0066787
2854	0.0141
2866	0.0174558
2878	0.0210748
2890	0.0193969
2902	0.0250416
2914	0.0328154
2926	0.0426384
2938	0.0445231
2950	0.0336943
2962	0.0449273
2974	0.0257043
2986	0.0082156
2998	0.0038869
3010	0.0023171
3022	0.0016074
3034	0.0013019
3046	0.0010716
3058	0.0009541
3070	0.0009024
3082	0.0008319
3094	0.0007473
3106	0.0006862
3118	0.0005828
3130	0.000611
3142	0.0006204
3154	0.0006298
3166	0.0006439
3178	0.0005875
3190	0.000564
3202	0.0004465
3214	0.0003666
3226	0.0003149
3238	0.0002444
3250	0.0002632
3262	0.000235
3274	0.0002444
3286	0.0002256
3298	0.0002303
3310	0.0002209
3322	0.0002444
3334	0.0002444
3346	0.0002115
3358	0.0001739
3370	0.0001833
3382	0.0002162
3394	0.0002115
3406	0.000141
3418	0.0001316
3430	0.0001363
3442	9.87e-05
3454	0.0001034
3466	4.23e-05
3478	4.7e-05
3490	3.29e-05
3502	6.11e-05
3514	2.82e-05
3526	7.99e-05
3538	4.23e-05
3550	7.99e-05
3562	7.52e-05
3574	4.23e-05
3586	0.0001692
3598	5.64e-05
3610	0.0001739
3622	8.46e-05
3634	7.52e-05
3646	0.0001269
3658	9.4e-05
3670	0.0001316
3682	4.7e-05
3694	3.29e-05
3706	1.41e-05
3718	9.87e-05
3730	9.87e-05
3742	0.0002162
3754	9.4e-05
3766	4.7e-05
3778	2.82e-05
3790	4.7e-06
3802	0.0001081
3814	8.46e-05
3826	1.41e-05
3838	0.0001739
