Infrared Spectrum: 5-Amino-1-phenylpyrazole-4-carboxamide
Formula: C 10 H 10 N 4 O
CAS: 50427-77-5
State: gas
Origin: EPA-IR VAPOR PHASE LIBRARY
1/CM	ABSORBANCE
549.8	0.007514
559.445	0.007804
569.09	0.008424
578.734	0.006524
588.379	0.007154
598.024	0.007044
607.669	0.005754
617.313	0.005464
626.958	0.005764
636.603	0.006224
646.248	0.006974
655.893	0.006704
665.537	0.006784
675.182	0.008024
684.827	0.012294
694.472	0.015304
704.116	0.013264
713.761	0.014594
723.406	0.019774
733.051	0.017354
742.695	0.013984
752.34	0.014734
761.985	0.019934
771.63	0.018684
781.275	0.013304
790.919	0.009404
800.564	0.007114
810.209	0.006624
819.854	0.006624
829.498	0.006454
839.143	0.006964
848.788	0.008104
858.433	0.007544
868.078	0.006114
877.722	0.005494
887.367	0.005744
897.012	0.005454
906.657	0.006254
916.301	0.006374
925.946	0.007184
935.591	0.010424
945.236	0.019634
954.88	0.016494
964.525	0.007994
974.17	0.005134
983.815	0.004584
993.46	0.004944
1003.1	0.004644
1012.75	0.003444
1022.39	0.004334
1032.04	0.003264
1041.68	0.003944
1051.33	0.007064
1060.97	0.009884
1070.62	0.010684
1080.26	0.004074
1089.91	0.003844
1099.55	0.002824
1109.2	0.003544
1118.84	0.002774
1128.49	0.003554
1138.13	0.004004
1147.78	0.004314
1157.42	0.005024
1167.07	0.003844
1176.71	0.002344
1186.36	0.001944
1196	0.0017362
1205.64	0.003044
1215.29	0.0017877
1224.93	0
1234.58	0.0016357
1244.22	0.003014
1253.87	0.003174
1263.51	0.005064
1273.16	0.006064
1282.8	0.007604
1292.45	0.010444
1302.09	0.010694
1311.74	0.016404
1321.38	0.036024
1331.03	0.030674
1340.67	0.008324
1350.32	0.004104
1359.96	0.004014
1369.61	0.004264
1379.25	0.005624
1388.9	0.011824
1398.54	0.027824
1408.18	0.031864
1417.83	0.019744
1427.47	0.016434
1437.12	0.009984
1446.76	0.007264
1456.41	0.008404
1466.05	0.007754
1475.7	0.008004
1485.34	0.010004
1494.99	0.018644
1504.63	0.023444
1514.28	0.020374
1523.92	0.020964
1533.57	0.034824
1543.21	0.072914
1552.86	0.071474
1562.5	0.030524
1572.15	0.025504
1581.79	0.056964
1591.44	0.076814
1601.08	0.060714
1610.73	0.061144
1620.37	0.047244
1630.01	0.026014
1639.66	0.016664
1649.3	0.013934
1658.95	0.015554
1668.59	0.030114
1678.24	0.064504
1687.88	0.071854
1697.53	0.039344
1707.17	0.018044
1716.82	0.010114
1726.46	0.006374
1736.11	0.004454
1745.75	0.003874
1755.4	0.003914
1765.04	0.003754
1774.69	0.003114
1784.33	0.002774
1793.98	0.002804
1803.62	0.002284
1813.27	0.002154
1822.91	0.001894
1832.55	0.001844
1842.2	0.001794
1851.84	0.001864
1861.49	0.002064
1871.13	0.002264
1880.78	0.002254
1890.42	0.002074
1900.07	0.001914
1909.71	0.0015086
1919.36	0.0014982
1929	0.0017438
1938.65	0.001914
1948.29	0.001894
1957.94	0.001924
1967.58	0.0016979
1977.23	0.0014258
1986.87	0.0014681
1996.52	0.0012761
2006.16	0.001148
2015.81	0.0012229
2025.45	0.0012831
2035.1	0.0011437
2044.74	0.0012078
2054.38	0.0012374
2064.03	0.0012027
2073.67	0.0014392
2083.32	0.0009591
2092.96	0.0012207
2102.61	0.0012911
2112.25	0.0012759
2121.9	0.0014561
2131.54	0.001312
2141.19	0.0013986
2150.83	0.0015108
2160.48	0.0013446
2170.12	0.0013073
2179.77	0.0013897
2189.41	0.00133
2199.06	0.0012974
2208.7	0.0014748
2218.35	0.001472
2227.99	0.001247
2237.64	0.0016925
2247.28	0.0013288
2256.92	0.0013434
2266.57	0.0013799
2276.21	0.001513
2285.86	0.0014252
2295.5	0.0014567
2305.15	0.0012641
2314.79	0.0013703
2324.44	0.0013162
2334.08	0.0014145
2343.73	0.0012002
2353.37	0.0010401
2363.02	0.0011306
2372.66	0.0011458
2382.31	0.0010156
2391.95	0.001288
2401.6	0.0010667
2411.24	0.0012644
2420.89	0.001207
2430.53	0.0009783
2440.18	0.0013631
2449.82	0.0009843
2459.47	0.0010148
2469.11	0.0010755
2478.75	0.0012058
2488.4	0.0012681
2498.04	0.0012163
2507.69	0.0011993
2517.33	0.0013369
2526.98	0.0013584
2536.62	0.0010521
2546.27	0.0012287
2555.91	0.0011585
2565.56	0.0011231
2575.2	0.0010276
2584.85	0.0012005
2594.49	0.00134
2604.14	0.0013211
2613.78	0.0013167
2623.43	0.0013073
2633.07	0.0012806
2642.72	0.0013734
2652.36	0.0011441
2662.01	0.0011052
2671.65	0.0010847
2681.29	0.001171
2690.94	0.001247
2700.58	0.0010794
2710.23	0.001121
2719.87	0.0013135
2729.52	0.0014121
2739.16	0.0012148
2748.81	0.0015327
2758.45	0.0015439
2768.1	0.0014229
2777.74	0.0012457
2787.39	0.0010416
2797.03	0.0011002
2806.68	0.0011182
2816.32	0.0014409
2825.97	0.0012762
2835.61	0.0011609
2845.26	0.0016143
2854.9	0.0011024
2864.55	0.0011045
2874.19	0.0009084
2883.84	0.0013796
2893.48	0.0013855
2903.12	0.0010232
2912.77	0.0010661
2922.41	0.0012403
2932.06	0.0013892
2941.7	0.0016188
2951.35	0.0013963
2960.99	0.001357
2970.64	0.0013093
2980.28	0.0011282
2989.93	0.0012508
2999.57	0.0014458
3009.22	0.0014722
3018.86	0.0015734
3028.51	0.002424
3038.15	0.002924
3047.8	0.004334
3057.44	0.005414
3067.09	0.005954
3076.73	0.006884
3086.38	0.006004
3096.02	0.004024
3105.67	0.003934
3115.31	0.002874
3124.95	0.001964
3134.6	0.0015691
3144.24	0.0015947
3153.89	0.001864
3163.53	0.002004
3173.18	0.001984
3182.82	0.0017765
3192.47	0.0012361
3202.11	0.0016814
3211.76	0.001524
3221.4	0.001804
3231.05	0.002114
3240.69	0.0014638
3250.34	0.001616
3259.98	0.001864
3269.63	0.002244
3279.27	0.002534
3288.92	0.002594
3298.56	0.003254
3308.21	0.003574
3317.85	0.004624
3327.49	0.008624
3337.14	0.011944
3346.78	0.011034
3356.43	0.007464
3366.07	0.004934
3375.72	0.003174
3385.36	0.002544
3395.01	0.003144
3404.65	0.003454
3414.3	0.004524
3423.94	0.007324
3433.59	0.008954
3443.23	0.008394
3452.88	0.006124
3462.52	0.006714
3472.17	0.012154
3481.81	0.012514
3491.46	0.007284
3501.1	0.003864
3510.75	0.003754
3520.39	0.003994
3530.04	0.004344
3539.68	0.004424
3549.32	0.004524
3558.97	0.004754
3568.61	0.003724
3578.26	0.0017869
3587.9	0.0009845
3597.55	0.0009633
3607.19	0.001245
3616.84	0.0013498
3626.48	0.00086324
3636.13	0.001471
3645.77	0.0014866
3655.42	0.0013065
3665.06	0.0010028
3674.71	0.000436
3684.35	0.0010344
3694	0.0009849
3703.64	0.0011846
3713.29	0.0010119
3722.93	0.0009365
3732.58	0.0009673
3742.22	0.0009818
3751.86	0.000734
3761.51	0.0013534
3771.15	0.00081436
3780.8	0.0010003
3790.44	0.0009193
3800.09	0.0011084
3809.73	0.000579
3819.38	0.0011259
3829.02	0.0012373
3838.67	0.0009079
3848.31	0.0011619
3857.96	0.0009992
3867.6	0.000496
3877.25	0.0011041
3886.89	0.000625
3896.54	0.000658
3906.18	0.0011448
3915.83	0.0009821
3925.47	0.000339
3935.12	0.0007061
3944.76	0.00081246
3954.41	0.0009944
3964.05	0.000637
3973.69	0.0009745
3983.34	0.0009538
3992.98	0.0012843
