Infrared Spectrum: Vinclozolin
Formula: C 12 H 9 Cl 2 N O 3
CAS: 50471-44-8
State: gas
Instrument: HP-GC/MS/IRD
Origin: NIST Mass Spectrometry Data Center
1/CM	ABSORBANCE
550	0.0002898
562	6.21e-05
574	0.0003105
586	0.0007107
598	0.00069
610	0.0006141
622	0.0015111
634	0.0051681
646	0.0033258
658	0.0026703
670	0.0034224
682	0.0010488
694	0.0009108
706	0.0012351
718	0.0023667
730	0.00414
742	0.0094461
754	0.0026496
766	0.0017319
778	0.0015456
790	0.0021114
802	0.0077901
814	0.0073623
826	0.002691
838	0.002346
850	0.0043056
862	0.0055959
874	0.0024357
886	0.0011937
898	0.0010074
910	0.001035
922	0.0013731
934	0.0031257
946	0.0062238
958	0.0030981
970	0.0020424
982	0.0024978
994	0.0023046
1006	0.0016905
1018	0.002484
1030	0.0036156
1042	0.0053337
1054	0.0029946
1066	0.00207
1078	0.0027738
1090	0.0045471
1102	0.0069
1114	0.0066171
1126	0.0075969
1138	0.0103845
1150	0.0107019
1162	0.0089562
1174	0.0102879
1186	0.0154215
1198	0.0117507
1210	0.0151179
1222	0.0164979
1234	0.011454
1246	0.006486
1258	0.003588
1270	0.0027669
1282	0.0025806
1294	0.0022218
1306	0.0022908
1318	0.0024633
1330	0.003243
1342	0.0051543
1354	0.0102465
1366	0.0244467
1378	0.0288006
1390	0.0179814
1402	0.010488
1414	0.0120612
1426	0.0159873
1438	0.0253023
1450	0.0295527
1462	0.0092253
1474	0.0034362
1486	0.0023253
1498	0.0018975
1510	0.0019113
1522	0.0020976
1534	0.0023529
1546	0.0025461
1558	0.0047403
1570	0.0152697
1582	0.0222387
1594	0.0148971
1606	0.0050508
1618	0.0026634
1630	0.001587
1642	0.0014766
1654	0.0010557
1666	0.0010488
1678	0.0010626
1690	0.0012006
1702	0.0015318
1714	0.0020148
1726	0.0033327
1738	0.0057615
1750	0.0131652
1762	0.0421038
1774	0.0664953
1786	0.0214314
1798	0.006831
1810	0.0050163
1822	0.0087423
1834	0.0201825
1846	0.0197892
1858	0.0084318
1870	0.0040434
1882	0.0025323
1894	0.0016422
1906	0.0010902
1918	0.0008556
1930	0.0006624
1942	0.0006072
1954	0.0006141
1966	0.0005658
1978	0.0004554
1990	0.0003795
2002	0.0003174
2014	0.0003036
2026	0.0002691
2038	0.000276
2050	0.0002829
2062	0.0003726
2074	0.0004968
2086	0.0005106
2098	0.0003864
2110	0.0002898
2122	0.0001932
2134	0.000207
2146	0.000207
2158	0.0002208
2170	0.0001794
2182	0.0001932
2194	0.0002001
2206	0.0002484
2218	0.0003105
2230	0.0003864
2242	0.0004209
2254	0.0004209
2266	0.0003588
2278	0.0002967
2290	0.0002553
2302	0.0001794
2314	0.0002208
2326	0.0002208
2338	0.0001863
2350	0.0001794
2362	0.0001587
2374	0.0002139
2386	0.0002898
2398	0.0003381
2410	0.000345
2422	0.000276
2434	0.0001932
2446	0.0002001
2458	0.0001794
2470	0.0001725
2482	0.0001725
2494	0.0002001
2506	0.0001863
2518	0.0002001
2530	0.0001794
2542	0.0001173
2554	0.0001449
2566	6.9e-05
2578	0.000138
2590	0.0001035
2602	0.0001725
2614	0.000138
2626	0.0001104
2638	7.59e-05
2650	0.0001173
2662	8.28e-05
2674	0.0001035
2686	8.97e-05
2698	9.66e-05
2710	0.0001035
2722	3.45e-05
2734	5.52e-05
2746	1.38e-05
2758	0.0001242
2770	2.76e-05
2782	5.52e-05
2794	7.59e-05
2806	8.97e-05
2818	0.0001449
2830	0.0001587
2842	0.0001863
2854	0.0001242
2866	0.0002415
2878	0.0003381
2890	0.0003105
2902	0.000207
2914	0.0002001
2926	0.0002898
2938	0.0006762
2950	0.0009039
2962	0.0003933
2974	0.0004485
2986	0.0012282
2998	0.0026013
3010	0.0010005
3022	0.0005313
3034	0.0007659
3046	0.0003312
3058	0.0002415
3070	0.0002967
3082	0.0003657
3094	0.0007038
3106	0.0013041
3118	0.0006555
3130	0.0004623
3142	0.0003795
3154	0.0003795
3166	0.0003174
3178	0.0002001
3190	0.0001518
3202	0.0001035
3214	0.0001242
3226	0.0001104
3238	0.0001173
3250	0.0001035
3262	0.0001518
3274	0.0001035
3286	9.66e-05
3298	5.52e-05
3310	5.52e-05
3322	3.45e-05
3334	0.0001173
3346	9.66e-05
3358	2.07e-05
3370	4.14e-05
3382	8.97e-05
3394	4.83e-05
3406	4.83e-05
3418	0.0001035
3430	6.9e-06
3442	7.59e-05
3454	6.21e-05
3466	4.83e-05
3478	6.21e-05
3490	0.0001104
3502	4.83e-05
3514	0.0001863
3526	0.0002415
3538	0.0002898
3550	0.0002691
3562	0.0002484
3574	0.0002553
3586	0.0002277
3598	0.0003312
3610	0.0003381
3622	0.0002415
3634	0.0001311
3646	0.0001794
3658	0.0001932
3670	0.000207
3682	0.0002484
3694	0.0001863
3706	0.0001242
3718	0.0001104
3730	0.0001518
3742	9.66e-05
3754	4.14e-05
3766	0.0001449
3778	0.0001863
3790	9.66e-05
3802	0.0001173
3814	6.21e-05
3826	0.0001035
3838	0.0001311
