Infrared Spectrum: 6-Cyano-1-hexene
Formula: C 7 H 11 N
CAS: 5048-25-9
State: gas
Origin: EPA-IR VAPOR PHASE LIBRARY
1/CM	ABSORBANCE
549.8	0.00072177
559.445	0.0010986
569.09	0.00071874
578.735	0.000472
588.38	0.000636
598.025	0.0008365
607.67	0.0013883
617.315	0.001812
626.96	0.001882
636.605	0.001972
646.251	0.0014932
655.896	0.0015526
665.541	0.0011724
675.186	0.0010457
684.831	0.000564
694.476	0.000942
704.121	0.0009961
713.766	0.0012406
723.411	0.0012565
733.056	0.0015527
742.701	0.0016472
752.346	0.0013374
761.991	0.0013239
771.636	0.0011107
781.281	0.0009851
790.926	0.0011938
800.571	0.001273
810.216	0.0010427
819.861	0.0012173
829.507	0.0013244
839.152	0.0014611
848.797	0.001657
858.442	0.001812
868.087	0.002082
877.732	0.002402
887.377	0.003372
897.022	0.005002
906.667	0.008372
916.312	0.012032
925.957	0.010712
935.602	0.006182
945.247	0.004042
954.892	0.003442
964.537	0.003102
974.182	0.003882
983.827	0.005272
993.472	0.006302
1003.12	0.005182
1012.76	0.003532
1022.41	0.002742
1032.05	0.002052
1041.7	0.001922
1051.34	0.001702
1060.99	0.0015607
1070.63	0.0013782
1080.28	0.0014279
1089.92	0.0012213
1099.57	0.0011347
1109.21	0.0012074
1118.86	0.0012415
1128.5	0.0011782
1138.15	0.0010316
1147.79	0.00074153
1157.44	0.0009089
1167.08	0.0009873
1176.73	0.0010594
1186.37	0.0009904
1196.02	0.000868
1205.66	0.0011186
1215.31	0.0008832
1224.95	0.0009
1234.6	0.0008425
1244.24	0.0009192
1253.89	0.0011884
1263.53	0.0013122
1273.18	0.001371
1282.82	0.0014772
1292.47	0.0015454
1302.11	0.0016855
1311.76	0.001912
1321.4	0.002142
1331.05	0.002262
1340.69	0.002402
1350.34	0.002362
1359.98	0.002172
1369.63	0.0016704
1379.27	0.0015014
1388.92	0.0015741
1398.56	0.001762
1408.21	0.002292
1417.85	0.003252
1427.5	0.004992
1437.14	0.006652
1446.79	0.006842
1456.43	0.006042
1466.08	0.004542
1475.73	0.003012
1485.37	0.001922
1495.02	0.001409
1504.66	0.0011057
1514.31	0.0011561
1523.95	0.0010652
1533.6	0.0009991
1543.24	0.0010482
1552.89	0.0010408
1562.53	0.0010455
1572.18	0.0010575
1581.82	0.0010318
1591.47	0.001006
1601.11	0.0012554
1610.76	0.0015579
1620.4	0.002162
1630.05	0.003542
1639.69	0.005092
1649.34	0.004232
1658.98	0.002062
1668.63	0.0011133
1678.27	0.0010246
1687.92	0.0008324
1697.56	0.000832
1707.21	0.00077369
1716.85	0.0006872
1726.5	0.000839
1736.14	0.000704318
1745.79	0.00079227
1755.43	0.00074464
1765.08	0.0008621
1774.72	0.00077147
1784.37	0.0008424
1794.01	0.0008134
1803.66	0.0009897
1813.3	0.0010337
1822.95	0.0013813
1832.59	0.001902
1842.24	0.001812
1851.88	0.001417
1861.53	0.0010777
1871.17	0.0009752
1880.82	0.0009009
1890.46	0.0008985
1900.11	0.0008652
1909.75	0.00077632
1919.4	0.0008209
1929.04	0.00075073
1938.69	0.0008886
1948.33	0.0008116
1957.98	0.0008822
1967.62	0.000891
1977.27	0.0009364
1986.91	0.0008577
1996.56	0.0008424
2006.2	0.000863
2015.85	0.0008339
2025.49	0.0008942
2035.14	0.0008836
2044.78	0.0008167
2054.43	0.000852
2064.07	0.0008744
2073.72	0.0008423
2083.36	0.0008475
2093.01	0.00076031
2102.65	0.0008456
2112.3	0.0009156
2121.94	0.0008481
2131.59	0.0008645
2141.23	0.0008029
2150.88	0.0008153
2160.52	0.0009027
2170.17	0.0008541
2179.81	0.0008676
2189.46	0.0008578
2199.1	0.0008876
2208.75	0.0008319
2218.39	0.0008706
2228.04	0.0011405
2237.68	0.001314
2247.33	0.001792
2256.97	0.001772
2266.62	0.0013712
2276.26	0.0010782
2285.91	0.0009318
2295.55	0.0009548
2305.2	0.0009007
2314.84	0.0008023
2324.49	0.0009435
2334.13	0.0008409
2343.78	0.0008421
2353.42	0.0008384
2363.07	0.0008837
2372.72	0.0008658
2382.36	0.0008052
2392.01	0.0008521
2401.65	0.000803
2411.3	0.0007867
2420.94	0.0008497
2430.59	0.0008829
2440.23	0.00075829
2449.88	0.0008049
2459.52	0.0008591
2469.17	0.0007786
2478.81	0.0008343
2488.46	0.0008298
2498.1	0.0008932
2507.75	0.0008782
2517.39	0.0008221
2527.04	0.0008717
2536.68	0.0008644
2546.33	0.00079326
2555.97	0.0008817
2565.62	0.0008154
2575.26	0.0009257
2584.91	0.0010409
2594.55	0.0008578
2604.2	0.001108
2613.84	0.0009558
2623.49	0.000954
2633.13	0.0009539
2642.78	0.0010154
2652.42	0.0011182
2662.07	0.0010139
2671.71	0.0011295
2681.36	0.0010055
2691	0.0010404
2700.65	0.0011004
2710.29	0.0009761
2719.94	0.0010467
2729.58	0.001079
2739.23	0.0010291
2748.87	0.0010759
2758.52	0.0011265
2768.16	0.0011509
2777.81	0.0011913
2787.45	0.001294
2797.1	0.0012737
2806.74	0.0014164
2816.39	0.001822
2826.03	0.002242
2835.68	0.003162
2845.32	0.005002
2854.97	0.006992
2864.61	0.008662
2874.26	0.009412
2883.9	0.008812
2893.55	0.008172
2903.19	0.009342
2912.84	0.012372
2922.48	0.017222
2932.13	0.022462
2941.77	0.026302
2951.42	0.026512
2961.06	0.022042
2970.71	0.014972
2980.35	0.009952
2990	0.007722
2999.64	0.006342
3009.29	0.005442
3018.93	0.004432
3028.58	0.003042
3038.22	0.002682
3047.87	0.002602
3057.51	0.003082
3067.16	0.004082
3076.8	0.005812
3086.45	0.007032
3096.09	0.005992
3105.74	0.002942
3115.38	0.0016299
3125.03	0.0012303
3134.67	0.0012667
3144.32	0.0011014
3153.96	0.0010467
3163.61	0.0008364
3173.25	0.0009158
3182.9	0.0006758
3192.54	0.00073729
3202.19	0.000412
3211.83	0.00075488
3221.48	0.000476
3231.12	0.000555
3240.77	0.000506
3250.41	0.000484
3260.06	0.000372
3269.7	0.000364
3279.35	0.000438
3289	0.00069697
3298.64	0.0006156
3308.29	0.0006292
3317.93	0.000392
3327.58	0.000594
3337.22	0.000575
3346.87	0.0006141
3356.51	0.000537
3366.16	0.000404
3375.8	0.000357
3385.45	0.000405
3395.09	0.000316
3404.74	0.000436
3414.38	0.000393
3424.03	0.000501
3433.67	0.0006245
3443.32	0.000404
3452.96	0.000348
3462.61	0.00032
3472.25	0.000273
3481.9	0.000597
3491.54	0.000314
3501.19	0.000318
3510.83	0.000469
3520.48	0.000205
3530.12	0.000375
3539.77	0.000425
3549.41	0.000386
3559.06	0.000156
3568.7	0.000355
3578.35	0.000485
3587.99	0.000291
3597.64	0.00035
3607.28	0.000211
3616.93	0.000222
3626.57	0.000212
3636.22	0.000335
3645.86	0.000133
3655.51	0.000426
3665.15	0.000376
3674.8	0.00029
3684.44	0.000168
3694.09	0.000275
3703.73	6.6e-05
3713.38	0.000487
3723.02	6.4e-05
3732.67	0.000331
3742.31	0.000398
3751.96	0.000229
3761.6	0.000287
3771.25	0.000516
3780.89	0.000515
3790.54	0.000473
3800.18	9.4e-05
3809.83	0.000303
3819.47	0.000252
3829.12	0.000319
3838.76	0.000199
3848.41	0.00043
3858.05	0.000334
3867.7	0.00034
3877.34	0.000311
3886.99	0.000299
3896.63	0.000477
3906.28	0.000567
3915.92	0.000517
3925.57	0.000554
3935.21	0.000337
3944.86	0.000438
3954.5	0.0006132
3964.15	0.000575
3973.79	0.0006134
3983.44	0.000439
3993.08	0.0008308
