Infrared Spectrum: Ethyl 4-aminocinnamate
Formula: C 11 H 13 N O 2
CAS: 5048-82-8
State: gas
Origin: EPA-IR VAPOR PHASE LIBRARY
1/CM	ABSORBANCE
549.8	0.005645
559.445	0.006205
569.09	0.005215
578.734	0.004685
588.379	0.004095
598.024	0.004915
607.669	0.004455
617.313	0.005315
626.958	0.007905
636.603	0.010425
646.248	0.016525
655.893	0.023105
665.537	0.021605
675.182	0.017625
684.827	0.014945
694.472	0.014275
704.116	0.013025
713.761	0.011465
723.406	0.010475
733.051	0.008625
742.695	0.007625
752.34	0.007935
761.985	0.008555
771.63	0.008635
781.275	0.009595
790.919	0.010755
800.564	0.013805
810.209	0.022395
819.854	0.029915
829.498	0.024805
839.143	0.015385
848.788	0.011485
858.433	0.009185
868.078	0.007575
877.722	0.008235
887.367	0.008535
897.012	0.007085
906.657	0.005695
916.301	0.005805
925.946	0.006115
935.591	0.007125
945.236	0.008365
954.88	0.009635
964.525	0.013415
974.17	0.019935
983.815	0.017865
993.46	0.011005
1003.1	0.008285
1012.75	0.009105
1022.39	0.013825
1032.04	0.026555
1041.68	0.038565
1051.33	0.032325
1060.97	0.018845
1070.62	0.013685
1080.26	0.014465
1089.91	0.016265
1099.55	0.019965
1109.2	0.018595
1118.84	0.018795
1128.49	0.024145
1138.13	0.033905
1147.78	0.070545
1157.42	0.180795
1167.07	0.202655
1176.71	0.124625
1186.36	0.045365
1196	0.043255
1205.64	0.049985
1215.29	0.034895
1224.93	0.025845
1234.58	0.034495
1244.22	0.062505
1253.87	0.114575
1263.51	0.096555
1273.16	0.055605
1282.8	0.067385
1292.45	0.047375
1302.09	0.054475
1311.74	0.063235
1321.38	0.039345
1331.03	0.024785
1340.67	0.010915
1350.32	0.008185
1359.96	0.010835
1369.61	0.019705
1379.25	0.010705
1388.9	0.009245
1398.54	0.008695
1408.18	0.007305
1417.83	0.007925
1427.47	0.012865
1437.12	0.016205
1446.76	0.008995
1456.41	0.008255
1466.05	0.009705
1475.7	0.009465
1485.34	0.007635
1494.99	0.009185
1504.63	0.024685
1514.28	0.068235
1523.92	0.036475
1533.57	0.010915
1543.21	0.007825
1552.86	0.007365
1562.5	0.008355
1572.15	0.013105
1581.79	0.018255
1591.44	0.028355
1601.08	0.059815
1610.73	0.072405
1620.37	0.110765
1630.01	0.109725
1639.66	0.060735
1649.3	0.022825
1658.95	0.014385
1668.59	0.012675
1678.24	0.012255
1687.88	0.012215
1697.53	0.013825
1707.17	0.020485
1716.82	0.044085
1726.46	0.111995
1736.11	0.136635
1745.75	0.062205
1755.4	0.022455
1765.04	0.010935
1774.69	0.007735
1784.33	0.005775
1793.98	0.004615
1803.62	0.004045
1813.27	0.003305
1822.91	0.002965
1832.55	0.002695
1842.2	0.002765
1851.84	0.002665
1861.49	0.003125
1871.13	0.003415
1880.78	0.003635
1890.42	0.002865
1900.07	0.002415
1909.71	0.002355
1919.36	0.002355
1929	0.002725
1938.65	0.002605
1948.29	0.002455
1957.94	0.002235
1967.58	0.001905
1977.23	0.001775
1986.87	0.001865
1996.52	0.001585
2006.16	0.002065
2015.81	0.002055
2025.45	0.002515
2035.1	0.002175
2044.74	0.002035
2054.38	0.001895
2064.03	0.001955
2073.67	0.001685
2083.32	0.001775
2092.96	0.001815
2102.61	0.001905
2112.25	0.002055
2121.9	0.002165
2131.54	0.001815
2141.19	0.001625
2150.83	0.001455
2160.48	0.001305
2170.12	0.0012025
2179.77	0.001285
2189.41	0.001345
2199.06	0.0010696
2208.7	0.00096
2218.35	0.0011118
2227.99	0.0010548
2237.64	0.0009051
2247.28	0.0011282
2256.92	0.0010295
2266.57	0.001405
2276.21	0.001555
2285.86	0.001455
2295.5	0.001325
2305.15	0.001385
2314.79	0.001295
2324.44	0.001655
2334.08	0.001315
2343.73	0.001375
2353.37	0.0012042
2363.02	0.0012425
2372.66	0.0012139
2382.31	0.0012091
2391.95	0.0012338
2401.6	0.001285
2411.24	0.0009733
2420.89	0.0012211
2430.53	0.001415
2440.18	0.001295
2449.82	0.001455
2459.47	0.001395
2469.11	0.0012309
2478.75	0.0011714
2488.4	0.001255
2498.04	0.0011205
2507.69	0.0009671
2517.33	0.0012123
2526.98	0.001052
2536.62	0.001285
2546.27	0.001355
2555.91	0.001465
2565.56	0.001595
2575.2	0.001325
2584.85	0.001325
2594.49	0.001715
2604.14	0.001825
2613.78	0.001615
2623.43	0.001675
2633.07	0.001535
2642.72	0.001345
2652.36	0.001295
2662.01	0.0011407
2671.65	0.0011847
2681.29	0.0006609
2690.94	0.000911
2700.58	0.0009596
2710.23	0.0009219
2719.87	0.0008777
2729.52	0.0010016
2739.16	0.0011708
2748.81	0.001295
2758.45	0.001375
2768.1	0.001625
2777.74	0.001655
2787.39	0.001695
2797.03	0.001725
2806.68	0.001645
2816.32	0.002045
2825.97	0.001925
2835.61	0.001945
2845.26	0.002185
2854.9	0.002665
2864.55	0.002905
2874.19	0.003925
2883.84	0.005665
2893.48	0.006075
2903.12	0.006965
2912.77	0.008055
2922.41	0.007685
2932.06	0.009305
2941.7	0.013895
2951.35	0.012205
2960.99	0.011735
2970.64	0.015385
2980.28	0.023385
2989.93	0.022895
2999.57	0.016955
3009.22	0.013785
3018.86	0.012215
3028.51	0.015885
3038.15	0.017635
3047.8	0.010205
3057.44	0.009925
3067.09	0.009145
3076.73	0.006125
3086.38	0.004925
3096.02	0.004015
3105.67	0.002715
3115.31	0.001985
3124.95	0.002385
3134.6	0.001605
3144.24	0.002065
3153.89	0.001315
3163.53	0.000995
3173.18	0.0010889
3182.82	0.001255
3192.47	0.001122
3202.11	0.001585
3211.76	0.002375
3221.4	0.001805
3231.05	0.001585
3240.69	0.001515
3250.34	0.0009275
3259.98	0.0009709
3269.63	0.0007255
3279.27	0.0008735
3288.92	0.0007251
3298.56	0.0005044
3308.21	0.0004597
3317.85	0.0010067
3327.49	0.0008817
3337.14	0.0006781
3346.78	0.001265
3356.43	0.0008303
3366.07	0.001415
3375.72	0.001745
3385.36	0.002055
3395.01	0.004115
3404.65	0.007245
3414.3	0.010625
3423.94	0.009335
3433.59	0.007025
3443.23	0.002945
3452.88	0.002535
3462.52	0.002175
3472.17	0.002155
3481.81	0.002825
3491.46	0.003425
3501.1	0.003395
3510.75	0.003625
3520.39	0.002795
3530.04	0.001915
3539.68	0.0010156
3549.32	0.001065
3558.97	0.000735
3568.61	0.0001866
3578.26	0.0005557
3587.9	0.000462
3597.55	0.0002044
3607.19	0.0007055
3616.84	0.0006076
3626.48	0.000254372
3636.13	0.0004599
3645.77	0.0006106
3655.42	0.000126
3665.06	0.00073
3674.71	0.000815
3684.35	0.0007171
3694	0.0005921
3703.64	0.0002655
3713.29	0.0006966
3722.93	0.0004206
3732.58	0.0004486
3742.22	0.0008968
3751.86	0.0005539
3761.51	0.000546
3771.15	0.0003968
3780.8	0.0008119
3790.44	0.0006514
3800.09	0.0007515
3809.73	0.0012204
3819.38	0.0010968
3829.02	0.001161
3838.67	0.0009106
3848.31	0.001505
3857.96	0.001117
3867.6	0.001285
3877.25	0.0008086
3886.89	0.0008719
3896.54	0.0009525
3906.18	0.000793
3915.83	0.0006535
3925.47	0.0005358
3935.12	0.0007958
3944.76	0.0007314
3954.41	0.001051
3964.05	0.0009395
3973.69	0.0007788
3983.34	0.0005595
3992.98	0.0009152
