Infrared Spectrum: 5-Cyano-1-pentene
Formula: C 6 H 9 N
CAS: 5048-19-1
State: gas
Origin: EPA-IR VAPOR PHASE LIBRARY
1/CM	ABSORBANCE
549.8	0.0007424
559.445	0.000461
569.09	0.0006616
578.735	0.000806
588.38	0.000837
598.025	0.000684
607.67	0.0008018
617.315	0.0010617
626.96	0.0011433
636.605	0.0011272
646.251	0.0008898
655.896	0.000865
665.541	0.000822
675.186	0.000685
684.831	0.0007616
694.476	0.0005256
704.121	0.0007063
713.766	0.0007067
723.411	0.00059792
733.056	0.00065123
742.701	0.0007276
752.346	0.00060582
761.991	0.0006856
771.636	0.0006913
781.281	0.0005614
790.926	0.00063403
800.571	0.00059866
810.216	0.0007863
819.861	0.0008209
829.507	0.0009563
839.152	0.0008862
848.797	0.0010308
858.442	0.0009731
868.087	0.0010462
877.732	0.0012361
887.377	0.0015493
897.022	0.002096
906.667	0.003246
916.312	0.004776
925.957	0.005266
935.602	0.003976
945.247	0.002506
954.892	0.001866
964.537	0.001746
974.182	0.002036
983.827	0.002716
993.472	0.002946
1003.12	0.002266
1012.76	0.001716
1022.41	0.0014954
1032.05	0.001179
1041.7	0.0010771
1051.34	0.0009668
1060.99	0.0007658
1070.63	0.000828
1080.28	0.00063669
1089.92	0.00065639
1099.57	0.000577555
1109.21	0.0007401
1118.86	0.0007909
1128.5	0.0006884
1138.15	0.00065562
1147.79	0.0006929
1157.44	0.0007211
1167.08	0.0006915
1176.73	0.0007456
1186.37	0.0009465
1196.02	0.0009286
1205.66	0.0008022
1215.31	0.0009366
1224.95	0.0007134
1234.6	0.0007048
1244.24	0.0007052
1253.89	0.0007076
1263.53	0.0007477
1273.18	0.000938
1282.82	0.0009742
1292.47	0.0009542
1302.11	0.0009992
1311.76	0.0009919
1321.4	0.0011217
1331.05	0.0011484
1340.69	0.0012698
1350.34	0.0012544
1359.98	0.0010741
1369.63	0.0009632
1379.27	0.0008437
1388.92	0.0008615
1398.56	0.0009902
1408.21	0.0012905
1417.85	0.001746
1427.5	0.002426
1437.14	0.003006
1446.79	0.003016
1456.43	0.002506
1466.08	0.001896
1475.73	0.0011754
1485.37	0.000983
1495.02	0.0007768
1504.66	0.0008001
1514.31	0.0006838
1523.95	0.0006899
1533.6	0.0007039
1543.24	0.000721
1552.89	0.000682
1562.53	0.0007677
1572.18	0.00064622
1581.82	0.0007197
1591.47	0.000732
1601.11	0.0007488
1610.76	0.0008453
1620.4	0.0011256
1630.05	0.001746
1639.69	0.002196
1649.34	0.002086
1658.98	0.0012496
1668.63	0.0008321
1678.27	0.0007343
1687.92	0.00063015
1697.56	0.00067502
1707.21	0.00062216
1716.85	0.00059732
1726.5	0.0006196
1736.14	0.00060257
1745.79	0.00061353
1755.43	0.00057158
1765.08	0.0005496
1774.72	0.00059396
1784.37	0.000575808
1794.01	0.00057363
1803.66	0.00058264
1813.3	0.00063908
1822.95	0.0008042
1832.59	0.000978
1842.24	0.0009688
1851.88	0.0009464
1861.53	0.0008152
1871.17	0.0006988
1880.82	0.0006762
1890.46	0.00063408
1900.11	0.00060934
1909.75	0.0005655
1919.4	0.0004823
1929.04	0.00057015
1938.69	0.0005471
1948.33	0.0005596
1957.98	0.000555
1967.62	0.00059578
1977.27	0.00059309
1986.91	0.0005209
1996.56	0.0005485
2006.2	0.0005656
2015.85	0.0005082
2025.49	0.0005121
2035.14	0.0005053
2044.78	0.000464
2054.43	0.000559
2064.07	0.0005507
2073.72	0.0005162
2083.36	0.0005325
2093.01	0.000546
2102.65	0.0005184
2112.3	0.0005461
2121.94	0.0005505
2131.59	0.0005195
2141.23	0.0005075
2150.88	0.0005242
2160.52	0.0005369
2170.17	0.00057294
2179.81	0.0005469
2189.46	0.0005035
2199.1	0.0004882
2208.75	0.0004792
2218.39	0.00060028
2228.04	0.00060874
2237.68	0.000715
2247.33	0.0008878
2256.97	0.0009611
2266.62	0.0007045
2276.26	0.00057369
2285.91	0.00057067
2295.55	0.00057043
2305.2	0.0005004
2314.84	0.0004805
2324.49	0.0004964
2334.13	0.0005333
2343.78	0.0004992
2353.42	0.0004826
2363.07	0.000474
2372.72	0.000462
2382.36	0.000469
2392.01	0.0004922
2401.65	0.000469
2411.3	0.0005163
2420.94	0.000451
2430.59	0.000427
2440.23	0.000465
2449.88	0.000436
2459.52	0.0005112
2469.17	0.0004992
2478.81	0.000463
2488.46	0.0004939
2498.1	0.000467
2507.75	0.000466
2517.39	0.00045
2527.04	0.000459
2536.68	0.0005137
2546.33	0.0004768
2555.97	0.000442
2565.62	0.0005117
2575.26	0.000461
2584.91	0.000442
2594.55	0.00047
2604.2	0.000417
2613.84	0.000408
2623.49	0.0004
2633.13	0.000452
2642.78	0.000426
2652.42	0.000492
2662.07	0.000517
2671.71	0.000388
2681.36	0.0004
2691	0.0005385
2700.65	0.0005389
2710.29	0.000459
2719.94	0.000384
2729.58	0.000414
2739.23	0.000442
2748.87	0.0004824
2758.52	0.000389
2768.16	0.000381
2777.81	0.000438
2787.45	0.0005038
2797.1	0.000522
2806.74	0.000579282
2816.39	0.00066664
2826.03	0.0007641
2835.68	0.0009403
2845.32	0.0014373
2854.97	0.001826
2864.61	0.002116
2874.26	0.002306
2883.9	0.002296
2893.55	0.002376
2903.19	0.002566
2912.84	0.003086
2922.48	0.004176
2932.13	0.005466
2941.77	0.006666
2951.42	0.007356
2961.06	0.006996
2970.71	0.005736
2980.35	0.004206
2990	0.003216
2999.64	0.002706
3009.29	0.002216
3018.93	0.001656
3028.58	0.0012484
3038.22	0.0009824
3047.87	0.000995
3057.51	0.0011958
3067.16	0.001716
3076.8	0.002206
3086.45	0.002876
3096.09	0.002476
3105.74	0.0014357
3115.38	0.0008585
3125.03	0.00057155
3134.67	0.000408
3144.32	0.000356
3153.96	0.00045
3163.61	0.0005323
3173.25	0.00033
3182.9	0.000412
3192.54	0.000158
3202.19	0.000293
3211.83	0.000315
3221.48	0.000347
3231.12	0.000302
3240.77	0.00037
3250.41	0.000358
3260.06	0.000426
3269.7	0.000324
3279.35	0.000357
3289	0.000215
3298.64	0.000266
3308.29	0.000286
3317.93	0.000403
3327.58	0.000278
3337.22	0.000383
3346.87	0.000234
3356.51	0.000123
3366.16	0.000347
3375.8	0.000258
3385.45	0.000216
3395.09	0.000306
3404.74	0.000302
3414.38	0.000332
3424.03	0.000255
3433.67	0.00036
3443.32	0.0003
3452.96	0.000204
3462.61	0.0003
3472.25	0.000221
3481.9	0.000231
3491.54	0.000418
3501.19	0.000268
3510.83	0.000318
3520.48	0.000239
3530.12	0.000312
3539.77	0.000351
3549.41	0.000232
3559.06	0.000285
3568.7	0.000304
3578.35	0.000296
3587.99	0.000305
3597.64	0.000291
3607.28	0.000263
3616.93	0.000282
3626.57	0.000338
3636.22	0.0003
3645.86	0.000292
3655.51	0.000311
3665.15	0.000256
3674.8	0.000336
3684.44	0.000464
3694.09	0.000362
3703.73	0.000268
3713.38	0.000395
3723.02	0.000241
3732.67	0.000322
3742.31	0.000277
3751.96	0.000288
3761.6	0.000166
3771.25	0.000219
3780.89	0.00014
3790.54	0.000104
3800.18	0.000317
3809.83	0.000193
3819.47	0.000299
3829.12	0.00023
3838.76	0.000126
3848.41	0.000273
3858.05	0.000375
3867.7	0.000351
3877.34	0.000394
3886.99	7.8e-05
3896.63	0.000163
3906.28	9.8e-05
3915.92	0.000173
3925.57	0.000315
3935.21	0.000165
3944.86	0.000153
3954.5	0.000279
3964.15	0.000282
3973.79	0.000386
3983.44	4.7e-05
3993.08	0.000267
