Infrared Spectrum: Aminopyrazine
Formula: C 4 H 5 N 3
CAS: 5049-61-6
State: gas
Instrument: HP-GC/MS/IRD
Origin: NIST Mass Spectrometry Data Center
1/CM	ABSORBANCE
550	0.00259
562	0.001826
574	0.001724
586	0.001616
598	0.002186
610	0.002338
622	0.001854
634	0.001452
646	0.00119
658	0.001164
670	0.001218
682	0.001736
694	0.002768
706	0.003472
718	0.003398
730	0.002996
742	0.00294
754	0.002904
766	0.002724
778	0.002258
790	0.001892
802	0.00216
814	0.00319
826	0.004628
838	0.00415
850	0.003068
862	0.00158
874	0.000868
886	0.000542
898	0.000488
910	0.000484
922	0.000524
934	0.000452
946	0.00039
958	0.000322
970	0.000502
982	0.001604
994	0.003466
1006	0.003362
1018	0.00336
1030	0.002642
1042	0.002706
1054	0.003004
1066	0.001834
1078	0.000846
1090	0.00024
1102	0.000124
1114	0.000182
1126	0.000406
1138	0.000618
1150	0.001182
1162	0.0023
1174	0.003622
1186	0.003902
1198	0.002606
1210	0.00111
1222	0.00044
1234	0.000158
1246	3.2e-05
1258	1.2e-05
1270	0.000126
1282	0.000954
1294	0.003042
1306	0.005446
1318	0.00671
1330	0.004682
1342	0.002302
1354	0.000684
1366	0.000534
1378	0.000772
1390	0.00245
1402	0.008762
1414	0.014632
1426	0.015712
1438	0.009002
1450	0.003634
1462	0.00306
1474	0.00334
1486	0.003166
1498	0.001894
1510	0.003608
1522	0.008006
1534	0.009888
1546	0.008198
1558	0.003262
1570	0.0036
1582	0.006282
1594	0.014534
1606	0.019962
1618	0.018302
1630	0.00876
1642	0.002724
1654	0.001086
1666	0.000538
1678	0.000344
1690	0.000276
1702	0.000244
1714	0.000302
1726	0.00036
1738	0.000244
1750	0.000126
1762	4.6e-05
1774	0.0001
1786	0.000178
1798	0.000174
1810	0.000144
1822	7.4e-05
1834	5e-05
1846	5.6e-05
1858	0.000104
1870	0.000146
1882	0.000204
1894	0.000266
1906	0.000256
1918	0.000182
1930	7.2e-05
1942	2.8e-05
1954	4.6e-05
1966	6.4e-05
1978	4.6e-05
1990	7.8e-05
2002	5.4e-05
2014	9.2e-05
2026	0.000106
2038	0.00013
2050	0.000128
2062	0.000164
2074	0.000168
2086	0.000162
2098	0.00014
2110	0.00014
2122	0.00016
2134	0.00012
2146	0.000122
2158	0.000136
2170	0.000162
2182	0.000144
2194	0.000144
2206	0.000174
2218	0.000226
2230	0.000272
2242	0.00029
2254	0.000258
2266	0.00021
2278	0.000158
2290	0.000166
2302	0.000144
2314	0.00019
2326	0.00019
2338	0.000228
2350	0.000246
2362	0.000306
2374	0.000322
2386	0.000258
2398	0.000228
2410	0.000194
2422	0.00018
2434	0.00019
2446	0.000198
2458	0.00024
2470	0.000258
2482	0.000236
2494	0.000212
2506	0.000182
2518	0.000168
2530	0.000146
2542	0.000162
2554	0.00016
2566	0.000198
2578	0.000222
2590	0.00025
2602	0.000296
2614	0.00032
2626	0.000288
2638	0.000282
2650	0.00027
2662	0.000236
2674	0.00023
2686	0.000212
2698	0.000218
2710	0.00022
2722	0.000236
2734	0.000238
2746	0.000238
2758	0.000264
2770	0.00024
2782	0.00023
2794	0.000198
2806	0.00017
2818	0.000144
2830	0.000132
2842	0.000126
2854	0.000172
2866	0.000172
2878	0.000212
2890	0.0002
2902	0.000262
2914	0.000254
2926	0.000278
2938	0.00028
2950	0.00031
2962	0.000384
2974	0.000628
2986	0.001252
2998	0.002154
3010	0.002704
3022	0.002698
3034	0.00226
3046	0.002994
3058	0.004954
3070	0.0052
3082	0.00395
3094	0.00128
3106	0.000538
3118	0.000378
3130	0.000318
3142	0.000304
3154	0.000318
3166	0.000334
3178	0.000376
3190	0.000368
3202	0.000306
3214	0.000284
3226	0.000234
3238	0.00021
3250	0.000216
3262	0.000214
3274	0.000162
3286	0.000166
3298	0.000186
3310	0.000202
3322	0.00018
3334	0.000196
3346	0.000206
3358	0.000234
3370	0.000344
3382	0.000606
3394	0.001506
3406	0.003132
3418	0.004138
3430	0.004136
3442	0.002674
3454	0.00153
3466	0.00071
3478	0.000776
3490	0.00134
3502	0.00221
3514	0.002398
3526	0.002642
3538	0.002164
3550	0.001436
3562	0.000988
3574	0.000472
3586	0.00032
3598	0.000242
3610	0.000226
3622	0.00024
3634	0.000198
3646	0.000194
3658	0.000178
3670	0.000172
3682	0.000198
3694	0.000208
3706	0.000214
3718	0.000214
3730	0.0002
3742	0.000224
3754	0.00019
3766	0.00021
3778	0.00021
3790	0.000286
3802	0.000286
3814	0.000318
3826	0.0003
3838	0.000254
