Infrared Spectrum: Isophytol
Formula: C 20 H 40 O
CAS: 505-32-8
State: gas
Origin: EPA-IR VAPOR PHASE LIBRARY
1/CM	ABSORBANCE
501.5	0.0007711
513.074	0.0007863
524.648	0.0007116
536.222	0.0007103
547.796	0.0007506
559.37	0.0008045
570.944	0.0008222
582.518	0.0007539
594.092	0.0006734
605.666	0.0006688
617.24	0.0005503
628.814	0.0004968
640.388	0.0005811
651.962	0.0006325
663.536	0.0011344
675.11	0.0018444
686.684	0.0025844
698.258	0.0020344
709.832	0.0017644
721.406	0.0019544
732.98	0.0023344
744.554	0.0020344
756.128	0.0015244
767.702	0.0011644
779.276	0.0009491
790.85	0.0009945
802.423	0.0010544
813.997	0.0012144
825.571	0.0014844
837.145	0.0016644
848.719	0.0018744
860.293	0.0019344
871.867	0.0020244
883.441	0.0026744
895.015	0.0045844
906.589	0.0088544
918.163	0.0178744
929.737	0.0139744
941.311	0.0082944
952.885	0.0061244
964.459	0.0053844
976.033	0.0056144
987.607	0.0073844
999.181	0.0080644
1010.76	0.0054044
1022.33	0.0047144
1033.9	0.0047244
1045.48	0.0047844
1057.05	0.0049144
1068.63	0.0052844
1080.2	0.0060444
1091.77	0.0069344
1103.35	0.0075944
1114.92	0.0074844
1126.49	0.0076344
1138.07	0.0087744
1149.64	0.0099144
1161.22	0.0101544
1172.79	0.0091744
1184.36	0.0075844
1195.94	0.0066744
1207.51	0.0062444
1219.09	0.0059244
1230.66	0.0057944
1242.23	0.0059244
1253.81	0.0058944
1265.38	0.0061044
1276.96	0.0067444
1288.53	0.0071144
1300.1	0.0074444
1311.68	0.0079644
1323.25	0.0079344
1334.83	0.0079144
1346.4	0.0082944
1357.97	0.0103144
1369.55	0.0152144
1381.12	0.0185644
1392.7	0.0103344
1404.27	0.0069744
1415.84	0.0073844
1427.42	0.0059344
1438.99	0.0076744
1450.57	0.0130744
1462.14	0.0188444
1473.71	0.0128444
1485.29	0.0052844
1496.86	0.0027744
1508.44	0.0016944
1520.01	0.0011644
1531.58	0.0008629
1543.16	0.0007065
1554.73	0.0006236
1566.31	0.0005818
1577.88	0.0006058
1589.45	0.0006992
1601.03	0.0008305
1612.6	0.0009145
1624.18	0.0011044
1635.75	0.0016244
1647.32	0.0014544
1658.9	0.000859
1670.47	0.000597
1682.05	0.0004512
1693.62	0.0003583
1705.19	0.000255
1716.77	0.0001993
1728.34	0.00011373
1739.92	9.882e-05
1751.49	7.603e-05
1763.06	8.755e-05
1774.64	8.183e-05
1786.21	0.00010446
1797.79	0.00010793
1809.36	0.0001599
1820.93	0.000277
1832.51	0.0005734
1844.08	0.0010244
1855.66	0.0007725
1867.23	0.0003784
1878.8	0.0001991
1890.38	0.0001531
1901.95	0.000127
1913.53	8.732e-05
1925.1	6.045e-05
1936.67	5.015e-05
1948.25	3.776e-05
1959.82	3.854e-05
1971.4	7.916e-05
1982.97	5.951e-05
1994.54	5.676e-05
2006.12	6.233e-05
2017.69	6.265e-05
2029.27	0.00010298
2040.84	0.0001149
2052.41	0.00011428
2063.99	0.00010227
2075.56	9.376e-05
2087.14	0.00011198
2098.71	8.853e-05
2110.28	8.281e-05
2121.86	8.426e-05
2133.43	9.688e-05
2145.01	9.226e-05
2156.58	0.00010603
2168.15	0.0001202
2179.73	0.0001298
2191.3	0.0001256
2202.88	0.0001208
2214.45	9.843e-05
2226.02	9.894e-05
2237.6	0.0001293
2249.17	0.0001204
2260.74	0.000148
2272.32	0.0001901
2283.89	0.0002247
2295.47	0.0002281
2307.04	0.0002446
2318.61	0.000231
2330.19	0.0002269
2341.76	0.0002362
2353.34	0.0002554
2364.91	0.0002394
2376.48	0.0002766
2388.06	0.000283
2399.63	0.0003117
2411.21	0.0003163
2422.78	0.0002806
2434.35	0.0003085
2445.93	0.0002979
2457.5	0.0002968
2469.08	0.0002839
2480.65	0.0002788
2492.22	0.0003509
2503.8	0.0004091
2515.37	0.0004536
2526.95	0.0005148
2538.52	0.000564
2550.09	0.0006419
2561.67	0.0007493
2573.24	0.0008665
2584.82	0.000983
2596.39	0.0011144
2607.96	0.0011844
2619.54	0.0012944
2631.11	0.0013044
2642.69	0.0013444
2654.26	0.0014044
2665.83	0.0014744
2677.41	0.0015644
2688.98	0.0016644
2700.56	0.0018144
2712.13	0.0020144
2723.7	0.0023944
2735.28	0.0025644
2746.85	0.0024944
2758.43	0.0024644
2770	0.0027044
2781.57	0.0031844
2793.15	0.0040144
2804.72	0.0051244
2816.3	0.0067744
2827.87	0.0094544
2839.44	0.0157644
2851.02	0.0339644
2862.59	0.0436244
2874.17	0.0538944
2885.74	0.0541844
2897.31	0.0595844
2908.89	0.0850144
2920.46	0.0994644
2932.04	0.120454
2943.61	0.106914
2955.18	0.101314
2966.76	0.113064
2978.33	0.0552644
2989.91	0.0263544
3001.48	0.0130444
3013.05	0.0093644
3024.63	0.0064544
3036.2	0.0045744
3047.78	0.0038644
3059.35	0.0038044
3070.92	0.0040944
3082.5	0.0050044
3094.07	0.0065844
3105.65	0.0034044
3117.22	0.0021644
3128.79	0.0017844
3140.37	0.0015744
3151.94	0.0014944
3163.52	0.0014144
3175.09	0.0013644
3186.66	0.0012044
3198.24	0.0010344
3209.81	0.0008609
3221.39	0.0006665
3232.96	0.0005338
3244.53	0.000419
3256.11	0.0003441
3267.68	0.0003266
3279.26	0.0003015
3290.83	0.0003111
3302.4	0.0002907
3313.98	0.00025
3325.55	0.0003255
3337.13	0.0004026
3348.7	0.0003721
3360.27	0.0003667
3371.85	0.0003035
3383.42	0.0002782
3395	0.0003089
3406.57	0.0002292
3418.14	0.0002305
3429.72	0.0002154
3441.29	0.0001833
3452.86	0.0001311
3464.44	0.00011252
3476.01	4.883e-05
3487.59	7.944e-05
3499.16	7.705e-05
3510.73	9.55e-06
3522.31	3.013e-05
3533.88	3.211e-05
3545.46	3.208e-05
3557.03	6.692e-05
3568.6	9.417e-05
3580.18	0.0001228
3591.75	0.0001749
3603.33	0.0002915
3614.9	0.0008323
3626.47	0.0023044
3638.05	0.0039744
3649.62	0.0019044
3661.2	0.0007615
3672.77	0.0002639
3684.34	0.0002084
3695.92	0.0002614
3707.49	8.413e-05
3719.07	0.0001706
3730.64	0.0001909
3742.21	0.0001348
3753.79	0.0001606
3765.36	0.0001356
3776.94	0.000229
3788.51	0.0001709
3800.08	0.0002961
3811.66	0.0002852
3823.23	0.0002923
3834.81	0.0003602
3846.38	0.0003123
3857.95	0.0003261
3869.53	0.0002958
3881.1	0.0003071
3892.68	0.0003389
3904.25	0.0003276
3915.82	0.0002296
3927.4	0.0002721
3938.97	0.0002187
3950.55	0.0001814
3962.12	0.0003127
3973.69	0.0001933
3985.27	0.0003041
3996.84	0.0003031
