Infrared Spectrum: 3,3'-IMINODIPROPIONIC ACID
Formula: C6 H11 N O4
CAS: 505-47-5
State: SOLID (MINERAL OIL MULL)
Class: COBLENTZ
Instrument: Not specified, most likely a prism, grating, or hybrid spectrometer.
Sampling: TRANSMISSION
Resolution: 4
Origin: DOW CHEMICAL COMPANY
MICROMETERS	TRANSMITTANCE
2.034	0.873
2.07474	0.88
2.11548	0.882
2.15622	0.888
2.19695	0.88
2.23769	0.868
2.27843	0.863
2.31917	0.872
2.35991	0.882
2.40065	0.892
2.44138	0.898
2.48212	0.914
2.52286	0.922
2.5636	0.922
2.60434	0.927
2.64508	0.93
2.68581	0.93
2.72655	0.934
2.76729	0.925
2.80803	0.915
2.84877	0.893
2.88951	0.873
2.93024	0.865
2.97098	0.872
3.01172	0.85
3.05246	0.813
3.0932	0.744
3.13394	0.643
3.17467	0.531
3.21541	0.432
3.25615	0.372
3.29689	0.351
3.33763	0.257
3.37837	0.057
3.4191	0.031
3.45984	0.052
3.50058	0.079
3.54132	0.21
3.58206	0.244
3.6228	0.252
3.66353	0.244
3.70427	0.25
3.74501	0.255
3.78575	0.232
3.82649	0.215
3.86723	0.21
3.90796	0.22
3.9487	0.234
3.98944	0.232
4.03018	0.235
4.07092	0.244
4.11166	0.252
4.15239	0.271
4.19313	0.289
4.23387	0.335
4.27461	0.415
4.31535	0.523
4.35609	0.56
4.39682	0.592
4.43756	0.627
4.4783	0.659
4.51904	0.681
4.55978	0.7
4.60052	0.72
4.64125	0.744
4.68199	0.754
4.72273	0.765
4.76347	0.774
4.80421	0.787
4.84495	0.794
4.88568	0.792
4.92642	0.789
4.96716	0.789
5.0079	0.797
5.04864	0.799
5.08938	0.797
5.13012	0.794
5.17085	0.787
5.21159	0.769
5.25233	0.752
5.29307	0.739
5.33381	0.728
5.37455	0.74
5.41528	0.777
5.45602	0.806
5.49676	0.833
5.5375	0.838
5.57824	0.821
5.61898	0.786
5.65971	0.749
5.70045	0.705
5.74119	0.604
5.78193	0.476
5.82267	0.267
5.86341	0.08
5.90414	0.161
5.94488	0.356
5.98562	0.442
6.02636	0.417
6.0671	0.276
6.10784	0.095
6.14857	0.092
6.18931	0.257
6.23005	0.34
6.27079	0.281
6.31153	0.173
6.35227	0.111
6.393	0.119
6.43374	0.196
6.47448	0.244
6.51522	0.316
6.55596	0.367
6.5967	0.441
6.63743	0.531
6.67817	0.563
6.71891	0.565
6.75965	0.449
6.80039	0.23
6.84113	0.202
6.88186	0.247
6.9226	0.291
6.96334	0.202
7.00408	0.104
7.04482	0.134
7.08556	0.185
7.12629	0.106
7.16703	0.075
7.20777	0.205
7.24851	0.259
7.28925	0.341
7.32999	0.462
7.37072	0.513
7.41146	0.419
7.4522	0.289
7.49294	0.264
7.53368	0.198
7.57442	0.163
7.61515	0.247
7.65589	0.333
7.69663	0.255
7.73737	0.176
7.77811	0.282
7.81885	0.436
7.85958	0.607
7.90032	0.686
7.94106	0.695
7.9818	0.646
8.02254	0.496
8.06328	0.318
8.10402	0.132
8.14475	0.077
8.18549	0.119
8.22623	0.151
8.26697	0.141
8.30771	0.213
8.34845	0.304
8.38918	0.34
8.42992	0.356
8.47066	0.449
8.5114	0.523
8.55214	0.563
8.59288	0.59
8.63361	0.614
8.67435	0.641
8.71509	0.67
8.75583	0.69
8.79657	0.705
8.83731	0.72
8.87804	0.739
8.91878	0.75
8.95952	0.75
9.00026	0.737
9.041	0.7
9.08174	0.72
9.12247	0.755
9.16321	0.762
9.20395	0.757
9.24469	0.739
9.28543	0.654
9.32617	0.533
9.3669	0.612
9.40764	0.74
9.44838	0.767
9.48912	0.779
9.52986	0.772
9.5706	0.732
9.61133	0.686
9.65207	0.732
9.69281	0.749
9.73355	0.73
9.77429	0.626
9.81503	0.434
9.85576	0.314
9.8965	0.543
9.93724	0.661
9.97798	0.715
10.0187	0.737
10.0595	0.74
10.1002	0.722
10.1409	0.691
10.1817	0.658
10.2224	0.601
10.2631	0.552
10.3039	0.511
10.3446	0.5
10.3854	0.515
10.4261	0.562
10.4668	0.611
10.5076	0.661
10.5483	0.705
10.5891	0.734
10.6298	0.754
10.6705	0.76
10.7113	0.749
10.752	0.723
10.7927	0.68
10.8335	0.611
10.8742	0.569
10.915	0.59
10.9557	0.622
10.9964	0.614
11.0372	0.575
11.0779	0.612
11.1187	0.696
11.1594	0.75
11.2001	0.786
11.2409	0.808
11.2816	0.821
11.3223	0.831
11.3631	0.833
11.4038	0.831
11.4446	0.811
11.4853	0.762
11.526	0.638
11.5668	0.518
11.6075	0.53
11.6483	0.634
11.689	0.68
11.7297	0.648
11.7705	0.574
11.8112	0.516
11.8519	0.523
11.8927	0.585
11.9334	0.671
11.9742	0.734
12.0149	0.772
12.0556	0.797
12.0964	0.811
12.1371	0.814
12.1779	0.811
12.2186	0.797
12.2593	0.759
12.3001	0.7
12.3408	0.575
12.3815	0.466
12.4223	0.383
12.463	0.42
12.5038	0.547
12.5445	0.639
12.5852	0.722
12.626	0.774
12.6667	0.806
12.7074	0.831
12.7482	0.848
12.7889	0.868
12.8297	0.875
12.8704	0.883
12.9111	0.89
12.9519	0.895
12.9926	0.895
13.0334	0.897
13.0741	0.9
13.1148	0.909
13.1556	0.922
13.1963	0.925
13.237	0.929
13.2778	0.93
13.3185	0.934
13.3593	0.936
13.4	0.93
13.4407	0.93
13.4815	0.929
13.5222	0.925
13.563	0.924
13.6037	0.922
13.6444	0.92
13.6852	0.919
13.7259	0.914
13.7666	0.907
13.8074	0.904
13.8481	0.909
13.8889	0.924
13.9296	0.939
13.9703	0.947
14.0111	0.954
14.0518	0.957
14.0926	0.959
14.1333	0.959
14.174	0.957
14.2148	0.954
14.2555	0.947
14.2962	0.937
14.337	0.922
14.3777	0.914
14.4185	0.893
14.4592	0.868
14.4999	0.845
14.5407	0.797
14.5814	0.754
14.6222	0.685
14.6629	0.614
14.7036	0.548
14.7444	0.503
14.7851	0.479
14.8258	0.476
14.8666	0.491
14.9073	0.525
14.9481	0.572
14.9888	0.607
15.0295	0.639
15.0703	0.661
15.111	0.686
15.1518	0.713
15.1925	0.74
15.2332	0.767
15.274	0.786
15.3147	0.799
15.3554	0.816
15.3962	0.828
15.4369	0.838
15.4777	0.843
15.5184	0.846
15.5591	0.848
15.5999	0.85
15.6406	0.851
15.6813	0.851
15.7221	0.853
15.7628	0.851
15.8036	0.848
15.8443	0.845
15.885	0.845
