Infrared Spectrum: Homopiperazine
Formula: C 5 H 12 N 2
CAS: 505-66-8
State: gas
Origin: EPA-IR VAPOR PHASE LIBRARY
1/CM	ABSORBANCE
549.9	0.03161
559.547	0.03152
569.193	0.03116
578.84	0.03069
588.486	0.03157
598.133	0.03383
607.779	0.03756
617.426	0.04246
627.072	0.04816
636.719	0.0532
646.365	0.05773
656.012	0.06187
665.658	0.06595
675.305	0.06864
684.951	0.06876
694.598	0.06617
704.245	0.06099
713.891	0.05365
723.538	0.04346
733.184	0.0346
742.831	0.02822
752.477	0.02474
762.124	0.023
771.77	0.0219
781.417	0.02098
791.063	0.01933
800.71	0.01808
810.356	0.01717
820.003	0.01728
829.649	0.01779
839.296	0.01743
848.943	0.01649
858.589	0.01509
868.236	0.01324
877.882	0.01079
887.529	0.00962
897.175	0.00981
906.822	0.01158
916.468	0.01357
926.115	0.01614
935.761	0.01907
945.408	0.02158
955.054	0.02375
964.701	0.02339
974.347	0.02088
983.994	0.01794
993.64	0.01584
1003.29	0.01466
1012.93	0.0162
1022.58	0.01931
1032.23	0.02157
1041.87	0.01967
1051.52	0.01632
1061.17	0.01277
1070.81	0.01135
1080.46	0.01071
1090.11	0.01036
1099.75	0.01091
1109.4	0.01127
1119.05	0.01232
1128.69	0.01683
1138.34	0.02968
1147.99	0.05611
1157.63	0.08912
1167.28	0.10219
1176.92	0.08959
1186.57	0.05964
1196.22	0.03224
1205.86	0.02173
1215.51	0.01974
1225.16	0.01882
1234.8	0.0173
1244.45	0.0157
1254.1	0.01404
1263.74	0.01287
1273.39	0.012
1283.04	0.01174
1292.68	0.01259
1302.33	0.01526
1311.98	0.02127
1321.62	0.03376
1331.27	0.04935
1340.92	0.0563
1350.56	0.05301
1360.21	0.0401
1369.86	0.02682
1379.5	0.019
1389.15	0.01349
1398.79	0.01106
1408.44	0.01218
1418.09	0.01833
1427.73	0.02753
1437.38	0.03766
1447.03	0.04582
1456.67	0.04807
1466.32	0.04116
1475.97	0.02974
1485.61	0.0184
1495.26	0.01101
1504.91	0.00714
1514.55	0.00521
1524.2	0.00433
1533.85	0.0038207
1543.49	0.0035924
1553.14	0.0032796
1562.79	0.0030836
1572.43	0.0029403
1582.08	0.002843
1591.73	0.002738
1601.37	0.002794
1611.02	0.002702
1620.67	0.002761
1630.31	0.002877
1639.96	0.0029347
1649.6	0.00300804
1659.25	0.00298667
1668.9	0.00303119
1678.54	0.00298813
1688.19	0.002791
1697.84	0.002815
1707.48	0.00264
1717.13	0.002747
1726.78	0.002437
1736.42	0.002433
1746.07	0.002294
1755.72	0.002287
1765.36	0.002078
1775.01	0.002145
1784.66	0.002106
1794.3	0.002237
1803.95	0.002456
1813.6	0.002606
1823.24	0.002711
1832.89	0.002627
1842.54	0.002634
1852.18	0.002562
1861.83	0.002478
1871.47	0.00235
1881.12	0.00215
1890.77	0.002007
1900.41	0.001993
1910.06	0.001979
1919.71	0.002043
1929.35	0.002016
1939	0.001996
1948.65	0.002035
1958.29	0.002004
1967.94	0.002012
1977.59	0.002076
1987.23	0.002097
1996.88	0.002194
2006.53	0.002244
2016.17	0.002271
2025.82	0.002248
2035.47	0.002086
2045.11	0.00191
2054.76	0.00174
2064.41	0.0017
2074.05	0.00161
2083.7	0.00159
2093.35	0.00162
2102.99	0.00164
2112.64	0.00163
2122.28	0.00169
2131.93	0.0017
2141.58	0.0017
2151.22	0.00176
2160.87	0.00186
2170.52	0.001998
2180.16	0.002068
2189.81	0.002019
2199.46	0.002061
2209.1	0.002062
2218.75	0.002013
2228.4	0.002067
2238.04	0.002007
2247.69	0.002045
2257.34	0.001997
2266.98	0.002174
2276.63	0.002209
2286.28	0.002305
2295.92	0.002403
2305.57	0.002352
2315.22	0.00237
2324.86	0.00231
2334.51	0.002243
2344.16	0.002196
2353.8	0.00228
2363.45	0.002235
2373.09	0.002343
2382.74	0.002298
2392.39	0.002261
2402.03	0.002243
2411.68	0.00218
2421.33	0.002187
2430.97	0.002246
2440.62	0.002302
2450.27	0.002343
2459.91	0.002529
2469.56	0.002648
2479.21	0.0029488
2488.85	0.00296455
2498.5	0.00306631
2508.15	0.0030827
2517.79	0.0031989
2527.44	0.003299
2537.09	0.0035158
2546.73	0.0036561
2556.38	0.0039239
2566.03	0.00409
2575.67	0.00436
2585.32	0.00469
2594.96	0.0051
2604.61	0.00557
2614.26	0.00639
2623.9	0.00708
2633.55	0.00825
2643.2	0.00996
2652.84	0.01223
2662.49	0.0151
2672.14	0.01761
2681.78	0.02001
2691.43	0.02161
2701.08	0.02278
2710.72	0.02406
2720.37	0.02651
2730.02	0.03065
2739.66	0.03553
2749.31	0.03852
2758.96	0.03913
2768.6	0.04016
2778.25	0.04581
2787.9	0.05847
2797.54	0.07779
2807.19	0.10097
2816.84	0.12389
2826.48	0.14112
2836.13	0.14614
2845.77	0.14645
2855.42	0.14348
2865.07	0.14203
2874.71	0.14154
2884.36	0.14408
2894.01	0.16246
2903.65	0.20698
2913.3	0.27447
2922.95	0.35533
2932.59	0.38882
2942.24	0.33501
2951.89	0.22485
2961.53	0.11564
2971.18	0.05199
2980.83	0.02655
2990.47	0.01613
3000.12	0.01113
3009.77	0.00791
3019.41	0.00635
3029.06	0.00531
3038.71	0.00433
3048.35	0.0038427
3058	0.0032899
3067.64	0.002866
3077.29	0.002518
3086.94	0.002298
3096.58	0.002031
3106.23	0.00194
3115.88	0.00177
3125.52	0.00196
3135.17	0.0017
3144.82	0.00155
3154.46	0.00141
3164.11	0.00135
3173.76	0.00127
3183.4	0.00146
3193.05	0.00149
3202.7	0.00163
3212.34	0.00156
3221.99	0.00158
3231.64	0.00172
3241.28	0.00165
3250.93	0.00148
3260.58	0.00121
3270.22	0.00124
3279.87	0.00107
3289.52	0.00113
3299.16	0.00077
3308.81	0.00088
3318.45	0.00092
3328.1	0.0008
3337.75	0.00095
3347.39	0.00129
3357.04	0.00124
3366.69	0.00153
3376.33	0.00157
3385.98	0.00171
3395.63	0.00147
3405.27	0.00137
3414.92	0.0009
3424.57	0.00089
3434.21	0.00092
3443.86	0.00101
3453.51	0.00058
3463.15	0.00078
3472.8	0.00067
3482.45	0.00045
3492.09	0.0004
3501.74	0.00043
3511.39	0.00032
3521.03	0.00029
3530.68	0.00034
3540.33	0.00015
3549.97	0
3559.62	0.00015
3569.26	0.00038
3578.91	0.00028
3588.56	0.00039
3598.2	0.00041
3607.85	0.00042
3617.5	0.0004
3627.14	0.00062
3636.79	0.00061
3646.44	0.00063
3656.08	0.0006
3665.73	0.00053
3675.38	0.00077
3685.02	0.00073
3694.67	0.00067
3704.32	0.00082
3713.96	0.00081
3723.61	0.001
3733.26	0.00097
3742.9	0.00093
3752.55	0.00095
3762.2	0.00091
3771.84	0.00088
3781.49	0.00104
3791.13	0.00105
3800.78	0.00119
3810.43	0.00114
3820.07	0.00119
3829.72	0.00126
3839.37	0.00136
3849.01	0.00139
3858.66	0.00141
3868.31	0.00143
3877.95	0.00169
3887.6	0.00158
3897.25	0.00156
3906.89	0.00155
3916.54	0.00165
3926.19	0.00154
3935.83	0.00152
3945.48	0.00144
3955.13	0.00153
3964.77	0.00167
3974.42	0.00168
3984.07	0.00183
3993.71	0.00186
