Infrared Spectrum: 1,11-Undecanedicarboxylic acid
Formula: C 13 H 24 O 4
CAS: 505-52-2
State: gas
Origin: EPA-IR VAPOR PHASE LIBRARY
1/CM	ABSORBANCE
549.8	0.003242
559.445	0.003792
569.09	0.003812
578.734	0.003832
588.379	0.004452
598.024	0.004182
607.669	0.004222
617.313	0.004042
626.958	0.003902
636.603	0.003342
646.248	0.002662
655.893	0.002152
665.537	0.001792
675.182	0.001732
684.827	0.001552
694.472	0.001592
704.116	0.001562
713.761	0.001632
723.406	0.001632
733.051	0.001472
742.695	0.001492
752.34	0.001382
761.985	0.001242
771.63	0.0010093
781.275	0.0006899
790.919	0.000734
800.564	0.0008915
810.209	0.000929
819.854	0.000832
829.498	0.0008071
839.143	0.0008776
848.788	0.0009348
858.433	0.0009464
868.078	0.0009539
877.722	0.000864
887.367	0.0008382
897.012	0.0008602
906.657	0.000781
916.301	0.0007091
925.946	0.0008216
935.591	0.0007926
945.236	0.000846
954.88	0.0010104
964.525	0.0008837
974.17	0.0009372
983.815	0.0010905
993.46	0.0010889
1003.1	0.001292
1012.75	0.001592
1022.39	0.001862
1032.04	0.002272
1041.68	0.002482
1051.33	0.003012
1060.97	0.003922
1070.62	0.005422
1080.26	0.006982
1089.91	0.008352
1099.55	0.008592
1109.2	0.010132
1118.84	0.011592
1128.49	0.011612
1138.13	0.009942
1147.78	0.008222
1157.42	0.006782
1167.07	0.005722
1176.71	0.004912
1186.36	0.004352
1196	0.003942
1205.64	0.003632
1215.29	0.003202
1224.93	0.002722
1234.58	0.002572
1244.22	0.002592
1253.87	0.002492
1263.51	0.002832
1273.16	0.002492
1282.8	0.002412
1292.45	0.002182
1302.09	0.002012
1311.74	0.001872
1321.38	0.001872
1331.03	0.002042
1340.67	0.002372
1350.32	0.002772
1359.96	0.003102
1369.61	0.003402
1379.25	0.003472
1388.9	0.003012
1398.54	0.002172
1408.18	0.001622
1417.83	0.001482
1427.47	0.001642
1437.12	0.001702
1446.76	0.001722
1456.41	0.002072
1466.05	0.001902
1475.7	0.001162
1485.34	0.0006877
1494.99	0.0005254
1504.63	0.0004709
1514.28	0.0004321
1523.92	0.000341
1533.57	0.0003255
1543.21	0.0003674
1552.86	0.0003625
1562.5	0.0004252
1572.15	0.0005228
1581.79	0.0004922
1591.44	0.0003992
1601.08	0.0004563
1610.73	0.000386
1620.37	0.0004068
1630.01	0.0003829
1639.66	0.0003952
1649.3	0.000469
1658.95	0.0004667
1668.59	0.000535
1678.24	0.0006201
1687.88	0.0007453
1697.53	0.000857
1707.17	0.001182
1716.82	0.001742
1726.46	0.002792
1736.11	0.004612
1745.75	0.007222
1755.4	0.010772
1765.04	0.016132
1774.69	0.022282
1784.33	0.019142
1793.98	0.012062
1803.62	0.007382
1813.27	0.003982
1822.91	0.002102
1832.55	0.001262
1842.2	0.0008963
1851.84	0.0007278
1861.49	0.0005769
1871.13	0.0004797
1880.78	0.0004281
1890.42	0.0004296
1900.07	0.0003642
1909.71	0.0003873
1919.36	0.0003768
1929	0.0003469
1938.65	0.0003731
1948.29	0.0003456
1957.94	0.0003151
1967.58	0.0003485
1977.23	0.0003463
1986.87	0.0003337
1996.52	0.0003171
2006.16	0.0003219
2015.81	0.0003332
2025.45	0.0003084
2035.1	0.0003128
2044.74	0.0003035
2054.38	0.0003097
2064.03	0.00023894
2073.67	0.0003151
2083.32	0.0002941
2092.96	0.0002955
2102.61	0.0003211
2112.25	0.0003018
2121.9	0.0002831
2131.54	0.0002906
2141.19	0.00023404
2150.83	0.0003079
2160.48	0.0003181
2170.12	0.00026066
2179.77	0.0003298
2189.41	0.0003057
2199.06	0.00024777
2208.7	0.000301
2218.35	0.0002946
2227.99	0.0003165
2237.64	0.0002834
2247.28	0.0002692
2256.92	0.0002725
2266.57	0.00023904
2276.21	0.0003014
2285.86	0.0002758
2295.5	0.00023886
2305.15	0.00023039
2314.79	0.00023109
2324.44	0.00023035
2334.08	0.00021484
2343.73	0.00021508
2353.37	0.00023377
2363.02	0.0002039
2372.66	0.00022149
2382.31	0.00020912
2391.95	0.0002749
2401.6	0.00024981
2411.24	0.00026186
2420.89	0.00024696
2430.53	0.0003003
2440.18	0.00020974
2449.82	0.000268
2459.47	0.00019817
2469.11	0.00020161
2478.75	0.00024116
2488.4	0.00018078
2498.04	0.00017438
2507.69	0.00018213
2517.33	0.00023867
2526.98	0.00023701
2536.62	0.00024432
2546.27	0.00021093
2555.91	0.0002778
2565.56	0.0001167
2575.2	0.00023266
2584.85	0.000168986
2594.49	0.00021832
2604.14	0.0002908
2613.78	0.00018855
2623.43	0.00019236
2633.07	0.00020637
2642.72	0.00021972
2652.36	0.00025514
2662.01	0.00022561
2671.65	0.0002956
2681.29	0.00024239
2690.94	0.00021817
2700.58	0.0002982
2710.23	0.00018698
2719.87	0.00025208
2729.52	0.0002798
2739.16	0.0002711
2748.81	0.00023996
2758.45	0.0003371
2768.1	0.0002802
2777.74	0.0002872
2787.39	0.0003369
2797.03	0.0003775
2806.68	0.0004635
2816.32	0.0003868
2825.97	0.0006973
2835.61	0.0009387
2845.26	0.001532
2854.9	0.003012
2864.55	0.005152
2874.19	0.004312
2883.84	0.002972
2893.48	0.002602
2903.12	0.003342
2912.77	0.005192
2922.41	0.008492
2932.06	0.012222
2941.7	0.012322
2951.35	0.009062
2960.99	0.005572
2970.64	0.003252
2980.28	0.002272
2989.93	0.001522
2999.57	0.000962
3009.22	0.0007158
3018.86	0.0004883
3028.51	0.0003842
3038.15	0.0003672
3047.8	0.0002936
3057.44	0.0003022
3067.09	0.00019048
3076.73	0.0002831
3086.38	0.00019803
3096.02	0.00017329
3105.67	0.00019005
3115.31	6.39e-05
3124.95	0.000167611
3134.6	0.00020025
3144.24	0.0001502
3153.89	0.00022034
3163.53	0.00022937
3173.18	0.00025423
3182.82	0.000166991
3192.47	0.00020826
3202.11	0.0002767
3211.76	0.00020661
3221.4	0.00015676
3231.05	0.0001206
3240.69	0.0001215
3250.34	0.00021967
3259.98	9.4e-05
3269.63	0.00023243
3279.27	0.00019046
3288.92	0.00021742
3298.56	0.00018351
3308.21	0.00021702
3317.85	0.0002772
3327.49	0.00015328
3337.14	0.0001005
3346.78	0.0003234
3356.43	0.00015921
3366.07	0.00019814
3375.72	0.00023416
3385.36	0.00025217
3395.01	0.0002807
3404.65	0.00023491
3414.3	0.00018216
3423.94	0.0002947
3433.59	0.00021707
3443.23	0.0003152
3452.88	0.0002666
3462.52	0.0003553
3472.17	0.0002951
3481.81	0.00029
3491.46	0.0003868
3501.1	0.00022714
3510.75	0.000465
3520.39	0.0003913
3530.04	0.000692
3539.68	0.0006891
3549.32	0.0011242
3558.97	0.002262
3568.61	0.005972
3578.26	0.008772
3587.9	0.002662
3597.55	0.001101
3607.19	0.0005937
3616.84	0.0005042
3626.48	0.0003079
3636.13	0.0004752
3645.77	0.00020706
3655.42	0.0001397
3665.06	0.0002907
3674.71	0.0002865
3684.35	0.000168411
3694	0.00022765
3703.64	6.7e-05
3713.29	0.00019089
3722.93	0.00025157
3732.58	0.00019737
3742.22	0.0002856
3751.86	0.00020067
3761.51	0.000170738
3771.15	0.00015322
3780.8	0.000166472
3790.44	8.64e-05
3800.09	0.0003025
3809.73	0.0001144
3819.38	0.0001162
3829.02	0.0002697
3838.67	0.0002785
3848.31	0.000165712
3857.96	8.47e-05
3867.6	0.000166398
3877.25	0.00019651
3886.89	6.97e-05
3896.54	0.0002644
3906.18	0.00023659
3915.83	0.0003181
3925.47	9.49e-05
3935.12	0.00018541
3944.76	0.0001265
3954.41	7.29e-05
3964.05	0.000168421
3973.69	0.0001501
3983.34	0.0001442
3992.98	0
