Infrared Spectrum: 2-HEXENAL
Formula: C6 H10 O
CAS: 505-57-7
State: SOLUTION (10% IN CCl4 FOR 4000-1330 CM^-^1, 10% IN CS2 FOR 1330-600 CM^-^1)
Class: COBLENTZ III
Instrument: BECKMAN IR-7 (GRATING)
Instrument parameters: GRATING CHANGES AT 3000, 2200, 1150 CM^-^1
Sampling: TRANSMISSION
Path length: .011 CM, .010 CM
Resolution: 4
Origin: WESTERN REGIONAL RES. USDA
1/CM	TRANSMITTANCE
598.675	0.782
607.288	0.819
615.902	0.837
624.515	0.842
633.128	0.837
641.742	0.817
650.355	0.782
658.968	0.795
667.582	0.815
676.195	0.815
684.808	0.827
693.422	0.831
702.035	0.829
710.648	0.821
719.262	0.832
727.875	0.817
736.489	0.784
745.102	0.795
753.715	0.815
762.329	0.786
770.942	0.812
779.555	0.803
788.169	0.775
796.782	0.768
805.395	0.816
814.009	0.83
822.622	0.832
831.235	0.814
839.849	0.776
848.462	0.701
857.075	0.664
865.689	0.658
874.302	0.66
882.915	0.692
891.529	0.742
900.142	0.794
908.755	0.801
917.369	0.795
925.982	0.782
934.595	0.755
943.209	0.726
951.822	0.654
960.435	0.4691
969.049	0.055
977.662	0.226
986.276	0.512
994.889	0.584
1003.5	0.508
1012.12	0.626
1020.73	0.726
1029.34	0.7
1037.96	0.55
1046.57	0.501
1055.18	0.6139
1063.8	0.681
1072.41	0.695
1081.02	0.6271
1089.64	0.357
1098.25	0.36
1106.86	0.578
1115.48	0.613
1124.09	0.553
1132.7	0.33
1141.32	0.203
1149.93	0.136
1158.54	0.339
1167.16	0.571
1175.77	0.644
1184.38	0.671
1193	0.687
1201.61	0.692
1210.22	0.704
1218.84	0.699
1227.45	0.683
1236.06	0.654
1244.68	0.623
1253.29	0.599
1261.9	0.664
1270.52	0.7
1279.13	0.664
1287.74	0.692
1296.36	0.664
1304.97	0.645
1313.58	0.725
1322.2	0.8
1330.81	0.811
1339.42	0.728
1348.04	0.82
1356.65	0.864
1365.26	0.854
1373.88	0.8
1382.49	0.625
1391.1	0.755
1399.72	0.776
1408.33	0.765
1416.94	0.671
1425.56	0.644
1434.17	0.625
1442.78	0.674
1451.4	0.61
1460.01	0.416
1468.62	0.549
1477.24	0.801
1485.85	0.848
1494.46	0.841
1503.08	0.805
1511.69	0.766
1520.3	0.73
1528.92	0.685
1537.53	0.605
1546.14	0.528
1554.76	0.523
1563.37	0.585
1571.98	0.64
1580.6	0.644
1589.21	0.656
1597.82	0.7
1606.44	0.728
1615.05	0.691
1623.66	0.504
1632.28	0.446
1640.89	0.205
1649.5	0.353
1658.12	0.343
1666.73	0.403
1675.34	0.248
1683.96	0.021
1692.57	0.002
1701.18	0.002
1709.8	0.115
1718.41	0.295
1727.02	0.392
1735.64	0.5
1744.25	0.659
1752.86	0.759
1761.48	0.796
1770.09	0.806
1778.7	0.81
1787.32	0.815
1795.93	0.819
1804.54	0.823
1813.16	0.827
1821.77	0.832
1830.38	0.833
1839	0.833
1847.61	0.827
1856.22	0.831
1864.84	0.833
1873.45	0.835
1882.06	0.843
1890.68	0.842
1899.29	0.849
1907.9	0.854
1916.52	0.856
1925.13	0.858
1933.74	0.858
1942.36	0.858
1950.97	0.856
1959.58	0.855
1968.2	0.854
1976.81	0.852
1985.42	0.849
1994.04	0.852
2002.65	0.847
2011.26	0.8407
2019.88	0.8395
2028.49	0.838
2037.1	0.838
2045.72	0.839
2054.33	0.8406
2062.94	0.842
2071.56	0.844
2080.17	0.8455
2088.78	0.8477
2097.4	0.851
2106.01	0.853
2114.62	0.854
2123.24	0.856
2131.85	0.858
2140.46	0.8583
2149.08	0.8554
2157.69	0.854
2166.3	0.8542
2174.92	0.8575
2183.53	0.858
2192.14	0.857
2200.76	0.8544
2209.37	0.8463
2217.98	0.842
2226.6	0.844
2235.21	0.8467
2243.82	0.8553
2252.44	0.8589
2261.05	0.859
2269.66	0.8571
2278.28	0.854
2286.89	0.853
2295.5	0.852
2304.12	0.85
2312.73	0.8472
2321.34	0.844
2329.96	0.8426
2338.57	0.842
2347.18	0.8429
2355.8	0.845
2364.41	0.846
2373.02	0.8477
2381.64	0.848
2390.25	0.849
2398.86	0.85
2407.48	0.851
2416.09	0.852
2424.7	0.852
2433.32	0.8527
2441.93	0.853
2450.54	0.854
2459.16	0.853
2467.77	0.853
2476.38	0.852
2485	0.8517
2493.61	0.8504
2502.22	0.85
2510.84	0.8489
2519.45	0.846
2528.06	0.8407
2536.68	0.835
2545.29	0.834
2553.9	0.833
2562.52	0.8305
2571.13	0.823
2579.74	0.8197
2588.36	0.8184
2596.97	0.817
2605.58	0.815
2614.2	0.814
2622.81	0.8123
2631.42	0.8081
2640.04	0.8046
2648.65	0.8
2657.26	0.798
2665.88	0.7909
2674.49	0.7806
2683.1	0.7613
2691.72	0.7271
2700.33	0.7179
2708.94	0.6287
2717.56	0.5476
2726.17	0.4647
2734.78	0.4828
2743.4	0.5393
2752.01	0.6001
2760.62	0.6675
2769.24	0.7379
2777.85	0.7556
2786.46	0.7516
2795.08	0.6279
2803.69	0.4473
2812.3	0.3337
2820.92	0.4038
2829.53	0.4499
2838.14	0.4967
2846.76	0.5255
2855.37	0.5076
2863.98	0.434
2872.6	0.2198
2881.21	0.2962
2889.82	0.4095
2898.44	0.4256
2907.05	0.3945
2915.66	0.3323
2924.28	0.1407
2932.89	0.1073
2941.5	0.1918
2950.12	0.2269
2958.73	0.056
2967.34	0.0802
2975.96	0.1897
2984.57	0.2519
2993.18	0.335
3001.8	0.4487
3010.41	0.6323
3019.02	0.702
3027.64	0.6995
3036.25	0.689
3044.86	0.7047
3053.48	0.7483
3062.09	0.7552
3070.7	0.7644
3079.32	0.7683
3087.93	0.774
3096.54	0.776
3105.16	0.779
3113.77	0.782
3122.39	0.784
3131	0.785
3139.61	0.787
3148.23	0.788
3156.84	0.7896
3165.45	0.79
3174.07	0.791
3182.68	0.792
3191.29	0.792
3199.91	0.793
3208.52	0.794
3217.13	0.794
3225.75	0.794
3234.36	0.795
3242.97	0.795
3251.59	0.795
3260.2	0.794
3268.81	0.794
3277.43	0.794
3286.04	0.793
3294.65	0.793
3303.27	0.7918
3311.88	0.79
3320.49	0.7829
3329.11	0.778
3337.72	0.777
3346.33	0.777
3354.95	0.7703
3363.56	0.7337
3372.17	0.7204
3380.79	0.7479
3389.4	0.7678
3398.01	0.7945
3406.63	0.8055
3415.24	0.8098
3423.85	0.811
3432.47	0.811
3441.08	0.8116
3449.69	0.813
3458.31	0.815
3466.92	0.815
3475.53	0.815
3484.15	0.814
3492.76	0.813
3501.37	0.813
3509.99	0.812
3518.6	0.8119
3527.21	0.811
3535.83	0.812
3544.44	0.813
3553.05	0.8163
3561.67	0.8263
3570.28	0.8327
3578.89	0.838
3587.51	0.8422
3596.12	0.847
3604.73	0.8516
3613.35	0.8551
3621.96	0.8583
3630.57	0.8616
3639.19	0.8659
3647.8	0.866
3656.41	0.862
3665.03	0.8583
3673.64	0.8491
3682.25	0.838
3690.87	0.84
3699.48	0.8506
3708.09	0.8601
3716.71	0.8653
3725.32	0.869
3733.93	0.871
3742.55	0.871
3751.16	0.871
3759.77	0.871
3768.39	0.871
3777	0.873
3785.61	0.8735
3794.23	0.873
3802.84	0.8679
3811.45	0.8677
3820.07	0.8716
3828.68	0.8729
3837.29	0.8732
3845.91	0.8746
3854.52	0.874
3863.13	0.873
3871.75	0.873
3880.36	0.872
3888.97	0.871
3897.59	0.872
3906.2	0.8716
3914.81	0.871
3923.43	0.871
3932.04	0.869
3940.65	0.869
3949.27	0.8673
3957.88	0.867
3966.49	0.866
3975.11	0.8655
3983.72	0.8642
