Infrared Spectrum: 5-Methoxybenzofuran-2-carboxylic acid, ethyl ester
Formula: C 12 H 12 O 4
CAS: 50551-56-9
State: gas
Origin: EPA-IR VAPOR PHASE LIBRARY
1/CM	ABSORBANCE
549.8	0.005431
559.445	0.004291
569.09	0.002571
578.734	0.001711
588.379	0.001531
598.024	0.001561
607.669	0.002961
617.313	0.004591
626.958	0.005091
636.603	0.004141
646.248	0.002581
655.893	0.001511
665.537	0.001641
675.182	0.001701
684.827	0.001771
694.472	0.002141
704.116	0.002851
713.761	0.003851
723.406	0.007461
733.051	0.016501
742.695	0.030171
752.34	0.053101
761.985	0.043451
771.63	0.030361
781.275	0.016601
790.919	0.021801
800.564	0.039451
810.209	0.045531
819.854	0.033881
829.498	0.030181
839.143	0.044471
848.788	0.052461
858.433	0.042201
868.078	0.030981
877.722	0.014411
887.367	0.007081
897.012	0.005441
906.657	0.005321
916.301	0.006061
925.946	0.010191
935.591	0.018241
945.236	0.024581
954.88	0.020861
964.525	0.011451
974.17	0.009661
983.815	0.011501
993.46	0.015791
1003.1	0.026301
1012.75	0.051461
1022.39	0.082051
1032.04	0.077901
1041.68	0.048961
1051.33	0.027881
1060.97	0.022911
1070.62	0.033141
1080.26	0.077761
1089.91	0.165781
1099.55	0.204481
1109.2	0.083391
1118.84	0.040361
1128.49	0.036951
1138.13	0.061601
1147.78	0.129661
1157.42	0.149171
1167.07	0.145891
1176.71	0.292711
1186.36	0.344531
1196	0.235671
1205.64	0.391761
1215.29	0.446371
1224.93	0.446271
1234.58	0.352701
1244.22	0.140531
1253.87	0.070981
1263.51	0.073451
1273.16	0.071061
1282.8	0.098491
1292.45	0.162951
1302.09	0.236831
1311.74	0.184101
1321.38	0.109211
1331.03	0.078531
1340.67	0.073791
1350.32	0.044211
1359.96	0.037051
1369.61	0.072091
1379.25	0.042591
1388.9	0.025351
1398.54	0.024381
1408.18	0.020761
1417.83	0.021871
1427.47	0.034261
1437.12	0.070761
1446.76	0.077341
1456.41	0.067711
1466.05	0.095461
1475.7	0.113811
1485.34	0.044751
1494.99	0.020281
1504.63	0.014561
1514.28	0.012501
1523.92	0.014641
1533.57	0.018911
1543.21	0.031971
1552.86	0.079661
1562.5	0.166761
1572.15	0.195881
1581.79	0.090211
1591.44	0.038391
1601.08	0.029901
1610.73	0.029841
1620.37	0.028371
1630.01	0.022281
1639.66	0.015681
1649.3	0.012771
1658.95	0.011811
1668.59	0.011461
1678.24	0.011741
1687.88	0.014091
1697.53	0.017971
1707.17	0.023841
1716.82	0.041051
1726.46	0.105431
1736.11	0.254251
1745.75	0.227601
1755.4	0.263161
1765.04	0.126991
1774.69	0.035341
1784.33	0.017011
1793.98	0.013251
1803.62	0.012401
1813.27	0.011561
1822.91	0.010091
1832.55	0.008641
1842.2	0.007661
1851.84	0.007611
1861.49	0.007791
1871.13	0.006751
1880.78	0.005291
1890.42	0.004411
1900.07	0.003861
1909.71	0.003511
1919.36	0.003281
1929	0.003281
1938.65	0.003581
1948.29	0.003951
1957.94	0.004101
1967.58	0.003781
1977.23	0.003081
1986.87	0.002641
1996.52	0.002451
2006.16	0.002681
2015.81	0.003201
2025.45	0.003761
2035.1	0.004471
2044.74	0.005261
2054.38	0.005231
2064.03	0.004661
2073.67	0.003881
2083.32	0.003051
2092.96	0.002631
2102.61	0.002361
2112.25	0.002261
2121.9	0.002181
2131.54	0.002281
2141.19	0.002411
2150.83	0.002341
2160.48	0.002321
2170.12	0.002411
2179.77	0.002451
2189.41	0.002271
2199.06	0.002111
2208.7	0.002071
2218.35	0.002541
2227.99	0.002711
2237.64	0.002851
2247.28	0.002541
2256.92	0.002221
2266.57	0.001881
2276.21	0.001631
2285.86	0.001461
2295.5	0.001671
2305.15	0.001881
2314.79	0.002141
2324.44	0.002051
2334.08	0.001961
2343.73	0.001901
2353.37	0.001891
2363.02	0.001971
2372.66	0.001991
2382.31	0.002081
2391.95	0.002171
2401.6	0.002431
2411.24	0.002571
2420.89	0.002381
2430.53	0.002071
2440.18	0.001951
2449.82	0.001801
2459.47	0.001741
2469.11	0.001851
2478.75	0.002011
2488.4	0.002191
2498.04	0.002341
2507.69	0.002241
2517.33	0.002021
2526.98	0.001811
2536.62	0.001881
2546.27	0.002081
2555.91	0.002361
2565.56	0.002521
2575.2	0.002091
2584.85	0.002021
2594.49	0.001991
2604.14	0.001791
2613.78	0.001851
2623.43	0.001801
2633.07	0.001641
2642.72	0.001651
2652.36	0.001541
2662.01	0.001631
2671.65	0.001831
2681.29	0.001801
2690.94	0.001821
2700.58	0.001711
2710.23	0.001791
2719.87	0.001761
2729.52	0.002071
2739.16	0.002311
2748.81	0.002571
2758.45	0.002831
2768.1	0.003151
2777.74	0.003661
2787.39	0.004051
2797.03	0.004551
2806.68	0.005901
2816.32	0.008201
2825.97	0.011861
2835.61	0.022091
2845.26	0.027201
2854.9	0.017211
2864.55	0.015241
2874.19	0.017591
2883.84	0.022381
2893.48	0.024691
2903.12	0.027551
2912.77	0.032531
2922.41	0.034581
2932.06	0.041101
2941.7	0.061281
2951.35	0.060921
2960.99	0.048621
2970.64	0.046591
2980.28	0.058731
2989.93	0.068271
2999.57	0.056931
3009.22	0.055611
3018.86	0.026141
3028.51	0.015621
3038.15	0.012121
3047.8	0.010011
3057.44	0.008931
3067.09	0.009221
3076.73	0.011221
3086.38	0.011181
3096.02	0.008591
3105.67	0.006721
3115.31	0.004241
3124.95	0.003071
3134.6	0.002741
3144.24	0.002661
3153.89	0.002231
3163.53	0.001821
3173.18	0.001901
3182.82	0.001651
3192.47	0.001471
3202.11	0.0013492
3211.76	0.0010487
3221.4	0.000984
3231.05	0.0008844
3240.69	0.0006563
3250.34	0.0005522
3259.98	0.0003656
3269.63	0.0003395
3279.27	0.00037898
3288.92	0.0005375
3298.56	0.0007662
3308.21	0.0013346
3317.85	0.0013428
3327.49	0.0009004
3337.14	0.0005389
3346.78	0.00043616
3356.43	0.00045603
3366.07	0.0005707
3375.72	0.0007573
3385.36	0.0005939
3395.01	0.000387793
3404.65	0.00046301
3414.3	0.0004857
3423.94	0.0004855
3433.59	0.0007274
3443.23	0.0013616
3452.88	0.002241
3462.52	0.001911
3472.17	0.001441
3481.81	0.001501
3491.46	0.002001
3501.1	0.001641
3510.75	0.0010108
3520.39	0.0005368
3530.04	0.000388699
3539.68	0.00043838
3549.32	0.00039232
3558.97	0.000205
3568.61	0.000106
3578.26	0.0002983
3587.9	4.5e-05
3597.55	0.000279
3607.19	0.000227
3616.84	0.000159
3626.48	0.000251
3636.13	0.000253
3645.77	0.000164
3655.42	0.000169
3665.06	0.000257
3674.71	0.00025
3684.35	0.0003557
3694	0.00017
3703.64	3.5e-05
3713.29	0.000218
3722.93	0.0003217
3732.58	0.0003023
3742.22	0.000277
3751.86	0.00044051
3761.51	0.000294
3771.15	0.000245
3780.8	0.000236
3790.44	0.00019
3800.09	0.0005158
3809.73	0.00044831
3819.38	0.0004844
3829.02	0.000594
3838.67	0.0004799
3848.31	0.0005061
3857.96	0.0006976
3867.6	0.0005388
3877.25	0.0007538
3886.89	0.0006623
3896.54	0.000387296
3906.18	0.00047664
3915.83	0.00039252
3925.47	0.000636
3935.12	0.00046521
3944.76	0.0007038
3954.41	0.000611
3964.05	0.0008271
3973.69	0.0007355
3983.34	0.0007895
3992.98	0.0008447
