Infrared Spectrum: 7-Methoxybenzofuran-2-carboxylic acid, ethyl ester
Formula: C 12 H 12 O 4
CAS: 50551-58-1
State: gas
Origin: EPA-IR VAPOR PHASE LIBRARY
1/CM	ABSORBANCE
549.8	0.001842
559.445	0.0014754
569.09	0.0009482
578.734	0.00061452
588.379	0.000252
598.024	0.00060585
607.669	0.0008418
617.313	0.0012437
626.958	0.0011071
636.603	0.0008049
646.248	0.00064012
655.893	0.0007412
665.537	0.0007427
675.182	0.001343
684.827	0.002082
694.472	0.002852
704.116	0.003412
713.761	0.005542
723.406	0.023462
733.051	0.031792
742.695	0.009622
752.34	0.005092
761.985	0.006902
771.63	0.010142
781.275	0.018572
790.919	0.012252
800.564	0.005782
810.209	0.005162
819.854	0.006522
829.498	0.012002
839.143	0.017272
848.788	0.014682
858.433	0.015212
868.078	0.010272
877.722	0.004552
887.367	0.002612
897.012	0.002242
906.657	0.002302
916.301	0.002722
925.946	0.004042
935.591	0.010392
945.236	0.016362
954.88	0.009532
964.525	0.006392
974.17	0.009412
983.815	0.012552
993.46	0.009202
1003.1	0.009802
1012.75	0.016412
1022.39	0.019452
1032.04	0.014012
1041.68	0.014272
1051.33	0.017122
1060.97	0.018142
1070.62	0.031252
1080.26	0.058752
1089.91	0.081242
1099.55	0.087162
1109.2	0.051212
1118.84	0.020352
1128.49	0.014252
1138.13	0.014752
1147.78	0.017962
1157.42	0.030482
1167.07	0.073172
1176.71	0.182312
1186.36	0.189822
1196	0.118332
1205.64	0.067172
1215.29	0.045332
1224.93	0.044992
1234.58	0.029222
1244.22	0.018822
1253.87	0.026932
1263.51	0.063422
1273.16	0.082922
1282.8	0.103172
1292.45	0.154442
1302.09	0.117462
1311.74	0.059752
1321.38	0.051552
1331.03	0.046372
1340.67	0.032632
1350.32	0.020002
1359.96	0.016862
1369.61	0.028592
1379.25	0.019182
1388.9	0.010882
1398.54	0.009882
1408.18	0.009302
1417.83	0.012332
1427.47	0.014892
1437.12	0.012402
1446.76	0.013562
1456.41	0.014712
1466.05	0.017082
1475.7	0.021492
1485.34	0.039672
1494.99	0.042922
1504.63	0.017282
1514.28	0.008112
1523.92	0.006092
1533.57	0.005902
1543.21	0.007372
1552.86	0.010502
1562.5	0.022932
1572.15	0.046772
1581.79	0.060042
1591.44	0.052332
1601.08	0.036542
1610.73	0.020692
1620.37	0.014712
1630.01	0.009192
1639.66	0.006252
1649.3	0.005252
1658.95	0.004992
1668.59	0.005272
1678.24	0.005442
1687.88	0.005852
1697.53	0.007682
1707.17	0.009682
1716.82	0.014522
1726.46	0.033832
1736.11	0.107402
1745.75	0.108342
1755.4	0.101482
1765.04	0.055662
1774.69	0.015112
1784.33	0.008382
1793.98	0.006892
1803.62	0.006002
1813.27	0.004992
1822.91	0.004382
1832.55	0.003462
1842.2	0.002492
1851.84	0.002142
1861.49	0.002122
1871.13	0.002312
1880.78	0.002632
1890.42	0.003252
1900.07	0.003232
1909.71	0.002152
1919.36	0.001572
1929	0.0015687
1938.65	0.001792
1948.29	0.002252
1957.94	0.002382
1967.58	0.002152
1977.23	0.001782
1986.87	0.0014369
1996.52	0.0012526
2006.16	0.0013295
2015.81	0.0014236
2025.45	0.001582
2035.1	0.001632
2044.74	0.001752
2054.38	0.002012
2064.03	0.002132
2073.67	0.001992
2083.32	0.001822
2092.96	0.0014956
2102.61	0.0013337
2112.25	0.0012297
2121.9	0.0012544
2131.54	0.0010921
2141.19	0.0011062
2150.83	0.0011373
2160.48	0.001198
2170.12	0.0011667
2179.77	0.0011629
2189.41	0.0011391
2199.06	0.0011451
2208.7	0.0011045
2218.35	0.0011922
2227.99	0.0011763
2237.64	0.0012476
2247.28	0.0013712
2256.92	0.0013691
2266.57	0.0013158
2276.21	0.0012155
2285.86	0.0012155
2295.5	0.0010068
2305.15	0.0010719
2314.79	0.00102
2324.44	0.0009812
2334.08	0.0010361
2343.73	0.0010088
2353.37	0.0009294
2363.02	0.0009854
2372.66	0.0010541
2382.31	0.0011032
2391.95	0.0010714
2401.6	0.0011515
2411.24	0.0010308
2420.89	0.0009748
2430.53	0.000969
2440.18	0.0008807
2449.82	0.0010788
2459.47	0.0010927
2469.11	0.0012568
2478.75	0.0012647
2488.4	0.0011193
2498.04	0.001119
2507.69	0.0011764
2517.33	0.0011931
2526.98	0.0013571
2536.62	0.0014479
2546.27	0.001173
2555.91	0.0010319
2565.56	0.0009184
2575.2	0.0009839
2584.85	0.0009905
2594.49	0.001059
2604.14	0.0009343
2613.78	0.0010615
2623.43	0.0009562
2633.07	0.0010768
2642.72	0.0010702
2652.36	0.0011241
2662.01	0.0009835
2671.65	0.0011099
2681.29	0.0011866
2690.94	0.0012397
2700.58	0.0010935
2710.23	0.0010274
2719.87	0.0010992
2729.52	0.0011185
2739.16	0.001319
2748.81	0.0013271
2758.45	0.0013155
2768.1	0.0014506
2777.74	0.001572
2787.39	0.001682
2797.03	0.001952
2806.68	0.002442
2816.32	0.002962
2825.97	0.003592
2835.61	0.005322
2845.26	0.009262
2854.9	0.009712
2864.55	0.006612
2874.19	0.006212
2883.84	0.007542
2893.48	0.008402
2903.12	0.010062
2912.77	0.012432
2922.41	0.012792
2932.06	0.014722
2941.7	0.022582
2951.35	0.024122
2960.99	0.020372
2970.64	0.021122
2980.28	0.025592
2989.93	0.028222
2999.57	0.020922
3009.22	0.018562
3018.86	0.013792
3028.51	0.008342
3038.15	0.006742
3047.8	0.007152
3057.44	0.007692
3067.09	0.009392
3076.73	0.013662
3086.38	0.008892
3096.02	0.003942
3105.67	0.002662
3115.31	0.001912
3124.95	0.001582
3134.6	0.0012442
3144.24	0.0012651
3153.89	0.001005
3163.53	0.0011418
3173.18	0.0012085
3182.82	0.0008342
3192.47	0.0008091
3202.11	0.0007392
3211.76	0.00057792
3221.4	0.000472
3231.05	0.0007362
3240.69	0.000401
3250.34	0.0005339
3259.98	0.000436
3269.63	0.000403
3279.27	0.000355
3288.92	0.000299
3298.56	0.000364
3308.21	0.0005441
3317.85	0.00066427
3327.49	0.0006968
3337.14	0.000574118
3346.78	0.000574456
3356.43	0.0004
3366.07	0.000444
3375.72	0.000348
3385.36	0.0004737
3395.01	0.000448
3404.65	0.00032
3414.3	0.000279
3423.94	0.00042
3433.59	0.00038
3443.23	0.00059335
3452.88	0.0010699
3462.52	0.0009726
3472.17	0.00063914
3481.81	0.0009225
3491.46	0.0011291
3501.1	0.0008697
3510.75	0.00065839
3520.39	0.000453
3530.04	0.000326
3539.68	0.000256
3549.32	0.000159
3558.97	0.000196
3568.61	0.000263
3578.26	0.000301
3587.9	0.00028
3597.55	0.000246
3607.19	0.00013
3616.84	0.000156
3626.48	0.000406
3636.13	0.000316
3645.77	7.4e-05
3655.42	0.000239
3665.06	0.000284
3674.71	0.000448
3684.35	0.00036
3694	0.000248
3703.64	0.0005553
3713.29	0.000236
3722.93	0.000288
3732.58	0.000217
3742.22	0.000249
3751.86	0.000324
3761.51	0.000198
3771.15	0.000243
3780.8	0.000136
3790.44	0.000165
3800.09	0.000446
3809.73	0.000458
3819.38	0.000291
3829.02	0.000138
3838.67	0.000425
3848.31	0.000418
3857.96	0.000393
3867.6	0.00034
3877.25	0.0004857
3886.89	0.00048
3896.54	0.000437
3906.18	0.00056796
3915.83	0.000317
3925.47	0.0005388
3935.12	0.000298
3944.76	0.00045
3954.41	0.000395
3964.05	0.0005528
3973.69	0.000258
3983.34	0.000432
3992.98	0.000436
