Infrared Spectrum: 5-Methyl-5-hexen-2-ol
Formula: C 7 H 14 O
CAS: 50551-88-7
State: gas
Instrument: HP-GC/MS/IRD
Origin: NIST Mass Spectrometry Data Center
1/CM	ABSORBANCE
550	0.0006846
562	0.0005586
574	0.0003486
586	0.0003668
598	0.000203
610	0.0002198
622	0.0001512
634	4.76e-05
646	3.92e-05
658	0.0001162
670	0.0001064
682	0.000161
694	0.0001162
706	5.46e-05
718	0.0001092
730	0.0001148
742	0.0001428
754	0.0001512
766	0.0002212
778	0.000175
790	0.0003864
802	0.0003332
814	0.000441
826	0.0005278
838	0.000714
850	0.001169
862	0.0017766
874	0.0034314
886	0.0065394
898	0.0067032
910	0.003794
922	0.0024668
934	0.0026292
946	0.0027944
958	0.0024864
970	0.0018564
982	0.0015414
994	0.0017094
1006	0.0021294
1018	0.002345
1030	0.0024682
1042	0.0028294
1054	0.0033754
1066	0.0037842
1078	0.0042812
1090	0.0050582
1102	0.0056504
1114	0.0055076
1126	0.0045486
1138	0.0031234
1150	0.0020776
1162	0.0016744
1174	0.0016772
1186	0.0019208
1198	0.0020034
1210	0.0021196
1222	0.0025004
1234	0.0029526
1246	0.0031724
1258	0.0029568
1270	0.0025732
1282	0.002247
1294	0.0018634
1306	0.0016016
1318	0.0015736
1330	0.0018032
1342	0.0022148
1354	0.0029092
1366	0.0041986
1378	0.0056924
1390	0.0049812
1402	0.0031486
1414	0.002268
1426	0.0023548
1438	0.0031514
1450	0.0038626
1462	0.0033432
1474	0.0020706
1486	0.0011172
1498	0.0006636
1510	0.0004928
1522	0.0003738
1534	0.0003234
1546	0.000308
1558	0.0003556
1570	0.0003682
1582	0.0004088
1594	0.0004592
1606	0.0006104
1618	0.0008904
1630	0.0015736
1642	0.002555
1654	0.0025004
1666	0.00126
1678	0.0005138
1690	0.0002632
1702	0.0002058
1714	0.0001624
1726	0.0001204
1738	0.000119
1750	0.0001232
1762	0.0001694
1774	0.000343
1786	0.0004452
1798	0.0003906
1810	0.0002058
1822	0.0001302
1834	9.52e-05
1846	6.72e-05
1858	4.2e-05
1870	4.48e-05
1882	5.32e-05
1894	3.92e-05
1906	5.18e-05
1918	3.92e-05
1930	4.34e-05
1942	2.1e-05
1954	1.12e-05
1966	2.38e-05
1978	4.48e-05
1990	3.08e-05
2002	3.5e-05
2014	3.08e-05
2026	4.34e-05
2038	3.22e-05
2050	4.34e-05
2062	2.94e-05
2074	1.26e-05
2086	8.4e-06
2098	3.92e-05
2110	1.26e-05
2122	1.96e-05
2134	2.38e-05
2146	2.52e-05
2158	2.94e-05
2170	3.64e-05
2182	2.66e-05
2194	2.24e-05
2206	5.46e-05
2218	2.38e-05
2230	3.64e-05
2242	3.22e-05
2254	4.06e-05
2266	3.78e-05
2278	4.76e-05
2290	4.34e-05
2302	6.58e-05
2314	6.86e-05
2326	0.0001008
2338	0.0001092
2350	8.4e-05
2362	0.0001568
2374	0.0001106
2386	7.7e-05
2398	7.7e-05
2410	6.72e-05
2422	6.3e-05
2434	6.16e-05
2446	5.32e-05
2458	9.1e-05
2470	4.62e-05
2482	6.16e-05
2494	7.7e-05
2506	6.72e-05
2518	7.28e-05
2530	7.84e-05
2542	6.86e-05
2554	0.0001036
2566	7.14e-05
2578	9.8e-05
2590	0.0001036
2602	0.0001428
2614	0.0001652
2626	0.0002072
2638	0.0002366
2650	0.0002772
2662	0.000266
2674	0.0002828
2686	0.0002898
2698	0.000301
2710	0.000301
2722	0.0003696
2734	0.0004144
2746	0.0004844
2758	0.0004718
2770	0.0005082
2782	0.000581
2794	0.0007406
2806	0.0009212
2818	0.0012376
2830	0.0018018
2842	0.002884
2854	0.0043596
2866	0.005796
2878	0.0067914
2890	0.0073318
2902	0.0082012
2914	0.0102074
2926	0.0128506
2938	0.014
2950	0.0123662
2962	0.0116284
2974	0.0136402
2986	0.0107548
2998	0.0049672
3010	0.002394
3022	0.001512
3034	0.0011746
3046	0.0011466
3058	0.0015778
3070	0.0029554
3082	0.00385
3094	0.0023926
3106	0.0009128
3118	0.0005124
3130	0.0003738
3142	0.0003052
3154	0.0002002
3166	0.0001904
3178	0.0001862
3190	0.0001778
3202	0.0001246
3214	0.0001484
3226	6.44e-05
3238	3.5e-05
3250	6.72e-05
3262	6.02e-05
3274	1.54e-05
3286	3.36e-05
3298	6.02e-05
3310	4.76e-05
3322	2.8e-05
3334	8.12e-05
3346	8.26e-05
3358	8.12e-05
3370	3.08e-05
3382	7.98e-05
3394	0.00014
3406	0.000119
3418	0.000119
3430	0.0001344
3442	0.0001456
3454	0.0001484
3466	0.0001162
3478	0.0001106
3490	0.000154
3502	0.000105
3514	0.0001106
3526	9.24e-05
3538	6.86e-05
3550	0.00014
3562	0.0001246
3574	0.0001344
3586	0.0002282
3598	0.0003836
3610	0.000665
3622	0.0008694
3634	0.0011018
3646	0.00161
3658	0.0017416
3670	0.0010696
3682	0.0004438
3694	0.000245
3706	0.0001736
3718	0.0001386
3730	0.0001148
3742	0.0001596
3754	0.0001232
3766	0.0001148
3778	7.42e-05
3790	7.84e-05
3802	0.0001848
3814	0.0001414
3826	0.000182
3838	0.0001764
