Infrared Spectrum: TRANS-1,2-CYCLOPENTANEDIOL
Formula: C5 H10 O2
CAS: 5057-99-8
State: SOLID (NUJOL MULL)
Class: COBLENTZ
Instrument: Not specified, most likely a prism, grating, or hybrid spectrometer.
Sampling: TRANSMISSION
Resolution: 4
Origin: TENNESSEE EASTMAN COMPANY, RESEARCH LABORATORIES
MICROMETERS	TRANSMITTANCE
2.015	0.945
2.05605	0.936
2.09709	0.929
2.13814	0.927
2.17919	0.927
2.22024	0.926
2.26128	0.917
2.30233	0.902
2.34338	0.9
2.38442	0.9
2.42547	0.9
2.46652	0.9
2.50757	0.888
2.54861	0.89
2.58966	0.893
2.63071	0.893
2.67175	0.89
2.7128	0.879
2.75385	0.837
2.7949	0.727
2.83594	0.584
2.87699	0.377
2.91804	0.217
2.95908	0.169
3.00013	0.154
3.04118	0.15
3.08222	0.15
3.12327	0.15
3.16432	0.162
3.20537	0.259
3.24641	0.385
3.28746	0.512
3.32851	0.547
3.36955	0.301
3.4106	0.058
3.45165	0.085
3.4927	0.18
3.53374	0.408
3.57479	0.593
3.61584	0.656
3.65688	0.672
3.69793	0.68
3.73898	0.684
3.78003	0.694
3.82107	0.723
3.86212	0.744
3.90317	0.765
3.94421	0.78
3.98526	0.799
4.02631	0.804
4.06736	0.813
4.1084	0.821
4.14945	0.835
4.1905	0.842
4.23154	0.854
4.27259	0.881
4.31364	0.881
4.35469	0.873
4.39573	0.867
4.43678	0.869
4.47783	0.869
4.51887	0.869
4.55992	0.869
4.60097	0.869
4.64202	0.871
4.68306	0.871
4.72411	0.871
4.76516	0.873
4.8062	0.873
4.84725	0.874
4.8883	0.874
4.92934	0.876
4.97039	0.878
5.01144	0.878
5.05249	0.876
5.09353	0.876
5.13458	0.878
5.17563	0.876
5.21667	0.876
5.25772	0.878
5.29877	0.878
5.33982	0.878
5.38086	0.878
5.42191	0.876
5.46296	0.876
5.504	0.876
5.54505	0.876
5.5861	0.876
5.62715	0.874
5.66819	0.871
5.70924	0.869
5.75029	0.855
5.79133	0.821
5.83238	0.813
5.87343	0.797
5.91448	0.801
5.95552	0.814
5.99657	0.814
6.03762	0.802
6.07866	0.806
6.11971	0.802
6.16076	0.804
6.20181	0.813
6.24285	0.813
6.2839	0.811
6.32495	0.813
6.36599	0.819
6.40704	0.819
6.44809	0.813
6.48914	0.802
6.53018	0.792
6.57123	0.778
6.61228	0.749
6.65332	0.716
6.69437	0.674
6.73542	0.584
6.77646	0.473
6.81751	0.353
6.85856	0.336
6.89961	0.303
6.94065	0.312
6.9817	0.336
7.02275	0.373
7.06379	0.387
7.10484	0.406
7.14589	0.433
7.18694	0.452
7.22798	0.445
7.26903	0.421
7.31008	0.421
7.35112	0.425
7.39217	0.411
7.43322	0.384
7.47427	0.382
7.51531	0.384
7.55636	0.416
7.59741	0.425
7.63845	0.425
7.6795	0.403
7.72055	0.392
7.7616	0.399
7.80264	0.425
7.84369	0.444
7.88474	0.459
7.92578	0.464
7.96683	0.468
8.00788	0.478
8.04893	0.502
8.08997	0.507
8.13102	0.521
8.17207	0.533
8.21311	0.538
8.25416	0.53
8.29521	0.514
8.33626	0.509
8.3773	0.504
8.41835	0.504
8.4594	0.504
8.50044	0.504
8.54149	0.507
8.58254	0.511
8.62358	0.514
8.66463	0.514
8.70568	0.533
8.74673	0.566
8.78777	0.578
8.82882	0.567
8.86987	0.514
8.91091	0.447
8.95196	0.377
8.99301	0.336
9.03406	0.31
9.0751	0.276
9.11615	0.214
9.1572	0.147
9.19824	0.12
9.23929	0.12
9.28034	0.152
9.32139	0.202
9.36243	0.234
9.40348	0.245
9.44453	0.262
9.48557	0.301
9.52662	0.312
9.56767	0.276
9.60872	0.219
9.64976	0.198
9.69081	0.253
9.73186	0.348
9.7729	0.427
9.81395	0.454
9.855	0.469
9.89605	0.507
9.93709	0.518
9.97814	0.531
10.0192	0.543
10.0602	0.533
10.1013	0.483
10.1423	0.363
10.1834	0.255
10.2244	0.162
10.2655	0.133
10.3065	0.13
10.3476	0.168
10.3886	0.289
10.4297	0.418
10.4707	0.506
10.5118	0.535
10.5528	0.572
10.5938	0.576
10.6349	0.584
10.6759	0.591
10.717	0.605
10.758	0.619
10.7991	0.624
10.8401	0.631
10.8812	0.65
10.9222	0.66
10.9633	0.663
11.0043	0.668
11.0454	0.67
11.0864	0.672
11.1275	0.672
11.1685	0.651
11.2096	0.634
11.2506	0.62
11.2916	0.61
11.3327	0.574
11.3737	0.519
11.4148	0.493
11.4558	0.506
11.4969	0.574
11.5379	0.643
11.579	0.68
11.62	0.696
11.6611	0.701
11.7021	0.701
11.7432	0.701
11.7842	0.698
11.8253	0.694
11.8663	0.689
11.9074	0.682
11.9484	0.679
11.9894	0.674
12.0305	0.663
12.0715	0.658
12.1126	0.653
12.1536	0.65
12.1947	0.644
12.2357	0.639
12.2768	0.632
12.3178	0.627
12.3589	0.624
12.3999	0.622
12.441	0.62
12.482	0.617
12.5231	0.614
12.5641	0.614
12.6052	0.612
12.6462	0.605
12.6872	0.602
12.7283	0.602
12.7693	0.595
12.8104	0.59
12.8514	0.584
12.8925	0.579
12.9335	0.572
12.9746	0.569
13.0156	0.566
13.0567	0.56
13.0977	0.555
13.1388	0.552
13.1798	0.548
13.2209	0.543
13.2619	0.53
13.303	0.521
13.344	0.519
13.385	0.519
13.4261	0.514
13.4671	0.512
13.5082	0.509
13.5492	0.504
13.5903	0.502
13.6313	0.5
13.6724	0.499
13.7134	0.493
13.7545	0.485
13.7955	0.475
13.8366	0.475
13.8776	0.471
13.9187	0.464
13.9597	0.464
14.0008	0.463
14.0418	0.459
14.0829	0.457
14.1239	0.452
14.1649	0.452
14.206	0.447
14.247	0.444
14.2881	0.444
14.3291	0.444
14.3702	0.439
14.4112	0.435
14.4523	0.432
14.4933	0.43
14.5344	0.427
14.5754	0.423
14.6165	0.42
14.6575	0.418
14.6986	0.415
14.7396	0.413
14.7807	0.415
14.8217	0.413
14.8627	0.411
14.9038	0.409
14.9448	0.406
14.9859	0.409
15.0269	0.408
15.068	0.406
15.109	0.403
15.1501	0.401
15.1911	0.401
15.2322	0.401
15.2732	0.399
15.3143	0.399
15.3553	0.399
15.3964	0.399
15.4374	0.401
15.4785	0.401
15.5195	0.401
15.5605	0.401
15.6016	0.403
15.6426	0.403
15.6837	0.406
15.7247	0.409
15.7658	0.416
15.8068	0.418
15.8479	0.42
15.8889	0.428
15.93	0.437
15.971	0.444
