Infrared Spectrum: 3-Iodo-4-methoxytoluene
Formula: C 8 H 9 I O
CAS: 50597-88-1
State: gas
Origin: EPA-IR VAPOR PHASE LIBRARY
1/CM	ABSORBANCE
549.8	0.005702
559.445	0.005082
569.09	0.003362
578.734	0.002712
588.379	0.001962
598.024	0.001322
607.669	0.0011168
617.313	0.0009297
626.958	0.0008075
636.603	0.0008667
646.248	0.001312
655.893	0.004282
665.537	0.007902
675.182	0.002572
684.827	0.0006757
694.472	0.001088
704.116	0.001712
713.761	0.003852
723.406	0.010602
733.051	0.012902
742.695	0.006482
752.34	0.003262
761.985	0.002262
771.63	0.002012
781.275	0.003632
790.919	0.010202
800.564	0.022062
810.209	0.021452
819.854	0.012702
829.498	0.006962
839.143	0.006802
848.788	0.008492
858.433	0.006802
868.078	0.007002
877.722	0.004982
887.367	0.002202
897.012	0.001362
906.657	0.0012292
916.301	0.001352
925.946	0.001532
935.591	0.001792
945.236	0.001872
954.88	0.002362
964.525	0.003262
974.17	0.004882
983.815	0.007302
993.46	0.009762
1003.1	0.014052
1012.75	0.024382
1022.39	0.027792
1032.04	0.023682
1041.68	0.037792
1051.33	0.047292
1060.97	0.035572
1070.62	0.015362
1080.26	0.006782
1089.91	0.004102
1099.55	0.002832
1109.2	0.002762
1118.84	0.003382
1128.49	0.005522
1138.13	0.009332
1147.78	0.011302
1157.42	0.007902
1167.07	0.005872
1176.71	0.007832
1186.36	0.008392
1196	0.007842
1205.64	0.011492
1215.29	0.012732
1224.93	0.015252
1234.58	0.032632
1244.22	0.072062
1253.87	0.089602
1263.51	0.070612
1273.16	0.068002
1282.8	0.052542
1292.45	0.027352
1302.09	0.010772
1311.74	0.005762
1321.38	0.004092
1331.03	0.003262
1340.67	0.003172
1350.32	0.003292
1359.96	0.003362
1369.61	0.004022
1379.25	0.006352
1388.9	0.008492
1398.54	0.008102
1408.18	0.008082
1417.83	0.009802
1427.47	0.012782
1437.12	0.018452
1446.76	0.020862
1456.41	0.020502
1466.05	0.029782
1475.7	0.055322
1485.34	0.117912
1494.99	0.108592
1504.63	0.036162
1514.28	0.015212
1523.92	0.008582
1533.57	0.006222
1543.21	0.005402
1552.86	0.005842
1562.5	0.006442
1572.15	0.006162
1581.79	0.007332
1591.44	0.010932
1601.08	0.011742
1610.73	0.007412
1620.37	0.003062
1630.01	0.001942
1639.66	0.001542
1649.3	0.001372
1658.95	0.0011131
1668.59	0.0010615
1678.24	0.0010707
1687.88	0.0012786
1697.53	0.001392
1707.17	0.001482
1716.82	0.001752
1726.46	0.002322
1736.11	0.002692
1745.75	0.002192
1755.4	0.001472
1765.04	0.0011527
1774.69	0.0010271
1784.33	0.0011256
1793.98	0.001432
1803.62	0.001662
1813.27	0.001223
1822.91	0.0008552
1832.55	0.0008264
1842.2	0.0011909
1851.84	0.001772
1861.49	0.001992
1871.13	0.001782
1880.78	0.001372
1890.42	0.0008886
1900.07	0.0008459
1909.71	0.0008593
1919.36	0.0007407
1929	0.0007835
1938.65	0.0007549
1948.29	0.0007996
1957.94	0.0010969
1967.58	0.001602
1977.23	0.002072
1986.87	0.002172
1996.52	0.002072
2006.16	0.002132
2015.81	0.001872
2025.45	0.001662
2035.1	0.001432
2044.74	0.001362
2054.38	0.0012606
2064.03	0.0012586
2073.67	0.001292
2083.32	0.001372
2092.96	0.001322
2102.61	0.001402
2112.25	0.001312
2121.9	0.0011619
2131.54	0.0009016
2141.19	0.0006986
2150.83	0.000609
2160.48	0.0004153
2170.12	0.0004531
2179.77	0.0005486
2189.41	0.0005818
2199.06	0.0005482
2208.7	0.0007702
2218.35	0.0007813
2227.99	0.000792
2237.64	0.0006826
2247.28	0.0006092
2256.92	0.0006149
2266.57	0.0006001
2276.21	0.0006523
2285.86	0.0007229
2295.5	0.000867
2305.15	0.0008728
2314.79	0.0008448
2324.44	0.0009216
2334.08	0.0009253
2343.73	0.0008021
2353.37	0.0006429
2363.02	0.0006391
2372.66	0.0005301
2382.31	0.0004193
2391.95	0.0004935
2401.6	0.0005582
2411.24	0.0005032
2420.89	0.0006525
2430.53	0.0006902
2440.18	0.000523
2449.82	0.0005775
2459.47	0.0007177
2469.11	0.0007567
2478.75	0.0009164
2488.4	0.0010304
2498.04	0.0012871
2507.69	0.001492
2517.33	0.001722
2526.98	0.001832
2536.62	0.001792
2546.27	0.001372
2555.91	0.0010864
2565.56	0.0010315
2575.2	0.0009672
2584.85	0.001003
2594.49	0.000917
2604.14	0.00096
2613.78	0.0008359
2623.43	0.0007891
2633.07	0.0007673
2642.72	0.0007222
2652.36	0.0006898
2662.01	0.0005396
2671.65	0.0006323
2681.29	0.0005101
2690.94	0.0007426
2700.58	0.0006463
2710.23	0.0007216
2719.87	0.0008788
2729.52	0.0010387
2739.16	0.001612
2748.81	0.001812
2758.45	0.001552
2768.1	0.001332
2777.74	0.001542
2787.39	0.001652
2797.03	0.002042
2806.68	0.002912
2816.32	0.004332
2825.97	0.006542
2835.61	0.012242
2845.26	0.017152
2854.9	0.014632
2864.55	0.012462
2874.19	0.013812
2883.84	0.015032
2893.48	0.015942
2903.12	0.017822
2912.77	0.020002
2922.41	0.024502
2932.06	0.034392
2941.7	0.040062
2951.35	0.033712
2960.99	0.024752
2970.64	0.016922
2980.28	0.012932
2989.93	0.013552
2999.57	0.018162
3009.22	0.023562
3018.86	0.019802
3028.51	0.016542
3038.15	0.017252
3047.8	0.013332
3057.44	0.008892
3067.09	0.009392
3076.73	0.009332
3086.38	0.006902
3096.02	0.004802
3105.67	0.003372
3115.31	0.002322
3124.95	0.001782
3134.6	0.001372
3144.24	0.0011123
3153.89	0.0011297
3163.53	0.0009703
3173.18	0.0007753
3182.82	0.0007049
3192.47	0.0006274
3202.11	0.0007575
3211.76	0.0005643
3221.4	0.0005643
3231.05	0.0004667
3240.69	0.00031598
3250.34	0.00033843
3259.98	0.0004683
3269.63	0.0002259
3279.27	0.0004094
3288.92	0.00029039
3298.56	0.000119
3308.21	0.000153
3317.85	0.0002681
3327.49	0.000442
3337.14	0.0005135
3346.78	0.0003979
3356.43	0.00028799
3366.07	0.0002011
3375.72	0.0006632
3385.36	0.0003964
3395.01	0.0004181
3404.65	0.00030502
3414.3	0.0002489
3423.94	0.0002112
3433.59	0.00035565
3443.23	0.000191
3452.88	0.0004299
3462.52	0.000184
3472.17	0.0004367
3481.81	0.00033531
3491.46	0.00029053
3501.1	0.00038412
3510.75	0.0003272
3520.39	0.0004101
3530.04	8.2e-05
3539.68	0.00036506
3549.32	0.0002213
3558.97	0.0004615
3568.61	0.0005449
3578.26	0.00033297
3587.9	0.000298539
3597.55	0.0004997
3607.19	0.000123
3616.84	0.000224
3626.48	0.00032174
3636.13	0.000131
3645.77	0.0002433
3655.42	0.00038957
3665.06	0.00035144
3674.71	0.0002745
3684.35	0.00036565
3694	0.0004118
3703.64	0.0002099
3713.29	0.00038394
3722.93	0.0004244
3732.58	0.0005907
3742.22	0.000256
3751.86	0.0006056
3761.51	0.0004485
3771.15	0.00037346
3780.8	0.0005431
3790.44	0.0002811
3800.09	0.00031706
3809.73	0.0004959
3819.38	0.000291248
3829.02	0.0004199
3838.67	0.0004366
3848.31	0.000300324
3857.96	0.0005226
3867.6	0.0005929
3877.25	0.0004053
3886.89	0.0004721
3896.54	0.0006953
3906.18	0.0005459
3915.83	0.0004482
3925.47	0.0007674
3935.12	0.0005823
3944.76	0.0007038
3954.41	0.0005951
3964.05	0.0006817
3973.69	0.000498
3983.34	0.0005925
3992.98	0.000465
