Infrared Spectrum: DIMETHYLAMINE HYDROCHLORIDE
Formula: C2 H8 Cl N
CAS: 506-59-2
State: SOLID (KBr DISC)
Class: COBLENTZ III
Instrument: BECKMAN IR-4 (HYBRID PRISM-GRATING)
Sampling: TRANSMISSION
Resolution: 4
Origin: UNIVERSITY OF FLORIDA
MICROMETERS	TRANSMITTANCE
0.978	0.101
1.01469	0.113
1.05138	0.122
1.08808	0.128
1.12477	0.13
1.16146	0.133
1.19815	0.137
1.23485	0.141
1.27154	0.148
1.30823	0.155
1.34492	0.161
1.38162	0.168
1.41831	0.175
1.455	0.18
1.49169	0.186
1.52839	0.19
1.56508	0.197
1.60177	0.204
1.63846	0.21
1.67516	0.216
1.71185	0.22
1.74854	0.227
1.78523	0.233
1.82193	0.246
1.85862	0.251
1.89531	0.246
1.932	0.255
1.9687	0.26
2.00539	0.266
2.04208	0.269
2.07877	0.271
2.11547	0.275
2.15216	0.272
2.18885	0.273
2.22554	0.291
2.26224	0.295
2.29893	0.311
2.33562	0.324
2.37231	0.333
2.40901	0.337
2.4457	0.336
2.48239	0.347
2.51908	0.357
2.55578	0.363
2.59247	0.37
2.62916	0.367
2.66585	0.364
2.70255	0.359
2.73924	0.351
2.77593	0.338
2.81262	0.324
2.84932	0.31
2.88601	0.308
2.9227	0.309
2.95939	0.311
2.99609	0.306
3.03278	0.296
3.06947	0.267
3.10616	0.214
3.14286	0.159
3.17955	0.126
3.21624	0.061
3.25293	0.015
3.28963	0.006
3.32632	0.002
3.36301	0
3.3997	0.003
3.4364	0.01
3.47309	0.01
3.50978	0.007
3.54647	0.002
3.58317	0.001
3.61986	0.011
3.65655	0.047
3.69324	0.083
3.72994	0.124
3.76663	0.163
3.80332	0.206
3.84001	0.233
3.87671	0.265
3.9134	0.271
3.95009	0.258
3.98678	0.256
4.02348	0.24
4.06017	0.139
4.09686	0.078
4.13355	0.178
4.17024	0.305
4.20694	0.417
4.24363	0.427
4.28032	0.433
4.31701	0.437
4.35371	0.446
4.3904	0.467
4.42709	0.478
4.46378	0.49
4.50048	0.501
4.53717	0.511
4.57386	0.515
4.61055	0.517
4.64725	0.508
4.68394	0.483
4.72063	0.493
4.75732	0.518
4.79402	0.537
4.83071	0.55
4.8674	0.564
4.90409	0.573
4.94079	0.576
4.97748	0.581
5.01417	0.59
5.05086	0.596
5.08756	0.598
5.12425	0.594
5.16094	0.586
5.19763	0.577
5.23433	0.576
5.27102	0.595
5.30771	0.599
5.3444	0.604
5.3811	0.605
5.41779	0.598
5.45448	0.586
5.49117	0.57
5.52787	0.513
5.56456	0.496
5.60125	0.506
5.63794	0.509
5.67464	0.501
5.71133	0.475
5.74802	0.476
5.78471	0.496
5.82141	0.514
5.8581	0.529
5.89479	0.53
5.93148	0.533
5.96818	0.53
6.00487	0.515
6.04156	0.489
6.07825	0.477
6.11495	0.477
6.15164	0.477
6.18833	0.475
6.22502	0.437
6.26172	0.303
6.29841	0.269
6.3351	0.433
6.37179	0.448
6.40849	0.447
6.44518	0.452
6.48187	0.453
6.51856	0.46
6.55526	0.447
6.59195	0.447
6.62864	0.434
6.66533	0.387
6.70203	0.282
6.73872	0.163
6.77541	0.094
6.8121	0.149
6.8488	0.327
6.88549	0.373
6.92218	0.384
6.95887	0.318
6.99557	0.343
7.03226	0.402
7.06895	0.383
7.10564	0.333
7.14234	0.428
7.17903	0.468
7.21572	0.483
7.25241	0.489
7.28911	0.495
7.3258	0.513
7.36249	0.526
7.39918	0.533
7.43587	0.541
7.47257	0.549
7.50926	0.558
7.54595	0.577
7.58264	0.594
7.61934	0.607
7.65603	0.613
7.69272	0.623
7.72941	0.626
7.76611	0.637
7.8028	0.637
7.83949	0.616
7.87618	0.554
7.91288	0.42
7.94957	0.382
7.98626	0.492
8.02295	0.587
8.05965	0.598
8.09634	0.508
8.13303	0.594
8.16972	0.651
8.20642	0.657
8.24311	0.661
8.2798	0.666
8.31649	0.67
8.35319	0.672
8.38988	0.677
8.42657	0.684
8.46326	0.686
8.49996	0.689
8.53665	0.686
8.57334	0.69
8.61003	0.692
8.64673	0.691
8.68342	0.688
8.72011	0.684
8.7568	0.688
8.7935	0.688
8.83019	0.69
8.86688	0.692
8.90357	0.691
8.94027	0.686
8.97696	0.679
9.01365	0.671
9.05034	0.671
9.08704	0.679
9.12373	0.68
9.16042	0.67
9.19711	0.629
9.23381	0.588
9.2705	0.626
9.30719	0.654
9.34388	0.657
9.38058	0.66
9.41727	0.657
9.45396	0.653
9.49065	0.65
9.52735	0.64
9.56404	0.618
9.60073	0.59
9.63742	0.591
9.67412	0.541
9.71081	0.354
9.7475	0.098
9.78419	0.107
9.82089	0.28
9.85758	0.412
9.89427	0.531
9.93096	0.587
9.96766	0.621
10.0043	0.64
10.041	0.653
10.0777	0.664
10.1144	0.671
10.1511	0.679
10.1878	0.684
10.2245	0.687
10.2612	0.689
10.2979	0.694
10.3346	0.698
10.3713	0.703
10.408	0.712
10.4447	0.716
10.4814	0.724
10.518	0.729
10.5547	0.734
10.5914	0.728
10.6281	0.726
10.6648	0.726
10.7015	0.724
10.7382	0.722
10.7749	0.718
10.8116	0.712
10.8483	0.709
10.885	0.698
10.9217	0.692
10.9584	0.687
10.995	0.685
11.0317	0.679
11.0684	0.672
11.1051	0.67
11.1418	0.654
11.1785	0.645
11.2152	0.623
11.2519	0.55
11.2886	0.374
11.3253	0.283
11.362	0.411
11.3987	0.455
11.4354	0.437
11.472	0.369
11.5087	0.248
11.5454	0.182
11.5821	0.226
11.6188	0.309
11.6555	0.389
11.6922	0.465
11.7289	0.52
11.7656	0.565
11.8023	0.594
11.839	0.611
11.8757	0.623
11.9124	0.638
11.949	0.643
11.9857	0.647
12.0224	0.655
12.0591	0.661
12.0958	0.663
12.1325	0.666
12.1692	0.671
12.2059	0.669
12.2426	0.673
12.2793	0.675
12.316	0.679
12.3527	0.684
12.3894	0.687
12.4261	0.699
12.4627	0.706
12.4994	0.711
12.5361	0.722
12.5728	0.725
12.6095	0.727
12.6462	0.732
12.6829	0.737
12.7196	0.742
12.7563	0.747
12.793	0.751
12.8297	0.755
12.8664	0.758
12.9031	0.761
12.9397	0.761
12.9764	0.762
13.0131	0.765
13.0498	0.77
13.0865	0.772
13.1232	0.769
13.1599	0.773
13.1966	0.774
13.2333	0.773
13.27	0.773
13.3067	0.777
13.3434	0.778
13.3801	0.782
13.4167	0.783
13.4534	0.782
13.4901	0.777
13.5268	0.782
13.5635	0.782
13.6002	0.779
13.6369	0.784
13.6736	0.778
13.7103	0.784
13.747	0.789
13.7837	0.783
13.8204	0.789
13.8571	0.794
13.8937	0.794
13.9304	0.797
13.9671	0.8
14.0038	0.8
14.0405	0.801
14.0772	0.799
14.1139	0.801
14.1506	0.801
14.1873	0.806
14.224	0.807
14.2607	0.807
14.2974	0.805
14.3341	0.807
14.3708	0.806
14.4074	0.811
14.4441	0.813
14.4808	0.81
14.5175	0.812
14.5542	0.81
14.5909	0.809
14.6276	0.803
14.6643	0.805
14.701	0.813
14.7377	0.81
14.7744	0.805
14.8111	0.8
14.8478	0.799
14.8844	0.811
14.9211	0.823
14.9578	0.822
14.9945	0.797
15.0312	0.82
