Infrared Spectrum: ACETYL BROMIDE
Formula: C2 H3 Br O
CAS: 506-96-7
State: SOLUTION (10% CCl4 FOR 3800-1330, 10% CS2 FOR 1330-450 CM^-^1)
Class: COBLENTZ III
Instrument: Not specified, most likely a prism, grating, or hybrid spectrometer.
Sampling: TRANSMISSION
Path length: 0.011 CM, 0.012 CM
Resolution: 4
Origin: DOW CHEMICAL COMPANY
1/CM	TRANSMITTANCE
453.232	0.893
462.358	0.893
471.483	0.888
480.609	0.87
489.734	0.837
498.86	0.881
507.985	0.876
517.111	0.856
526.236	0.831
535.362	0.755
544.487	0.497
553.613	0.0402
562.738	0
571.864	0.4438
580.989	0.757
590.115	0.846
599.24	0.892
608.366	0.936
617.491	0.941
626.617	0.915
635.742	0.899
644.868	0.861
653.993	0.906
663.119	0.952
672.244	0.975
681.37	0.992
690.495	0.998
699.621	1.003
708.746	1.005
717.872	1.005
726.997	1.005
736.123	1
745.248	0.991
754.374	0.966
763.499	0.945
772.625	0.952
781.75	0.8881
790.876	0.9299
800.002	0.992
809.127	1.001
818.253	1
827.378	0.989
836.504	0.966
845.629	0.854
854.755	0.791
863.88	0.81
873.006	0.846
882.131	0.86
891.257	0.851
900.382	0.853
909.508	0.863
918.633	0.7751
927.759	0.561
936.884	0.083
946.01	0.12
955.135	0.5851
964.261	0.7749
973.386	0.796
982.512	0.755
991.637	0.771
1000.76	0.762
1009.89	0.6721
1019.01	0.775
1028.14	0.808
1037.26	0.792
1046.39	0.736
1055.52	0.5731
1064.64	0.2882
1073.77	0.014
1082.89	0.008
1092.02	0.2121
1101.14	0.5129
1110.27	0.6999
1119.39	0.782
1128.52	0.867
1137.65	0.918
1146.77	0.95
1155.9	0.975
1165.02	0.982
1174.15	0.982
1183.27	0.978
1192.4	1
1201.52	1.003
1210.65	1.003
1219.78	1.003
1228.9	1
1238.03	0.991
1247.15	0.975
1256.28	0.961
1265.4	0.941
1274.53	0.923
1283.65	0.865
1292.78	0.824
1301.9	0.922
1311.03	0.936
1320.16	0.934
1329.28	0.925
1338.41	0.886
1347.53	0.711
1356.66	0.219
1365.78	0.7961
1374.91	0.879
1384.03	0.892
1393.16	0.851
1402.29	0.762
1411.41	0.522
1420.54	0.4669
1429.66	0.656
1438.79	0.794
1447.91	0.881
1457.04	0.909
1466.16	0.909
1475.29	0.907
1484.42	0.883
1493.54	0.838
1502.67	0.784
1511.79	0.739
1520.92	0.704
1530.04	0.64
1539.17	0.543
1548.29	0.492
1557.42	0.553
1566.54	0.621
1575.67	0.686
1584.8	0.706
1593.92	0.7571
1603.05	0.872
1612.17	0.923
1621.3	0.945
1630.42	0.948
1639.55	0.945
1648.67	0.976
1657.8	0.98
1666.93	0.976
1676.05	0.966
1685.18	0.948
1694.3	0.938
1703.43	0.899
1712.55	0.702
1721.68	0.849
1730.8	0.899
1739.93	0.897
1749.05	0.884
1758.18	0.817
1767.31	0.697
1776.43	0.605
1785.56	0.4841
1794.68	0.1061
1803.81	0.007
1812.93	0.007
1822.06	0.012
1831.18	0.1249
1840.31	0.359
1849.44	0.527
1858.56	0.594
1867.69	0.546
1876.81	0.467
1885.94	0.621
1895.06	0.722
1904.19	0.81
1913.31	0.874
1922.44	0.897
1931.57	0.934
1940.69	0.957
1949.82	0.968
1958.94	0.975
1968.07	0.976
1977.19	0.973
1986.32	0.969
1995.44	0.966
2004.57	0.934
2013.69	0.8951
2022.82	0.913
2031.95	0.945
2041.07	0.9729
2050.2	0.98
2059.32	0.978
2068.45	0.9839
2077.57	0.991
2086.7	0.991
2095.82	0.989
2104.95	0.987
2114.08	0.989
2123.2	0.991
2132.33	0.9891
2141.45	0.9821
2150.58	0.9663
2159.7	0.9299
2168.83	0.9748
2177.95	0.9888
2187.08	0.992
2196.21	0.992
2205.33	0.992
2214.46	0.991
2223.58	0.9911
2232.71	0.987
2241.83	0.984
2250.96	0.9782
2260.08	0.9751
2269.21	0.9641
2278.33	0.9522
2287.46	0.9432
2296.59	0.9458
2305.71	0.9567
2314.84	0.9657
2323.96	0.9729
2333.09	0.9779
2342.21	0.98
2351.34	0.98
2360.46	0.9762
2369.59	0.975
2378.72	0.9748
2387.84	0.976
2396.97	0.9782
2406.09	0.982
2415.22	0.984
2424.34	0.978
2433.47	0.9778
2442.59	0.9818
2451.72	0.982
2460.85	0.9762
2469.97	0.978
2479.1	0.976
2488.22	0.973
2497.35	0.975
2506.47	0.975
2515.6	0.971
2524.72	0.975
2533.85	0.976
2542.97	0.975
2552.1	0.971
2561.23	0.976
2570.35	0.978
2579.48	0.978
2588.6	0.978
2597.73	0.9751
2606.85	0.9713
2615.98	0.969
2625.1	0.968
2634.23	0.9707
2643.36	0.971
2652.48	0.9707
2661.61	0.971
2670.73	0.968
2679.86	0.966
2688.98	0.966
2698.11	0.964
2707.23	0.961
2716.36	0.9607
2725.48	0.9522
2734.61	0.9323
2743.74	0.9284
2752.86	0.9506
2761.99	0.952
2771.11	0.9567
2780.24	0.955
2789.36	0.955
2798.49	0.9522
2807.61	0.948
2816.74	0.946
2825.87	0.946
2834.99	0.946
2844.12	0.943
2853.24	0.9458
2862.37	0.946
2871.49	0.946
2880.62	0.9394
2889.74	0.936
2898.87	0.9304
2908	0.9254
2917.12	0.9078
2926.25	0.8976
2935.37	0.8982
2944.5	0.9186
2953.62	0.9314
2962.75	0.934
2971.87	0.9304
2981	0.925
2990.12	0.918
2999.25	0.8973
3008.38	0.8614
3017.5	0.8901
3026.63	0.9283
3035.75	0.936
3044.88	0.9426
3054	0.945
3063.13	0.9491
3072.25	0.9546
3081.38	0.9545
3090.51	0.955
3099.63	0.959
3108.76	0.9625
3117.88	0.961
3127.01	0.9675
3136.13	0.969
3145.26	0.968
3154.38	0.971
3163.51	0.9745
3172.64	0.976
3181.76	0.9753
3190.89	0.9775
3200.01	0.978
3209.14	0.98
3218.26	0.982
3227.39	0.9835
3236.51	0.985
3245.64	0.987
3254.76	0.9855
3263.89	0.9885
3273.02	0.991
3282.14	0.994
3291.27	0.996
3300.39	0.996
3309.52	0.996
3318.64	0.996
3327.77	0.996
3336.89	0.996
3346.02	0.996
3355.15	0.9974
3364.27	0.998
3373.4	0.998
3382.52	0.994
3391.65	0.9986
3400.77	0.9966
3409.9	0.9925
3419.02	0.9876
3428.15	0.987
3437.27	0.9849
3446.4	0.982
3455.53	0.982
3464.65	0.9834
3473.78	0.982
3482.9	0.982
3492.03	0.9806
3501.15	0.976
3510.28	0.976
3519.4	0.9766
3528.53	0.976
3537.66	0.975
3546.78	0.976
3555.91	0.976
3565.03	0.9717
3574.16	0.9543
3583.28	0.9163
3592.41	0.8937
3601.53	0.8873
3610.66	0.8983
3619.79	0.929
3628.91	0.9463
3638.04	0.955
3647.16	0.9646
3656.29	0.969
3665.41	0.968
3674.54	0.9773
3683.66	0.9813
3692.79	0.9827
3701.91	0.985
3711.04	0.987
3720.17	0.9876
3729.29	0.992
3738.42	0.994
3747.54	0.994
3756.67	0.994
3765.79	0.994
3774.92	0.994
3784.04	0.994
3793.17	0.994
