Infrared Spectrum: UREA HYDROCHLORIDE
Formula: C H4 N2 O  * H Cl
CAS: 506-89-8
State: SOLID (COCONITRILE MULL)
Class: COBLENTZ
Instrument: PERKIN-ELMER
Sampling: TRANSMISSION
Resolution: 4
MICROMETERS	TRANSMITTANCE
2.006	0.927
2.04288	0.913
2.07976	0.928
2.11664	0.938
2.15352	0.948
2.19039	0.947
2.22727	0.936
2.26415	0.938
2.30103	0.948
2.33791	0.953
2.37479	0.967
2.41167	0.965
2.44855	0.967
2.48543	0.969
2.5223	0.965
2.55918	0.964
2.59606	0.964
2.63294	0.967
2.66982	0.961
2.7067	0.956
2.74358	0.91
2.78046	0.828
2.81734	0.74
2.85421	0.556
2.89109	0.336
2.92797	0.117
2.96485	0.089
3.00173	0.089
3.03861	0.139
3.07549	0.179
3.11237	0.102
3.14925	0.106
3.18612	0.244
3.223	0.415
3.25988	0.472
3.29676	0.531
3.33364	0.602
3.37052	0.633
3.4074	0.629
3.44428	0.63
3.48115	0.693
3.51803	0.692
3.55491	0.707
3.59179	0.749
3.62867	0.782
3.66555	0.799
3.70243	0.803
3.73931	0.811
3.77619	0.842
3.81306	0.874
3.84994	0.89
3.88682	0.905
3.9237	0.919
3.96058	0.931
3.99746	0.933
4.03434	0.93
4.07122	0.941
4.1081	0.945
4.14497	0.947
4.18185	0.952
4.21873	0.948
4.25561	0.942
4.29249	0.941
4.32937	0.938
4.36625	0.919
4.40313	0.918
4.44001	0.89
4.47688	0.89
4.51376	0.894
4.55064	0.904
4.58752	0.908
4.6244	0.908
4.66128	0.916
4.69816	0.921
4.73504	0.925
4.77192	0.918
4.80879	0.919
4.84567	0.925
4.88255	0.936
4.91943	0.935
4.95631	0.928
4.99319	0.938
5.03007	0.939
5.06695	0.942
5.10383	0.942
5.1407	0.944
5.17758	0.942
5.21446	0.944
5.25134	0.939
5.28822	0.933
5.3251	0.924
5.36198	0.913
5.39886	0.904
5.43574	0.897
5.47261	0.888
5.50949	0.882
5.54637	0.876
5.58325	0.865
5.62013	0.85
5.65701	0.833
5.69389	0.825
5.73077	0.795
5.76765	0.743
5.80452	0.675
5.8414	0.598
5.87828	0.46
5.91516	0.316
5.95204	0.095
5.98892	0.106
6.0258	0.066
6.06268	0.077
6.09955	0.08
6.13643	0.06
6.17331	0.071
6.21019	0.075
6.24707	0.04
6.28395	0.105
6.32083	0.264
6.35771	0.398
6.39459	0.445
6.43146	0.514
6.46834	0.553
6.50522	0.595
6.5421	0.602
6.57898	0.52
6.61586	0.395
6.65274	0.208
6.68962	0.098
6.7265	0.085
6.76337	0.119
6.80025	0.211
6.83713	0.307
6.87401	0.406
6.91089	0.434
6.94777	0.42
6.98465	0.462
7.02153	0.51
7.05841	0.585
7.09528	0.613
7.13216	0.639
7.16904	0.653
7.20592	0.669
7.2428	0.676
7.27968	0.684
7.31656	0.689
7.35344	0.695
7.39032	0.7
7.42719	0.7
7.46407	0.693
7.50095	0.697
7.53783	0.697
7.57471	0.698
7.61159	0.698
7.64847	0.697
7.68535	0.695
7.72223	0.69
7.7591	0.689
7.79598	0.684
7.83286	0.676
7.86974	0.673
7.90662	0.664
7.9435	0.661
7.98038	0.655
8.01726	0.646
8.05414	0.639
8.09101	0.63
8.12789	0.621
8.16477	0.613
8.20165	0.591
8.23853	0.568
8.27541	0.547
8.31229	0.517
8.34917	0.48
8.38605	0.452
8.42292	0.406
8.4598	0.364
8.49668	0.332
8.53356	0.29
8.57044	0.261
8.60732	0.259
8.6442	0.272
8.68108	0.299
8.71795	0.333
8.75483	0.367
8.79171	0.404
8.82859	0.434
8.86547	0.455
8.90235	0.476
8.93923	0.486
8.97611	0.499
9.01299	0.511
9.04986	0.522
9.08674	0.525
9.12362	0.53
9.1605	0.531
9.19738	0.531
9.23426	0.531
9.27114	0.528
9.30802	0.522
9.3449	0.523
9.38177	0.53
9.41865	0.536
9.45553	0.544
9.49241	0.548
9.52929	0.553
9.56617	0.556
9.60305	0.561
9.63993	0.565
9.67681	0.567
9.71368	0.567
9.75056	0.564
9.78744	0.561
9.82432	0.533
9.8612	0.469
9.89808	0.517
9.93496	0.587
9.97184	0.604
10.0087	0.613
10.0456	0.621
10.0825	0.632
10.1194	0.638
10.1562	0.642
10.1931	0.652
10.23	0.663
10.2669	0.669
10.3037	0.673
10.3406	0.678
10.3775	0.684
10.4144	0.692
10.4513	0.697
10.4881	0.706
10.525	0.71
10.5619	0.718
10.5988	0.724
10.6357	0.732
10.6725	0.735
10.7094	0.738
10.7463	0.751
10.7832	0.749
10.8201	0.755
10.8569	0.76
10.8938	0.758
10.9307	0.768
10.9676	0.772
11.0044	0.775
11.0413	0.777
11.0782	0.78
11.1151	0.78
11.152	0.786
11.1888	0.789
11.2257	0.789
11.2626	0.791
11.2995	0.794
11.3364	0.792
11.3732	0.792
11.4101	0.792
11.447	0.794
11.4839	0.799
11.5207	0.797
11.5576	0.794
11.5945	0.794
11.6314	0.795
11.6683	0.795
11.7051	0.799
11.742	0.794
11.7789	0.795
11.8158	0.794
11.8527	0.795
11.8895	0.789
11.9264	0.792
11.9633	0.786
12.0002	0.786
12.0371	0.778
12.0739	0.778
12.1108	0.775
12.1477	0.777
12.1846	0.771
12.2214	0.766
12.2583	0.758
12.2952	0.751
12.3321	0.741
12.369	0.734
12.4058	0.71
12.4427	0.69
12.4796	0.672
12.5165	0.63
12.5534	0.587
12.5902	0.531
12.6271	0.506
12.664	0.553
12.7009	0.618
12.7378	0.647
12.7746	0.669
12.8115	0.686
12.8484	0.693
12.8853	0.698
12.9221	0.703
12.959	0.704
12.9959	0.701
13.0328	0.7
13.0697	0.695
13.1065	0.689
13.1434	0.678
13.1803	0.673
13.2172	0.669
13.2541	0.659
13.2909	0.65
13.3278	0.644
13.3647	0.633
13.4016	0.629
13.4385	0.618
13.4753	0.613
13.5122	0.602
13.5491	0.595
13.586	0.588
13.6228	0.581
13.6597	0.574
13.6966	0.571
13.7335	0.565
13.7704	0.559
13.8072	0.553
13.8441	0.551
13.881	0.548
13.9179	0.539
13.9548	0.534
13.9916	0.53
14.0285	0.523
14.0654	0.513
14.1023	0.508
14.1391	0.502
14.176	0.497
14.2129	0.489
14.2498	0.482
14.2867	0.479
14.3235	0.469
14.3604	0.468
14.3973	0.462
14.4342	0.459
14.4711	0.446
14.5079	0.438
14.5448	0.431
14.5817	0.425
14.6186	0.412
14.6555	0.403
14.6923	0.397
14.7292	0.378
14.7661	0.37
14.803	0.363
14.8398	0.357
14.8767	0.346
14.9136	0.335
14.9505	0.332
14.9874	0.34
15.0242	0.318
15.0611	0.292
15.098	0.289
