Infrared Spectrum: Stearolic acid
Formula: C 18 H 32 O 2
CAS: 506-24-1
State: gas
Origin: EPA-IR VAPOR PHASE LIBRARY
1/CM	ABSORBANCE
549.8	0.015743
559.445	0.018133
569.09	0.017743
578.734	0.017573
588.379	0.019343
598.024	0.019733
607.669	0.019723
617.313	0.018593
626.958	0.017203
636.603	0.014673
646.248	0.010993
655.893	0.008433
665.537	0.007683
675.182	0.006953
684.827	0.006873
694.472	0.006733
704.116	0.007543
713.761	0.009033
723.406	0.008953
733.051	0.008483
742.695	0.006363
752.34	0.006043
761.985	0.005223
771.63	0.004593
781.275	0.003833
790.919	0.003173
800.564	0.002653
810.209	0.002923
819.854	0.002533
829.498	0.003123
839.143	0.002613
848.788	0.002913
858.433	0.003023
868.078	0.002763
877.722	0.002843
887.367	0.002883
897.012	0.002933
906.657	0.002613
916.301	0.002903
925.946	0.002843
935.591	0.002753
945.236	0.003483
954.88	0.003683
964.525	0.003873
974.17	0.004073
983.815	0.004173
993.46	0.004843
1003.1	0.006283
1012.75	0.006273
1022.39	0.007943
1032.04	0.009323
1041.68	0.010683
1051.33	0.013873
1060.97	0.019663
1070.62	0.027073
1080.26	0.032083
1089.91	0.034893
1099.55	0.037683
1109.2	0.049003
1118.84	0.061573
1128.49	0.057553
1138.13	0.043223
1147.78	0.035763
1157.42	0.031063
1167.07	0.027483
1176.71	0.024443
1186.36	0.020903
1196	0.018063
1205.64	0.015353
1215.29	0.013593
1224.93	0.011143
1234.58	0.010913
1244.22	0.011773
1253.87	0.011693
1263.51	0.012103
1273.16	0.012523
1282.8	0.013023
1292.45	0.012983
1302.09	0.013293
1311.74	0.013973
1321.38	0.016993
1331.03	0.023563
1340.67	0.021713
1350.32	0.022573
1359.96	0.021853
1369.61	0.021233
1379.25	0.020413
1388.9	0.017153
1398.54	0.011833
1408.18	0.009343
1417.83	0.009393
1427.47	0.012383
1437.12	0.020033
1446.76	0.022113
1456.41	0.024483
1466.05	0.021993
1475.7	0.012563
1485.34	0.006693
1494.99	0.004253
1504.63	0.003063
1514.28	0.002313
1523.92	0.002163
1533.57	0.001673
1543.21	0.001733
1552.86	0.001313
1562.5	0.001373
1572.15	0.001173
1581.79	0.001393
1591.44	0.001393
1601.08	0.001483
1610.73	0.001203
1620.37	0.0009968
1630.01	0.001203
1639.66	0.001193
1649.3	0.001213
1658.95	0.001433
1668.59	0.001713
1678.24	0.001923
1687.88	0.002533
1697.53	0.003143
1707.17	0.004683
1716.82	0.007143
1726.46	0.012023
1736.11	0.019953
1745.75	0.033003
1755.4	0.051403
1765.04	0.079473
1774.69	0.111163
1784.33	0.092633
1793.98	0.057863
1803.62	0.034933
1813.27	0.018303
1822.91	0.009303
1832.55	0.005503
1842.2	0.003463
1851.84	0.002563
1861.49	0.001983
1871.13	0.001513
1880.78	0.001493
1890.42	0.001383
1900.07	0.001203
1909.71	0.0010861
1919.36	0.001133
1929	0.0010799
1938.65	0.0009096
1948.29	0.0009822
1957.94	0.0008793
1967.58	0.0009601
1977.23	0.0008417
1986.87	0.0008723
1996.52	0.0009205
2006.16	0.0009067
2015.81	0.0009834
2025.45	0.000867
2035.1	0.0010694
2044.74	0.000839
2054.38	0.0008168
2064.03	0.0009166
2073.67	0.000763
2083.32	0.0007697
2092.96	0.0008711
2102.61	0.0007605
2112.25	0.0007084
2121.9	0.0009265
2131.54	0.000756
2141.19	0.0010362
2150.83	0.000968
2160.48	0.0009906
2170.12	0.0009914
2179.77	0.0010273
2189.41	0.0009757
2199.06	0.001183
2208.7	0.001063
2218.35	0.0009821
2227.99	0.0010755
2237.64	0.0009951
2247.28	0.001113
2256.92	0.000898
2266.57	0.0010229
2276.21	0.0009073
2285.86	0.0009241
2295.5	0.0009531
2305.15	0.0010268
2314.79	0.0009529
2324.44	0.0009408
2334.08	0.0010466
2343.73	0.000985
2353.37	0.0010041
2363.02	0.0008752
2372.66	0.0009728
2382.31	0.0008658
2391.95	0.0010428
2401.6	0.000772
2411.24	0.0010579
2420.89	0.0007968
2430.53	0.0008316
2440.18	0.0010052
2449.82	0.000597
2459.47	0.0009285
2469.11	0.001093
2478.75	0.0008918
2488.4	0.0007686
2498.04	0.0008599
2507.69	0.0009757
2517.33	0.0010617
2526.98	0.0010989
2536.62	0.0010596
2546.27	0.001123
2555.91	0.001173
2565.56	0.001273
2575.2	0.001383
2584.85	0.001193
2594.49	0.001473
2604.14	0.001503
2613.78	0.001573
2623.43	0.001863
2633.07	0.002063
2642.72	0.002423
2652.36	0.002423
2662.01	0.002583
2671.65	0.002783
2681.29	0.002983
2690.94	0.003023
2700.58	0.002613
2710.23	0.002633
2719.87	0.002473
2729.52	0.002853
2739.16	0.003133
2748.81	0.003003
2758.45	0.003203
2768.1	0.003863
2777.74	0.003913
2787.39	0.004813
2797.03	0.005973
2806.68	0.007223
2816.32	0.009153
2825.97	0.012183
2835.61	0.017963
2845.26	0.032883
2854.9	0.064973
2864.55	0.095213
2874.19	0.076473
2883.84	0.057753
2893.48	0.052963
2903.12	0.069993
2912.77	0.108383
2922.41	0.167403
2932.06	0.247933
2941.7	0.247383
2951.35	0.146583
2960.99	0.093173
2970.64	0.070063
2980.28	0.038033
2989.93	0.022873
2999.57	0.014643
3009.22	0.010413
3018.86	0.008063
3028.51	0.006323
3038.15	0.005163
3047.8	0.004013
3057.44	0.003303
3067.09	0.003033
3076.73	0.002623
3086.38	0.002453
3096.02	0.002283
3105.67	0.002023
3115.31	0.001683
3124.95	0.001233
3134.6	0.001533
3144.24	0.001323
3153.89	0.001213
3163.53	0.001103
3173.18	0.001313
3182.82	0.001313
3192.47	0.001243
3202.11	0.0008114
3211.76	0.0007505
3221.4	0.0010691
3231.05	0.0005907
3240.69	0.0010298
3250.34	0.0006887
3259.98	0.0004677
3269.63	0.000414
3279.27	0.0007996
3288.92	0.000699
3298.56	0.000596
3308.21	0.0005911
3317.85	0.0006265
3327.49	0.00019459
3337.14	0.0006896
3346.78	0.0006515
3356.43	0.0006826
3366.07	0.0006797
3375.72	0.0003421
3385.36	0.0003488
3395.01	0.000421
3404.65	0.0004482
3414.3	0.00019548
3423.94	0.0004445
3433.59	0.0007384
3443.23	0.0007322
3452.88	0.0006669
3462.52	0.0003526
3472.17	0.0007667
3481.81	0.0004046
3491.46	0.0007754
3501.1	0.0008485
3510.75	0.001273
3520.39	0.001593
3530.04	0.002153
3539.68	0.002833
3549.32	0.005013
3558.97	0.010653
3568.61	0.032033
3578.26	0.041273
3587.9	0.011963
3597.55	0.004473
3607.19	0.002583
3616.84	0.001683
3626.48	0.0010478
3636.13	0.0010619
3645.77	0.0008472
3655.42	0.00086
3665.06	0.0008785
3674.71	0.0003931
3684.35	0.0007252
3694	0.0006521
3703.64	0.0005964
3713.29	0.0007244
3722.93	0.0007735
3732.58	0.0005224
3742.22	0.0005954
3751.86	0.0005639
3761.51	0.0009264
3771.15	0.0004324
3780.8	0.0006863
3790.44	0.0004417
3800.09	0.0006617
3809.73	0.0006984
3819.38	0.0005163
3829.02	0.0009197
3838.67	0.0003248
3848.31	0.0004003
3857.96	0.0006895
3867.6	0.0006783
3877.25	0.0008979
3886.89	0.0003811
3896.54	0.0007623
3906.18	0.001123
3915.83	0.0003828
3925.47	0.000663
3935.12	0.000608
3944.76	0.00045
3954.41	0.0005326
3964.05	0.0009772
3973.69	0.0007758
3983.34	0.0009698
3992.98	0.0009323
