Infrared Spectrum: 4-PYRIMIDINOL, 5-ACETAMIDO-6-AMINO-
Formula: C6 H8 N4 O2
CAS: 50609-15-9
State: SOLID (0.3 mg / 650 KBr DISC)
Class: COBLENTZ III
Instrument: PERKIN-ELMER 21 (GRATING)
Instrument parameters: FILTER CHANGE AT ABOUT 1075 CM^-^1.
Sampling: TRANSMISSION
Resolution: 2
Origin: SOUTHERN RESEARCH INSTITUTE
1/CM	TRANSMITTANCE
620	0.854
629.084	0.8511
638.167	0.8392
647.251	0.8331
656.334	0.829
665.418	0.8242
674.501	0.8174
683.585	0.8088
692.668	0.7926
701.752	0.767
710.835	0.7606
719.919	0.765
729.002	0.7726
738.086	0.774
747.17	0.7635
756.253	0.7132
765.337	0.7027
774.42	0.7235
783.504	0.7296
792.587	0.6599
801.671	0.7349
810.754	0.835
819.838	0.8484
828.921	0.8478
838.005	0.842
847.088	0.8299
856.172	0.8089
865.256	0.792
874.339	0.778
883.423	0.6885
892.506	0.639
901.59	0.6549
910.673	0.7077
919.757	0.8324
928.84	0.851
937.924	0.8503
947.007	0.8383
956.091	0.8104
965.174	0.7323
974.258	0.6848
983.341	0.8177
992.425	0.8089
1001.51	0.7607
1010.59	0.6842
1019.68	0.6922
1028.76	0.7575
1037.84	0.828
1046.93	0.8326
1056.01	0.8453
1065.09	0.846
1074.18	0.846
1083.26	0.8338
1092.34	0.8246
1101.43	0.8117
1110.51	0.7909
1119.59	0.7701
1128.68	0.7959
1137.76	0.816
1146.85	0.816
1155.93	0.8081
1165.01	0.8003
1174.1	0.7912
1183.18	0.7787
1192.26	0.7798
1201.35	0.7509
1210.43	0.7257
1219.51	0.6914
1228.6	0.674
1237.68	0.6316
1246.76	0.5534
1255.85	0.5991
1264.93	0.7264
1274.01	0.7171
1283.1	0.7008
1292.18	0.6653
1301.27	0.6163
1310.35	0.5996
1319.43	0.6538
1328.52	0.7278
1337.6	0.7348
1346.68	0.727
1355.77	0.7027
1364.85	0.6375
1373.93	0.64
1383.02	0.6011
1392.1	0.6058
1401.18	0.6439
1410.27	0.6364
1419.35	0.6172
1428.43	0.5766
1437.52	0.5375
1446.6	0.5086
1455.69	0.431
1464.77	0.3156
1473.85	0.4574
1482.94	0.4257
1492.02	0.6123
1501.1	0.655
1510.19	0.6336
1519.27	0.5644
1528.35	0.4932
1537.44	0.4018
1546.52	0.364
1555.6	0.4092
1564.69	0.4751
1573.77	0.5386
1582.85	0.5255
1591.94	0.4665
1601.02	0.3244
1610.11	0.2641
1619.19	0.337
1628.27	0.328
1637.36	0.2574
1646.44	0.1836
1655.52	0.157
1664.61	0.16
1673.69	0.1943
1682.77	0.2503
1691.86	0.3791
1700.94	0.5107
1710.02	0.5904
1719.11	0.6515
1728.19	0.697
1737.28	0.7466
1746.36	0.7695
1755.44	0.793
1764.53	0.8064
1773.61	0.8289
1782.69	0.8378
1791.78	0.854
1800.86	0.866
1809.94	0.8763
1819.03	0.8915
1828.11	0.8972
1837.19	0.897
1846.28	0.8944
1855.36	0.911
1864.44	0.9141
1873.53	0.914
1882.61	0.914
1891.7	0.912
1900.78	0.912
1909.86	0.911
1918.95	0.911
1928.03	0.915
1937.11	0.92
1946.2	0.9207
1955.28	0.9247
1964.36	0.925
1973.45	0.925
1982.53	0.925
1991.61	0.925
2000.7	0.924
2009.78	0.924
2018.86	0.923
2027.95	0.923
2037.03	0.921
2046.12	0.921
2055.2	0.9245
2064.28	0.929
2073.37	0.932
2082.45	0.932
2091.53	0.932
2100.62	0.93
2109.7	0.929
2118.78	0.928
2127.87	0.923
2136.95	0.923
2146.03	0.923
2155.12	0.9221
2164.2	0.919
2173.28	0.916
2182.37	0.916
2191.45	0.9165
2200.54	0.916
2209.62	0.915
2218.7	0.912
2227.79	0.91
2236.87	0.91
2245.95	0.91
2255.04	0.91
2264.12	0.91
2273.2	0.91
2282.29	0.91
2291.37	0.91
2300.45	0.91
2309.54	0.91
2318.62	0.91
2327.71	0.91
2336.79	0.8924
2345.87	0.889
2354.96	0.888
2364.04	0.89
2373.12	0.893
2382.21	0.893
2391.29	0.893
2400.37	0.893
2409.46	0.89
2418.54	0.886
2427.62	0.882
2436.71	0.8775
2445.79	0.8739
2454.87	0.871
2463.96	0.871
2473.04	0.8725
2482.13	0.8715
2491.21	0.8599
2500.29	0.8515
2509.38	0.85
2518.46	0.848
2527.54	0.85
2536.63	0.851
2545.71	0.8425
2554.79	0.833
2563.88	0.8295
2572.96	0.829
2582.04	0.8204
2591.13	0.8004
2600.21	0.7985
2609.29	0.796
2618.38	0.792
2627.46	0.7874
2636.55	0.7729
2645.63	0.7614
2654.71	0.739
2663.8	0.7319
2672.88	0.726
2681.96	0.721
2691.05	0.7265
2700.13	0.729
2709.21	0.723
2718.3	0.7159
2727.38	0.704
2736.46	0.6955
2745.55	0.6889
2754.63	0.674
2763.71	0.6499
2772.8	0.64
2781.88	0.631
2790.97	0.625
2800.05	0.6139
2809.13	0.5944
2818.22	0.5715
2827.3	0.566
2836.38	0.5615
2845.47	0.546
2854.55	0.5325
2863.63	0.532
2872.72	0.529
2881.8	0.5235
2890.88	0.5176
2899.97	0.5315
2909.05	0.5451
2918.13	0.5665
2927.22	0.58
2936.3	0.582
2945.39	0.574
2954.47	0.5564
2963.55	0.5325
2972.64	0.5119
2981.72	0.5105
2990.8	0.5155
2999.89	0.5211
3008.97	0.5275
3018.05	0.531
3027.14	0.533
3036.22	0.5315
3045.3	0.524
3054.39	0.5095
3063.47	0.507
3072.56	0.5105
3081.64	0.515
3090.72	0.516
3099.81	0.5124
3108.89	0.4984
3117.97	0.4659
3127.06	0.4359
3136.14	0.3794
3145.22	0.367
3154.31	0.3715
3163.39	0.3871
3172.47	0.4238
3181.56	0.4451
3190.64	0.4625
3199.72	0.4705
3208.81	0.475
3217.89	0.476
3226.98	0.476
3236.06	0.476
3245.14	0.475
3254.23	0.4739
3263.31	0.472
3272.39	0.4689
3281.48	0.464
3290.56	0.46
3299.64	0.455
3308.73	0.4479
3317.81	0.4415
3326.89	0.4309
3335.98	0.4219
3345.06	0.4115
3354.14	0.406
3363.23	0.4065
3372.31	0.4155
3381.4	0.4275
3390.48	0.4486
3399.56	0.4716
3408.65	0.4895
3417.73	0.5025
3426.81	0.513
3435.9	0.5361
3444.98	0.5561
3454.06	0.5641
3463.15	0.5771
3472.23	0.5871
3481.31	0.6116
3490.4	0.6291
3499.48	0.6467
3508.56	0.6596
3517.65	0.6756
3526.73	0.6936
3535.82	0.7081
3544.9	0.7221
3553.98	0.7376
3563.07	0.7541
3572.15	0.7706
3581.23	0.7861
3590.32	0.8011
3599.4	0.8192
3608.48	0.8341
3617.57	0.8491
3626.65	0.8631
3635.73	0.8766
3644.82	0.8935
3653.9	0.902
3662.98	0.902
3672.07	0.902
3681.15	0.903
3690.24	0.9025
3699.32	0.9051
3708.4	0.907
3717.49	0.911
3726.57	0.9165
3735.65	0.9205
3744.74	0.9179
3753.82	0.914
3762.9	0.914
3771.99	0.9216
3781.07	0.9219
3790.15	0.917
3799.24	0.917
3808.32	0.917
3817.41	0.917
3826.49	0.917
3835.57	0.919
3844.66	0.9165
3853.74	0.916
3862.82	0.9155
3871.91	0.9145
3880.99	0.914
3890.07	0.915
3899.16	0.915
3908.24	0.914
3917.32	0.912
3926.41	0.912
3935.49	0.911
3944.57	0.91
3953.66	0.908
3962.74	0.906
3971.83	0.9096
3980.91	0.9131
3989.99	0.9115
3999.08	0.906
4008.16	0.906
