Infrared Spectrum: DIBENZYL, 4,4'-DIFLUORO-2,2'-DINITRO-
Formula: C14 H10 F2 N2 O4
CAS: 50618-92-3
State: SOLID (SPLIT MULL, FLUOROLUBE FOR 3800-1333, AND NUJOL FOR 1333-400 CM ^-^1)
Class: COBLENTZ III
Instrument: DOW KBr FOREPRISM-GRATING
Instrument parameters: BLAZED AT 3.5, 12.0, 20.0 MICRON, CHANGED AT 5.0, 7.5, 14.9 MICRON
Sampling: TRANSMISSION
Resolution: 4
Origin: DOW CHEMICAL COMPANY
1/CM	TRANSMITTANCE
386.098	0.941
394.86	0.941
403.621	0.941
412.383	0.956
421.145	0.956
429.906	0.957
438.668	0.954
447.43	0.942
456.191	0.943
464.953	0.8
473.715	0.975
482.476	0.978
491.238	0.98
500	0.979
508.762	0.976
517.523	0.972
526.285	0.957
535.047	0.913
543.808	0.779
552.57	0.937
561.332	0.953
570.093	0.957
578.855	0.93
587.617	0.868
596.378	0.972
605.14	0.989
613.902	0.998
622.663	1.002
631.425	1.001
640.187	1.001
648.948	0.997
657.71	0.991
666.472	0.982
675.233	0.937
683.995	0.969
692.757	0.968
701.518	0.872
710.28	0.935
719.042	0.885
727.804	0.857
736.565	0.876
745.327	0.878
754.089	0.793
762.85	0.7511
771.612	0.853
780.374	0.834
789.135	0.876
797.897	0.894
806.659	0.841
815.42	0.664
824.182	0.759
832.944	0.894
841.705	0.738
850.467	0.5601
859.229	0.893
867.99	0.886
876.752	0.729
885.514	0.528
894.275	0.88
903.037	0.894
911.799	0.897
920.56	0.891
929.322	0.886
938.084	0.834
946.846	0.491
955.607	0.872
964.369	0.867
973.131	0.868
981.892	0.897
990.654	0.897
999.416	0.894
1008.18	0.893
1016.94	0.894
1025.7	0.89
1034.46	0.887
1043.22	0.887
1051.99	0.88
1060.75	0.852
1069.51	0.879
1078.27	0.875
1087.03	0.872
1095.79	0.872
1104.56	0.87
1113.32	0.823
1122.08	0.859
1130.84	0.853
1139.6	0.85
1148.36	0.837
1157.13	0.826
1165.89	0.707
1174.65	0.818
1183.41	0.767
1192.17	0.733
1200.93	0.813
1209.7	0.798
1218.46	0.734
1227.22	0.647
1235.98	0.3409
1244.74	0.4391
1253.5	0.783
1262.27	0.761
1271.03	0.694
1279.79	0.653
1288.55	0.662
1297.31	0.714
1306.07	0.651
1314.84	0.439
1323.6	0.512
1332.36	0.51
1341.12	0.391
1349.88	0.435
1358.64	0.413
1367.41	0.619
1376.17	0.882
1384.93	0.898
1393.69	0.909
1402.45	0.902
1411.21	0.863
1419.98	0.893
1428.74	0.904
1437.5	0.898
1446.26	0.875
1455.02	0.854
1463.78	0.826
1472.55	0.794
1481.31	0.82
1490.07	0.749
1498.83	0.485
1507.59	0.677
1516.35	0.575
1525.12	0.354
1533.88	0.173
1542.64	0.119
1551.4	0.562
1560.16	0.849
1568.92	0.911
1577.69	0.926
1586.45	0.912
1595.21	0.8721
1603.97	0.932
1612.73	0.9
1621.49	0.874
1630.26	0.956
1639.02	0.969
1647.78	0.967
1656.54	0.976
1665.3	0.976
1674.06	0.978
1682.83	0.979
1691.59	0.978
1700.35	0.975
1709.11	0.974
1717.87	0.979
1726.64	0.975
1735.4	0.975
1744.16	0.965
1752.92	0.948
1761.68	0.961
1770.44	0.965
1779.21	0.965
1787.97	0.96
1796.73	0.957
1805.49	0.956
1814.25	0.956
1823.01	0.956
1831.78	0.953
1840.54	0.953
1849.3	0.952
1858.06	0.95
1866.82	0.953
1875.58	0.95
1884.35	0.949
1893.11	0.949
1901.87	0.949
1910.63	0.946
1919.39	0.942
1928.15	0.932
1936.92	0.938
1945.68	0.932
1954.44	0.945
1963.2	0.949
1971.96	0.939
1980.72	0.938
1989.49	0.935
1998.25	0.932
2007.01	0.935
2015.77	0.938
2024.53	0.938
2033.29	0.931
2042.06	0.931
2050.82	0.931
2059.58	0.928
2068.34	0.928
2077.1	0.927
2085.86	0.924
2094.63	0.92
2103.39	0.915
2112.15	0.913
2120.91	0.913
2129.67	0.912
2138.43	0.911
2147.2	0.909
2155.96	0.906
2164.72	0.902
2173.48	0.9
2182.24	0.897
2191	0.896
2199.77	0.893
2208.53	0.891
2217.29	0.8889
2226.05	0.885
2234.81	0.8819
2243.57	0.876
2252.34	0.8739
2261.1	0.871
2269.86	0.868
2278.62	0.865
2287.38	0.863
2296.14	0.8629
2304.91	0.859
2313.67	0.8681
2322.43	0.8699
2331.19	0.8629
2339.95	0.861
2348.71	0.8631
2357.48	0.868
2366.24	0.868
2375	0.867
2383.76	0.8629
2392.52	0.8589
2401.28	0.853
2410.05	0.853
2418.81	0.8541
2427.57	0.856
2436.33	0.856
2445.09	0.856
2453.85	0.856
2462.62	0.856
2471.38	0.8561
2480.14	0.856
2488.9	0.856
2497.66	0.857
2506.42	0.8569
2515.19	0.856
2523.95	0.857
2532.71	0.854
2541.47	0.852
2550.23	0.853
2558.99	0.8518
2567.76	0.852
2576.52	0.85
2585.28	0.849
2594.04	0.849
2602.8	0.849
2611.56	0.849
2620.33	0.849
2629.09	0.846
2637.85	0.845
2646.61	0.8449
2655.37	0.841
2664.13	0.841
2672.9	0.839
2681.66	0.839
2690.42	0.8389
2699.18	0.838
2707.94	0.8367
2716.7	0.834
2725.47	0.834
2734.23	0.833
2742.99	0.83
2751.75	0.8309
2760.51	0.8286
2769.27	0.8242
2778.04	0.826
2786.8	0.823
2795.56	0.819
2804.32	0.818
2813.08	0.8147
2821.85	0.811
2830.61	0.807
2839.37	0.7996
2848.13	0.793
2856.89	0.793
2865.65	0.7899
2874.42	0.7847
2883.18	0.779
2891.94	0.7873
2900.7	0.79
2909.46	0.7829
2918.22	0.777
2926.99	0.777
2935.75	0.775
2944.51	0.772
2953.27	0.7635
2962.03	0.753
2970.79	0.7734
2979.56	0.7852
2988.32	0.787
2997.08	0.786
3005.84	0.7833
3014.6	0.785
3023.36	0.783
3032.13	0.7788
3040.89	0.7705
3049.65	0.7635
3058.41	0.7508
3067.17	0.7396
3075.93	0.7182
3084.7	0.7228
3093.46	0.6796
3102.22	0.6411
3110.98	0.734
3119.74	0.7428
3128.5	0.7691
3137.27	0.777
3146.03	0.778
3154.79	0.778
3163.55	0.777
3172.31	0.777
3181.07	0.7748
3189.84	0.77
3198.6	0.768
3207.36	0.768
3216.12	0.766
3224.88	0.764
3233.64	0.764
3242.41	0.761
3251.17	0.759
3259.93	0.759
3268.69	0.756
3277.45	0.752
3286.21	0.749
3294.98	0.748
3303.74	0.7448
3312.5	0.742
3321.26	0.742
3330.02	0.742
3338.78	0.741
3347.55	0.74
3356.31	0.738
3365.07	0.7366
3373.83	0.735
3382.59	0.733
3391.35	0.731
3400.12	0.729
3408.88	0.726
3417.64	0.725
3426.4	0.725
3435.16	0.725
3443.92	0.723
3452.69	0.723
3461.45	0.723
3470.21	0.722
3478.97	0.722
3487.73	0.722
3496.49	0.72
3505.26	0.72
3514.02	0.719
3522.78	0.719
3531.54	0.716
3540.3	0.715
3549.06	0.716
3557.83	0.7147
3566.59	0.714
3575.35	0.714
3584.11	0.714
3592.87	0.712
3601.63	0.709
3610.4	0.707
3619.16	0.707
3627.92	0.705
3636.68	0.703
3645.44	0.701
3654.2	0.701
3662.97	0.701
3671.73	0.7024
3680.49	0.7
3689.25	0.699
3698.01	0.7
3706.77	0.6984
3715.54	0.694
3724.3	0.693
3733.06	0.6927
3741.82	0.692
3750.58	0.69
3759.34	0.689
3768.11	0.688
3776.87	0.6874
3785.63	0.685
3794.39	0.682
