Infrared Spectrum: N-Hydroxymethyltrifluoroacetamide
Formula: C 3 H 4 F 3 N O 2
CAS: 50667-69-1
State: gas
Origin: EPA-IR VAPOR PHASE LIBRARY
1/CM	ABSORBANCE
549.9	0.00566
559.547	0.00581
569.193	0.00573
578.84	0.00471
588.486	0.0036
598.133	0.0027982
607.779	0.001955
617.426	0.0023036
627.072	0.00609
636.719	0.0072
646.365	0.0079
656.012	0.00765
665.658	0.00292
675.305	0.0019977
684.951	0.0018879
694.598	0.0020302
704.245	0.0023012
713.891	0.0027198
723.538	0.00306
733.184	0.00373
742.831	0.00469
752.477	0.00567
762.124	0.00633
771.77	0.00648
781.417	0.00555
791.063	0.00501
800.71	0.00452
810.356	0.00455
820.003	0.00472
829.649	0.00482
839.296	0.00488
848.943	0.00477
858.589	0.00478
868.236	0.00487
877.882	0.00474
887.529	0.00462
897.175	0.00442
906.822	0.00399
916.468	0.00363
926.115	0.00362
935.761	0.00355
945.408	0.00356
955.054	0.00355
964.701	0.00343
974.347	0.0035
983.994	0.00338
993.64	0.00347
1003.29	0.00362
1012.93	0.00361
1022.58	0.0036
1032.23	0.00372
1041.87	0.00351
1051.52	0.00409
1061.17	0.00451
1070.81	0.00498
1080.46	0.00515
1090.11	0.00571
1099.75	0.00737
1109.4	0.009
1119.05	0.01168
1128.69	0.0157
1138.34	0.02466
1147.99	0.04282
1157.63	0.07469
1167.28	0.10877
1176.92	0.10768
1186.57	0.07901
1196.22	0.06471
1205.86	0.0629
1215.51	0.06242
1225.16	0.0596
1234.8	0.05179
1244.45	0.03897
1254.1	0.02697
1263.74	0.01826
1273.39	0.01263
1283.04	0.00801
1292.68	0.00559
1302.33	0.00463
1311.98	0.00406
1321.62	0.00474
1331.27	0.00352
1340.92	0.00355
1350.56	0.00353
1360.21	0.00375
1369.86	0.00483
1379.5	0.00546
1389.15	0.00716
1398.79	0.00773
1408.44	0.008
1418.09	0.00684
1427.73	0.00445
1437.38	0.00345
1447.03	0.00299
1456.67	0.00305
1466.32	0.00296
1475.97	0.0027652
1485.61	0.002179
1495.26	0.001925
1504.91	0.00307
1514.55	0.0023338
1524.2	0.0027665
1533.85	0.00282
1543.49	0.00293
1553.14	0.00324
1562.79	0.00421
1572.43	0.00739
1582.08	0.01195
1591.73	0.01461
1601.37	0.01414
1611.02	0.01049
1620.67	0.00582
1630.31	0.00359
1639.96	0.00279
1649.6	0.00288
1659.25	0.00346
1668.9	0.00421
1678.54	0.00514
1688.19	0.00634
1697.84	0.00772
1707.48	0.00893
1717.13	0.00967
1726.78	0.00966
1736.42	0.01111
1746.07	0.03013
1755.72	0.02975
1765.36	0.05302
1775.01	0.06691
1784.66	0.06621
1794.3	0.06571
1803.95	0.04045
1813.6	0.01993
1823.24	0.00925
1832.89	0.004
1842.54	0.0023066
1852.18	0.00182498
1861.83	0.001649
1871.47	0.001522
1881.12	0.001493
1890.77	0.001497
1900.41	0.001397
1910.06	0.001429
1919.71	0.00144
1929.35	0.001534
1939	0.001534
1948.65	0.001565
1958.29	0.001531
1967.94	0.001505
1977.59	0.001489
1987.23	0.001466
1996.88	0.001448
2006.53	0.001452
2016.17	0.001437
2025.82	0.001414
2035.47	0.001346
2045.11	0.001312
2054.76	0.001234
2064.41	0.001182
2074.05	0.001169
2083.7	0.001146
2093.35	0.001134
2102.99	0.001138
2112.64	0.00118
2122.28	0.001153
2131.93	0.001184
2141.58	0.001207
2151.22	0.001233
2160.87	0.001221
2170.52	0.001278
2180.16	0.001251
2189.81	0.001209
2199.46	0.001193
2209.1	0.001159
2218.75	0.001172
2228.4	0.001218
2238.04	0.001255
2247.69	0.001275
2257.34	0.001286
2266.98	0.001284
2276.63	0.001287
2286.28	0.001302
2295.92	0.001334
2305.57	0.001401
2315.22	0.001417
2324.86	0.001421
2334.51	0.001401
2344.16	0.001368
2353.8	0.001349
2363.45	0.001303
2373.09	0.001303
2382.74	0.001305
2392.39	0.001275
2402.03	0.001288
2411.68	0.001254
2421.33	0.001248
2430.97	0.001278
2440.62	0.001245
2450.27	0.001272
2459.91	0.001308
2469.56	0.001321
2479.21	0.001363
2488.85	0.00134
2498.5	0.001351
2508.15	0.001244
2517.79	0.001219
2527.44	0.001178
2537.09	0.00121
2546.73	0.001205
2556.38	0.001202
2566.03	0.001251
2575.67	0.001273
2585.32	0.001229
2594.96	0.001308
2604.61	0.001514
2614.26	0.001504
2623.9	0.001602
2633.55	0.001693
2643.2	0.0020307
2652.84	0.0022377
2662.49	0.0020411
2672.14	0.0023871
2681.78	0.0026119
2691.43	0.00314
2701.08	0.00413
2710.72	0.00484
2720.37	0.00526
2730.02	0.00804
2739.66	0.0079
2749.31	0.0097
2758.96	0.00778
2768.6	0.0094
2778.25	0.01109
2787.9	0.00591
2797.54	0.0117
2807.19	0.01253
2816.84	0.01134
2826.48	0.00925
2836.13	0.00751
2845.77	0.00672
2855.42	0.00531
2865.07	0.00868
2874.71	0.00651
2884.36	0.00614
2894.01	0.00751
2903.65	0.00431
2913.3	0.0044
2922.95	0.00524
2932.59	0.00335
2942.24	0.00335
2951.89	0.00377
2961.53	0.00357
2971.18	0.00309
2980.83	0.0026011
2990.47	0.0026323
3000.12	0.0021922
3009.77	0.0020695
3019.41	0.0019793
3029.06	0.001995
3038.71	0.001441
3048.35	0.001648
3058	0.001099
3067.64	0.001146
3077.29	0.00074
3086.94	0.00075
3096.58	0.00068
3106.23	0.00051
3115.88	0.0007
3125.52	0.00038
3135.17	0.00049
3144.82	0.00042
3154.46	0.00052
3164.11	0.00049
3173.76	0.00056
3183.4	0.00057
3193.05	0.00049
3202.7	0.00027
3212.34	0.0002
3221.99	0.00012
3231.64	0.00015
3241.28	0.00023
3250.93	0.00031
3260.58	0.0002
3270.22	0.00023
3279.87	0.0002
3289.52	0.00013
3299.16	0.00023
3308.81	9e-05
3318.45	0.0003
3328.1	0.00022
3337.75	0.0003
3347.39	0.00047
3357.04	0.00056
3366.69	0.000818
3376.33	0.001134
3385.98	0.001536
3395.63	0.0021075
3405.27	0.00322
3414.92	0.00504
3424.57	0.00729
3434.21	0.0102
3443.86	0.01004
3453.51	0.00887
3463.15	0.00687
3472.8	0.00387
3482.45	0.0023526
3492.09	0.0025864
3501.74	0.00306
3511.39	0.00381
3521.03	0.00517
3530.68	0.00596
3540.33	0.00754
3549.97	0.01099
3559.62	0.01159
3569.26	0.01106
3578.91	0.0081
3588.56	0.0032
3598.2	0.001532
3607.85	0.001186
3617.5	0.000987
3627.14	0.000865
3636.79	0.00074
3646.44	0.000948
3656.08	0.00065
3665.73	0.000925
3675.38	0.0008
3685.02	0.00067
3694.67	0.000876
3704.32	0.000954
3713.96	0.000836
3723.61	0.000899
3733.26	0.000962
3742.9	0.000892
3752.55	0.000875
3762.2	0.000911
3771.84	0.000859
3781.49	0.000937
3791.13	0.000928
3800.78	0.001014
3810.43	0.00087
3820.07	0.000937
3829.72	0.000904
3839.37	0.000904
3849.01	0.000908
3858.66	0.000833
3868.31	0.000855
3877.95	0.000851
3887.6	0.00094
3897.25	0.00093
3906.89	0.00077
3916.54	0.000857
3926.19	0.00091
3935.83	0.00088
3945.48	0.000922
3955.13	0.0008
3964.77	0.000961
3974.42	0.000916
3984.07	0.000972
3993.71	0.000865
