Infrared Spectrum: 2-Chlorobenzoyl isothiocyanate
Formula: C 8 H 4 Cl N O S
CAS: 5067-90-3
State: gas
Origin: EPA-IR VAPOR PHASE LIBRARY
1/CM	ABSORBANCE
549.9	0.00031
559.547	0.000406
569.193	0.000614
578.84	0.000544
588.486	0.000733
598.133	0.000619
607.779	0.0007967
617.426	0.0010744
627.072	0.0015571
636.719	0.002541
646.365	0.003291
656.012	0.002691
665.658	0.0016263
675.305	0.0015599
684.951	0.0016906
694.598	0.001861
704.245	0.002321
713.891	0.002851
723.538	0.003941
733.184	0.005491
742.831	0.004601
752.477	0.002261
762.124	0.0014594
771.77	0.0012067
781.417	0.0009696
791.063	0.0008126
800.71	0.000793
810.356	0.00089814
820.003	0.000982
829.649	0.0013097
839.296	0.002151
848.943	0.004301
858.589	0.007341
868.236	0.007111
877.882	0.005021
887.529	0.003501
897.175	0.002791
906.822	0.002251
916.468	0.0018285
926.115	0.0016831
935.761	0.0015782
945.408	0.0016212
955.054	0.0015775
964.701	0.0015831
974.347	0.0015087
983.994	0.0013316
993.64	0.0011499
1003.29	0.0011131
1012.93	0.0010873
1022.58	0.0012751
1032.23	0.001941
1041.87	0.003061
1051.52	0.003341
1061.17	0.002201
1070.81	0.0016508
1080.46	0.002131
1090.11	0.003531
1099.75	0.004321
1109.4	0.003701
1119.05	0.002901
1128.69	0.002211
1138.34	0.002231
1147.99	0.0012962
1157.63	0.0013847
1167.28	0.001494
1176.92	0.0011758
1186.57	0.0015707
1196.22	0.002581
1205.86	0.005341
1215.51	0.008891
1225.16	0.011811
1234.8	0.010301
1244.45	0.005531
1254.1	0.003131
1263.74	0.005931
1273.39	0.009841
1283.04	0.007371
1292.68	0.003141
1302.33	0.0014618
1311.98	0.0010468
1321.62	0.0009673
1331.27	0.00089157
1340.92	0.00090477
1350.56	0.00091236
1360.21	0.000859611
1369.86	0.0007691
1379.5	0.000764
1389.15	0.0007589
1398.79	0.0008291
1408.44	0.0009943
1418.09	0.0013527
1427.73	0.002121
1437.38	0.002831
1447.03	0.002161
1456.67	0.001706
1466.32	0.002121
1475.97	0.002001
1485.61	0.0012191
1495.26	0.0009933
1504.91	0.0009582
1514.55	0.000856154
1524.2	0.00088089
1533.85	0.00093801
1543.49	0.0009907
1553.14	0.0011429
1562.79	0.0014679
1572.43	0.0018379
1582.08	0.002191
1591.73	0.002561
1601.37	0.0017679
1611.02	0.0011478
1620.67	0.0010203
1630.31	0.0009977
1639.96	0.0010349
1649.6	0.001032
1659.25	0.0011778
1668.9	0.0014017
1678.54	0.0017901
1688.19	0.002631
1697.84	0.004201
1707.48	0.006031
1717.13	0.007971
1726.78	0.010701
1736.42	0.012511
1746.07	0.010261
1755.72	0.006501
1765.36	0.004011
1775.01	0.002711
1784.66	0.001961
1794.3	0.0016671
1803.95	0.0016117
1813.6	0.0015235
1823.24	0.0013794
1832.89	0.0013064
1842.54	0.0013864
1852.18	0.0015106
1861.83	0.0018416
1871.47	0.002171
1881.12	0.002871
1890.77	0.003851
1900.41	0.005321
1910.06	0.006961
1919.71	0.008811
1929.35	0.011061
1939	0.014191
1948.65	0.018231
1958.29	0.022651
1967.94	0.027411
1977.59	0.030011
1987.23	0.027441
1996.88	0.023931
2006.53	0.021441
2016.17	0.020161
2025.82	0.017301
2035.47	0.012661
2045.11	0.008711
2054.76	0.006451
2064.41	0.005291
2074.05	0.004621
2083.7	0.004271
2093.35	0.003901
2102.99	0.003511
2112.64	0.002941
2122.28	0.002371
2131.93	0.002151
2141.58	0.001971
2151.22	0.0017881
2160.87	0.0016406
2170.52	0.0015437
2180.16	0.0014198
2189.81	0.0014193
2199.46	0.0013427
2209.1	0.0012716
2218.75	0.0012602
2228.4	0.0012285
2238.04	0.0011999
2247.69	0.0011323
2257.34	0.0011247
2266.98	0.0010843
2276.63	0.000995
2286.28	0.0010052
2295.92	0.0009799
2305.57	0.0009835
2315.22	0.0009999
2324.86	0.0009974
2334.51	0.0009732
2344.16	0.00092415
2353.8	0.00094134
2363.45	0.000850798
2373.09	0.00088276
2382.74	0.0008188
2392.39	0.0008464
2402.03	0.0008046
2411.68	0.00075
2421.33	0.0007839
2430.97	0.0008134
2440.62	0.0008178
2450.27	0.0008049
2459.91	0.0008306
2469.56	0.0008333
2479.21	0.000851816
2488.85	0.0008787
2498.5	0.00090597
2508.15	0.00089447
2517.79	0.00093493
2527.44	0.00087363
2537.09	0.00089934
2546.73	0.00092691
2556.38	0.00091956
2566.03	0.00092998
2575.67	0.0008212
2585.32	0.0007955
2594.96	0.000855602
2604.61	0.0008029
2614.26	0.000855308
2623.9	0.00093558
2633.55	0.00094018
2643.2	0.00097
2652.84	0.00094155
2662.49	0.00093985
2672.14	0.0009579
2681.78	0.00089779
2691.43	0.00088728
2701.08	0.00088518
2710.72	0.0007801
2720.37	0.00086986
2730.02	0.0008111
2739.66	0.000719
2749.31	0.000746
2758.96	0.0007809
2768.6	0.000706
2778.25	0.000671
2787.9	0.000669
2797.54	0.000699
2807.19	0.000699
2816.84	0.000667
2826.48	0.000664
2836.13	0.000685
2845.77	0.000618
2855.42	0.0007612
2865.07	0.000581
2874.71	0.000665
2884.36	0.000622
2894.01	0.0007763
2903.65	0.0007
2913.3	0.000506
2922.95	0.000594
2932.59	0.000637
2942.24	0.000493
2951.89	0.000597
2961.53	0.000525
2971.18	0.000589
2980.83	0.000591
2990.47	0.000547
3000.12	0.00054
3009.77	0.000539
3019.41	0.00057
3029.06	0.000596
3038.71	0.000406
3048.35	0.000446
3058	0.0007616
3067.64	0.00093063
3077.29	0.0010733
3086.94	0.0010024
3096.58	0.000715
3106.23	0.000453
3115.88	0.000285
3125.52	0.000327
3135.17	0.0004
3144.82	0.00049
3154.46	0.000256
3164.11	0.000456
3173.76	0.000307
3183.4	0.000428
3193.05	0.000401
3202.7	0.000276
3212.34	0.000368
3221.99	0.000373
3231.64	0.000359
3241.28	0.000104
3250.93	0.000111
3260.58	0.000245
3270.22	0.00035
3279.87	0.000246
3289.52	0.00026
3299.16	0.00014
3308.81	0.000295
3318.45	0.000289
3328.1	0.000288
3337.75	0.000108
3347.39	0.000155
3357.04	0.000166
3366.69	0.00027
3376.33	0.000362
3385.98	0.000219
3395.63	0.000282
3405.27	0.000254
3414.92	0.000207
3424.57	0.000329
3434.21	0.000477
3443.86	0.000344
3453.51	0.000289
3463.15	0.000236
3472.8	0.000354
3482.45	0.000473
3492.09	0.000318
3501.74	0.000291
3511.39	0.00037
3521.03	0.000438
3530.68	0.000461
3540.33	0.000417
3549.97	0.000492
3559.62	0.000396
3569.26	0.000354
3578.91	0.000313
3588.56	0.000434
3598.2	0.000284
3607.85	0.000423
3617.5	0.000464
3627.14	0.000456
3636.79	0.000418
3646.44	0.000431
3656.08	0.000449
3665.73	0.000515
3675.38	0.000452
3685.02	0.000442
3694.67	0.000488
3704.32	0.00048
3713.96	0.000499
3723.61	0.000472
3733.26	0.000583
3742.9	0.000529
3752.55	0.00048
3762.2	0.000478
3771.84	0.000557
3781.49	0.000572
3791.13	0.00052
3800.78	0.000529
3810.43	0.000561
3820.07	0.000536
3829.72	0.000546
3839.37	0.000684
3849.01	0.000563
3858.66	0.000636
3868.31	0.000744
3877.95	0.000622
3887.6	0.000586
3897.25	0.000616
3906.89	0.000638
3916.54	0.000686
3926.19	0.0007948
3935.83	0.000638
3945.48	0.000674
3955.13	0.000742
3964.77	0.000769
3974.42	0.0008315
3984.07	0.000632
3993.71	0.000624
