Infrared Spectrum: 1-(CHLOROACETYL)-2-(P-CHLOROBENZOYL) HYDRAZINE
Formula: C9 H8 Cl2 N2 O2
CAS: 50677-27-5
State: SOLID (MINERAL OIL MULL)
Class: COBLENTZ
Instrument: Not specified, most likely a prism, grating, or hybrid spectrometer.
Sampling: TRANSMISSION
Resolution: 4
Origin: DOW CHEMICAL COMPANY
MICROMETERS	TRANSMITTANCE
2.027	0.608
2.06708	0.625
2.10715	0.632
2.14723	0.64
2.1873	0.648
2.22738	0.645
2.26746	0.628
2.30753	0.627
2.34761	0.642
2.38768	0.655
2.42776	0.66
2.46784	0.687
2.50791	0.7
2.54799	0.702
2.58806	0.705
2.62814	0.715
2.66822	0.734
2.70829	0.737
2.74837	0.744
2.78844	0.745
2.82852	0.745
2.8686	0.744
2.90867	0.737
2.94875	0.719
2.98882	0.648
3.0289	0.498
3.06898	0.307
3.10905	0.073
3.14913	0.048
3.1892	0.157
3.22928	0.275
3.26936	0.321
3.30943	0.25
3.34951	0.187
3.38958	0.015
3.42966	0.015
3.46974	0.033
3.50981	0.167
3.54989	0.52
3.58996	0.627
3.63004	0.675
3.67012	0.665
3.71019	0.7
3.75027	0.712
3.79034	0.735
3.83042	0.745
3.8705	0.755
3.91057	0.775
3.95065	0.802
3.99073	0.812
4.0308	0.824
4.07088	0.827
4.11095	0.836
4.15103	0.832
4.19111	0.866
4.23118	0.864
4.27126	0.844
4.31133	0.831
4.35141	0.849
4.39149	0.864
4.43156	0.867
4.47164	0.874
4.51171	0.874
4.55179	0.874
4.59187	0.877
4.63194	0.879
4.67202	0.882
4.71209	0.886
4.75217	0.896
4.79225	0.897
4.83232	0.896
4.8724	0.894
4.91247	0.894
4.95255	0.896
4.99263	0.903
5.0327	0.903
5.07278	0.901
5.11285	0.904
5.15293	0.896
5.19301	0.891
5.23308	0.882
5.27316	0.908
5.31323	0.897
5.35331	0.904
5.39339	0.904
5.43346	0.903
5.47354	0.897
5.51361	0.894
5.55369	0.889
5.59377	0.876
5.63384	0.881
5.67392	0.872
5.71399	0.864
5.75407	0.847
5.79415	0.821
5.83422	0.772
5.8743	0.702
5.91437	0.563
5.95445	0.341
5.99453	0.391
6.0346	0.479
6.07468	0.466
6.11475	0.351
6.15483	0.16
6.19491	0.025
6.23498	0.013
6.27506	0.031
6.31513	0.128
6.35521	0.178
6.39529	0.11
6.43536	0.275
6.47544	0.392
6.51551	0.494
6.55559	0.513
6.59567	0.491
6.63574	0.285
6.67582	0.188
6.71589	0.295
6.75597	0.155
6.79605	0.08
6.83612	0.075
6.8762	0.15
6.91627	0.279
6.95635	0.419
6.99643	0.466
7.0365	0.479
7.07658	0.576
7.11665	0.558
7.15673	0.543
7.19681	0.476
7.23688	0.312
7.27696	0.346
7.31703	0.461
7.35711	0.553
7.39719	0.563
7.43726	0.565
7.47734	0.555
7.51741	0.543
7.55749	0.535
7.59757	0.523
7.63764	0.511
7.67772	0.511
7.7178	0.486
7.75787	0.456
7.79795	0.404
7.83802	0.421
7.8781	0.521
7.91818	0.548
7.95825	0.555
7.99833	0.51
8.0384	0.394
8.07848	0.381
8.11856	0.438
8.15863	0.473
8.19871	0.498
8.23878	0.538
8.27886	0.56
8.31894	0.58
8.35901	0.595
8.39909	0.6
8.43916	0.57
8.47924	0.578
8.51932	0.605
8.55939	0.608
8.59947	0.576
8.63954	0.466
8.67962	0.367
8.7197	0.433
8.75977	0.526
8.79985	0.568
8.83992	0.581
8.88	0.581
8.92008	0.553
8.96015	0.464
9.00023	0.446
9.0403	0.454
9.08038	0.409
9.12046	0.312
9.16053	0.356
9.20061	0.488
9.24068	0.561
9.28076	0.576
9.32084	0.59
9.36091	0.608
9.40099	0.625
9.44106	0.64
9.48114	0.648
9.52122	0.66
9.56129	0.668
9.60137	0.675
9.64144	0.678
9.68152	0.687
9.7216	0.69
9.76167	0.688
9.80175	0.63
9.84182	0.57
9.8819	0.605
9.92198	0.602
9.96205	0.632
10.0021	0.698
10.0422	0.729
10.0823	0.735
10.1224	0.735
10.1624	0.735
10.2025	0.735
10.2426	0.727
10.2827	0.68
10.3227	0.692
10.3628	0.729
10.4029	0.742
10.443	0.742
10.483	0.747
10.5231	0.764
10.5632	0.77
10.6033	0.775
10.6433	0.779
10.6834	0.779
10.7235	0.77
10.7636	0.722
10.8036	0.627
10.8437	0.551
10.8838	0.647
10.9239	0.742
10.964	0.769
11.004	0.777
11.0441	0.782
11.0842	0.789
11.1243	0.789
11.1643	0.785
11.2044	0.782
11.2445	0.785
11.2846	0.789
11.3246	0.789
11.3647	0.785
11.4048	0.755
11.4449	0.677
11.4849	0.555
11.525	0.481
11.5651	0.571
11.6052	0.7
11.6452	0.73
11.6853	0.71
11.7254	0.578
11.7655	0.302
11.8055	0.23
11.8456	0.456
11.8857	0.653
11.9258	0.717
11.9659	0.745
12.0059	0.76
12.046	0.774
12.0861	0.782
12.1262	0.789
12.1662	0.789
12.2063	0.79
12.2464	0.784
12.2865	0.775
12.3265	0.759
12.3666	0.737
12.4067	0.732
12.4468	0.737
12.4868	0.74
12.5269	0.729
12.567	0.698
12.6071	0.653
12.6471	0.59
12.6872	0.528
12.7273	0.479
12.7674	0.479
12.8074	0.511
12.8475	0.56
12.8876	0.593
12.9277	0.618
12.9678	0.627
13.0078	0.62
13.0479	0.586
13.088	0.526
13.1281	0.443
13.1681	0.381
13.2082	0.367
13.2483	0.424
13.2884	0.525
13.3284	0.585
13.3685	0.608
13.4086	0.633
13.4487	0.635
13.4887	0.615
13.5288	0.566
13.5689	0.525
13.609	0.515
13.649	0.533
13.6891	0.568
13.7292	0.573
13.7693	0.566
13.8094	0.55
13.8494	0.528
13.8895	0.505
13.9296	0.481
13.9697	0.478
14.0097	0.494
14.0498	0.525
14.0899	0.56
14.13	0.571
14.17	0.585
14.2101	0.583
14.2502	0.575
14.2903	0.56
14.3303	0.535
14.3704	0.506
14.4105	0.479
14.4506	0.456
14.4906	0.439
14.5307	0.428
14.5708	0.404
14.6109	0.379
14.6509	0.339
14.691	0.301
14.7311	0.26
14.7712	0.235
14.8113	0.204
14.8513	0.193
14.8914	0.195
14.9315	0.202
14.9716	0.224
15.0116	0.237
15.0517	0.254
15.0918	0.265
15.1319	0.282
15.1719	0.299
15.212	0.311
15.2521	0.322
15.2922	0.329
15.3322	0.329
15.3723	0.329
15.4124	0.327
15.4525	0.324
15.4925	0.319
15.5326	0.316
15.5727	0.311
15.6128	0.311
15.6528	0.309
15.6929	0.309
15.733	0.316
15.7731	0.321
15.8132	0.329
15.8532	0.336
15.8933	0.339
