Infrared Spectrum: Purine, 6-(o-chlorobenzyl thio)-
Formula: C12 H9 Cl N4 S
CAS: 5069-68-1
State: SOLID (1.1 mg / 650 mg KBr DISC)
Class: COBLENTZ III
Instrument: PERKIN-ELMER 21 (GRATING)
Instrument parameters: FILTER CHANGE ABOUT 1075 CM^-^1
Sampling: TRANSMISSION
Resolution: 2
Origin: SOUTHERN RESEARCH INSTITUTE
1/CM	TRANSMITTANCE
604	0.8098
613.026	0.7987
622.052	0.7819
631.078	0.779
640.104	0.6369
649.131	0.942
658.157	0.9339
667.183	0.8088
676.209	0.7986
685.235	0.8194
694.261	0.8858
703.287	0.8782
712.313	0.8538
721.34	0.8402
730.366	0.5547
739.392	0.5844
748.418	0.7209
757.444	0.5497
766.47	0.6412
775.496	0.7683
784.522	0.7661
793.548	0.5874
802.575	0.7378
811.601	0.7155
820.627	0.6353
829.653	0.5588
838.679	0.4984
847.705	0.3274
856.731	0.5939
865.757	0.5924
874.784	0.5427
883.81	0.5834
892.836	0.6544
901.862	0.6494
910.888	0.6363
919.914	0.5807
928.94	0.5374
937.966	0.4409
946.992	0.3317
956.019	0.5686
965.045	0.735
974.071	0.7253
983.097	0.7078
992.123	0.6569
1001.15	0.67
1010.18	0.7323
1019.2	0.7214
1028.23	0.6288
1037.25	0.6247
1046.28	0.6943
1055.31	0.5206
1064.33	0.766
1073.36	0.7705
1082.38	0.7408
1091.41	0.7373
1100.44	0.7292
1109.46	0.7141
1118.49	0.6583
1127.51	0.6445
1136.54	0.6647
1145.57	0.6666
1154.59	0.6673
1163.62	0.671
1172.65	0.6811
1181.67	0.6758
1190.7	0.666
1199.72	0.6537
1208.75	0.6028
1217.78	0.5755
1226.8	0.4253
1235.83	0.1558
1244.85	0.2795
1253.88	0.5112
1262.91	0.6514
1271.93	0.6907
1280.96	0.65
1289.98	0.6731
1299.01	0.7231
1308.04	0.719
1317.06	0.6762
1326.09	0.3699
1335.12	0.5307
1344.14	0.7212
1353.17	0.7251
1362.19	0.7012
1371.22	0.6657
1380.25	0.4611
1389.27	0.2041
1398.3	0.51
1407.32	0.6192
1416.35	0.5793
1425.38	0.4553
1434.4	0.5636
1443.43	0.4973
1452.46	0.5217
1461.48	0.6465
1470.51	0.6335
1479.53	0.4425
1488.56	0.5872
1497.59	0.6893
1506.61	0.6949
1515.64	0.6749
1524.66	0.6437
1533.69	0.6273
1542.72	0.5785
1551.74	0.4796
1560.77	0.2919
1569.79	0.1132
1578.82	0.1635
1587.85	0.3518
1596.87	0.2746
1605.9	0.5441
1614.93	0.6586
1623.95	0.6899
1632.98	0.6941
1642	0.6994
1651.03	0.7011
1660.06	0.7089
1669.08	0.7176
1678.11	0.7168
1687.13	0.7094
1696.16	0.7006
1705.19	0.6923
1714.21	0.6887
1723.24	0.6866
1732.26	0.6808
1741.29	0.6742
1750.32	0.6691
1759.34	0.6679
1768.37	0.6628
1777.4	0.6642
1786.42	0.6711
1795.45	0.6736
1804.47	0.6747
1813.5	0.6759
1822.53	0.6762
1831.55	0.6789
1840.58	0.6844
1849.6	0.6881
1858.63	0.6846
1867.66	0.6769
1876.68	0.6736
1885.71	0.6788
1894.73	0.6923
1903.76	0.6972
1912.79	0.6975
1921.81	0.6964
1930.84	0.6967
1939.87	0.6992
1948.89	0.695
1957.92	0.6928
1966.94	0.698
1975.97	0.704
1985	0.7041
1994.02	0.7043
2003.05	0.7049
2012.07	0.7055
2021.1	0.7033
2030.13	0.7009
2039.15	0.6998
2048.18	0.6984
2057.2	0.6923
2066.23	0.6891
2075.26	0.6893
2084.28	0.6882
2093.31	0.6854
2102.34	0.6792
2111.36	0.6718
2120.39	0.6665
2129.41	0.6628
2138.44	0.6597
2147.47	0.656
2156.49	0.652
2165.52	0.648
2174.54	0.6441
2183.57	0.6405
2192.6	0.6369
2201.62	0.6323
2210.65	0.6257
2219.67	0.6151
2228.7	0.6126
2237.73	0.6099
2246.75	0.6064
2255.78	0.6013
2264.81	0.5948
2273.83	0.5891
2282.86	0.5839
2291.88	0.5791
2300.91	0.5723
2309.94	0.5595
2318.96	0.5412
2327.99	0.5197
2337.01	0.5115
2346.04	0.5072
2355.07	0.5053
2364.09	0.504
2373.12	0.5037
2382.15	0.5044
2391.17	0.5053
2400.2	0.5066
2409.22	0.5035
2418.25	0.4971
2427.28	0.4908
2436.3	0.4855
2445.33	0.4825
2454.35	0.4822
2463.38	0.4761
2472.41	0.4643
2481.43	0.452
2490.46	0.442
2499.48	0.4354
2508.51	0.4295
2517.54	0.4242
2526.56	0.42
2535.59	0.4162
2544.62	0.4135
2553.64	0.4135
2562.67	0.4142
2571.69	0.4175
2580.72	0.4217
2589.75	0.427
2598.77	0.4324
2607.8	0.4345
2616.82	0.4338
2625.85	0.4291
2634.88	0.4223
2643.9	0.4141
2652.93	0.4056
2661.95	0.3978
2670.98	0.3956
2680.01	0.3998
2689.03	0.4056
2698.06	0.4127
2707.09	0.418
2716.11	0.4228
2725.14	0.4285
2734.16	0.4326
2743.19	0.4292
2752.22	0.4216
2761.24	0.4106
2770.27	0.4028
2779.29	0.3984
2788.32	0.4056
2797.35	0.4159
2806.37	0.4268
2815.4	0.44
2824.42	0.4575
2833.45	0.4753
2842.48	0.4896
2851.5	0.4957
2860.53	0.5172
2869.56	0.5196
2878.58	0.5189
2887.61	0.5186
2896.63	0.5122
2905.66	0.5017
2914.69	0.4916
2923.71	0.4811
2932.74	0.4711
2941.76	0.464
2950.79	0.461
2959.82	0.4641
2968.84	0.4689
2977.87	0.4753
2986.89	0.4828
2995.92	0.4873
3004.95	0.491
3013.97	0.515
3023	0.5309
3032.03	0.5309
3041.05	0.5271
3050.08	0.5182
3059.1	0.5043
3068.13	0.4685
3077.16	0.4671
3086.18	0.4806
3095.21	0.5064
3104.23	0.5302
3113.26	0.5337
3122.29	0.5447
3131.31	0.5675
3140.34	0.5858
3149.37	0.593
3158.39	0.5956
3167.42	0.595
3176.44	0.5931
3185.47	0.5916
3194.5	0.5917
3203.52	0.5969
3212.55	0.6029
3221.57	0.6065
3230.6	0.6066
3239.63	0.6052
3248.65	0.6044
3257.68	0.6038
3266.7	0.6034
3275.73	0.6024
3284.76	0.6008
3293.78	0.5988
3302.81	0.5968
3311.84	0.594
3320.86	0.5906
3329.89	0.5852
3338.91	0.5807
3347.94	0.5764
3356.97	0.5725
3365.99	0.5682
3375.02	0.5622
3384.04	0.5537
3393.07	0.5386
3402.1	0.5305
3411.12	0.5249
3420.15	0.5174
3429.17	0.5098
3438.2	0.5036
3447.23	0.5014
3456.25	0.5015
3465.28	0.5035
3474.31	0.5062
3483.33	0.5099
3492.36	0.5136
3501.38	0.5173
3510.41	0.5212
3519.44	0.5265
3528.46	0.531
3537.49	0.5352
3546.51	0.5399
3555.54	0.5492
3564.57	0.5521
3573.59	0.554
3582.62	0.5649
3591.64	0.5747
3600.67	0.5841
3609.7	0.5936
3618.72	0.6003
3627.75	0.607
3636.78	0.6136
3645.8	0.6215
3654.83	0.6267
3663.85	0.6291
3672.88	0.63
3681.91	0.6306
3690.93	0.6309
3699.96	0.6312
3708.98	0.6306
3718.01	0.6299
3727.04	0.63
3736.06	0.6304
3745.09	0.6304
3754.11	0.6296
3763.14	0.6248
3772.17	0.6245
3781.19	0.6259
3790.22	0.6266
3799.25	0.6272
3808.27	0.6279
3817.3	0.6277
3826.32	0.6275
3835.35	0.6264
3844.38	0.6239
3853.4	0.6193
3862.43	0.6181
3871.45	0.6171
3880.48	0.6166
3889.51	0.6165
3898.53	0.6164
3907.56	0.616
3916.59	0.6157
3925.61	0.6153
3934.64	0.615
3943.66	0.6146
3952.69	0.6142
3961.72	0.6142
3970.74	0.6142
3979.77	0.6141
3988.79	0.6143
3997.82	0.6145
4006.85	0.6147
4015.87	0.6144
4024.9	0.614
4033.92	0.6144
4042.95	0.6149
4051.98	0.6155
