Infrared Spectrum: Alpha-CHLOROACETO-MESITYLENE
Formula: C11 H13 Cl O
CAS: 50690-12-5
State: SOLID (1.0% IN KBr PELLET)
Class: COBLENTZ
Instrument: Not specified, most likely a prism, grating, or hybrid spectrometer.
Sampling: TRANSMISSION
Path length: 0.0355 CM THICK
Resolution: 4
Origin: ANDERSON PHYSICAL LABORATORY
1/CM	TRANSMITTANCE
663.551	0.856
671.962	0.855
680.373	0.841
688.785	0.831
697.196	0.783
705.607	0.6141
714.018	0.2539
722.43	0.892
730.841	0.884
739.252	0.754
747.663	0.3061
756.074	0.3336
764.486	0.801
772.897	0.804
781.308	0.6991
789.719	0.648
798.131	0.75
806.542	0.937
814.953	0.983
823.364	0.985
831.775	0.968
840.187	0.923
848.598	0.6561
857.009	0.2999
865.42	0.9139
873.832	0.952
882.243	0.949
890.654	0.82
899.065	0.905
907.477	0.962
915.888	0.959
924.299	0.943
932.71	0.931
941.121	0.905
949.533	0.911
957.944	0.922
966.355	0.883
974.766	0.82
983.178	0.624
991.589	0.346
1000	0.852
1008.41	0.8381
1016.82	0.817
1025.23	0.811
1033.64	0.6931
1042.06	0.73
1050.47	0.862
1058.88	0.919
1067.29	0.929
1075.7	0.931
1084.11	0.925
1092.52	0.919
1100.93	0.91
1109.35	0.901
1117.76	0.892
1126.17	0.88
1134.58	0.859
1142.99	0.777
1151.4	0.3123
1159.81	0.7689
1168.22	0.751
1176.64	0.929
1185.05	0.917
1193.46	0.901
1201.87	0.84
1210.28	0.6452
1218.69	0.3189
1227.1	0.8399
1235.51	0.938
1243.93	0.943
1252.34	0.923
1260.75	0.946
1269.16	0.938
1277.57	0.89
1285.98	0.7391
1294.39	0.479
1302.8	0.5619
1311.22	0.926
1319.63	0.934
1328.04	0.928
1336.45	0.914
1344.86	0.896
1353.27	0.871
1361.68	0.856
1370.09	0.823
1378.51	0.729
1386.92	0.726
1395.33	0.4731
1403.74	0.333
1412.15	0.63
1420.56	0.627
1428.97	0.565
1437.38	0.562
1445.79	0.515
1454.21	0.46
1462.62	0.514
1471.03	0.585
1479.44	0.651
1487.85	0.698
1496.26	0.76
1504.67	0.796
1513.08	0.807
1521.5	0.802
1529.91	0.801
1538.32	0.793
1546.73	0.793
1555.14	0.774
1563.55	0.741
1571.96	0.693
1580.37	0.759
1588.79	0.79
1597.2	0.6592
1605.61	0.3962
1614.02	0.5564
1622.43	0.92
1630.84	0.934
1639.25	0.926
1647.66	0.914
1656.08	0.899
1664.49	0.862
1672.9	0.774
1681.31	0.736
1689.72	0.5941
1698.13	0.3283
1706.54	0.261
1714.95	0.0941
1723.37	0.1969
1731.78	0.4629
1740.19	0.662
1748.6	0.769
1757.01	0.837
1765.42	0.866
1773.83	0.874
1782.24	0.899
1790.66	0.928
1799.07	0.934
1807.48	0.937
1815.89	0.938
1824.3	0.938
1832.71	0.94
1841.12	0.94
1849.53	0.941
1857.94	0.947
1866.36	0.95
1874.77	0.949
1883.18	0.943
1891.59	0.944
1900	0.95
1908.41	0.947
1916.82	0.94
1925.23	0.938
1933.65	0.941
1942.06	0.947
1950.47	0.952
1958.88	0.953
1967.29	0.946
1975.7	0.941
1984.11	0.941
1992.52	0.952
2000.94	0.9595
2009.35	0.963
2017.76	0.964
2026.17	0.964
2034.58	0.962
2042.99	0.9574
2051.4	0.9552
2059.81	0.955
2068.23	0.955
2076.64	0.955
2085.05	0.955
2093.46	0.955
2101.87	0.958
2110.28	0.959
2118.69	0.961
2127.1	0.961
2135.52	0.961
2143.93	0.961
2152.34	0.962
2160.75	0.9681
2169.16	0.9703
2177.57	0.971
2185.98	0.9702
2194.39	0.9697
2202.81	0.9647
2211.22	0.964
2219.63	0.964
2228.04	0.9638
2236.45	0.9616
2244.86	0.9562
2253.27	0.9474
2261.68	0.9397
2270.09	0.9346
2278.51	0.932
2286.92	0.932
2295.33	0.9319
2303.74	0.9278
2312.15	0.9237
2320.56	0.92
2328.97	0.919
2337.38	0.917
2345.8	0.917
2354.21	0.917
2362.62	0.916
2371.03	0.9136
2379.44	0.9086
2387.85	0.905
2396.26	0.904
2404.67	0.904
2413.09	0.9013
2421.5	0.8991
2429.91	0.899
2438.32	0.9024
2446.73	0.9064
2455.14	0.907
2463.55	0.9066
2471.96	0.9045
2480.38	0.901
2488.79	0.899
2497.2	0.898
2505.61	0.898
2514.02	0.896
2522.43	0.895
2530.84	0.8945
2539.25	0.8925
2547.67	0.892
2556.08	0.89
2564.49	0.889
2572.9	0.887
2581.31	0.887
2589.72	0.886
2598.13	0.8837
2606.54	0.8788
2614.96	0.8724
2623.37	0.872
2631.78	0.871
2640.19	0.869
2648.6	0.8664
2657.01	0.8569
2665.42	0.852
2673.83	0.8494
2682.24	0.8445
2690.66	0.8409
2699.07	0.8353
2707.48	0.8272
2715.89	0.8224
2724.3	0.8199
2732.71	0.8149
2741.12	0.807
2749.53	0.7985
2757.95	0.7895
2766.36	0.7819
2774.77	0.7761
2783.18	0.7667
2791.59	0.7497
2800	0.7277
2808.41	0.7023
2816.82	0.6674
2825.24	0.6439
2833.65	0.6296
2842.06	0.622
2850.47	0.6067
2858.88	0.5862
2867.29	0.5599
2875.7	0.5265
2884.11	0.4883
2892.53	0.445
2900.94	0.3724
2909.35	0.3414
2917.76	0.4104
2926.17	0.4572
2934.58	0.4848
2942.99	0.488
2951.4	0.488
2959.82	0.4909
2968.23	0.539
2976.64	0.6177
2985.05	0.6538
2993.46	0.6718
3001.87	0.6983
3010.28	0.719
3018.69	0.735
3027.11	0.7463
3035.52	0.7555
3043.93	0.7623
3052.34	0.766
3060.75	0.7695
3069.16	0.773
3077.57	0.7765
3085.98	0.7781
3094.39	0.7803
3102.81	0.781
3111.22	0.7802
3119.63	0.778
3128.04	0.778
3136.45	0.778
3144.86	0.7772
3153.27	0.774
3161.68	0.7733
3170.1	0.7714
3178.51	0.7682
3186.92	0.766
3195.33	0.766
3203.74	0.766
3212.15	0.766
3220.56	0.7629
3228.97	0.76
3237.39	0.7578
3245.8	0.7561
3254.21	0.7528
3262.62	0.7506
3271.03	0.7461
3279.44	0.7422
3287.85	0.7386
3296.26	0.7312
3304.68	0.7271
3313.09	0.7213
3321.5	0.7165
3329.91	0.7098
3338.32	0.702
3346.73	0.6934
3355.14	0.6855
3363.55	0.6763
3371.97	0.661
3380.38	0.6541
3388.79	0.651
3397.2	0.651
3405.61	0.6524
3414.02	0.6539
3422.43	0.6562
3430.84	0.6595
3439.26	0.6627
3447.67	0.665
3456.08	0.6665
3464.49	0.67
3472.9	0.6742
3481.31	0.6809
3489.72	0.6877
3498.13	0.6935
3506.54	0.6982
3514.96	0.704
3523.37	0.7085
3531.78	0.7135
3540.19	0.7173
3548.6	0.723
3557.01	0.7278
3565.42	0.731
3573.83	0.7328
3582.25	0.738
3590.66	0.7426
3599.07	0.7445
3607.48	0.745
3615.89	0.7471
3624.3	0.75
3632.71	0.75
3641.12	0.75
3649.54	0.75
3657.95	0.75
3666.36	0.75
3674.77	0.75
3683.18	0.75
3691.59	0.75
3700	0.7488
3708.41	0.7472
3716.83	0.741
3725.24	0.7414
3733.65	0.7432
3742.06	0.744
3750.47	0.7419
3758.88	0.739
3767.29	0.7384
3775.7	0.738
3784.12	0.736
3792.53	0.736
3800.94	0.736
3809.35	0.736
3817.76	0.733
3826.17	0.732
3834.58	0.7293
3842.99	0.7261
3851.4	0.7238
3859.82	0.723
3868.23	0.723
3876.64	0.7211
3885.05	0.721
3893.46	0.7206
3901.87	0.72
3910.28	0.72
3918.69	0.72
3927.11	0.718
3935.52	0.718
3943.93	0.718
3952.34	0.717
3960.75	0.717
3969.16	0.715
3977.57	0.715
