Infrared Spectrum: ARSONIUM CHLORIDE, TETRAPHENYL-
Formula: C24 H20 Cl As
CAS: 507-28-8
State: SOLID (SPLIT MULL, FLUOROLUBE FOR 3800-1333 AND NUJOL FOR 1333-330 CM ^-^1)
Class: COBLENTZ III
Instrument: PERKIN-ELMER 521 (GRATING)
Instrument parameters: FILTERS AT 3150, 2500, 2000, 1150, 700, 410; GRATING CHANGES AT 2000, 630 CM^-^1
Sampling: TRANSMISSION
Resolution: 4
Origin: DOW CORNING CORP.
1/CM	TRANSMITTANCE
332.214	0.935
341.167	0.6205
350.12	0.344
359.073	0.677
368.025	0.247
376.978	0.8719
385.931	0.878
394.884	0.775
403.837	0.77
412.79	0.709
421.743	0.639
430.695	0.5881
439.648	0.536
448.601	0.463
457.554	0.3881
466.507	0.0641
475.46	0.1739
484.412	0.2305
493.365	0.374
502.318	0.36
511.271	0.325
520.224	0.2891
529.177	0.263
538.13	0.259
547.082	0.264
556.035	0.266
564.988	0.294
573.941	0.3639
582.894	0.458
591.847	0.5779
600.8	0.684
609.752	0.78
618.705	0.8219
627.658	0.815
636.611	0.879
645.564	0.937
654.517	0.951
663.47	0.8781
672.422	0.6627
681.375	0.3652
690.328	0.109
699.281	0.401
708.234	0.883
717.187	0.813
726.14	0.6961
735.092	0.3583
744.045	0.12
752.998	0.095
761.951	0.238
770.904	0.834
779.857	0.883
788.809	0.989
797.762	1.008
806.715	1.012
815.668	1.012
824.621	1.01
833.574	0.984
842.527	0.949
851.479	0.956
860.432	0.987
869.385	0.986
878.338	0.97
887.291	0.945
896.244	0.942
905.197	0.935
914.149	0.881
923.102	0.858
932.055	0.846
941.008	0.848
949.961	0.841
958.914	0.824
967.867	0.792
976.819	0.75
985.772	0.642
994.725	0.3185
1003.68	0.7465
1012.63	0.75
1021.58	0.5899
1030.54	0.7968
1039.49	0.813
1048.44	0.804
1057.4	0.759
1066.35	0.6061
1075.3	0.365
1084.25	0.135
1093.21	0.8339
1102.16	0.878
1111.11	0.895
1120.07	0.878
1129.02	0.853
1137.97	0.829
1146.92	0.764
1155.88	0.747
1164.83	0.736
1173.78	0.77
1182.73	0.642
1191.69	0.688
1200.64	0.8529
1209.59	0.876
1218.55	0.885
1227.5	0.879
1236.45	0.872
1245.4	0.872
1254.36	0.872
1263.31	0.862
1272.26	0.7941
1281.22	0.789
1290.17	0.824
1299.12	0.824
1308.07	0.832
1317.03	0.872
1325.98	0.897
1334.93	0.897
1343.89	0.933
1352.84	0.937
1361.79	0.939
1370.74	0.93
1379.7	0.926
1388.65	0.921
1397.6	0.916
1406.56	0.904
1415.51	0.898
1424.46	0.858
1433.41	0.7119
1442.37	0.6351
1451.32	0.973
1460.27	0.947
1469.23	0.8781
1478.18	0.869
1487.13	0.905
1496.08	0.991
1505.04	0.984
1513.99	0.973
1522.94	0.972
1531.9	0.965
1540.85	0.963
1549.8	0.952
1558.75	0.949
1567.71	0.939
1576.66	0.918
1585.61	0.935
1594.57	0.918
1603.52	0.895
1612.47	0.855
1621.42	0.8949
1630.38	0.923
1639.33	0.94
1648.28	0.954
1657.24	0.949
1666.19	0.954
1675.14	0.951
1684.09	0.947
1693.05	0.958
1702	0.952
1710.95	0.949
1719.91	0.949
1728.86	0.945
1737.81	0.935
1746.76	0.942
1755.72	0.945
1764.67	0.935
1773.62	0.93
1782.58	0.925
1791.53	0.932
1800.48	0.925
1809.43	0.925
1818.39	0.919
1827.34	0.918
1836.29	0.919
1845.25	0.919
1854.2	0.916
1863.15	0.919
1872.1	0.918
1881.06	0.918
1890.01	0.912
1898.96	0.911
1907.92	0.909
1916.87	0.907
1925.82	0.911
1934.77	0.911
1943.73	0.905
1952.68	0.904
1961.63	0.905
1970.59	0.907
1979.54	0.907
1988.49	0.909
1997.44	0.909
2006.4	0.909
2015.35	0.909
2024.3	0.909
2033.26	0.907
2042.21	0.907
2051.16	0.907
2060.11	0.904
2069.07	0.9022
2078.02	0.9011
2086.97	0.893
2095.93	0.891
2104.88	0.893
2113.83	0.8922
2122.78	0.8882
2131.74	0.891
2140.69	0.89
2149.64	0.885
2158.6	0.885
2167.55	0.8843
2176.5	0.878
2185.45	0.8787
2194.41	0.8764
2203.36	0.8746
2212.31	0.8744
2221.27	0.869
2230.22	0.8654
2239.17	0.862
2248.12	0.859
2257.08	0.8573
2266.03	0.8555
2274.98	0.851
2283.94	0.851
2292.89	0.851
2301.84	0.851
2310.79	0.85
2319.75	0.8571
2328.7	0.858
2337.65	0.8552
2346.61	0.853
2355.56	0.8503
2364.51	0.848
2373.46	0.844
2382.42	0.843
2391.37	0.843
2400.32	0.8405
2409.28	0.8364
2418.23	0.834
2427.18	0.834
2436.13	0.8308
2445.09	0.831
2454.04	0.831
2462.99	0.825
2471.95	0.8241
2480.9	0.8254
2489.85	0.8199
2498.8	0.815
2507.76	0.813
2516.71	0.816
2525.66	0.81
2534.62	0.805
2543.57	0.804
2552.52	0.8035
2561.47	0.804
2570.43	0.804
2579.38	0.804
2588.33	0.8036
2597.29	0.7961
2606.24	0.797
2615.19	0.796
2624.14	0.7952
2633.1	0.794
2642.05	0.7928
2651	0.789
2659.96	0.79
2668.91	0.7887
2677.86	0.7863
2686.81	0.787
2695.77	0.7843
2704.72	0.7803
2713.67	0.777
2722.63	0.777
2731.58	0.7773
2740.53	0.7718
2749.48	0.77
2758.44	0.768
2767.39	0.7637
2776.34	0.763
2785.3	0.769
2794.25	0.759
2803.2	0.7555
2812.15	0.7567
2821.11	0.757
2830.06	0.752
2839.01	0.7498
2847.97	0.745
2856.92	0.7422
2865.87	0.745
2874.82	0.7428
2883.78	0.731
2892.73	0.729
2901.68	0.7283
2910.64	0.724
2919.59	0.7197
2928.54	0.719
2937.49	0.717
2946.45	0.717
2955.4	0.7148
2964.35	0.714
2973.31	0.7112
2982.26	0.7068
2991.21	0.7013
3000.16	0.698
3009.12	0.7002
3018.07	0.6949
3027.02	0.6919
3035.98	0.6909
3044.93	0.681
3053.88	0.675
3062.83	0.677
3071.79	0.696
3080.74	0.692
3089.69	0.7049
3098.65	0.7079
3107.6	0.7031
3116.55	0.707
3125.5	0.702
3134.46	0.6902
3143.41	0.6682
3152.36	0.665
3161.32	0.665
3170.27	0.6626
3179.22	0.66
3188.17	0.655
3197.13	0.6513
3206.08	0.6473
3215.03	0.6423
3223.99	0.641
3232.94	0.6393
3241.89	0.6383
3250.84	0.637
3259.8	0.6334
3268.75	0.6276
3277.7	0.6224
3286.66	0.6144
3295.61	0.6104
3304.56	0.6065
3313.51	0.5999
3322.47	0.5925
3331.42	0.585
3340.37	0.5785
3349.33	0.5714
3358.28	0.5625
3367.23	0.5496
3376.18	0.5416
3385.14	0.526
3394.09	0.5176
3403.04	0.5093
3412	0.499
3420.95	0.493
3429.9	0.4966
3438.85	0.5052
3447.81	0.5119
3456.76	0.515
3465.71	0.5095
3474.67	0.503
3483.62	0.5072
3492.57	0.5263
3501.52	0.5553
3510.48	0.5833
3519.43	0.61
3528.38	0.632
3537.34	0.6372
3546.29	0.6461
3555.24	0.648
3564.19	0.6511
3573.15	0.655
3582.1	0.658
3591.05	0.6625
3600.01	0.665
3608.96	0.663
3617.91	0.663
3626.86	0.6611
3635.82	0.66
3644.77	0.6571
3653.72	0.655
3662.68	0.6521
3671.63	0.649
3680.58	0.6472
3689.53	0.644
3698.49	0.642
3707.44	0.6392
3716.39	0.639
3725.35	0.6372
3734.3	0.635
3743.25	0.634
3752.2	0.6333
3761.16	0.63
3770.11	0.628
3779.06	0.628
3788.02	0.627
