Infrared Spectrum: Hexafluoroglutaramide
Formula: C 5 H 4 F 6 N 2 O 2
CAS: 507-68-6
State: gas
Origin: EPA-IR VAPOR PHASE LIBRARY
1/CM	ABSORBANCE
549.8	0.00274
559.445	0.00352
569.09	0.00247
578.734	0.00352
588.379	0.00304
598.024	0.00427
607.669	0.00405
617.313	0.00364
626.958	0.00411
636.603	0.00468
646.248	0.00409
655.893	0.00253
665.537	0.00222
675.182	0.00225
684.827	0.00114708
694.472	0.0022
704.116	0.001491
713.761	0.0017148
723.406	0.0013112
733.051	0.0021
742.695	0.00211
752.34	0.00267
761.985	0.00331
771.63	0.0019896
781.275	0.0025
790.919	0.0017883
800.564	0.00271
810.209	0.00216
819.854	0.00251
829.498	0.00292
839.143	0.00367
848.788	0.00352
858.433	0.00387
868.078	0.00445
877.722	0.00458
887.367	0.00575
897.012	0.00535
906.657	0.00451
916.301	0.00471
925.946	0.00622
935.591	0.0062
945.236	0.00376
954.88	0.00361
964.525	0.0016469
974.17	0.0016466
983.815	0.00214
993.46	0.0018896
1003.1	0.0015687
1012.75	0.0018185
1022.39	0.00348
1032.04	0.00392
1041.68	0.00366
1051.33	0.00225
1060.97	0.0017647
1070.62	0.00285
1080.26	0.00389
1089.91	0.00262
1099.55	0.00328
1109.2	0.0066
1118.84	0.00624
1128.49	0.00882
1138.13	0.01094
1147.78	0.01421
1157.42	0.01377
1167.07	0.01635
1176.71	0.01832
1186.36	0.01639
1196	0.01301
1205.64	0.01068
1215.29	0.00829
1224.93	0.00742
1234.58	0.00632
1244.22	0.00624
1253.87	0.00588
1263.51	0.00639
1273.16	0.00521
1282.8	0.00313
1292.45	0.00288
1302.09	0.00249
1311.74	0.00238
1321.38	0.00219
1331.03	0.00244
1340.67	0.00286
1350.32	0.00454
1359.96	0.00633
1369.61	0.00704
1379.25	0.00581
1388.9	0.00339
1398.54	0.00246
1408.18	0.00209
1417.83	0.0015725
1427.47	0.0015761
1437.12	0.0013298
1446.76	0.0016517
1456.41	0.0012476
1466.05	0.0012586
1475.7	0.00144
1485.34	0.0013222
1494.99	0.0011827
1504.63	0.000954
1514.28	0.00111456
1523.92	0.0014798
1533.57	0.00108931
1543.21	0.001353
1552.86	0.0013625
1562.5	0.0019199
1572.15	0.00284
1581.79	0.00629
1591.44	0.01003
1601.08	0.00774
1610.73	0.0042
1620.37	0.00273
1630.01	0.00212
1639.66	0.0015752
1649.3	0.0016847
1658.95	0.0016756
1668.59	0.0015932
1678.24	0.0015506
1687.88	0.0017017
1697.53	0.0015569
1707.17	0.00241
1716.82	0.00312
1726.46	0.00409
1736.11	0.00532
1745.75	0.00805
1755.4	0.01669
1765.04	0.0305
1774.69	0.03344
1784.33	0.01801
1793.98	0.00826
1803.62	0.00532
1813.27	0.00366
1822.91	0.00252
1832.55	0.001778
1842.2	0.0017436
1851.84	0.0015871
1861.49	0.0013899
1871.13	0.00115406
1880.78	0.0011952
1890.42	0.0012198
1900.07	0.0010453
1909.71	0.0012015
1919.36	0.0010171
1929	0.001379
1938.65	0.0012446
1948.29	0.0009878
1957.94	0.00108631
1967.58	0.00109473
1977.23	0.0010242
1986.87	0.0011646
1996.52	0.00115625
2006.16	0.000958
2015.81	0.0009949
2025.45	0.000937
2035.1	0.000718
2044.74	0.00115663
2054.38	0.0010013
2064.03	0.000927
2073.67	0.00094
2083.32	0.000656
2092.96	0.000924
2102.61	0.0009902
2112.25	0.000739
2121.9	0.000946
2131.54	0.000903
2141.19	0.000613
2150.83	0.000943
2160.48	0.000758
2170.12	0.0009819
2179.77	0.00092
2189.41	0.000925
2199.06	0.0009824
2208.7	0.000682
2218.35	0.0010274
2227.99	0.000825
2237.64	0.0009881
2247.28	0.000875
2256.92	0.0012753
2266.57	0.00109736
2276.21	0.000807
2285.86	0.000902
2295.5	0.000752
2305.15	0.000815
2314.79	0.00073
2324.44	0.000773
2334.08	0.000879
2343.73	0.000638
2353.37	0.000682
2363.02	0.000704
2372.66	0.000774
2382.31	0.000865
2391.95	0.00107136
2401.6	0.000765
2411.24	0.000813
2420.89	0.000959
2430.53	0.000905
2440.18	0.000924
2449.82	0.000847
2459.47	0.00087
2469.11	0.000768
2478.75	0.000674
2488.4	0.000828
2498.04	0.000875
2507.69	0.000696
2517.33	0.000702
2526.98	0.000644
2536.62	0.000647
2546.27	0.000931
2555.91	0.00101
2565.56	0.000686
2575.2	0.0009697
2584.85	0.0009653
2594.49	0.00108322
2604.14	0.000575
2613.78	0.000765
2623.43	0.0007
2633.07	0.000792
2642.72	0.000687
2652.36	0.000702
2662.01	0.000644
2671.65	0.000549
2681.29	0.000633
2690.94	0.000728
2700.58	0.000655
2710.23	0.000722
2719.87	0.000596
2729.52	0.000626
2739.16	0.000593
2748.81	0.000859
2758.45	0.000667
2768.1	0.00110293
2777.74	0.000925
2787.39	0.000595
2797.03	0.000505
2806.68	0.000896
2816.32	0.000299
2825.97	0.000533
2835.61	0.000855
2845.26	0.000556
2854.9	0.000813
2864.55	0.000509
2874.19	0.000662
2883.84	0.000745
2893.48	0.000878
2903.12	0.000541
2912.77	0.000582
2922.41	0.000881
2932.06	0.000222
2941.7	0.000683
2951.35	0.000613
2960.99	0
2970.64	0.00064
2980.28	0.000689
2989.93	0.000913
2999.57	0.000554
3009.22	0.000571
3018.86	0.0011718
3028.51	0.000915
3038.15	0.0005
3047.8	0.000358
3057.44	0.000956
3067.09	0.000804
3076.73	0.000724
3086.38	0.000749
3096.02	0.000708
3105.67	0.00113621
3115.31	0.000897
3124.95	9.8e-05
3134.6	0.000975
3144.24	0.000807
3153.89	0.000821
3163.53	0.0010098
3173.18	0.001314
3182.82	0.000651
3192.47	0.000476
3202.11	0.0010431
3211.76	0.000391
3221.4	0.0011917
3231.05	0.000357
3240.69	0.000661
3250.34	0.000846
3259.98	0.00065
3269.63	0.000949
3279.27	0.000522
3288.92	0.000351
3298.56	0.0012175
3308.21	0.000936
3317.85	0.000374
3327.49	0.000857
3337.14	0.000924
3346.78	0.0012141
3356.43	0.0010003
3366.07	0.000925
3375.72	0.0014661
3385.36	0.001498
3395.01	0.0020207
3404.65	0.00257
3414.3	0.00252
3423.94	0.0039
3433.59	0.00541
3443.23	0.00674
3452.88	0.00421
3462.52	0.00229
3472.17	0.0016148
3481.81	0.0018491
3491.46	0.0012552
3501.1	0.0020316
3510.75	0.0021
3520.39	0.0031
3530.04	0.0041
3539.68	0.00466
3549.32	0.00437
3558.97	0.00623
3568.61	0.00491
3578.26	0.0017881
3587.9	0.000955
3597.55	0.000921
3607.19	0.0013901
3616.84	0.000571
3626.48	0.000786
3636.13	0.0012807
3645.77	0.00105273
3655.42	0.000374
3665.06	0.000764
3674.71	0.00084
3684.35	0.00115691
3694	0.000402
3703.64	0.0014694
3713.29	0.0014468
3722.93	0.000765
3732.58	0.0011648
3742.22	0.000691
3751.86	0.000491
3761.51	0.000854
3771.15	0.001573
3780.8	0.0013705
3790.44	0.000913
3800.09	0.000837
3809.73	0.000422
3819.38	0.000746
3829.02	0.000574
3838.67	0.000821
3848.31	0.000897
3857.96	0.0013687
3867.6	0.000661
3877.25	0.000158
3886.89	0.000679
3896.54	0.0010169
3906.18	0.000916
3915.83	0.0013169
3925.47	0.000832
3935.12	0.0009665
3944.76	0.000433
3954.41	0.000541
3964.05	0.000783
3973.69	0.000658
3983.34	0.0009699
3992.98	0.000802
