Infrared Spectrum: 3-Methoxybenzylamine
Formula: C 8 H 11 N O
CAS: 5071-96-5
State: gas
Origin: EPA-IR VAPOR PHASE LIBRARY
1/CM	ABSORBANCE
549.9	0.00946
559.547	0.00933
569.193	0.00875
578.84	0.008
588.486	0.00765
598.133	0.00746
607.779	0.00748
617.426	0.00766
627.072	0.00782
636.719	0.00795
646.365	0.00824
656.012	0.00897
665.658	0.01071
675.305	0.01656
684.951	0.02625
694.598	0.03508
704.245	0.02906
713.891	0.02661
723.538	0.02727
733.184	0.02642
742.831	0.02715
752.477	0.0332
762.124	0.0448
771.77	0.05755
781.417	0.0612
791.063	0.05138
800.71	0.04056
810.356	0.03247
820.003	0.02654
829.649	0.02149
839.296	0.01859
848.943	0.0184
858.589	0.01921
868.236	0.02047
877.882	0.02059
887.529	0.01852
897.175	0.01609
906.822	0.0136
916.468	0.01093
926.115	0.00902
935.761	0.00769
945.408	0.00709
955.054	0.00724
964.701	0.00803
974.347	0.00829
983.994	0.00932
993.64	0.01069
1003.29	0.012
1012.93	0.01476
1022.58	0.02327
1032.23	0.03931
1041.87	0.05371
1051.52	0.05392
1061.17	0.03723
1070.81	0.01922
1080.46	0.01292
1090.11	0.01017
1099.75	0.00787
1109.4	0.00711
1119.05	0.0082
1128.69	0.0124
1138.34	0.02448
1147.99	0.04418
1157.63	0.05151
1167.28	0.03645
1176.92	0.02108
1186.57	0.0134
1196.22	0.01089
1205.86	0.0107
1215.51	0.01343
1225.16	0.01925
1234.8	0.03193
1244.45	0.06115
1254.1	0.10651
1263.74	0.12784
1273.39	0.09904
1283.04	0.06289
1292.68	0.04633
1302.33	0.03647
1311.98	0.02857
1321.62	0.02226
1331.27	0.01831
1340.92	0.01588
1350.56	0.01372
1360.21	0.01309
1369.86	0.01461
1379.5	0.01562
1389.15	0.01383
1398.79	0.01211
1408.44	0.01264
1418.09	0.01678
1427.73	0.03046
1437.38	0.04335
1447.03	0.04279
1456.67	0.04294
1466.32	0.04822
1475.97	0.05451
1485.61	0.064
1495.26	0.05091
1504.91	0.0224
1514.55	0.01142
1524.2	0.00941
1533.85	0.0093
1543.49	0.01005
1553.14	0.01222
1562.79	0.01858
1572.43	0.03439
1582.08	0.05924
1591.73	0.08148
1601.37	0.08738
1611.02	0.0666
1620.67	0.03888
1630.31	0.02129
1639.96	0.01314
1649.6	0.00972
1659.25	0.00715
1668.9	0.00574
1678.54	0.00467
1688.19	0.00412
1697.84	0.00391
1707.48	0.00392
1717.13	0.004
1726.78	0.00387
1736.42	0.00384
1746.07	0.00353
1755.72	0.00324
1765.36	0.0029254
1775.01	0.0026589
1784.66	0.0025027
1794.3	0.0024485
1803.95	0.0024693
1813.6	0.0026509
1823.24	0.0029206
1832.89	0.00307
1842.54	0.0029835
1852.18	0.0026647
1861.83	0.0023398
1871.47	0.002322
1881.12	0.0022026
1890.77	0.0021832
1900.41	0.0024165
1910.06	0.0029894
1919.71	0.00316
1929.35	0.0026915
1939	0.0019926
1948.65	0.001865
1958.29	0.001843
1967.94	0.001942
1977.59	0.0020585
1987.23	0.00207702
1996.88	0.0019771
2006.53	0.001897
2016.17	0.001877
2025.82	0.00205585
2035.47	0.00215103
2045.11	0.0022318
2054.76	0.0022538
2064.41	0.0021837
2074.05	0.0022182
2083.7	0.0021887
2093.35	0.00210411
2102.99	0.001887
2112.64	0.001664
2122.28	0.001554
2131.93	0.001551
2141.58	0.001647
2151.22	0.001721
2160.87	0.001772
2170.52	0.001713
2180.16	0.001669
2189.81	0.001658
2199.46	0.001669
2209.1	0.001538
2218.75	0.001332
2228.4	0.001114
2238.04	0.001083
2247.69	0.001
2257.34	0.00101
2266.98	0.00106
2276.63	0.00105
2286.28	0.00111
2295.92	0.001251
2305.57	0.001373
2315.22	0.001464
2324.86	0.001463
2334.51	0.001438
2344.16	0.001309
2353.8	0.001202
2363.45	0.001192
2373.09	0.001144
2382.74	0.001152
2392.39	0.001132
2402.03	0.001168
2411.68	0.001186
2421.33	0.001245
2430.97	0.001176
2440.62	0.001062
2450.27	0.001
2459.91	0.00103
2469.56	0.001067
2479.21	0.001107
2488.85	0.001168
2498.5	0.001252
2508.15	0.001309
2517.79	0.001361
2527.44	0.001505
2537.09	0.001507
2546.73	0.001502
2556.38	0.001445
2566.03	0.001418
2575.67	0.001393
2585.32	0.001379
2594.96	0.001402
2604.61	0.001441
2614.26	0.00142
2623.9	0.001336
2633.55	0.001337
2643.2	0.00135
2652.84	0.001344
2662.49	0.001272
2672.14	0.001271
2681.78	0.001353
2691.43	0.001354
2701.08	0.001444
2710.72	0.001684
2720.37	0.001884
2730.02	0.0021725
2739.66	0.00245
2749.31	0.0026184
2758.96	0.0027395
2768.6	0.0028232
2778.25	0.00318
2787.9	0.0039
2797.54	0.00498
2807.19	0.00654
2816.84	0.00929
2826.48	0.01427
2836.13	0.02436
2845.77	0.03061
2855.42	0.02799
2865.07	0.02488
2874.71	0.02432
2884.36	0.0244
2894.01	0.0262
2903.65	0.02876
2913.3	0.03122
2922.95	0.03259
2932.59	0.03604
2942.24	0.04397
2951.89	0.04385
2961.53	0.03344
2971.18	0.02191
2980.83	0.01643
2990.47	0.01784
3000.12	0.02649
3009.77	0.02676
3019.41	0.01913
3029.06	0.01748
3038.71	0.01894
3048.35	0.01988
3058	0.01942
3067.64	0.01833
3077.29	0.01669
3086.94	0.01319
3096.58	0.00839
3106.23	0.00547
3115.88	0.00363
3125.52	0.00215931
3135.17	0.001327
3144.82	0.00089
3154.46	0.00074
3164.11	0.00065
3173.76	0.00046
3183.4	0.00034
3193.05	0.00044
3202.7	0.00042
3212.34	0.00026
3221.99	0.00015
3231.64	0.00016
3241.28	2e-05
3250.93	0.00012
3260.58	0.00015
3270.22	6e-05
3279.87	0.00018
3289.52	0.00012
3299.16	0.00024
3308.81	0.00027
3318.45	0.00033
3328.1	0.0006
3337.75	0.001066
3347.39	0.001344
3357.04	0.001178
3366.69	0.00082
3376.33	0.00044
3385.98	0.00054
3395.63	0.00056
3405.27	0.00057
3414.92	0.00076
3424.57	0.00089
3434.21	0.00068
3443.86	0.00044
3453.51	0.00062
3463.15	0.00059
3472.8	0.00039
3482.45	0.00051
3492.09	0.00044
3501.74	0.00039
3511.39	0.00051
3521.03	0.00057
3530.68	0.00061
3540.33	0.00069
3549.97	0.00059
3559.62	0.0006
3569.26	0.00063
3578.91	0.00078
3588.56	0.00069
3598.2	0.00063
3607.85	0.00079
3617.5	0.0007
3627.14	0.0008
3636.79	0.00085
3646.44	0.00084
3656.08	0.00075
3665.73	0.00091
3675.38	0.00081
3685.02	0.00076
3694.67	0.00082
3704.32	0.00082
3713.96	0.0008
3723.61	0.00093
3733.26	0.00099
3742.9	0.00099
3752.55	0.00106
3762.2	0.00101
3771.84	0.00089
3781.49	0.00091
3791.13	0.0009
3800.78	0.001111
3810.43	0.00098
3820.07	0.001089
3829.72	0.00089
3839.37	0.001068
3849.01	0.00095
3858.66	0.001131
3868.31	0.001065
3877.95	0.001286
3887.6	0.001251
3897.25	0.001241
3906.89	0.00096
3916.54	0.001116
3926.19	0.001065
3935.83	0.00099
3945.48	0.00102
3955.13	0.00105
3964.77	0.001163
3974.42	0.001183
3984.07	0.001334
3993.71	0.001239
