Infrared Spectrum: 5-Chloro-2-methylbenzonitrile
Formula: C 8 H 6 Cl N
CAS: 50712-70-4
State: gas
Origin: EPA-IR VAPOR PHASE LIBRARY
1/CM	ABSORBANCE
549.8	0.00214
559.445	0.0069
569.09	0.00633
578.734	0.0048
588.379	0.00921
598.024	0.0075
607.669	0.00356
617.313	0.00174
626.958	0.00104
636.603	0.00175
646.248	0.00678
655.893	0.03318
665.537	0.03375
675.182	0.0064
684.827	0.00547
694.472	0.01109
704.116	0.01818
713.761	0.01218
723.406	0.00938
733.051	0.01077
742.695	0.01001
752.34	0.00994
761.985	0.01071
771.63	0.00577
781.275	0.00438
790.919	0.00933
800.564	0.03355
810.209	0.08756
819.854	0.14121
829.498	0.06768
839.143	0.0278
848.788	0.02084
858.433	0.05526
868.078	0.15663
877.722	0.15773
887.367	0.0856
897.012	0.03545
906.657	0.01076
916.301	0.00567
925.946	0.00619
935.591	0.00563
945.236	0.00431
954.88	0.00498
964.525	0.00669
974.17	0.00871
983.815	0.01132
993.46	0.01449
1003.1	0.01318
1012.75	0.00846
1022.39	0.00669
1032.04	0.00809
1041.68	0.01104
1051.33	0.01312
1060.97	0.0118
1070.62	0.01318
1080.26	0.04097
1089.91	0.05708
1099.55	0.02418
1109.2	0.02015
1118.84	0.06386
1128.49	0.1114
1138.13	0.0781
1147.78	0.01537
1157.42	0.00882
1167.07	0.02076
1176.71	0.05625
1186.36	0.06379
1196	0.03492
1205.64	0.02546
1215.29	0.01735
1224.93	0.00976
1234.58	0.00853
1244.22	0.00952
1253.87	0.01322
1263.51	0.01911
1273.16	0.03044
1282.8	0.03084
1292.45	0.01657
1302.09	0.00718
1311.74	0.00569
1321.38	0.00618
1331.03	0.00705
1340.67	0.00741
1350.32	0.00708
1359.96	0.00735
1369.61	0.0101
1379.25	0.02303
1388.9	0.04363
1398.54	0.04371
1408.18	0.02425
1417.83	0.01863
1427.47	0.02038
1437.12	0.02654
1446.76	0.03713
1456.41	0.06708
1466.05	0.1323
1475.7	0.17394
1485.34	0.20777
1494.99	0.14073
1504.63	0.03574
1514.28	0.02272
1523.92	0.01861
1533.57	0.01787
1543.21	0.01855
1552.86	0.02249
1562.5	0.02998
1572.15	0.03041
1581.79	0.02416
1591.44	0.03297
1601.08	0.03197
1610.73	0.0142
1620.37	0.01054
1630.01	0.01335
1639.66	0.01161
1649.3	0.00618
1658.95	0.00336
1668.59	0.00223
1678.24	0.00205
1687.88	0.0025
1697.53	0.00272
1707.17	0.00262
1716.82	0.00218
1726.46	0.00204
1736.11	0.00345
1745.75	0.00697
1755.4	0.01242
1765.04	0.01594
1774.69	0.0113
1784.33	0.00431
1793.98	0.00204
1803.62	0.0012
1813.27	0.00115
1822.91	0.0017
1832.55	0.00255
1842.2	0.00278
1851.84	0.00247
1861.49	0.00221
1871.13	0.00218
1880.78	0.00318
1890.42	0.00719
1900.07	0.01058
1909.71	0.00786
1919.36	0.0026
1929	0.00137
1938.65	0.0012
1948.29	0.0014
1957.94	0.00132
1967.58	0.0009269
1977.23	0.0008129
1986.87	0.0007337
1996.52	0.0007283
2006.16	0.0008073
2015.81	0.0006808
2025.45	0.0006392
2035.1	0.0006704
2044.74	0.0007077
2054.38	0.0008265
2064.03	0.0006774
2073.67	0.0004806
2083.32	0.000574
2092.96	0.0007128
2102.61	0.0006152
2112.25	0.0005891
2121.9	0.0007566
2131.54	0.000747
2141.19	0.0005566
2150.83	0.0005052
2160.48	0.0005154
2170.12	0.0005724
2179.77	0.0007339
2189.41	0.0008244
2199.06	0.0016
2208.7	0.00457
2218.35	0.01377
2227.99	0.02687
2237.64	0.02272
2247.28	0.00589
2256.92	0.0025
2266.57	0.00193
2276.21	0.00141
2285.86	0.00144
2295.5	0.00171
2305.15	0.00184
2314.79	0.00159
2324.44	0.00129
2334.08	0.00126
2343.73	0.00166
2353.37	0.00244
2363.02	0.00276
2372.66	0.00187
2382.31	0.00139
2391.95	0.00135
2401.6	0.0014
2411.24	0.00135
2420.89	0.00128
2430.53	0.00109
2440.18	0.0009966
2449.82	0.001
2459.47	0.0009332
2469.11	0.00122
2478.75	0.00126
2488.4	0.00114
2498.04	0.0009994
2507.69	0.00115
2517.33	0.00147
2526.98	0.00143
2536.62	0.00106
2546.27	0.00109
2555.91	0.00125
2565.56	0.00152
2575.2	0.00159
2584.85	0.00161
2594.49	0.00193
2604.14	0.00188
2613.78	0.00123
2623.43	0.0007264
2633.07	0.0006857
2642.72	0.0007927
2652.36	0.0008035
2662.01	0.0009545
2671.65	0.00114
2681.29	0.00137
2690.94	0.00196
2700.58	0.0021
2710.23	0.00176
2719.87	0.00209
2729.52	0.00218
2739.16	0.00226
2748.81	0.00305
2758.45	0.00353
2768.1	0.00295
2777.74	0.00234
2787.39	0.00229
2797.03	0.00218
2806.68	0.00215
2816.32	0.00257
2825.97	0.00316
2835.61	0.00409
2845.26	0.00565
2854.9	0.00829
2864.55	0.01236
2874.19	0.01703
2883.84	0.01748
2893.48	0.01491
2903.12	0.01382
2912.77	0.01501
2922.41	0.0208
2932.06	0.03678
2941.7	0.04191
2951.35	0.02881
2960.99	0.02149
2970.64	0.02059
2980.28	0.0198
2989.93	0.01978
2999.57	0.01891
3009.22	0.01691
3018.86	0.01769
3028.51	0.02247
3038.15	0.02446
3047.8	0.0216
3057.44	0.02169
3067.09	0.02474
3076.73	0.02234
3086.38	0.01366
3096.02	0.00793
3105.67	0.00571
3115.31	0.00391
3124.95	0.00254
3134.6	0.00184
3144.24	0.00139
3153.89	0.0012
3163.53	0.00103
3173.18	0.0008363
3182.82	0.0008973
3192.47	0.0006746
3202.11	0.0005398
3211.76	0.0003859
3221.4	0.0002195
3231.05	0.0001843
3240.69	0.0001373
3250.34	0.0002136
3259.98	0.0002541
3269.63	0.0002304
3279.27	0.0001873
3288.92	0.000229
3298.56	0.0001496
3308.21	0.0002469
3317.85	0.0002957
3327.49	0.0003027
3337.14	0.0003731
3346.78	0.0006074
3356.43	0.00048
3366.07	0.0004228
3375.72	0.0003254
3385.36	0.0001936
3395.01	0.0007267
3404.65	0.00113
3414.3	0.00139
3423.94	0.00123
3433.59	0.00105
3443.23	0.0008725
3452.88	0.0005347
3462.52	0.0004348
3472.17	0.0002362
3481.81	0.0003129
3491.46	0.0001927
3501.1	0.0002397
3510.75	0.0001721
3520.39	0.0002058
3530.04	0.0001638
3539.68	0.0001282
3549.32	0.0001882
3558.97	0.0001293
3568.61	0.0001646
3578.26	0.0001663
3587.9	0.0001264
3597.55	0.0002148
3607.19	0.0001859
3616.84	0.0002793
3626.48	0.0004074
3636.13	0.0001822
3645.77	0.0001535
3655.42	0.0001574
3665.06	0.0002627
3674.71	0.0004506
3684.35	0.0005855
3694	0.0007435
3703.64	0.0006796
3713.29	0.0005379
3722.93	0.0003913
3732.58	0.0003952
3742.22	0.0003921
3751.86	0.0004456
3761.51	0.0005045
3771.15	0.0005244
3780.8	0.0003588
3790.44	0.0003314
3800.09	0.0003783
3809.73	0.0004726
3819.38	0.0005374
3829.02	0.0007391
3838.67	0.0006489
3848.31	0.000383
3857.96	0.0005132
3867.6	0.0004044
3877.25	0.0004673
3886.89	0.0004056
3896.54	0.0005122
3906.18	0.0007451
3915.83	0.0006757
3925.47	0.00106
3935.12	0.00162
3944.76	0.00216
3954.41	0.00176
3964.05	0.00105
3973.69	0.0008655
3983.34	0.0006353
3992.98	0.0005371
