Infrared Spectrum: 4-Chloro-2-methylbenzonitrile
Formula: C 8 H 6 Cl N
CAS: 50712-68-0
State: gas
Origin: EPA-IR VAPOR PHASE LIBRARY
1/CM	ABSORBANCE
549.8	0.00248
559.445	0.00623
569.09	0.01246
578.734	0.00738
588.379	0.0051
598.024	0.00415
607.669	0.00589
617.313	0.00798
626.958	0.00479
636.603	0.00274
646.248	0.0007039
655.893	0.0009179
665.537	0.0005379
675.182	0.0005724
684.827	0.0006469
694.472	0.0006447
704.116	0.0005965
713.761	0.0007873
723.406	0.0008609
733.051	0.0013
742.695	0.00142
752.34	0.00113
761.985	0.00105
771.63	0.00129
781.275	0.00141
790.919	0.00318
800.564	0.00907
810.209	0.02024
819.854	0.03698
829.498	0.02006
839.143	0.00742
848.788	0.00381
858.433	0.00745
868.078	0.01544
877.722	0.03674
887.367	0.04393
897.012	0.01759
906.657	0.00552
916.301	0.00217
925.946	0.00149
935.591	0.00135
945.236	0.00142
954.88	0.0023
964.525	0.00227
974.17	0.00198
983.815	0.00257
993.46	0.00288
1003.1	0.00259
1012.75	0.00213
1022.39	0.00203
1032.04	0.00215
1041.68	0.00253
1051.33	0.00203
1060.97	0.00273
1070.62	0.00367
1080.26	0.00899
1089.91	0.02073
1099.55	0.02005
1109.2	0.01495
1118.84	0.01746
1128.49	0.01273
1138.13	0.0067
1147.78	0.00283
1157.42	0.00235
1167.07	0.00974
1176.71	0.01332
1186.36	0.00667
1196	0.01034
1205.64	0.01386
1215.29	0.01134
1224.93	0.00758
1234.58	0.00417
1244.22	0.00307
1253.87	0.0034
1263.51	0.0051
1273.16	0.00593
1282.8	0.00393
1292.45	0.00203
1302.09	0.00123
1311.74	0.00127
1321.38	0.00142
1331.03	0.00142
1340.67	0.00166
1350.32	0.00257
1359.96	0.0035
1369.61	0.00384
1379.25	0.00461
1388.9	0.00703
1398.54	0.0097
1408.18	0.00923
1417.83	0.00638
1427.47	0.00605
1437.12	0.00924
1446.76	0.01095
1456.41	0.01056
1466.05	0.01756
1475.7	0.03839
1485.34	0.04321
1494.99	0.02188
1504.63	0.01054
1514.28	0.00976
1523.92	0.00957
1533.57	0.0088
1543.21	0.0097
1552.86	0.01136
1562.5	0.01161
1572.15	0.01194
1581.79	0.02239
1591.44	0.04555
1601.08	0.0418
1610.73	0.01426
1620.37	0.00535
1630.01	0.00373
1639.66	0.00342
1649.3	0.00258
1658.95	0.00143
1668.59	0.00123
1678.24	0.00119
1687.88	0.00131
1697.53	0.0014
1707.17	0.0018
1716.82	0.00241
1726.46	0.00222
1736.11	0.00223
1745.75	0.00232
1755.4	0.00223
1765.04	0.00207
1774.69	0.00121
1784.33	0.0007071
1793.98	0.0006347
1803.62	0.0005809
1813.27	0.0006255
1822.91	0.0007278
1832.55	0.0006619
1842.2	0.0005537
1851.84	0.0004655
1861.49	0.0006028
1871.13	0.0008461
1880.78	0.00151
1890.42	0.00245
1900.07	0.00243
1909.71	0.00161
1919.36	0.0008929
1929	0.0007209
1938.65	0.0006371
1948.29	0.0005414
1957.94	0.0005258
1967.58	0.0004613
1977.23	0.0004846
1986.87	0.0004994
1996.52	0.000442
2006.16	0.0003838
2015.81	0.0003546
2025.45	0.0002584
2035.1	0.0003127
2044.74	0.0003633
2054.38	0.0003387
2064.03	0.0003752
2073.67	0.0004047
2083.32	0.0004393
2092.96	0.0004621
2102.61	0.0004683
2112.25	0.000339
2121.9	0.0003168
2131.54	0.0003073
2141.19	0.000292
2150.83	0.0002888
2160.48	0.00035
2170.12	0.0003957
2179.77	0.0004705
2189.41	0.0006733
2199.06	0.00107
2208.7	0.00197
2218.35	0.00567
2227.99	0.01224
2237.64	0.00933
2247.28	0.00159
2256.92	0.0008114
2266.57	0.0007735
2276.21	0.0006637
2285.86	0.0007299
2295.5	0.0006877
2305.15	0.0006926
2314.79	0.0007773
2324.44	0.0007016
2334.08	0.0006517
2343.73	0.0005391
2353.37	0.0007577
2363.02	0.0009004
2372.66	0.0008453
2382.31	0.0008013
2391.95	0.0007191
2401.6	0.0005245
2411.24	0.0004923
2420.89	0.0005363
2430.53	0.0004126
2440.18	0.0004278
2449.82	0.0005692
2459.47	0.0005588
2469.11	0.0006171
2478.75	0.0005787
2488.4	0.0004885
2498.04	0.0004644
2507.69	0.0005287
2517.33	0.0005309
2526.98	0.0007123
2536.62	0.0009721
2546.27	0.0009768
2555.91	0.0006932
2565.56	0.0006136
2575.2	0.0006802
2584.85	0.0006267
2594.49	0.000418
2604.14	0.0004934
2613.78	0.0003627
2623.43	0.0003553
2633.07	0.0003485
2642.72	0.0003343
2652.36	0.0005387
2662.01	0.0005378
2671.65	0.0005179
2681.29	0.000437
2690.94	0.0004036
2700.58	0.000597
2710.23	0.0007411
2719.87	0.0008862
2729.52	0.0007796
2739.16	0.0008185
2748.81	0.0008368
2758.45	0.0009625
2768.1	0.000676
2777.74	0.0006414
2787.39	0.0005482
2797.03	0.0005997
2806.68	0.0004883
2816.32	0.000856
2825.97	0.0007458
2835.61	0.00101
2845.26	0.00131
2854.9	0.00177
2864.55	0.00208
2874.19	0.00288
2883.84	0.00287
2893.48	0.00266
2903.12	0.0027
2912.77	0.00328
2922.41	0.00467
2932.06	0.00696
2941.7	0.00748
2951.35	0.00571
2960.99	0.0043
2970.64	0.00398
2980.28	0.00378
2989.93	0.00404
2999.57	0.0039
3009.22	0.00324
3018.86	0.00315
3028.51	0.0032
3038.15	0.00337
3047.8	0.00334
3057.44	0.00246
3067.09	0.00197
3076.73	0.00228
3086.38	0.00256
3096.02	0.00249
3105.67	0.00209
3115.31	0.00121
3124.95	0.001
3134.6	0.0004828
3144.24	0.0004014
3153.89	0.0004644
3163.53	0.000188
3173.18	0.0002706
3182.82	0.000234
3192.47	0.0004402
3202.11	0.0001572
3211.76	0.0003133
3221.4	0.0003388
3231.05	0.0003083
3240.69	0.0003245
3250.34	0.0003794
3259.98	0.0003422
3269.63	0.0003464
3279.27	0.0003529
3288.92	0.0002778
3298.56	0.0001719
3308.21	0.0002936
3317.85	0.0003873
3327.49	0.0004221
3337.14	0.000573
3346.78	0.0004765
3356.43	0.0004728
3366.07	0.0002981
3375.72	0.0004073
3385.36	0.0004102
3395.01	0.0006584
3404.65	0.0003973
3414.3	0.0006407
3423.94	0.0005805
3433.59	0.0007035
3443.23	0.0007102
3452.88	0.0005111
3462.52	0.000456
3472.17	0.000431
3481.81	0.0004889
3491.46	0.0003721
3501.1	0.0004519
3510.75	0.0005399
3520.39	0.0003689
3530.04	0.0002913
3539.68	0.0003951
3549.32	0.0003836
3558.97	0.0004308
3568.61	0.0004537
3578.26	0.0005464
3587.9	0.0002815
3597.55	0.0003757
3607.19	0.0003519
3616.84	0.0004457
3626.48	0.0006379
3636.13	0.0004993
3645.77	0.0006611
3655.42	0.0004456
3665.06	0.0003812
3674.71	0.0004885
3684.35	0.0004863
3694	0.00055
3703.64	0.0006048
3713.29	0.0005881
3722.93	0.0005001
3732.58	0.0004441
3742.22	0.0004922
3751.86	0.0004909
3761.51	0.0006087
3771.15	0.0005267
3780.8	0.0003796
3790.44	0.0008226
3800.09	0.0006072
3809.73	0.0007081
3819.38	0.0006738
3829.02	0.0006982
3838.67	0.0005893
3848.31	0.0005705
3857.96	0.0004543
3867.6	0.0004401
3877.25	0.0003777
3886.89	0.000705
3896.54	0.0005736
3906.18	0.0005468
3915.83	0.0004466
3925.47	0.0004443
3935.12	0.0005585
3944.76	0.0006699
3954.41	0.0009153
3964.05	0.000861
3973.69	0.0008533
3983.34	0.0008017
3992.98	0.0005553
