Infrared Spectrum: 6Alpha-FLUORO-17Alpha-HYDROXY-16Alpha-METHYLPREGNA-1,4-DIENE-3,20-DIONE
Formula: C22 H29 F O3
CAS: 5072-33-3
State: SOLID (KBr DISC)
Class: COBLENTZ III
Instrument: BECKMAN IR-7
Sampling: TRANSMISSION
Resolution: 4
Origin: THE WORCESTER FOUNDATION FOR EXPERIMENTAL BIOLOGY, Neal L. McNiven
1/CM	TRANSMITTANCE
602.182	0.671
610.909	0.61
619.637	0.641
628.364	0.65
637.091	0.719
645.818	0.758
654.546	0.783
663.273	0.793
672	0.791
680.728	0.829
689.455	0.843
698.182	0.83
706.909	0.67
715.637	0.744
724.364	0.861
733.091	0.887
741.819	0.88
750.546	0.891
759.273	0.89
768	0.896
776.728	0.891
785.455	0.888
794.182	0.867
802.91	0.835
811.637	0.814
820.364	0.517
829.091	0.599
837.819	0.849
846.546	0.7831
855.273	0.805
864.001	0.83
872.728	0.709
881.455	0.79
890.182	0.711
898.91	0.4743
907.637	0.32
916.364	0.637
925.092	0.406
933.819	0.552
942.546	0.6769
951.273	0.69
960.001	0.5
968.728	0.5229
977.455	0.488
986.183	0.3041
994.91	0.576
1003.64	0.605
1012.36	0.539
1021.09	0.441
1029.82	0.601
1038.55	0.57
1047.27	0.305
1056	0.41
1064.73	0.316
1073.46	0.589
1082.18	0.537
1090.91	0.328
1099.64	0.526
1108.36	0.578
1117.09	0.529
1125.82	0.477
1134.55	0.497
1143.27	0.391
1152	0.474
1160.73	0.5599
1169.46	0.542
1178.18	0.338
1186.91	0.415
1195.64	0.441
1204.36	0.4971
1213.09	0.277
1221.82	0.585
1230.55	0.535
1239.27	0.457
1248	0.666
1256.73	0.512
1265.46	0.581
1274.18	0.418
1282.91	0.3811
1291.64	0.366
1300.36	0.383
1309.09	0.411
1317.82	0.389
1326.55	0.56
1335.27	0.496
1344	0.397
1352.73	0.33
1361.46	0.394
1370.18	0.341
1378.91	0.434
1387.64	0.342
1396.37	0.488
1405.09	0.49
1413.82	0.523
1422.55	0.562
1431.27	0.554
1440	0.46
1448.73	0.294
1457.46	0.4099
1466.18	0.57
1474.91	0.636
1483.64	0.695
1492.37	0.707
1501.09	0.711
1509.82	0.713
1518.55	0.704
1527.27	0.695
1536	0.695
1544.73	0.694
1553.46	0.69
1562.18	0.671
1570.91	0.641
1579.64	0.553
1588.37	0.492
1597.09	0.243
1605.82	0.304
1614.55	0.229
1623.27	0.108
1632	0.478
1640.73	0.416
1649.46	0.243
1658.18	0.017
1666.91	0.083
1675.64	0.407
1684.37	0.496
1693.09	0.235
1701.82	0.185
1710.55	0.5
1719.27	0.628
1728	0.692
1736.73	0.708
1745.46	0.73
1754.18	0.746
1762.91	0.75
1771.64	0.743
1780.37	0.74
1789.09	0.759
1797.82	0.758
1806.55	0.746
1815.27	0.747
1824	0.756
1832.73	0.771
1841.46	0.766
1850.18	0.766
1858.91	0.77
1867.64	0.772
1876.37	0.77
1885.09	0.767
1893.82	0.768
1902.55	0.769
1911.27	0.767
1920	0.766
1928.73	0.764
1937.46	0.759
1946.18	0.756
1954.91	0.754
1963.64	0.755
1972.37	0.752
1981.09	0.748
1989.82	0.748
1998.55	0.748
2007.28	0.748
2016	0.747
2024.73	0.747
2033.46	0.747
2042.18	0.746
2050.91	0.746
2059.64	0.746
2068.37	0.745
2077.09	0.744
2085.82	0.743
2094.55	0.743
2103.28	0.743
2112	0.742
2120.73	0.742
2129.46	0.742
2138.18	0.742
2146.91	0.741
2155.64	0.741
2164.37	0.7407
2173.09	0.74
2181.82	0.7385
2190.55	0.7295
2199.28	0.7235
2208	0.718
2216.73	0.7168
2225.46	0.716
2234.18	0.714
2242.91	0.713
2251.64	0.7118
2260.37	0.7108
2269.09	0.708
2277.82	0.706
2286.55	0.7049
2295.28	0.701
2304	0.7
2312.73	0.699
2321.46	0.698
2330.18	0.698
2338.91	0.6969
2347.64	0.6939
2356.37	0.693
2365.09	0.692
2373.82	0.691
2382.55	0.691
2391.28	0.69
2400	0.687
2408.73	0.685
2417.46	0.684
2426.18	0.683
2434.91	0.682
2443.64	0.681
2452.37	0.679
2461.09	0.677
2469.82	0.6751
2478.55	0.674
2487.28	0.674
2496	0.673
2504.73	0.6711
2513.46	0.6702
2522.18	0.6673
2530.91	0.664
2539.64	0.6622
2548.37	0.6594
2557.09	0.6562
2565.82	0.6532
2574.55	0.6512
2583.28	0.65
2592	0.6492
2600.73	0.649
2609.46	0.648
2618.19	0.6463
2626.91	0.645
2635.64	0.6423
2644.37	0.6413
2653.09	0.64
2661.82	0.6383
2670.55	0.6353
2679.28	0.6334
2688	0.632
2696.73	0.6284
2705.46	0.626
2714.19	0.6244
2722.91	0.6234
2731.64	0.6224
2740.37	0.622
2749.09	0.6224
2757.82	0.621
2766.55	0.6205
2775.28	0.62
2784	0.617
2792.73	0.6105
2801.46	0.6015
2810.19	0.5911
2818.91	0.5756
2827.64	0.5648
2836.37	0.5257
2845.09	0.4655
2853.82	0.3233
2862.55	0.273
2871.28	0.2988
2880	0.3592
2888.73	0.3341
2897.46	0.2629
2906.19	0.2959
2914.91	0.296
2923.64	0.261
2932.37	0.2697
2941.09	0.2531
2949.82	0.229
2958.55	0.275
2967.28	0.2517
2976	0.2073
2984.73	0.274
2993.46	0.368
3002.19	0.4321
3010.91	0.476
3019.64	0.5355
3028.37	0.5536
3037.09	0.539
3045.82	0.5323
3054.55	0.5685
3063.28	0.575
3072	0.5761
3080.73	0.5791
3089.46	0.5811
3098.19	0.582
3106.91	0.5829
3115.64	0.5819
3124.37	0.5799
3133.09	0.579
3141.82	0.5769
3150.55	0.5739
3159.28	0.572
3168	0.572
3176.73	0.571
3185.46	0.566
3194.19	0.561
3202.91	0.553
3211.64	0.5421
3220.37	0.5311
3229.1	0.528
3237.82	0.526
3246.55	0.526
3255.28	0.5251
3264	0.5212
3272.73	0.5074
3281.46	0.4982
3290.19	0.4846
3298.91	0.4717
3307.64	0.4559
3316.37	0.4389
3325.1	0.4181
3333.82	0.4027
3342.55	0.3861
3351.28	0.3607
3360	0.3303
3368.73	0.2975
3377.46	0.2635
3386.19	0.2414
3394.91	0.2143
3403.64	0.1935
3412.37	0.1712
3421.1	0.169
3429.82	0.1841
3438.55	0.2197
3447.28	0.2565
3456	0.2803
3464.73	0.3013
3473.46	0.3222
3482.19	0.3461
3490.91	0.3689
3499.64	0.3886
3508.37	0.4187
3517.1	0.4516
3525.82	0.4667
3534.55	0.4952
3543.28	0.525
3552	0.5474
3560.73	0.5616
3569.46	0.5711
3578.19	0.5751
3586.91	0.579
3595.64	0.5795
3604.37	0.582
3613.1	0.5815
3621.82	0.58
3630.55	0.579
3639.28	0.5834
3648	0.5919
3656.73	0.595
3665.46	0.5936
3674.19	0.592
3682.91	0.592
3691.64	0.5906
3700.37	0.59
3709.1	0.5904
3717.82	0.592
3726.55	0.592
3735.28	0.593
3744.01	0.594
3752.73	0.595
3761.46	0.5934
3770.19	0.5867
3778.91	0.5797
3787.64	0.579
3796.37	0.58
3805.1	0.5788
3813.82	0.576
3822.55	0.575
3831.28	0.574
3840.01	0.574
3848.73	0.5738
3857.46	0.573
3866.19	0.5718
3874.91	0.571
3883.64	0.5709
3892.37	0.5699
3901.1	0.5689
3909.82	0.568
3918.55	0.567
3927.28	0.566
3936.01	0.5649
3944.73	0.563
3953.46	0.5619
3962.19	0.56
3970.91	0.56
3979.64	0.559
3988.37	0.558
3997.1	0.558
4005.82	0.557
4014.55	0.557
