Infrared Spectrum: 1-HYDROXY-2-(M-CHLORO) NAPHTHANILIDE
Formula: C17 H12 Cl N O2
CAS: 50729-11-8
State: SOLID (KBr PRESSING)
Melting point: 182-183 C
Class: COBLENTZ
Instrument: Not specified, most likely a prism, grating, or hybrid spectrometer.
Sampling: TRANSMISSION
Resolution: 4
Origin: EASTMAN KODAK COMPANY, RESEARCH LABORATORIES, ROCHESTER, N.Y.
MICROMETERS	TRANSMITTANCE
2.042	0.593
2.07711	0.605
2.11221	0.616
2.14732	0.623
2.18242	0.625
2.21753	0.626
2.25264	0.632
2.28774	0.644
2.32285	0.653
2.35795	0.658
2.39306	0.665
2.42817	0.667
2.46327	0.67
2.49838	0.683
2.53349	0.69
2.56859	0.702
2.6037	0.707
2.6388	0.709
2.67391	0.716
2.70902	0.719
2.74412	0.728
2.77923	0.7
2.81433	0.683
2.84944	0.647
2.88455	0.623
2.91965	0.532
2.95476	0.556
2.98986	0.598
3.02497	0.64
3.06008	0.66
3.09518	0.669
3.13029	0.67
3.16539	0.679
3.2005	0.681
3.23561	0.674
3.27071	0.667
3.30582	0.661
3.34093	0.663
3.37603	0.669
3.41114	0.667
3.44624	0.669
3.48135	0.67
3.51646	0.672
3.55156	0.684
3.58667	0.69
3.62177	0.69
3.65688	0.697
3.69199	0.711
3.72709	0.712
3.7622	0.716
3.7973	0.721
3.83241	0.73
3.86752	0.735
3.90262	0.74
3.93773	0.746
3.97283	0.751
4.00794	0.756
4.04305	0.761
4.07815	0.761
4.11326	0.765
4.14837	0.772
4.18347	0.777
4.21858	0.796
4.25368	0.805
4.28879	0.821
4.3239	0.814
4.359	0.814
4.39411	0.814
4.42921	0.816
4.46432	0.819
4.49943	0.823
4.53453	0.823
4.56964	0.823
4.60474	0.833
4.63985	0.835
4.67496	0.837
4.71006	0.84
4.74517	0.847
4.78027	0.844
4.81538	0.831
4.85049	0.838
4.88559	0.84
4.9207	0.838
4.9558	0.84
4.99091	0.847
5.02602	0.851
5.06112	0.847
5.09623	0.842
5.13134	0.837
5.16644	0.816
5.20155	0.84
5.23665	0.849
5.27176	0.852
5.30687	0.849
5.34197	0.84
5.37708	0.831
5.41218	0.849
5.44729	0.845
5.4824	0.844
5.5175	0.842
5.55261	0.845
5.58771	0.84
5.62282	0.84
5.65793	0.84
5.69303	0.83
5.72814	0.837
5.76324	0.833
5.79835	0.831
5.83346	0.826
5.86856	0.823
5.90367	0.819
5.93878	0.803
5.97388	0.758
6.00899	0.751
6.04409	0.704
6.0792	0.535
6.11431	0.234
6.14941	0.199
6.18452	0.411
6.21962	0.316
6.25473	0.14
6.28984	0.306
6.32494	0.276
6.36005	0.457
6.39515	0.584
6.43026	0.401
6.46537	0.176
6.50047	0.199
6.53558	0.322
6.57068	0.43
6.60579	0.56
6.6409	0.516
6.676	0.553
6.71111	0.642
6.74622	0.567
6.78132	0.495
6.81643	0.309
6.85153	0.401
6.88664	0.434
6.92175	0.56
6.95685	0.562
6.99196	0.369
7.02706	0.292
7.06217	0.336
7.09728	0.22
7.13238	0.429
7.16749	0.541
7.20259	0.315
7.2377	0.434
7.27281	0.513
7.30791	0.5
7.34302	0.444
7.37812	0.507
7.41323	0.612
7.44834	0.57
7.48344	0.509
7.51855	0.29
7.55366	0.295
7.58876	0.436
7.62387	0.474
7.65897	0.493
7.69408	0.553
7.72919	0.604
7.76429	0.367
7.7994	0.201
7.8345	0.222
7.86961	0.427
7.90472	0.5
7.93982	0.569
7.97493	0.593
8.01003	0.506
8.04514	0.493
8.08025	0.595
8.11535	0.602
8.15046	0.654
8.18556	0.677
8.22067	0.672
8.25578	0.604
8.29088	0.52
8.32599	0.623
8.3611	0.693
8.3962	0.723
8.43131	0.737
8.46641	0.732
8.50152	0.649
8.53663	0.612
8.57173	0.609
8.60684	0.646
8.64194	0.609
8.67705	0.45
8.71216	0.49
8.74726	0.635
8.78237	0.683
8.81747	0.704
8.85258	0.712
8.88769	0.721
8.92279	0.723
8.9579	0.742
8.993	0.756
9.02811	0.756
9.06322	0.728
9.09832	0.695
9.13343	0.677
9.16853	0.616
9.20364	0.481
9.23875	0.492
9.27385	0.591
9.30896	0.616
9.34407	0.658
9.37917	0.712
9.41428	0.742
9.44938	0.76
9.48449	0.76
9.5196	0.774
9.5547	0.784
9.58981	0.791
9.62491	0.791
9.66002	0.781
9.69513	0.754
9.73023	0.712
9.76534	0.725
9.80044	0.777
9.83555	0.788
9.87066	0.796
9.90576	0.802
9.94087	0.803
9.97597	0.777
10.0111	0.625
10.0462	0.74
10.0813	0.788
10.1164	0.802
10.1515	0.805
10.1866	0.803
10.2217	0.807
10.2568	0.823
10.2919	0.807
10.327	0.802
10.3621	0.805
10.3972	0.8
10.4324	0.742
10.4675	0.695
10.5026	0.753
10.5377	0.775
10.5728	0.774
10.6079	0.633
10.643	0.548
10.6781	0.628
10.7132	0.69
10.7483	0.733
10.7834	0.77
10.8185	0.774
10.8536	0.779
10.8887	0.777
10.9238	0.733
10.9589	0.569
10.9941	0.544
11.0292	0.625
11.0643	0.704
11.0994	0.719
11.1345	0.719
11.1696	0.718
11.2047	0.704
11.2398	0.654
11.2749	0.523
11.31	0.378
11.3451	0.392
11.3802	0.506
11.4153	0.57
11.4504	0.611
11.4855	0.584
11.5206	0.511
11.5557	0.527
11.5909	0.53
11.626	0.513
11.6611	0.483
11.6962	0.474
11.7313	0.479
11.7664	0.504
11.8015	0.544
11.8366	0.586
11.8717	0.618
11.9068	0.646
11.9419	0.672
11.977	0.695
12.0121	0.704
12.0472	0.714
12.0823	0.725
12.1174	0.73
12.1526	0.744
12.1877	0.739
12.2228	0.726
12.2579	0.683
12.293	0.569
12.3281	0.411
12.3632	0.367
12.3983	0.32
12.4334	0.28
12.4685	0.434
12.5036	0.553
12.5387	0.574
12.5738	0.394
12.6089	0.234
12.644	0.273
12.6791	0.387
12.7142	0.439
12.7494	0.402
12.7845	0.25
12.8196	0.227
12.8547	0.413
12.8898	0.555
12.9249	0.621
12.96	0.637
12.9951	0.628
13.0302	0.511
13.0653	0.266
13.1004	0.147
13.1355	0.084
13.1706	0.168
13.2057	0.385
13.2408	0.528
13.2759	0.577
13.3111	0.612
13.3462	0.633
13.3813	0.646
13.4164	0.67
13.4515	0.672
13.4866	0.684
13.5217	0.683
13.5568	0.683
13.5919	0.677
13.627	0.656
13.6621	0.583
13.6972	0.388
13.7323	0.302
13.7674	0.397
13.8025	0.453
13.8376	0.542
13.8728	0.59
13.9079	0.618
13.943	0.621
13.9781	0.626
14.0132	0.632
14.0483	0.635
14.0834	0.633
14.1185	0.633
14.1536	0.632
14.1887	0.625
14.2238	0.619
14.2589	0.609
14.294	0.604
14.3291	0.583
14.3642	0.52
14.3993	0.458
14.4344	0.451
14.4696	0.492
14.5047	0.511
14.5398	0.497
14.5749	0.45
14.61	0.385
14.6451	0.32
14.6802	0.301
14.7153	0.359
14.7504	0.429
14.7855	0.453
14.8206	0.481
14.8557	0.5
14.8908	0.518
14.9259	0.481
14.961	0.502
14.9961	0.555
15.0313	0.527
15.0664	0.497
15.1015	0.483
15.1366	0.472
15.1717	0.453
15.2068	0.439
15.2419	0.399
15.277	0.369
15.3121	0.357
15.3472	0.373
15.3823	0.387
15.4174	0.411
15.4525	0.418
15.4876	0.416
15.5227	0.422
15.5578	0.415
15.5929	0.413
15.6281	0.409
15.6632	0.409
15.6983	0.408
15.7334	0.404
15.7685	0.402
15.8036	0.401
15.8387	0.399
15.8738	0.399
15.9089	0.399
15.944	0.399
15.9791	0.399
