Infrared Spectrum: 1-HYDROXY-2-(O-CHLORO) NAPHTHANILIDE
Formula: C17 H12 Cl N O2
CAS: 50729-10-7
State: SOLID (KBr PRESSING)
Melting point: 163-164 C
Class: COBLENTZ
Instrument: Not specified, most likely a prism, grating, or hybrid spectrometer.
Sampling: TRANSMISSION
Resolution: 4
Origin: EASTMAN KODAK COMPANY, RESEARCH LABORATORIES, ROCHESTER, N.Y.
MICROMETERS	TRANSMITTANCE
2.045	0.676
2.08012	0.688
2.11523	0.686
2.15035	0.688
2.18546	0.69
2.22058	0.695
2.2557	0.697
2.29081	0.699
2.32593	0.699
2.36105	0.702
2.39616	0.709
2.43128	0.718
2.46639	0.723
2.50151	0.728
2.53663	0.732
2.57174	0.744
2.60686	0.746
2.64198	0.749
2.67709	0.753
2.71221	0.761
2.74732	0.76
2.78244	0.742
2.81756	0.699
2.85267	0.664
2.88779	0.579
2.9229	0.572
2.95802	0.631
2.99314	0.657
3.02825	0.688
3.06337	0.699
3.09849	0.7
3.1336	0.716
3.16872	0.718
3.20383	0.713
3.23895	0.699
3.27407	0.685
3.30918	0.685
3.3443	0.686
3.37942	0.693
3.41453	0.699
3.44965	0.707
3.48476	0.709
3.51988	0.713
3.555	0.721
3.59011	0.728
3.62523	0.74
3.66035	0.744
3.69546	0.744
3.73058	0.744
3.76569	0.746
3.80081	0.761
3.83593	0.768
3.87104	0.773
3.90616	0.779
3.94127	0.791
3.97639	0.796
4.01151	0.798
4.04662	0.803
4.08174	0.806
4.11686	0.812
4.15197	0.817
4.18709	0.826
4.2222	0.838
4.25732	0.848
4.29244	0.85
4.32755	0.855
4.36267	0.853
4.39779	0.852
4.4329	0.855
4.46802	0.855
4.50313	0.857
4.53825	0.859
4.57337	0.859
4.60848	0.859
4.6436	0.86
4.67871	0.86
4.71383	0.864
4.74895	0.86
4.78406	0.862
4.81918	0.864
4.8543	0.871
4.88941	0.874
4.92453	0.874
4.95964	0.873
4.99476	0.874
5.02988	0.873
5.06499	0.859
5.10011	0.855
5.13523	0.862
5.17034	0.867
5.20546	0.864
5.24057	0.866
5.27569	0.867
5.31081	0.866
5.34592	0.864
5.38104	0.866
5.41615	0.867
5.45127	0.869
5.48639	0.876
5.5215	0.874
5.55662	0.867
5.59174	0.876
5.62685	0.867
5.66197	0.866
5.69708	0.852
5.7322	0.848
5.76732	0.846
5.80243	0.826
5.83755	0.822
5.87267	0.826
5.90778	0.826
5.9429	0.829
5.97801	0.829
6.01313	0.765
6.04825	0.64
6.08336	0.248
6.11848	0.28
6.1536	0.507
6.18871	0.587
6.22383	0.32
6.25894	0.139
6.29406	0.233
6.32918	0.405
6.36429	0.593
6.39941	0.634
6.43452	0.434
6.46964	0.297
6.50476	0.126
6.53987	0.126
6.57499	0.365
6.61011	0.481
6.64522	0.368
6.68034	0.594
6.71545	0.685
6.75057	0.653
6.78569	0.5
6.8208	0.542
6.85592	0.436
6.89104	0.582
6.92615	0.246
6.96127	0.349
6.99638	0.54
7.0315	0.53
7.06662	0.379
7.10173	0.556
7.13685	0.6
7.17196	0.29
7.20708	0.356
7.2422	0.546
7.27731	0.629
7.31243	0.62
7.34755	0.443
7.38266	0.533
7.41778	0.606
7.45289	0.521
7.48801	0.358
7.52313	0.316
7.55824	0.469
7.59336	0.481
7.62848	0.255
7.66359	0.133
7.69871	0.142
7.73382	0.413
7.76894	0.584
7.80406	0.631
7.83917	0.549
7.87429	0.486
7.9094	0.645
7.94452	0.69
7.97964	0.669
8.01475	0.466
8.04987	0.316
8.08499	0.554
8.1201	0.65
8.15522	0.699
8.19033	0.735
8.22545	0.669
8.26057	0.533
8.29568	0.659
8.3308	0.737
8.36592	0.76
8.40103	0.77
8.43615	0.773
8.47126	0.773
8.50638	0.772
8.5415	0.695
8.57661	0.714
8.61173	0.728
8.64685	0.499
8.68196	0.476
8.71708	0.645
8.75219	0.735
8.78731	0.76
8.82243	0.76
8.85754	0.74
8.89266	0.758
8.92777	0.775
8.96289	0.786
8.99801	0.8
9.03312	0.798
9.06824	0.796
9.10336	0.707
9.13847	0.619
9.17359	0.693
9.2087	0.728
9.24382	0.74
9.27894	0.76
9.31405	0.768
9.34917	0.798
9.38429	0.798
9.4194	0.796
9.45452	0.779
9.48963	0.758
9.52475	0.8
9.55987	0.808
9.59498	0.77
9.6301	0.56
9.66521	0.61
9.70033	0.737
9.73545	0.678
9.77056	0.714
9.80568	0.803
9.8408	0.829
9.87591	0.834
9.91103	0.834
9.94614	0.831
9.98126	0.829
10.0164	0.836
10.0515	0.838
10.0866	0.84
10.1217	0.838
10.1568	0.836
10.192	0.834
10.2271	0.834
10.2622	0.848
10.2973	0.841
10.3324	0.813
10.3675	0.796
10.4027	0.826
10.4378	0.831
10.4729	0.838
10.508	0.834
10.5431	0.806
10.5782	0.73
10.6134	0.648
10.6485	0.695
10.6836	0.775
10.7187	0.81
10.7538	0.827
10.7889	0.833
10.824	0.831
10.8592	0.831
10.8943	0.838
10.9294	0.834
10.9645	0.831
10.9996	0.84
11.0347	0.84
11.0699	0.838
11.105	0.838
11.1401	0.833
11.1752	0.829
11.2103	0.827
11.2454	0.82
11.2806	0.815
11.3157	0.76
11.3508	0.733
11.3859	0.721
11.421	0.73
11.4561	0.751
11.4913	0.763
11.5264	0.749
11.5615	0.699
11.5966	0.678
11.6317	0.676
11.6668	0.662
11.702	0.603
11.7371	0.547
11.7722	0.493
11.8073	0.446
11.8424	0.443
11.8775	0.459
11.9127	0.511
11.9478	0.561
11.9829	0.603
12.018	0.646
12.0531	0.667
12.0882	0.692
12.1233	0.714
12.1585	0.735
12.1936	0.74
12.2287	0.758
12.2638	0.747
12.2989	0.692
12.334	0.617
12.3692	0.448
12.4043	0.248
12.4394	0.236
12.4745	0.394
12.5096	0.506
12.5447	0.525
12.5799	0.412
12.615	0.313
12.6501	0.497
12.6852	0.598
12.7203	0.655
12.7554	0.68
12.7906	0.68
12.8257	0.671
12.8608	0.653
12.8959	0.596
12.931	0.471
12.9661	0.276
13.0013	0.107
13.0364	0.064
13.0715	0.238
13.1066	0.309
13.1417	0.248
13.1768	0.212
13.212	0.118
13.2471	0.106
13.2822	0.384
13.3173	0.526
13.3524	0.606
13.3875	0.646
13.4226	0.674
13.4578	0.681
13.4929	0.692
13.528	0.706
13.5631	0.707
13.5982	0.7
13.6333	0.695
13.6685	0.641
13.7036	0.521
13.7387	0.427
13.7738	0.464
13.8089	0.594
13.844	0.662
13.8792	0.673
13.9143	0.676
13.9494	0.685
13.9845	0.686
14.0196	0.674
14.0547	0.673
14.0899	0.669
14.125	0.671
14.1601	0.671
14.1952	0.667
14.2303	0.66
14.2654	0.659
14.3006	0.65
14.3357	0.645
14.3708	0.643
14.4059	0.64
14.441	0.626
14.4761	0.556
14.5113	0.46
14.5464	0.433
14.5815	0.502
14.6166	0.573
14.6517	0.591
14.6868	0.596
14.7219	0.605
14.7571	0.61
14.7922	0.612
14.8273	0.606
14.8624	0.601
14.8975	0.582
14.9326	0.537
14.9678	0.586
15.0029	0.605
15.038	0.579
15.0731	0.561
15.1082	0.539
15.1433	0.511
15.1785	0.473
15.2136	0.426
15.2487	0.41
15.2838	0.419
15.3189	0.452
15.354	0.466
15.3892	0.48
15.4243	0.49
15.4594	0.49
15.4945	0.483
15.5296	0.481
15.5647	0.48
15.5999	0.474
15.635	0.471
15.6701	0.464
15.7052	0.466
15.7403	0.467
15.7754	0.464
15.8105	0.464
15.8457	0.446
15.8808	0.443
15.9159	0.443
15.951	0.443
15.9861	0.45
