Infrared Spectrum: Chromone-3-carbonitrile
Formula: C 10 H 5 N O 2
CAS: 50743-17-4
State: gas
Origin: EPA-IR VAPOR PHASE LIBRARY
1/CM	ABSORBANCE
549.8	0.00223
559.445	0.0019096
569.09	0.0019675
578.734	0.0018713
588.379	0.00225
598.024	0.0015265
607.669	0.0018346
617.313	0.0023
626.958	0.00297
636.603	0.00271
646.248	0.00293
655.893	0.00239
665.537	0.003
675.182	0.00273
684.827	0.0033
694.472	0.004
704.116	0.00327
713.761	0.00225
723.406	0.00219
733.051	0.0020008
742.695	0.00455
752.34	0.00871
761.985	0.01091
771.63	0.00547
781.275	0.00243
790.919	0.00259
800.564	0.00251
810.209	0.0018517
819.854	0.0013544
829.498	0.00281
839.143	0.00297
848.788	0.00323
858.433	0.00232
868.078	0.0019178
877.722	0.0017761
887.367	0.0019841
897.012	0.00261
906.657	0.00314
916.301	0.00463
925.946	0.00497
935.591	0.00238
945.236	0.0020467
954.88	0.0014474
964.525	0.00283
974.17	0.001844
983.815	0.0014009
993.46	0.001307
1003.1	0.0016159
1012.75	0.001792
1022.39	0.0022
1032.04	0.0011054
1041.68	0.00254
1051.33	0.00215
1060.97	0.000642
1070.62	0.0018317
1080.26	0.00285
1089.91	0.00367
1099.55	0.00392
1109.2	0.00433
1118.84	0.00292
1128.49	0.00588
1138.13	0.00818
1147.78	0.00653
1157.42	0.00698
1167.07	0.01328
1176.71	0.01217
1186.36	0.00528
1196	0.00475
1205.64	0.00566
1215.29	0.01287
1224.93	0.00898
1234.58	0.00469
1244.22	0.00489
1253.87	0.00354
1263.51	0.00582
1273.16	0.00464
1282.8	0.00429
1292.45	0.00722
1302.09	0.00988
1311.74	0.01388
1321.38	0.01465
1331.03	0.01695
1340.67	0.01441
1350.32	0.00611
1359.96	0.00494
1369.61	0.00863
1379.25	0.01062
1388.9	0.00544
1398.54	0.00355
1408.18	0.00281
1417.83	0.0020602
1427.47	0.00246
1437.12	0.00284
1446.76	0.00505
1456.41	0.01341
1466.05	0.02124
1475.7	0.00964
1485.34	0.00315
1494.99	0.00265
1504.63	0.0018735
1514.28	0.0020091
1523.92	0.0019097
1533.57	0.0016142
1543.21	0.0021053
1552.86	0.00349
1562.5	0.00479
1572.15	0.00689
1581.79	0.00573
1591.44	0.00366
1601.08	0.00478
1610.73	0.01086
1620.37	0.01695
1630.01	0.01103
1639.66	0.00455
1649.3	0.00372
1658.95	0.00383
1668.59	0.00438
1678.24	0.00751
1687.88	0.01915
1697.53	0.03152
1707.17	0.02466
1716.82	0.00868
1726.46	0.00377
1736.11	0.00255
1745.75	0.00258
1755.4	0.00264
1765.04	0.00246
1774.69	0.00221
1784.33	0.00215
1793.98	0.0019982
1803.62	0.00238
1813.27	0.00221
1822.91	0.00255
1832.55	0.00272
1842.2	0.00248
1851.84	0.00238
1861.49	0.00215
1871.13	0.00222
1880.78	0.0018637
1890.42	0.001681
1900.07	0.0018878
1909.71	0.0016194
1919.36	0.0019692
1929	0.0018633
1938.65	0.00224
1948.29	0.0017021
1957.94	0.0019979
1967.58	0.0020343
1977.23	0.0014357
1986.87	0.0017988
1996.52	0.0014979
2006.16	0.0016421
2015.81	0.0015862
2025.45	0.0015438
2035.1	0.0017658
2044.74	0.0015292
2054.38	0.0015996
2064.03	0.0017923
2073.67	0.0016658
2083.32	0.0015369
2092.96	0.0016765
2102.61	0.0015751
2112.25	0.0014928
2121.9	0.0015413
2131.54	0.0016041
2141.19	0.0017014
2150.83	0.0015503
2160.48	0.0014072
2170.12	0.0015542
2179.77	0.00112518
2189.41	0.0015392
2199.06	0.0015609
2208.7	0.0017621
2218.35	0.0017177
2227.99	0.0018019
2237.64	0.00246
2247.28	0.00232
2256.92	0.0016232
2266.57	0.0013514
2276.21	0.001546
2285.86	0.0012978
2295.5	0.0013584
2305.15	0.0017693
2314.79	0.0020102
2324.44	0.0017935
2334.08	0.0016982
2343.73	0.0015889
2353.37	0.0015375
2363.02	0.0010967
2372.66	0.0014519
2382.31	0.001786
2391.95	0.0016288
2401.6	0.0015249
2411.24	0.0015752
2420.89	0.0013922
2430.53	0.0019497
2440.18	0.0016327
2449.82	0.0014784
2459.47	0.0013789
2469.11	0.0016325
2478.75	0.0011926
2488.4	0.001657
2498.04	0.0017639
2507.69	0.0014864
2517.33	0.0019463
2526.98	0.0016973
2536.62	0.0015591
2546.27	0.0013018
2555.91	0.000993
2565.56	0.00113863
2575.2	0.0014818
2584.85	0.0012486
2594.49	0.001434
2604.14	0.0015337
2613.78	0.0012939
2623.43	0.0016087
2633.07	0.0017633
2642.72	0.0010612
2652.36	0.001008
2662.01	0.0016723
2671.65	0.0014727
2681.29	0.0015417
2690.94	0.0018362
2700.58	0.00113681
2710.23	0.00114934
2719.87	0.00116856
2729.52	0.0014229
2739.16	0.0013346
2748.81	0.0014958
2758.45	0.0014864
2768.1	0.0016617
2777.74	0.0013265
2787.39	0.0015853
2797.03	0.0013003
2806.68	0.0017207
2816.32	0.0013509
2825.97	0.0014316
2835.61	0.000926
2845.26	0.0012393
2854.9	0.0020321
2864.55	0.0015336
2874.19	0.00113016
2883.84	0.001205
2893.48	0.0010379
2903.12	0.0013451
2912.77	0.000844
2922.41	0.0010503
2932.06	0.001263
2941.7	0.0013585
2951.35	0.0014067
2960.99	0.0013733
2970.64	0.0013105
2980.28	0.00115887
2989.93	0.0013469
2999.57	0.0012561
3009.22	0.0018865
3018.86	0.000837
3028.51	0.0016447
3038.15	0.0013588
3047.8	0.00117051
3057.44	0.0013822
3067.09	0.0018765
3076.73	0.0027
3086.38	0.00357
3096.02	0.00231
3105.67	0.0020238
3115.31	0.0013478
3124.95	0.0015577
3134.6	0.0014879
3144.24	0.0012523
3153.89	0.0013625
3163.53	0.0010935
3173.18	0.001471
3182.82	0.0012903
3192.47	0.0013702
3202.11	0.0012991
3211.76	0.001023
3221.4	0.0012791
3231.05	0.00122075
3240.69	0.0018295
3250.34	0.001286
3259.98	0.0018605
3269.63	0.0018687
3279.27	0.00118971
3288.92	0.0017177
3298.56	0.0014262
3308.21	0.0013575
3317.85	0.00122902
3327.49	0.0012863
3337.14	0.0015879
3346.78	0.00120839
3356.43	0.0014
3366.07	0.00112129
3375.72	0.0016549
3385.36	0.0012932
3395.01	0.0014852
3404.65	0.0022
3414.3	0.000933
3423.94	0.0011112
3433.59	0.000975
3443.23	0.0016077
3452.88	0.000997
3462.52	0.0010674
3472.17	0.0015985
3481.81	0.0013683
3491.46	0.0014677
3501.1	0.00112273
3510.75	0.00112747
3520.39	0.002075
3530.04	0.00236
3539.68	0.0016714
3549.32	0.00238
3558.97	0.0014466
3568.61	0.0014642
3578.26	0.0018911
3587.9	0.0021055
3597.55	0.0013354
3607.19	0.0014691
3616.84	0.0014472
3626.48	0.00122814
3636.13	0.0010803
3645.77	0.0015121
3655.42	0.000882
3665.06	0.001016
3674.71	0.0017369
3684.35	0.0014727
3694	0.0018934
3703.64	0.0015709
3713.29	0.0019841
3722.93	0.0019422
3732.58	0.0015215
3742.22	0.00238
3751.86	0.0020724
3761.51	0.0013659
3771.15	0.001903
3780.8	0.0018951
3790.44	0.0013306
3800.09	0.0012809
3809.73	0.0015648
3819.38	0.00245
3829.02	0.0016165
3838.67	0.0020843
3848.31	0.00249
3857.96	0.0012403
3867.6	0.000525
3877.25	0.0017748
3886.89	0.00114551
3896.54	0.0015692
3906.18	0.0013969
3915.83	0.0019054
3925.47	0.0018174
3935.12	0.0013745
3944.76	0.0017982
3954.41	0.0018551
3964.05	0.0022
3973.69	0.0012613
3983.34	0.0011115
3992.98	0.0014598
