Infrared Spectrum: 1,5-Dimethyl-2-pyrrolidinone
Formula: C 6 H 11 N O
CAS: 5075-92-3
State: gas
Origin: EPA-IR VAPOR PHASE LIBRARY
1/CM	ABSORBANCE
501.5	0.003216
513.074	0.001356
524.648	0.0004562
536.222	0.0008242
547.796	0.001606
559.37	0.002206
570.944	0.001806
582.518	0.001406
594.092	0.001216
605.666	0.001196
617.24	0.001546
628.814	0.002726
640.388	0.004166
651.962	0.004566
663.536	0.003246
675.11	0.001566
686.684	0.0009697
698.258	0.0008269
709.832	0.0006783
721.406	0.0005915
732.98	0.000726
744.554	0.0008201
756.128	0.0008783
767.702	0.000963
779.276	0.0010243
790.85	0.0011313
802.423	0.001356
813.997	0.001626
825.571	0.001596
837.145	0.0010486
848.719	0.0007633
860.293	0.0009298
871.867	0.002226
883.441	0.003896
895.015	0.004016
906.589	0.002556
918.163	0.002136
929.737	0.004146
941.311	0.005916
952.885	0.005696
964.459	0.003666
976.033	0.002966
987.607	0.002896
999.181	0.002686
1010.76	0.002156
1022.33	0.002386
1033.9	0.003226
1045.48	0.003516
1057.05	0.003216
1068.63	0.003956
1080.2	0.005956
1091.77	0.009416
1103.35	0.013706
1114.92	0.015426
1126.49	0.012936
1138.07	0.008596
1149.64	0.006266
1161.22	0.006296
1172.79	0.007566
1184.36	0.007356
1195.94	0.005736
1207.51	0.005536
1219.09	0.006936
1230.66	0.010586
1242.23	0.018536
1253.81	0.028576
1265.38	0.038146
1276.96	0.039586
1288.53	0.031726
1300.1	0.021656
1311.68	0.015796
1323.25	0.012376
1334.83	0.012496
1346.4	0.020056
1357.97	0.028346
1369.55	0.042136
1381.12	0.064276
1392.7	0.068376
1404.27	0.049856
1415.84	0.037406
1427.42	0.033506
1438.99	0.026236
1450.57	0.019016
1462.14	0.017236
1473.71	0.014386
1485.29	0.009816
1496.86	0.005916
1508.44	0.003776
1520.01	0.002936
1531.58	0.002676
1543.16	0.002706
1554.73	0.002776
1566.31	0.002756
1577.88	0.002636
1589.45	0.002586
1601.03	0.002746
1612.6	0.002946
1624.18	0.003046
1635.75	0.003146
1647.32	0.003366
1658.9	0.004196
1670.47	0.006686
1682.05	0.011386
1693.62	0.021346
1705.19	0.057176
1716.77	0.173636
1728.34	0.265126
1739.92	0.212066
1751.49	0.056146
1763.06	0.014356
1774.64	0.006816
1786.21	0.004086
1797.79	0.002726
1809.36	0.002166
1820.93	0.001946
1832.51	0.001836
1844.08	0.001786
1855.66	0.001666
1867.23	0.001296
1878.8	0.0009338
1890.38	0.000724
1901.95	0.0006057
1913.53	0.0005607
1925.1	0.0004855
1936.67	0.0004101
1948.25	0.0003563
1959.82	0.0003615
1971.4	0.0004495
1982.97	0.0005529
1994.54	0.0006149
2006.12	0.0006226
2017.69	0.0005411
2029.27	0.0004255
2040.84	0.0003218
2052.41	0.0002677
2063.99	0.000289
2075.56	0.000294
2087.14	0.0003749
2098.71	0.000393
2110.28	0.0003964
2121.86	0.000378
2133.43	0.0003855
2145.01	0.0004294
2156.58	0.0004604
2168.15	0.0004816
2179.73	0.0005186
2191.3	0.0005001
2202.88	0.0005073
2214.45	0.0004529
2226.02	0.0003881
2237.6	0.0003805
2249.17	0.000372
2260.74	0.0004137
2272.32	0.0004242
2283.89	0.0004431
2295.47	0.0004016
2307.04	0.000384
2318.61	0.0004003
2330.19	0.0004093
2341.76	0.0004042
2353.34	0.0004172
2364.91	0.0004625
2376.48	0.000494
2388.06	0.0004425
2399.63	0.0003922
2411.21	0.0004283
2422.78	0.0004428
2434.35	0.0005096
2445.93	0.0005288
2457.5	0.0004967
2469.08	0.0004642
2480.65	0.0003867
2492.22	0.0003449
2503.8	0.0003457
2515.37	0.0004129
2526.95	0.0004624
2538.52	0.0004998
2550.09	0.0004934
2561.67	0.0004642
2573.24	0.0004338
2584.82	0.0004687
2596.39	0.0005174
2607.96	0.0005768
2619.54	0.0007052
2631.11	0.0008198
2642.69	0.0010567
2654.26	0.001296
2665.83	0.001556
2677.41	0.001766
2688.98	0.001866
2700.56	0.001696
2712.13	0.001396
2723.7	0.001356
2735.28	0.001516
2746.85	0.001656
2758.43	0.001856
2770	0.002196
2781.57	0.002706
2793.15	0.003546
2804.72	0.004766
2816.3	0.006626
2827.87	0.009546
2839.44	0.013846
2851.02	0.017806
2862.59	0.019736
2874.17	0.023006
2885.74	0.027126
2897.31	0.029486
2908.89	0.029286
2920.46	0.029736
2932.04	0.033046
2943.61	0.036906
2955.18	0.042486
2966.76	0.055916
2978.33	0.056796
2989.91	0.034776
3001.48	0.013956
3013.05	0.006586
3024.63	0.004296
3036.2	0.003606
3047.78	0.003346
3059.35	0.002986
3070.92	0.002536
3082.5	0.002156
3094.07	0.001816
3105.65	0.001616
3117.22	0.001326
3128.79	0.0010309
3140.37	0.0008487
3151.94	0.0007073
3163.52	0.0005706
3175.09	0.0004694
3186.66	0.000418
3198.24	0.0004738
3209.81	0.0004382
3221.39	0.0003302
3232.96	0.00021552
3244.53	0.0001163
3256.11	6.36e-05
3267.68	8.09e-05
3279.26	7.85e-05
3290.83	5.78e-05
3302.4	7.27e-05
3313.98	0.00014441
3325.55	0.0001116
3337.13	0.0001379
3348.7	0.000154031
3360.27	7.75e-05
3371.85	0.0001175
3383.42	0.00016678
3395	0.0003094
3406.57	0.0005175
3418.14	0.001081
3429.72	0.001886
3441.29	0.002456
3452.86	0.002036
3464.44	0.0010354
3476.01	0.0005271
3487.59	0.0003146
3499.16	0.00018331
3510.73	0.00016699
3522.31	0.0001031
3533.88	0.0001408
3545.46	8.63e-05
3557.03	3.9e-05
3568.6	0.0001006
3580.18	0.0001003
3591.75	9.25e-05
3603.33	6.1e-05
3614.9	6.64e-05
3626.47	1.8e-05
3638.05	2.6e-05
3649.62	7.43e-05
3661.2	1e-05
3672.77	4.3e-05
3684.34	5.4e-05
3695.92	1.7e-05
3707.49	4.76e-05
3719.07	4.5e-05
3730.64	8.24e-05
3742.21	6.86e-05
3753.79	4.3e-05
3765.36	6.58e-05
3776.94	9e-05
3788.51	9.3e-05
3800.08	0.0001338
3811.66	0.0001243
3823.23	0.0001224
3834.81	0.0001095
3846.38	7.6e-05
3857.95	0.000147663
3869.53	0.0001134
3881.1	0.00016504
3892.68	0.00019968
3904.25	0.00015912
3915.82	0.00020954
3927.4	0.0001125
3938.97	0.0002664
3950.55	0.00020912
3962.12	0.0002897
3973.69	0.0002766
3985.27	0.0002885
3996.84	0.000293
