Infrared Spectrum: Sarcosine anhydride
Formula: C 6 H 10 N 2 O 2
CAS: 5076-82-4
State: gas
Origin: EPA-IR VAPOR PHASE LIBRARY
1/CM	ABSORBANCE
549.8	0.00176
559.445	0.0019
569.09	0.00216
578.734	0.00511
588.379	0.00671
598.024	0.00816
607.669	0.00978
617.313	0.00909
626.958	0.00622
636.603	0.00449
646.248	0.00275
655.893	0.00187
665.537	0.00157
675.182	0.00176
684.827	0.0007811
694.472	0.0013
704.116	0.00134
713.761	0.00275
723.406	0.005
733.051	0.00627
742.695	0.0064
752.34	0.00615
761.985	0.00507
771.63	0.00303
781.275	0.00244
790.919	0.00206
800.564	0.00134
810.209	0.00245
819.854	0.00337
829.498	0.00191
839.143	0.0012609
848.788	0.0006212
858.433	0.0007055
868.078	0.0009178
877.722	0.0008725
887.367	0.0017
897.012	0.00156
906.657	0.00137
916.301	0.00173
925.946	0.00197
935.591	0.00243
945.236	0.00237
954.88	0.00205
964.525	0.00345
974.17	0.00395
983.815	0.00677
993.46	0.01466
1003.1	0.03007
1012.75	0.04567
1022.39	0.04152
1032.04	0.02171
1041.68	0.01074
1051.33	0.00707
1060.97	0.00529
1070.62	0.00537
1080.26	0.00522
1089.91	0.00541
1099.55	0.00495
1109.2	0.0056
1118.84	0.00608
1128.49	0.00874
1138.13	0.01043
1147.78	0.01417
1157.42	0.02035
1167.07	0.0217
1176.71	0.02198
1186.36	0.02031
1196	0.02262
1205.64	0.02425
1215.29	0.02599
1224.93	0.02931
1234.58	0.04617
1244.22	0.08079
1253.87	0.10437
1263.51	0.09014
1273.16	0.05662
1282.8	0.04274
1292.45	0.05473
1302.09	0.09639
1311.74	0.13758
1321.38	0.13707
1331.03	0.09248
1340.67	0.04649
1350.32	0.02241
1359.96	0.01514
1369.61	0.01624
1379.25	0.02535
1388.9	0.04868
1398.54	0.08777
1408.18	0.09982
1417.83	0.09109
1427.47	0.08322
1437.12	0.08846
1446.76	0.09324
1456.41	0.1049
1466.05	0.12182
1475.7	0.11993
1485.34	0.09649
1494.99	0.06318
1504.63	0.0363
1514.28	0.02221
1523.92	0.01671
1533.57	0.01452
1543.21	0.01376
1552.86	0.01251
1562.5	0.01119
1572.15	0.00959
1581.79	0.00892
1591.44	0.0085
1601.08	0.00968
1610.73	0.01131
1620.37	0.01431
1630.01	0.01609
1639.66	0.02054
1649.3	0.02719
1658.95	0.03748
1668.59	0.053
1678.24	0.10034
1687.88	0.28115
1697.53	0.64016
1707.17	0.8234
1716.82	0.58463
1726.46	0.21114
1736.11	0.06349
1745.75	0.02884
1755.4	0.01729
1765.04	0.0117
1774.69	0.01
1784.33	0.01099
1793.98	0.01081
1803.62	0.00772
1813.27	0.00532
1822.91	0.00396
1832.55	0.00357
1842.2	0.00337
1851.84	0.00315
1861.49	0.0027
1871.13	0.00223
1880.78	0.00191
1890.42	0.00177
1900.07	0.00166
1909.71	0.00161
1919.36	0.00156
1929	0.00161
1938.65	0.00153
1948.29	0.0012971
1957.94	0.0012706
1967.58	0.0012618
1977.23	0.0011183
1986.87	0.001266
1996.52	0.00135
2006.16	0.00154
2015.81	0.00177
2025.45	0.00208
2035.1	0.00229
2044.74	0.00218
2054.38	0.00188
2064.03	0.00159
2073.67	0.00157
2083.32	0.00151
2092.96	0.00147
2102.61	0.00138
2112.25	0.00147
2121.9	0.00169
2131.54	0.00178
2141.19	0.00192
2150.83	0.00196
2160.48	0.00212
2170.12	0.00224
2179.77	0.00227
2189.41	0.00201
2199.06	0.00214
2208.7	0.0021
2218.35	0.00194
2227.99	0.00193
2237.64	0.00205
2247.28	0.00198
2256.92	0.00179
2266.57	0.00156
2276.21	0.00136
2285.86	0.0012414
2295.5	0.0011859
2305.15	0.00158
2314.79	0.00171
2324.44	0.00148
2334.08	0.00148
2343.73	0.00135
2353.37	0.0011516
2363.02	0.0011401
2372.66	0.0012204
2382.31	0.0009707
2391.95	0.0011053
2401.6	0.00138
2411.24	0.00169
2420.89	0.00177
2430.53	0.00186
2440.18	0.0019
2449.82	0.00138
2459.47	0.001004
2469.11	0.0010775
2478.75	0.0012842
2488.4	0.0011307
2498.04	0.0011941
2507.69	0.00154
2517.33	0.00193
2526.98	0.00191
2536.62	0.00176
2546.27	0.00141
2555.91	0.00172
2565.56	0.00188
2575.2	0.00176
2584.85	0.00176
2594.49	0.00151
2604.14	0.0012608
2613.78	0.0011979
2623.43	0.0010615
2633.07	0.00134
2642.72	0.0012461
2652.36	0.00143
2662.01	0.00193
2671.65	0.00181
2681.29	0.00193
2690.94	0.002
2700.58	0.00216
2710.23	0.00253
2719.87	0.00267
2729.52	0.00253
2739.16	0.00309
2748.81	0.0037
2758.45	0.00365
2768.1	0.00425
2777.74	0.0055
2787.39	0.00754
2797.03	0.00953
2806.68	0.01088
2816.32	0.01232
2825.97	0.01553
2835.61	0.02051
2845.26	0.02664
2854.9	0.03198
2864.55	0.03753
2874.19	0.04408
2883.84	0.05062
2893.48	0.05092
2903.12	0.04889
2912.77	0.05075
2922.41	0.05974
2932.06	0.07054
2941.7	0.07222
2951.35	0.05892
2960.99	0.04055
2970.64	0.02727
2980.28	0.01852
2989.93	0.01345
2999.57	0.01045
3009.22	0.00914
3018.86	0.00885
3028.51	0.00884
3038.15	0.00867
3047.8	0.00789
3057.44	0.00699
3067.09	0.00646
3076.73	0.00513
3086.38	0.00442
3096.02	0.00365
3105.67	0.00322
3115.31	0.00287
3124.95	0.00242
3134.6	0.0024
3144.24	0.00237
3153.89	0.00231
3163.53	0.00216
3173.18	0.00169
3182.82	0.00193
3192.47	0.00191
3202.11	0.00181
3211.76	0.00175
3221.4	0.0011653
3231.05	0.0012974
3240.69	0.0010138
3250.34	0.00036596
3259.98	0.0007864
3269.63	0.0004956
3279.27	0.0007467
3288.92	0.0008935
3298.56	0.0008383
3308.21	0.0008228
3317.85	0.0009684
3327.49	0.0009644
3337.14	0.0011211
3346.78	0.0011165
3356.43	0.00171
3366.07	0.00253
3375.72	0.00418
3385.36	0.00677
3395.01	0.00835
3404.65	0.00621
3414.3	0.00296
3423.94	0.00231
3433.59	0.00138
3443.23	0.0011467
3452.88	0.000853
3462.52	0.0007813
3472.17	0.0007449
3481.81	0.0008736
3491.46	0.0005347
3501.1	0.0004435
3510.75	0.00035801
3520.39	0.00035947
3530.04	0.0004589
3539.68	0.000127
3549.32	0.0005594
3558.97	0.000175
3568.61	0.0006902
3578.26	0.0008819
3587.9	0.0007566
3597.55	0.0004472
3607.19	0.0007878
3616.84	0.00033772
3626.48	0.0002812
3636.13	0.0010007
3645.77	0.0005349
3655.42	0.0008972
3665.06	0.0005145
3674.71	0.0005968
3684.35	0.0007183
3694	0.0006992
3703.64	0.0002713
3713.29	0.000584
3722.93	0.000193
3732.58	0.0002796
3742.22	0.00038176
3751.86	0.0008655
3761.51	0.0006066
3771.15	0.0006689
3780.8	0.0004124
3790.44	0.0002303
3800.09	0.0008673
3809.73	0.0005322
3819.38	0.0005264
3829.02	0.0002556
3838.67	0.0010433
3848.31	0.0008042
3857.96	0.0005486
3867.6	0.0008678
3877.25	0.0008201
3886.89	0.000739
3896.54	0.0009369
3906.18	0.0005077
3915.83	0.0005554
3925.47	0.0008164
3935.12	0.0008095
3944.76	0.0006024
3954.41	0.000514
3964.05	0.0007878
3973.69	0.0006515
3983.34	0.00035152
3992.98	0.0009181
