Infrared Spectrum: trans-3-Methyl-1,5-heptadiene
Formula: C 8 H 14
CAS: 50763-51-4
State: gas
Instrument: HP-GC/MS/IRD
Origin: NIST Mass Spectrometry Data Center
1/CM	ABSORBANCE
550	7.52e-05
562	5.12e-05
574	9.92e-05
586	0.0001216
598	6.72e-05
610	0.0001456
622	0.000216
634	0.0002496
646	0.0003696
658	0.0007472
670	0.0012144
682	0.0011472
694	0.0005632
706	0.0002624
718	0.0001648
730	0.000152
742	0.0001472
754	0.0001152
766	9.92e-05
778	0.0001136
790	0.0001168
802	0.0002144
814	0.0002256
826	0.0003424
838	0.0004336
850	0.0005248
862	0.0006448
874	0.0009264
886	0.001504
898	0.0034576
910	0.0067984
922	0.006648
934	0.00412
946	0.0041424
958	0.0062544
970	0.0067152
982	0.0051584
994	0.0042416
1006	0.002824
1018	0.0018368
1030	0.0014176
1042	0.0012608
1054	0.0011296
1066	0.00108
1078	0.0010704
1090	0.0009328
1102	0.0007712
1114	0.0006912
1126	0.0007344
1138	0.0006832
1150	0.0005472
1162	0.0004032
1174	0.00028
1186	0.000312
1198	0.0003584
1210	0.0004096
1222	0.0004592
1234	0.0003584
1246	0.0003584
1258	0.0005456
1270	0.000608
1282	0.000632
1294	0.0007696
1306	0.000872
1318	0.0008288
1330	0.0007968
1342	0.0008368
1354	0.0009136
1366	0.0014352
1378	0.002032
1390	0.0017824
1402	0.0014256
1414	0.0018704
1426	0.0021872
1438	0.002448
1450	0.0029184
1462	0.0027424
1474	0.001824
1486	0.001032
1498	0.0006416
1510	0.0004832
1522	0.0004064
1534	0.0003344
1546	0.000304
1558	0.0003328
1570	0.0003888
1582	0.0004512
1594	0.0004416
1606	0.000504
1618	0.0009152
1630	0.0018016
1642	0.002168
1654	0.0012848
1666	0.0006512
1678	0.0004416
1690	0.0003392
1702	0.0003248
1714	0.0003424
1726	0.0002736
1738	0.0002272
1750	0.0001552
1762	0.0001568
1774	0.0001728
1786	0.000192
1798	0.0002288
1810	0.0003392
1822	0.0006144
1834	0.000664
1846	0.0004
1858	0.0001792
1870	8.8e-05
1882	7.68e-05
1894	6.4e-05
1906	7.52e-05
1918	7.04e-05
1930	4.48e-05
1942	7.2e-05
1954	5.28e-05
1966	0.0001104
1978	0.0001408
1990	0.0001296
2002	0.000104
2014	7.36e-05
2026	4.64e-05
2038	2.4e-05
2050	2.4e-05
2062	3.04e-05
2074	3.84e-05
2086	9.6e-06
2098	2.56e-05
2110	1.28e-05
2122	1.76e-05
2134	6.4e-06
2146	2.56e-05
2158	1.44e-05
2170	4.8e-06
2182	8e-06
2194	2.56e-05
2206	1.76e-05
2218	3.2e-05
2230	2.56e-05
2242	4e-05
2254	4.8e-05
2266	3.84e-05
2278	4.48e-05
2290	5.44e-05
2302	6.56e-05
2314	5.12e-05
2326	6.4e-05
2338	0.000112
2350	9.6e-05
2362	0.0001088
2374	0.0001136
2386	8.64e-05
2398	8.48e-05
2410	8.64e-05
2422	8.64e-05
2434	0.0001008
2446	8.48e-05
2458	9.6e-05
2470	9.12e-05
2482	9.92e-05
2494	8.16e-05
2506	0.0001184
2518	0.0001216
2530	0.0001152
2542	0.0001248
2554	0.000112
2566	0.0001376
2578	0.000144
2590	0.0001616
2602	0.000144
2614	0.0001504
2626	0.0001536
2638	0.0001568
2650	0.0001536
2662	0.0001776
2674	0.0002048
2686	0.000176
2698	0.0002256
2710	0.000272
2722	0.0003504
2734	0.000496
2746	0.00056
2758	0.0004112
2770	0.0004336
2782	0.0004624
2794	0.0005472
2806	0.0007424
2818	0.0010752
2830	0.0017712
2842	0.0029216
2854	0.0042272
2866	0.0065536
2878	0.0079376
2890	0.0086288
2902	0.0104832
2914	0.0126736
2926	0.01424
2938	0.012712
2950	0.0111632
2962	0.0139856
2974	0.0157296
2986	0.0109216
2998	0.0071296
3010	0.0062432
3022	0.0054672
3034	0.0042528
3046	0.0030736
3058	0.002656
3070	0.003232
3082	0.0043552
3094	0.0034976
3106	0.001592
3118	0.0009232
3130	0.000704
3142	0.0005424
3154	0.0004336
3166	0.0003968
3178	0.000344
3190	0.0003184
3202	0.0002832
3214	0.0002384
3226	0.0001888
3238	0.0001792
3250	0.0001536
3262	0.0001488
3274	0.00016
3286	0.000128
3298	7.52e-05
3310	7.84e-05
3322	0.0001152
3334	7.36e-05
3346	8.48e-05
3358	0.0001232
3370	5.6e-05
3382	8.8e-05
3394	5.28e-05
3406	8.64e-05
3418	5.92e-05
3430	4.32e-05
3442	5.28e-05
3454	0.000136
3466	5.92e-05
3478	6.56e-05
3490	2.56e-05
3502	6.08e-05
3514	3.04e-05
3526	3.04e-05
3538	2.56e-05
3550	4e-05
3562	4.32e-05
3574	5.92e-05
3586	6.4e-05
3598	9.92e-05
3610	5.44e-05
3622	4.48e-05
3634	5.76e-05
3646	2.72e-05
3658	3.68e-05
3670	8.8e-05
3682	8.64e-05
3694	9.6e-05
3706	6.56e-05
3718	9.76e-05
3730	9.76e-05
3742	7.68e-05
3754	0.000104
3766	7.52e-05
3778	9.6e-05
3790	0.000112
3802	0.0001472
3814	0.000128
3826	0.000152
3838	0.0001104
