Infrared Spectrum: Hydrazine, 1,2-di-(o-bromobenzoyl)-,
Formula: C14 H10 Br2 N2 O2
CAS: 50796-71-9
State: SOLID (SPLIT MULL), FLUOROLUBE FOR 3800-1335 CM^-^1, NUJOL FOR 1335-400 CM^-^1
Class: COBLENTZ III
Instrument: BECKMAN IR-9 (GRATING)
Instrument parameters: ORDER CHANGES: 670, 1200, 2000 CM^-^1
Sampling: TRANSMISSION
Resolution: 2
Origin: DOW CHEMICAL COMPANY
1/CM	TRANSMITTANCE
3802	0.5669
3793	0.5676
3784	0.5684
3775	0.5692
3766	0.5701
3757	0.5714
3748	0.5729
3739	0.5742
3730	0.5756
3721	0.577
3712	0.5784
3703	0.5797
3694	0.581
3685	0.5823
3676	0.5836
3667	0.5848
3658	0.586
3649	0.5868
3640	0.5876
3631	0.5881
3622	0.5887
3613	0.5894
3604	0.5906
3595	0.5917
3586	0.593
3577	0.595
3568	0.597
3559	0.5989
3550	0.6009
3541	0.6028
3532	0.6043
3523	0.6058
3514	0.6073
3505	0.6087
3496	0.6102
3487	0.6117
3478	0.6133
3469	0.6148
3460	0.6164
3451	0.618
3442	0.6202
3433	0.623
3424	0.6258
3415	0.6285
3406	0.6312
3397	0.6342
3388	0.6372
3379	0.6401
3370	0.6432
3361	0.6462
3352	0.6494
3343	0.6525
3334	0.6555
3325	0.6585
3316	0.661
3307	0.6624
3298	0.663
3289	0.6636
3280	0.6644
3271	0.6653
3262	0.6655
3253	0.6636
3244	0.6585
3235	0.6446
3226	0.6254
3217	0.5796
3208	0.5589
3199	0.4712
3190	0.3624
3181	0.3297
3172	0.3102
3163	0.3079
3154	0.3216
3145	0.3476
3136	0.3707
3127	0.3998
3118	0.4255
3109	0.4497
3100	0.4712
3091	0.4918
3082	0.5081
3073	0.5046
3064	0.4933
3055	0.4996
3046	0.5188
3037	0.5198
3028	0.5054
3019	0.4947
3010	0.4978
3001	0.5115
2992	0.526
2983	0.5424
2974	0.5577
2965	0.5681
2956	0.573
2947	0.5758
2938	0.5787
2929	0.5848
2920	0.5927
2911	0.6003
2902	0.6064
2893	0.6103
2884	0.6108
2875	0.6048
2866	0.6038
2857	0.6042
2848	0.6046
2839	0.6076
2830	0.6157
2821	0.6243
2812	0.6285
2803	0.6312
2794	0.6347
2785	0.6393
2776	0.6421
2767	0.6441
2758	0.646
2749	0.6478
2740	0.6496
2731	0.6514
2722	0.6532
2713	0.6553
2704	0.6576
2695	0.66
2686	0.6622
2677	0.6646
2668	0.6668
2659	0.6689
2650	0.6711
2641	0.6735
2632	0.676
2623	0.6784
2614	0.6808
2605	0.6832
2596	0.6845
2587	0.6856
2578	0.6865
2569	0.6875
2560	0.6884
2551	0.6897
2542	0.6912
2533	0.6928
2524	0.6946
2515	0.6961
2506	0.6972
2497	0.6984
2488	0.6994
2479	0.7005
2470	0.7015
2461	0.7026
2452	0.7038
2443	0.705
2434	0.7064
2425	0.7076
2416	0.7091
2407	0.7108
2398	0.7125
2389	0.7143
2380	0.7158
2371	0.7165
2362	0.7172
2353	0.7178
2344	0.7186
2335	0.7199
2326	0.7211
2317	0.7225
2308	0.7243
2299	0.7265
2290	0.7296
2281	0.7325
2272	0.7357
2263	0.7391
2254	0.7426
2245	0.7461
2236	0.7493
2227	0.7521
2218	0.7551
2209	0.7582
2200	0.7611
2191	0.7645
2182	0.768
2173	0.7715
2164	0.7749
2155	0.7784
2146	0.7815
2137	0.7846
2128	0.7876
2119	0.7907
2110	0.7935
2101	0.7961
2092	0.7988
2083	0.8014
2074	0.8035
2065	0.8051
2056	0.8068
2047	0.8088
2038	0.8108
2029	0.8131
2020	0.8153
2011	0.816
2002	0.8111
1993	0.8104
1984	0.8151
1975	0.8112
1966	0.818
1957	0.824
1948	0.8257
1939	0.8228
1930	0.8303
1921	0.8338
1912	0.8334
1903	0.8347
1894	0.8377
1885	0.8383
1876	0.8391
1867	0.8392
1858	0.84
1849	0.8412
1840	0.8475
1831	0.8474
1822	0.8454
1813	0.8484
1804	0.8509
1795	0.8542
1786	0.8586
1777	0.863
1768	0.8674
1759	0.8709
1750	0.8734
1741	0.8754
1732	0.8744
1723	0.8728
1714	0.8824
1705	0.8875
1696	0.8906
1687	0.8918
1678	0.8924
1669	0.8938
1660	0.8923
1651	0.8864
1642	0.8591
1633	0.7417
1624	0.5317
1615	0.2924
1606	0.1494
1597	0.196
1588	0.3167
1579	0.4394
1570	0.5788
1561	0.454
1552	0.5889
1543	0.6771
1534	0.7142
1525	0.7395
1516	0.7532
1507	0.7339
1498	0.5055
1489	0.3394
1480	0.5087
1471	0.678
1462	0.5065
1453	0.4018
1444	0.4305
1435	0.5189
1426	0.5056
1417	0.5799
1408	0.6186
1399	0.6456
1390	0.6653
1381	0.6757
1372	0.676
1363	0.6668
1354	0.6424
1345	0.6139
1336	0.6275
1327	0.5944
1318	0.548
1309	0.5223
1300	0.4998
1291	0.4314
1282	0.4393
1273	0.4358
1264	0.3448
1255	0.2838
1246	0.4745
1237	0.5612
1228	0.5987
1219	0.6151
1210	0.6306
1201	0.6438
1192	0.6555
1183	0.666
1174	0.6675
1165	0.5291
1156	0.6323
1147	0.5975
1138	0.6794
1129	0.6921
1120	0.6298
1111	0.6845
1102	0.7108
1093	0.7058
1084	0.7025
1075	0.7036
1066	0.714
1057	0.7158
1048	0.5179
1039	0.6828
1030	0.3022
1021	0.5599
1012	0.6722
1003	0.7069
994	0.7208
985	0.7233
976	0.7217
967	0.7299
958	0.7268
949	0.5862
940	0.7362
931	0.7558
922	0.7564
913	0.7724
904	0.7761
895	0.7767
886	0.7876
877	0.7817
868	0.6875
859	0.7822
850	0.7525
841	0.5121
832	0.7431
823	0.8117
814	0.8281
805	0.8318
796	0.8278
787	0.8049
778	0.7398
769	0.2011
760	0.7303
751	0.7058
742	0.3016
733	0.4982
724	0.4312
715	0.2944
706	0.4628
697	0.4631
688	0.6057
679	0.4055
670	0.2653
661	0.3652
652	0.5402
643	0.5736
634	0.7375
625	0.7803
616	0.8038
607	0.8208
598	0.8323
589	0.8339
580	0.8196
571	0.7587
562	0.6038
553	0.8161
544	0.8278
535	0.8282
526	0.8262
517	0.8228
508	0.8192
499	0.8144
490	0.8091
481	0.7958
472	0.7669
463	0.6971
454	0.7093
445	0.6811
436	0.6267
427	0.6019
418	0.6467
409	0.6768
