Infrared Spectrum: CODEINONE, 14-HYDROXY-
Formula: C18 H19 N O4
CAS: 508-54-3
State: SOLID (1.2 mg / 250 mg KBr DISC)
Melting point: 275 C DECOMP.
Class: COBLENTZ III
Instrument: PERKIN-ELMER 21 (GRATING)
Instrument parameters: FILTER AT ABOUT 10 MICRONS
Sampling: TRANSMISSION
Resolution: 2
Origin: BUREAU OF CUSTOMS
1/CM	TRANSMITTANCE
4000	0.7836
3991	0.7854
3982	0.7872
3973	0.7887
3964	0.7876
3955	0.7868
3946	0.786
3937	0.7851
3928	0.7847
3919	0.7848
3910	0.785
3901	0.7851
3892	0.7856
3883	0.7862
3874	0.7869
3865	0.7875
3856	0.7885
3847	0.7899
3838	0.7914
3829	0.7931
3820	0.7946
3811	0.7957
3802	0.7965
3793	0.7975
3784	0.7975
3775	0.7974
3766	0.7967
3757	0.7953
3748	0.7934
3739	0.7914
3730	0.7904
3721	0.7898
3712	0.789
3703	0.7882
3694	0.7867
3685	0.7841
3676	0.7819
3667	0.78
3658	0.7782
3649	0.776
3640	0.7736
3631	0.7685
3622	0.7614
3613	0.7514
3604	0.7412
3595	0.7307
3586	0.7185
3577	0.709
3568	0.6951
3559	0.6776
3550	0.665
3541	0.6574
3532	0.6482
3523	0.6368
3514	0.6223
3505	0.611
3496	0.6032
3487	0.5965
3478	0.5896
3469	0.5817
3460	0.5743
3451	0.567
3442	0.5577
3433	0.5478
3424	0.539
3415	0.5336
3406	0.5312
3397	0.5302
3388	0.529
3379	0.5277
3370	0.526
3361	0.5232
3352	0.5195
3343	0.5138
3334	0.5073
3325	0.5019
3316	0.4956
3307	0.4979
3298	0.5041
3289	0.5209
3280	0.538
3271	0.5506
3262	0.5616
3253	0.5786
3244	0.5955
3235	0.6101
3226	0.6236
3217	0.6362
3208	0.6503
3199	0.6657
3190	0.6751
3181	0.6837
3172	0.6932
3163	0.7007
3154	0.7078
3145	0.7137
3136	0.7191
3127	0.7234
3118	0.7258
3109	0.7282
3100	0.7299
3091	0.7306
3082	0.73
3073	0.7265
3064	0.7199
3055	0.7145
3046	0.709
3037	0.7038
3028	0.7018
3019	0.7028
3010	0.7024
3001	0.6918
2992	0.664
2983	0.6162
2974	0.6056
2965	0.583
2956	0.536
2947	0.4887
2938	0.448
2929	0.4449
2920	0.4495
2911	0.4855
2902	0.5278
2893	0.5703
2884	0.6131
2875	0.6212
2866	0.6176
2857	0.5865
2848	0.5529
2839	0.5399
2830	0.5524
2821	0.5639
2812	0.5654
2803	0.5714
2794	0.598
2785	0.6555
2776	0.6732
2767	0.7015
2758	0.723
2749	0.7396
2740	0.7525
2731	0.7621
2722	0.7668
2713	0.7696
2704	0.7722
2695	0.775
2686	0.7775
2677	0.7796
2668	0.7821
2659	0.7847
2650	0.7864
2641	0.7878
2632	0.7888
2623	0.789
2614	0.7884
2605	0.7876
2596	0.7869
2587	0.7883
2578	0.7925
2569	0.7957
2560	0.7958
2551	0.7946
2542	0.7941
2533	0.7944
2524	0.7949
2515	0.7958
2506	0.7969
2497	0.7982
2488	0.799
2479	0.7997
2470	0.8006
2461	0.8015
2452	0.8025
2443	0.8036
2434	0.8047
2425	0.806
2416	0.8072
2407	0.8085
2398	0.8098
2389	0.8108
2380	0.8114
2371	0.8019
2362	0.7925
2353	0.7864
2344	0.7856
2335	0.7854
2326	0.7891
2317	0.796
2308	0.8025
2299	0.8089
2290	0.8132
2281	0.8131
2272	0.8124
2263	0.8125
2254	0.8128
2245	0.814
2236	0.8154
2227	0.8168
2218	0.8174
2209	0.8176
2200	0.818
2191	0.8178
2182	0.8178
2173	0.8176
2164	0.8175
2155	0.8175
2146	0.8175
2137	0.8175
2128	0.8175
2119	0.8183
2110	0.8192
2101	0.8199
2092	0.8201
2083	0.8192
2074	0.8181
2065	0.8168
2056	0.8161
2047	0.8151
2038	0.8151
2029	0.8153
2020	0.8155
2011	0.8158
2002	0.8161
1993	0.8165
1984	0.8174
1975	0.8181
1966	0.8193
1957	0.8209
1948	0.8225
1939	0.8239
1930	0.8251
1921	0.8262
1912	0.8277
1903	0.8289
1894	0.8292
1885	0.8277
1876	0.8162
1867	0.8118
1858	0.8141
1849	0.8167
1840	0.8192
1831	0.8205
1822	0.8208
1813	0.82
1804	0.819
1795	0.8178
1786	0.8161
1777	0.8138
1768	0.8082
1759	0.794
1750	0.7717
1741	0.7378
1732	0.6868
1723	0.6957
1714	0.7087
1705	0.6805
1696	0.4097
1687	0.124
1678	0.1513
1669	0.3504
1660	0.5518
1651	0.6078
1642	0.5666
1633	0.5584
1624	0.5662
1615	0.4325
1606	0.4798
1597	0.6298
1588	0.7143
1579	0.7386
1570	0.7554
1561	0.7578
1552	0.7618
1543	0.7541
1534	0.7397
1525	0.71
1516	0.629
1507	0.2587
1498	0.3156
1489	0.5714
1480	0.5951
1471	0.5036
1462	0.4645
1453	0.2877
1444	0.3459
1435	0.2913
1426	0.4524
1417	0.5646
1408	0.4995
1399	0.4904
1390	0.5809
1381	0.457
1372	0.5544
1363	0.3554
1354	0.4368
1345	0.3303
1336	0.4735
1327	0.4356
1318	0.5456
1309	0.6258
1300	0.611
1291	0.5521
1282	0.2755
1273	0.3518
1264	0.1864
1255	0.2365
1246	0.4008
1237	0.4555
1228	0.5619
1219	0.6217
1210	0.5221
1201	0.4975
1192	0.6365
1183	0.6558
1174	0.5871
1165	0.3893
1156	0.3659
1147	0.4776
1138	0.608
1129	0.609
1120	0.3412
1111	0.2374
1102	0.4623
1093	0.6383
1084	0.5558
1075	0.5442
1066	0.4144
1057	0.3862
1048	0.221
1039	0.2846
1030	0.5841
1021	0.5354
1012	0.4346
1003	0.6072
994	0.5233
985	0.2628
976	0.5835
967	0.7018
958	0.6042
949	0.6626
940	0.3349
931	0.4393
922	0.5788
913	0.6858
904	0.7347
895	0.726
886	0.5001
877	0.7003
868	0.6285
859	0.7454
850	0.7636
841	0.7432
832	0.5695
823	0.5147
814	0.5668
805	0.4547
796	0.4399
787	0.6358
778	0.729
769	0.6694
760	0.7368
751	0.7008
742	0.6741
733	0.7432
724	0.7275
715	0.631
706	0.6982
697	0.7025
688	0.6528
679	0.5621
670	0.6445
661	0.6365
