Infrared Spectrum: Tricyclene
Formula: C 10 H 16
CAS: 508-32-7
State: gas
Instrument: HP-GC/MS/IRD
Origin: NIST Mass Spectrometry Data Center
1/CM	ABSORBANCE
550	0.0037926
562	0.0029498
574	0.0001806
586	0
598	0.0002408
610	0.0015652
622	0.0026488
634	0.0014448
646	0.0003612
658	0.0001204
670	0.0001204
682	0.0002408
694	0.0004816
706	0.0013244
718	0.0019866
730	0.0009632
742	0.0003612
754	0.0005418
766	0.0008428
778	0.0011438
790	0.00301
802	0.0143276
814	0.025284
826	0.0216118
838	0.0284144
850	0.0385882
862	0.0326886
874	0.0210098
886	0.0077658
898	0.0045752
910	0.0046956
922	0.004515
934	0.0052374
946	0.004816
958	0.0057792
970	0.0116186
982	0.0107758
994	0.0042742
1006	0.0044548
1018	0.006622
1030	0.0088494
1042	0.010535
1054	0.006622
1066	0.0061404
1078	0.0143878
1090	0.0178794
1102	0.0089096
1114	0.0034314
1126	0.0037926
1138	0.005117
1150	0.0084882
1162	0.0103544
1174	0.012341
1186	0.01505
1198	0.009933
1210	0.0048762
1222	0.0040334
1234	0.0037926
1246	0.0048762
1258	0.005719
1270	0.0088494
1282	0.0154714
1294	0.023779
1306	0.0311836
1318	0.0226954
1330	0.0095116
1342	0.0092708
1354	0.025585
1366	0.055685
1378	0.0564676
1390	0.037926
1402	0.0178192
1414	0.0081872
1426	0.0116788
1438	0.026789
1450	0.0549626
1462	0.0747082
1474	0.0590562
1486	0.0297388
1498	0.0143878
1510	0.0067424
1522	0.0035518
1534	0.0024682
1546	0.0021672
1558	0.0021672
1570	0.0025284
1582	0.0028896
1594	0.0032508
1606	0.0034916
1618	0.003612
1630	0.0034916
1642	0.0029498
1654	0.002709
1666	0.0026488
1678	0.0025886
1690	0.0028294
1702	0.0028896
1714	0.0019866
1726	0.000903
1738	0.0003612
1750	0.000301
1762	0.0003612
1774	0.000602
1786	0.0008428
1798	0.001204
1810	0.0011438
1822	0.0013244
1834	0.0016254
1846	0.0016254
1858	0.0016254
1870	0.001505
1882	0.0015652
1894	0.0016856
1906	0.0016856
1918	0.001806
1930	0.0020468
1942	0.0019264
1954	0.0016254
1966	0.0017458
1978	0.0017458
1990	0.0017458
2002	0.0019866
2014	0.0018662
2026	0.0014448
2038	0.0010836
2050	0.000903
2062	0.000602
2074	0.0005418
2086	0.0006622
2098	0.0007826
2110	0.0006622
2122	0.0007224
2134	0.001204
2146	0.001806
2158	0.001806
2170	0.0014448
2182	0.001204
2194	0.000903
2206	0.0006622
2218	0.0007826
2230	0.0009632
2242	0.000903
2254	0.0007224
2266	0.0007224
2278	0.0005418
2290	0.000301
2302	0.000301
2314	0.0002408
2326	0.0001806
2338	0.000301
2350	0.0003612
2362	0.000301
2374	0.0002408
2386	0.0001204
2398	0.0002408
2410	0.0001204
2422	6.02e-05
2434	0.0001204
2446	0
2458	0
2470	0.0001204
2482	6.02e-05
2494	0.0001204
2506	0.0002408
2518	0.000301
2530	0.000301
2542	0.000301
2554	0.0002408
2566	0.0003612
2578	0.000602
2590	0.0006622
2602	0.000602
2614	0.0007826
2626	0.000903
2638	0.0010234
2650	0.0010836
2662	0.0010234
2674	0.0010836
2686	0.0013846
2698	0.002107
2710	0.0035518
2722	0.0059598
2734	0.0088494
2746	0.0101738
2758	0.0094514
2770	0.009331
2782	0.0095718
2794	0.0105952
2806	0.013244
2818	0.0167356
2830	0.0221536
2842	0.0318458
2854	0.0582736
2866	0.152487
2878	0.296124
2890	0.331521
2902	0.262532
2914	0.252659
2926	0.329535
2938	0.416163
2950	0.531686
2962	0.602
2974	0.543305
2986	0.369387
2998	0.158386
3010	0.0532168
3022	0.0273308
3034	0.0364812
3046	0.0911428
3058	0.145564
3070	0.0983668
3082	0.0302806
3094	0.016555
3106	0.014448
3118	0.013244
3130	0.0116186
3142	0.0094514
3154	0.0080668
3166	0.0071036
3178	0.0056588
3190	0.003913
3202	0.0028896
3214	0.0020468
3226	0.0013244
3238	0.000903
3250	0.0008428
3262	0.0009632
3274	0.0010234
3286	0.0007224
3298	0.0005418
3310	0.000602
3322	0.0008428
3334	0.001204
3346	0.0013846
3358	0.0012642
3370	0.0008428
3382	0.0005418
3394	0.0006622
3406	0.0010836
3418	0.0014448
3430	0.0014448
3442	0.0008428
3454	0.0003612
3466	0.0001204
3478	0.0001806
3490	0.0004214
3502	0.000602
3514	0.0005418
3526	0.000301
3538	6.02e-05
3550	0
3562	0
3574	0.0001204
3586	6.02e-05
3598	0.0002408
3610	0.000301
3622	0.0002408
3634	0.0001806
3646	0.0003612
3658	0.0004214
3670	0.0004816
3682	0.0004816
3694	0.0003612
3706	0.000301
3718	0.0003612
3730	0.0005418
3742	0.0007224
3754	0.0007224
3766	0.0007826
3778	0.0010234
3790	0.0010836
3802	0.0011438
3814	0.0013846
3826	0.0016254
3838	0.0017458
