Infrared Spectrum: 8-Bromo-1-octanol
Formula: C 8 H 17 Br O
CAS: 50816-19-8
State: gas
Origin: EPA-IR VAPOR PHASE LIBRARY
1/CM	ABSORBANCE
501.5	0.0002971
513.074	0.0004156
524.648	0.0003474
536.222	0.0004953
547.796	0.0005829
559.37	0.0010614
570.944	0.0017014
582.518	0.0009005
594.092	0.0003538
605.666	0.0002571
617.24	0.0003026
628.814	0.0006594
640.388	0.0014414
651.962	0.0022514
663.536	0.0011114
675.11	0.000468
686.684	0.0004481
698.258	0.0005729
709.832	0.0008781
721.406	0.0012314
732.98	0.0012014
744.554	0.0010314
756.128	0.0008948
767.702	0.0006869
779.276	0.0006036
790.85	0.0006726
802.423	0.0007063
813.997	0.000731
825.571	0.0007828
837.145	0.0008233
848.719	0.0009013
860.293	0.0010314
871.867	0.0012114
883.441	0.0012514
895.015	0.0013414
906.589	0.0013514
918.163	0.0014914
929.737	0.0016314
941.311	0.0018014
952.885	0.0019514
964.459	0.0022114
976.033	0.0027014
987.607	0.0032414
999.181	0.0043714
1010.76	0.0058714
1022.33	0.0078014
1033.9	0.0097614
1045.48	0.0108514
1057.05	0.0102214
1068.63	0.0077314
1080.2	0.0057614
1091.77	0.0037614
1103.35	0.0023714
1114.92	0.0017914
1126.49	0.0014614
1138.07	0.0015014
1149.64	0.0013414
1161.22	0.0014614
1172.79	0.0014414
1184.36	0.0016514
1195.94	0.0021114
1207.51	0.0030114
1219.09	0.0041214
1230.66	0.0046614
1242.23	0.0050414
1253.81	0.0053914
1265.38	0.0051714
1276.96	0.0046214
1288.53	0.0039914
1300.1	0.0034514
1311.68	0.0028314
1323.25	0.0024514
1334.83	0.0024914
1346.4	0.0029714
1357.97	0.0031414
1369.55	0.0030214
1381.12	0.0031514
1392.7	0.0028914
1404.27	0.0020914
1415.84	0.0017814
1427.42	0.0022814
1438.99	0.0038714
1450.57	0.0045614
1462.14	0.0044414
1473.71	0.0029914
1485.29	0.0016514
1496.86	0.00088
1508.44	0.0005676
1520.01	0.000435
1531.58	0.000336
1543.16	0.0003198
1554.73	0.0002484
1566.31	0.0002188
1577.88	0.0001957
1589.45	0.0001779
1601.03	0.000147
1612.6	0.0001412
1624.18	0.00010622
1635.75	8.246e-05
1647.32	9.231e-05
1658.9	8.893e-05
1670.47	2.72e-05
1682.05	6.047e-05
1693.62	4.178e-05
1705.19	3.0605e-05
1716.77	3.21235e-05
1728.34	1.94e-05
1739.92	1.55e-05
1751.49	3.6732e-05
1763.06	8.3e-06
1774.64	2.433e-05
1786.21	2.251e-05
1797.79	1.75e-05
1809.36	5.436e-05
1820.93	5.747e-05
1832.51	4.75e-05
1844.08	5.276e-05
1855.66	6.784e-05
1867.23	5.809e-05
1878.8	7.126e-05
1890.38	5.459e-05
1901.95	8.693e-05
1913.53	7.549e-05
1925.1	0.00010166
1936.67	9.975e-05
1948.25	7.009e-05
1959.82	0.00011643
1971.4	0.0001302
1982.97	0.000121
1994.54	0.0001465
2006.12	0.0001747
2017.69	0.0002012
2029.27	0.0002397
2040.84	0.0002336
2052.41	0.0002197
2063.99	0.0002407
2075.56	0.0001894
2087.14	0.0001824
2098.71	0.0001666
2110.28	0.0001351
2121.86	0.0001439
2133.43	0.0001695
2145.01	0.0001687
2156.58	0.0001547
2168.15	0.0001808
2179.73	0.0001904
2191.3	0.0001945
2202.88	0.0002185
2214.45	0.0001951
2226.02	0.0002063
2237.6	0.0002097
2249.17	0.0002079
2260.74	0.0002124
2272.32	0.0002094
2283.89	0.0002269
2295.47	0.0002214
2307.04	0.0002341
2318.61	0.0002385
2330.19	0.0002461
2341.76	0.0002694
2353.34	0.0002624
2364.91	0.0002936
2376.48	0.0002775
2388.06	0.0002669
2399.63	0.0002723
2411.21	0.0002493
2422.78	0.0002685
2434.35	0.0002614
2445.93	0.0002665
2457.5	0.0002659
2469.08	0.0002941
2480.65	0.0002646
2492.22	0.0002608
2503.8	0.0002772
2515.37	0.0002774
2526.95	0.0003029
2538.52	0.0003168
2550.09	0.0003276
2561.67	0.0002651
2573.24	0.0003234
2584.82	0.0003414
2596.39	0.0003918
2607.96	0.0004362
2619.54	0.0004761
2631.11	0.0005312
2642.69	0.0005905
2654.26	0.0006501
2665.83	0.0007521
2677.41	0.0007993
2688.98	0.0008839
2700.56	0.0009096
2712.13	0.0009191
2723.7	0.000964
2735.28	0.0010414
2746.85	0.0011414
2758.43	0.0012314
2770	0.0013914
2781.57	0.0015614
2793.15	0.0018014
2804.72	0.0021514
2816.3	0.0027014
2827.87	0.0037214
2839.44	0.0058714
2851.02	0.0108614
2862.59	0.0181814
2874.17	0.0189114
2885.74	0.0159714
2897.31	0.0158514
2908.89	0.0202914
2920.46	0.0304314
2932.04	0.0454214
2943.61	0.0448414
2955.18	0.0261014
2966.76	0.0153714
2978.33	0.0093814
2989.91	0.0050614
3001.48	0.0036814
3013.05	0.0037914
3024.63	0.0023214
3036.2	0.0014014
3047.78	0.0009546
3059.35	0.0008209
3070.92	0.0006966
3082.5	0.0006157
3094.07	0.000482
3105.65	0.0004717
3117.22	0.0004205
3128.79	0.0003949
3140.37	0.0003421
3151.94	0.0003343
3163.52	0.0003216
3175.09	0.0003218
3186.66	0.0003542
3198.24	0.000279
3209.81	0.0002802
3221.39	0.0003181
3232.96	0.0002954
3244.53	0.0002815
3256.11	0.0002826
3267.68	0.0003005
3279.26	0.000338
3290.83	0.0002486
3302.4	0.0002827
3313.98	0.0003056
3325.55	0.000274
3337.13	0.0003205
3348.7	0.0003153
3360.27	0.000289
3371.85	0.0003395
3383.42	0.0003461
3395	0.0003532
3406.57	0.0003281
3418.14	0.0002937
3429.72	0.0003907
3441.29	0.0003867
3452.86	0.0003809
3464.44	0.0003538
3476.01	0.000364
3487.59	0.0003838
3499.16	0.0003341
3510.73	0.0004307
3522.31	0.0004316
3533.88	0.0004009
3545.46	0.0003635
3557.03	0.0003991
3568.6	0.0003613
3580.18	0.0004382
3591.75	0.0004266
3603.33	0.0004758
3614.9	0.0006162
3626.47	0.0007838
3638.05	0.0010814
3649.62	0.0018214
3661.2	0.0031114
3672.77	0.0033914
3684.34	0.0019914
3695.92	0.0010414
3707.49	0.0007347
3719.07	0.0005553
3730.64	0.0004615
3742.21	0.0005267
3753.79	0.0005248
3765.36	0.0004121
3776.94	0.0004778
3788.51	0.0005152
3800.08	0.0005412
3811.66	0.0005458
3823.23	0.0005394
3834.81	0.0004641
3846.38	0.0005062
3857.95	0.0004912
3869.53	0.0005359
3881.1	0.0004971
3892.68	0.0005347
3904.25	0.0004423
3915.82	0.0004471
3927.4	0.0004634
3938.97	0.00044
3950.55	0.0004533
3962.12	0.0004292
3973.69	0.0004713
3985.27	0.0004913
3996.84	0.0005783
