Infrared Spectrum: 1-Bromo-8-tetrahydropyranyloxyoctane
Formula: C 13 H 25 Br O 2
CAS: 50816-20-1
State: gas
Origin: EPA-IR VAPOR PHASE LIBRARY
1/CM	ABSORBANCE
549.8	0.00836
559.445	0.012
569.09	0.01778
578.734	0.01184
588.379	0.00552
598.024	0.00405
607.669	0.00374
617.313	0.0045
626.958	0.00603
636.603	0.0096
646.248	0.01634
655.893	0.0141
665.537	0.00611
675.182	0.00381
684.827	0.00319
694.472	0.0039
704.116	0.00553
713.761	0.00891
723.406	0.01116
733.051	0.00978
742.695	0.00893
752.34	0.00844
761.985	0.00736
771.63	0.00723
781.275	0.00739
790.919	0.00923
800.564	0.01343
810.209	0.02095
819.854	0.0194
829.498	0.01127
839.143	0.01052
848.788	0.01415
858.433	0.02249
868.078	0.03836
877.722	0.03664
887.367	0.02733
897.012	0.0324
906.657	0.0443
916.301	0.03322
925.946	0.02291
935.591	0.02047
945.236	0.02206
954.88	0.02912
964.525	0.0438
974.17	0.05764
983.815	0.06629
993.46	0.06507
1003.1	0.06434
1012.75	0.09437
1022.39	0.18015
1032.04	0.26741
1041.68	0.26167
1051.33	0.14227
1060.97	0.14805
1070.62	0.18542
1080.26	0.20484
1089.91	0.11645
1099.55	0.0751
1109.2	0.09157
1118.84	0.13457
1128.49	0.15778
1138.13	0.15289
1147.78	0.0984
1157.42	0.08924
1167.07	0.08508
1176.71	0.07405
1186.36	0.06801
1196	0.07076
1205.64	0.07893
1215.29	0.0581
1224.93	0.04718
1234.58	0.04189
1244.22	0.04532
1253.87	0.05878
1263.51	0.06437
1273.16	0.05322
1282.8	0.04635
1292.45	0.03557
1302.09	0.02926
1311.74	0.0277
1321.38	0.03103
1331.03	0.03014
1340.67	0.0506
1350.32	0.07472
1359.96	0.06369
1369.61	0.05407
1379.25	0.04121
1388.9	0.0278
1398.54	0.02014
1408.18	0.0185
1417.83	0.0174
1427.47	0.02234
1437.12	0.03948
1446.76	0.05382
1456.41	0.05589
1466.05	0.04782
1475.7	0.03029
1485.34	0.01574
1494.99	0.00837
1504.63	0.00547
1514.28	0.00391
1523.92	0.00309
1533.57	0.00257
1543.21	0.0024
1552.86	0.00222
1562.5	0.00213
1572.15	0.00202
1581.79	0.00173
1591.44	0.00181
1601.08	0.00202
1610.73	0.00209
1620.37	0.00245
1630.01	0.00279
1639.66	0.0032
1649.3	0.00326
1658.95	0.00299
1668.59	0.00258
1678.24	0.00173
1687.88	0.00169
1697.53	0.00162
1707.17	0.00156
1716.82	0.00169
1726.46	0.00155
1736.11	0.00164
1745.75	0.00159
1755.4	0.00166
1765.04	0.00168
1774.69	0.00178
1784.33	0.00171
1793.98	0.00185
1803.62	0.00182
1813.27	0.00186
1822.91	0.00205
1832.55	0.0023
1842.2	0.00246
1851.84	0.00247
1861.49	0.00216
1871.13	0.00201
1880.78	0.0022
1890.42	0.00242
1900.07	0.00268
1909.71	0.0028
1919.36	0.00285
1929	0.00281
1938.65	0.00268
1948.29	0.00255
1957.94	0.00258
1967.58	0.00274
1977.23	0.00285
1986.87	0.00305
1996.52	0.00313
2006.16	0.00303
2015.81	0.00316
2025.45	0.00303
2035.1	0.00294
2044.74	0.00267
2054.38	0.00259
2064.03	0.00259
2073.67	0.0027
2083.32	0.00279
2092.96	0.0027
2102.61	0.00278
2112.25	0.00249
2121.9	0.00241
2131.54	0.00232
2141.19	0.00247
2150.83	0.00253
2160.48	0.00256
2170.12	0.00242
2179.77	0.00232
2189.41	0.0023
2199.06	0.0023
2208.7	0.00234
2218.35	0.0023
2227.99	0.00225
2237.64	0.00235
2247.28	0.00241
2256.92	0.00233
2266.57	0.00229
2276.21	0.00221
2285.86	0.00204
2295.5	0.00193
2305.15	0.00194
2314.79	0.00191
2324.44	0.0021
2334.08	0.00185
2343.73	0.00172
2353.37	0.00181
2363.02	0.00188
2372.66	0.00183
2382.31	0.00207
2391.95	0.002
2401.6	0.00204
2411.24	0.00186
2420.89	0.00172
2430.53	0.00173
2440.18	0.00168
2449.82	0.0016
2459.47	0.00177
2469.11	0.00188
2478.75	0.00197
2488.4	0.00199
2498.04	0.00209
2507.69	0.00211
2517.33	0.00215
2526.98	0.00218
2536.62	0.00228
2546.27	0.00229
2555.91	0.00238
2565.56	0.00242
2575.2	0.00264
2584.85	0.0033
2594.49	0.00376
2604.14	0.0046
2613.78	0.00519
2623.43	0.00594
2633.07	0.00689
2642.72	0.00849
2652.36	0.01003
2662.01	0.01073
2671.65	0.01022
2681.29	0.00996
2690.94	0.00993
2700.58	0.01005
2710.23	0.0106
2719.87	0.01127
2729.52	0.01221
2739.16	0.01264
2748.81	0.01253
2758.45	0.01258
2768.1	0.01352
2777.74	0.01617
2787.39	0.02015
2797.03	0.02216
2806.68	0.02343
2816.32	0.02778
2825.97	0.03751
2835.61	0.05715
2845.26	0.0951
2854.9	0.14779
2864.55	0.20693
2874.19	0.19637
2883.84	0.15912
2893.48	0.141
2903.12	0.17543
2912.77	0.22031
2922.41	0.29974
2932.06	0.43337
2941.7	0.50288
2951.35	0.46158
2960.99	0.2943
2970.64	0.20477
2980.28	0.103
2989.93	0.04775
2999.57	0.02903
3009.22	0.02775
3018.86	0.02173
3028.51	0.01226
3038.15	0.00874
3047.8	0.0071
3057.44	0.0059
3067.09	0.00496
3076.73	0.00461
3086.38	0.00371
3096.02	0.00334
3105.67	0.00248
3115.31	0.00255
3124.95	0.00211
3134.6	0.00227
3144.24	0.00213
3153.89	0.00219
3163.53	0.00181
3173.18	0.00197
3182.82	0.00179
3192.47	0.00155
3202.11	0.0015
3211.76	0.00128
3221.4	0.00127
3231.05	0.0009265
3240.69	0.00095
3250.34	0.00102
3259.98	0.00104
3269.63	0.001
3279.27	0.0008478
3288.92	0.0009936
3298.56	0.0009394
3308.21	0.0008606
3317.85	0.0007857
3327.49	0.0006788
3337.14	0.0008245
3346.78	0.000771
3356.43	0.0007551
3366.07	0.0006701
3375.72	0.0006371
3385.36	0.0007549
3395.01	0.0007399
3404.65	0.0008089
3414.3	0.0007003
3423.94	0.0004367
3433.59	0.0005539
3443.23	0.000542
3452.88	0.0006892
3462.52	0.0008521
3472.17	0.0006923
3481.81	0.0006915
3491.46	0.0005439
3501.1	0.0006422
3510.75	0.0007452
3520.39	0.0006061
3530.04	0.000744
3539.68	0.000257
3549.32	0.000318
3558.97	0.0003784
3568.61	0.0004915
3578.26	0.0007585
3587.9	0.0004454
3597.55	0.0006191
3607.19	0.0007932
3616.84	0.0005839
3626.48	0.0007722
3636.13	0.0008507
3645.77	0.0007716
3655.42	0.0012
3665.06	0.00129
3674.71	0.00159
3684.35	0.00104
3694	0.00112
3703.64	0.0009542
3713.29	0.0009057
3722.93	0.00102
3732.58	0.00126
3742.22	0.00115
3751.86	0.00129
3761.51	0.00126
3771.15	0.00138
3780.8	0.00131
3790.44	0.00146
3800.09	0.00125
3809.73	0.00162
3819.38	0.00128
3829.02	0.00124
3838.67	0.00141
3848.31	0.00156
3857.96	0.00145
3867.6	0.0013
3877.25	0.00132
3886.89	0.00166
3896.54	0.00154
3906.18	0.0018
3915.83	0.00186
3925.47	0.00155
3935.12	0.00162
3944.76	0.00199
3954.41	0.00207
3964.05	0.00212
3973.69	0.00202
3983.34	0.00216
3992.98	0.00201
