Infrared Spectrum: Methyl 3-methoxy-4-nitrobenzoate
Formula: C 9 H 9 N O 5
CAS: 5081-37-8
State: gas
Origin: EPA-IR VAPOR PHASE LIBRARY
1/CM	ABSORBANCE
549.8	0.003089
559.445	0.003969
569.09	0.005079
578.734	0.005179
588.379	0.005319
598.024	0.006099
607.669	0.005249
617.313	0.002869
626.958	0.002019
636.603	0.001749
646.248	0.0014417
655.893	0.0013836
665.537	0.001869
675.182	0.003799
684.827	0.008799
694.472	0.006589
704.116	0.005389
713.761	0.005189
723.406	0.005599
733.051	0.010469
742.695	0.023239
752.34	0.030519
761.985	0.025889
771.63	0.024519
781.275	0.025349
790.919	0.019819
800.564	0.008439
810.209	0.007289
819.854	0.011679
829.498	0.038779
839.143	0.047229
848.788	0.015759
858.433	0.008689
868.078	0.008949
877.722	0.014419
887.367	0.022659
897.012	0.020199
906.657	0.011909
916.301	0.006929
925.946	0.003889
935.591	0.003319
945.236	0.004379
954.88	0.005679
964.525	0.009369
974.17	0.019089
983.815	0.027709
993.46	0.024159
1003.1	0.017959
1012.75	0.026089
1022.39	0.053499
1032.04	0.067989
1041.68	0.044329
1051.33	0.027049
1060.97	0.024259
1070.62	0.030579
1080.26	0.046509
1089.91	0.056829
1099.55	0.059639
1109.2	0.069179
1118.84	0.051019
1128.49	0.028569
1138.13	0.021079
1147.78	0.020329
1157.42	0.021279
1167.07	0.020639
1176.71	0.028499
1186.36	0.040719
1196	0.040039
1205.64	0.043549
1215.29	0.069039
1224.93	0.135399
1234.58	0.209369
1244.22	0.172539
1253.87	0.095909
1263.51	0.083409
1273.16	0.114099
1282.8	0.203629
1292.45	0.298599
1302.09	0.224049
1311.74	0.105029
1321.38	0.055539
1331.03	0.042719
1340.67	0.049559
1350.32	0.069339
1359.96	0.079349
1369.61	0.058439
1379.25	0.034839
1388.9	0.032349
1398.54	0.052569
1408.18	0.081539
1417.83	0.059989
1427.47	0.037769
1437.12	0.062549
1446.76	0.051049
1456.41	0.043279
1466.05	0.049539
1475.7	0.048899
1485.34	0.050209
1494.99	0.044919
1504.63	0.036169
1514.28	0.039189
1523.92	0.050689
1533.57	0.079389
1543.21	0.132309
1552.86	0.135469
1562.5	0.086339
1572.15	0.061579
1581.79	0.067599
1591.44	0.079009
1601.08	0.082479
1610.73	0.077999
1620.37	0.045099
1630.01	0.018939
1639.66	0.010929
1649.3	0.008749
1658.95	0.007679
1668.59	0.007889
1678.24	0.008509
1687.88	0.009079
1697.53	0.011379
1707.17	0.016729
1716.82	0.019769
1726.46	0.029149
1736.11	0.080869
1745.75	0.196259
1755.4	0.154209
1765.04	0.046799
1774.69	0.023299
1784.33	0.020059
1793.98	0.014139
1803.62	0.007799
1813.27	0.005199
1822.91	0.004029
1832.55	0.003199
1842.2	0.002999
1851.84	0.003129
1861.49	0.003429
1871.13	0.003129
1880.78	0.002949
1890.42	0.003139
1900.07	0.003419
1909.71	0.003489
1919.36	0.002929
1929	0.002709
1938.65	0.002619
1948.29	0.002709
1957.94	0.002499
1967.58	0.002509
1977.23	0.002679
1986.87	0.002529
1996.52	0.002649
2006.16	0.002969
2015.81	0.002989
2025.45	0.002669
2035.1	0.002559
2044.74	0.002669
2054.38	0.002999
2064.03	0.003449
2073.67	0.003679
2083.32	0.003219
2092.96	0.002449
2102.61	0.002269
2112.25	0.002559
2121.9	0.002919
2131.54	0.002879
2141.19	0.002589
2150.83	0.001889
2160.48	0.001659
2170.12	0.001699
2179.77	0.001749
2189.41	0.001829
2199.06	0.001849
2208.7	0.001569
2218.35	0.0014938
2227.99	0.0014182
2237.64	0.0013957
2247.28	0.0011725
2256.92	0.0012691
2266.57	0.001216
2276.21	0.001342
2285.86	0.001496
2295.5	0.001749
2305.15	0.0014365
2314.79	0.0014976
2324.44	0.001659
2334.08	0.0013593
2343.73	0.001669
2353.37	0.0015158
2363.02	0.001789
2372.66	0.001999
2382.31	0.002099
2391.95	0.001869
2401.6	0.001659
2411.24	0.001569
2420.89	0.0015092
2430.53	0.001579
2440.18	0.001689
2449.82	0.001769
2459.47	0.001599
2469.11	0.001659
2478.75	0.001739
2488.4	0.001709
2498.04	0.001589
2507.69	0.001719
2517.33	0.001709
2526.98	0.001789
2536.62	0.001949
2546.27	0.001669
2555.91	0.001629
2565.56	0.001979
2575.2	0.002059
2584.85	0.002309
2594.49	0.002349
2604.14	0.002119
2613.78	0.001979
2623.43	0.002079
2633.07	0.001869
2642.72	0.002089
2652.36	0.001939
2662.01	0.001759
2671.65	0.001739
2681.29	0.001729
2690.94	0.002309
2700.58	0.002359
2710.23	0.002359
2719.87	0.002199
2729.52	0.001889
2739.16	0.001829
2748.81	0.001809
2758.45	0.001919
2768.1	0.001849
2777.74	0.001909
2787.39	0.002019
2797.03	0.002019
2806.68	0.002729
2816.32	0.003679
2825.97	0.005109
2835.61	0.008169
2845.26	0.013459
2854.9	0.015789
2864.55	0.012439
2874.19	0.011679
2883.84	0.011839
2893.48	0.011739
2903.12	0.013019
2912.77	0.014069
2922.41	0.014829
2932.06	0.015549
2941.7	0.022209
2951.35	0.034729
2960.99	0.054949
2970.64	0.037589
2980.28	0.018689
2989.93	0.014209
2999.57	0.014539
3009.22	0.016819
3018.86	0.019199
3028.51	0.016339
3038.15	0.011089
3047.8	0.008249
3057.44	0.006519
3067.09	0.005659
3076.73	0.005609
3086.38	0.006619
3096.02	0.004989
3105.67	0.003869
3115.31	0.003129
3124.95	0.002719
3134.6	0.002249
3144.24	0.002079
3153.89	0.001689
3163.53	0.001609
3173.18	0.0012828
3182.82	0.0011733
3192.47	0.0011711
3202.11	0.0010271
3211.76	0.0008417
3221.4	0.0009535
3231.05	0.00062738
3240.69	0.0007901
3250.34	0.0005499
3259.98	0.0007764
3269.63	0.0009345
3279.27	0.000415
3288.92	0.000345
3298.56	0.000425
3308.21	0.000417
3317.85	0.000852
3327.49	0.0006958
3337.14	0.0007019
3346.78	0.000560447
3356.43	0.000454
3366.07	0.000563345
3375.72	0.000559325
3385.36	0.000448
3395.01	0.000328
3404.65	0.00062472
3414.3	0.000395
3423.94	0.00060351
3433.59	0.0004744
3443.23	0.0007721
3452.88	0.0010839
3462.52	0.0013094
3472.17	0.002279
3481.81	0.002169
3491.46	0.0014071
3501.1	0.0009319
3510.75	0.0008872
3520.39	0.00061516
3530.04	0.0004593
3539.68	0.000304
3549.32	0.000335
3558.97	0.000425
3568.61	0.000368
3578.26	0.000208
3587.9	0.000282
3597.55	0.000232
3607.19	0.000363
3616.84	8.5e-05
3626.48	0.000389
3636.13	0.000216
3645.77	9.5e-05
3655.42	0.000206
3665.06	0.000388
3674.71	0.000352
3684.35	0.000266
3694	0.000322
3703.64	0.0005269
3713.29	0.0005308
3722.93	0.000457
3732.58	0.000218
3742.22	0.0008398
3751.86	0.000318
3761.51	0.000362
3771.15	0.0004911
3780.8	0.000367
3790.44	0.000382
3800.09	0.000358
3809.73	0.000425
3819.38	0.0004979
3829.02	0.00057074
3838.67	0.0004753
3848.31	0.0007341
3857.96	8.7e-05
3867.6	0.0005523
3877.25	0.000281
3886.89	0.00060865
3896.54	0.0005344
3906.18	0.0006684
3915.83	0.000136
3925.47	0.00065595
3935.12	0.0007197
3944.76	0.0007532
3954.41	0.0007108
3964.05	0.0010119
3973.69	0.0008072
3983.34	0.0009615
3992.98	0.0012126
