Infrared Spectrum: 3-(Trifluoromethoxy)benzyl alcohol
Formula: C 8 H 7 F 3 O 2
CAS: 50823-90-0
State: gas
Origin: EPA-IR VAPOR PHASE LIBRARY
1/CM	ABSORBANCE
549.8	0.004031
559.445	0.003461
569.09	0.003661
578.734	0.004241
588.379	0.005161
598.024	0.006111
607.669	0.008221
617.313	0.011651
626.958	0.023111
636.603	0.029251
646.248	0.012421
655.893	0.006921
665.537	0.006051
675.182	0.009621
684.827	0.020011
694.472	0.032251
704.116	0.029771
713.761	0.016801
723.406	0.009441
733.051	0.008561
742.695	0.009731
752.34	0.014641
761.985	0.017061
771.63	0.019501
781.275	0.027331
790.919	0.031931
800.564	0.021531
810.209	0.009901
819.854	0.005751
829.498	0.005981
839.143	0.008001
848.788	0.015021
858.433	0.027501
868.078	0.029331
877.722	0.022691
887.367	0.016241
897.012	0.011511
906.657	0.009751
916.301	0.008481
925.946	0.009141
935.591	0.010451
945.236	0.013191
954.88	0.018401
964.525	0.022611
974.17	0.023831
983.815	0.022981
993.46	0.026781
1003.1	0.035511
1012.75	0.040551
1022.39	0.049531
1032.04	0.056451
1041.68	0.053401
1051.33	0.043871
1060.97	0.035311
1070.62	0.025781
1080.26	0.021221
1089.91	0.016821
1099.55	0.016291
1109.2	0.016121
1118.84	0.019641
1128.49	0.029911
1138.13	0.047851
1147.78	0.071121
1157.42	0.104541
1167.07	0.174121
1176.71	0.294071
1186.36	0.397861
1196	0.333051
1205.64	0.323911
1215.29	0.498021
1224.93	0.582981
1234.58	0.412911
1244.22	0.393131
1253.87	0.611131
1263.51	0.927061
1273.16	0.792821
1282.8	0.323211
1292.45	0.144871
1302.09	0.089761
1311.74	0.060171
1321.38	0.043791
1331.03	0.033621
1340.67	0.027021
1350.32	0.023551
1359.96	0.024771
1369.61	0.029011
1379.25	0.031251
1388.9	0.026381
1398.54	0.021671
1408.18	0.018411
1417.83	0.016481
1427.47	0.017451
1437.12	0.029611
1446.76	0.050571
1456.41	0.040511
1466.05	0.028091
1475.7	0.027411
1485.34	0.042611
1494.99	0.044691
1504.63	0.021611
1514.28	0.011361
1523.92	0.008291
1533.57	0.007581
1543.21	0.008351
1552.86	0.009631
1562.5	0.012281
1572.15	0.016971
1581.79	0.030021
1591.44	0.043791
1601.08	0.038031
1610.73	0.034691
1620.37	0.022521
1630.01	0.009721
1639.66	0.005941
1649.3	0.005371
1658.95	0.004701
1668.59	0.004171
1678.24	0.003651
1687.88	0.003641
1697.53	0.003531
1707.17	0.003131
1716.82	0.003431
1726.46	0.003261
1736.11	0.003291
1745.75	0.003761
1755.4	0.004131
1765.04	0.004321
1774.69	0.004581
1784.33	0.004111
1793.98	0.003531
1803.62	0.002941
1813.27	0.002831
1822.91	0.002731
1832.55	0.002901
1842.2	0.003191
1851.84	0.003371
1861.49	0.003861
1871.13	0.003881
1880.78	0.003211
1890.42	0.002751
1900.07	0.002571
1909.71	0.003091
1919.36	0.003721
1929	0.004531
1938.65	0.004101
1948.29	0.003021
1957.94	0.002511
1967.58	0.002411
1977.23	0.002481
1986.87	0.002651
1996.52	0.002721
2006.16	0.002821
2015.81	0.002961
2025.45	0.003171
2035.1	0.003321
2044.74	0.003451
2054.38	0.003241
2064.03	0.003401
2073.67	0.003911
2083.32	0.003821
2092.96	0.003621
2102.61	0.003691
2112.25	0.003871
2121.9	0.004221
2131.54	0.003791
2141.19	0.003261
2150.83	0.002431
2160.48	0.002041
2170.12	0.001791
2179.77	0.001891
2189.41	0.001561
2199.06	0.001921
2208.7	0.001821
2218.35	0.001791
2227.99	0.001661
2237.64	0.001491
2247.28	0.001351
2256.92	0.001651
2266.57	0.001381
2276.21	0.001441
2285.86	0.001631
2295.5	0.001481
2305.15	0.001681
2314.79	0.001941
2324.44	0.001831
2334.08	0.002031
2343.73	0.002351
2353.37	0.002321
2363.02	0.002301
2372.66	0.002521
2382.31	0.002591
2391.95	0.003051
2401.6	0.003201
2411.24	0.003311
2420.89	0.003341
2430.53	0.004171
2440.18	0.005291
2449.82	0.005131
2459.47	0.004911
2469.11	0.005261
2478.75	0.005691
2488.4	0.005901
2498.04	0.004781
2507.69	0.004231
2517.33	0.003321
2526.98	0.002991
2536.62	0.002551
2546.27	0.002391
2555.91	0.001671
2565.56	0.001511
2575.2	0.001331
2584.85	0.001311
2594.49	0.001301
2604.14	0.001125
2613.78	0.001521
2623.43	0.0012192
2633.07	0.0009063
2642.72	0.001138
2652.36	0.0012412
2662.01	0.001165
2671.65	0.0009747
2681.29	0.001311
2690.94	0.001391
2700.58	0.001691
2710.23	0.001621
2719.87	0.001781
2729.52	0.002001
2739.16	0.001681
2748.81	0.002121
2758.45	0.001791
2768.1	0.001981
2777.74	0.002121
2787.39	0.002741
2797.03	0.002861
2806.68	0.003671
2816.32	0.003861
2825.97	0.004751
2835.61	0.006211
2845.26	0.007961
2854.9	0.010581
2864.55	0.014351
2874.19	0.019021
2883.84	0.023551
2893.48	0.022471
2903.12	0.020251
2912.77	0.018261
2922.41	0.018651
2932.06	0.019301
2941.7	0.017681
2951.35	0.015841
2960.99	0.013331
2970.64	0.010161
2980.28	0.006881
2989.93	0.005071
2999.57	0.003591
3009.22	0.003331
3018.86	0.004001
3028.51	0.005751
3038.15	0.008201
3047.8	0.010181
3057.44	0.010781
3067.09	0.011251
3076.73	0.011531
3086.38	0.009681
3096.02	0.005911
3105.67	0.004051
3115.31	0.002561
3124.95	0.001501
3134.6	0.001391
3144.24	0.0008587
3153.89	0.0009198
3163.53	0.0006836
3173.18	0.0009714
3182.82	0.000945
3192.47	0.0005837
3202.11	0.0008782
3211.76	0.0009759
3221.4	0.0009266
3231.05	0.0009869
3240.69	0.0008495
3250.34	9.7e-05
3259.98	0.0011423
3269.63	0.0005748
3279.27	0.0007709
3288.92	0.0008154
3298.56	0.0007106
3308.21	0.0006711
3317.85	0.000891
3327.49	0.0007464
3337.14	0.0012098
3346.78	0.0011995
3356.43	0.0010789
3366.07	0.0010052
3375.72	0.001621
3385.36	0.001391
3395.01	0.0011899
3404.65	0.0009424
3414.3	0.001321
3423.94	0.001531
3433.59	0.001361
3443.23	0.0006401
3452.88	0.0011224
3462.52	0.001531
3472.17	0.001451
3481.81	0.001311
3491.46	0.001511
3501.1	0.001551
3510.75	0.001371
3520.39	0.0008686
3530.04	0.001921
3539.68	0.001311
3549.32	0.001441
3558.97	0.001251
3568.61	0.0008879
3578.26	0.001741
3587.9	0.001871
3597.55	0.001551
3607.19	0.002711
3616.84	0.004091
3626.48	0.005471
3636.13	0.008821
3645.77	0.013741
3655.42	0.016651
3665.06	0.016741
3674.71	0.013471
3684.35	0.009681
3694	0.006191
3703.64	0.003771
3713.29	0.002351
3722.93	0.002071
3732.58	0.002061
3742.22	0.001421
3751.86	0.002121
3761.51	0.0010142
3771.15	0.001391
3780.8	0.001831
3790.44	0.0010088
3800.09	0.001841
3809.73	0.001251
3819.38	0.001291
3829.02	0.001581
3838.67	0.001751
3848.31	0.002031
3857.96	0.0011166
3867.6	0.001671
3877.25	0.001951
3886.89	0.002241
3896.54	0.001761
3906.18	0.001661
3915.83	0.001741
3925.47	0.001381
3935.12	0.0011404
3944.76	0.0012155
3954.41	0.00026127
3964.05	0.0008044
3973.69	0.001411
3983.34	0.0012091
3992.98	0.0010658
