Infrared Spectrum: 4-(Trifluoromethoxy)benzyl bromide
Formula: C 8 H 6 Br F 3 O
CAS: 50824-05-0
State: gas
Origin: EPA-IR VAPOR PHASE LIBRARY
1/CM	ABSORBANCE
549.8	0.0017349
559.445	0.002485
569.09	0.0017234
578.734	0.003045
588.379	0.006355
598.024	0.009795
607.669	0.013305
617.313	0.013195
626.958	0.010215
636.603	0.006895
646.248	0.005745
655.893	0.004695
665.537	0.007235
675.182	0.009015
684.827	0.007745
694.472	0.005205
704.116	0.003905
713.761	0.003155
723.406	0.002775
733.051	0.002815
742.695	0.002105
752.34	0.0015941
761.985	0.002965
771.63	0.003625
781.275	0.003195
790.919	0.003655
800.564	0.005875
810.209	0.009575
819.854	0.012085
829.498	0.015385
839.143	0.013975
848.788	0.010195
858.433	0.007875
868.078	0.004985
877.722	0.004335
887.367	0.002715
897.012	0.003135
906.657	0.003265
916.301	0.004475
925.946	0.007205
935.591	0.004975
945.236	0.003055
954.88	0.002955
964.525	0.002375
974.17	0.002105
983.815	0.001915
993.46	0.001895
1003.1	0.002105
1012.75	0.005235
1022.39	0.010045
1032.04	0.002595
1041.68	0.002345
1051.33	0.002425
1060.97	0.002745
1070.62	0.003825
1080.26	0.006645
1089.91	0.007975
1099.55	0.010275
1109.2	0.010085
1118.84	0.008385
1128.49	0.010745
1138.13	0.012265
1147.78	0.018975
1157.42	0.033965
1167.07	0.062905
1176.71	0.112165
1186.36	0.169975
1196	0.169585
1205.64	0.144875
1215.29	0.206595
1224.93	0.218755
1234.58	0.154475
1244.22	0.144135
1253.87	0.229325
1263.51	0.375805
1273.16	0.309415
1282.8	0.143645
1292.45	0.066805
1302.09	0.038025
1311.74	0.023495
1321.38	0.015395
1331.03	0.011055
1340.67	0.008165
1350.32	0.006205
1359.96	0.004755
1369.61	0.003835
1379.25	0.003485
1388.9	0.003265
1398.54	0.003425
1408.18	0.003985
1417.83	0.003975
1427.47	0.003935
1437.12	0.004215
1446.76	0.004125
1456.41	0.003475
1466.05	0.003335
1475.7	0.003445
1485.34	0.005015
1494.99	0.011275
1504.63	0.040515
1514.28	0.040915
1523.92	0.011295
1533.57	0.007655
1543.21	0.005445
1552.86	0.004225
1562.5	0.004445
1572.15	0.004965
1581.79	0.005435
1591.44	0.006335
1601.08	0.008185
1610.73	0.009955
1620.37	0.005495
1630.01	0.003515
1639.66	0.003185
1649.3	0.002685
1658.95	0.002575
1668.59	0.002385
1678.24	0.002115
1687.88	0.002005
1697.53	0.0015651
1707.17	0.0018364
1716.82	0.0015465
1726.46	0.0016712
1736.11	0.0016565
1745.75	0.0017785
1755.4	0.002225
1765.04	0.002645
1774.69	0.002195
1784.33	0.001945
1793.98	0.001945
1803.62	0.0016525
1813.27	0.001925
1822.91	0.0017264
1832.55	0.0017581
1842.2	0.0016874
1851.84	0.0017646
1861.49	0.0015397
1871.13	0.002175
1880.78	0.002655
1890.42	0.002765
1900.07	0.002825
1909.71	0.002085
1919.36	0.001638
1929	0.0015194
1938.65	0.0015159
1948.29	0.00171
1957.94	0.0018072
1967.58	0.0016534
1977.23	0.0018315
1986.87	0.0018429
1996.52	0.002195
2006.16	0.002045
2015.81	0.001995
2025.45	0.001935
2035.1	0.001915
2044.74	0.001875
2054.38	0.001935
2064.03	0.0017407
2073.67	0.001875
2083.32	0.0017649
2092.96	0.0016113
2102.61	0.001945
2112.25	0.001865
2121.9	0.0017454
2131.54	0.001772
2141.19	0.0018106
2150.83	0.001634
2160.48	0.0014421
2170.12	0.0016803
2179.77	0.0017637
2189.41	0.0016874
2199.06	0.0013077
2208.7	0.0012053
2218.35	0.00093026
2227.99	0.00086252
2237.64	0.0011075
2247.28	0.0010216
2256.92	0.0012377
2266.57	0.0010056
2276.21	0.001126
2285.86	0.0013697
2295.5	0.0011606
2305.15	0.0013017
2314.79	0.0014177
2324.44	0.001379
2334.08	0.001455
2343.73	0.0014572
2353.37	0.001588
2363.02	0.0013246
2372.66	0.001543
2382.31	0.0013467
2391.95	0.0017172
2401.6	0.001985
2411.24	0.001875
2420.89	0.002185
2430.53	0.002765
2440.18	0.002995
2449.82	0.002925
2459.47	0.002495
2469.11	0.002175
2478.75	0.002705
2488.4	0.002605
2498.04	0.002675
2507.69	0.002285
2517.33	0.002115
2526.98	0.0015099
2536.62	0.0017738
2546.27	0.0015258
2555.91	0.0015336
2565.56	0.0012359
2575.2	0.0012163
2584.85	0.0013484
2594.49	0.0012071
2604.14	0.00088016
2613.78	0.00094463
2623.43	0.0009716
2633.07	0.00093613
2642.72	0.0009585
2652.36	0.0012957
2662.01	0.0010907
2671.65	0.00136
2681.29	0.0010846
2690.94	0.00085699
2700.58	0.0008066
2710.23	0.0009778
2719.87	0.00085623
2729.52	0.00089296
2739.16	0.0007854
2748.81	0.0010369
2758.45	0.0010405
2768.1	0.0010419
2777.74	0.0009815
2787.39	0.000677
2797.03	0.0008146
2806.68	0.0010334
2816.32	0.0010133
2825.97	0.0010652
2835.61	0.0011302
2845.26	0.0010782
2854.9	0.0007523
2864.55	0.0011133
2874.19	0.0013105
2883.84	0.0012269
2893.48	0.000948
2903.12	0.0012585
2912.77	0.0016068
2922.41	0.0012586
2932.06	0.0008163
2941.7	0.0016494
2951.35	0.0017618
2960.99	0.002185
2970.64	0.003585
2980.28	0.004095
2989.93	0.003095
2999.57	0.002175
3009.22	0.002245
3018.86	0.002155
3028.51	0.002465
3038.15	0.003955
3047.8	0.004895
3057.44	0.003825
3067.09	0.002485
3076.73	0.002205
3086.38	0.002075
3096.02	0.0016758
3105.67	0.0011404
3115.31	0.001925
3124.95	0.0017002
3134.6	0.00089019
3144.24	0.001328
3153.89	0.0014975
3163.53	0.00067
3173.18	0.0013435
3182.82	0.0008066
3192.47	0.000554
3202.11	0.00093817
3211.76	0.00090322
3221.4	0.0016608
3231.05	0.0010758
3240.69	0.0011049
3250.34	0.0009519
3259.98	0.0013264
3269.63	0.0009609
3279.27	0.0011416
3288.92	0.0013931
3298.56	0.00064
3308.21	0.00051
3317.85	0.001125
3327.49	0.0008052
3337.14	0.0010187
3346.78	0.000949
3356.43	0.00067
3366.07	0.0011972
3375.72	0.000675
3385.36	0.00086825
3395.01	0.0010753
3404.65	0.000408
3414.3	0.0008064
3423.94	0.0007729
3433.59	0.0010784
3443.23	0.001024
3452.88	0.000847745
3462.52	0.0012625
3472.17	0.0010929
3481.81	0.0012412
3491.46	0.000635
3501.1	0.000718
3510.75	0.0010808
3520.39	0.00088478
3530.04	0.0009601
3539.68	0.000462
3549.32	0.000436
3558.97	0.000696
3568.61	0.0012839
3578.26	0.00086631
3587.9	0.0011628
3597.55	0.0013789
3607.19	0.0010966
3616.84	0.0009686
3626.48	0.0013225
3636.13	0.0010527
3645.77	0.0011519
3655.42	0.001109
3665.06	0.000665
3674.71	0.00093827
3684.35	0.0010527
3694	0.0010341
3703.64	0.0011897
3713.29	0.000654
3722.93	0.0009706
3732.58	0.00069
3742.22	0.0008036
3751.86	0.0009537
3761.51	0.0012625
3771.15	0.0011691
3780.8	0.0011615
3790.44	0.0012593
3800.09	0.000847752
3809.73	0.0009329
3819.38	0.000631
3829.02	0.0013548
3838.67	0.0017661
3848.31	0.000565
3857.96	0.0011257
3867.6	0.0012167
3877.25	0.0013106
3886.89	0.0011739
3896.54	0.000726
3906.18	0.00089403
3915.83	0.0010294
3925.47	0.0011558
3935.12	0.0012281
3944.76	0.0011539
3954.41	0.000572
3964.05	0.00091889
3973.69	0.0011144
3983.34	0.0010391
3992.98	0.00092229
