Infrared Spectrum: SPIRO[CYCLOPROPAN-1,6'-TESTOSTERONE]
Formula: C21 H30 O2
CAS: 5083-34-1
State: SOLID (KBr DISC)
Class: COBLENTZ III
Instrument: Not specified, most likely a prism spectrometer.
Instrument parameters: NaCl PRISM
Sampling: TRANSMISSION
Resolution: 2
Origin: SMITH KLINE & FRENCH LABS.
MICROMETERS	TRANSMITTANCE
1.992	0.589
2.02626	0.59
2.06052	0.596
2.09477	0.603
2.12903	0.608
2.16329	0.609
2.19755	0.61
2.2318	0.628
2.26606	0.635
2.30032	0.632
2.33458	0.636
2.36884	0.639
2.40309	0.645
2.43735	0.658
2.47161	0.658
2.50587	0.658
2.54012	0.66
2.57438	0.668
2.60864	0.671
2.6429	0.675
2.67716	0.678
2.71141	0.681
2.74567	0.687
2.77993	0.693
2.81419	0.681
2.84844	0.6
2.8827	0.446
2.91696	0.289
2.95122	0.343
2.98547	0.475
3.01973	0.562
3.05399	0.628
3.08825	0.641
3.12251	0.668
3.15676	0.675
3.19102	0.69
3.22528	0.702
3.25954	0.706
3.29379	0.696
3.32805	0.713
3.36231	0.703
3.39657	0.563
3.43083	0.401
3.46508	0.382
3.49934	0.42
3.5336	0.47
3.56786	0.478
3.60211	0.635
3.63637	0.684
3.67063	0.71
3.70489	0.712
3.73915	0.719
3.7734	0.726
3.80766	0.728
3.84192	0.736
3.87618	0.74
3.91043	0.75
3.94469	0.753
3.97895	0.748
4.01321	0.754
4.04747	0.771
4.08172	0.771
4.11598	0.77
4.15024	0.77
4.1845	0.781
4.21875	0.778
4.25301	0.769
4.28727	0.77
4.32153	0.774
4.35578	0.771
4.39004	0.78
4.4243	0.787
4.45856	0.787
4.49282	0.785
4.52707	0.789
4.56133	0.789
4.59559	0.789
4.62985	0.786
4.6641	0.79
4.69836	0.785
4.73262	0.791
4.76688	0.789
4.80114	0.784
4.83539	0.791
4.86965	0.79
4.90391	0.789
4.93817	0.795
4.97242	0.798
5.00668	0.8
5.04094	0.797
5.0752	0.797
5.10946	0.806
5.14371	0.797
5.17797	0.802
5.21223	0.802
5.24649	0.803
5.28074	0.803
5.315	0.802
5.34926	0.802
5.38352	0.802
5.41778	0.802
5.45203	0.802
5.48629	0.802
5.52055	0.812
5.55481	0.81
5.58906	0.809
5.62332	0.809
5.65758	0.806
5.69184	0.8
5.72609	0.791
5.76035	0.784
5.79461	0.78
5.82887	0.781
5.86313	0.753
5.89738	0.708
5.93164	0.648
5.9659	0.519
6.00016	0.363
6.03441	0.239
6.06867	0.14
6.10293	0.329
6.13719	0.545
6.17145	0.508
6.2057	0.406
6.23996	0.631
6.27422	0.667
6.30848	0.69
6.34273	0.73
6.37699	0.747
6.41125	0.747
6.44551	0.778
6.47977	0.77
6.51402	0.781
6.54828	0.786
6.58254	0.792
6.6168	0.808
6.65105	0.808
6.68531	0.808
6.71957	0.806
6.75383	0.793
6.78809	0.743
6.82234	0.685
6.8566	0.689
6.89086	0.68
6.92512	0.662
6.95937	0.675
6.99363	0.636
7.02789	0.558
7.06215	0.51
7.09641	0.525
7.13066	0.654
7.16492	0.723
7.19918	0.678
7.23344	0.578
7.26769	0.548
7.30195	0.628
7.33621	0.669
7.37047	0.58
7.40472	0.658
7.43898	0.692
7.47324	0.724
7.5075	0.607
7.54176	0.609
7.57601	0.702
7.61027	0.701
7.64453	0.653
7.67879	0.669
7.71304	0.765
7.7473	0.781
7.78156	0.778
7.81582	0.745
7.85008	0.678
7.88433	0.651
7.91859	0.697
7.95285	0.701
7.98711	0.723
8.02136	0.724
8.05562	0.678
8.08988	0.702
8.12414	0.521
8.1584	0.535
8.19265	0.668
8.22691	0.718
8.26117	0.708
8.29543	0.708
8.32968	0.709
8.36394	0.657
8.3982	0.674
8.43246	0.696
8.46672	0.7
8.50097	0.75
8.53523	0.767
8.56949	0.767
8.60375	0.768
8.638	0.774
8.67226	0.774
8.70652	0.77
8.74078	0.753
8.77503	0.703
8.80929	0.65
8.84355	0.653
8.87781	0.602
8.91207	0.575
8.94632	0.642
8.98058	0.707
9.01484	0.748
9.0491	0.767
9.08335	0.767
9.11761	0.767
9.15187	0.753
9.18613	0.71
9.22039	0.706
9.25464	0.681
9.2889	0.556
9.32316	0.439
9.35742	0.481
9.39167	0.519
9.42593	0.557
9.46019	0.558
9.49445	0.628
9.52871	0.656
9.56296	0.636
9.59722	0.667
9.63148	0.706
9.66574	0.715
9.69999	0.706
9.73425	0.635
9.76851	0.659
9.80277	0.651
9.83703	0.659
9.87128	0.658
9.90554	0.641
9.9398	0.68
9.97406	0.735
10.0083	0.771
10.0426	0.78
10.0768	0.789
10.1111	0.79
10.1453	0.79
10.1796	0.79
10.2139	0.791
10.2481	0.796
10.2824	0.792
10.3166	0.773
10.3509	0.737
10.3851	0.743
10.4194	0.789
10.4537	0.746
10.4879	0.68
10.5222	0.729
10.5564	0.741
10.5907	0.736
10.625	0.67
10.6592	0.691
10.6935	0.729
10.7277	0.676
10.762	0.708
10.7962	0.751
10.8305	0.776
10.8648	0.808
10.899	0.819
10.9333	0.821
10.9675	0.795
11.0018	0.82
11.036	0.832
11.0703	0.825
11.1046	0.837
11.1388	0.847
11.1731	0.853
11.2073	0.858
11.2416	0.86
11.2759	0.862
11.3101	0.862
11.3444	0.859
11.3786	0.851
11.4129	0.821
11.4471	0.757
11.4814	0.679
11.5157	0.624
11.5499	0.707
11.5842	0.789
11.6184	0.828
11.6527	0.847
11.6869	0.859
11.7212	0.867
11.7555	0.875
11.7897	0.88
11.824	0.881
11.8582	0.881
11.8925	0.881
11.9267	0.876
11.961	0.871
11.9953	0.854
12.0295	0.852
12.0638	0.843
12.098	0.846
12.1323	0.859
12.1666	0.867
12.2008	0.868
12.2351	0.859
12.2693	0.88
12.3036	0.887
12.3378	0.89
12.3721	0.892
12.4064	0.892
12.4406	0.892
12.4749	0.892
12.5091	0.89
12.5434	0.876
12.5776	0.852
12.6119	0.853
12.6462	0.875
12.6804	0.892
12.7147	0.891
12.7489	0.88
12.7832	0.88
12.8174	0.885
12.8517	0.898
12.886	0.901
12.9202	0.859
12.9545	0.84
12.9887	0.852
13.023	0.882
13.0573	0.889
13.0915	0.891
13.1258	0.902
13.16	0.904
13.1943	0.901
13.2285	0.892
13.2628	0.873
13.2971	0.839
13.3313	0.817
13.3656	0.854
13.3998	0.875
13.4341	0.88
13.4683	0.89
13.5026	0.892
13.5369	0.893
13.5711	0.893
13.6054	0.892
13.6396	0.903
13.6739	0.901
13.7082	0.896
13.7424	0.903
13.7767	0.893
13.8109	0.897
13.8452	0.898
13.8794	0.898
13.9137	0.897
13.948	0.9
13.9822	0.907
14.0165	0.907
14.0507	0.907
14.085	0.908
14.1192	0.908
14.1535	0.907
14.1878	0.9
14.222	0.892
14.2563	0.884
14.2905	0.874
14.3248	0.831
14.359	0.763
14.3933	0.713
14.4276	0.746
14.4618	0.792
14.4961	0.829
14.5303	0.842
14.5646	0.85
14.5989	0.85
14.6331	0.851
14.6674	0.85
14.7016	0.848
14.7359	0.848
14.7701	0.845
14.8044	0.843
14.8387	0.845
14.8729	0.843
14.9072	0.839
14.9414	0.837
