Infrared Spectrum: PHOSPHORIC TRIAMIDE, N,N',N''-TRIPHENYL-N,N',N''-TRIMETHYL-,
Formula: C21 H24 N3 O P
CAS: 50869-79-9
State: LIQUID
Class: COBLENTZ
Instrument: PERKIN-ELMER
Sampling: TRANSMISSION
Path length: 0.0024 CM
Resolution: 4
Origin: STANDARD OIL OF OHIO
MICROMETERS	TRANSMITTANCE
2.007	0.972
2.04077	0.976
2.07453	0.978
2.1083	0.978
2.14206	0.969
2.17583	0.956
2.20959	0.959
2.24336	0.964
2.27712	0.944
2.31089	0.94
2.34465	0.95
2.37842	0.949
2.41218	0.947
2.44595	0.934
2.47971	0.898
2.51348	0.935
2.54724	0.957
2.58101	0.961
2.61477	0.967
2.64854	0.971
2.6823	0.966
2.71607	0.962
2.74983	0.93
2.7836	0.918
2.81736	0.886
2.85113	0.862
2.88489	0.842
2.91866	0.864
2.95242	0.9
2.98619	0.913
3.01995	0.934
3.05372	0.94
3.08748	0.94
3.12125	0.934
3.15501	0.918
3.18878	0.901
3.22254	0.825
3.25631	0.615
3.29008	0.519
3.32384	0.536
3.35761	0.512
3.39137	0.399
3.42514	0.45
3.4589	0.546
3.49267	0.668
3.52643	0.774
3.5602	0.759
3.59396	0.9
3.62773	0.937
3.66149	0.949
3.69526	0.959
3.72902	0.966
3.76279	0.967
3.79655	0.966
3.83032	0.962
3.86408	0.956
3.89785	0.944
3.93161	0.939
3.96538	0.939
3.99914	0.937
4.03291	0.935
4.06667	0.934
4.10044	0.935
4.1342	0.944
4.16797	0.952
4.20173	0.957
4.2355	0.956
4.26926	0.954
4.30303	0.952
4.33679	0.957
4.37056	0.966
4.40432	0.966
4.43809	0.959
4.47185	0.957
4.50562	0.961
4.53939	0.961
4.57315	0.961
4.60692	0.959
4.64068	0.956
4.67445	0.952
4.70821	0.954
4.74198	0.947
4.77574	0.944
4.80951	0.94
4.84327	0.942
4.87704	0.95
4.9108	0.957
4.94457	0.95
4.97833	0.928
5.0121	0.912
5.04586	0.886
5.07963	0.859
5.11339	0.842
5.14716	0.851
5.18092	0.9
5.21469	0.92
5.24845	0.917
5.28222	0.891
5.31598	0.878
5.34975	0.883
5.38351	0.903
5.41728	0.922
5.45104	0.922
5.48481	0.91
5.51857	0.884
5.55234	0.871
5.5861	0.879
5.61987	0.891
5.65363	0.898
5.6874	0.883
5.72116	0.871
5.75493	0.873
5.7887	0.886
5.82246	0.905
5.85623	0.908
5.88999	0.903
5.92376	0.895
5.95752	0.89
5.99129	0.881
6.02505	0.869
6.05882	0.854
6.09258	0.83
6.12635	0.79
6.16011	0.746
6.19388	0.458
6.22764	0.133
6.26141	0.077
6.29517	0.267
6.32894	0.536
6.3627	0.734
6.39647	0.764
6.43023	0.786
6.464	0.781
6.49776	0.754
6.53153	0.703
6.56529	0.661
6.59906	0.56
6.63282	0.258
6.66659	0.028
6.70035	0.011
6.73412	0.196
6.76788	0.253
6.80165	0.25
6.83541	0.269
6.86918	0.159
6.90294	0.25
6.93671	0.458
6.97048	0.467
7.00424	0.433
7.03801	0.514
7.07177	0.702
7.10554	0.752
7.1393	0.771
7.17307	0.781
7.20683	0.785
7.2406	0.778
7.27436	0.771
7.30813	0.778
7.34189	0.776
7.37566	0.761
7.40942	0.727
7.44319	0.664
7.47695	0.585
7.51072	0.543
7.54448	0.494
7.57825	0.363
7.61201	0.262
7.64578	0.204
7.67954	0.126
7.71331	0.025
7.74707	0.006
7.78084	0.005
7.8146	0.003
7.84837	0.003
7.88213	0.003
7.9159	0.003
7.94966	0.003
7.98343	0.005
8.01719	0.006
8.05096	0.018
8.08472	0.084
8.11849	0.189
8.15225	0.311
8.18602	0.397
8.21979	0.45
8.25355	0.47
8.28732	0.451
8.32108	0.345
8.35485	0.216
8.38861	0.12
8.42238	0.093
8.45614	0.091
8.48991	0.106
8.52367	0.118
8.55744	0.126
8.5912	0.182
8.62497	0.275
8.65873	0.373
8.6925	0.487
8.72626	0.583
8.76003	0.637
8.79379	0.649
8.82756	0.648
8.86132	0.62
8.89509	0.6
8.92885	0.602
8.96262	0.61
8.99638	0.619
9.03015	0.615
9.06391	0.607
9.09768	0.57
9.13144	0.467
9.16521	0.321
9.19897	0.177
9.23274	0.098
9.2665	0.052
9.30027	0.038
9.33403	0.021
9.3678	0.015
9.40156	0.011
9.43533	0.011
9.4691	0.015
9.50286	0.035
9.53663	0.079
9.57039	0.194
9.60416	0.304
9.63792	0.348
9.67169	0.258
9.70545	0.123
9.73922	0.071
9.77298	0.153
9.80675	0.394
9.84051	0.582
9.87428	0.651
9.90804	0.663
9.94181	0.527
9.97557	0.499
10.0093	0.602
10.0431	0.676
10.0769	0.692
10.1106	0.693
10.1444	0.698
10.1782	0.7
10.2119	0.698
10.2457	0.685
10.2795	0.668
10.3132	0.637
10.347	0.62
10.3808	0.617
10.4145	0.617
10.4483	0.615
10.482	0.609
10.5158	0.582
10.5496	0.551
10.5833	0.499
10.6171	0.436
10.6509	0.351
10.6846	0.226
10.7184	0.118
10.7522	0.035
10.7859	0.008
10.8197	0.001
10.8535	0.001
10.8872	0.001
10.921	0.003
10.9548	0.005
10.9885	0.008
11.0223	0.013
11.0561	0.02
11.0898	0.033
11.1236	0.05
11.1574	0.057
11.1911	0.054
11.2249	0.04
11.2586	0.03
11.2924	0.035
11.3262	0.055
11.3599	0.099
11.3937	0.148
11.4275	0.235
11.4612	0.319
11.495	0.406
11.5288	0.48
11.5625	0.58
11.5963	0.646
11.6301	0.686
11.6638	0.712
11.6976	0.736
11.7314	0.749
11.7651	0.756
11.7989	0.754
11.8327	0.749
11.8664	0.739
11.9002	0.724
11.934	0.715
11.9677	0.71
12.0015	0.71
12.0352	0.714
12.069	0.724
12.1028	0.737
12.1365	0.751
12.1703	0.766
12.2041	0.78
12.2378	0.798
12.2716	0.81
12.3054	0.817
12.3391	0.825
12.3729	0.832
12.4067	0.832
12.4404	0.834
12.4742	0.83
12.508	0.825
12.5417	0.815
12.5755	0.805
12.6093	0.793
12.643	0.778
12.6768	0.758
12.7105	0.729
12.7443	0.685
12.7781	0.602
12.8118	0.482
12.8456	0.37
12.8794	0.233
12.9131	0.138
12.9469	0.086
12.9807	0.05
13.0144	0.028
13.0482	0.021
13.082	0.018
13.1157	0.015
13.1495	0.016
13.1833	0.021
13.217	0.037
13.2508	0.067
13.2846	0.111
13.3183	0.152
13.3521	0.216
13.3859	0.289
13.4196	0.35
13.4534	0.412
13.4871	0.473
13.5209	0.544
13.5547	0.583
13.5884	0.62
13.6222	0.648
13.656	0.658
13.6897	0.664
13.7235	0.659
13.7573	0.619
13.791	0.519
13.8248	0.417
13.8586	0.341
13.8923	0.307
13.9261	0.306
13.9599	0.367
13.9936	0.443
14.0274	0.497
14.0612	0.51
14.0949	0.47
14.1287	0.375
14.1624	0.279
14.1962	0.169
14.23	0.091
14.2637	0.064
14.2975	0.042
14.3313	0.028
14.365	0.025
14.3988	0.025
14.4326	0.028
14.4663	0.04
14.5001	0.055
14.5339	0.062
14.5676	0.062
14.6014	0.069
14.6352	0.103
14.6689	0.218
14.7027	0.326
14.7365	0.426
14.7702	0.524
14.804	0.568
14.8378	0.597
14.8715	0.612
14.9053	0.624
14.939	0.629
14.9728	0.631
15.0066	0.615
15.0403	0.597
15.0741	0.59
15.1079	0.604
15.1416	0.622
15.1754	0.653
15.2092	0.676
15.2429	0.686
15.2767	0.7
15.3105	0.71
15.3442	0.717
15.378	0.722
