Infrared Spectrum: cis-1,1,3,5-Tetramethylcyclohexane
Formula: C 10 H 20
CAS: 50876-32-9
State: gas
Instrument: HP-GC/MS/IRD
Origin: NIST Mass Spectrometry Data Center
1/CM	ABSORBANCE
550	0.0001386
562	6.3e-05
574	2.52e-05
586	7.56e-05
598	9.66e-05
610	0.0002016
622	0.0001848
634	8.82e-05
646	0.0001092
658	0.0001302
670	0.0001344
682	0.0001218
694	7.98e-05
706	0.0001554
718	0.0001596
730	0.0001008
742	0.0001596
754	0.0001596
766	0.00021
778	0.0002352
790	0.0001974
802	0.0001638
814	0.0001806
826	0.0002562
838	0.0004242
850	0.000651
862	0.0004914
874	0.0002226
886	0.0002058
898	0.0002058
910	0.0002562
922	0.0003906
934	0.0005166
946	0.0004326
958	0.0003234
970	0.0002226
982	0.0002478
994	0.0002058
1006	0.0001932
1018	0.0001974
1030	0.0002184
1042	0.0002226
1054	0.0002058
1066	0.0001512
1078	0.0002352
1090	0.0002898
1102	0.0001722
1114	0.000147
1126	0.0001386
1138	0.0001302
1150	0.0001344
1162	0.0002352
1174	0.0004494
1186	0.0007938
1198	0.0006006
1210	0.0003192
1222	0.0003738
1234	0.0007014
1246	0.0008736
1258	0.0005418
1270	0.0004074
1282	0.0004998
1294	0.0007728
1306	0.0007476
1318	0.0005502
1330	0.0005712
1342	0.0012264
1354	0.0030576
1366	0.0039774
1378	0.003717
1390	0.0028728
1402	0.001071
1414	0.0005712
1426	0.000882
1438	0.0016968
1450	0.0039312
1462	0.006321
1474	0.00399
1486	0.0015204
1498	0.0005544
1510	0.000315
1522	0.00021
1534	0.0001848
1546	0.0001722
1558	0.0001428
1570	0.000168
1582	0.0001722
1594	0.0001974
1606	0.0002142
1618	0.000189
1630	0.0001722
1642	0.0001722
1654	0.0001512
1666	0.0001638
1678	0.000168
1690	0.0001596
1702	0.0001386
1714	0.0001428
1726	0.0001302
1738	0.0001008
1750	8.82e-05
1762	0.000105
1774	8.4e-05
1786	8.82e-05
1798	9.24e-05
1810	9.24e-05
1822	9.24e-05
1834	9.24e-05
1846	8.4e-05
1858	6.3e-05
1870	7.98e-05
1882	8.4e-05
1894	7.14e-05
1906	5.46e-05
1918	7.98e-05
1930	5.88e-05
1942	5.46e-05
1954	5.04e-05
1966	6.3e-05
1978	2.94e-05
1990	5.88e-05
2002	4.2e-05
2014	2.52e-05
2026	4.62e-05
2038	4.62e-05
2050	3.36e-05
2062	2.94e-05
2074	3.36e-05
2086	3.78e-05
2098	1.68e-05
2110	5.46e-05
2122	6.72e-05
2134	5.04e-05
2146	5.04e-05
2158	5.04e-05
2170	3.36e-05
2182	2.94e-05
2194	6.72e-05
2206	5.46e-05
2218	6.3e-05
2230	6.3e-05
2242	4.2e-05
2254	3.78e-05
2266	4.2e-06
2278	5.04e-05
2290	6.72e-05
2302	6.72e-05
2314	4.62e-05
2326	6.3e-05
2338	5.04e-05
2350	7.98e-05
2362	7.14e-05
2374	8.4e-05
2386	9.66e-05
2398	0.0001008
2410	0.0001176
2422	0.0001428
2434	0.0001428
2446	0.0001512
2458	0.000147
2470	0.000147
2482	0.0001176
2494	0.0001218
2506	0.0001176
2518	0.000126
2530	0.0001218
2542	0.000147
2554	0.0001722
2566	0.0002058
2578	0.0002226
2590	0.0002436
2602	0.0003108
2614	0.00042
2626	0.0004536
2638	0.000399
2650	0.000399
2662	0.0003696
2674	0.0003318
2686	0.0003864
2698	0.0005208
2710	0.0006258
2722	0.0008232
2734	0.0009492
2746	0.0008862
2758	0.000756
2770	0.0008148
2782	0.0009366
2794	0.0012348
2806	0.0017178
2818	0.0026712
2830	0.006132
2842	0.0107814
2854	0.0085638
2866	0.0103866
2878	0.016611
2890	0.0212856
2902	0.0316848
2914	0.0352254
2926	0.0238224
2938	0.0201894
2950	0.031794
2962	0.0379302
2974	0.0165564
2986	0.0054096
2998	0.0018648
3010	0.0011046
3022	0.0008778
3034	0.000861
3046	0.0008568
3058	0.000861
3070	0.000882
3082	0.0009534
3094	0.000882
3106	0.0007014
3118	0.000609
3130	0.0005838
3142	0.0005376
3154	0.0005754
3166	0.0005544
3178	0.0005838
3190	0.000525
3202	0.000441
3214	0.0003234
3226	0.0002562
3238	0.0002058
3250	0.000147
3262	0.0001428
3274	0.0001638
3286	0.0001428
3298	0.000147
3310	0.0001638
3322	0.0001512
3334	0.0001386
3346	0.000189
3358	0.0001554
3370	0.0001554
3382	0.0001344
3394	0.0001554
3406	0.000105
3418	9.24e-05
3430	0.000126
3442	0.000126
3454	8.4e-05
3466	2.52e-05
3478	3.78e-05
3490	5.04e-05
3502	3.36e-05
3514	3.78e-05
3526	4.2e-06
3538	5.46e-05
3550	0
3562	4.2e-06
3574	2.1e-05
3586	3.36e-05
3598	2.1e-05
3610	5.04e-05
3622	2.94e-05
3634	1.68e-05
3646	1.68e-05
3658	5.04e-05
3670	8.4e-06
3682	4.62e-05
3694	8.4e-05
3706	7.14e-05
3718	5.46e-05
3730	8.4e-05
3742	8.4e-05
3754	0.000105
3766	0.0001176
3778	0.000105
3790	0.0001008
3802	0.0001008
3814	0.0001428
3826	0.0001386
3838	8.4e-05
