Infrared Spectrum: trans-1,1,3,5-Tetramethylcyclohexane
Formula: C 10 H 20
CAS: 50876-31-8
State: gas
Instrument: HP-GC/MS/IRD
Origin: NIST Mass Spectrometry Data Center
1/CM	ABSORBANCE
550	0.0003087
562	0.0003087
574	0.0002303
586	0.0002009
598	0.0001862
610	0.0001078
622	0.0002548
634	0.0001911
646	9.31e-05
658	0.0001862
670	6.86e-05
682	0.000147
694	0.0001372
706	0.0001421
718	0.0001421
730	0.0001666
742	0.0001176
754	0.0001127
766	0.0001176
778	0.0001323
790	5.88e-05
802	0.0001372
814	0.0002352
826	0.0002058
838	0.0003626
850	0.0005978
862	0.000588
874	0.0003675
886	0.0001911
898	0.000147
910	0.0003136
922	0.00049
934	0.0005537
946	0.0003871
958	0.0002548
970	0.0003577
982	0.0003871
994	0.0002548
1006	0.0001911
1018	0.0001862
1030	0.0002303
1042	0.0002303
1054	0.0001764
1066	0.0002842
1078	0.0002989
1090	0.000245
1102	0.0002597
1114	0.000392
1126	0.0003675
1138	0.0002548
1150	0.0003479
1162	0.0005292
1174	0.0007742
1186	0.0009457
1198	0.0007252
1210	0.0006125
1222	0.0006517
1234	0.000784
1246	0.0010192
1258	0.0010192
1270	0.0007987
1282	0.0007301
1294	0.000735
1306	0.0007007
1318	0.0007252
1330	0.001127
1342	0.0018473
1354	0.0026068
1366	0.0038759
1378	0.0048706
1390	0.004508
1402	0.0017689
1414	0.0008183
1426	0.0012054
1438	0.0024647
1450	0.0049931
1462	0.0071687
1474	0.005096
1486	0.0023814
1498	0.0009261
1510	0.000441
1522	0.0002793
1534	0.0001911
1546	0.0001764
1558	0.0001813
1570	0.0001519
1582	0.0001421
1594	0.0001813
1606	0.0001862
1618	0.0001764
1630	0.0001715
1642	0.0001372
1654	0.0001274
1666	0.0001519
1678	0.0001519
1690	0.0001372
1702	0.0001372
1714	0.0001176
1726	0.0001127
1738	0.0001274
1750	0.000196
1762	0.0002303
1774	0.0001862
1786	0.0001225
1798	7.84e-05
1810	5.39e-05
1822	5.88e-05
1834	5.88e-05
1846	4.9e-05
1858	2.94e-05
1870	6.37e-05
1882	5.39e-05
1894	3.43e-05
1906	4.9e-05
1918	1.96e-05
1930	3.43e-05
1942	9.8e-06
1954	2.45e-05
1966	1.96e-05
1978	2.94e-05
1990	2.94e-05
2002	2.94e-05
2014	4.9e-05
2026	2.94e-05
2038	1.96e-05
2050	1.96e-05
2062	3.92e-05
2074	1.47e-05
2086	9.8e-06
2098	1.47e-05
2110	2.45e-05
2122	4.9e-05
2134	5.39e-05
2146	4.41e-05
2158	6.37e-05
2170	4.41e-05
2182	5.88e-05
2194	3.92e-05
2206	5.39e-05
2218	2.45e-05
2230	1.96e-05
2242	2.94e-05
2254	3.43e-05
2266	4.41e-05
2278	4.41e-05
2290	2.94e-05
2302	8.33e-05
2314	5.39e-05
2326	3.43e-05
2338	7.84e-05
2350	6.86e-05
2362	3.92e-05
2374	5.88e-05
2386	3.92e-05
2398	8.33e-05
2410	0.0001078
2422	9.31e-05
2434	0.0001176
2446	0.0001225
2458	0.0001176
2470	9.8e-05
2482	0.0001176
2494	9.8e-05
2506	0.0001078
2518	0.0001078
2530	0.0001127
2542	0.0001323
2554	0.0001568
2566	0.0001764
2578	0.0002352
2590	0.0002744
2602	0.0002989
2614	0.0004116
2626	0.0004753
2638	0.0004998
2650	0.0004606
2662	0.0004998
2674	0.0005586
2686	0.000588
2698	0.0006566
2710	0.0007448
2722	0.0009359
2734	0.0010045
2746	0.0009016
2758	0.0008281
2770	0.0008722
2782	0.0010584
2794	0.0013083
2806	0.0017787
2818	0.0027293
2830	0.0050127
2842	0.0101283
2854	0.0128625
2866	0.0149548
2878	0.0214032
2890	0.0273322
2902	0.03822
2914	0.0447811
2926	0.0344029
2938	0.027734
2950	0.0392294
2962	0.0443989
2974	0.0189924
2986	0.0088592
2998	0.0061544
3010	0.0029988
3022	0.0014847
3034	0.0011368
3046	0.0009898
3058	0.0008771
3070	0.0008477
3082	0.0008673
3094	0.000882
3106	0.0007056
3118	0.0006958
3130	0.0006615
3142	0.0006076
3154	0.0005243
3166	0.0005586
3178	0.0005733
3190	0.000539
3202	0.0004753
3214	0.0004312
3226	0.0003136
3238	0.0002891
3250	0.000245
3262	0.000147
3274	0.0001568
3286	0.0001225
3298	0.0001617
3310	0.0002107
3322	0.0001519
3334	0.0002205
3346	0.0001764
3358	0.0001862
3370	0.0002205
3382	0.0001519
3394	0.0001225
3406	0.0001666
3418	0.0001225
3430	0.0001078
3442	5.88e-05
3454	7.84e-05
3466	4.41e-05
3478	0.0001568
3490	7.35e-05
3502	4.41e-05
3514	8.33e-05
3526	3.43e-05
3538	2.94e-05
3550	7.84e-05
3562	5.88e-05
3574	5.39e-05
3586	2.94e-05
3598	8.33e-05
3610	0.0001078
3622	3.92e-05
3634	0.0001127
3646	8.82e-05
3658	0.0001323
3670	5.88e-05
3682	8.82e-05
3694	0.0001225
3706	6.86e-05
3718	0.0001127
3730	0.0001078
3742	0.0001813
3754	0.0001372
3766	0.0001519
3778	0.0001764
3790	0.0001519
3802	0.0002058
3814	0.0001519
3826	0.0001764
3838	0.0001617
