Infrared Spectrum: 1,1,3,3-Tetramethylcyclopentane
Formula: C 9 H 18
CAS: 50876-33-0
State: gas
Instrument: HP-GC/MS/IRD
Origin: NIST Mass Spectrometry Data Center
1/CM	ABSORBANCE
550	0.0003317
562	0
574	0.0001984
586	0.0002697
598	0.0002356
610	0.000279
622	0.000186
634	0.0002325
646	0.0001364
658	0.0001395
670	0.0002852
682	0.0002542
694	0.000279
706	0.0003503
718	0.0003286
730	0.0003875
742	0.0003007
754	0.0003162
766	0.0002883
778	0.0003286
790	0.00031
802	0.0004278
814	0.0002542
826	0.0003038
838	0.0002852
850	0.0003348
862	0.0002914
874	0.0003317
886	0.0003472
898	0.0003193
910	0.0004061
922	0.0004526
934	0.0003937
946	0.0004123
958	0.0004495
970	0.0004495
982	0.0004681
994	0.0005487
1006	0.0005084
1018	0.000403
1030	0.000279
1042	0.00031
1054	0.0003441
1066	0.0003038
1078	0.000465
1090	0.0004836
1102	0.0004681
1114	0.0003379
1126	0.0003379
1138	0.000372
1150	0.0005642
1162	0.0006262
1174	0.0005332
1186	0.0005022
1198	0.0006727
1210	0.0007471
1222	0.0006417
1234	0.0005735
1246	0.0006107
1258	0.0006944
1270	0.0007657
1282	0.0005952
1294	0.0004216
1306	0.0004898
1318	0.0008618
1330	0.0008525
1342	0.0006293
1354	0.0012276
1366	0.0025513
1378	0.002728
1390	0.0017422
1402	0.0009083
1414	0.0005332
1426	0.0007006
1438	0.001302
1450	0.002511
1462	0.0033046
1474	0.0027342
1486	0.0013795
1498	0.000589
1510	0.000341
1522	0.0003069
1534	0.0002232
1546	0.0001643
1558	0.0001829
1570	0.0001891
1582	0.0001736
1594	0.0002139
1606	0.0001736
1618	0.0001705
1630	0.0001891
1642	0.0002139
1654	0.0001736
1666	0.0001953
1678	0.0002077
1690	0.0001271
1702	0.0001519
1714	0.0001426
1726	0.0001302
1738	0.0001457
1750	0.0001209
1762	8.68e-05
1774	9.61e-05
1786	8.68e-05
1798	0.000124
1810	8.37e-05
1822	0.0001271
1834	0.0001364
1846	0.0001333
1858	0.0001209
1870	0.0001271
1882	0.0001085
1894	0.000124
1906	0.000124
1918	0.0001147
1930	0.0001147
1942	0.0001054
1954	0.0001116
1966	0.0001209
1978	0.0001147
1990	8.37e-05
2002	9.61e-05
2014	6.2e-05
2026	7.75e-05
2038	5.89e-05
2050	8.99e-05
2062	8.06e-05
2074	8.37e-05
2086	9.61e-05
2098	8.99e-05
2110	9.61e-05
2122	8.06e-05
2134	6.82e-05
2146	6.51e-05
2158	6.82e-05
2170	6.51e-05
2182	0.0001085
2194	6.82e-05
2206	7.13e-05
2218	1.24e-05
2230	6.51e-05
2242	8.06e-05
2254	8.99e-05
2266	7.75e-05
2278	6.82e-05
2290	8.99e-05
2302	8.99e-05
2314	9.3e-05
2326	7.75e-05
2338	7.75e-05
2350	9.3e-05
2362	8.68e-05
2374	0.0001054
2386	0.0001395
2398	0.0001209
2410	9.61e-05
2422	0.0001395
2434	0.000124
2446	0.0001209
2458	0.0001271
2470	0.000155
2482	0.0001364
2494	0.0001519
2506	0.0001581
2518	0.0001364
2530	0.0001736
2542	0.000155
2554	0.0001426
2566	0.0001736
2578	0.0002015
2590	0.0001891
2602	0.0002728
2614	0.0002232
2626	0.0002573
2638	0.0002666
2650	0.0002139
2662	0.000279
2674	0.0002976
2686	0.0003317
2698	0.0003875
2710	0.0004495
2722	0.0005642
2734	0.0006045
2746	0.0005084
2758	0.0004991
2770	0.0005487
2782	0.0005549
2794	0.0005952
2806	0.000775
2818	0.0010478
2830	0.0015407
2842	0.0023901
2854	0.0049321
2866	0.0100316
2878	0.0116467
2890	0.0092101
2902	0.0086521
2914	0.0107601
2926	0.0166377
2938	0.0238483
2950	0.0293353
2962	0.0288269
2974	0.0145111
2986	0.0039897
2998	0.0016275
3010	0.0010695
3022	0.0007564
3034	0.0005797
3046	0.0004898
3058	0.0004278
3070	0.0004278
3082	0.0004278
3094	0.000372
3106	0.0004774
3118	0.0004185
3130	0.0004495
3142	0.0004154
3154	0.000403
3166	0.0004681
3178	0.000589
3190	0.0005146
3202	0.0004681
3214	0.0004247
3226	0.0004402
3238	0.0002976
3250	0.0002945
3262	0.0002759
3274	0.0002356
3286	0.0002263
3298	0.0002883
3310	0.0002511
3322	0.0002759
3334	0.0002821
3346	0.0002325
3358	0.0002511
3370	0.0002139
3382	0.0002077
3394	0.0001612
3406	0.0002139
3418	0.0001891
3430	0.0001705
3442	0.0001457
3454	0.0001209
3466	0.000124
3478	0.0001922
3490	0.0001364
3502	0.000186
3514	0.0001457
3526	0.0001085
3538	2.48e-05
3550	0.0001023
3562	2.48e-05
3574	0.0001488
3586	0.0001054
3598	5.27e-05
3610	9.61e-05
3622	9.61e-05
3634	0.0001054
3646	0.0001395
3658	0.0001767
3670	0.0001023
3682	0.0001581
3694	0.0001271
3706	0.0001333
3718	8.99e-05
3730	0.0001457
3742	0.0001457
3754	0.0001643
3766	0.0002077
3778	0.0002015
3790	0.0002759
3802	0.0001891
3814	0.0002139
3826	0.0002108
3838	0.0002046
