Infrared Spectrum: 1-Chloroethyl chloroformate
Formula: C3 H4 Cl2 O2
CAS: 50893-53-3
State: gas
Origin: EPA-IR VAPOR PHASE LIBRARY
1/CM	ABSORBANCE
549.8	0.003176
559.445	0.001636
569.09	0.0008217
578.734	0.0007028
588.379	0.0011251
598.024	0.001576
607.669	0.002296
617.313	0.002916
626.958	0.002876
636.603	0.004076
646.248	0.007616
655.893	0.014926
665.537	0.031216
675.182	0.039616
684.827	0.046106
694.472	0.069306
704.116	0.073536
713.761	0.042936
723.406	0.020106
733.051	0.012006
742.695	0.007396
752.34	0.006316
761.985	0.007096
771.63	0.006686
781.275	0.005606
790.919	0.004726
800.564	0.004586
810.209	0.006676
819.854	0.010476
829.498	0.021406
839.143	0.044596
848.788	0.066556
858.433	0.062086
868.078	0.038116
877.722	0.024136
887.367	0.014986
897.012	0.009156
906.657	0.006536
916.301	0.005456
925.946	0.005476
935.591	0.005506
945.236	0.004916
954.88	0.004866
964.525	0.005646
974.17	0.006756
983.815	0.006846
993.46	0.008246
1003.1	0.014636
1012.75	0.024116
1022.39	0.029386
1032.04	0.031776
1041.68	0.043646
1051.33	0.079536
1060.97	0.160986
1070.62	0.242656
1080.26	0.233606
1089.91	0.141986
1099.55	0.145836
1109.2	0.228396
1118.84	0.324536
1128.49	0.410676
1138.13	0.431886
1147.78	0.301936
1157.42	0.095616
1167.07	0.039096
1176.71	0.023596
1186.36	0.018436
1196	0.014876
1205.64	0.010826
1215.29	0.008136
1224.93	0.006366
1234.58	0.006046
1244.22	0.007586
1253.87	0.011146
1263.51	0.018706
1273.16	0.025866
1282.8	0.025056
1292.45	0.014806
1302.09	0.007626
1311.74	0.005936
1321.38	0.007976
1331.03	0.012046
1340.67	0.015026
1350.32	0.012956
1359.96	0.009666
1369.61	0.009846
1379.25	0.014986
1388.9	0.019906
1398.54	0.017116
1408.18	0.008116
1417.83	0.004566
1427.47	0.005356
1437.12	0.007896
1446.76	0.009906
1456.41	0.007746
1466.05	0.004546
1475.7	0.002196
1485.34	0.001546
1494.99	0.001526
1504.63	0.001406
1514.28	0.001406
1523.92	0.001216
1533.57	0.001236
1543.21	0.001406
1552.86	0.001496
1562.5	0.001426
1572.15	0.001426
1581.79	0.001306
1591.44	0.001636
1601.08	0.001956
1610.73	0.002326
1620.37	0.002586
1630.01	0.002216
1639.66	0.001556
1649.3	0.001236
1658.95	0.001326
1668.59	0.001626
1678.24	0.002116
1687.88	0.002616
1697.53	0.003416
1707.17	0.004406
1716.82	0.006216
1726.46	0.008746
1736.11	0.012756
1745.75	0.017946
1755.4	0.023146
1765.04	0.032196
1774.69	0.063766
1784.33	0.139636
1793.98	0.231326
1803.62	0.241896
1813.27	0.154176
1822.91	0.068976
1832.55	0.034406
1842.2	0.019456
1851.84	0.010666
1861.49	0.007026
1871.13	0.005136
1880.78	0.003816
1890.42	0.003136
1900.07	0.002786
1909.71	0.002476
1919.36	0.002586
1929	0.002746
1938.65	0.002856
1948.29	0.002996
1957.94	0.003326
1967.58	0.003646
1977.23	0.003856
1986.87	0.003786
1996.52	0.003076
2006.16	0.002396
2015.81	0.001786
2025.45	0.001416
2035.1	0.0010996
2044.74	0.0008902
2054.38	0.0007893
2064.03	0.0006541
2073.67	0.0007652
2083.32	0.0007327
2092.96	0.0009067
2102.61	0.0008099
2112.25	0.0008595
2121.9	0.0008896
2131.54	0.0008536
2141.19	0.0009932
2150.83	0.0010843
2160.48	0.0011445
2170.12	0.001406
2179.77	0.001706
2189.41	0.001886
2199.06	0.001936
2208.7	0.002076
2218.35	0.002166
2227.99	0.002436
2237.64	0.002776
2247.28	0.003056
2256.92	0.003196
2266.57	0.003066
2276.21	0.002686
2285.86	0.001986
2295.5	0.001376
2305.15	0.001216
2314.79	0.0011464
2324.44	0.0011151
2334.08	0.001176
2343.73	0.0009478
2353.37	0.0011162
2363.02	0.001386
2372.66	0.0010841
2382.31	0.0005071
2391.95	0.000511
2401.6	0.0004671
2411.24	0.0004868
2420.89	0.0004296
2430.53	0.0004165
2440.18	0.0003701
2449.82	0.0004877
2459.47	0.0005253
2469.11	0.000627
2478.75	0.0005262
2488.4	0.0005234
2498.04	0.0005488
2507.69	0.0005776
2517.33	0.0006248
2526.98	0.0004552
2536.62	0.0004449
2546.27	0.0004402
2555.91	0.00017654
2565.56	0.0003199
2575.2	0.00025558
2584.85	0.0002703
2594.49	0.00018156
2604.14	0.0003303
2613.78	0.0003198
2623.43	0.0004074
2633.07	0.0003155
2642.72	0.0006228
2652.36	0.0006425
2662.01	0.0006384
2671.65	0.0005593
2681.29	0.000411
2690.94	0.00022584
2700.58	9.88e-05
2710.23	0.00025793
2719.87	0.00020136
2729.52	0.0003177
2739.16	0.0003251
2748.81	0.00022008
2758.45	0.0002815
2768.1	0.00022067
2777.74	0.0003107
2787.39	0.0002413
2797.03	8.75e-05
2806.68	0.00023982
2816.32	0.0004801
2825.97	0.0004822
2835.61	0.0006089
2845.26	0.0006338
2854.9	0.0007433
2864.55	0.0010795
2874.19	0.001356
2883.84	0.001576
2893.48	0.001386
2903.12	0.001326
2912.77	0.001346
2922.41	0.002086
2932.06	0.003376
2941.7	0.005506
2951.35	0.005346
2960.99	0.003576
2970.64	0.001776
2980.28	0.002276
2989.93	0.006466
2999.57	0.010706
3009.22	0.012286
3018.86	0.009756
3028.51	0.005016
3038.15	0.001826
3047.8	0.0006994
3057.44	0.0006028
3067.09	0.0004963
3076.73	0.0004531
3086.38	0.0005045
3096.02	0.0004259
3105.67	0.0003343
3115.31	0.0004496
3124.95	0.0005233
3134.6	0.000301
3144.24	0.0002709
3153.89	0.0004638
3163.53	0.0005341
3173.18	0.000414
3182.82	0.00024415
3192.47	0.0003635
3202.11	0.0005688
3211.76	0.0003033
3221.4	0.0003442
3231.05	0.0004344
3240.69	0.0005285
3250.34	0.000495
3259.98	0.0003948
3269.63	0.0004911
3279.27	0.0002763
3288.92	0.00018076
3298.56	0.0002723
3308.21	9.76e-05
3317.85	0.000392
3327.49	0.0003781
3337.14	0.00024641
3346.78	0.0003484
3356.43	0.0003104
3366.07	0.0003976
3375.72	0.0003834
3385.36	0.0004515
3395.01	0.0004188
3404.65	0.0002447
3414.3	0.0004292
3423.94	0.0005108
3433.59	0.0003887
3443.23	0.0003882
3452.88	0.000151
3462.52	0.0002774
3472.17	0.0005538
3481.81	0.0003705
3491.46	0.0004659
3501.1	0.0005292
3510.75	0.0006967
3520.39	0.0008288
3530.04	0.0007608
3539.68	0.0008722
3549.32	0.001206
3558.97	0.001646
3568.61	0.002246
3578.26	0.002666
3587.9	0.002646
3597.55	0.001976
3607.19	0.001416
3616.84	0.001176
3626.48	0.0007149
3636.13	0.0006416
3645.77	0.000704
3655.42	0.0006729
3665.06	0.0006023
3674.71	0.0006862
3684.35	0.0006496
3694	0.0003601
3703.64	0.0004741
3713.29	0.000356
3722.93	0.0004306
3732.58	0.0003355
3742.22	0.0002497
3751.86	0.0002684
3761.51	0.0004495
3771.15	0.0005032
3780.8	0.0004309
3790.44	0.0002685
3800.09	0.0004132
3809.73	0.0003547
3819.38	0.00023432
3829.02	0.000391
3838.67	0.0002853
3848.31	0.00022516
3857.96	0.0003532
3867.6	0.0003747
3877.25	0.0003331
3886.89	0.0004167
3896.54	0.0005724
3906.18	0.0004648
3915.83	0.0003311
3925.47	0.0003096
3935.12	0.0003408
3944.76	0.0006214
3954.41	0.0006203
3964.05	0.0003845
3973.69	0.0006264
3983.34	0.0003997
3992.98	0.0004574
