Infrared Spectrum: Beta,Beta'-DITHIODIPROPIONIC ACID DIHYDRAZIDE
Formula: C6 H14 N4 O2 S2
CAS: 50906-77-9
State: SOLID (MINERAL OIL MULL)
Melting point: 125-127 C
Class: COBLENTZ
Instrument: Not specified, most likely a prism, grating, or hybrid spectrometer.
Sampling: TRANSMISSION
Resolution: 4
Origin: ARTHUR D. LITTLE, INC.
1/CM	TRANSMITTANCE
701.364	0.634
708.893	0.674
716.421	0.692
723.95	0.711
731.479	0.721
739.007	0.729
746.536	0.734
754.064	0.733
761.593	0.733
769.122	0.734
776.65	0.734
784.179	0.731
791.708	0.733
799.236	0.735
806.765	0.733
814.294	0.726
821.822	0.72
829.351	0.708
836.879	0.676
844.408	0.591
851.937	0.66
859.465	0.738
866.994	0.741
874.523	0.739
882.051	0.738
889.58	0.731
897.109	0.725
904.637	0.716
912.166	0.682
919.694	0.708
927.223	0.715
934.752	0.709
942.28	0.7
949.809	0.659
957.338	0.684
964.866	0.679
972.395	0.666
979.923	0.636
987.452	0.649
994.981	0.655
1002.51	0.634
1010.04	0.607
1017.57	0.568
1025.1	0.52
1032.62	0.53
1040.15	0.625
1047.68	0.67
1055.21	0.676
1062.74	0.659
1070.27	0.654
1077.8	0.627
1085.32	0.593
1092.85	0.523
1100.38	0.459
1107.91	0.525
1115.44	0.64
1122.97	0.686
1130.5	0.691
1138.02	0.642
1145.55	0.576
1153.08	0.675
1160.61	0.687
1168.14	0.689
1175.67	0.69
1183.2	0.65
1190.73	0.676
1198.25	0.681
1205.78	0.68
1213.31	0.682
1220.84	0.682
1228.37	0.674
1235.9	0.664
1243.43	0.645
1250.95	0.611
1258.48	0.563
1266.01	0.565
1273.54	0.597
1281.07	0.642
1288.6	0.657
1296.13	0.664
1303.65	0.666
1311.18	0.662
1318.71	0.646
1326.24	0.631
1333.77	0.622
1341.3	0.616
1348.83	0.593
1356.36	0.566
1363.88	0.523
1371.41	0.578
1378.94	0.583
1386.47	0.547
1394	0.581
1401.53	0.586
1409.06	0.525
1416.58	0.573
1424.11	0.614
1431.64	0.635
1439.17	0.62
1446.7	0.596
1454.23	0.597
1461.76	0.622
1469.28	0.677
1476.81	0.686
1484.34	0.691
1491.87	0.69
1499.4	0.67
1506.93	0.65
1514.46	0.621
1521.99	0.547
1529.51	0.501
1537.04	0.634
1544.57	0.665
1552.1	0.661
1559.63	0.656
1567.16	0.645
1574.69	0.63
1582.21	0.596
1589.74	0.546
1597.27	0.522
1604.8	0.479
1612.33	0.432
1619.86	0.395
1627.39	0.378
1634.91	0.538
1642.44	0.6
1649.97	0.562
1657.5	0.497
1665.03	0.498
1672.56	0.655
1680.09	0.781
1687.62	0.815
1695.14	0.832
1702.67	0.842
1710.2	0.843
1717.73	0.84
1725.26	0.842
1732.79	0.84
1740.32	0.838
1747.84	0.842
1755.37	0.847
1762.9	0.852
1770.43	0.857
1777.96	0.855
1785.49	0.859
1793.02	0.863
1800.54	0.867
1808.07	0.864
1815.6	0.862
1823.13	0.862
1830.66	0.862
1838.19	0.862
1845.72	0.864
1853.25	0.868
1860.77	0.872
1868.3	0.874
1875.83	0.874
1883.36	0.874
1890.89	0.872
1898.42	0.872
1905.95	0.87
1913.47	0.869
1921	0.874
1928.53	0.875
1936.06	0.873
1943.59	0.874
1951.12	0.877
1958.65	0.874
1966.17	0.877
1973.7	0.882
1981.23	0.878
1988.76	0.875
1996.29	0.875
2003.82	0.879
2011.35	0.878
2018.88	0.875
2026.4	0.874
2033.93	0.873
2041.46	0.877
2048.99	0.879
2056.52	0.882
2064.05	0.879
2071.58	0.877
2079.1	0.872
2086.63	0.87
2094.16	0.873
2101.69	0.87
2109.22	0.873
2116.75	0.879
2124.28	0.88
2131.8	0.877
2139.33	0.879
2146.86	0.882
2154.39	0.882
2161.92	0.88
2169.45	0.879
2176.98	0.88
2184.51	0.882
2192.03	0.883
2199.56	0.884
2207.09	0.885
2214.62	0.887
2222.15	0.887
2229.68	0.885
2237.21	0.885
2244.73	0.885
2252.26	0.885
2259.79	0.887
2267.32	0.887
2274.85	0.888
2282.38	0.887
2289.91	0.885
2297.43	0.888
2304.96	0.888
2312.49	0.884
2320.02	0.883
2327.55	0.88
2335.08	0.879
2342.61	0.884
2350.14	0.883
2357.66	0.88
2365.19	0.882
2372.72	0.883
2380.25	0.884
2387.78	0.883
2395.31	0.882
2402.84	0.884
2410.36	0.882
2417.89	0.884
2425.42	0.889
2432.95	0.892
2440.48	0.889
2448.01	0.885
2455.54	0.882
2463.06	0.88
2470.59	0.883
2478.12	0.888
2485.65	0.887
2493.18	0.884
2500.71	0.884
2508.24	0.884
2515.76	0.884
2523.29	0.884
2530.82	0.883
2538.35	0.882
2545.88	0.88
2553.41	0.875
2560.94	0.879
2568.47	0.882
2575.99	0.879
2583.52	0.878
2591.05	0.882
2598.58	0.88
2606.11	0.874
2613.64	0.869
2621.17	0.867
2628.69	0.865
2636.22	0.864
2643.75	0.864
2651.28	0.863
2658.81	0.86
2666.34	0.858
2673.87	0.858
2681.39	0.859
2688.92	0.859
2696.45	0.862
2703.98	0.863
2711.51	0.864
2719.04	0.862
2726.57	0.86
2734.1	0.86
2741.62	0.863
2749.15	0.862
2756.68	0.858
2764.21	0.854
2771.74	0.852
2779.27	0.847
2786.8	0.842
2794.32	0.827
2801.85	0.812
2809.38	0.809
2816.91	0.805
2824.44	0.799
2831.97	0.778
2839.5	0.725
2847.02	0.651
2854.55	0.573
2862.08	0.567
2869.61	0.596
2877.14	0.609
2884.67	0.617
2892.2	0.607
2899.73	0.566
2907.25	0.531
2914.78	0.483
2922.31	0.436
2929.84	0.437
2937.37	0.481
2944.9	0.516
2952.43	0.527
2959.95	0.546
2967.48	0.58
2975.01	0.636
2982.54	0.721
2990.07	0.755
2997.6	0.778
3005.13	0.784
3012.65	0.789
3020.18	0.791
3027.71	0.789
3035.24	0.784
3042.77	0.773
3050.3	0.761
3057.83	0.745
3065.36	0.736
3072.88	0.761
3080.41	0.78
3087.94	0.775
3095.47	0.768
3103	0.761
3110.53	0.756
3118.06	0.739
3125.58	0.728
3133.11	0.7
3140.64	0.677
3148.17	0.65
3155.7	0.619
3163.23	0.612
3170.76	0.596
3178.28	0.591
3185.81	0.597
3193.34	0.606
3200.87	0.619
3208.4	0.63
3215.93	0.647
3223.46	0.662
3230.99	0.679
3238.51	0.687
3246.04	0.695
3253.57	0.699
3261.1	0.679
3268.63	0.656
3276.16	0.64
3283.69	0.6
3291.21	0.528
3298.74	0.493
3306.27	0.52
3313.8	0.538
3321.33	0.482
3328.86	0.431
3336.39	0.5
3343.91	0.63
3351.44	0.739
3358.97	0.786
3366.5	0.815
3374.03	0.823
3381.56	0.825
3389.09	0.827
3396.62	0.824
