Infrared Spectrum: 5-Methyl-3-hepten-2-one
Formula: C 8 H 14 O
CAS: 5090-16-4
State: gas
Instrument: HP-GC/MS/IRD
Origin: NIST Mass Spectrometry Data Center
1/CM	ABSORBANCE
550	0.0004475
562	0.000458
574	0.00036
586	0.000344
598	0.000421
610	0.0004185
622	0.0002455
634	0.000133
646	5.6e-05
658	0.00012
670	8.2e-05
682	8.9e-05
694	4e-05
706	3.2e-05
718	5e-05
730	3.45e-05
742	5.3e-05
754	7.95e-05
766	8.6e-05
778	0.000175
790	0.0001945
802	0.000103
814	8.15e-05
826	8.9e-05
838	0.0001225
850	0.0001245
862	0.000144
874	0.0002055
886	0.000139
898	0.000295
910	0.000446
922	0.000443
934	0.000327
946	0.000506
958	0.0008525
970	0.001218
982	0.001402
994	0.0011175
1006	0.000678
1018	0.0004465
1030	0.0003485
1042	0.0002485
1054	0.0002235
1066	0.000248
1078	0.00023
1090	0.00023
1102	0.0001965
1114	0.000272
1126	0.00031
1138	0.0004865
1150	0.0008455
1162	0.0010595
1174	0.0012575
1186	0.0010945
1198	0.000679
1210	0.00062
1222	0.000955
1234	0.001972
1246	0.0028845
1258	0.0017835
1270	0.0010065
1282	0.001019
1294	0.000922
1306	0.0007025
1318	0.000634
1330	0.0007575
1342	0.00122
1354	0.0020615
1366	0.0022435
1378	0.001372
1390	0.000859
1402	0.000575
1414	0.0004555
1426	0.0005395
1438	0.0005815
1450	0.000714
1462	0.0008145
1474	0.000558
1486	0.000304
1498	0.0001905
1510	6.55e-05
1522	9.85e-05
1534	0.0001145
1546	0.000124
1558	0.0001035
1570	0.0001915
1582	0.0002785
1594	0.0004445
1606	0.00076
1618	0.001526
1630	0.002366
1642	0.0015075
1654	0.000686
1666	0.0008575
1678	0.0017605
1690	0.00425
1702	0.004779
1714	0.003171
1726	0.0022335
1738	0.0013395
1750	0.0007045
1762	0.000375
1774	0.0002085
1786	0.0001565
1798	0.0001165
1810	9.85e-05
1822	6.1e-05
1834	6.7e-05
1846	1.95e-05
1858	3.55e-05
1870	0
1882	4.4e-05
1894	3e-06
1906	2.8e-05
1918	8e-06
1930	3.8e-05
1942	3.3e-05
1954	4.25e-05
1966	3.1e-05
1978	1.85e-05
1990	1.45e-05
2002	2.15e-05
2014	3.45e-05
2026	3.25e-05
2038	1.85e-05
2050	2.8e-05
2062	2.1e-05
2074	3.7e-05
2086	2.4e-05
2098	2.2e-05
2110	1.65e-05
2122	1.4e-05
2134	2.7e-05
2146	3.7e-05
2158	4.75e-05
2170	3.25e-05
2182	3.95e-05
2194	4.2e-05
2206	4.6e-05
2218	1.85e-05
2230	4.3e-05
2242	4.9e-05
2254	5.55e-05
2266	5.3e-05
2278	5.55e-05
2290	5.5e-05
2302	6.05e-05
2314	6.35e-05
2326	4.6e-05
2338	5.95e-05
2350	5.9e-05
2362	4.7e-05
2374	7.75e-05
2386	9.7e-05
2398	9.7e-05
2410	0.000111
2422	0.000113
2434	0.0001165
2446	0.000102
2458	0.000132
2470	0.0001135
2482	0.0001105
2494	0.0001455
2506	0.0001605
2518	0.0001585
2530	0.0001605
2542	0.0001625
2554	0.000173
2566	0.000151
2578	0.0001775
2590	0.0001845
2602	0.0001755
2614	0.000176
2626	0.0001895
2638	0.0001995
2650	0.0002075
2662	0.0001905
2674	0.0002185
2686	0.00023
2698	0.000207
2710	0.0002385
2722	0.000235
2734	0.0002405
2746	0.000263
2758	0.000288
2770	0.0002745
2782	0.000293
2794	0.000338
2806	0.0003525
2818	0.0004115
2830	0.00049
2842	0.0005855
2854	0.0008745
2866	0.0014475
2878	0.001966
2890	0.002096
2902	0.00187
2914	0.002142
2926	0.002939
2938	0.003161
2950	0.0028005
2962	0.00366
2974	0.005
2986	0.0030225
2998	0.0014245
3010	0.0011605
3022	0.0010605
3034	0.0008965
3046	0.000762
3058	0.0006325
3070	0.000551
3082	0.000453
3094	0.000407
3106	0.000374
3118	0.000332
3130	0.000326
3142	0.000301
3154	0.00026
3166	0.0002835
3178	0.0002805
3190	0.0002665
3202	0.00023
3214	0.000265
3226	0.0002145
3238	0.0002065
3250	0.0001955
3262	0.0001785
3274	0.000173
3286	0.000172
3298	0.0002025
3310	0.000189
3322	0.0001905
3334	0.0001825
3346	0.0002235
3358	0.0001675
3370	0.0002135
3382	0.0002095
3394	0.00017
3406	0.000181
3418	0.0002025
3430	0.000145
3442	0.000157
3454	0.000147
3466	0.000133
3478	0.0001385
3490	0.000102
3502	0.0001235
3514	7.55e-05
3526	9.05e-05
3538	0.000119
3550	0.0001065
3562	0.0001105
3574	0.000112
3586	2.3e-05
3598	0.0001075
3610	4.75e-05
3622	7.35e-05
3634	9.9e-05
3646	5.95e-05
3658	0.000114
3670	8.5e-05
3682	0.000107
3694	0.000139
3706	0.000139
3718	0.0001375
3730	9.15e-05
3742	6.75e-05
3754	9.45e-05
3766	0.000127
3778	0.0001465
3790	0.00013
3802	0.000134
3814	0.000115
3826	0.000145
3838	0.0001225
