Infrared Spectrum: BENZOIC ACID, 3-AMINO-2,5-DICHLORO-
Formula: C7 H5 Cl2 N O2
CAS: 50917-29-8
State: SOLID (SPLIT MULL, FLUOROLUBE FOR 3800-1330 AND NUJOL FOR 1330-400 CM ^-^1)
Class: COBLENTZ III
Instrument: BECKMAN IR-9 (GRATING)
Instrument parameters: ORDER CHANGES AT 670, 1200, 2000 CM^-^1
Sampling: TRANSMISSION
Resolution: 4
Origin: DOW CHEMICAL COMPANY
1/CM	TRANSMITTANCE
401.905	0.778
410.476	0.772
419.048	0.753
427.619	0.691
436.191	0.629
444.762	0.7
453.334	0.762
461.905	0.787
470.477	0.797
479.048	0.777
487.62	0.758
496.191	0.794
504.763	0.793
513.334	0.787
521.905	0.787
530.477	0.805
539.048	0.864
547.62	0.833
556.191	0.817
564.763	0.831
573.334	0.852
581.906	0.808
590.477	0.843
599.049	0.862
607.62	0.884
616.191	0.905
624.763	0.914
633.334	0.898
641.906	0.786
650.477	0.867
659.049	0.917
667.62	0.943
676.192	0.963
684.763	0.955
693.335	0.951
701.906	0.92
710.478	0.842
719.049	0.799
727.62	0.587
736.192	0.901
744.763	0.952
753.335	0.977
761.906	0.985
770.478	0.97
779.049	0.6591
787.621	0.942
796.192	0.982
804.764	0.98
813.335	0.974
821.907	0.958
830.478	0.948
839.049	0.939
847.621	0.8082
856.192	0.6057
864.764	0.806
873.335	0.823
881.907	0.853
890.478	0.843
899.05	0.769
907.621	0.682
916.193	0.703
924.764	0.793
933.335	0.867
941.907	0.904
950.478	0.926
959.05	0.935
967.621	0.924
976.193	0.883
984.764	0.946
993.336	0.986
1001.91	0.995
1010.48	1
1019.05	1
1027.62	0.998
1036.19	0.994
1044.76	0.97
1053.34	0.786
1061.91	0.895
1070.48	0.955
1079.05	0.976
1087.62	0.964
1096.19	0.926
1104.76	0.833
1113.34	0.868
1121.91	0.803
1130.48	0.827
1139.05	0.963
1147.62	1.004
1156.19	0.995
1164.76	1.004
1173.34	1.005
1181.91	1.005
1190.48	1.004
1199.05	0.997
1207.62	0.912
1216.19	0.703
1224.77	0.927
1233.34	0.933
1241.91	0.893
1250.48	0.772
1259.05	0.55
1267.62	0.589
1276.19	0.612
1284.77	0.647
1293.34	0.743
1301.91	0.514
1310.48	0.259
1319.05	0.222
1327.62	0.4921
1336.19	0.766
1344.77	0.848
1353.34	0.876
1361.91	0.896
1370.48	0.908
1379.05	0.914
1387.62	0.893
1396.19	0.823
1404.77	0.654
1413.34	0.445
1421.91	0.635
1430.48	0.6761
1439.05	0.733
1447.62	0.601
1456.19	0.648
1464.77	0.6029
1473.34	0.852
1481.91	0.923
1490.48	0.938
1499.05	0.945
1507.62	0.948
1516.19	0.952
1524.77	0.955
1533.34	0.949
1541.91	0.933
1550.48	0.914
1559.05	0.889
1567.62	0.871
1576.19	0.632
1584.77	0.693
1593.34	0.812
1601.91	0.7239
1610.48	0.4801
1619.05	0.246
1627.62	0.346
1636.2	0.666
1644.77	0.75
1653.34	0.762
1661.91	0.681
1670.48	0.3619
1679.05	0.218
1687.62	0.249
1696.2	0.33
1704.77	0.445
1713.34	0.325
1721.91	0.476
1730.48	0.7301
1739.05	0.873
1747.62	0.911
1756.2	0.939
1764.77	0.954
1773.34	0.955
1781.91	0.958
1790.48	0.96
1799.05	0.961
1807.62	0.964
1816.2	0.966
1824.77	0.967
1833.34	0.966
1841.91	0.966
1850.48	0.967
1859.05	0.97
1867.62	0.974
1876.2	0.977
1884.77	0.979
1893.34	0.979
1901.91	0.98
1910.48	0.98
1919.05	0.982
1927.62	0.985
1936.2	0.988
1944.77	0.986
1953.34	0.988
1961.91	0.988
1970.48	0.991
1979.05	0.988
1987.62	0.989
1996.2	0.989
2004.77	0.987
2013.34	0.991
2021.91	0.98
2030.48	0.979
2039.05	0.977
2047.63	0.974
2056.2	0.973
2064.77	0.976
2073.34	0.977
2081.91	0.9769
2090.48	0.974
2099.05	0.971
2107.63	0.971
2116.2	0.967
2124.77	0.966
2133.34	0.964
2141.91	0.9634
2150.48	0.955
2159.05	0.9514
2167.63	0.951
2176.2	0.949
2184.77	0.9429
2193.34	0.941
2201.91	0.9393
2210.48	0.942
2219.05	0.941
2227.63	0.9383
2236.2	0.9345
2244.77	0.927
2253.34	0.9208
2261.91	0.918
2270.48	0.917
2279.05	0.915
2287.63	0.912
2296.2	0.911
2304.77	0.907
2313.34	0.905
2321.91	0.9048
2330.48	0.9025
2339.05	0.901
2347.63	0.901
2356.2	0.901
2364.77	0.8982
2373.34	0.896
2381.91	0.8935
2390.48	0.8876
2399.05	0.8774
2407.63	0.8737
2416.2	0.871
2424.77	0.871
2433.34	0.8656
2441.91	0.8574
2450.48	0.8512
2459.06	0.842
2467.63	0.8332
2476.2	0.826
2484.77	0.8183
2493.34	0.813
2501.91	0.7947
2510.48	0.7799
2519.06	0.7723
2527.63	0.7653
2536.2	0.7581
2544.77	0.7398
2553.34	0.7244
2561.91	0.7138
2570.48	0.7021
2579.06	0.6918
2587.63	0.7017
2596.2	0.709
2604.77	0.7023
2613.34	0.6784
2621.91	0.672
2630.48	0.6769
2639.06	0.691
2647.63	0.7
2656.2	0.706
2664.77	0.7081
2673.34	0.703
2681.91	0.7
2690.48	0.702
2699.06	0.703
2707.63	0.702
2716.2	0.696
2724.77	0.697
2733.34	0.703
2741.91	0.706
2750.48	0.707
2759.06	0.707
2767.63	0.705
2776.2	0.6989
2784.77	0.6934
2793.34	0.6759
2801.91	0.6621
2810.49	0.6467
2819.06	0.6344
2827.63	0.631
2836.2	0.6284
2844.77	0.6229
2853.34	0.6112
2861.91	0.5997
2870.49	0.5914
2879.06	0.587
2887.63	0.588
2896.2	0.594
2904.77	0.5989
2913.34	0.598
2921.91	0.597
2930.49	0.597
2939.06	0.598
2947.63	0.601
2956.2	0.5986
2964.77	0.5948
2973.34	0.5835
2981.91	0.5758
2990.49	0.5744
2999.06	0.578
3007.63	0.579
3016.2	0.5842
3024.77	0.587
3033.34	0.587
3041.91	0.587
3050.49	0.5895
3059.06	0.595
3067.63	0.597
3076.2	0.6008
3084.77	0.609
3093.34	0.5852
3101.91	0.5803
3110.49	0.6334
3119.06	0.6606
3127.63	0.675
3136.2	0.6903
3144.77	0.7049
3153.34	0.7146
3161.91	0.7265
3170.49	0.742
3179.06	0.7577
3187.63	0.7643
3196.2	0.772
3204.77	0.7874
3213.34	0.7957
3221.92	0.8061
3230.49	0.8166
3239.06	0.8342
3247.63	0.8429
3256.2	0.8518
3264.77	0.8589
3273.34	0.8658
3281.92	0.87
3290.49	0.8734
3299.06	0.8769
3307.63	0.88
3316.2	0.882
3324.77	0.883
3333.34	0.8801
3341.92	0.8696
3350.49	0.8492
3359.06	0.6846
3367.63	0.4718
3376.2	0.6102
3384.77	0.8102
3393.34	0.857
3401.92	0.884
3410.49	0.897
3419.06	0.902
3427.63	0.902
3436.2	0.898
3444.77	0.8774
3453.34	0.6805
3461.92	0.6568
3470.49	0.826
3479.06	0.8763
3487.63	0.8931
3496.2	0.9057
3504.77	0.917
3513.34	0.9192
3521.92	0.921
3530.49	0.9248
3539.06	0.929
3547.63	0.932
3556.2	0.932
3564.77	0.93
3573.34	0.932
3581.92	0.9324
3590.49	0.93
3599.06	0.93
3607.63	0.932
3616.2	0.932
3624.77	0.932
3633.35	0.932
3641.92	0.93
3650.49	0.9276
3659.06	0.927
3667.63	0.926
3676.2	0.9244
3684.77	0.926
3693.35	0.9238
3701.92	0.924
3710.49	0.924
3719.06	0.924
3727.63	0.924
3736.2	0.9233
3744.77	0.923
3753.35	0.923
3761.92	0.921
3770.49	0.92
3779.06	0.918
3787.63	0.918
3796.2	0.9177
