Infrared Spectrum: 1-Bromo-3,5,5-trimethylhexane
Formula: C 9 H 19 Br
CAS: 50915-80-5
State: gas
Instrument: HP-GC/MS/IRD
Origin: NIST Mass Spectrometry Data Center
1/CM	ABSORBANCE
550	0.000672
562	0.0006216
574	0.001029
586	0.0004368
598	0.0001974
610	1.68e-05
622	0.000252
634	0.0006594
646	0.0016338
658	0.001995
670	0.0008904
682	0.0003864
694	0.000273
706	0.0001092
718	4.2e-05
730	0.0001974
742	0.0003612
754	0.000273
766	0.0004116
778	0.000294
790	0.000105
802	0.0001008
814	9.24e-05
826	0.0002352
838	0.0003318
850	0.0004494
862	0.0005082
874	0.0005292
886	0.0004746
898	0.0003444
910	0.0003276
922	0.0004452
934	0.0003444
946	0.000504
958	0.0007056
970	0.0006594
982	0.0003024
994	0.0003444
1006	0.0003486
1018	0.0003024
1030	0.0002898
1042	0.000189
1054	0.0001974
1066	0.00021
1078	0.0001932
1090	0.00021
1102	0.000252
1114	0.0003528
1126	0.0002856
1138	0.0003192
1150	0.0004746
1162	0.0008148
1174	0.0010878
1186	0.001428
1198	0.0022806
1210	0.0035742
1222	0.0040614
1234	0.0030702
1246	0.0035028
1258	0.0041328
1270	0.0030912
1282	0.002289
1294	0.0017808
1306	0.0013188
1318	0.0012096
1330	0.001281
1342	0.0015876
1354	0.0027384
1366	0.0051786
1378	0.0047796
1390	0.003465
1402	0.0024486
1414	0.0011172
1426	0.0014028
1438	0.0025998
1450	0.0035196
1462	0.0046956
1474	0.005922
1486	0.0038556
1498	0.001428
1510	0.0006468
1522	0.0004116
1534	0.0002814
1546	0.0002016
1558	0.0001974
1570	0.0001176
1582	0.0001344
1594	0.0001176
1606	8.82e-05
1618	0.0001092
1630	7.56e-05
1642	6.3e-05
1654	8.82e-05
1666	7.14e-05
1678	7.98e-05
1690	7.14e-05
1702	7.56e-05
1714	7.14e-05
1726	5.88e-05
1738	3.78e-05
1750	2.94e-05
1762	5.88e-05
1774	3.36e-05
1786	5.04e-05
1798	2.94e-05
1810	4.2e-05
1822	4.62e-05
1834	3.36e-05
1846	3.78e-05
1858	2.94e-05
1870	5.88e-05
1882	5.04e-05
1894	4.62e-05
1906	3.78e-05
1918	2.94e-05
1930	2.94e-05
1942	4.62e-05
1954	4.62e-05
1966	5.46e-05
1978	5.04e-05
1990	5.88e-05
2002	5.46e-05
2014	6.3e-05
2026	5.04e-05
2038	4.2e-05
2050	5.04e-05
2062	4.62e-05
2074	4.2e-05
2086	3.36e-05
2098	5.04e-05
2110	6.72e-05
2122	4.62e-05
2134	2.94e-05
2146	2.94e-05
2158	3.36e-05
2170	5.04e-05
2182	4.62e-05
2194	5.88e-05
2206	2.94e-05
2218	5.46e-05
2230	7.14e-05
2242	5.46e-05
2254	2.52e-05
2266	2.94e-05
2278	5.88e-05
2290	7.14e-05
2302	6.72e-05
2314	7.56e-05
2326	7.14e-05
2338	8.4e-05
2350	0.0001092
2362	0.000105
2374	0.0001134
2386	0.0001092
2398	0.0001134
2410	0.000126
2422	0.0001512
2434	0.000105
2446	0.0001218
2458	0.0001134
2470	0.0001092
2482	0.000126
2494	0.0001386
2506	0.000147
2518	0.0001092
2530	0.0001428
2542	0.0001386
2554	0.0001848
2566	0.000168
2578	0.0002058
2590	0.0002394
2602	0.000252
2614	0.000252
2626	0.0002898
2638	0.0002982
2650	0.0003486
2662	0.0004158
2674	0.0003906
2686	0.0004704
2698	0.0005166
2710	0.0005754
2722	0.0006762
2734	0.0006972
2746	0.0007056
2758	0.0007098
2770	0.0006762
2782	0.0007602
2794	0.0009534
2806	0.0012054
2818	0.0016254
2830	0.0024822
2842	0.0039774
2854	0.0055944
2866	0.008694
2878	0.0129192
2890	0.0138474
2902	0.0160776
2914	0.017787
2926	0.0173124
2938	0.0208656
2950	0.028581
2962	0.042
2974	0.028434
2986	0.0120708
2998	0.0053004
3010	0.0034062
3022	0.0026082
3034	0.0013692
3046	0.0009576
3058	0.0008064
3070	0.0007098
3082	0.0006804
3094	0.0006846
3106	0.000609
3118	0.0005544
3130	0.0005082
3142	0.0005628
3154	0.0005124
3166	0.0005292
3178	0.000567
3190	0.000525
3202	0.0004788
3214	0.0004326
3226	0.0004452
3238	0.0003822
3250	0.0003528
3262	0.0002646
3274	0.0002646
3286	0.0002688
3298	0.0001848
3310	0.0001974
3322	0.0002142
3334	0.0001932
3346	0.0002268
3358	0.000168
3370	0.0001974
3382	0.0001638
3394	0.000168
3406	0.0001344
3418	0.0001134
3430	8.4e-05
3442	0.0001554
3454	0.0001302
3466	7.98e-05
3478	6.72e-05
3490	7.98e-05
3502	0.000105
3514	4.62e-05
3526	5.46e-05
3538	2.52e-05
3550	4.62e-05
3562	5.88e-05
3574	4.2e-05
3586	7.56e-05
3598	5.46e-05
3610	5.04e-05
3622	9.24e-05
3634	7.14e-05
3646	8.4e-05
3658	7.56e-05
3670	7.14e-05
3682	6.72e-05
3694	7.56e-05
3706	9.66e-05
3718	5.04e-05
3730	5.04e-05
3742	0.0001008
3754	0.0001218
3766	0.0001218
3778	0.0001218
3790	9.66e-05
3802	0.0001554
3814	0.0002016
3826	0.0001554
3838	0.0001386
