Infrared Spectrum: PIPERONYL BUTOXIDE
Formula: C19 H30 O5
CAS: 51-03-6
State: LIQUID (NEAT)
Boiling point: 240 C
Class: COBLENTZ II
Instrument: PERKIN-ELMER 180 (GRATING)
Instrument parameters: GRATINGS: 2000, 1000, 500, 250 CM^-^1; FILTER CHANGE: 2970, 2000, 1485, 1000, 743, 500, 372, 250, 186 CM^-^1.
Sampling: TRANSMISSION
Path length: CAPILLARY
Resolution: 2
Origin: K. K. DEB-NCI FREDERICK CANCER RESEARCH CENTER
1/CM	TRANSMITTANCE
391	0.668
400	0.6881
409	0.7222
418	0.7568
427	0.7822
436	0.7887
445	0.7982
454	0.8273
463	0.8488
472	0.8669
481	0.877
490	0.8751
499	0.8662
508	0.8687
517	0.8678
526	0.8733
535	0.8785
544	0.8813
553	0.8791
562	0.8774
571	0.8863
580	0.8961
589	0.8994
598	0.8957
607	0.8926
616	0.9016
625	0.9099
634	0.9122
643	0.915
652	0.9137
661	0.9098
670	0.9053
679	0.9018
688	0.9051
697	0.9155
706	0.9083
715	0.8835
724	0.8964
733	0.8619
742	0.8424
751	0.8707
760	0.8783
769	0.8558
778	0.8505
787	0.8376
796	0.8483
805	0.812
814	0.847
823	0.8376
832	0.7916
841	0.6699
850	0.6383
859	0.6016
868	0.5645
877	0.6087
886	0.696
895	0.7227
904	0.7482
913	0.779
922	0.6903
931	0.5314
940	0.4685
949	0.6392
958	0.7444
967	0.7454
976	0.714
985	0.692
994	0.6751
1003	0.6824
1012	0.6304
1021	0.515
1030	0.3536
1039	0.2024
1048	0.3228
1057	0.4623
1066	0.523
1075	0.4234
1084	0.2828
1093	0.1844
1102	0.1585
1111	0.1691
1120	0.1891
1129	0.2157
1138	0.2569
1147	0.3669
1156	0.4444
1165	0.506
1174	0.6425
1183	0.7353
1192	0.7616
1201	0.74
1210	0.5627
1219	0.4692
1228	0.4444
1237	0.4813
1246	0.4301
1255	0.2912
1264	0.3462
1273	0.4661
1282	0.5818
1291	0.5892
1300	0.6022
1309	0.6993
1318	0.7382
1327	0.7251
1336	0.7092
1345	0.6049
1354	0.5711
1363	0.5859
1372	0.5187
1381	0.5068
1390	0.6203
1399	0.6893
1408	0.7392
1417	0.7592
1426	0.7332
1435	0.6777
1444	0.6374
1453	0.5126
1462	0.4567
1471	0.4589
1480	0.2582
1489	0.1626
1498	0.4776
1507	0.3628
1516	0.6646
1525	0.7488
1534	0.7898
1543	0.8163
1552	0.8412
1561	0.8522
1570	0.8583
1579	0.8573
1588	0.8593
1597	0.8563
1606	0.8477
1615	0.8125
1624	0.7851
1633	0.84
1642	0.8549
1651	0.86
1660	0.8636
1669	0.8659
1678	0.8658
1687	0.8638
1696	0.8606
1705	0.8575
1714	0.8551
1723	0.8536
1732	0.8543
1741	0.8562
1750	0.8595
1759	0.8636
1768	0.8677
1777	0.8705
1786	0.8727
1795	0.8741
1804	0.8746
1813	0.8744
1822	0.8732
1831	0.8716
1840	0.869
1849	0.8646
1858	0.8607
1867	0.8594
1876	0.8666
1885	0.8712
1894	0.8728
1903	0.8727
1912	0.8717
1921	0.8702
1930	0.8678
1939	0.8652
1948	0.8623
1957	0.861
1966	0.8615
1975	0.8622
1984	0.8641
1993	0.8659
2002	0.8671
2011	0.8677
2020	0.8683
2029	0.8689
2038	0.8692
2047	0.8688
2056	0.8684
2065	0.8679
2074	0.8676
2083	0.8671
2092	0.8669
2101	0.8666
2110	0.8664
2119	0.8682
2128	0.8707
2137	0.8711
2146	0.8716
2155	0.8713
2164	0.8711
2173	0.8709
2182	0.8707
2191	0.8709
2200	0.8712
2209	0.8714
2218	0.8716
2227	0.8718
2236	0.872
2245	0.872
2254	0.8721
2263	0.8721
2272	0.8722
2281	0.8722
2290	0.8719
2299	0.8714
2308	0.871
2317	0.8705
2326	0.8702
2335	0.8697
2344	0.8688
2353	0.8679
2362	0.867
2371	0.8662
2380	0.8654
2389	0.8654
2398	0.8656
2407	0.8659
2416	0.8664
2425	0.8673
2434	0.8687
2443	0.8701
2452	0.8708
2461	0.8708
2470	0.8706
2479	0.8704
2488	0.87
2497	0.8695
2506	0.8689
2515	0.8681
2524	0.8673
2533	0.865
2542	0.8627
2551	0.8599
2560	0.8567
2569	0.8536
2578	0.8526
2587	0.8519
2596	0.8523
2605	0.852
2614	0.8514
2623	0.8499
2632	0.8483
2641	0.8458
2650	0.8424
2659	0.8387
2668	0.8327
2677	0.8243
2686	0.8151
2695	0.808
2704	0.8009
2713	0.7943
2722	0.7879
2731	0.7821
2740	0.7808
2749	0.7768
2758	0.7514
2767	0.7274
2776	0.7242
2785	0.7114
2794	0.6875
2803	0.6638
2812	0.6381
2821	0.5985
2830	0.5381
2839	0.4441
2848	0.3253
2857	0.2087
2866	0.1629
2875	0.1835
2884	0.2489
2893	0.277
2902	0.2819
2911	0.2818
2920	0.2726
2929	0.2332
2938	0.2722
2947	0.269
2956	0.2127
2965	0.3408
2974	0.5433
2983	0.6182
2992	0.6771
3001	0.7385
3010	0.7491
3019	0.7754
3028	0.7913
3037	0.7943
3046	0.806
3055	0.8121
3064	0.8152
3073	0.8204
3082	0.8286
3091	0.833
3100	0.8354
3109	0.8373
3118	0.8387
3127	0.8401
3136	0.8414
3145	0.8421
3154	0.8424
3163	0.8427
3172	0.8427
3181	0.8428
3190	0.8429
3199	0.8424
3208	0.8417
3217	0.841
3226	0.8391
3235	0.8371
3244	0.8364
3253	0.8367
3262	0.8371
3271	0.8373
3280	0.8376
3289	0.8374
3298	0.8372
3307	0.8369
3316	0.8367
3325	0.8358
3334	0.8348
3343	0.8338
3352	0.8329
3361	0.8321
3370	0.8314
3379	0.8306
3388	0.8299
3397	0.8292
3406	0.8285
3415	0.8279
3424	0.8277
3433	0.8274
3442	0.8272
3451	0.827
3460	0.8271
3469	0.8276
3478	0.8282
3487	0.8287
3496	0.8293
3505	0.8302
3514	0.8315
3523	0.8328
3532	0.8341
3541	0.8353
3550	0.8367
3559	0.838
3568	0.8393
3577	0.8406
3586	0.842
3595	0.8433
3604	0.8445
3613	0.8456
3622	0.8468
3631	0.8479
3640	0.8491
3649	0.8503
3658	0.851
3667	0.8517
3676	0.8524
3685	0.8529
3694	0.8531
3703	0.8532
3712	0.8534
3721	0.8532
3730	0.853
3739	0.853
3748	0.8533
3757	0.8535
3766	0.8526
3775	0.8516
3784	0.8506
