Infrared Spectrum: PROCAINE, HYDROCHLORIDE
Formula: C13 H21 Cl N2 O2
CAS: 51-05-8
State: SOLID (1 mg / 200 mg KCl DISC) VS KCl
Melting point: 153-156 C
Class: COBLENTZ III
Instrument: PERKIN-ELMER 21 (GRATING)
Instrument parameters: FILTER AT ABOUT 10 MICRONS
Sampling: TRANSMISSION
Path length: 0.055 CM (THICKNESS)
Resolution: 2
1/CM	TRANSMITTANCE
4000	0.936
3991	0.9357
3982	0.9356
3973	0.9356
3964	0.9354
3955	0.9353
3946	0.9352
3937	0.9352
3928	0.9351
3919	0.9353
3910	0.9353
3901	0.9354
3892	0.9354
3883	0.9355
3874	0.9354
3865	0.9352
3856	0.9351
3847	0.935
3838	0.9349
3829	0.9348
3820	0.9347
3811	0.9346
3802	0.9351
3793	0.9357
3784	0.9365
3775	0.9391
3766	0.9423
3757	0.946
3748	0.9462
3739	0.9462
3730	0.9462
3721	0.9462
3712	0.9464
3703	0.9465
3694	0.9468
3685	0.9476
3676	0.9511
3667	0.9556
3658	0.9565
3649	0.9566
3640	0.9566
3631	0.9566
3622	0.9564
3613	0.9559
3604	0.9555
3595	0.9549
3586	0.9541
3577	0.9534
3568	0.9527
3559	0.9521
3550	0.9516
3541	0.9513
3532	0.951
3523	0.9512
3514	0.9516
3505	0.9513
3496	0.9506
3487	0.9496
3478	0.9488
3469	0.9478
3460	0.9466
3451	0.9454
3442	0.9439
3433	0.9419
3424	0.9394
3415	0.9354
3406	0.9241
3397	0.8173
3388	0.746
3379	0.6587
3370	0.5755
3361	0.5574
3352	0.5472
3343	0.5369
3334	0.5266
3325	0.5213
3316	0.518
3307	0.6481
3298	0.7161
3289	0.7472
3280	0.7637
3271	0.7684
3262	0.7699
3253	0.7699
3244	0.733
3235	0.6444
3226	0.5556
3217	0.4709
3208	0.4705
3199	0.5207
3190	0.5743
3181	0.628
3172	0.7049
3163	0.7316
3154	0.7565
3145	0.7733
3136	0.786
3127	0.7954
3118	0.8001
3109	0.8013
3100	0.8027
3091	0.8041
3082	0.8065
3073	0.8102
3064	0.8185
3055	0.8274
3046	0.8376
3037	0.8404
3028	0.8397
3019	0.8316
3010	0.7951
3001	0.7493
2992	0.7154
2983	0.7022
2974	0.6988
2965	0.699
2956	0.7003
2947	0.7056
2938	0.717
2929	0.7277
2920	0.7349
2911	0.7402
2902	0.7455
2893	0.7507
2884	0.7579
2875	0.7661
2866	0.7738
2857	0.7825
2848	0.7962
2839	0.8057
2830	0.8139
2821	0.8188
2812	0.8171
2803	0.8084
2794	0.7954
2785	0.7852
2776	0.7783
2767	0.7754
2758	0.7749
2749	0.7782
2740	0.7793
2731	0.7783
2722	0.7758
2713	0.7751
2704	0.7756
2695	0.7681
2686	0.7493
2677	0.6676
2668	0.6538
2659	0.6455
2650	0.6393
2641	0.6327
2632	0.6115
2623	0.5723
2614	0.5333
2605	0.4941
2596	0.4549
2587	0.419
2578	0.4173
2569	0.4245
2560	0.4432
2551	0.462
2542	0.481
2533	0.4999
2524	0.515
2515	0.5171
2506	0.502
2497	0.4623
2488	0.4504
2479	0.4537
2470	0.4688
2461	0.4975
2452	0.5196
2443	0.541
2434	0.5659
2425	0.5907
2416	0.613
2407	0.6284
2398	0.6432
2389	0.6563
2380	0.6699
2371	0.6728
2362	0.673
2353	0.6766
2344	0.6835
2335	0.6922
2326	0.7045
2317	0.7174
2308	0.7309
2299	0.7437
2290	0.755
2281	0.7657
2272	0.7758
2263	0.7857
2254	0.7935
2245	0.7924
2236	0.7906
2227	0.7937
2218	0.7985
2209	0.8044
2200	0.8103
2191	0.815
2182	0.8197
2173	0.8245
2164	0.828
2155	0.8309
2146	0.8337
2137	0.8361
2128	0.8384
2119	0.8412
2110	0.8453
2101	0.8495
2092	0.854
2083	0.8552
2074	0.8555
2065	0.856
2056	0.8568
2047	0.8609
2038	0.8645
2029	0.8667
2020	0.8688
2011	0.8735
2002	0.8779
1993	0.8816
1984	0.8838
1975	0.8855
1966	0.884
1957	0.8751
1948	0.8654
1939	0.8694
1930	0.8693
1921	0.8795
1912	0.8818
1903	0.8846
1894	0.8909
1885	0.8974
1876	0.9046
1867	0.9109
1858	0.9163
1849	0.9175
1840	0.9201
1831	0.9225
1822	0.9246
1813	0.9277
1804	0.9318
1795	0.9411
1786	0.9452
1777	0.9404
1768	0.9394
1759	0.9467
1750	0.9303
1741	0.8804
1732	0.8558
1723	0.6868
1714	0.4612
1705	0.2673
1696	0.4361
1687	0.633
1678	0.7086
1669	0.7139
1660	0.5501
1651	0.4854
1642	0.6127
1633	0.6496
1624	0.5466
1615	0.2757
1606	0.3986
1597	0.5711
1588	0.6513
1579	0.6305
1570	0.7148
1561	0.7545
1552	0.769
1543	0.7765
1534	0.7825
1525	0.6716
1516	0.7653
1507	0.8281
1498	0.7603
1489	0.624
1480	0.6994
1471	0.6301
1462	0.55
1453	0.5647
1444	0.5775
1435	0.6798
1426	0.8008
1417	0.8238
1408	0.7116
1399	0.8202
1390	0.7947
1381	0.8179
1372	0.6189
1363	0.761
1354	0.8205
1345	0.8402
1336	0.7868
1327	0.5977
1318	0.5172
1309	0.5969
1300	0.681
1291	0.4437
1282	0.293
1273	0.2527
1264	0.365
1255	0.5055
1246	0.559
1237	0.5849
1228	0.6622
1219	0.7236
1210	0.7684
1201	0.808
1192	0.8598
1183	0.7636
1174	0.3175
1165	0.4991
1156	0.6091
1147	0.7032
1138	0.6796
1129	0.7162
1120	0.3727
1111	0.3908
1102	0.5596
1093	0.5904
1084	0.6033
1075	0.5736
1066	0.6613
1057	0.7215
1048	0.6208
1039	0.718
1030	0.7747
1021	0.5471
1012	0.663
1003	0.6793
994	0.7775
985	0.8128
976	0.8371
967	0.8437
958	0.8625
949	0.8762
940	0.8912
931	0.902
922	0.9168
913	0.7913
904	0.8549
895	0.8865
886	0.9289
877	0.9447
868	0.9514
859	0.9262
850	0.4945
841	0.8307
832	0.8579
823	0.8678
814	0.8791
805	0.9282
796	0.8883
787	0.9502
778	0.8789
769	0.5581
760	0.8639
751	0.9144
742	0.8918
733	0.8955
724	0.9016
715	0.9009
706	0.8399
697	0.7085
688	0.7826
679	0.7784
670	0.7715
