Infrared Spectrum: 2,4,6-TRIS(1-AZIRIDINYL)-S-TRIAZINE
Formula: C9 H12 N6
CAS: 51-18-3
State: SOLID (MULLS; KEL-F FOR 5000-1350 AND MINERAL OIL FOR 1350-625 CM^-^1)
Class: COBLENTZ
Instrument: Not specified, most likely a prism, grating, or hybrid spectrometer.
Sampling: TRANSMISSION
Resolution: 4
Origin: WYANDOTTE CHEMICALS CORP., WYANDOTTE, MICHIGAN, USA
MICROMETERS	TRANSMITTANCE
2.053	0.296
2.09277	0.296
2.13254	0.296
2.17231	0.294
2.21209	0.297
2.25186	0.302
2.29163	0.307
2.3314	0.331
2.37117	0.341
2.41094	0.349
2.45072	0.352
2.49049	0.357
2.53026	0.361
2.57003	0.374
2.6098	0.387
2.64957	0.389
2.68935	0.402
2.72912	0.41
2.76889	0.412
2.80866	0.41
2.84843	0.409
2.8882	0.409
2.92798	0.409
2.96775	0.414
3.00752	0.417
3.04729	0.414
3.08706	0.415
3.12683	0.415
3.1666	0.42
3.20638	0.432
3.24615	0.372
3.28592	0.402
3.32569	0.257
3.36546	0.324
3.40523	0.362
3.44501	0.357
3.48478	0.391
3.52455	0.419
3.56432	0.474
3.60409	0.504
3.64386	0.519
3.68364	0.529
3.72341	0.539
3.76318	0.552
3.80295	0.559
3.84272	0.555
3.88249	0.574
3.92226	0.579
3.96204	0.589
4.00181	0.582
4.04158	0.584
4.08135	0.58
4.12112	0.61
4.16089	0.603
4.20067	0.603
4.24044	0.622
4.28021	0.623
4.31998	0.633
4.35975	0.65
4.39952	0.658
4.4393	0.655
4.47907	0.657
4.51884	0.65
4.55861	0.633
4.59838	0.657
4.63815	0.698
4.67793	0.717
4.7177	0.74
4.75747	0.763
4.79724	0.79
4.83701	0.806
4.87678	0.825
4.91655	0.828
4.95633	0.848
4.9961	0.825
5.03587	0.808
5.07564	0.84
5.11541	0.86
5.15518	0.868
5.19496	0.87
5.23473	0.866
5.2745	0.861
5.31427	0.835
5.35404	0.833
5.39381	0.908
5.43359	0.931
5.47336	0.89
5.51313	0.8
5.5529	0.78
5.59267	0.846
5.63244	0.85
5.67221	0.918
5.71199	0.971
5.75176	0.9
5.79153	0.915
5.8313	0.928
5.87107	0.931
5.91084	0.848
5.95062	0.737
5.99039	0.647
6.03016	0.55
6.06993	0.49
6.1097	0.627
6.14947	0.648
6.18925	0.559
6.22902	0.437
6.26879	0.326
6.30856	0.198
6.34833	0.116
6.3881	0.093
6.42788	0.094
6.46765	0.096
6.50742	0.094
6.54719	0.098
6.58696	0.098
6.62673	0.099
6.6665	0.156
6.70628	0.193
6.74605	0.126
6.78582	0.148
6.82559	0.189
6.86536	0.116
6.90513	0.111
6.94491	0.093
6.98468	0.088
7.02445	0.088
7.06422	0.086
7.10399	0.088
7.14376	0.086
7.18354	0.088
7.22331	0.091
7.26308	0.098
7.30285	0.103
7.34262	0.109
7.38239	0.124
7.42216	0.138
7.46194	0.144
7.50171	0.153
7.54148	0.166
7.58125	0.207
7.62102	0.237
7.66079	0.252
7.70057	0.271
7.74034	0.284
7.78011	0.299
7.81988	0.327
7.85965	0.342
7.89942	0.332
7.9392	0.279
7.97897	0.304
8.01874	0.429
8.05851	0.445
8.09828	0.444
8.13805	0.405
8.17783	0.361
8.2176	0.349
8.25737	0.489
8.29714	0.54
8.33691	0.567
8.37668	0.577
8.41645	0.575
8.45623	0.587
8.496	0.56
8.53577	0.43
8.57554	0.186
8.61531	0.069
8.65508	0.051
8.69486	0.074
8.73463	0.186
8.7744	0.297
8.81417	0.354
8.85394	0.322
8.89371	0.276
8.93349	0.281
8.97326	0.342
9.01303	0.264
9.0528	0.259
9.09257	0.274
9.13234	0.369
9.17211	0.459
9.21189	0.49
9.25166	0.53
9.29143	0.57
9.3312	0.592
9.37097	0.605
9.41074	0.612
9.45052	0.615
9.49029	0.607
9.53006	0.574
9.56983	0.542
9.6096	0.507
9.64937	0.5
9.68915	0.504
9.72892	0.4
9.76869	0.202
9.80846	0.136
9.84823	0.139
9.888	0.149
9.92778	0.231
9.96755	0.399
10.0073	0.48
10.0471	0.522
10.0869	0.544
10.1266	0.562
10.1664	0.564
10.2062	0.527
10.2459	0.504
10.2857	0.574
10.3255	0.602
10.3653	0.615
10.405	0.63
10.4448	0.638
10.4846	0.638
10.5243	0.643
10.5641	0.65
10.6039	0.653
10.6437	0.662
10.6834	0.663
10.7232	0.665
10.763	0.667
10.8028	0.663
10.8425	0.653
10.8823	0.637
10.9221	0.61
10.9618	0.57
11.0016	0.487
11.0414	0.362
11.0812	0.312
11.1209	0.221
11.1607	0.221
11.2005	0.331
11.2402	0.472
11.28	0.535
11.3198	0.657
11.3596	0.708
11.3993	0.67
11.4391	0.544
11.4789	0.455
11.5186	0.58
11.5584	0.662
11.5982	0.708
11.638	0.727
11.6777	0.737
11.7175	0.74
11.7573	0.733
11.797	0.733
11.8368	0.71
11.8766	0.677
11.9164	0.627
11.9561	0.47
11.9959	0.232
12.0357	0.088
12.0754	0.071
12.1152	0.094
12.155	0.123
12.1948	0.158
12.2345	0.151
12.2743	0.139
12.3141	0.184
12.3538	0.281
12.3936	0.397
12.4334	0.489
12.4732	0.544
12.5129	0.554
12.5527	0.525
12.5925	0.464
12.6322	0.404
12.672	0.396
12.7118	0.527
12.7516	0.599
12.7913	0.65
12.8311	0.743
12.8709	0.782
12.9106	0.792
12.9504	0.803
12.9902	0.81
13.03	0.811
13.0697	0.798
13.1095	0.77
13.1493	0.713
13.189	0.643
13.2288	0.592
13.2686	0.565
13.3084	0.594
13.3481	0.685
13.3879	0.747
13.4277	0.77
13.4674	0.777
13.5072	0.777
13.547	0.775
13.5868	0.775
13.6265	0.777
13.6663	0.783
13.7061	0.798
13.7458	0.798
13.7856	0.795
13.8254	0.8
13.8652	0.8
13.9049	0.803
13.9447	0.821
13.9845	0.835
14.0242	0.851
14.064	0.86
14.1038	0.868
14.1436	0.876
14.1833	0.88
14.2231	0.881
14.2629	0.886
14.3027	0.886
14.3424	0.886
14.3822	0.886
14.422	0.888
14.4617	0.89
14.5015	0.89
14.5413	0.888
14.5811	0.885
14.6208	0.88
14.6606	0.873
14.7004	0.871
14.7401	0.868
14.7799	0.866
14.8197	0.863
14.8595	0.861
14.8992	0.858
14.939	0.856
14.9788	0.853
15.0185	0.82
15.0583	0.768
15.0981	0.767
15.1379	0.792
15.1776	0.811
15.2174	0.813
15.2572	0.81
15.2969	0.808
15.3367	0.803
15.3765	0.798
15.4163	0.792
15.456	0.777
15.4958	0.77
15.5356	0.762
15.5753	0.758
15.6151	0.758
15.6549	0.748
15.6947	0.737
15.7344	0.727
15.7742	0.703
15.814	0.693
15.8537	0.69
15.8935	0.675
15.9333	0.667
15.9731	0.66
