Infrared Spectrum: HYDRAZINE, N-ISONICOTINOYL-N'-[Beta-(N-BENZYLCARBOXAMIDO)ETHYL]-
Formula: C16 H18 N4 O2
CAS: 51-12-7
Melting point: 151.1-152.1 C
Class: COBLENTZ III
Instrument: PERKIN-ELMER 21 (GRATING)
Instrument parameters: FILTER AT ABOUT 10 MICRONS
Sampling: TRANSMISSION
Resolution: 2
1/CM	TRANSMITTANCE
4000	0.6199
3991	0.621
3982	0.6223
3973	0.6236
3964	0.6248
3955	0.626
3946	0.6272
3937	0.6286
3928	0.6299
3919	0.6312
3910	0.6325
3901	0.6339
3892	0.6353
3883	0.6367
3874	0.638
3865	0.6394
3856	0.6408
3847	0.6421
3838	0.6436
3829	0.6451
3820	0.6465
3811	0.6478
3802	0.6493
3793	0.6507
3784	0.6519
3775	0.6531
3766	0.6542
3757	0.6551
3748	0.6561
3739	0.6565
3730	0.6569
3721	0.6574
3712	0.6578
3703	0.6584
3694	0.6591
3685	0.6601
3676	0.6611
3667	0.6621
3658	0.6631
3649	0.664
3640	0.6655
3631	0.6671
3622	0.6689
3613	0.6705
3604	0.6721
3595	0.6739
3586	0.6756
3577	0.6772
3568	0.679
3559	0.6808
3550	0.6831
3541	0.6854
3532	0.6875
3523	0.6895
3514	0.6914
3505	0.6933
3496	0.6954
3487	0.6972
3478	0.6993
3469	0.7014
3460	0.7035
3451	0.7057
3442	0.7078
3433	0.7099
3424	0.7108
3415	0.7114
3406	0.7119
3397	0.7108
3388	0.7069
3379	0.7003
3370	0.69
3361	0.6787
3352	0.6589
3343	0.6252
3334	0.6009
3325	0.5118
3316	0.2502
3307	0.2443
3298	0.303
3289	0.3618
3280	0.38
3271	0.3309
3262	0.2565
3253	0.1992
3244	0.1996
3235	0.2383
3226	0.2834
3217	0.3289
3208	0.3746
3199	0.4205
3190	0.4666
3181	0.5095
3172	0.53
3163	0.5501
3154	0.5719
3145	0.5907
3136	0.6016
3127	0.611
3118	0.6149
3109	0.617
3100	0.6165
3091	0.615
3082	0.6136
3073	0.6139
3064	0.6151
3055	0.6169
3046	0.6179
3037	0.6175
3028	0.5882
3019	0.5737
3010	0.5879
3001	0.6105
2992	0.6332
2983	0.6556
2974	0.6589
2965	0.6598
2956	0.6557
2947	0.6406
2938	0.6252
2929	0.6199
2920	0.6357
2911	0.6665
2902	0.6771
2893	0.6775
2884	0.6775
2875	0.6787
2866	0.6824
2857	0.6888
2848	0.6968
2839	0.7056
2830	0.7153
2821	0.7261
2812	0.7339
2803	0.7411
2794	0.7468
2785	0.7482
2776	0.7494
2767	0.751
2758	0.7526
2749	0.7545
2740	0.7565
2731	0.7592
2722	0.7618
2713	0.7646
2704	0.7683
2695	0.7721
2686	0.7761
2677	0.7795
2668	0.7801
2659	0.7818
2650	0.7832
2641	0.7848
2632	0.7865
2623	0.7885
2614	0.7907
2605	0.7928
2596	0.7949
2587	0.7965
2578	0.7984
2569	0.8001
2560	0.8019
2551	0.8038
2542	0.8056
2533	0.8072
2524	0.8092
2515	0.8108
2506	0.8119
2497	0.8133
2488	0.8146
2479	0.8156
2470	0.8167
2461	0.8176
2452	0.818
2443	0.8175
2434	0.8174
2425	0.8176
2416	0.818
2407	0.8184
2398	0.8194
2389	0.8218
2380	0.8275
2371	0.8291
2362	0.8294
2353	0.8296
2344	0.8278
2335	0.8244
2326	0.8206
2317	0.8178
2308	0.8198
2299	0.826
2290	0.8312
2281	0.8339
2272	0.8365
2263	0.8387
2254	0.8407
2245	0.8425
2236	0.8442
2227	0.8454
2218	0.8466
2209	0.8478
2200	0.8489
2191	0.8497
2182	0.8505
2173	0.8513
2164	0.8524
2155	0.8536
2146	0.8547
2137	0.8559
2128	0.857
2119	0.8581
2110	0.8591
2101	0.8601
2092	0.8607
2083	0.8611
2074	0.862
2065	0.863
2056	0.8642
2047	0.8655
2038	0.8668
2029	0.8678
2020	0.8687
2011	0.8696
2002	0.8698
1993	0.8661
1984	0.8621
1975	0.8607
1966	0.8592
1957	0.8582
1948	0.8571
1939	0.8577
1930	0.8668
1921	0.8675
1912	0.8683
1903	0.8701
1894	0.8703
1885	0.8691
1876	0.869
1867	0.8714
1858	0.8736
1849	0.8752
1840	0.8752
1831	0.8731
1822	0.8705
1813	0.869
1804	0.8715
1795	0.8735
1786	0.8751
1777	0.8762
1768	0.8747
1759	0.8687
1750	0.8601
1741	0.8527
1732	0.8518
1723	0.8525
1714	0.8538
1705	0.8466
1696	0.8345
1687	0.8325
1678	0.8021
1669	0.7596
1660	0.6949
1651	0.5839
1642	0.127
1633	0.0435
1624	0.2284
1615	0.5446
1606	0.5631
1597	0.598
1588	0.715
1579	0.7026
1570	0.4986
1561	0.5032
1552	0.3187
1543	0.3169
1534	0.2528
1525	0.2606
1516	0.5229
1507	0.6224
1498	0.6393
1489	0.7121
1480	0.7171
1471	0.5694
1462	0.5551
1453	0.6394
1444	0.7208
1435	0.7089
1426	0.7625
1417	0.5955
1408	0.441
1399	0.7034
1390	0.7701
1381	0.728
1372	0.7541
1363	0.7642
1354	0.7239
1345	0.5982
1336	0.5592
1327	0.6204
1318	0.7298
1309	0.7807
1300	0.7947
1291	0.8025
1282	0.7991
1273	0.779
1264	0.8371
1255	0.8401
1246	0.8138
1237	0.704
1228	0.7287
1219	0.6926
1210	0.6165
1201	0.7032
1192	0.8124
1183	0.8541
1174	0.8403
1165	0.813
1156	0.8705
1147	0.8996
1138	0.8997
1129	0.9039
1120	0.8433
1111	0.847
1102	0.8947
1093	0.8994
1084	0.7774
1075	0.8101
1066	0.7696
1057	0.8975
1048	0.9125
1039	0.9089
1030	0.8494
1021	0.7748
1012	0.8957
1003	0.8901
994	0.8432
985	0.7789
976	0.8921
967	0.9206
958	0.9149
949	0.9194
940	0.898
931	0.8249
922	0.6088
913	0.7378
904	0.7205
895	0.7325
886	0.8471
877	0.8278
868	0.816
859	0.8866
850	0.8605
841	0.7808
832	0.5936
823	0.8425
814	0.8216
805	0.7815
796	0.9099
787	0.9271
778	0.9259
769	0.9101
760	0.795
751	0.633
742	0.8667
733	0.8734
724	0.8274
715	0.8734
706	0.7593
697	0.4392
688	0.7065
679	0.7019
