Infrared Spectrum: Benzimidazole
Formula: C 7 H 6 N 2
CAS: 51-17-2
State: gas
Instrument: HP-GC/MS/IRD
Origin: NIST Mass Spectrometry Data Center
1/CM	ABSORBANCE
550	5.16e-05
562	0.0001272
574	0.0003768
586	5.88e-05
598	3.36e-05
610	9.96e-05
622	5.28e-05
634	0.000288
646	0.0002484
658	0.0002316
670	9.96e-05
682	2.16e-05
694	7.92e-05
706	0.0005148
718	0.0027936
730	0.0056388
742	0.0089076
754	0.0051564
766	0.0023856
778	0.0009876
790	0.0002544
802	0.0001308
814	0.0001632
826	0.000372
838	0.0011232
850	0.0027144
862	0.0038856
874	0.0035928
886	0.0020424
898	0.0012708
910	0.0006408
922	0.00069
934	0.0012228
946	0.0018216
958	0.0016416
970	0.0009576
982	0.0005928
994	0.0008748
1006	0.0008952
1018	0.0004728
1030	0.000174
1042	0.0002208
1054	0.0007056
1066	0.0016104
1078	0.00168
1090	0.0008016
1102	0.0003216
1114	0.0001056
1126	4.32e-05
1138	0.0001248
1150	0.0001488
1162	0.0002208
1174	0.0001908
1186	0.0002208
1198	0.0002832
1210	0.0001896
1222	0.000306
1234	0.0014112
1246	0.0035352
1258	0.0057336
1270	0.00447
1282	0.0013752
1294	0.0008736
1306	0.0008736
1318	0.000768
1330	0.0011088
1342	0.0028476
1354	0.0033564
1366	0.0032364
1378	0.0043104
1390	0.0044412
1402	0.002178
1414	0.0005352
1426	0.0004776
1438	0.0019284
1450	0.0030552
1462	0.002646
1474	0.0012048
1486	0.0023616
1498	0.0032592
1510	0.0028932
1522	0.0008544
1534	0.0002028
1546	0.0001344
1558	0.0003048
1570	0.0005268
1582	0.000708
1594	0.000564
1606	0.0005904
1618	0.0007236
1630	0.0005652
1642	0.000246
1654	0.0003708
1666	0.0004884
1678	0.0008016
1690	0.0012108
1702	0.0013404
1714	0.0008472
1726	0.0003792
1738	0.00018
1750	0.0002412
1762	0.0002844
1774	0.000264
1786	0.0002172
1798	0.0002136
1810	0.0001332
1822	7.08e-05
1834	9.96e-05
1846	0.000144
1858	0.0001608
1870	0.0002364
1882	0.0002664
1894	0.0002664
1906	0.0002256
1918	0.000294
1930	0.0002592
1942	8.52e-05
1954	5.76e-05
1966	6.24e-05
1978	5.04e-05
1990	1.92e-05
2002	5.28e-05
2014	4.08e-05
2026	3.12e-05
2038	2.76e-05
2050	1.92e-05
2062	1.68e-05
2074	2.4e-06
2086	1.44e-05
2098	1.32e-05
2110	1.08e-05
2122	2.76e-05
2134	3.48e-05
2146	4.32e-05
2158	4.32e-05
2170	6e-05
2182	4.56e-05
2194	4.56e-05
2206	2.52e-05
2218	2.64e-05
2230	4.68e-05
2242	5.4e-05
2254	6.36e-05
2266	4.68e-05
2278	5.04e-05
2290	6.12e-05
2302	7.56e-05
2314	0.0001212
2326	0.000108
2338	9.12e-05
2350	7.92e-05
2362	5.28e-05
2374	7.8e-05
2386	5.88e-05
2398	7.44e-05
2410	9.12e-05
2422	0.0001392
2434	0.0001896
2446	0.00024
2458	0.0002604
2470	0.000216
2482	0.0001596
2494	0.0001476
2506	9.96e-05
2518	7.92e-05
2530	7.32e-05
2542	9.96e-05
2554	0.0001332
2566	0.0001656
2578	0.0001488
2590	0.0001296
2602	7.56e-05
2614	7.44e-05
2626	6.36e-05
2638	5.4e-05
2650	7.08e-05
2662	6e-05
2674	0.0001212
2686	0.000186
2698	0.0001692
2710	0.0001032
2722	5.76e-05
2734	6.84e-05
2746	6.36e-05
2758	8.4e-05
2770	0.00012
2782	0.0001284
2794	0.0001032
2806	9.36e-05
2818	7.68e-05
2830	7.56e-05
2842	0.0001104
2854	9e-05
2866	9.6e-05
2878	0.0001164
2890	0.0001488
2902	0.0001572
2914	0.0001524
2926	0.0001404
2938	0.0001896
2950	0.0002256
2962	0.0002364
2974	0.0002484
2986	0.000192
2998	0.0001812
3010	0.0002184
3022	0.0004728
3034	0.001062
3046	0.001782
3058	0.0028368
3070	0.0032064
3082	0.0027312
3094	0.0015552
3106	0.0010176
3118	0.0006636
3130	0.0004452
3142	0.0002064
3154	7.8e-05
3166	0.0001152
3178	9.36e-05
3190	6.48e-05
3202	4.68e-05
3214	0.0001056
3226	0.000108
3238	8.16e-05
3250	6.12e-05
3262	6.72e-05
3274	7.92e-05
3286	0.0001116
3298	9.72e-05
3310	0.000114
3322	3.48e-05
3334	8.04e-05
3346	0.0001164
3358	0.0001068
3370	3.48e-05
3382	8.04e-05
3394	6.36e-05
3406	0.0001248
3418	0.0001296
3430	0.0001692
3442	0.0002448
3454	0.0004452
3466	0.0008376
3478	0.0016308
3490	0.0028512
3502	0.0052272
3514	0.0051636
3526	0.003558
3538	0.000804
3550	0.000252
3562	0.0001464
3574	0.0001476
3586	0.000156
3598	0.0001152
3610	0.0001428
3622	8.4e-05
3634	0.0001656
3646	0.0001008
3658	6.72e-05
3670	9.12e-05
3682	9.6e-05
3694	9.36e-05
3706	8.76e-05
3718	0.0001296
3730	0.0001356
3742	0.0001092
3754	0.0001032
3766	0.0001176
3778	0.0001212
3790	0.00012
3802	0.0001464
3814	0.0001428
3826	0.0001032
3838	0.0001224
