Infrared Spectrum: 2,4-PYRIMIDINEDIONE, 5-FLUORO-
Formula: C4 H3 F N2 O2
CAS: 51-21-8
State: SOLID (KBr DISC)
Class: COBLENTZ III
Instrument: PERKIN-ELMER 21 (GRATING)
Instrument parameters: FILTER AT ABOUT 10 MICRONS
Sampling: TRANSMISSION
Resolution: 2
1/CM	TRANSMITTANCE
4000	0.7697
3991	0.771
3982	0.7722
3973	0.7736
3964	0.7749
3955	0.7758
3946	0.7769
3937	0.7782
3928	0.7792
3919	0.7803
3910	0.7814
3901	0.7825
3892	0.7836
3883	0.7847
3874	0.7858
3865	0.7868
3856	0.7881
3847	0.7892
3838	0.7904
3829	0.7915
3820	0.7926
3811	0.7938
3802	0.7949
3793	0.7961
3784	0.7971
3775	0.7985
3766	0.7997
3757	0.8008
3748	0.8021
3739	0.8035
3730	0.8047
3721	0.806
3712	0.8071
3703	0.8084
3694	0.8096
3685	0.8108
3676	0.8119
3667	0.8132
3658	0.8141
3649	0.815
3640	0.816
3631	0.8168
3622	0.8176
3613	0.818
3604	0.8184
3595	0.8187
3586	0.8191
3577	0.819
3568	0.819
3559	0.819
3550	0.8187
3541	0.818
3532	0.8172
3523	0.8165
3514	0.8151
3505	0.8139
3496	0.8124
3487	0.81
3478	0.8075
3469	0.8046
3460	0.8008
3451	0.7967
3442	0.7922
3433	0.7876
3424	0.783
3415	0.7768
3406	0.7704
3397	0.7618
3388	0.751
3379	0.738
3370	0.7244
3361	0.7119
3352	0.7025
3343	0.6814
3334	0.653
3325	0.6243
3316	0.5979
3307	0.5712
3298	0.5446
3289	0.5177
3280	0.4907
3271	0.4636
3262	0.4372
3253	0.4205
3244	0.4079
3235	0.3957
3226	0.3834
3217	0.3716
3208	0.3598
3199	0.3497
3190	0.3398
3181	0.3297
3172	0.3155
3163	0.3018
3154	0.2934
3145	0.287
3136	0.2832
3127	0.2801
3118	0.2789
3109	0.2808
3100	0.2881
3091	0.2971
3082	0.2989
3073	0.2968
3064	0.2926
3055	0.2916
3046	0.2915
3037	0.292
3028	0.2926
3019	0.2931
3010	0.2943
3001	0.297
2992	0.303
2983	0.3106
2974	0.323
2965	0.3416
2956	0.3587
2947	0.3691
2938	0.3704
2929	0.3709
2920	0.3716
2911	0.3734
2902	0.3809
2893	0.3966
2884	0.4064
2875	0.4118
2866	0.4164
2857	0.4307
2848	0.4446
2839	0.4479
2830	0.4415
2821	0.4303
2812	0.427
2803	0.4303
2794	0.4462
2785	0.4622
2776	0.4797
2767	0.4935
2758	0.5067
2749	0.5189
2740	0.5331
2731	0.5504
2722	0.5641
2713	0.5738
2704	0.5822
2695	0.5893
2686	0.5922
2677	0.5957
2668	0.5998
2659	0.6042
2650	0.6088
2641	0.6136
2632	0.619
2623	0.6245
2614	0.6306
2605	0.6374
2596	0.6444
2587	0.6512
2578	0.6581
2569	0.6651
2560	0.6739
2551	0.6826
2542	0.6922
2533	0.7005
2524	0.7071
2515	0.7128
2506	0.7175
2497	0.7211
2488	0.7237
2479	0.7255
2470	0.7272
2461	0.7294
2452	0.7325
2443	0.7365
2434	0.7385
2425	0.7393
2416	0.7398
2407	0.7365
2398	0.7337
2389	0.7337
2380	0.7375
2371	0.7471
2362	0.7524
2353	0.7542
2344	0.7551
2335	0.7554
2326	0.7567
2317	0.761
2308	0.7715
2299	0.7845
2290	0.7985
2281	0.8101
2272	0.8175
2263	0.8176
2254	0.818
2245	0.8188
2236	0.8196
2227	0.8204
2218	0.8216
2209	0.8228
2200	0.8243
2191	0.8299
2182	0.8325
2173	0.8351
2164	0.8395
2155	0.8453
2146	0.8511
2137	0.8568
2128	0.8621
2119	0.8668
2110	0.8717
2101	0.8768
2092	0.8811
2083	0.884
2074	0.8856
2065	0.8852
2056	0.8827
2047	0.8825
2038	0.8883
2029	0.8881
2020	0.8835
2011	0.8693
2002	0.8532
1993	0.838
1984	0.8306
1975	0.8374
1966	0.8525
1957	0.8664
1948	0.8667
1939	0.8574
1930	0.8432
1921	0.8181
1912	0.7818
1903	0.7535
1894	0.7344
1885	0.7272
1876	0.725
1867	0.7185
1858	0.7015
1849	0.6895
1840	0.6769
1831	0.6474
1822	0.6119
1813	0.5738
1804	0.5345
1795	0.5
1786	0.4537
1777	0.3896
1768	0.3832
1759	0.3752
1750	0.349
1741	0.2885
1732	0.2285
1723	0.1777
1714	0.2184
1705	0.2196
1696	0.1674
1687	0.1274
1678	0.0846
1669	0.065
1660	0.0604
1651	0.0682
1642	0.1086
1633	0.1495
1624	0.1813
1615	0.2193
1606	0.2563
1597	0.2879
1588	0.3184
1579	0.3432
1570	0.361
1561	0.3766
1552	0.3986
1543	0.4204
1534	0.4404
1525	0.458
1516	0.4605
1507	0.4255
1498	0.4048
1489	0.4362
1480	0.4862
1471	0.5136
1462	0.5364
1453	0.5131
1444	0.4893
1435	0.4712
1426	0.3368
1417	0.4445
1408	0.5138
1399	0.5526
1390	0.586
1381	0.6101
1372	0.631
1363	0.6485
1354	0.6465
1345	0.5425
1336	0.6346
1327	0.6658
1318	0.6876
1309	0.6936
1300	0.7097
1291	0.7387
1282	0.7308
1273	0.6898
1264	0.6371
1255	0.3216
1246	0.1498
1237	0.1713
1228	0.353
1219	0.3264
1210	0.3777
1201	0.4444
1192	0.5166
1183	0.5102
1174	0.4508
1165	0.4955
1156	0.5325
1147	0.5686
1138	0.5897
1129	0.6069
1120	0.615
1111	0.6228
1102	0.6312
1093	0.6394
1084	0.6464
1075	0.6542
1066	0.6608
1057	0.6685
1048	0.6751
1039	0.6814
1030	0.6861
1021	0.6904
1012	0.6961
1003	0.7005
994	0.5685
985	0.6133
976	0.6651
967	0.6768
958	0.6721
949	0.6136
940	0.6042
931	0.6028
922	0.6469
913	0.6496
904	0.6337
895	0.5753
886	0.5065
877	0.4739
868	0.4876
859	0.5438
850	0.6032
841	0.6465
832	0.6262
823	0.4238
814	0.283
805	0.3032
796	0.398
787	0.4924
778	0.5345
769	0.5417
760	0.5351
751	0.4228
742	0.5168
733	0.566
724	0.5739
715	0.607
706	0.6348
697	0.6619
688	0.6808
679	0.6987
