Infrared Spectrum: HYDROCINNAMIC ACID, 4-(4-HYDROXY-3-IODOPHENOXY)-3,5-DIIODO-
Formula: C15 H11 I3 O4
CAS: 51-26-3
State: SOLID (KBr DISC)
Class: COBLENTZ III
Instrument: PERKIN-ELMER 21 (GRATING)
Instrument parameters: FILTER AT ABOUT 10 MICRONS
Sampling: TRANSMISSION
Resolution: 2
1/CM	TRANSMITTANCE
4000	0.6788
3991	0.68
3982	0.6812
3973	0.6825
3964	0.6839
3955	0.6853
3946	0.6865
3937	0.6878
3928	0.6892
3919	0.6905
3910	0.6918
3901	0.6931
3892	0.6945
3883	0.6958
3874	0.6971
3865	0.6986
3856	0.7
3847	0.7012
3838	0.7026
3829	0.7041
3820	0.7055
3811	0.7068
3802	0.7083
3793	0.7097
3784	0.7111
3775	0.7125
3766	0.7142
3757	0.716
3748	0.7178
3739	0.72
3730	0.7219
3721	0.7237
3712	0.725
3703	0.726
3694	0.7268
3685	0.7274
3676	0.7278
3667	0.7281
3658	0.7284
3649	0.7285
3640	0.7283
3631	0.728
3622	0.7275
3613	0.7264
3604	0.7253
3595	0.7222
3586	0.7178
3577	0.7134
3568	0.7051
3559	0.6951
3550	0.6848
3541	0.6737
3532	0.6593
3523	0.6419
3514	0.6245
3505	0.607
3496	0.5894
3487	0.5715
3478	0.5537
3469	0.5358
3460	0.5178
3451	0.4997
3442	0.4816
3433	0.4633
3424	0.4524
3415	0.452
3406	0.4539
3397	0.4662
3388	0.4792
3379	0.4923
3370	0.5062
3361	0.5205
3352	0.5347
3343	0.5483
3334	0.562
3325	0.5716
3316	0.5797
3307	0.588
3298	0.596
3289	0.6019
3280	0.6077
3271	0.6135
3262	0.618
3253	0.6212
3244	0.6227
3235	0.6239
3226	0.6251
3217	0.6262
3208	0.6262
3199	0.6259
3190	0.6255
3181	0.625
3172	0.6237
3163	0.6223
3154	0.6209
3145	0.6186
3136	0.616
3127	0.6137
3118	0.6109
3109	0.6073
3100	0.6034
3091	0.5996
3082	0.5962
3073	0.5932
3064	0.5909
3055	0.5895
3046	0.5881
3037	0.588
3028	0.5901
3019	0.5995
3010	0.603
3001	0.6057
2992	0.6075
2983	0.6093
2974	0.611
2965	0.613
2956	0.6148
2947	0.617
2938	0.6192
2929	0.6212
2920	0.6235
2911	0.6256
2902	0.6281
2893	0.6312
2884	0.6345
2875	0.6377
2866	0.6408
2857	0.6453
2848	0.65
2839	0.6547
2830	0.6597
2821	0.6664
2812	0.6732
2803	0.6782
2794	0.6825
2785	0.6869
2776	0.69
2767	0.6924
2758	0.6939
2749	0.6949
2740	0.6958
2731	0.6968
2722	0.6989
2713	0.7012
2704	0.7043
2695	0.7081
2686	0.7096
2677	0.71
2668	0.7105
2659	0.7108
2650	0.7117
2641	0.7137
2632	0.7158
2623	0.7178
2614	0.7201
2605	0.7237
2596	0.7271
2587	0.7307
2578	0.7343
2569	0.7378
2560	0.7415
2551	0.7453
2542	0.7491
2533	0.7528
2524	0.7567
2515	0.7606
2506	0.7645
2497	0.7685
2488	0.7719
2479	0.7755
2470	0.7791
2461	0.7826
2452	0.7862
2443	0.7901
2434	0.7939
2425	0.7976
2416	0.8014
2407	0.8047
2398	0.8078
2389	0.8108
2380	0.8134
2371	0.8158
2362	0.8182
2353	0.8207
2344	0.8232
2335	0.8256
2326	0.8281
2317	0.8304
2308	0.8328
2299	0.8352
2290	0.8375
2281	0.8399
2272	0.8415
2263	0.8431
2254	0.8447
2245	0.8464
2236	0.8481
2227	0.8497
2218	0.8514
2209	0.8527
2200	0.854
2191	0.8553
2182	0.8566
2173	0.8578
2164	0.8592
2155	0.8606
2146	0.862
2137	0.8635
2128	0.8651
2119	0.8666
2110	0.868
2101	0.8693
2092	0.8706
2083	0.8718
2074	0.8732
2065	0.8746
2056	0.8759
2047	0.877
2038	0.878
2029	0.8791
2020	0.8802
2011	0.8812
2002	0.8824
1993	0.8837
1984	0.8851
1975	0.8863
1966	0.8877
1957	0.8894
1948	0.8912
1939	0.8928
1930	0.8945
1921	0.8961
1912	0.8977
1903	0.8993
1894	0.9002
1885	0.9012
1876	0.9021
1867	0.9024
1858	0.9021
1849	0.9013
1840	0.8986
1831	0.8948
1822	0.8984
1813	0.9018
1804	0.9028
1795	0.8974
1786	0.8816
1777	0.8787
1768	0.8762
1759	0.8614
1750	0.8346
1741	0.7954
1732	0.7324
1723	0.6682
1714	0.584
1705	0.4442
1696	0.201
1687	0.3049
1678	0.5773
1669	0.6711
1660	0.7185
1651	0.7489
1642	0.7721
1633	0.7911
1624	0.8046
1615	0.8111
1606	0.753
1597	0.661
1588	0.7388
1579	0.7919
1570	0.8302
1561	0.8596
1552	0.875
1543	0.8039
1534	0.7669
1525	0.8513
1516	0.8668
1507	0.6965
1498	0.4473
1489	0.6776
1480	0.6524
1471	0.7398
1462	0.7911
1453	0.6765
1444	0.2922
1435	0.3044
1426	0.4887
1417	0.3195
1408	0.4509
1399	0.6248
1390	0.7106
1381	0.7518
1372	0.7645
1363	0.7318
1354	0.6797
1345	0.6791
1336	0.5391
1327	0.5281
1318	0.6099
1309	0.6196
1300	0.6978
1291	0.7028
1282	0.596
1273	0.29
1264	0.5476
1255	0.5839
1246	0.5719
1237	0.3978
1228	0.4868
1219	0.4616
1210	0.558
1201	0.5549
1192	0.6112
1183	0.5593
1174	0.3234
1165	0.5884
1156	0.6868
1147	0.7387
1138	0.7505
1129	0.7284
1120	0.7014
1111	0.7765
1102	0.8141
1093	0.8324
1084	0.8456
1075	0.8533
1066	0.8553
1057	0.8375
1048	0.8306
1039	0.8548
1030	0.7853
1021	0.8271
1012	0.8625
1003	0.8685
994	0.8836
985	0.8932
976	0.8921
967	0.8825
958	0.8777
949	0.8735
940	0.8606
931	0.8346
922	0.7704
913	0.7422
904	0.6255
895	0.6985
886	0.7393
877	0.7041
868	0.4773
859	0.7161
850	0.7928
841	0.8365
832	0.8549
823	0.659
814	0.7593
805	0.6533
796	0.758
787	0.8489
778	0.8366
769	0.7699
760	0.8507
751	0.8975
742	0.9064
733	0.9068
724	0.9028
715	0.8713
706	0.6725
697	0.82
688	0.8281
679	0.8126
