Infrared Spectrum: 3,5-Dichlorobenzoic acid
Formula: C 7 H 4 Cl 2 O 2
CAS: 51-36-5
State: gas
Origin: EPA-IR VAPOR PHASE LIBRARY
1/CM	ABSORBANCE
501.5	0.001153
513.074	0.0011644
524.648	0.001919
536.222	0.003109
547.796	0.005059
559.37	0.006229
570.944	0.007379
582.518	0.011149
594.092	0.005969
605.666	0.003229
617.24	0.001809
628.814	0.001949
640.388	0.009189
651.962	0.019479
663.536	0.003739
675.11	0.0012476
686.684	0.0008268
698.258	0.0006327
709.832	0.0006049
721.406	0.0007867
732.98	0.0009857
744.554	0.002019
756.128	0.005019
767.702	0.009069
779.276	0.006179
790.85	0.006739
802.423	0.015599
813.997	0.012249
825.571	0.003209
837.145	0.002309
848.719	0.002559
860.293	0.003509
871.867	0.004919
883.441	0.002719
895.015	0.001499
906.589	0.001379
918.163	0.0006416
929.737	0.0004081
941.311	0.0004051
952.885	0.0004366
964.459	0.0003698
976.033	0.0004921
987.607	0.0005392
999.181	0.0005527
1010.76	0.0006286
1022.33	0.0006047
1033.9	0.0009191
1045.48	0.001319
1057.05	0.001379
1068.63	0.001949
1080.2	0.004809
1091.77	0.010829
1103.35	0.011969
1114.92	0.015519
1126.49	0.019519
1138.07	0.008459
1149.64	0.004769
1161.22	0.004649
1172.79	0.011529
1184.36	0.031869
1195.94	0.024339
1207.51	0.007379
1219.09	0.004919
1230.66	0.005089
1242.23	0.004929
1253.81	0.003729
1265.38	0.003139
1276.96	0.003469
1288.53	0.004589
1300.1	0.006299
1311.68	0.009979
1323.25	0.016759
1334.83	0.011339
1346.4	0.005079
1357.97	0.005219
1369.55	0.007269
1381.12	0.006179
1392.7	0.008009
1404.27	0.006009
1415.84	0.006089
1427.42	0.008589
1438.99	0.008079
1450.57	0.003099
1462.14	0.001319
1473.71	0.0008918
1485.29	0.0006299
1496.86	0.0005358
1508.44	0.0006716
1520.01	0.0010916
1531.58	0.001569
1543.16	0.002049
1554.73	0.005929
1566.31	0.017009
1577.88	0.013889
1589.45	0.003789
1601.03	0.001359
1612.6	0.0009968
1624.18	0.0008775
1635.75	0.0007188
1647.32	0.0007085
1658.9	0.0008385
1670.47	0.0009052
1682.05	0.0008421
1693.62	0.0009415
1705.19	0.001709
1716.77	0.003749
1728.34	0.004059
1739.92	0.004299
1751.49	0.013069
1763.06	0.052519
1774.64	0.041079
1786.21	0.006649
1797.79	0.003539
1809.36	0.004159
1820.93	0.003239
1832.51	0.0011183
1844.08	0.0006511
1855.66	0.0004847
1867.23	0.0004085
1878.8	0.0003927
1890.38	0.00041
1901.95	0.0005685
1913.53	0.0006763
1925.1	0.0005042
1936.67	0.0004497
1948.25	0.0004375
1959.82	0.0004214
1971.4	0.0004048
1982.97	0.0003921
1994.54	0.00033477
2006.12	0.00027318
2017.69	0.00025639
2029.27	0.00032027
2040.84	0.00033958
2052.41	0.00027488
2063.99	0.0002338
2075.56	0.0002352
2087.14	0.000258742
2098.71	0.00027075
2110.28	0.00028601
2121.86	0.000215
2133.43	0.0002044
2145.01	0.0002238
2156.58	0.0002262
2168.15	0.0002439
2179.73	0.0003027
2191.3	0.00031859
2202.88	0.00033228
2214.45	0.0003342
2226.02	0.00030282
2237.6	0.00025565
2249.17	0.0002184
2260.74	0.0002392
2272.32	0.0002253
2283.89	0.000259212
2295.47	0.0002259
2307.04	0.0002454
2318.61	0.0002196
2330.19	0.0002276
2341.76	0.00025264
2353.34	0.00025721
2364.91	0.00029332
2376.48	0.00032594
2388.06	0.00031053
2399.63	0.00027907
2411.21	0.00027578
2422.78	0.00027331
2434.35	0.00026983
2445.93	0.000264446
2457.5	0.0002837
2469.08	0.00027678
2480.65	0.0002295
2492.22	0.000264217
2503.8	0.0002307
2515.37	0.0001819
2526.95	0.0002335
2538.52	0.0002459
2550.09	0.0002439
2561.67	0.0002447
2573.24	0.0002311
2584.82	0.0002295
2596.39	0.0002182
2607.96	0.0002158
2619.54	0.0002289
2631.11	0.0002188
2642.69	0.0001851
2654.26	0.0002162
2665.83	0.0001967
2677.41	0.0002211
2688.98	0.000187
2700.56	0.0001887
2712.13	0.0001625
2723.7	0.000153
2735.28	0.000146
2746.85	0.0002062
2758.43	0.0002215
2770	0.0001992
2781.57	0.0002425
2793.15	0.0001819
2804.72	0.0001834
2816.3	0.000149
2827.87	0.0001805
2839.44	0.0002242
2851.02	0.000262632
2862.59	0.00034127
2874.17	0.00027875
2885.74	0.000227
2897.31	0.000208
2908.89	0.0001606
2920.46	0.000151
2932.04	0.000112
2943.61	9.8e-05
2955.18	0.0001
2966.76	0.000108
2978.33	0.000128
2989.91	0.0001689
3001.48	0.000259225
3013.05	0.0002117
3024.63	0.0002214
3036.2	0.0001807
3047.78	0.0002019
3059.35	0.0002245
3070.92	0.00028305
3082.5	0.0007715
3094.07	0.0009828
3105.65	0.0003626
3117.22	0.000141
3128.79	0.0001949
3140.37	0.0002446
3151.94	0.0001785
3163.52	0.000144
3175.09	0.000153
3186.66	0.00013
3198.24	0.000104
3209.81	7.7e-05
3221.39	0.000101
3232.96	9.8e-05
3244.53	0.000104
3256.11	0.000136
3267.68	7.6e-05
3279.26	0.000112
3290.83	0.000101
3302.4	7.6e-05
3313.98	0.000129
3325.55	7.5e-05
3337.13	0.000124
3348.7	0.000113
3360.27	0.000122
3371.85	0.000155
3383.42	0.000121
3395	8.4e-05
3406.57	0.000123
3418.14	0.0001707
3429.72	0.0001957
3441.29	0.0001607
3452.86	0.000146
3464.44	0.0002178
3476.01	0.00026984
3487.59	0.0001955
3499.16	0.00027324
3510.73	0.0005646
3522.31	0.0006623
3533.88	0.0005825
3545.46	0.0006423
3557.03	0.0010124
3568.6	0.005809
3580.18	0.021229
3591.75	0.010659
3603.33	0.0011558
3614.9	0.0003632
3626.47	0.00031557
3638.05	0.0002134
3649.62	0.0001675
3661.2	0.000134
3672.77	0.0002207
3684.34	0.0002069
3695.92	0.000158
3707.49	0.000146
3719.07	0.000118
3730.64	0.0001818
3742.21	0.000118
3753.79	0.000108
3765.36	0.000116
3776.94	0.000114
3788.51	0.000137
3800.08	0.0001807
3811.66	4.6e-05
3823.23	9.1e-05
3834.81	0.000104
3846.38	9.9e-05
3857.95	3.3e-05
3869.53	0.000116
3881.1	0.000102
3892.68	4.1e-05
3904.25	8e-05
3915.82	7.5e-05
3927.4	7.8e-05
3938.97	0.0001781
3950.55	0.000119
3962.12	0.000133
3973.69	4.3e-05
3985.27	7.6e-05
3996.84	0.000131
