Infrared Spectrum: HISTAMINE
Formula: C5 H9 N3
CAS: 51-45-6
State: SOLID (MINERAL OIL MULL)
Melting point: 83-84 C
Class: COBLENTZ
Instrument: Not specified, most likely a prism, grating, or hybrid spectrometer.
Sampling: TRANSMISSION
Resolution: 4
Origin: WYANDOTTE CHEMICALS CORP., WYANDOTTE, MICHIGAN, USA
MICROMETERS	TRANSMITTANCE
2.012	0.857
2.04915	0.855
2.0863	0.858
2.12346	0.862
2.16061	0.857
2.19776	0.826
2.23491	0.759
2.27207	0.728
2.30922	0.724
2.34637	0.725
2.38352	0.73
2.42067	0.747
2.45783	0.77
2.49498	0.793
2.53213	0.8
2.56928	0.82
2.60643	0.835
2.64359	0.855
2.68074	0.885
2.71789	0.9
2.75504	0.908
2.7922	0.906
2.82935	0.893
2.8665	0.866
2.90365	0.826
2.9408	0.795
2.97796	0.765
3.01511	0.717
3.05226	0.648
3.08941	0.596
3.12656	0.471
3.16372	0.355
3.20087	0.358
3.23802	0.351
3.27517	0.319
3.31233	0.237
3.34948	0.127
3.38663	0.066
3.42378	0.04
3.46093	0.037
3.49809	0.035
3.53524	0.037
3.57239	0.082
3.60954	0.195
3.64669	0.291
3.68385	0.308
3.721	0.305
3.75815	0.313
3.7953	0.306
3.83246	0.303
3.86961	0.305
3.90676	0.311
3.94391	0.333
3.98106	0.355
4.01822	0.384
4.05537	0.409
4.09252	0.426
4.12967	0.449
4.16682	0.463
4.20398	0.466
4.24113	0.493
4.27828	0.486
4.31543	0.488
4.35259	0.522
4.38974	0.579
4.42689	0.634
4.46404	0.655
4.50119	0.679
4.53835	0.705
4.5755	0.72
4.61265	0.731
4.6498	0.758
4.68695	0.761
4.72411	0.773
4.76126	0.782
4.79841	0.793
4.83556	0.795
4.87272	0.8
4.90987	0.801
4.94702	0.793
4.98417	0.779
5.02132	0.787
5.05848	0.798
5.09563	0.792
5.13278	0.776
5.16993	0.781
5.20708	0.776
5.24424	0.786
5.28139	0.787
5.31854	0.787
5.35569	0.786
5.39285	0.784
5.43	0.815
5.46715	0.824
5.5043	0.817
5.54145	0.829
5.57861	0.858
5.61576	0.866
5.65291	0.883
5.69006	0.919
5.72721	0.917
5.76437	0.928
5.80152	0.97
5.83867	0.989
5.87582	0.968
5.91298	0.953
5.95013	0.944
5.98728	0.925
6.02443	0.871
6.06158	0.924
6.09874	0.939
6.13589	0.855
6.17304	0.764
6.21019	0.603
6.24734	0.649
6.2845	0.693
6.32165	0.71
6.3588	0.705
6.39595	0.745
6.43311	0.789
6.47026	0.809
6.50741	0.849
6.54456	0.826
6.58171	0.733
6.61887	0.652
6.65602	0.534
6.69317	0.434
6.73032	0.244
6.76748	0.116
6.80463	0.041
6.84178	0.037
6.87893	0.043
6.91608	0.052
6.95324	0.15
6.99039	0.381
7.02754	0.589
7.06469	0.716
7.10184	0.75
7.139	0.745
7.17615	0.572
7.2133	0.224
7.25045	0.066
7.28761	0.072
7.32476	0.136
7.36191	0.294
7.39906	0.438
7.43621	0.454
7.47337	0.435
7.51052	0.587
7.54767	0.654
7.58482	0.672
7.62197	0.689
7.65913	0.711
7.69628	0.621
7.73343	0.39
7.77058	0.505
7.80774	0.66
7.84489	0.767
7.88204	0.742
7.91919	0.674
7.95634	0.778
7.9935	0.812
8.03065	0.835
8.0678	0.823
8.10495	0.629
8.1421	0.786
8.17926	0.868
8.21641	0.773
8.25356	0.652
8.29071	0.649
8.32787	0.756
8.36502	0.879
8.40217	0.958
8.43932	1.018
8.47647	0.998
8.51363	0.826
8.55078	0.649
8.58793	0.686
8.62508	0.689
8.66223	0.648
8.69939	0.581
8.73654	0.505
8.77369	0.52
8.81084	0.691
8.848	0.807
8.88515	0.868
8.9223	0.9
8.95945	0.93
8.9966	0.941
9.03376	0.889
9.07091	0.787
9.10806	0.66
9.14521	0.607
9.18236	0.641
9.21952	0.72
9.25667	0.731
9.29382	0.823
9.33097	0.889
9.36813	0.868
9.40528	0.706
9.44243	0.475
9.47958	0.386
9.51673	0.494
9.55389	0.624
9.59104	0.658
9.62819	0.617
9.66534	0.6
9.70249	0.582
9.73965	0.596
9.7768	0.592
9.81395	0.607
9.8511	0.62
9.88826	0.649
9.92541	0.669
9.96256	0.705
9.99971	0.727
10.0369	0.682
10.074	0.658
10.1112	0.691
10.1483	0.713
10.1855	0.722
10.2226	0.713
10.2598	0.668
10.2969	0.637
10.3341	0.62
10.3712	0.631
10.4084	0.652
10.4455	0.671
10.4827	0.669
10.5198	0.623
10.557	0.643
10.5941	0.629
10.6313	0.553
10.6685	0.413
10.7056	0.265
10.7428	0.207
10.7799	0.196
10.8171	0.229
10.8542	0.296
10.8914	0.368
10.9285	0.429
10.9657	0.502
11.0028	0.565
11.04	0.629
11.0771	0.669
11.1143	0.688
11.1514	0.663
11.1886	0.61
11.2257	0.548
11.2629	0.541
11.3	0.589
11.3372	0.668
11.3743	0.75
11.4115	0.826
11.4486	0.866
11.4858	0.908
11.523	0.846
11.5601	0.644
11.5973	0.556
11.6344	0.596
11.6716	0.658
11.7087	0.72
11.7459	0.778
11.783	0.818
11.8202	0.858
11.8573	0.899
11.8945	0.927
11.9316	0.961
11.9688	0.986
12.0059	0.995
12.0431	0.922
12.0802	0.779
12.1174	0.827
12.1545	0.821
12.1917	0.7
12.2288	0.444
12.266	0.305
12.3031	0.293
12.3403	0.241
12.3774	0.21
12.4146	0.325
12.4518	0.426
12.4889	0.502
12.5261	0.567
12.5632	0.606
12.6004	0.646
12.6375	0.688
12.6747	0.703
12.7118	0.739
12.749	0.758
12.7861	0.776
12.8233	0.79
12.8604	0.795
12.8976	0.798
12.9347	0.795
12.9719	0.792
13.009	0.796
13.0462	0.801
13.0833	0.809
13.1205	0.815
13.1576	0.829
13.1948	0.843
13.2319	0.848
13.2691	0.852
13.3063	0.855
13.3434	0.855
13.3806	0.849
13.4177	0.841
13.4549	0.82
13.492	0.784
13.5292	0.75
13.5663	0.734
13.6035	0.702
13.6406	0.644
13.6778	0.593
13.7149	0.606
13.7521	0.637
13.7892	0.662
13.8264	0.654
13.8635	0.641
13.9007	0.644
13.9378	0.68
13.975	0.741
14.0121	0.827
14.0493	0.879
14.0864	0.933
14.1236	0.979
14.1608	1.004
14.1979	1
14.2351	0.998
14.2722	0.982
14.3094	0.987
14.3465	0.972
14.3837	0.962
14.4208	0.916
14.458	0.865
14.4951	0.832
14.5323	0.834
14.5694	0.863
14.6066	0.891
14.6437	0.897
14.6809	0.914
14.718	0.919
14.7552	0.917
14.7923	0.917
14.8295	0.919
14.8666	0.919
14.9038	0.914
14.9409	0.9
14.9781	0.882
15.0153	0.818
15.0524	0.741
15.0896	0.627
15.1267	0.582
15.1639	0.617
15.201	0.657
15.2382	0.688
15.2753	0.717
15.3125	0.733
15.3496	0.734
15.3868	0.739
15.4239	0.736
15.4611	0.733
15.4982	0.734
15.5354	0.724
15.5725	0.722
15.6097	0.716
15.6468	0.71
15.684	0.691
15.7211	0.669
15.7583	0.627
15.7954	0.57
15.8326	0.497
15.8698	0.454
15.9069	0.435
15.9441	0.437
15.9812	0.454
