Infrared Spectrum: d-Deoxyephedrine hydrochloride
Formula: C10 H16 Cl N
CAS: 51-57-0
State: SOLID (NUJOL MULL) VS NUJOL
Melting point: 170-175 C
Class: COBLENTZ III
Instrument: PERKIN-ELMER 21 (GRATING)
Resolution: 2
Origin: THE SQUIBB INSTITUTE FOR MEDICAL RESEARCH
1/CM	TRANSMITTANCE
659	1.0116
668	0.9959
677	0.9353
686	0.9079
695	0.4708
704	0.4588
713	0.9063
722	0.9882
731	0.9623
740	0.768
749	0.256
758	0.7379
767	0.9592
776	0.987
785	1.0032
794	0.9929
803	0.9927
812	0.987
821	1.0312
830	0.9905
839	0.9806
848	1.0246
857	1.0469
866	1.0435
875	1.0231
884	0.8386
893	0.8701
902	0.9812
911	0.7335
920	0.6957
929	0.8603
938	0.959
947	0.9565
956	0.9536
965	0.896
974	0.9049
983	0.847
992	0.8894
1001	0.8487
1010	0.7629
1019	0.4014
1028	0.4834
1037	0.6637
1046	0.3149
1055	0.3599
1064	0.4972
1073	0.56
1082	0.3748
1091	0.7024
1100	0.42
1109	0.5316
1118	0.831
1127	0.8567
1136	0.8523
1145	0.8374
1154	0.7286
1163	0.5062
1172	0.7864
1181	0.6049
1190	0.3735
1199	0.8158
1208	0.8336
1217	0.8993
1226	0.8845
1235	0.8824
1244	0.8814
1253	0.8798
1262	0.8718
1271	0.8673
1280	0.8637
1289	0.8254
1298	0.7696
1307	0.5886
1316	0.7626
1325	0.7587
1334	0.6978
1343	0.608
1352	0.3146
1361	0.6423
1370	0.5746
1379	0.382
1388	0.3798
1397	0.523
1406	0.5016
1415	0.5497
1424	0.4704
1433	0.3719
1442	0.4614
1451	0.4823
1460	0.4783
1469	0.3611
1478	0.2729
1487	0.2477
1496	0.4025
1505	0.6858
1514	0.7147
1523	0.7329
1532	0.731
1541	0.7239
1550	0.7673
1559	0.771
1568	0.7621
1577	0.7204
1586	0.6375
1595	0.4883
1604	0.3037
1613	0.6
1622	0.7392
1631	0.7392
1640	0.7264
1649	0.7122
1658	0.7159
1667	0.7328
1676	0.7727
1685	0.7809
1694	0.7903
1703	0.7917
1712	0.773
1721	0.7476
1730	0.7602
1739	0.7779
1748	0.7801
1757	0.7778
1766	0.7907
1775	0.7906
1784	0.7908
1793	0.8266
1802	0.77
1811	0.72
1820	0.7696
1829	0.8183
1838	0.8372
1847	0.833
1856	0.8251
1865	0.805
1874	0.741
1883	0.766
1892	0.8335
1901	0.8469
1910	0.895
1919	0.9128
1928	0.9116
1937	0.8765
1946	0.7206
1955	0.8028
1964	0.8281
1973	0.9134
1982	0.9154
1991	0.9125
2000	0.8994
2009	0.8786
2018	0.8596
2027	0.8456
2036	0.7877
2045	0.6861
2054	0.6612
2063	0.7675
2072	0.8121
2081	0.851
2090	0.8834
2099	0.8881
2108	0.8887
2117	0.8917
2126	0.896
2135	0.8998
2144	0.8943
2153	0.8884
2162	0.8842
2171	0.8769
2180	0.87
2189	0.8667
2198	0.8612
2207	0.8514
2216	0.8454
2225	0.8421
2234	0.8389
2243	0.8338
2252	0.8226
2261	0.8084
2270	0.8001
2279	0.7879
2288	0.7646
2297	0.7316
2306	0.701
2315	0.6713
2324	0.6388
2333	0.614
2342	0.5968
2351	0.5825
2360	0.5737
2369	0.5642
2378	0.5158
2387	0.4431
2396	0.371
2405	0.2911
2414	0.2507
2423	0.2384
2432	0.2382
2441	0.2402
2450	0.2521
2459	0.2729
2468	0.294
2477	0.3123
2486	0.3157
2495	0.3162
2504	0.3214
2513	0.3245
2522	0.3225
2531	0.3156
2540	0.3092
2549	0.3068
2558	0.3037
2567	0.2932
2576	0.2798
2585	0.2668
2594	0.2545
2603	0.2428
2612	0.234
2621	0.2266
2630	0.2233
2639	0.2241
2648	0.2255
2657	0.2271
2666	0.2286
2675	0.2301
2684	0.2315
2693	0.2329
2702	0.2345
2711	0.2361
2720	0.2378
2729	0.2396
2738	0.2414
2747	0.2433
2756	0.247
2765	0.2525
2774	0.26
2783	0.3091
2792	0.4008
2801	0.4918
2810	0.5823
2819	0.6716
2828	0.6977
2837	0.6978
2846	0.6883
2855	0.668
2864	0.6363
2873	0.6133
2882	0.5903
2891	0.5483
2900	0.5066
2909	0.4651
2918	0.4239
2927	0.383
2936	0.3423
2945	0.302
2954	0.2807
2963	0.275
2972	0.2732
2981	0.2738
2990	0.2764
2999	0.2909
3008	0.3036
3017	0.3303
3026	0.3617
3035	0.3859
3044	0.4049
3053	0.4188
3062	0.4313
3071	0.4391
3080	0.447
3089	0.4545
3098	0.4594
3107	0.4643
3116	0.4684
3125	0.471
3134	0.473
3143	0.475
3152	0.4772
3161	0.4808
3170	0.5205
3179	0.5774
3188	0.5947
3197	0.6113
3206	0.6263
3215	0.638
3224	0.6453
3233	0.6528
3242	0.659
3251	0.6628
3260	0.6668
3269	0.6716
3278	0.6776
3287	0.6874
3296	0.6962
3305	0.6991
3314	0.7006
3323	0.7018
3332	0.7025
3341	0.7032
3350	0.7038
3359	0.7045
3368	0.7057
3377	0.7068
3386	0.7079
3395	0.7094
3404	0.7109
3413	0.7125
3422	0.7143
3431	0.7176
3440	0.7206
3449	0.7227
3458	0.7247
3467	0.7263
3476	0.7274
3485	0.7285
3494	0.7295
3503	0.7302
3512	0.7309
3521	0.7314
3530	0.7319
3539	0.7319
3548	0.7318
3557	0.7314
3566	0.7311
3575	0.7306
3584	0.7306
3593	0.7308
3602	0.7309
3611	0.731
3620	0.7312
3629	0.7311
3638	0.731
3647	0.7305
3656	0.7295
3665	0.7286
3674	0.7276
3683	0.7266
3692	0.7257
3701	0.7246
3710	0.7231
3719	0.7217
3728	0.7202
3737	0.7186
3746	0.7176
3755	0.7175
3764	0.7174
3773	0.7173
3782	0.7173
3791	0.7173
3800	0.7171
3809	0.7162
3818	0.715
3827	0.7138
3836	0.7124
3845	0.7107
3854	0.7089
3863	0.7071
3872	0.7054
3881	0.7037
3890	0.7017
3899	0.6992
3908	0.6966
3917	0.6941
3926	0.6916
3935	0.6895
3944	0.6875
3953	0.6854
3962	0.6833
3971	0.6813
3980	0.6796
3989	0.6779
3998	0.6762
