Infrared Spectrum: ATROPINE
Formula: C17 H23 N O3
CAS: 51-55-8
State: SOLUTION 1.3% (CS2 FOR 2-15 microns, AND C2Cl4 FOR 5.5-8.7 microns)
Melting point: 114-116 C
Class: COBLENTZ III
Instrument: PERKIN-ELMER 21 (GRATING)
Instrument parameters: FILTER AT ABOUT 10 MICRONS
Sampling: TRANSMISSION
Path length: 0.1 CM
Resolution: 2
1/CM	TRANSMITTANCE
4000	0.9603
3991	0.9603
3982	0.9603
3973	0.9603
3964	0.9603
3955	0.9603
3946	0.9603
3937	0.9602
3928	0.9602
3919	0.9602
3910	0.9601
3901	0.9601
3892	0.9601
3883	0.9601
3874	0.9601
3865	0.9601
3856	0.9601
3847	0.9602
3838	0.96
3829	0.9596
3820	0.9593
3811	0.9589
3802	0.9585
3793	0.9578
3784	0.9573
3775	0.9568
3766	0.9567
3757	0.9568
3748	0.957
3739	0.9571
3730	0.9571
3721	0.9573
3712	0.9574
3703	0.9575
3694	0.9575
3685	0.9575
3676	0.9575
3667	0.9568
3658	0.9556
3649	0.9531
3640	0.9452
3631	0.931
3622	0.9162
3613	0.9013
3604	0.8864
3595	0.8796
3586	0.8789
3577	0.8791
3568	0.8825
3559	0.891
3550	0.9012
3541	0.9112
3532	0.9192
3523	0.9246
3514	0.928
3505	0.9303
3496	0.9325
3487	0.9348
3478	0.9368
3469	0.9388
3460	0.9398
3451	0.9409
3442	0.9418
3433	0.9432
3424	0.9451
3415	0.9473
3406	0.9502
3397	0.9525
3388	0.9538
3379	0.9544
3370	0.9543
3361	0.9541
3352	0.9533
3343	0.9525
3334	0.9518
3325	0.9509
3316	0.9501
3307	0.9492
3298	0.9482
3289	0.9474
3280	0.9466
3271	0.9456
3262	0.9446
3253	0.9436
3244	0.9434
3235	0.9441
3226	0.9437
3217	0.9421
3208	0.941
3199	0.9403
3190	0.9398
3181	0.9393
3172	0.9388
3163	0.9382
3154	0.9375
3145	0.9362
3136	0.9328
3127	0.9287
3118	0.9239
3109	0.9177
3100	0.9118
3091	0.908
3082	0.9071
3073	0.9064
3064	0.8959
3055	0.8837
3046	0.8841
3037	0.8906
3028	0.8957
3019	0.8899
3010	0.816
3001	0.7415
2992	0.6665
2983	0.5912
2974	0.5153
2965	0.4633
2956	0.464
2947	0.5156
2938	0.6074
2929	0.6997
2920	0.7678
2911	0.7678
2902	0.7625
2893	0.7621
2884	0.7826
2875	0.8082
2866	0.8136
2857	0.83
2848	0.8547
2839	0.879
2830	0.8848
2821	0.8814
2812	0.8762
2803	0.8763
2794	0.8883
2785	0.9048
2776	0.9153
2767	0.9232
2758	0.9283
2749	0.9328
2740	0.9355
2731	0.9375
2722	0.9389
2713	0.9401
2704	0.941
2695	0.942
2686	0.9447
2677	0.9482
2668	0.9496
2659	0.95
2650	0.9503
2641	0.951
2632	0.9524
2623	0.9541
2614	0.9549
2605	0.9531
2596	0.9524
2587	0.952
2578	0.952
2569	0.9521
2560	0.9531
2551	0.9545
2542	0.9557
2533	0.9564
2524	0.9567
2515	0.9566
2506	0.9551
2497	0.9532
2488	0.9521
2479	0.9537
2470	0.9543
2461	0.9521
2452	0.951
2443	0.9514
2434	0.9528
2425	0.9542
2416	0.955
2407	0.9555
2398	0.9551
2389	0.9548
2380	0.9543
2371	0.9538
2362	0.9528
2353	0.952
2344	0.9517
2335	0.9516
2326	0.9514
2317	0.9513
2308	0.9495
2299	0.9451
2290	0.9464
2281	0.9532
2272	0.9583
2263	0.9604
2254	0.9605
2245	0.9595
2236	0.9561
2227	0.9527
2218	0.9481
2209	0.9453
2200	0.9461
2191	0.9468
2182	0.9474
2173	0.9483
2164	0.9493
2155	0.95
2146	0.9495
2137	0.945
2128	0.938
2119	0.939
2110	0.9505
2101	0.9568
2092	0.9605
2083	0.9621
2074	0.9618
2065	0.9585
2056	0.955
2047	0.9557
2038	0.9636
2029	0.9656
2020	0.9655
2011	0.9648
2002	0.9643
1993	0.9635
1984	0.9621
1975	0.9598
1966	0.9575
1957	0.9554
1948	0.9584
1939	0.9617
1930	0.9628
1921	0.9635
1912	0.9634
1903	0.9614
1894	0.9568
1885	0.9541
1876	0.9552
1867	0.9636
1858	0.9656
1849	0.9652
1840	0.964
1831	0.9605
1822	0.9558
1813	0.9506
1804	0.9509
1795	0.9516
1786	0.9482
1777	0.9384
1768	0.9249
1759	0.8617
1750	0.5947
1741	0.3914
1732	0.3492
1723	0.4589
1714	0.7775
1705	0.9082
1696	0.9265
1687	0.9417
1678	0.9501
1669	0.9587
1660	0.9628
1651	0.965
1642	0.967
1633	0.9675
1624	0.9665
1615	0.9427
1606	0.9455
1597	0.9587
1588	0.9641
1579	0.9692
1570	0.9735
1561	0.9732
1552	0.9728
1543	0.9745
1534	0.9775
1525	0.9737
1516	0.9628
1507	0.8893
1498	0.9075
1489	0.9356
1480	0.8878
1471	0.8766
1462	0.8118
1453	0.8491
1444	0.9173
1435	0.8943
1426	0.8759
1417	0.9055
1408	0.8983
1399	0.8595
1390	0.7896
1381	0.7826
1372	0.8005
1363	0.763
1354	0.7665
1345	0.7194
1336	0.7426
1327	0.7306
1318	0.7306
1309	0.77
1300	0.7961
1291	0.794
1282	0.8208
1273	0.7834
1264	0.7618
1255	0.7432
1246	0.6436
1237	0.4643
1228	0.5221
1219	0.5351
1210	0.7126
1201	0.7078
1192	0.6751
1183	0.5798
1174	0.4647
1165	0.5621
1156	0.5447
1147	0.7881
1138	0.7901
1129	0.8115
1120	0.7845
1111	0.8564
1102	0.8746
1093	0.8493
1084	0.8095
1075	0.7415
1066	0.5523
1057	0.7526
1048	0.6417
1039	0.2671
1030	0.5906
1021	0.7907
1012	0.8108
1003	0.8181
994	0.8864
985	0.8436
976	0.8558
967	0.8956
958	0.9268
949	0.9303
940	0.9267
931	0.8682
922	0.8778
913	0.9337
904	0.9918
895	0.9596
886	0.9446
877	0.9303
868	0.9274
859	0.9344
850	0.9441
841	0.9297
832	0.9468
823	0.9362
814	0.9095
805	0.8618
796	0.9263
787	0.9399
778	0.8915
769	0.8778
760	0.8216
751	0.8946
742	0.8093
733	0.7991
724	0.8957
715	0.9227
706	0.8927
697	0.4936
688	0.9
679	0.9402
670	0.9543
