Infrared Spectrum: 5-ACETYLAMINO-SALICYLIC ACID
Formula: C9 H9 N O4
CAS: 51-59-2
State: SOLID (NUJOL MULL)
Class: COBLENTZ
Instrument: Not specified, most likely a prism, grating, or hybrid spectrometer.
Sampling: TRANSMISSION
Resolution: 4
MICROMETERS	TRANSMITTANCE
2.045	0.638
2.08235	0.644
2.11971	0.653
2.15706	0.66
2.19442	0.666
2.23177	0.671
2.26913	0.675
2.30648	0.68
2.34384	0.68
2.38119	0.688
2.41855	0.7
2.4559	0.71
2.49326	0.711
2.53061	0.717
2.56797	0.735
2.60532	0.744
2.64268	0.748
2.68003	0.757
2.71739	0.757
2.75474	0.752
2.7921	0.75
2.82945	0.744
2.86681	0.737
2.90416	0.717
2.94152	0.642
2.97887	0.508
3.01623	0.355
3.05358	0.28
3.09094	0.392
3.12829	0.429
3.16565	0.423
3.203	0.401
3.24036	0.398
3.27771	0.431
3.31507	0.453
3.35242	0.24
3.38978	0.1
3.42713	0.08
3.46449	0.168
3.50184	0.218
3.53919	0.5
3.57655	0.583
3.6139	0.607
3.65126	0.623
3.68861	0.629
3.72597	0.633
3.76332	0.638
3.80068	0.64
3.83803	0.642
3.87539	0.644
3.91274	0.645
3.9501	0.647
3.98745	0.649
4.02481	0.649
4.06216	0.651
4.09952	0.658
4.13687	0.666
4.17423	0.669
4.21158	0.675
4.24894	0.68
4.28629	0.684
4.32365	0.689
4.361	0.706
4.39836	0.719
4.43571	0.728
4.47307	0.735
4.51042	0.743
4.54778	0.748
4.58513	0.754
4.62249	0.752
4.65984	0.766
4.6972	0.768
4.73455	0.774
4.77191	0.774
4.80926	0.774
4.84662	0.77
4.88397	0.766
4.92133	0.761
4.95868	0.755
4.99604	0.746
5.03339	0.739
5.07074	0.724
5.1081	0.711
5.14545	0.699
5.18281	0.68
5.22016	0.669
5.25752	0.664
5.29487	0.667
5.33223	0.664
5.36958	0.669
5.40694	0.675
5.44429	0.682
5.48165	0.691
5.519	0.7
5.55636	0.702
5.59371	0.699
5.63107	0.708
5.66842	0.717
5.70578	0.721
5.74313	0.717
5.78049	0.682
5.81784	0.633
5.8552	0.552
5.89255	0.363
5.92991	0.188
5.96726	0.137
6.00462	0.159
6.04197	0.157
6.07933	0.214
6.11668	0.28
6.15404	0.319
6.19139	0.376
6.22875	0.365
6.2661	0.388
6.30346	0.423
6.34081	0.418
6.37817	0.284
6.41552	0.168
6.45288	0.093
6.49023	0.144
6.52758	0.253
6.56494	0.33
6.60229	0.423
6.63965	0.354
6.677	0.256
6.71436	0.211
6.75171	0.299
6.78907	0.317
6.82642	0.223
6.86378	0.185
6.90113	0.154
6.93849	0.192
6.97584	0.293
7.0132	0.387
7.05055	0.438
7.08791	0.488
7.12526	0.502
7.16262	0.484
7.19997	0.478
7.23733	0.398
7.27468	0.288
7.31204	0.319
7.34939	0.425
7.38675	0.537
7.4241	0.568
7.46146	0.574
7.49881	0.559
7.53617	0.499
7.57352	0.4
7.61088	0.359
7.64823	0.266
7.68559	0.306
7.72294	0.401
7.7603	0.405
7.79765	0.291
7.83501	0.172
7.87236	0.166
7.90972	0.244
7.94707	0.297
7.98443	0.354
8.02178	0.387
8.05913	0.42
8.09649	0.455
8.13384	0.462
8.1712	0.42
8.20855	0.344
8.24591	0.262
8.28326	0.157
8.32062	0.115
8.35797	0.099
8.39533	0.159
8.43268	0.273
8.47004	0.348
8.50739	0.405
8.54475	0.442
8.5821	0.473
8.61946	0.508
8.65681	0.522
8.69417	0.543
8.73152	0.528
8.76888	0.499
8.80623	0.533
8.84359	0.557
8.88094	0.592
8.9183	0.607
8.95565	0.625
8.99301	0.64
9.03036	0.649
9.06772	0.655
9.10507	0.671
9.14243	0.669
9.17978	0.658
9.21714	0.629
9.25449	0.622
9.29185	0.651
9.3292	0.673
9.36656	0.682
9.40391	0.689
9.44127	0.686
9.47862	0.693
9.51597	0.686
9.55333	0.666
9.59068	0.633
9.62804	0.587
9.66539	0.622
9.70275	0.642
9.7401	0.585
9.77746	0.504
9.81481	0.585
9.85217	0.622
9.88952	0.66
9.92688	0.68
9.96423	0.693
10.0016	0.702
10.0389	0.708
10.0763	0.693
10.1137	0.629
10.151	0.655
10.1884	0.684
10.2257	0.704
10.2631	0.706
10.3004	0.686
10.3378	0.715
10.3751	0.748
10.4125	0.755
10.4498	0.755
10.4872	0.752
10.5246	0.752
10.5619	0.754
10.5993	0.754
10.6366	0.768
10.674	0.776
10.7113	0.777
10.7487	0.783
10.786	0.788
10.8234	0.779
10.8608	0.77
10.8981	0.77
10.9355	0.768
10.9728	0.779
11.0102	0.781
11.0475	0.772
11.0849	0.763
11.1222	0.695
11.1596	0.673
11.1969	0.71
11.2343	0.699
11.2717	0.748
11.309	0.744
11.3464	0.733
11.3837	0.724
11.4211	0.717
11.4584	0.7
11.4958	0.689
11.5331	0.673
11.5705	0.66
11.6078	0.649
11.6452	0.634
11.6826	0.625
11.7199	0.623
11.7573	0.622
11.7946	0.607
11.832	0.581
11.8693	0.535
11.9067	0.499
11.944	0.594
11.9814	0.592
12.0188	0.493
12.0561	0.611
12.0935	0.695
12.1308	0.721
12.1682	0.699
12.2055	0.658
12.2429	0.677
12.2802	0.711
12.3176	0.733
12.3549	0.726
12.3923	0.699
12.4297	0.691
12.467	0.708
12.5044	0.706
12.5417	0.689
12.5791	0.658
12.6164	0.548
12.6538	0.519
12.6911	0.532
12.7285	0.642
12.7658	0.689
12.8032	0.656
12.8406	0.622
12.8779	0.614
12.9153	0.627
12.9526	0.649
12.99	0.651
13.0273	0.651
13.0647	0.653
13.102	0.675
13.1394	0.689
13.1768	0.7
13.2141	0.691
13.2515	0.682
13.2888	0.667
13.3262	0.647
13.3635	0.614
13.4009	0.596
13.4382	0.566
13.4756	0.535
13.5129	0.504
13.5503	0.482
13.5877	0.46
13.625	0.451
13.6624	0.447
13.6997	0.456
13.7371	0.462
13.7744	0.478
13.8118	0.495
13.8491	0.502
13.8865	0.519
13.9239	0.526
13.9612	0.541
13.9986	0.55
14.0359	0.557
14.0733	0.563
14.1106	0.577
14.148	0.581
14.1853	0.572
14.2227	0.552
14.26	0.537
14.2974	0.55
14.3348	0.565
14.3721	0.581
14.4095	0.598
14.4468	0.614
14.4842	0.618
14.5215	0.612
14.5589	0.618
14.5962	0.605
14.6336	0.588
14.6709	0.57
14.7083	0.535
14.7457	0.48
14.783	0.451
14.8204	0.456
14.8577	0.519
14.8951	0.544
14.9324	0.566
14.9698	0.588
15.0071	0.598
15.0445	0.596
15.0819	0.598
15.1192	0.598
15.1566	0.592
15.1939	0.59
15.2313	0.59
15.2686	0.587
15.306	0.585
15.3433	0.572
15.3807	0.557
15.418	0.532
15.4554	0.502
