Infrared Spectrum: p-ACETANISIDIDE
Formula: C9 H11 N O2
CAS: 51-66-1
State: SOLID (NUJOL MULL)
Class: COBLENTZ III
Instrument: DOW KBr FOREPRISM-GRATING
Instrument parameters: BLAZED AT 3.5, 12.0, 20.0 MICRON AND CHANGED AT 5.0, 7.5, 14.9 MICRON
Sampling: TRANSMISSION
Resolution: 2
Origin: DOW CHEMICAL COMPANY
1/CM	TRANSMITTANCE
441	0.8562
450	0.8531
459	0.8504
468	0.9021
477	0.9051
486	0.9061
495	0.9041
504	0.8898
513	0.7955
522	0.6676
531	0.6125
540	0.8737
549	0.9311
558	0.9446
567	0.9454
576	0.9451
585	0.941
594	0.9201
603	0.729
612	0.8475
621	0.9091
630	0.9273
639	0.9075
648	0.7441
657	0.9245
666	0.9132
675	0.8868
684	0.8852
693	0.8832
702	0.8721
711	0.7908
720	0.8305
729	0.8263
738	0.8058
747	0.7728
756	0.7174
765	0.4421
774	0.4939
783	0.648
792	0.8017
801	0.8143
810	0.4939
819	0.2459
828	0.4412
837	0.2131
846	0.7014
855	0.6698
864	0.8151
873	0.8366
882	0.8366
891	0.8364
900	0.8378
909	0.8356
918	0.8313
927	0.7771
936	0.8381
945	0.8266
954	0.7878
963	0.6611
972	0.7168
981	0.8055
990	0.7947
999	0.7605
1008	0.5712
1017	0.4398
1026	0.1931
1035	0.361
1044	0.6451
1053	0.8094
1062	0.833
1071	0.8331
1080	0.8396
1089	0.8375
1098	0.8364
1107	0.7915
1116	0.8041
1125	0.8136
1134	0.7843
1143	0.7818
1152	0.768
1161	0.7371
1170	0.5114
1179	0.4155
1188	0.7444
1197	0.7145
1206	0.64
1215	0.4884
1224	0.2612
1233	0.2394
1242	0.0614
1251	0.1491
1260	0.6837
1269	0.6874
1278	0.5555
1287	0.2151
1296	0.567
1305	0.5612
1314	0.4364
1323	0.333
1332	0.6858
1341	0.7233
1350	0.6892
1359	0.636
1368	0.1954
1377	0.5364
1386	0.6528
1395	0.6451
1404	0.4627
1413	0.3705
1422	0.6501
1431	0.5328
1440	0.2067
1449	0.3384
1458	0.267
1467	0.1408
1476	0.3972
1485	0.3191
1494	0.2399
1503	0.101
1512	0.0151
1521	0.1117
1530	0.2498
1539	0.2784
1548	0.2597
1557	0.1498
1566	0.1636
1575	0.5362
1584	0.6151
1593	0.3932
1602	0.0826
1611	0.1973
1620	0.2726
1629	0.2934
1638	0.1785
1647	0.054
1656	0.0642
1665	0.117
1674	0.5522
1683	0.7295
1692	0.7825
1701	0.8138
1710	0.8356
1719	0.8456
1728	0.8445
1737	0.8421
1746	0.8506
1755	0.8604
1764	0.8577
1773	0.8588
1782	0.8633
1791	0.8668
1800	0.8636
1809	0.8682
1818	0.8638
1827	0.8611
1836	0.8597
1845	0.8627
1854	0.8599
1863	0.8358
1872	0.862
1881	0.8575
1890	0.8186
1899	0.8547
1908	0.8528
1917	0.84
1926	0.8509
1935	0.8512
1944	0.851
1953	0.8575
1962	0.8583
1971	0.8525
1980	0.8487
1989	0.8651
1998	0.8861
2007	0.8825
2016	0.8874
2025	0.8728
2034	0.8603
2043	0.8565
2052	0.8688
2061	0.8873
2070	0.8843
2079	0.8835
2088	0.8875
2097	0.8885
2106	0.8859
2115	0.8823
2124	0.8789
2133	0.8763
2142	0.8738
2151	0.8713
2160	0.8682
2169	0.8648
2178	0.8621
2187	0.8598
2196	0.8578
2205	0.8585
2214	0.8591
2223	0.8559
2232	0.8524
2241	0.8495
2250	0.8486
2259	0.8471
2268	0.8457
2277	0.8447
2286	0.8437
2295	0.8423
2304	0.8403
2313	0.836
2322	0.831
2331	0.8328
2340	0.837
2349	0.8337
2358	0.8282
2367	0.8266
2376	0.8284
2385	0.8268
2394	0.8225
2403	0.8232
2412	0.8238
2421	0.8265
2430	0.8268
2439	0.8218
2448	0.8161
2457	0.8096
2466	0.8095
2475	0.8135
2484	0.8142
2493	0.8119
2502	0.8088
2511	0.8064
2520	0.8041
2529	0.8008
2538	0.7974
2547	0.7939
2556	0.7911
2565	0.7925
2574	0.7871
2583	0.7818
2592	0.7815
2601	0.7818
2610	0.7801
2619	0.7757
2628	0.7753
2637	0.7778
2646	0.7784
2655	0.7767
2664	0.7746
2673	0.771
2682	0.7645
2691	0.7683
2700	0.7721
2709	0.7654
2718	0.7568
2727	0.7571
2736	0.7598
2745	0.7601
2754	0.7568
2763	0.7482
2772	0.738
2781	0.72
2790	0.7048
2799	0.693
2808	0.6733
2817	0.6287
2826	0.5403
2835	0.3727
2844	0.3177
2853	0.189
2862	0.1596
2871	0.2328
2880	0.2971
2889	0.263
2898	0.1881
2907	0.1078
2916	0.0535
2925	0.0316
2934	0.0308
2943	0.0723
2952	0.0989
2961	0.0783
2970	0.1822
2979	0.3392
2988	0.4755
2997	0.4246
3006	0.3175
3015	0.5143
3024	0.5205
3033	0.485
3042	0.4547
3051	0.411
3060	0.3616
3069	0.3092
3078	0.3056
3087	0.3284
3096	0.3559
3105	0.39
3114	0.3998
3123	0.3688
3132	0.2783
3141	0.2934
3150	0.3736
3159	0.4365
3168	0.4248
3177	0.3938
3186	0.3443
3195	0.3004
3204	0.3214
3213	0.3596
3222	0.351
3231	0.3295
3240	0.2847
3249	0.1933
3258	0.2013
3267	0.226
3276	0.2228
3285	0.2158
3294	0.2701
3303	0.3486
3312	0.4297
3321	0.5154
3330	0.5871
3339	0.6187
3348	0.6435
3357	0.6618
3366	0.6762
3375	0.6894
3384	0.6984
3393	0.7057
3402	0.7104
3411	0.7122
3420	0.7119
3429	0.7115
3438	0.7101
3447	0.7085
3456	0.7071
3465	0.7058
3474	0.7047
3483	0.703
3492	0.7025
3501	0.7021
3510	0.7008
3519	0.6974
3528	0.6949
3537	0.6925
3546	0.6914
3555	0.6911
3564	0.6903
3573	0.6894
3582	0.6884
3591	0.6875
3600	0.6876
3609	0.6869
3618	0.683
3627	0.6821
3636	0.6831
3645	0.6815
3654	0.6795
3663	0.6775
3672	0.6758
3681	0.6737
3690	0.6712
3699	0.6696
3708	0.6682
3717	0.6662
3726	0.6648
3735	0.6645
3744	0.6646
3753	0.6656
3762	0.6653
3771	0.663
3780	0.6612
3789	0.6592
3798	0.6578
3807	0.6562
3816	0.6548
