Infrared Spectrum: PHENOL, p-(2-AMINOETHYL)-
Formula: C8 H11 N O
CAS: 51-67-2
State: SOLID (SPLIT MULL), FLUOROLUBE FOR 3800-1330 CM^-^1, NUJOL FOR 1330-400 CM^-^1
Melting point: 162 C
Class: COBLENTZ III
Instrument: BECKMAN IR-9 (GRATING)
Instrument parameters: ORDER CHANGES: 670, 1200, 2000 CM^-^1
Sampling: TRANSMISSION
Resolution: 2
Origin: DOW CHEMICAL COMPANY
1/CM	TRANSMITTANCE
406.167	0.494
414.978	0.543
423.788	0.598
432.599	0.658
441.409	0.698
450.22	0.723
459.031	0.683
467.841	0.654
476.652	0.75
485.462	0.794
494.273	0.827
503.084	0.836
511.894	0.313
520.705	0.802
529.515	0.865
538.326	0.869
547.137	0.4131
555.947	0.764
564.758	0.878
573.569	0.901
582.379	0.91
591.19	0.912
600	0.913
608.811	0.915
617.622	0.917
626.432	0.916
635.243	0.912
644.053	0.869
652.864	0.912
661.675	0.915
670.485	0.921
679.296	0.891
688.106	0.88
696.917	0.868
705.728	0.854
714.538	0.813
723.349	0.72
732.159	0.786
740.97	0.821
749.781	0.842
758.591	0.846
767.402	0.819
776.212	0.542
785.023	0.754
793.834	0.719
802.644	0.821
811.455	0.81
820.265	0.5829
829.076	0.173
837.887	0.2801
846.697	0.605
855.508	0.627
864.319	0.823
873.129	0.846
881.94	0.843
890.75	0.82
899.561	0.787
908.372	0.768
917.182	0.727
925.993	0.638
934.803	0.602
943.614	0.486
952.425	0.472
961.235	0.404
970.046	0.3271
978.856	0.589
987.667	0.572
996.478	0.601
1005.29	0.652
1014.1	0.627
1022.91	0.523
1031.72	0.2751
1040.53	0.619
1049.34	0.697
1058.15	0.697
1066.96	0.5649
1075.77	0.547
1084.58	0.695
1093.39	0.705
1102.2	0.691
1111.02	0.5898
1119.83	0.527
1128.64	0.667
1137.45	0.683
1146.26	0.678
1155.07	0.646
1163.88	0.641
1172.69	0.4908
1181.5	0.613
1190.31	0.691
1199.12	0.672
1207.93	0.621
1216.74	0.642
1225.55	0.602
1234.36	0.524
1243.17	0.43
1251.99	0.3199
1260.8	0.109
1269.61	0.015
1278.42	0.136
1287.23	0.519
1296.04	0.473
1304.85	0.726
1313.66	0.747
1322.47	0.743
1331.28	0.69
1340.09	0.706
1348.9	0.657
1357.71	0.705
1366.52	0.656
1375.33	0.5679
1384.14	0.3461
1392.95	0.634
1401.77	0.5389
1410.58	0.717
1419.39	0.758
1428.2	0.705
1437.01	0.628
1445.82	0.501
1454.63	0.408
1463.44	0.2639
1472.25	0.104
1481.06	0.098
1489.87	0.076
1498.68	0.13
1507.49	0.167
1516.3	0.08
1525.11	0.2323
1533.92	0.8541
1542.74	0.942
1551.55	0.95
1560.36	0.872
1569.17	0.761
1577.98	0.5669
1586.79	0.3189
1595.6	0.041
1604.41	0.245
1613.22	0.275
1622.03	0.7731
1630.84	0.938
1639.65	0.963
1648.46	0.923
1657.27	0.89
1666.08	0.872
1674.89	0.849
1683.7	0.816
1692.52	0.789
1701.33	0.763
1710.14	0.735
1718.95	0.719
1727.76	0.716
1736.57	0.715
1745.38	0.693
1754.19	0.667
1763	0.632
1771.81	0.604
1780.62	0.561
1789.43	0.535
1798.24	0.513
1807.05	0.498
1815.86	0.49
1824.67	0.489
1833.49	0.49
1842.3	0.498
1851.11	0.512
1859.92	0.53
1868.73	0.563
1877.54	0.56
1886.35	0.515
1895.16	0.532
1903.97	0.531
1912.78	0.524
1921.59	0.527
1930.4	0.552
1939.21	0.579
1948.02	0.597
1956.83	0.604
1965.64	0.601
1974.45	0.593
1983.27	0.587
1992.08	0.597
2000.89	0.595
2009.7	0.597
2018.51	0.5935
2027.32	0.5865
2036.13	0.5795
2044.94	0.5815
2053.75	0.5946
2062.56	0.6116
2071.37	0.63
2080.18	0.6249
2088.99	0.6144
2097.8	0.602
2106.61	0.5984
2115.42	0.597
2124.24	0.601
2133.05	0.602
2141.86	0.5989
2150.67	0.5904
2159.48	0.589
2168.29	0.586
2177.1	0.5789
2185.91	0.5679
2194.72	0.56
2203.53	0.5564
2212.34	0.5524
2221.15	0.5478
2229.96	0.534
2238.77	0.528
2247.58	0.526
2256.39	0.5218
2265.2	0.5164
2274.02	0.5102
2282.83	0.5008
2291.64	0.4904
2300.45	0.4834
2309.26	0.4788
2318.07	0.4698
2326.88	0.467
2335.69	0.4676
2344.5	0.468
2353.31	0.4674
2362.12	0.464
2370.93	0.4676
2379.74	0.4645
2388.55	0.4269
2397.36	0.3954
2406.17	0.3787
2414.99	0.3654
2423.8	0.354
2432.61	0.3397
2441.42	0.329
2450.23	0.3197
2459.04	0.31
2467.85	0.296
2476.66	0.284
2485.47	0.2767
2494.28	0.2673
2503.09	0.2573
2511.9	0.2506
2520.71	0.2436
2529.52	0.2396
2538.33	0.2404
2547.14	0.2484
2555.95	0.25
2564.77	0.247
2573.58	0.2396
2582.39	0.232
2591.2	0.231
2600.01	0.2334
2608.82	0.2387
2617.63	0.2482
2626.44	0.2577
2635.25	0.2717
2644.06	0.3046
2652.87	0.3167
2661.68	0.3153
2670.49	0.3053
2679.3	0.298
2688.11	0.304
2696.92	0.3142
2705.74	0.3501
2714.55	0.3835
2723.36	0.3995
2732.17	0.401
2740.98	0.3895
2749.79	0.3767
2758.6	0.3695
2767.41	0.3705
2776.22	0.3746
2785.03	0.376
2793.84	0.372
2802.65	0.3496
2811.46	0.345
2820.27	0.3514
2829.08	0.3852
2837.89	0.4036
2846.7	0.3675
2855.52	0.3028
2864.33	0.2669
2873.14	0.2613
2881.95	0.3551
2890.76	0.393
2899.57	0.389
2908.38	0.3614
2917.19	0.3492
2926	0.3133
2934.81	0.1818
2943.62	0.3197
2952.43	0.2898
2961.24	0.4247
2970.05	0.449
2978.86	0.447
2987.67	0.4209
2996.49	0.409
3005.3	0.406
3014.11	0.4077
3022.92	0.4416
3031.73	0.452
3040.54	0.427
3049.35	0.497
3058.16	0.4459
3066.97	0.4888
3075.78	0.4949
3084.59	0.5019
3093.4	0.5183
3102.21	0.5269
3111.02	0.527
3119.83	0.523
3128.64	0.5278
3137.45	0.5417
3146.27	0.5526
3155.08	0.5649
3163.89	0.5652
3172.7	0.5718
3181.51	0.5888
3190.32	0.594
3199.13	0.597
3207.94	0.6
3216.75	0.6
3225.56	0.601
3234.37	0.602
3243.18	0.602
3251.99	0.6
3260.8	0.5931
3269.61	0.5821
3278.42	0.5205
3287.24	0.3051
3296.05	0.5106
3304.86	0.601
3313.67	0.601
3322.48	0.5364
3331.29	0.3911
3340.1	0.0941
3348.91	0.2996
3357.72	0.5827
3366.53	0.61
3375.34	0.613
3384.15	0.616
3392.96	0.616
3401.77	0.617
3410.58	0.617
3419.39	0.616
3428.2	0.609
3437.02	0.606
3445.83	0.606
3454.64	0.606
3463.45	0.606
3472.26	0.606
3481.07	0.605
3489.88	0.6021
3498.69	0.601
3507.5	0.6
3516.31	0.597
3525.12	0.594
3533.93	0.5909
3542.74	0.587
3551.55	0.5859
3560.36	0.583
3569.17	0.58
3577.99	0.5779
3586.8	0.573
3595.61	0.569
3604.42	0.567
3613.23	0.563
3622.04	0.563
3630.85	0.561
3639.66	0.56
3648.47	0.5569
3657.28	0.553
3666.09	0.55
3674.9	0.5459
3683.71	0.5419
3692.52	0.538
3701.33	0.536
3710.14	0.535
3718.95	0.5319
3727.77	0.527
3736.58	0.527
3745.39	0.527
3754.2	0.524
3763.01	0.523
3771.82	0.523
3780.63	0.521
3789.44	0.521
3798.25	0.521
