Infrared Spectrum: bis(Dimethylamino)methane
Formula: C 5 H 14 N 2
CAS: 51-80-9
State: gas
Instrument: HP-GC/MS/IRD
Origin: NIST Mass Spectrometry Data Center
1/CM	ABSORBANCE
550	0.000674
562	2.6e-05
574	2.8e-05
586	0
598	7.8e-05
610	0.000216
622	0.000394
634	0.000526
646	0.000734
658	0.000958
670	0.001336
682	0.001534
694	0.001826
706	0.001992
718	0.001998
730	0.001862
742	0.001712
754	0.001386
766	0.001062
778	0.000804
790	0.000646
802	0.000584
814	0.000734
826	0.000974
838	0.001254
850	0.001782
862	0.001716
874	0.001108
886	0.000528
898	0.000398
910	0.000384
922	0.000424
934	0.000522
946	0.000488
958	0.000528
970	0.00074
982	0.001142
994	0.00182
1006	0.002652
1018	0.00386
1030	0.006198
1042	0.00916
1054	0.009432
1066	0.00603
1078	0.002556
1090	0.001752
1102	0.001772
1114	0.00182
1126	0.001994
1138	0.002378
1150	0.002686
1162	0.002798
1174	0.003104
1186	0.002844
1198	0.003494
1210	0.004186
1222	0.00399
1234	0.003258
1246	0.002976
1258	0.003806
1270	0.004468
1282	0.003608
1294	0.002186
1306	0.001382
1318	0.000922
1330	0.000706
1342	0.000662
1354	0.000846
1366	0.001436
1378	0.002518
1390	0.00266
1402	0.001772
1414	0.001508
1426	0.002204
1438	0.004182
1450	0.006384
1462	0.006454
1474	0.004844
1486	0.003282
1498	0.002022
1510	0.001134
1522	0.00074
1534	0.000552
1546	0.000388
1558	0.000246
1570	0.000316
1582	0.00031
1594	0.000266
1606	0.000248
1618	0.000202
1630	0.000222
1642	0.00024
1654	0.000192
1666	0.00035
1678	0.000464
1690	0.000488
1702	0.000534
1714	0.000598
1726	0.000544
1738	0.000248
1750	0.00024
1762	0.000334
1774	0.000502
1786	0.000544
1798	0.0004
1810	0.000256
1822	0.000138
1834	0.000106
1846	6.8e-05
1858	0.000132
1870	0.000112
1882	0.00018
1894	0.000142
1906	0.000104
1918	5.6e-05
1930	3.6e-05
1942	2e-06
1954	1.6e-05
1966	2e-05
1978	2.6e-05
1990	3.2e-05
2002	9.2e-05
2014	8e-05
2026	9.6e-05
2038	0.000124
2050	0.00016
2062	0.00021
2074	0.00021
2086	0.000182
2098	0.000146
2110	0.000124
2122	9.4e-05
2134	7.2e-05
2146	4.2e-05
2158	4.4e-05
2170	2.2e-05
2182	1.2e-05
2194	1.8e-05
2206	2e-06
2218	0
2230	3.8e-05
2242	6e-05
2254	6.6e-05
2266	7.2e-05
2278	8.6e-05
2290	0.00013
2302	0.00019
2314	0.000246
2326	0.000302
2338	0.000282
2350	0.000268
2362	0.00035
2374	0.00028
2386	0.000134
2398	0.000104
2410	0.000106
2422	0.00013
2434	0.000146
2446	0.000176
2458	0.000186
2470	0.000234
2482	0.000278
2494	0.000312
2506	0.00033
2518	0.000306
2530	0.000308
2542	0.000282
2554	0.000318
2566	0.00036
2578	0.000382
2590	0.00039
2602	0.000442
2614	0.000472
2626	0.000556
2638	0.000618
2650	0.000768
2662	0.000938
2674	0.0012
2686	0.001568
2698	0.0022
2710	0.003302
2722	0.004592
2734	0.005902
2746	0.007868
2758	0.011508
2770	0.017042
2782	0.019072
2794	0.018248
2806	0.01914
2818	0.02
2830	0.01723
2842	0.013278
2854	0.011898
2866	0.011426
2878	0.010704
2890	0.010198
2902	0.010378
2914	0.010786
2926	0.012142
2938	0.014982
2950	0.017158
2962	0.01649
2974	0.013606
2986	0.01038
2998	0.006966
3010	0.003916
3022	0.002324
3034	0.001756
3046	0.001478
3058	0.001204
3070	0.000984
3082	0.000836
3094	0.000684
3106	0.000652
3118	0.00051
3130	0.0005
3142	0.000434
3154	0.000394
3166	0.00039
3178	0.000374
3190	0.000354
3202	0.00034
3214	0.0003
3226	0.000224
3238	0.000186
3250	0.000148
3262	7.8e-05
3274	0.000132
3286	9.4e-05
3298	0.000108
3310	0.00013
3322	0.000108
3334	7.4e-05
3346	0.000122
3358	0.000156
3370	0.000134
3382	0.000178
3394	0.00015
3406	0.000106
3418	0.000162
3430	0.000138
3442	0.000128
3454	0.000102
3466	8e-05
3478	5.8e-05
3490	0.000142
3502	7.6e-05
3514	0.000148
3526	7.4e-05
3538	9.6e-05
3550	9e-05
3562	0.000118
3574	0.000152
3586	7.2e-05
3598	0.00015
3610	9.4e-05
3622	0.00014
3634	0.00013
3646	0.000128
3658	0.000148
3670	0.000138
3682	0.00017
3694	0.000128
3706	0.000188
3718	0.000106
3730	8.6e-05
3742	7.4e-05
3754	0.00016
3766	0.000226
3778	0.00024
3790	0.000242
3802	0.000176
3814	0.000248
3826	0.00023
3838	0.000188
