Infrared Spectrum: TESTERONE, 19-NOR-17Alpha-ETHYNYL-, ACETATE
Formula: C22 H28 O3
CAS: 51-98-9
State: SOLID (KBr DISC) VS KBr
Class: COBLENTZ III
Instrument: PERKIN-ELMER 21 (GRATING)
Instrument parameters: FILTER AT ABOUT 10 MICRONS
Sampling: TRANSMISSION
Resolution: 2
1/CM	TRANSMITTANCE
4000	0.9093
3991	0.9096
3982	0.91
3973	0.9103
3964	0.9107
3955	0.9104
3946	0.9098
3937	0.9092
3928	0.9088
3919	0.9081
3910	0.9075
3901	0.9068
3892	0.9063
3883	0.9057
3874	0.9059
3865	0.9065
3856	0.9071
3847	0.9078
3838	0.9084
3829	0.9092
3820	0.91
3811	0.9107
3802	0.9105
3793	0.91
3784	0.9095
3775	0.9091
3766	0.9089
3757	0.9093
3748	0.9098
3739	0.9101
3730	0.9106
3721	0.911
3712	0.9113
3703	0.9117
3694	0.9121
3685	0.9124
3676	0.9127
3667	0.9127
3658	0.9125
3649	0.9125
3640	0.9125
3631	0.9124
3622	0.9121
3613	0.9121
3604	0.9118
3595	0.9114
3586	0.9108
3577	0.9048
3568	0.8925
3559	0.8917
3550	0.8912
3541	0.8904
3532	0.8892
3523	0.8862
3514	0.8813
3505	0.8752
3496	0.868
3487	0.8615
3478	0.8563
3469	0.8528
3460	0.8497
3451	0.8478
3442	0.8462
3433	0.8462
3424	0.847
3415	0.848
3406	0.8488
3397	0.8496
3388	0.851
3379	0.8537
3370	0.8567
3361	0.86
3352	0.8618
3343	0.8632
3334	0.863
3325	0.8614
3316	0.8595
3307	0.8555
3298	0.8498
3289	0.843
3280	0.8224
3271	0.6995
3262	0.5762
3253	0.4859
3244	0.4847
3235	0.4872
3226	0.6358
3217	0.8193
3208	0.8371
3199	0.8512
3190	0.861
3181	0.8692
3172	0.8761
3163	0.8812
3154	0.8857
3145	0.8899
3136	0.8924
3127	0.8941
3118	0.8947
3109	0.8953
3100	0.8948
3091	0.894
3082	0.8925
3073	0.8901
3064	0.8875
3055	0.8837
3046	0.8785
3037	0.8718
3028	0.8656
3019	0.8598
3010	0.8309
3001	0.7774
2992	0.7303
2983	0.6967
2974	0.6828
2965	0.6275
2956	0.5643
2947	0.5007
2938	0.4367
2929	0.4169
2920	0.4184
2911	0.4583
2902	0.5019
2893	0.5458
2884	0.59
2875	0.5909
2866	0.5706
2857	0.5571
2848	0.6272
2839	0.7501
2830	0.7601
2821	0.7622
2812	0.7753
2803	0.8135
2794	0.8518
2785	0.8647
2776	0.8718
2767	0.8787
2758	0.8843
2749	0.8897
2740	0.8921
2731	0.8944
2722	0.8958
2713	0.8967
2704	0.8977
2695	0.8987
2686	0.8993
2677	0.8997
2668	0.9003
2659	0.9007
2650	0.9011
2641	0.9016
2632	0.9013
2623	0.9008
2614	0.9005
2605	0.9002
2596	0.8997
2587	0.8996
2578	0.8996
2569	0.8996
2560	0.9002
2551	0.9024
2542	0.9044
2533	0.9062
2524	0.9073
2515	0.9083
2506	0.9093
2497	0.9102
2488	0.911
2479	0.9118
2470	0.9123
2461	0.9124
2452	0.9099
2443	0.9095
2434	0.9104
2425	0.9112
2416	0.9123
2407	0.9133
2398	0.9144
2389	0.9155
2380	0.9166
2371	0.9174
2362	0.9182
2353	0.919
2344	0.9199
2335	0.9204
2326	0.9192
2317	0.9175
2308	0.9157
2299	0.9151
2290	0.9153
2281	0.916
2272	0.9166
2263	0.9154
2254	0.9155
2245	0.9157
2236	0.9168
2227	0.9181
2218	0.9195
2209	0.9201
2200	0.9207
2191	0.9212
2182	0.921
2173	0.9209
2164	0.9201
2155	0.919
2146	0.9163
2137	0.9163
2128	0.9155
2119	0.91
2110	0.8825
2101	0.8723
2092	0.9
2083	0.9124
2074	0.9156
2065	0.9175
2056	0.9196
2047	0.9201
2038	0.9201
2029	0.9201
2020	0.9204
2011	0.921
2002	0.9215
1993	0.9221
1984	0.9225
1975	0.923
1966	0.9223
1957	0.9216
1948	0.9209
1939	0.9206
1930	0.9203
1921	0.92
1912	0.92
1903	0.92
1894	0.92
1885	0.9204
1876	0.9198
1867	0.9165
1858	0.9115
1849	0.9039
1840	0.9012
1831	0.8996
1822	0.8951
1813	0.883
1804	0.8745
1795	0.8608
1786	0.8367
1777	0.8212
1768	0.7921
1759	0.5006
1750	0.1878
1741	0.1576
1732	0.631
1723	0.776
1714	0.798
1705	0.791
1696	0.6995
1687	0.5803
1678	0.3446
1669	0.1092
1660	0.3995
1651	0.5288
1642	0.6737
1633	0.7058
1624	0.7182
1615	0.5242
1606	0.781
1597	0.8213
1588	0.846
1579	0.8646
1570	0.8824
1561	0.8928
1552	0.8971
1543	0.8982
1534	0.8991
1525	0.9001
1516	0.9008
1507	0.8998
1498	0.8945
1489	0.8828
1480	0.8713
1471	0.8192
1462	0.7926
1453	0.7099
1444	0.686
1435	0.6872
1426	0.7194
1417	0.7042
1408	0.8283
1399	0.8373
1390	0.8048
1381	0.6109
1372	0.5899
1363	0.4509
1354	0.6494
1345	0.7496
1336	0.679
1327	0.7778
1318	0.8451
1309	0.8591
1300	0.8117
1291	0.8411
1282	0.8161
1273	0.7548
1264	0.4998
1255	0.241
1246	0.471
1237	0.2972
1228	0.2806
1219	0.1929
1210	0.3418
1201	0.5683
1192	0.6724
1183	0.7575
1174	0.7783
1165	0.814
1156	0.8325
1147	0.8118
1138	0.8308
1129	0.8303
1120	0.6572
1111	0.7468
1102	0.8028
1093	0.8425
1084	0.8324
1075	0.8133
1066	0.7026
1057	0.6112
1048	0.6374
1039	0.541
1030	0.3576
1021	0.6086
1012	0.4682
1003	0.6525
994	0.7975
985	0.7888
976	0.7876
967	0.6886
958	0.8321
949	0.8888
940	0.9063
931	0.9068
922	0.8473
913	0.8959
904	0.794
895	0.8707
886	0.543
877	0.8331
868	0.8817
859	0.9201
850	0.8725
841	0.9102
832	0.9212
823	0.933
814	0.9053
805	0.9405
796	0.949
787	0.9516
778	0.943
769	0.9401
760	0.8795
751	0.9198
742	0.8916
733	0.7908
724	0.7308
715	0.7442
706	0.8108
697	0.8075
688	0.689
679	0.623
