Infrared Spectrum: 19-HYDROXYANDROST-4-ENE-3,17-DIONE
Formula: C19 H26 O3
CAS: 510-64-5
State: SOLID (KBr DISC)
Class: COBLENTZ III
Instrument: BECKMAN IR-7
Sampling: TRANSMISSION
Resolution: 4
Origin: THE WORCESTER FOUNDATION FOR EXPERIMENTAL BIOLOGY, Neal L. McNiven
1/CM	TRANSMITTANCE
602.92	0.6
611.679	0.624
620.438	0.67
629.197	0.713
637.956	0.734
646.716	0.736
655.475	0.713
664.234	0.657
672.993	0.639
681.752	0.688
690.511	0.672
699.27	0.732
708.029	0.793
716.789	0.809
725.548	0.84
734.307	0.847
743.066	0.796
751.825	0.835
760.584	0.858
769.343	0.87
778.102	0.814
786.862	0.861
795.621	0.879
804.38	0.882
813.139	0.877
821.898	0.845
830.657	0.819
839.416	0.838
848.175	0.85
856.935	0.863
865.694	0.776
874.453	0.453
883.212	0.805
891.971	0.843
900.73	0.823
909.489	0.835
918.248	0.798
927.008	0.827
935.767	0.803
944.526	0.838
953.285	0.808
962.044	0.829
970.803	0.791
979.562	0.814
988.321	0.79
997.081	0.731
1005.84	0.498
1014.6	0.61
1023.36	0.67
1032.12	0.618
1040.88	0.572
1049.64	0.397
1058.39	0.36
1067.15	0.522
1075.91	0.689
1084.67	0.645
1093.43	0.638
1102.19	0.649
1110.95	0.742
1119.71	0.763
1128.47	0.78
1137.23	0.802
1145.99	0.814
1154.74	0.781
1163.5	0.783
1172.26	0.742
1181.02	0.762
1189.78	0.745
1198.54	0.722
1207.3	0.721
1216.06	0.743
1224.82	0.673
1233.58	0.727
1242.34	0.739
1251.1	0.714
1259.85	0.588
1268.61	0.602
1277.37	0.691
1286.13	0.694
1294.89	0.724
1303.65	0.799
1312.41	0.797
1321.17	0.789
1329.93	0.759
1338.69	0.718
1347.45	0.723
1356.2	0.572
1364.96	0.675
1373.72	0.667
1382.48	0.718
1391.24	0.721
1400	0.588
1408.76	0.615
1417.52	0.668
1426.28	0.525
1435.04	0.526
1443.8	0.527
1452.55	0.538
1461.31	0.6
1470.07	0.672
1478.83	0.774
1487.59	0.798
1496.35	0.81
1505.11	0.819
1513.87	0.832
1522.63	0.84
1531.39	0.843
1540.15	0.84
1548.91	0.842
1557.66	0.835
1566.42	0.836
1575.18	0.835
1583.94	0.809
1592.7	0.78
1601.46	0.733
1610.22	0.57
1618.98	0.533
1627.74	0.599
1636.5	0.4121
1645.26	0.26
1654.01	0.053
1662.77	0.19
1671.53	0.429
1680.29	0.581
1689.05	0.679
1697.81	0.709
1706.57	0.761
1715.33	0.746
1724.09	0.507
1732.85	0.148
1741.61	0.3
1750.37	0.614
1759.12	0.786
1767.88	0.84
1776.64	0.873
1785.4	0.89
1794.16	0.9
1802.92	0.909
1811.68	0.915
1820.44	0.913
1829.2	0.917
1837.96	0.925
1846.72	0.93
1855.47	0.933
1864.23	0.933
1872.99	0.936
1881.75	0.934
1890.51	0.937
1899.27	0.939
1908.03	0.939
1916.79	0.941
1925.55	0.939
1934.31	0.938
1943.07	0.941
1951.83	0.938
1960.58	0.938
1969.34	0.94
1978.1	0.941
1986.86	0.941
1995.62	0.941
2004.38	0.9385
2013.14	0.938
2021.9	0.938
2030.66	0.938
2039.42	0.938
2048.18	0.9396
2056.93	0.941
2065.69	0.941
2074.45	0.9393
2083.21	0.938
2091.97	0.938
2100.73	0.938
2109.49	0.939
2118.25	0.941
2127.01	0.9419
2135.77	0.941
2144.53	0.941
2153.28	0.94
2162.04	0.941
2170.8	0.941
2179.56	0.941
2188.32	0.9399
2197.08	0.9379
2205.84	0.9356
2214.6	0.931
2223.36	0.93
2232.12	0.9288
2240.88	0.9258
2249.64	0.925
2258.39	0.925
2267.15	0.924
2275.91	0.923
2284.67	0.923
2293.43	0.923
2302.19	0.923
2310.95	0.9215
2319.71	0.9195
2328.47	0.914
2337.23	0.912
2345.99	0.9114
2354.74	0.9104
2363.5	0.9094
2372.26	0.909
2381.02	0.909
2389.78	0.909
2398.54	0.911
2407.3	0.911
2416.06	0.91
2424.82	0.909
2433.58	0.9051
2442.34	0.9014
2451.1	0.901
2459.85	0.9001
2468.61	0.901
2477.37	0.901
2486.13	0.901
2494.89	0.896
2503.65	0.8919
2512.41	0.8909
2521.17	0.889
2529.93	0.8878
2538.69	0.8858
2547.45	0.886
2556.2	0.885
2564.96	0.8847
2573.72	0.883
2582.48	0.878
2591.24	0.8747
2600	0.8726
2608.76	0.8692
2617.52	0.8631
2626.28	0.86
2635.04	0.859
2643.8	0.859
2652.55	0.859
2661.31	0.8569
2670.07	0.854
2678.83	0.8518
2687.59	0.8467
2696.35	0.84
2705.11	0.838
2713.87	0.8363
2722.63	0.8322
2731.39	0.8302
2740.15	0.83
2748.91	0.8298
2757.66	0.8271
2766.42	0.827
2775.18	0.827
2783.94	0.824
2792.7	0.8161
2801.46	0.793
2810.22	0.7442
2818.98	0.6842
2827.74	0.676
2836.5	0.6625
2845.26	0.5235
2854.01	0.4929
2862.77	0.4606
2871.53	0.4619
2880.29	0.4918
2889.05	0.5443
2897.81	0.5304
2906.57	0.4457
2915.33	0.3375
2924.09	0.27
2932.85	0.3038
2941.61	0.3358
2950.37	0.4206
2959.12	0.4645
2967.88	0.5564
2976.64	0.6371
2985.4	0.7001
2994.16	0.736
3002.92	0.7641
3011.68	0.7783
3020.44	0.783
3029.2	0.7739
3037.96	0.7719
3046.72	0.7831
3055.47	0.7858
3064.23	0.785
3072.99	0.7831
3081.75	0.7792
3090.51	0.7703
3099.27	0.7662
3108.03	0.7611
3116.79	0.759
3125.55	0.754
3134.31	0.75
3143.07	0.749
3151.83	0.7449
3160.58	0.7397
3169.34	0.7296
3178.1	0.7207
3186.86	0.7108
3195.62	0.7001
3204.38	0.6752
3213.14	0.6492
3221.9	0.6301
3230.66	0.6026
3239.42	0.577
3248.18	0.5372
3256.93	0.5048
3265.69	0.4615
3274.45	0.397
3283.21	0.2929
3291.97	0.2685
3300.73	0.2895
3309.49	0.3194
3318.25	0.3749
3327.01	0.4413
3335.77	0.4724
3344.53	0.518
3353.28	0.5373
3362.04	0.561
3370.8	0.5769
3379.56	0.5876
3388.32	0.6017
3397.08	0.614
3405.84	0.6351
3414.6	0.6485
3423.36	0.6548
3432.12	0.659
3440.88	0.655
3449.64	0.6501
3458.39	0.6692
3467.15	0.6801
3475.91	0.6811
3484.67	0.6994
3493.43	0.7105
3502.19	0.7206
3510.95	0.7304
3519.71	0.7395
3528.47	0.7558
3537.23	0.7619
3545.99	0.766
3554.74	0.7693
3563.5	0.7792
3572.26	0.7858
3581.02	0.7894
3589.78	0.792
3598.54	0.7935
3607.3	0.793
3616.06	0.7915
3624.82	0.7946
3633.58	0.7986
3642.34	0.8
3651.1	0.801
3659.85	0.801
3668.61	0.7993
3677.37	0.798
3686.13	0.7972
3694.89	0.797
3703.65	0.799
3712.41	0.8037
3721.17	0.8089
3729.93	0.81
3738.69	0.8091
3747.45	0.81
3756.2	0.812
3764.96	0.814
3773.72	0.814
3782.48	0.8129
3791.24	0.811
3800	0.811
3808.76	0.811
3817.52	0.809
3826.28	0.809
3835.04	0.809
3843.8	0.8095
3852.55	0.8067
3861.31	0.8063
3870.07	0.806
3878.83	0.806
3887.59	0.8036
3896.35	0.803
3905.11	0.802
3913.87	0.802
3922.63	0.801
3931.39	0.801
3940.15	0.801
3948.91	0.801
3957.66	0.801
3966.42	0.801
3975.18	0.801
3983.94	0.801
3992.7	0.8003
4001.46	0.8002
