Infrared Spectrum: 3-Chloro-2-iodotoluene
Formula: C 7 H 6 Cl I
CAS: 5100-98-1
State: gas
Origin: EPA-IR VAPOR PHASE LIBRARY
1/CM	ABSORBANCE
549.9	0.004875
559.547	0.001895
569.193	0.0015717
578.84	0.0011087
588.486	0.0012889
598.133	0.0010707
607.779	0.001845
617.426	0.002335
627.072	0.0013667
636.719	0.0011739
646.365	0.0010406
656.012	0.0013619
665.658	0.0016699
675.305	0.003035
684.951	0.009525
694.598	0.021495
704.245	0.018245
713.891	0.021475
723.538	0.015645
733.184	0.006345
742.831	0.004935
752.477	0.017925
762.124	0.065575
771.77	0.092135
781.417	0.032055
791.063	0.005045
800.71	0.002965
810.356	0.002115
820.003	0.002135
829.649	0.003565
839.296	0.011055
848.943	0.029685
858.589	0.031825
868.236	0.011535
877.882	0.003745
887.529	0.002885
897.175	0.002545
906.822	0.001995
916.468	0.001965
926.115	0.001915
935.761	0.001945
945.408	0.002015
955.054	0.002775
964.701	0.005515
974.347	0.006815
983.994	0.006325
993.64	0.010815
1003.29	0.027875
1012.93	0.056925
1022.58	0.046705
1032.23	0.020375
1041.87	0.015795
1051.52	0.008145
1061.17	0.003745
1070.81	0.002495
1080.46	0.003105
1090.11	0.007565
1099.75	0.009215
1109.4	0.004315
1119.05	0.002705
1128.69	0.004075
1138.34	0.012065
1147.99	0.023565
1157.63	0.023465
1167.28	0.022865
1176.92	0.031785
1186.57	0.022205
1196.22	0.004965
1205.86	0.002815
1215.51	0.002405
1225.16	0.001885
1234.8	0.002045
1244.45	0.002665
1254.1	0.003195
1263.74	0.002485
1273.39	0.0014304
1283.04	0.0014819
1292.68	0.0013648
1302.33	0.001414
1311.98	0.0013129
1321.62	0.0012556
1331.27	0.0012552
1340.92	0.0013967
1350.56	0.001805
1360.21	0.003235
1369.86	0.006915
1379.5	0.015575
1389.15	0.025585
1398.79	0.027665
1408.44	0.019255
1418.09	0.015955
1427.73	0.030365
1437.38	0.073795
1447.03	0.083875
1456.67	0.047755
1466.32	0.027675
1475.97	0.017965
1485.61	0.011465
1495.26	0.007635
1504.91	0.006415
1514.55	0.005765
1524.2	0.006035
1533.85	0.008555
1543.49	0.012085
1553.14	0.015925
1562.79	0.017265
1572.43	0.019595
1582.08	0.018135
1591.73	0.009005
1601.37	0.003545
1611.02	0.002265
1620.67	0.001825
1630.31	0.001985
1639.96	0.002985
1649.6	0.004825
1659.25	0.004025
1668.9	0.0015789
1678.54	0.0009641
1688.19	0.0008501
1697.84	0.0008152
1707.48	0.0008854
1717.13	0.0014349
1726.78	0.0015801
1736.42	0.0011634
1746.07	0.00074788
1755.72	0.0014093
1765.36	0.002765
1775.01	0.002195
1784.66	0.00072678
1794.3	0.00071694
1803.95	0.00075385
1813.6	0.00066795
1823.24	0.00073819
1832.89	0.0016625
1842.54	0.003285
1852.18	0.002905
1861.83	0.0012708
1871.47	0.0006359
1881.12	0.0006198
1890.77	0.00074178
1900.41	0.0010573
1910.06	0.002425
1919.71	0.005135
1929.35	0.004485
1939	0.0013464
1948.65	0.000547
1958.29	0.00038
1967.94	0.000419
1977.59	0.000401
1987.23	0.000436
1996.88	0.000502
2006.53	0.000461
2016.17	0.00051
2025.82	0.0005934
2035.47	0.0006019
2045.11	0.000411
2054.76	0.000345
2064.41	0.000307
2074.05	0.000263
2083.7	0.000366
2093.35	0.000337
2102.99	0.000389
2112.64	0.000282
2122.28	0.000185
2131.93	0.000135
2141.58	0.000132
2151.22	0.000101
2160.87	0.000156
2170.52	0.000119
2180.16	4.9e-05
2189.81	9.2e-05
2199.46	2.9e-05
2209.1	8.9e-05
2218.75	0.000232
2228.4	0.000272
2238.04	0.000309
2247.69	0.000343
2257.34	0.000286
2266.98	0.000372
2276.63	0.000335
2286.28	0.000364
2295.92	0.000461
2305.57	0.000365
2315.22	0.000335
2324.86	0.000439
2334.51	0.000436
2344.16	0.0005772
2353.8	0.0006137
2363.45	0.000487
2373.09	0.000155
2382.74	0.000192
2392.39	0.000263
2402.03	0.000405
2411.68	0.000454
2421.33	0.000462
2430.97	0.000398
2440.62	0.000279
2450.27	0.000218
2459.91	0.000309
2469.56	0.000506
2479.21	0.0006341
2488.85	0.0008813
2498.5	0.00071034
2508.15	0.0006108
2517.79	0.000402
2527.44	0.000295
2537.09	0.000279
2546.73	0.000454
2556.38	0.000408
2566.03	0.0005921
2575.67	0.000575
2585.32	0.000457
2594.96	0.000388
2604.61	0.000336
2614.26	0.000326
2623.9	0.000465
2633.55	0.000388
2643.2	0.000316
2652.84	0.000279
2662.49	0.000227
2672.14	0.000116
2681.78	4.3e-05
2691.43	0.000151
2701.08	8.1e-05
2710.72	0.000127
2720.37	0.000241
2730.02	0.000284
2739.66	0.0006487
2749.31	0.0008135
2758.96	0.000467
2768.6	0.000271
2778.25	0.000257
2787.9	0.000117
2797.54	0.000273
2807.19	0.0004
2816.84	0.00069905
2826.48	0.0011641
2836.13	0.001669
2845.77	0.002455
2855.42	0.003775
2865.07	0.004985
2874.71	0.005135
2884.36	0.004225
2894.01	0.004285
2903.65	0.005455
2913.3	0.007495
2922.95	0.012575
2932.59	0.019675
2942.24	0.016925
2951.89	0.011165
2961.53	0.013205
2971.18	0.015505
2980.83	0.020885
2990.47	0.020705
3000.12	0.012155
3009.77	0.007365
3019.41	0.005045
3029.06	0.005035
3038.71	0.008565
3048.35	0.018115
3058	0.027505
3067.64	0.029885
3077.29	0.017265
3086.94	0.006305
3096.58	0.004185
3106.23	0.003895
3115.88	0.003205
3125.52	0.002595
3135.17	0.002005
3144.82	0.0016322
3154.46	0.0014004
3164.11	0.0008503
3173.76	0.000323
3183.4	0.000532
3193.05	0.000394
3202.7	0.000276
3212.34	0.000311
3221.99	0.000413
3231.64	0.000335
3241.28	0.000224
3250.93	0.000223
3260.58	0.000253
3270.22	0.000397
3279.87	0.000354
3289.52	0.000418
3299.16	0.00066991
3308.81	0.000412
3318.45	0.00042
3328.1	0.0005828
3337.75	0.000412
3347.39	0.000476
3357.04	0.000502
3366.69	0.0006716
3376.33	0.000526
3385.98	0.000499
3395.63	0.000683262
3405.27	0.0006307
3414.92	0.000542
3424.57	0.000458
3434.21	0.00069024
3443.86	0.0006005
3453.51	0.0006499
3463.15	0.0005951
3472.8	0.0008426
3482.45	0.00072273
3492.09	0.00076346
3501.74	0.000952
3511.39	0.0008485
3521.03	0.00070234
3530.68	0.00076472
3540.33	0.00066516
3549.97	0.00076073
3559.62	0.00072992
3569.26	0.0006427
3578.91	0.000674596
3588.56	0.0007756
3598.2	0.000614
3607.85	0.0008496
3617.5	0.00075969
3627.14	0.00074538
3636.79	0.0006258
3646.44	0.00076638
3656.08	0.00076731
3665.73	0.000548
3675.38	0.00074027
3685.02	0.000573
3694.67	0.00074347
3704.32	0.0008215
3713.96	0.0006287
3723.61	0.0008031
3733.26	0.0008389
3742.9	0.0008368
3752.55	0.0009905
3762.2	0.0010093
3771.84	0.0010611
3781.49	0.001161
3791.13	0.0009129
3800.78	0.0011019
3810.43	0.0007832
3820.07	0.0008795
3829.72	0.00066697
3839.37	0.0008713
3849.01	0.00071932
3858.66	0.00074876
3868.31	0.00072393
3877.95	0.000415
3887.6	0.00071596
3897.25	0.000679673
3906.89	0.0007783
3916.54	0.00076115
3926.19	0.0009982
3935.83	0.0010995
3945.48	0.0006187
3955.13	0.0008473
3964.77	0.00074553
3974.42	0.00077136
3984.07	0.000792
3993.71	0.0006596
