Infrared Spectrum: Ethyl 6-isocyanatohexanoate
Formula: C 9 H 15 N O 3
CAS: 5100-36-7
State: gas
Origin: EPA-IR VAPOR PHASE LIBRARY
1/CM	ABSORBANCE
549.8	0.002157
559.445	0.0024954
569.09	0.00276
578.734	0.00294
588.379	0.00268
598.024	0.00329
607.669	0.00378
617.313	0.00295
626.958	0.00334
636.603	0.00259
646.248	0.00287
655.893	0.0017494
665.537	0.0020218
675.182	0.0024329
684.827	0.0026
694.472	0.0024514
704.116	0.0025146
713.761	0.0019719
723.406	0.0019344
733.051	0.0015496
742.695	0.0025172
752.34	0.0017944
761.985	0.0018644
771.63	0.0022497
781.275	0.0022591
790.919	0.00271
800.564	0.0023159
810.209	0.0024013
819.854	0.001307
829.498	0.0019869
839.143	0.0021138
848.788	0.0021827
858.433	0.0019722
868.078	0.0017043
877.722	0.0022795
887.367	0.00157216
897.012	0.0019473
906.657	0.0017863
916.301	0.001286
925.946	0.0019382
935.591	0.0020755
945.236	0.001453
954.88	0.001372
964.525	0.0017439
974.17	0.001172
983.815	0.000958
993.46	0.001325
1003.1	0.001323
1012.75	0.001396
1022.39	0.002474
1032.04	0.0018701
1041.68	0.00161628
1051.33	0.0021786
1060.97	0.001121
1070.62	0.0019301
1080.26	0.00346
1089.91	0.0018086
1099.55	0.00277
1109.2	0.00376
1118.84	0.00527
1128.49	0.00436
1138.13	0.00464
1147.78	0.00849
1157.42	0.00876
1167.07	0.009
1176.71	0.00969
1186.36	0.0099
1196	0.01004
1205.64	0.01201
1215.29	0.01289
1224.93	0.01346
1234.58	0.01004
1244.22	0.0086
1253.87	0.008
1263.51	0.00714
1273.16	0.00711
1282.8	0.00639
1292.45	0.00517
1302.09	0.00484
1311.74	0.00412
1321.38	0.0043
1331.03	0.00421
1340.67	0.00454
1350.32	0.0047
1359.96	0.00492
1369.61	0.00461
1379.25	0.00418
1388.9	0.00306
1398.54	0.00287
1408.18	0.00286
1417.83	0.0025048
1427.47	0.00306
1437.12	0.00283
1446.76	0.00264
1456.41	0.00285
1466.05	0.00301
1475.7	0.00293
1485.34	0.0021437
1494.99	0.0018132
1504.63	0.0017061
1514.28	0.00145
1523.92	0.0014966
1533.57	0.001814
1543.21	0.00159853
1552.86	0.001819
1562.5	0.001436
1572.15	0.0019984
1581.79	0.0019233
1591.44	0.0023107
1601.08	0.0020261
1610.73	0.0021891
1620.37	0.00273
1630.01	0.0024261
1639.66	0.0023464
1649.3	0.0024812
1658.95	0.0023093
1668.59	0.0024647
1678.24	0.0022543
1687.88	0.002472
1697.53	0.00269
1707.17	0.00318
1716.82	0.00331
1726.46	0.00389
1736.11	0.00573
1745.75	0.00814
1755.4	0.00931
1765.04	0.00652
1774.69	0.00427
1784.33	0.003
1793.98	0.00281
1803.62	0.0024401
1813.27	0.0021741
1822.91	0.0019567
1832.55	0.0019011
1842.2	0.0019127
1851.84	0.0019791
1861.49	0.0018528
1871.13	0.0019341
1880.78	0.0018344
1890.42	0.0020044
1900.07	0.00165155
1909.71	0.0016948
1919.36	0.001672
1929	0.001287
1938.65	0.0017623
1948.29	0.0015543
1957.94	0.001365
1967.58	0.0014855
1977.23	0.00157844
1986.87	0.001352
1996.52	0.0014861
2006.16	0.00144
2015.81	0.0015495
2025.45	0.0015449
2035.1	0.001289
2044.74	0.0014703
2054.38	0.001385
2064.03	0.001391
2073.67	0.00158431
2083.32	0.0015192
2092.96	0.00156073
2102.61	0.001254
2112.25	0.00158822
2121.9	0.001412
2131.54	0.0014765
2141.19	0.001445
2150.83	0.0017138
2160.48	0.0018019
2170.12	0.0020448
2179.77	0.0022669
2189.41	0.0024297
2199.06	0.0029
2208.7	0.00343
2218.35	0.00493
2227.99	0.00597
2237.64	0.00889
2247.28	0.01226
2256.92	0.01771
2266.57	0.02242
2276.21	0.0226
2285.86	0.01849
2295.5	0.01202
2305.15	0.00799
2314.79	0.00546
2324.44	0.00439
2334.08	0.00324
2343.73	0.00281
2353.37	0.0023926
2363.02	0.0022737
2372.66	0.0019342
2382.31	0.00141
2391.95	0.001346
2401.6	0.0015022
2411.24	0.0014737
2420.89	0.001232
2430.53	0.001177
2440.18	0.001465
2449.82	0.001252
2459.47	0.001223
2469.11	0.001074
2478.75	0.001004
2488.4	0.001086
2498.04	0.00099
2507.69	0.001176
2517.33	0.001209
2526.98	0.00105
2536.62	0.001109
2546.27	0.000934
2555.91	0.001127
2565.56	0.001234
2575.2	0.000752
2584.85	0.000616
2594.49	0.001022
2604.14	0.000982
2613.78	0.000882
2623.43	0.000865
2633.07	0.000767
2642.72	0.000992
2652.36	0.000839
2662.01	0.00057
2671.65	0.000664
2681.29	0.000667
2690.94	0.000941
2700.58	0.00088
2710.23	0.000788
2719.87	0.00056
2729.52	0.000845
2739.16	0.000856
2748.81	0.0004
2758.45	0.000703
2768.1	0.001129
2777.74	0.000641
2787.39	0.001009
2797.03	0.000848
2806.68	0.000879
2816.32	0.0014797
2825.97	0.001143
2835.61	0.001202
2845.26	0.001318
2854.9	0.00138
2864.55	0.0017092
2874.19	0.0022452
2883.84	0.0020049
2893.48	0.0024427
2903.12	0.0018282
2912.77	0.002351
2922.41	0.00317
2932.06	0.00346
2941.7	0.00505
2951.35	0.00565
2960.99	0.00459
2970.64	0.0042
2980.28	0.00362
2989.93	0.00288
2999.57	0.0025106
3009.22	0.0019402
3018.86	0.00164873
3028.51	0.001328
3038.15	0.001113
3047.8	0.000769
3057.44	0.001056
3067.09	0.00055
3076.73	0.001287
3086.38	0.0015175
3096.02	0.001116
3105.67	0.001154
3115.31	0.001347
3124.95	0.001103
3134.6	0.00135
3144.24	0.000786
3153.89	0.001178
3163.53	0.001106
3173.18	0.001163
3182.82	0.001321
3192.47	0.000977
3202.11	0.001064
3211.76	0.0015045
3221.4	0.001222
3231.05	0.00135
3240.69	0.001341
3250.34	0.00057
3259.98	0.001149
3269.63	0.001116
3279.27	0.001256
3288.92	0.001416
3298.56	0.001005
3308.21	0.00105
3317.85	0.00129
3327.49	0.001096
3337.14	0.001397
3346.78	0.001136
3356.43	0.000862
3366.07	0.00166052
3375.72	0.0015194
3385.36	0.00158086
3395.01	0.001417
3404.65	0.000873
3414.3	0.000822
3423.94	0.00156615
3433.59	0.0018076
3443.23	0.001361
3452.88	0.00056
3462.52	0.0023384
3472.17	0.001555
3481.81	0.0021062
3491.46	0.0019571
3501.1	0.0018232
3510.75	0.0020793
3520.39	0.0020986
3530.04	0.001393
3539.68	0.0019557
3549.32	0.001264
3558.97	0.0021327
3568.61	0.0017993
3578.26	0.001394
3587.9	0.0014967
3597.55	0.0015137
3607.19	0.001374
3616.84	0.0020607
3626.48	0.0017894
3636.13	0.00163909
3645.77	0.001274
3655.42	0.0017159
3665.06	0.001465
3674.71	0.001256
3684.35	0.0025603
3694	0.0015338
3703.64	0.00096
3713.29	0.00092
3722.93	0.001108
3732.58	0.0017633
3742.22	0.0012
3751.86	0.001127
3761.51	0.001427
3771.15	0.001058
3780.8	0.001353
3790.44	0.00097
3800.09	0.00157352
3809.73	0.0019619
3819.38	0.00141
3829.02	0.001202
3838.67	0.001337
3848.31	0.000781
3857.96	0.00164378
3867.6	0.00031
3877.25	0.0016793
3886.89	0.000874
3896.54	0.00078
3906.18	0.001419
3915.83	0.001098
3925.47	0.001097
3935.12	0.0015191
3944.76	0.001421
3954.41	0.001012
3964.05	0.000919
3973.69	0.00157508
3983.34	0.0022929
3992.98	0.001739
