Infrared Spectrum: 6-Methyl-2-heptyne
Formula: C 8 H 14
CAS: 51065-64-6
State: gas
Instrument: HP-GC/MS/IRD
Origin: NIST Mass Spectrometry Data Center
1/CM	ABSORBANCE
550	0.00063
562	0.0005148
574	0.0004176
586	0.0003276
598	0.0002916
610	0.0001152
622	0.000108
634	2.88e-05
646	6.84e-05
658	7.56e-05
670	0.0001332
682	0.0001152
694	0.0001908
706	0.0001044
718	0.0001188
730	0.000108
742	0.0002232
754	0.0002448
766	0.000234
778	0.0002016
790	0.000198
802	0.0001116
814	0.0001368
826	0.0001116
838	0.0001044
850	0.0001404
862	0.0001908
874	0.0002844
886	0.0002988
898	0.0002628
910	0.0003132
922	0.0004392
934	0.000432
946	0.0002628
958	0.0002664
970	0.000288
982	0.0002916
994	0.00036
1006	0.000432
1018	0.0004464
1030	0.0002916
1042	0.0002016
1054	0.0001872
1066	0.0002448
1078	0.000288
1090	0.0003312
1102	0.0005184
1114	0.0006264
1126	0.0005544
1138	0.0004932
1150	0.0006516
1162	0.0011304
1174	0.0010944
1186	0.0005184
1198	0.0004752
1210	0.0005328
1222	0.0004896
1234	0.0004752
1246	0.0006444
1258	0.000774
1270	0.0006876
1282	0.00072
1294	0.0010188
1306	0.0016128
1318	0.00252
1330	0.00279
1342	0.0023508
1354	0.002898
1366	0.0038412
1378	0.004842
1390	0.0043056
1402	0.0021852
1414	0.0017136
1426	0.0022248
1438	0.0034524
1450	0.00432
1462	0.0050004
1474	0.0045072
1486	0.0027612
1498	0.0017316
1510	0.0012708
1522	0.0009648
1534	0.00081
1546	0.0007344
1558	0.0007128
1570	0.000522
1582	0.0004212
1594	0.0003564
1606	0.0003168
1618	0.0003168
1630	0.0002376
1642	0.0002196
1654	0.000324
1666	0.0002124
1678	0.0002052
1690	0.0001548
1702	0.0002124
1714	0.0001836
1726	0.000108
1738	0.0001152
1750	0.0001008
1762	7.56e-05
1774	0.0001188
1786	6.48e-05
1798	5.76e-05
1810	5.76e-05
1822	4.68e-05
1834	7.2e-05
1846	0.0001008
1858	5.04e-05
1870	6.84e-05
1882	3.96e-05
1894	5.04e-05
1906	3.96e-05
1918	3.24e-05
1930	7.2e-06
1942	2.52e-05
1954	7.2e-06
1966	2.52e-05
1978	1.08e-05
1990	2.52e-05
2002	1.8e-05
2014	3.24e-05
2026	3.96e-05
2038	9.36e-05
2050	0.0001764
2062	0.0001404
2074	6.48e-05
2086	3.96e-05
2098	2.88e-05
2110	4.32e-05
2122	1.44e-05
2134	2.16e-05
2146	2.16e-05
2158	1.08e-05
2170	2.88e-05
2182	4.68e-05
2194	2.16e-05
2206	4.68e-05
2218	5.76e-05
2230	7.2e-05
2242	3.96e-05
2254	3.96e-05
2266	7.92e-05
2278	4.68e-05
2290	5.76e-05
2302	7.56e-05
2314	5.04e-05
2326	0.000108
2338	7.2e-05
2350	8.64e-05
2362	0.000108
2374	9.36e-05
2386	0.000108
2398	0.0001188
2410	0.0001548
2422	0.0001728
2434	0.0001692
2446	0.000162
2458	0.0001656
2470	0.0001944
2482	0.000198
2494	0.0001944
2506	0.0002016
2518	0.0001872
2530	0.0001836
2542	0.0002088
2554	0.000216
2566	0.0002232
2578	0.0002808
2590	0.0003132
2602	0.0003348
2614	0.0003168
2626	0.000378
2638	0.000396
2650	0.000432
2662	0.0004104
2674	0.000432
2686	0.0004464
2698	0.0004752
2710	0.0005508
2722	0.0006948
2734	0.0009432
2746	0.0010908
2758	0.0010044
2770	0.0008928
2782	0.000918
2794	0.0010692
2806	0.0013212
2818	0.0017028
2830	0.0023652
2842	0.0040104
2854	0.0073908
2866	0.0120312
2878	0.0153036
2890	0.0138996
2902	0.0141732
2914	0.0208332
2926	0.0319212
2938	0.035748
2950	0.0303984
2962	0.0347868
2974	0.0262728
2986	0.0097488
2998	0.0045072
3010	0.0030204
3022	0.0021672
3034	0.0020304
3046	0.001476
3058	0.0013896
3070	0.0011376
3082	0.0009864
3094	0.0009288
3106	0.0007416
3118	0.0006876
3130	0.0006264
3142	0.0006336
3154	0.0006228
3166	0.0005868
3178	0.0005976
3190	0.0005256
3202	0.0004536
3214	0.0003384
3226	0.0002556
3238	0.000216
3250	0.00018
3262	0.0001404
3274	0.0001692
3286	0.0001764
3298	0.0001512
3310	0.0001944
3322	0.0002628
3334	0.0002772
3346	0.0002448
3358	0.0002232
3370	0.0001692
3382	0.0002088
3394	0.0001548
3406	0.000126
3418	0.0001044
3430	0.0001368
3442	0.0001476
3454	0.0001368
3466	0.0001476
3478	0.0001368
3490	7.2e-05
3502	5.76e-05
3514	5.76e-05
3526	4.32e-05
3538	5.04e-05
3550	2.52e-05
3562	0.0001044
3574	5.76e-05
3586	8.64e-05
3598	5.76e-05
3610	0.000108
3622	5.76e-05
3634	8.64e-05
3646	0.0001764
3658	7.56e-05
3670	0.000108
3682	0.0001404
3694	0.0001152
3706	9e-05
3718	6.48e-05
3730	0.0001584
3742	0.0001656
3754	0.0001188
3766	0.0001404
3778	6.12e-05
3790	0.0001188
3802	0.0002304
3814	0.0001836
3826	0.0002088
3838	0.0002628
