Infrared Spectrum: 1,2-DISTEARIN
Formula: C39 H76 O5
CAS: 51063-97-9
State: SOLID
Melting point: 69-69.5 C
Class: COBLENTZ
Instrument: PERKIN-ELMER
Sampling: TRANSMISSION
Path length: FILM
Resolution: 4
Origin: HORMEL INSTITUTE
MICROMETERS	TRANSMITTANCE
2.007	0.788
2.04084	0.792
2.07467	0.795
2.10851	0.798
2.14235	0.798
2.17618	0.802
2.21002	0.807
2.24386	0.805
2.27769	0.798
2.31153	0.768
2.34537	0.782
2.3792	0.78
2.41304	0.782
2.44688	0.792
2.48072	0.802
2.51455	0.809
2.54839	0.812
2.58223	0.814
2.61606	0.817
2.6499	0.824
2.68374	0.827
2.71757	0.829
2.75141	0.824
2.78525	0.802
2.81908	0.739
2.85292	0.64
2.88676	0.596
2.92059	0.581
2.95443	0.596
2.98827	0.63
3.0221	0.663
3.05594	0.702
3.08978	0.729
3.12361	0.755
3.15745	0.771
3.19129	0.783
3.22512	0.78
3.25896	0.76
3.2928	0.726
3.32663	0.667
3.36047	0.511
3.39431	0.207
3.42815	0.079
3.46198	0.089
3.49582	0.199
3.52966	0.106
3.56349	0.663
3.59733	0.778
3.63117	0.827
3.665	0.837
3.69884	0.851
3.73268	0.859
3.76651	0.851
3.80035	0.854
3.83419	0.861
3.86802	0.873
3.90186	0.881
3.9357	0.888
3.96953	0.893
4.00337	0.893
4.03721	0.896
4.07104	0.898
4.10488	0.898
4.13872	0.898
4.17255	0.898
4.20639	0.898
4.24023	0.895
4.27406	0.888
4.3079	0.886
4.34174	0.891
4.37558	0.896
4.40941	0.898
4.44325	0.9
4.47709	0.902
4.51092	0.905
4.54476	0.905
4.5786	0.905
4.61243	0.903
4.64627	0.902
4.68011	0.903
4.71394	0.903
4.74778	0.902
4.78162	0.9
4.81545	0.902
4.84929	0.902
4.88313	0.9
4.91696	0.896
4.9508	0.893
4.98464	0.9
5.01847	0.905
5.05231	0.905
5.08615	0.905
5.11998	0.903
5.15382	0.903
5.18766	0.903
5.22149	0.903
5.25533	0.9
5.28917	0.902
5.32301	0.902
5.35684	0.903
5.39068	0.9
5.42452	0.896
5.45835	0.891
5.49219	0.883
5.52603	0.873
5.55986	0.853
5.5937	0.832
5.62754	0.792
5.66137	0.692
5.69521	0.403
5.72905	0.14
5.76288	0.091
5.79672	0.17
5.83056	0.319
5.86439	0.481
5.89823	0.701
5.93207	0.8
5.9659	0.837
5.99974	0.866
6.03358	0.875
6.06741	0.883
6.10125	0.888
6.13509	0.891
6.16892	0.895
6.20276	0.893
6.2366	0.895
6.27044	0.895
6.30427	0.896
6.33811	0.896
6.37195	0.895
6.40578	0.895
6.43962	0.89
6.47346	0.888
6.50729	0.888
6.54113	0.886
6.57497	0.88
6.6088	0.873
6.64264	0.856
6.67648	0.836
6.71031	0.8
6.74415	0.702
6.77799	0.461
6.81182	0.192
6.84566	0.447
6.8795	0.581
6.91333	0.641
6.94717	0.665
6.98101	0.672
7.01484	0.614
7.04868	0.564
7.08252	0.621
7.11635	0.609
7.15019	0.581
7.18403	0.518
7.21787	0.461
7.2517	0.474
7.28554	0.53
7.31938	0.548
7.35321	0.555
7.38705	0.567
7.42089	0.554
7.45472	0.562
7.48856	0.533
7.5224	0.554
7.55623	0.586
7.59007	0.543
7.62391	0.53
7.65774	0.542
7.69158	0.51
7.72542	0.451
7.75925	0.479
7.79309	0.493
7.82693	0.425
7.86076	0.41
7.8946	0.462
7.92844	0.425
7.96227	0.324
7.99611	0.425
8.02995	0.461
8.06378	0.381
8.09762	0.324
8.13146	0.459
8.1653	0.442
8.19913	0.351
8.23297	0.3
8.26681	0.43
8.30064	0.391
8.33448	0.268
8.36832	0.224
8.40215	0.285
8.43599	0.221
8.46983	0.163
8.50366	0.163
8.5375	0.177
8.57134	0.217
8.60517	0.277
8.63901	0.364
8.67285	0.452
8.70668	0.527
8.74052	0.565
8.77436	0.594
8.80819	0.609
8.84203	0.603
8.87587	0.591
8.9097	0.55
8.94354	0.491
8.97738	0.461
9.01122	0.444
9.04505	0.434
9.07889	0.442
9.11273	0.472
9.14656	0.545
9.1804	0.601
9.21424	0.621
9.24807	0.616
9.28191	0.601
9.31575	0.582
9.34958	0.569
9.38342	0.552
9.41726	0.542
9.45109	0.55
9.48493	0.564
9.51877	0.569
9.5526	0.569
9.58644	0.576
9.62028	0.589
9.65411	0.611
9.68795	0.631
9.72179	0.653
9.75562	0.67
9.78946	0.685
9.8233	0.695
9.85713	0.699
9.89097	0.701
9.92481	0.709
9.95865	0.712
9.99248	0.716
10.0263	0.711
10.0602	0.704
10.094	0.701
10.1278	0.699
10.1617	0.702
10.1955	0.719
10.2293	0.734
10.2632	0.753
10.297	0.76
10.3308	0.76
10.3647	0.756
10.3985	0.743
10.4324	0.733
10.4662	0.724
10.5	0.729
10.5339	0.734
10.5677	0.746
10.6015	0.753
10.6354	0.756
10.6692	0.76
10.7031	0.766
10.7369	0.78
10.7707	0.787
10.8046	0.792
10.8384	0.795
10.8722	0.8
10.9061	0.8
10.9399	0.802
10.9737	0.802
11.0076	0.802
11.0414	0.802
11.0753	0.802
11.1091	0.802
11.1429	0.797
11.1768	0.792
11.2106	0.783
11.2444	0.778
11.2783	0.785
11.3121	0.79
11.346	0.788
11.3798	0.78
11.4136	0.782
11.4475	0.793
11.4813	0.804
11.5151	0.814
11.549	0.819
11.5828	0.824
11.6166	0.824
11.6505	0.824
11.6843	0.826
11.7182	0.826
11.752	0.826
11.7858	0.824
11.8197	0.815
11.8535	0.814
11.8873	0.812
11.9212	0.815
11.955	0.819
11.9889	0.824
12.0227	0.827
12.0565	0.829
12.0904	0.831
12.1242	0.841
12.158	0.849
12.1919	0.853
12.2257	0.854
12.2595	0.853
12.2934	0.842
12.3272	0.839
12.3611	0.844
12.3949	0.853
12.4287	0.859
12.4626	0.863
12.4964	0.869
12.5302	0.869
12.5641	0.866
12.5979	0.863
12.6318	0.861
12.6656	0.861
12.6994	0.859
12.7333	0.853
12.7671	0.847
12.8009	0.851
12.8348	0.854
12.8686	0.858
12.9024	0.858
12.9363	0.853
12.9701	0.844
13.004	0.842
13.0378	0.839
13.0716	0.831
13.1055	0.822
13.1393	0.809
13.1731	0.819
13.207	0.831
13.2408	0.837
13.2747	0.841
13.3085	0.837
13.3423	0.831
13.3762	0.827
13.41	0.822
13.4438	0.819
13.4777	0.814
13.5115	0.802
13.5453	0.787
13.5792	0.77
13.613	0.758
13.6469	0.746
13.6807	0.734
13.7145	0.697
13.7484	0.635
13.7822	0.55
13.816	0.469
13.8499	0.418
13.8837	0.432
13.9175	0.542
13.9514	0.655
13.9852	0.719
14.0191	0.76
14.0529	0.782
14.0867	0.795
14.1206	0.805
14.1544	0.817
14.1882	0.82
14.2221	0.827
14.2559	0.837
14.2898	0.842
14.3236	0.846
14.3574	0.847
14.3913	0.854
14.4251	0.858
14.4589	0.858
14.4928	0.858
14.5266	0.859
14.5604	0.863
14.5943	0.866
14.6281	0.869
14.662	0.871
14.6958	0.871
14.7296	0.871
14.7635	0.875
14.7973	0.876
14.8311	0.88
14.865	0.881
14.8988	0.881
14.9327	0.883
14.9665	0.886
15.0003	0.891
15.0342	0.893
15.068	0.886
