Infrared Spectrum: N-L-BENZOYL LYSINE
Formula: C13 H18 N2 O3
CAS: 5107-18-6
State: SOLID (MINERAL OIL MULL)
Melting point: 271-272 C
Class: COBLENTZ
Instrument: Not specified, most likely a prism, grating, or hybrid spectrometer.
Sampling: TRANSMISSION
Resolution: 4
Origin: DOW CHEMICAL COMPANY
MICROMETERS	TRANSMITTANCE
2.007	0.643
2.04805	0.647
2.08911	0.655
2.13016	0.664
2.17122	0.667
2.21227	0.667
2.25332	0.669
2.29438	0.674
2.33543	0.683
2.37649	0.688
2.41754	0.691
2.4586	0.701
2.49965	0.73
2.5407	0.742
2.58176	0.747
2.62281	0.77
2.66387	0.771
2.70492	0.778
2.74597	0.781
2.78703	0.785
2.82808	0.788
2.86914	0.792
2.91019	0.792
2.95124	0.689
2.9923	0.485
3.03335	0.383
3.07441	0.608
3.11546	0.623
3.15652	0.562
3.19757	0.558
3.23862	0.545
3.27968	0.488
3.32073	0.444
3.36179	0.195
3.40284	0.034
3.44389	0.056
3.48495	0.081
3.526	0.311
3.56706	0.403
3.60811	0.448
3.64916	0.453
3.69022	0.456
3.73127	0.48
3.77233	0.497
3.81338	0.499
3.85443	0.492
3.89549	0.492
3.93654	0.502
3.9776	0.531
4.01865	0.562
4.05971	0.601
4.10076	0.652
4.14181	0.688
4.18287	0.698
4.22392	0.713
4.26498	0.737
4.30603	0.776
4.34708	0.788
4.38814	0.785
4.42919	0.788
4.47025	0.788
4.5113	0.781
4.55235	0.761
4.59341	0.741
4.63446	0.732
4.67552	0.752
4.71657	0.785
4.75763	0.804
4.79868	0.836
4.83973	0.853
4.88079	0.868
4.92184	0.885
4.9629	0.892
5.00395	0.894
5.045	0.904
5.08606	0.904
5.12711	0.899
5.16817	0.911
5.20922	0.913
5.25027	0.913
5.29133	0.911
5.33238	0.925
5.37344	0.938
5.41449	0.942
5.45555	0.94
5.4966	0.938
5.53765	0.936
5.57871	0.936
5.61976	0.936
5.66082	0.93
5.70187	0.93
5.74292	0.911
5.78398	0.896
5.82503	0.873
5.86609	0.843
5.90714	0.804
5.94819	0.751
5.98925	0.613
6.0303	0.461
6.07136	0.226
6.11241	0.122
6.15346	0.221
6.19452	0.316
6.23557	0.243
6.27663	0.153
6.31768	0.238
6.35874	0.398
6.39979	0.436
6.44084	0.293
6.4819	0.235
6.52295	0.253
6.56401	0.277
6.60506	0.209
6.64611	0.149
6.68717	0.173
6.72822	0.277
6.76928	0.291
6.81033	0.211
6.85138	0.202
6.89244	0.26
6.93349	0.361
6.97455	0.371
7.0156	0.287
7.05666	0.381
7.09771	0.502
7.13876	0.577
7.17982	0.601
7.22087	0.482
7.26193	0.424
7.30298	0.465
7.34403	0.432
7.38509	0.339
7.42614	0.454
7.4672	0.439
7.50825	0.344
7.5493	0.308
7.59036	0.374
7.63141	0.42
7.67247	0.456
7.71352	0.468
7.75458	0.492
7.79563	0.538
7.83668	0.589
7.87774	0.66
7.91879	0.691
7.95985	0.689
8.0009	0.679
8.04195	0.7
8.08301	0.741
8.12406	0.722
8.16512	0.679
8.20617	0.706
8.24722	0.749
8.28828	0.737
8.32933	0.734
8.37039	0.764
8.41144	0.781
8.45249	0.783
8.49355	0.785
8.5346	0.776
8.57566	0.732
8.61671	0.701
8.65777	0.722
8.69882	0.764
8.73987	0.781
8.78093	0.763
8.82198	0.751
8.86304	0.781
8.90409	0.807
8.94514	0.816
8.9862	0.802
9.02725	0.814
9.06831	0.821
9.10936	0.819
9.15041	0.816
9.19147	0.829
9.23252	0.824
9.27358	0.768
9.31463	0.739
9.35569	0.766
9.39674	0.8
9.43779	0.81
9.47885	0.812
9.5199	0.834
9.56096	0.831
9.60201	0.812
9.64306	0.816
9.68412	0.819
9.72517	0.833
9.76623	0.844
9.80728	0.853
9.84833	0.863
9.88939	0.87
9.93044	0.88
9.9715	0.88
10.0126	0.877
10.0536	0.879
10.0947	0.875
10.1357	0.846
10.1768	0.843
10.2178	0.838
10.2589	0.831
10.2999	0.831
10.341	0.839
10.382	0.855
10.4231	0.867
10.4641	0.872
10.5052	0.872
10.5463	0.865
10.5873	0.865
10.6284	0.863
10.6694	0.863
10.7105	0.853
10.7515	0.841
10.7926	0.836
10.8336	0.838
10.8747	0.841
10.9157	0.856
10.9568	0.875
10.9978	0.887
11.0389	0.894
11.08	0.892
11.121	0.892
11.1621	0.892
11.2031	0.892
11.2442	0.889
11.2852	0.879
11.3263	0.862
11.3673	0.841
11.4084	0.822
11.4494	0.812
11.4905	0.781
11.5316	0.766
11.5726	0.764
11.6137	0.759
11.6547	0.768
11.6958	0.793
11.7368	0.797
11.7779	0.816
11.8189	0.855
11.86	0.873
11.901	0.885
11.9421	0.89
11.9831	0.892
12.0242	0.894
12.0653	0.894
12.1063	0.896
12.1474	0.896
12.1884	0.89
12.2295	0.875
12.2705	0.858
12.3116	0.829
12.3526	0.822
12.3937	0.834
12.4347	0.831
12.4758	0.788
12.5169	0.725
12.5579	0.693
12.599	0.732
12.64	0.819
12.6811	0.851
12.7221	0.858
12.7632	0.86
12.8042	0.86
12.8453	0.855
12.8863	0.853
12.9274	0.848
12.9684	0.838
13.0095	0.822
13.0506	0.81
13.0916	0.79
13.1327	0.78
13.1737	0.776
13.2148	0.77
13.2558	0.764
13.2969	0.763
13.3379	0.764
13.379	0.732
13.42	0.7
13.4611	0.676
13.5022	0.679
13.5432	0.695
13.5843	0.71
13.6253	0.717
13.6664	0.715
13.7074	0.7
13.7485	0.676
13.7895	0.614
13.8306	0.562
13.8716	0.526
13.9127	0.521
13.9537	0.531
13.9948	0.545
14.0359	0.553
14.0769	0.557
14.118	0.557
14.159	0.548
14.2001	0.526
14.2411	0.487
14.2822	0.454
14.3232	0.413
14.3643	0.366
14.4053	0.306
14.4464	0.274
14.4874	0.27
14.5285	0.293
14.5696	0.328
14.6106	0.342
14.6517	0.356
14.6927	0.361
14.7338	0.362
14.7748	0.366
14.8159	0.369
14.8569	0.369
14.898	0.373
14.939	0.378
14.9801	0.386
15.0212	0.4
15.0622	0.4
15.1033	0.396
15.1443	0.388
15.1854	0.383
15.2264	0.379
15.2675	0.376
15.3085	0.374
15.3496	0.374
15.3906	0.376
15.4317	0.378
15.4727	0.378
15.5138	0.378
15.5549	0.379
15.5959	0.381
15.637	0.381
15.678	0.381
15.7191	0.383
15.7601	0.385
15.8012	0.386
15.8422	0.39
15.8833	0.393
