Infrared Spectrum: 5,5-DIBROMOBARBITURIC ACID
Formula: C4 H2 Br2 N2 O3
CAS: 511-67-1
State: SOLID (MINERAL OIL MULL)
Melting point: 235 C (DECOMPOSES)
Class: COBLENTZ
Instrument: Not specified, most likely a prism, grating, or hybrid spectrometer.
Sampling: TRANSMISSION
Resolution: 4
Origin: WYANDOTTE CHEMICALS CORP., WYANDOTTE, MICHIGAN, USA
MICROMETERS	TRANSMITTANCE
2.019	0.329
2.05622	0.342
2.09343	0.349
2.13065	0.34
2.16786	0.346
2.20508	0.356
2.2423	0.342
2.27951	0.353
2.31673	0.362
2.35394	0.357
2.39116	0.371
2.42838	0.388
2.46559	0.387
2.50281	0.381
2.54002	0.395
2.57724	0.413
2.61446	0.407
2.65167	0.438
2.68889	0.451
2.7261	0.455
2.76332	0.458
2.80054	0.451
2.83775	0.449
2.87497	0.404
2.91218	0.393
2.9494	0.415
2.98662	0.429
3.02383	0.247
3.06105	0.222
3.09826	0.133
3.13548	0.091
3.1727	0.102
3.20991	0.073
3.24713	0.068
3.28434	0.065
3.32156	0.065
3.35877	0.034
3.39599	0.032
3.43321	0.027
3.47042	0.032
3.50764	0.043
3.54485	0.11
3.58207	0.18
3.61929	0.23
3.6565	0.261
3.69372	0.286
3.73093	0.306
3.76815	0.318
3.80537	0.343
3.84258	0.357
3.8798	0.376
3.91701	0.405
3.95423	0.401
3.99145	0.421
4.02866	0.405
4.06588	0.419
4.10309	0.443
4.14031	0.451
4.17753	0.472
4.21474	0.485
4.25196	0.477
4.28917	0.497
4.32639	0.511
4.36361	0.556
4.40082	0.584
4.43804	0.589
4.47525	0.601
4.51247	0.609
4.54969	0.622
4.5869	0.636
4.62412	0.659
4.66133	0.674
4.69855	0.698
4.73577	0.698
4.77298	0.704
4.8102	0.692
4.84741	0.716
4.88463	0.782
4.92185	0.799
4.95906	0.808
4.99628	0.821
5.03349	0.825
5.07071	0.867
5.10793	0.895
5.14514	0.839
5.18236	0.875
5.21957	0.86
5.25679	0.853
5.29401	0.85
5.33122	0.939
5.36844	0.931
5.40565	0.877
5.44287	0.785
5.48009	0.678
5.5173	0.534
5.55452	0.396
5.59173	0.281
5.62895	0.164
5.66617	0.101
5.70338	0.077
5.7406	0.062
5.77781	0.055
5.81503	0.052
5.85225	0.052
5.88946	0.054
5.92668	0.057
5.96389	0.076
6.00111	0.08
6.03832	0.088
6.07554	0.102
6.11276	0.111
6.14997	0.13
6.18719	0.15
6.2244	0.158
6.26162	0.188
6.29884	0.202
6.33605	0.217
6.37327	0.208
6.41048	0.188
6.4477	0.205
6.48492	0.259
6.52213	0.269
6.55935	0.297
6.59656	0.287
6.63378	0.289
6.671	0.303
6.70821	0.275
6.74543	0.197
6.78264	0.076
6.81986	0.063
6.85708	0.049
6.89429	0.059
6.93151	0.059
6.96872	0.082
7.00594	0.093
7.04316	0.076
7.08037	0.077
7.11759	0.071
7.1548	0.083
7.19202	0.066
7.22924	0.063
7.26645	0.052
7.30367	0.055
7.34088	0.069
7.3781	0.057
7.41532	0.049
7.45253	0.052
7.48975	0.054
7.52696	0.054
7.56418	0.068
7.6014	0.09
7.63861	0.104
7.67583	0.125
7.71304	0.146
7.75026	0.158
7.78748	0.167
7.82469	0.178
7.86191	0.164
7.89912	0.149
7.93634	0.118
7.97356	0.097
8.01077	0.121
8.04799	0.13
8.0852	0.108
8.12242	0.094
8.15964	0.073
8.19685	0.104
8.23407	0.143
8.27128	0.186
8.3085	0.214
8.34572	0.248
8.38293	0.276
8.42015	0.287
8.45736	0.303
8.49458	0.314
8.5318	0.331
8.56901	0.343
8.60623	0.356
8.64344	0.357
8.68066	0.377
8.71787	0.402
8.75509	0.419
8.79231	0.441
8.82952	0.437
8.86674	0.437
8.90395	0.421
8.94117	0.396
8.97839	0.351
9.0156	0.368
9.05282	0.388
9.09003	0.398
9.12725	0.405
9.16447	0.41
9.20168	0.413
9.2389	0.421
9.27611	0.432
9.31333	0.446
9.35055	0.465
9.38776	0.472
9.42498	0.488
9.46219	0.477
9.49941	0.36
9.53663	0.314
9.57384	0.25
9.61106	0.253
9.64827	0.312
9.68549	0.374
9.72271	0.402
9.75992	0.423
9.79714	0.443
9.83435	0.454
9.87157	0.461
9.90879	0.452
9.946	0.452
9.98322	0.458
10.0204	0.415
10.0576	0.458
10.0949	0.475
10.1321	0.483
10.1693	0.488
10.2065	0.48
10.2437	0.446
10.2809	0.412
10.3182	0.41
10.3554	0.435
10.3926	0.447
10.4298	0.46
10.467	0.472
10.5042	0.494
10.5415	0.513
10.5787	0.524
10.6159	0.531
10.6531	0.531
10.6903	0.531
10.7275	0.527
10.7648	0.531
10.802	0.533
10.8392	0.531
10.8764	0.538
10.9136	0.533
10.9508	0.528
10.988	0.53
11.0253	0.528
11.0625	0.528
11.0997	0.51
11.1369	0.5
11.1741	0.489
11.2113	0.475
11.2486	0.46
11.2858	0.451
11.323	0.438
11.3602	0.413
11.3974	0.404
11.4346	0.384
11.4719	0.357
11.5091	0.334
11.5463	0.3
11.5835	0.275
11.6207	0.25
11.6579	0.214
11.6952	0.188
11.7324	0.161
11.7696	0.139
11.8068	0.121
11.844	0.111
11.8812	0.102
11.9184	0.09
11.9557	0.088
11.9929	0.088
12.0301	0.09
12.0673	0.091
12.1045	0.101
12.1417	0.111
12.179	0.121
12.2162	0.122
12.2534	0.119
12.2906	0.099
12.3278	0.096
12.365	0.102
12.4023	0.124
12.4395	0.144
12.4767	0.158
12.5139	0.164
12.5511	0.177
12.5883	0.188
12.6256	0.189
12.6628	0.199
12.7	0.203
12.7372	0.197
12.7744	0.205
12.8116	0.203
12.8488	0.205
12.8861	0.211
12.9233	0.219
12.9605	0.22
12.9977	0.228
13.0349	0.231
13.0721	0.231
13.1094	0.25
13.1466	0.256
13.1838	0.259
13.221	0.262
13.2582	0.251
13.2954	0.22
13.3327	0.192
13.3699	0.23
13.4071	0.303
13.4443	0.37
13.4815	0.412
13.5187	0.438
13.556	0.444
13.5932	0.438
13.6304	0.424
13.6676	0.416
13.7048	0.409
13.742	0.405
13.7792	0.415
13.8165	0.404
13.8537	0.396
13.8909	0.384
13.9281	0.377
13.9653	0.354
14.0025	0.34
14.0398	0.321
14.077	0.3
14.1142	0.312
14.1514	0.337
14.1886	0.36
14.2258	0.382
14.2631	0.416
14.3003	0.433
14.3375	0.468
14.3747	0.479
14.4119	0.483
14.4491	0.483
14.4864	0.466
14.5236	0.447
14.5608	0.429
14.598	0.41
14.6352	0.401
14.6724	0.359
14.7096	0.314
14.7469	0.251
14.7841	0.209
14.8213	0.188
14.8585	0.166
14.8957	0.169
14.9329	0.167
14.9702	0.2
15.0074	0.237
15.0446	0.278
15.0818	0.335
15.119	0.368
15.1562	0.385
15.1935	0.393
15.2307	0.391
15.2679	0.39
15.3051	0.388
15.3423	0.379
15.3795	0.363
15.4167	0.348
15.454	0.343
15.4912	0.34
15.5284	0.337
15.5656	0.337
15.6028	0.34
15.64	0.339
15.6773	0.337
15.7145	0.337
15.7517	0.342
15.7889	0.343
15.8261	0.342
15.8633	0.348
15.9006	0.345
15.9378	0.339
15.975	0.331
