Infrared Spectrum: 1,4-Bis(heptafluoroisopropyl)benzene
Formula: C 12 H 4 F 14
CAS: 51114-12-6
State: gas
Origin: EPA-IR VAPOR PHASE LIBRARY
1/CM	ABSORBANCE
549.8	0.009123
559.445	0.007723
569.09	0.005083
578.734	0.003023
588.379	0.0017412
598.024	0.0016673
607.669	0.002353
617.313	0.003063
626.958	0.004523
636.603	0.002603
646.248	0.001963
655.893	0.0017455
665.537	0.0013349
675.182	0.001973
684.827	0.002903
694.472	0.006073
704.116	0.006353
713.761	0.029663
723.406	0.154023
733.051	0.023953
742.695	0.009523
752.34	0.059153
761.985	0.011513
771.63	0.004303
781.275	0.003443
790.919	0.002783
800.564	0.003163
810.209	0.003023
819.854	0.015053
829.498	0.054213
839.143	0.012783
848.788	0.004073
858.433	0.003493
868.078	0.002633
877.722	0.003503
887.367	0.003973
897.012	0.003903
906.657	0.005723
916.301	0.008553
925.946	0.013063
935.591	0.024543
945.236	0.098023
954.88	0.193203
964.525	0.073013
974.17	0.093203
983.815	0.211663
993.46	0.090393
1003.1	0.029763
1012.75	0.014943
1022.39	0.011053
1032.04	0.009443
1041.68	0.006813
1051.33	0.007553
1060.97	0.006323
1070.62	0.010203
1080.26	0.016513
1089.91	0.049533
1099.55	0.081103
1109.2	0.064713
1118.84	0.026343
1128.49	0.018053
1138.13	0.020253
1147.78	0.029523
1157.42	0.033263
1167.07	0.070403
1176.71	0.087503
1186.36	0.048753
1196	0.093613
1205.64	0.241273
1215.29	0.500353
1224.93	0.567603
1234.58	0.651063
1244.22	0.299933
1253.87	0.227843
1263.51	0.284433
1273.16	0.352293
1282.8	0.305043
1292.45	0.275503
1302.09	0.394923
1311.74	0.206233
1321.38	0.075313
1331.03	0.040163
1340.67	0.021213
1350.32	0.011503
1359.96	0.008003
1369.61	0.006443
1379.25	0.005943
1388.9	0.005443
1398.54	0.004353
1408.18	0.003613
1417.83	0.004803
1427.47	0.004813
1437.12	0.002993
1446.76	0.002733
1456.41	0.002713
1466.05	0.002943
1475.7	0.003143
1485.34	0.003423
1494.99	0.003933
1504.63	0.005513
1514.28	0.010363
1523.92	0.009823
1533.57	0.005633
1543.21	0.003523
1552.86	0.003213
1562.5	0.002843
1572.15	0.003043
1581.79	0.002963
1591.44	0.002763
1601.08	0.002553
1610.73	0.002613
1620.37	0.002463
1630.01	0.002043
1639.66	0.002093
1649.3	0.002203
1658.95	0.003473
1668.59	0.003273
1678.24	0.0017955
1687.88	0.0016865
1697.53	0.0013112
1707.17	0.0013512
1716.82	0.001943
1726.46	0.002003
1736.11	0.002113
1745.75	0.001903
1755.4	0.001933
1765.04	0.0018663
1774.69	0.002053
1784.33	0.002143
1793.98	0.002273
1803.62	0.003433
1813.27	0.002633
1822.91	0.0015605
1832.55	0.0014925
1842.2	0.0011961
1851.84	0.0014894
1861.49	0.0012891
1871.13	0.0013557
1880.78	0.0013647
1890.42	0.0015635
1900.07	0.0016218
1909.71	0.002153
1919.36	0.003613
1929	0.003523
1938.65	0.002203
1948.29	0.001903
1957.94	0.0018384
1967.58	0.0015545
1977.23	0.0016304
1986.87	0.001716
1996.52	0.0014712
2006.16	0.0012608
2015.81	0.0010993
2025.45	0.0014132
2035.1	0.0014817
2044.74	0.0012544
2054.38	0.0010829
2064.03	0.0011658
2073.67	0.0011308
2083.32	0.00095003
2092.96	0.000748
2102.61	0.0010397
2112.25	0.0009815
2121.9	0.0013078
2131.54	0.0011469
2141.19	0.0013088
2150.83	0.0016576
2160.48	0.002023
2170.12	0.0018262
2179.77	0.002233
2189.41	0.001993
2199.06	0.002003
2208.7	0.002293
2218.35	0.002143
2227.99	0.002003
2237.64	0.002043
2247.28	0.0018617
2256.92	0.0017362
2266.57	0.001893
2276.21	0.0015017
2285.86	0.0014122
2295.5	0.0016235
2305.15	0.0011231
2314.79	0.0011306
2324.44	0.0017446
2334.08	0.0016398
2343.73	0.002333
2353.37	0.002603
2363.02	0.003053
2372.66	0.003443
2382.31	0.003573
2391.95	0.003583
2401.6	0.002473
2411.24	0.002173
2420.89	0.002443
2430.53	0.002493
2440.18	0.002573
2449.82	0.002803
2459.47	0.002473
2469.11	0.002523
2478.75	0.002423
2488.4	0.002333
2498.04	0.002503
2507.69	0.002373
2517.33	0.002093
2526.98	0.0017493
2536.62	0.0016491
2546.27	0.0010081
2555.91	0.0011065
2565.56	0.00092508
2575.2	0.001415
2584.85	0.0010783
2594.49	0.000742
2604.14	0.000677
2613.78	0.0008247
2623.43	0.0010998
2633.07	0.0008905
2642.72	0.000586
2652.36	0.0008331
2662.01	0.000669
2671.65	0.0008888
2681.29	0.00088966
2690.94	0.0008534
2700.58	0.00095505
2710.23	0.00049
2719.87	0.0012114
2729.52	0.0010133
2739.16	0.0008201
2748.81	0.000683
2758.45	0.00090269
2768.1	0.00089683
2777.74	0.000536
2787.39	0.0009172
2797.03	0.0010028
2806.68	0.0009817
2816.32	0.00089819
2825.97	0.0012603
2835.61	0.000751
2845.26	0.00088564
2854.9	0.00048
2864.55	0.0010888
2874.19	0.0010368
2883.84	0.0010605
2893.48	0.0011158
2903.12	0.00092543
2912.77	0.00088886
2922.41	0.0010582
2932.06	0.001138
2941.7	0.0013242
2951.35	0.00048
2960.99	0.0011083
2970.64	0.000711
2980.28	0.0009662
2989.93	0.00091797
2999.57	0.0010099
3009.22	0.0008176
3018.86	0.0007919
3028.51	0.0010952
3038.15	0.0010971
3047.8	0.0013018
3057.44	0.00099
3067.09	0.0012735
3076.73	0.001913
3086.38	0.0015681
3096.02	0.0010348
3105.67	0.0010373
3115.31	0.0011123
3124.95	0.000557
3134.6	0.00089443
3144.24	0.001263
3153.89	0.000592
3163.53	0.0008695
3173.18	0.0011346
3182.82	0.00095155
3192.47	0.0010839
3202.11	0.0013241
3211.76	0.0010041
3221.4	0.00094575
3231.05	0.0011599
3240.69	0.000595
3250.34	0.000341
3259.98	0.0010412
3269.63	0.0008626
3279.27	0.000880898
3288.92	0.0011876
3298.56	0.0007901
3308.21	0.0008355
3317.85	0.0010278
3327.49	0.00057
3337.14	0.000454
3346.78	0.0016223
3356.43	0.0010616
3366.07	0.000509
3375.72	0.000436
3385.36	0.000413
3395.01	0.0011358
3404.65	0.0010601
3414.3	0.0008467
3423.94	0.00089401
3433.59	0.0008
3443.23	0.0010971
3452.88	0.00073
3462.52	0.00068
3472.17	0.0008463
3481.81	0.000752
3491.46	0.000346
3501.1	0.000765
3510.75	0.00091324
3520.39	0.0011681
3530.04	0.000546
3539.68	0.000725
3549.32	0.0008237
3558.97	0.0008253
3568.61	0.000617
3578.26	0.0008479
3587.9	0.000534
3597.55	0.0012226
3607.19	0.0012587
3616.84	0.000703
3626.48	0.00086757
3636.13	0.000762
3645.77	0.00090653
3655.42	0.0008224
3665.06	0.0010743
3674.71	0.000372
3684.35	0.00089766
3694	0.0013473
3703.64	0.000401
3713.29	0.0010387
3722.93	0.0012705
3732.58	0.0010883
3742.22	0.00097175
3751.86	0.00098
3761.51	0.0011144
3771.15	0.0008612
3780.8	0.0011174
3790.44	0.000474
3800.09	0.0010468
3809.73	0.001016
3819.38	0.0007987
3829.02	0.0011913
3838.67	0.0011779
3848.31	0.000715
3857.96	0.00027
3867.6	0.000469
3877.25	0.000384
3886.89	0.000755
3896.54	0.0010047
3906.18	0.00068
3915.83	0.0009914
3925.47	0.0011347
3935.12	0.000373
3944.76	0.00096201
3954.41	0.00072
3964.05	0.00096275
3973.69	0.0007795
3983.34	0.00086515
3992.98	0.000617
