Infrared Spectrum: 5-Methoxyindane
Formula: C 10 H 12 O
CAS: 5111-69-3
State: gas
Origin: EPA-IR VAPOR PHASE LIBRARY
1/CM	ABSORBANCE
549.8	0.00268
559.445	0.00432
569.09	0.00656
578.734	0.00636
588.379	0.00616
598.024	0.00435
607.669	0.00284
617.313	0.00301
626.958	0.00257
636.603	0.00236
646.248	0.002
655.893	0.00155
665.537	0.00165
675.182	0.00295
684.827	0.00527
694.472	0.00836
704.116	0.0074
713.761	0.00748
723.406	0.01296
733.051	0.01287
742.695	0.00619
752.34	0.00519
761.985	0.00648
771.63	0.00656
781.275	0.00905
790.919	0.01784
800.564	0.02773
810.209	0.03273
819.854	0.02511
829.498	0.02043
839.143	0.02375
848.788	0.02519
858.433	0.0274
868.078	0.02124
877.722	0.01326
887.367	0.0087
897.012	0.00822
906.657	0.00959
916.301	0.01233
925.946	0.00975
935.591	0.00484
945.236	0.00341
954.88	0.00414
964.525	0.00484
974.17	0.00587
983.815	0.00793
993.46	0.00998
1003.1	0.01266
1012.75	0.02022
1022.39	0.04019
1032.04	0.06508
1041.68	0.05755
1051.33	0.03014
1060.97	0.0184
1070.62	0.02213
1080.26	0.04412
1089.91	0.05414
1099.55	0.0392
1109.2	0.02585
1118.84	0.03289
1128.49	0.05106
1138.13	0.07622
1147.78	0.06874
1157.42	0.04524
1167.07	0.03722
1176.71	0.031
1186.36	0.04288
1196	0.04739
1205.64	0.03815
1215.29	0.03495
1224.93	0.04148
1234.58	0.07043
1244.22	0.12813
1253.87	0.16914
1263.51	0.16766
1273.16	0.14
1282.8	0.10941
1292.45	0.08986
1302.09	0.0703
1311.74	0.05034
1321.38	0.04502
1331.03	0.03181
1340.67	0.01374
1350.32	0.009
1359.96	0.00844
1369.61	0.00778
1379.25	0.00692
1388.9	0.00742
1398.54	0.00878
1408.18	0.01313
1417.83	0.02865
1427.47	0.04942
1437.12	0.05379
1446.76	0.04714
1456.41	0.05066
1466.05	0.06642
1475.7	0.10573
1485.34	0.20888
1494.99	0.20622
1504.63	0.07541
1514.28	0.02365
1523.92	0.01355
1533.57	0.01031
1543.21	0.00925
1552.86	0.01035
1562.5	0.0141
1572.15	0.02615
1581.79	0.04334
1591.44	0.05311
1601.08	0.06451
1610.73	0.08018
1620.37	0.06359
1630.01	0.03189
1639.66	0.01598
1649.3	0.0106
1658.95	0.00805
1668.59	0.00622
1678.24	0.00521
1687.88	0.00425
1697.53	0.00424
1707.17	0.00454
1716.82	0.00473
1726.46	0.00453
1736.11	0.00422
1745.75	0.00392
1755.4	0.00308
1765.04	0.00238
1774.69	0.00193
1784.33	0.00232
1793.98	0.00228
1803.62	0.00269
1813.27	0.00282
1822.91	0.0037
1832.55	0.00412
1842.2	0.00462
1851.84	0.00468
1861.49	0.00532
1871.13	0.00482
1880.78	0.0038
1890.42	0.00276
1900.07	0.00242
1909.71	0.0022
1919.36	0.00205
1929	0.00194
1938.65	0.00215
1948.29	0.00214
1957.94	0.00251
1967.58	0.00285
1977.23	0.0035
1986.87	0.00364
1996.52	0.00398
2006.16	0.00399
2015.81	0.0038
2025.45	0.00314
2035.1	0.00388
2044.74	0.00394
2054.38	0.00444
2064.03	0.00456
2073.67	0.00416
2083.32	0.00305
2092.96	0.00251
2102.61	0.00205
2112.25	0.00244
2121.9	0.00252
2131.54	0.00234
2141.19	0.00253
2150.83	0.0027
2160.48	0.00343
2170.12	0.00385
2179.77	0.00382
2189.41	0.00344
2199.06	0.00275
2208.7	0.00268
2218.35	0.00267
2227.99	0.00234
2237.64	0.00209
2247.28	0.00197
2256.92	0.00165
2266.57	0.00176
2276.21	0.00202
2285.86	0.0025
2295.5	0.00278
2305.15	0.00278
2314.79	0.00265
2324.44	0.00256
2334.08	0.00268
2343.73	0.00284
2353.37	0.0025
2363.02	0.00225
2372.66	0.00209
2382.31	0.00189
2391.95	0.00206
2401.6	0.00212
2411.24	0.00207
2420.89	0.00223
2430.53	0.00215
2440.18	0.00224
2449.82	0.00189
2459.47	0.00214
2469.11	0.00212
2478.75	0.002
2488.4	0.00195
2498.04	0.00256
2507.69	0.00263
2517.33	0.00274
2526.98	0.00295
2536.62	0.00243
2546.27	0.0027
2555.91	0.00261
2565.56	0.00261
2575.2	0.0025
2584.85	0.00259
2594.49	0.00262
2604.14	0.00298
2613.78	0.00297
2623.43	0.00266
2633.07	0.00284
2642.72	0.00276
2652.36	0.00262
2662.01	0.00246
2671.65	0.00289
2681.29	0.00255
2690.94	0.00261
2700.58	0.00301
2710.23	0.00342
2719.87	0.00362
2729.52	0.00339
2739.16	0.00368
2748.81	0.00397
2758.45	0.00444
2768.1	0.00499
2777.74	0.0059
2787.39	0.00681
2797.03	0.00865
2806.68	0.01122
2816.32	0.01647
2825.97	0.02696
2835.61	0.05146
2845.26	0.07886
2854.9	0.09022
2864.55	0.08159
2874.19	0.06755
2883.84	0.06284
2893.48	0.06541
2903.12	0.08233
2912.77	0.09827
2922.41	0.10587
2932.06	0.12153
2941.7	0.1607
2951.35	0.197
2960.99	0.19547
2970.64	0.13093
2980.28	0.06961
2989.93	0.05152
2999.57	0.06592
3009.22	0.06311
3018.86	0.04459
3028.51	0.03936
3038.15	0.03076
3047.8	0.02329
3057.44	0.0219
3067.09	0.02362
3076.73	0.02282
3086.38	0.01979
3096.02	0.01545
3105.67	0.01137
3115.31	0.00782
3124.95	0.00599
3134.6	0.00457
3144.24	0.00383
3153.89	0.00321
3163.53	0.00321
3173.18	0.00273
3182.82	0.00217
3192.47	0.00195
3202.11	0.00158
3211.76	0.00172
3221.4	0.00165
3231.05	0.00197
3240.69	0.0012414
3250.34	0.0017
3259.98	0.0007868
3269.63	0.0015122
3279.27	0.0008865
3288.92	0.0008441
3298.56	0.0008687
3308.21	0.0010628
3317.85	0.0008997
3327.49	0.0008205
3337.14	0.0006893
3346.78	0.0010167
3356.43	0.0006818
3366.07	0.0013472
3375.72	0.0010272
3385.36	0.0008178
3395.01	0.00055847
3404.65	0.00055808
3414.3	0.000243
3423.94	0.0008557
3433.59	0.0007699
3443.23	0.000285
3452.88	0.000294
3462.52	0.0007058
3472.17	0.0012847
3481.81	0.0012902
3491.46	0.0010057
3501.1	0.0011225
3510.75	0.0008796
3520.39	0.0010121
3530.04	0.0009004
3539.68	0.0007131
3549.32	0.0009053
3558.97	0.0009258
3568.61	0.0008578
3578.26	0.0014323
3587.9	0.000452
3597.55	0.0006861
3607.19	0.000156
3616.84	0.0009525
3626.48	0.0011941
3636.13	0.0004917
3645.77	0.0005097
3655.42	0.0006912
3665.06	0.0012605
3674.71	0.0010341
3684.35	0.0011053
3694	0.001034
3703.64	0.0010137
3713.29	8e-05
3722.93	0.0009095
3732.58	0.000971
3742.22	0.00155
3751.86	0.00157
3761.51	0.000705
3771.15	0.0014028
3780.8	0.0012361
3790.44	0.0014583
3800.09	0.0008425
3809.73	0.0014725
3819.38	0.0012029
3829.02	0.0009781
3838.67	0.0013714
3848.31	0.0014169
3857.96	0.00176
3867.6	0.00208
3877.25	0.001288
3886.89	0.00185
3896.54	0.00158
3906.18	0.000818
3915.83	0.00171
3925.47	0.00171
3935.12	0.00181
3944.76	0.00187
3954.41	0.00186
3964.05	0.00189
3973.69	0.00159
3983.34	0.00216
3992.98	0.00175
