Infrared Spectrum: DI-M-NITROPHENYL LEAD CHLORIDE
Formula: C12 H8 Cl2 N2 O4 Pb
CAS: 51128-42-8
State: SOLID (1.0% IN KBr PELLET)
Class: COBLENTZ
Instrument: Not specified, most likely a prism, grating, or hybrid spectrometer.
Sampling: TRANSMISSION
Path length: 0.0355 CM THICK
Resolution: 4
Origin: ANDERSON PHYSICAL LABORATORY
1/CM	TRANSMITTANCE
669.476	0.781
677.903	0.78
686.33	0.769
694.757	0.7151
703.184	0.4821
711.611	0.684
720.038	0.3511
728.465	0.582
736.892	0.874
745.319	0.89
753.746	0.898
762.173	0.901
770.6	0.89
779.027	0.877
787.454	0.7632
795.88	0.624
804.307	0.8069
812.734	0.883
821.161	0.886
829.588	0.875
838.015	0.865
846.442	0.834
854.869	0.6173
863.296	0.7049
871.723	0.865
880.15	0.738
888.577	0.804
897.004	0.881
905.431	0.886
913.858	0.878
922.285	0.84
930.712	0.84
939.139	0.872
947.566	0.869
955.993	0.86
964.42	0.847
972.847	0.832
981.274	0.76
989.701	0.499
998.128	0.771
1006.55	0.857
1014.98	0.847
1023.41	0.838
1031.84	0.822
1040.26	0.802
1048.69	0.781
1057.12	0.79
1065.54	0.781
1073.97	0.768
1082.4	0.732
1090.82	0.581
1099.25	0.645
1107.68	0.648
1116.11	0.6379
1124.53	0.769
1132.96	0.796
1141.39	0.802
1149.81	0.805
1158.24	0.775
1166.67	0.742
1175.09	0.774
1183.52	0.79
1191.95	0.789
1200.37	0.795
1208.8	0.796
1217.23	0.793
1225.66	0.786
1234.08	0.772
1242.51	0.757
1250.94	0.733
1259.36	0.707
1267.79	0.683
1276.22	0.5661
1284.64	0.6379
1293.07	0.626
1301.5	0.551
1309.93	0.602
1318.35	0.584
1326.78	0.517
1335.21	0.391
1343.63	0.065
1352.06	0.038
1360.49	0.2698
1368.91	0.6898
1377.34	0.781
1385.77	0.739
1394.2	0.729
1402.62	0.72
1411.05	0.695
1419.48	0.568
1427.9	0.73
1436.33	0.753
1444.76	0.715
1453.18	0.654
1461.61	0.565
1470.04	0.683
1478.46	0.671
1486.89	0.612
1495.32	0.523
1503.75	0.418
1512.17	0.146
1520.6	0.046
1529.03	0.0829
1537.45	0.2888
1545.88	0.6679
1554.31	0.76
1562.73	0.793
1571.16	0.774
1579.59	0.745
1588.02	0.629
1596.44	0.671
1604.87	0.73
1613.3	0.696
1621.72	0.674
1630.15	0.677
1638.58	0.698
1647	0.754
1655.43	0.796
1663.86	0.828
1672.28	0.844
1680.71	0.855
1689.14	0.855
1697.57	0.853
1705.99	0.852
1714.42	0.846
1722.85	0.84
1731.27	0.843
1739.7	0.849
1748.13	0.847
1756.55	0.847
1764.98	0.847
1773.41	0.85
1781.84	0.852
1790.26	0.849
1798.69	0.841
1807.12	0.832
1815.54	0.837
1823.97	0.841
1832.4	0.84
1840.82	0.835
1849.25	0.826
1857.68	0.823
1866.11	0.823
1874.53	0.823
1882.96	0.822
1891.39	0.816
1899.81	0.807
1908.24	0.801
1916.67	0.807
1925.09	0.81
1933.52	0.808
1941.95	0.804
1950.37	0.801
1958.8	0.795
1967.23	0.789
1975.66	0.792
1984.08	0.795
1992.51	0.798
2000.94	0.796
2009.36	0.794
2017.79	0.7923
2026.22	0.789
2034.64	0.786
2043.07	0.785
2051.5	0.7832
2059.93	0.781
2068.35	0.7807
2076.78	0.7775
2085.21	0.7742
2093.63	0.772
2102.06	0.772
2110.49	0.7715
2118.91	0.7666
2127.34	0.765
2135.77	0.763
2144.19	0.762
2152.62	0.76
2161.05	0.759
2169.48	0.757
2177.9	0.756
2186.33	0.7532
2194.76	0.751
2203.18	0.75
2211.61	0.748
2220.04	0.748
2228.46	0.747
2236.89	0.7463
2245.32	0.7422
2253.75	0.7393
2262.17	0.7389
2270.6	0.738
2279.03	0.738
2287.45	0.7334
2295.88	0.7266
2304.31	0.7218
2312.73	0.7187
2321.16	0.7152
2329.59	0.713
2338.02	0.713
2346.44	0.714
2354.87	0.714
2363.3	0.7138
2371.72	0.713
2380.15	0.713
2388.58	0.711
2397	0.7108
2405.43	0.7074
2413.86	0.6983
2422.28	0.698
2430.71	0.699
2439.14	0.7029
2447.57	0.7047
2455.99	0.7069
2464.42	0.7066
2472.85	0.7001
2481.27	0.6966
2489.7	0.695
2498.13	0.6915
2506.55	0.688
2514.98	0.686
2523.41	0.683
2531.84	0.6807
2540.26	0.68
2548.69	0.68
2557.12	0.678
2565.54	0.675
2573.97	0.6729
2582.4	0.6712
2590.82	0.6709
2599.25	0.668
2607.68	0.6669
2616.11	0.6652
2624.53	0.6649
2632.96	0.6611
2641.39	0.656
2649.81	0.654
2658.24	0.6529
2666.67	0.649
2675.09	0.6458
2683.52	0.6423
2691.95	0.641
2700.37	0.639
2708.8	0.6368
2717.23	0.636
2725.66	0.635
2734.08	0.6343
2742.51	0.6308
2750.94	0.6261
2759.36	0.6226
2767.79	0.6159
2776.22	0.6128
2784.64	0.6081
2793.07	0.5996
2801.5	0.5952
2809.93	0.5917
2818.35	0.591
2826.78	0.591
2835.21	0.5918
2843.63	0.5937
2852.06	0.594
2860.49	0.593
2868.91	0.591
2877.34	0.589
2885.77	0.5871
2894.19	0.585
2902.62	0.585
2911.05	0.585
2919.48	0.582
2927.9	0.579
2936.33	0.5771
2944.76	0.5753
2953.18	0.5691
2961.61	0.568
2970.04	0.5646
2978.46	0.5593
2986.89	0.553
2995.32	0.5473
3003.75	0.5395
3012.17	0.5285
3020.6	0.515
3029.03	0.499
3037.45	0.4859
3045.88	0.46
3054.31	0.446
3062.73	0.4465
3071.16	0.4627
3079.59	0.482
3088.02	0.5203
3096.44	0.5396
3104.87	0.541
3113.3	0.5382
3121.72	0.5349
3130.15	0.5314
3138.58	0.5253
3147	0.5176
3155.43	0.5118
3163.86	0.507
3172.28	0.5038
3180.71	0.5022
3189.14	0.4999
3197.57	0.496
3205.99	0.4918
3214.42	0.4883
3222.85	0.4837
3231.27	0.4769
3239.7	0.4678
3248.13	0.4634
3256.55	0.4576
3264.98	0.4509
3273.41	0.4441
3281.84	0.4373
3290.26	0.4295
3298.69	0.4218
3307.12	0.4124
3315.54	0.4035
3323.97	0.3955
3332.4	0.3864
3340.82	0.3777
3349.25	0.3693
3357.68	0.3605
3366.1	0.3525
3374.53	0.343
3382.96	0.339
3391.39	0.3354
3399.81	0.331
3408.24	0.3286
3416.67	0.328
3425.09	0.328
3433.52	0.33
3441.95	0.3307
3450.37	0.333
3458.8	0.3345
3467.23	0.3365
3475.66	0.339
3484.08	0.342
3492.51	0.3437
3500.94	0.3495
3509.36	0.3517
3517.79	0.357
3526.22	0.3617
3534.64	0.3665
3543.07	0.3768
3551.5	0.3871
3559.93	0.3983
3568.35	0.4092
3576.78	0.4217
3585.21	0.4331
3593.63	0.4447
3602.06	0.4582
3610.49	0.4718
3618.91	0.4854
3627.34	0.5071
3635.77	0.5197
3644.19	0.5256
3652.62	0.5261
3661.05	0.529
3669.48	0.53
3677.9	0.5316
3686.33	0.532
3694.76	0.5323
3703.18	0.533
3711.61	0.533
3720.04	0.5332
3728.46	0.536
3736.89	0.5404
3745.32	0.5504
3753.75	0.5637
3762.17	0.5753
3770.6	0.5381
3779.03	0.5092
3787.45	0.508
3795.88	0.506
3804.31	0.505
3812.73	0.5032
3821.16	0.5017
3829.59	0.5
3838.01	0.499
3846.44	0.497
3854.87	0.4957
3863.3	0.494
3871.72	0.4916
3880.15	0.491
3888.58	0.4908
3897	0.4891
3905.43	0.4856
3913.86	0.484
3922.28	0.482
3930.71	0.482
3939.14	0.482
3947.57	0.482
3955.99	0.481
3964.42	0.479
3972.85	0.478
3981.27	0.475
3989.7	0.475
3998.13	0.473
