Infrared Spectrum: 4-Benzyl-4-hydroxypiperidine
Formula: C 12 H 17 N O
CAS: 51135-96-7
State: gas
Origin: EPA-IR VAPOR PHASE LIBRARY
1/CM	ABSORBANCE
549.8	0.002703
559.445	0.002003
569.09	0.004023
578.734	0.004643
588.379	0.003373
598.024	0.002773
607.669	0.002683
617.313	0.003733
626.958	0.005953
636.603	0.004753
646.248	0.003473
655.893	0.002593
665.537	0.002853
675.182	0.003683
684.827	0.006493
694.472	0.015533
704.116	0.020733
713.761	0.015483
723.406	0.011353
733.051	0.011413
742.695	0.015553
752.34	0.019603
761.985	0.018183
771.63	0.011473
781.275	0.006243
790.919	0.004233
800.564	0.003263
810.209	0.002723
819.854	0.002823
829.498	0.002303
839.143	0.002333
848.788	0.002843
858.433	0.003423
868.078	0.003603
877.722	0.002883
887.367	0.002713
897.012	0.002073
906.657	0.002723
916.301	0.002323
925.946	0.002353
935.591	0.002533
945.236	0.003233
954.88	0.004493
964.525	0.005433
974.17	0.008043
983.815	0.008303
993.46	0.006193
1003.1	0.003893
1012.75	0.004093
1022.39	0.004133
1032.04	0.004463
1041.68	0.003953
1051.33	0.004903
1060.97	0.005953
1070.62	0.006463
1080.26	0.007903
1089.91	0.006643
1099.55	0.004913
1109.2	0.005053
1118.84	0.008373
1128.49	0.010903
1138.13	0.012783
1147.78	0.011923
1157.42	0.009253
1167.07	0.008153
1176.71	0.007283
1186.36	0.006673
1196	0.005543
1205.64	0.006233
1215.29	0.006833
1224.93	0.005273
1234.58	0.004773
1244.22	0.005123
1253.87	0.004833
1263.51	0.005163
1273.16	0.005853
1282.8	0.005653
1292.45	0.005563
1302.09	0.006263
1311.74	0.007863
1321.38	0.011443
1331.03	0.009763
1340.67	0.007053
1350.32	0.007523
1359.96	0.008563
1369.61	0.007863
1379.25	0.006473
1388.9	0.005693
1398.54	0.004263
1408.18	0.003493
1417.83	0.004693
1427.47	0.006243
1437.12	0.008353
1446.76	0.009403
1456.41	0.007713
1466.05	0.005523
1475.7	0.004393
1485.34	0.004473
1494.99	0.007483
1504.63	0.004123
1514.28	0.001473
1523.92	0.0012583
1533.57	0.0011721
1543.21	0.0013313
1552.86	0.0011834
1562.5	0.0012532
1572.15	0.001423
1581.79	0.001903
1591.44	0.002893
1601.08	0.003713
1610.73	0.002773
1620.37	0.0012597
1630.01	0.0010651
1639.66	0.0008226
1649.3	0.0009381
1658.95	0.0011353
1668.59	0.0009665
1678.24	0.0010204
1687.88	0.0008677
1697.53	0.000872
1707.17	0.0008271
1716.82	0.0008433
1726.46	0.0010606
1736.11	0.0010188
1745.75	0.0008787
1755.4	0.0009596
1765.04	0.0011482
1774.69	0.0008713
1784.33	0.001175
1793.98	0.0013029
1803.62	0.001463
1813.27	0.0009869
1822.91	0.0009625
1832.55	0.000864
1842.2	0.0007718
1851.84	0.0009176
1861.49	0.0010922
1871.13	0.0013029
1880.78	0.001324
1890.42	0.0011492
1900.07	0.000831
1909.71	0.0007686
1919.36	0.0008574
1929	0.0012068
1938.65	0.001433
1948.29	0.001483
1957.94	0.0011145
1967.58	0.0008546
1977.23	0.0006965
1986.87	0.0007557
1996.52	0.0006937
2006.16	0.00043407
2015.81	0.0006946
2025.45	0.0006858
2035.1	0.0008439
2044.74	0.0008208
2054.38	0.0006612
2064.03	0.0007653
2073.67	0.00048983
2083.32	0.0007149
2092.96	0.0006879
2102.61	0.0006516
2112.25	0.00049573
2121.9	0.0007774
2131.54	0.000799
2141.19	0.0006875
2150.83	0.0006485
2160.48	0.000644
2170.12	0.0005422
2179.77	0.0005548
2189.41	0.0005965
2199.06	0.0007434
2208.7	0.0005216
2218.35	0.00043147
2227.99	0.0005169
2237.64	0.000656
2247.28	0.0008371
2256.92	0.0005185
2266.57	0.0006058
2276.21	0.0007597
2285.86	0.00071
2295.5	0.000826
2305.15	0.0006638
2314.79	0.0008465
2324.44	0.0006389
2334.08	0.0007858
2343.73	0.0006659
2353.37	0.0007537
2363.02	0.000621
2372.66	0.0005212
2382.31	0.0009521
2391.95	0.00046377
2401.6	0.000524
2411.24	0.0006892
2420.89	0.0007023
2430.53	0.0006366
2440.18	0.0006049
2449.82	0.0006982
2459.47	0.0003845
2469.11	0.0008677
2478.75	0.000631
2488.4	0.0007867
2498.04	0.0006615
2507.69	0.0007595
2517.33	0.0007651
2526.98	0.000749
2536.62	0.0007432
2546.27	0.0009161
2555.91	0.0006127
2565.56	0.0006664
2575.2	0.000974
2584.85	0.0009045
2594.49	0.0008042
2604.14	0.0009445
2613.78	0.0013636
2623.43	0.001423
2633.07	0.001473
2642.72	0.0013437
2652.36	0.0013094
2662.01	0.0011494
2671.65	0.0013231
2681.29	0.001593
2690.94	0.001543
2700.58	0.001793
2710.23	0.001903
2719.87	0.002393
2729.52	0.003033
2739.16	0.003863
2748.81	0.003863
2758.45	0.003373
2768.1	0.002873
2777.74	0.003993
2787.39	0.004473
2797.03	0.005913
2806.68	0.007663
2816.32	0.010563
2825.97	0.013353
2835.61	0.013833
2845.26	0.012653
2854.9	0.010213
2864.55	0.009403
2874.19	0.009753
2883.84	0.009293
2893.48	0.008913
2903.12	0.012993
2912.77	0.021713
2922.41	0.029973
2932.06	0.034453
2941.7	0.042873
2951.35	0.046993
2960.99	0.027013
2970.64	0.008423
2980.28	0.003563
2989.93	0.002483
2999.57	0.002263
3009.22	0.002693
3018.86	0.005293
3028.51	0.010093
3038.15	0.010863
3047.8	0.006123
3057.44	0.005863
3067.09	0.010813
3076.73	0.009443
3086.38	0.006873
3096.02	0.004733
3105.67	0.002683
3115.31	0.001833
3124.95	0.0010926
3134.6	0.0011571
3144.24	0.000564
3153.89	0.0008601
3163.53	0.0005383
3173.18	0.0004971
3182.82	0.000548
3192.47	0.000409507
3202.11	0.0005212
3211.76	0.000157
3221.4	0.00048151
3231.05	0.0005702
3240.69	0.00049008
3250.34	0.00041846
3259.98	9.5e-05
3269.63	0.0003755
3279.27	0.000761
3288.92	0.00039469
3298.56	0.0009986
3308.21	0.0012958
3317.85	0.0007448
3327.49	0.0006091
3337.14	0.0007569
3346.78	0.0008118
3356.43	0.0009428
3366.07	0.0007015
3375.72	0.0003754
3385.36	0.0005502
3395.01	0.0009399
3404.65	0.00044656
3414.3	0.0012081
3423.94	0.0006934
3433.59	0.0008086
3443.23	0.0008935
3452.88	0.0008887
3462.52	0.0009222
3472.17	0.0012631
3481.81	0.0009627
3491.46	0.0007517
3501.1	0.0008416
3510.75	0.000292
3520.39	0.0006905
3530.04	0.0007513
3539.68	0.0006838
3549.32	0.0006508
3558.97	0.0009715
3568.61	0.00044568
3578.26	0.0010995
3587.9	0.001463
3597.55	0.001663
3607.19	0.003793
3616.84	0.004303
3626.48	0.003373
3636.13	0.002523
3645.77	0.001953
3655.42	0.001673
3665.06	0.0007057
3674.71	9.9e-05
3684.35	0.0006387
3694	0.00045305
3703.64	0.0006367
3713.29	0.000215
3722.93	0.0007887
3732.58	0.0005728
3742.22	0.0006393
3751.86	0.0008094
3761.51	0.0008715
3771.15	0.0005798
3780.8	0.0006035
3790.44	0.0007566
3800.09	0.0007747
3809.73	0.0008723
3819.38	0.000612
3829.02	0.0007474
3838.67	0.0009388
3848.31	0.0003751
3857.96	0.0008456
3867.6	0.000605
3877.25	0.0003809
3886.89	0.0009556
3896.54	0.0008604
3906.18	0.0008305
3915.83	0.0005982
3925.47	0.0011818
3935.12	0.0010249
3944.76	0.00047945
3954.41	0.0009222
3964.05	0.0005536
3973.69	0.0007986
3983.34	0.0007093
3992.98	0.000252
