Infrared Spectrum: 2-Hydrazinopyridine, hydrochloride
Formula: C5 H8 Cl N3
CAS: 51169-05-2
State: SOLID (SPLIT MULL)
Class: COBLENTZ III
Instrument: DOW KBr FOREPRISM-GRATING
Instrument parameters: BLAZED AT 3.5, 12.0, 20.0 MICRON AND CHANGED AT 5.0, 7.5, 14.9 MICRON
Sampling: TRANSMISSION
Resolution: 2
Origin: DOW CHEMICAL COMPANY
1/CM	TRANSMITTANCE
461	0.5818
470	0.586
479	0.7056
488	0.7025
497	0.6898
506	0.6668
515	0.5391
524	0.5998
533	0.6846
542	0.7105
551	0.7331
560	0.7501
569	0.7671
578	0.783
587	0.7975
596	0.7933
605	0.773
614	0.7705
623	0.7849
632	0.7503
641	0.7795
650	0.7876
659	0.7917
668	0.8156
677	0.8195
686	0.8167
695	0.8234
704	0.8193
713	0.7976
722	0.7289
731	0.7815
740	0.7855
749	0.7521
758	0.5869
767	0.1031
776	0.4965
785	0.7833
794	0.8233
803	0.829
812	0.8375
821	0.8209
830	0.8202
839	0.8202
848	0.793
857	0.8182
866	0.8135
875	0.8061
884	0.7728
893	0.7591
902	0.7428
911	0.5224
920	0.6728
929	0.7917
938	0.7991
947	0.7989
956	0.7976
965	0.8054
974	0.7951
983	0.7698
992	0.5993
1001	0.7634
1010	0.7931
1019	0.8035
1028	0.7975
1037	0.7932
1046	0.7983
1055	0.8208
1064	0.8051
1073	0.7819
1082	0.764
1091	0.7665
1100	0.7199
1109	0.6521
1118	0.5572
1127	0.7435
1136	0.7942
1145	0.7828
1154	0.7567
1163	0.6478
1172	0.7299
1181	0.6892
1190	0.5083
1199	0.3768
1208	0.6546
1217	0.7503
1226	0.7515
1235	0.7268
1244	0.7033
1253	0.5725
1262	0.7091
1271	0.7297
1280	0.7115
1289	0.7128
1298	0.6811
1307	0.6201
1316	0.423
1325	0.6352
1334	0.7458
1343	0.7268
1352	0.7295
1361	0.7292
1370	0.7191
1379	0.6747
1388	0.4771
1397	0.7694
1406	0.7564
1415	0.7404
1424	0.7267
1433	0.7078
1442	0.6835
1451	0.563
1460	0.6665
1469	0.6345
1478	0.5812
1487	0.5033
1496	0.2468
1505	0.1831
1514	0.1904
1523	0.6631
1532	0.7794
1541	0.741
1550	0.6002
1559	0.7135
1568	0.6404
1577	0.5872
1586	0.4889
1595	0.556
1604	0.4574
1613	0.2339
1622	0.2198
1631	0.2029
1640	0.1401
1649	0.3666
1658	0.6419
1667	0.7269
1676	0.7582
1685	0.8056
1694	0.8555
1703	0.8674
1712	0.8587
1721	0.8562
1730	0.842
1739	0.8224
1748	0.7922
1757	0.7574
1766	0.7575
1775	0.8114
1784	0.7994
1793	0.7554
1802	0.6895
1811	0.6242
1820	0.6628
1829	0.7551
1838	0.7828
1847	0.7882
1856	0.7888
1865	0.7844
1874	0.7668
1883	0.7397
1892	0.6931
1901	0.6631
1910	0.7369
1919	0.7353
1928	0.7141
1937	0.7018
1946	0.6935
1955	0.6907
1964	0.6758
1973	0.6419
1982	0.6172
1991	0.6437
2000	0.6349
2009	0.5921
2018	0.5762
2027	0.6212
2036	0.6706
2045	0.689
2054	0.6984
2063	0.7032
2072	0.7028
2081	0.6995
2090	0.6956
2099	0.6903
2108	0.6835
2117	0.6751
2126	0.6675
2135	0.6601
2144	0.6514
2153	0.6422
2162	0.6335
2171	0.6246
2180	0.6148
2189	0.6048
2198	0.5937
2207	0.5819
2216	0.5689
2225	0.5543
2234	0.5381
2243	0.5202
2252	0.5016
2261	0.4829
2270	0.4643
2279	0.4456
2288	0.4273
2297	0.4095
2306	0.3876
2315	0.361
2324	0.3407
2333	0.3268
2342	0.3149
2351	0.3043
2360	0.2943
2369	0.2852
2378	0.2757
2387	0.2646
2396	0.2484
2405	0.2325
2414	0.2167
2423	0.1993
2432	0.1827
2441	0.1692
2450	0.1598
2459	0.1507
2468	0.1395
2477	0.1272
2486	0.1146
2495	0.1024
2504	0.0909
2513	0.0809
2522	0.073
2531	0.0699
2540	0.0707
2549	0.0715
2558	0.0721
2567	0.073
2576	0.0758
2585	0.0819
2594	0.0891
2603	0.0958
2612	0.104
2621	0.1127
2630	0.1249
2639	0.1392
2648	0.1548
2657	0.1727
2666	0.1944
2675	0.2146
2684	0.2281
2693	0.2395
2702	0.2497
2711	0.2544
2720	0.2607
2729	0.2892
2738	0.3247
2747	0.3524
2756	0.365
2765	0.3664
2774	0.3686
2783	0.3779
2792	0.3754
2801	0.3599
2810	0.34
2819	0.3229
2828	0.3131
2837	0.3134
2846	0.3164
2855	0.3237
2864	0.3366
2873	0.3506
2882	0.3509
2891	0.3487
2900	0.3704
2909	0.3679
2918	0.3666
2927	0.3654
2936	0.364
2945	0.3652
2954	0.3786
2963	0.3806
2972	0.3746
2981	0.3574
2990	0.3424
2999	0.333
3008	0.3165
3017	0.2735
3026	0.2041
3035	0.348
3044	0.3509
3053	0.3598
3062	0.3605
3071	0.3706
3080	0.383
3089	0.3694
3098	0.3518
3107	0.4021
3116	0.4016
3125	0.3934
3134	0.3844
3143	0.3825
3152	0.3814
3161	0.3809
3170	0.3802
3179	0.383
3188	0.3878
3197	0.3952
3206	0.4116
3215	0.428
3224	0.4421
3233	0.4578
3242	0.4758
3251	0.4962
3260	0.5258
3269	0.5524
3278	0.5712
3287	0.5868
3296	0.5967
3305	0.601
3314	0.6037
3323	0.6033
3332	0.5995
3341	0.5958
3350	0.5915
3359	0.5871
3368	0.5838
3377	0.5806
3386	0.5782
3395	0.5757
3404	0.5737
3413	0.5722
3422	0.5718
3431	0.572
3440	0.5723
3449	0.5726
3458	0.573
3467	0.5734
3476	0.5739
3485	0.5744
3494	0.5748
3503	0.5752
3512	0.5749
3521	0.5744
3530	0.5729
3539	0.5707
3548	0.5687
3557	0.5665
3566	0.5644
3575	0.5622
3584	0.5593
3593	0.5564
3602	0.5537
3611	0.5512
3620	0.5485
3629	0.5449
3638	0.5414
3647	0.5378
3656	0.5344
3665	0.5309
3674	0.5275
3683	0.524
3692	0.5205
3701	0.517
3710	0.5134
3719	0.5098
3728	0.5064
3737	0.5031
3746	0.5
3755	0.4966
3764	0.4931
3773	0.4895
3782	0.4855
3791	0.4814
3800	0.4779
