Infrared Spectrum: 2,4,4-Trimethyl-1-hexene
Formula: C 9 H 18
CAS: 51174-12-0
State: gas
Instrument: HP-GC/MS/IRD
Origin: NIST Mass Spectrometry Data Center
1/CM	ABSORBANCE
550	0.0001596
562	0.000126
574	0.0001281
586	7.98e-05
598	8.19e-05
610	2.1e-05
622	5.88e-05
634	9.87e-05
646	3.78e-05
658	2.94e-05
670	9.45e-05
682	0.0001176
694	6.72e-05
706	2.73e-05
718	4.83e-05
730	6.51e-05
742	0.0001932
754	9.66e-05
766	0.0001869
778	0.0003906
790	0.0003969
802	0.0002604
814	0.0002415
826	0.0001743
838	0.0001554
850	0.0003171
862	0.000567
874	0.0013209
886	0.0037569
898	0.0044919
910	0.0018417
922	0.0006216
934	0.0004074
946	0.0002919
958	0.0002205
970	0.000252
982	0.0003612
994	0.0004809
1006	0.0007098
1018	0.0006951
1030	0.0004011
1042	0.000336
1054	0.0003948
1066	0.0003654
1078	0.0002184
1090	0.000105
1102	0.000105
1114	8.82e-05
1126	0.0001386
1138	0.0002457
1150	0.0003129
1162	0.0004158
1174	0.0006069
1186	0.0007665
1198	0.0007602
1210	0.0005586
1222	0.0004011
1234	0.000504
1246	0.0006195
1258	0.0005439
1270	0.0004137
1282	0.000462
1294	0.0005229
1306	0.0005607
1318	0.0005817
1330	0.0006888
1342	0.0007224
1354	0.0011508
1366	0.002478
1378	0.0035721
1390	0.002898
1402	0.001533
1414	0.0010185
1426	0.0011991
1438	0.0018165
1450	0.0027552
1462	0.0037128
1474	0.0035448
1486	0.0019971
1498	0.0008946
1510	0.0005061
1522	0.0003843
1534	0.0003192
1546	0.0003129
1558	0.0003297
1570	0.0003444
1582	0.000336
1594	0.0003717
1606	0.0004977
1618	0.000819
1630	0.0014385
1642	0.0018144
1654	0.0011445
1666	0.000462
1678	0.0002457
1690	0.0001596
1702	0.0001239
1714	0.000105
1726	0.0001008
1738	8.61e-05
1750	0.0001092
1762	0.0001197
1774	0.0001827
1786	0.0003381
1798	0.000378
1810	0.0001995
1822	0.0001134
1834	9.03e-05
1846	6.3e-05
1858	6.72e-05
1870	5.67e-05
1882	4.62e-05
1894	4.2e-05
1906	3.78e-05
1918	3.36e-05
1930	3.57e-05
1942	3.15e-05
1954	1.26e-05
1966	3.99e-05
1978	3.15e-05
1990	2.94e-05
2002	2.1e-05
2014	2.94e-05
2026	1.47e-05
2038	1.68e-05
2050	3.78e-05
2062	2.73e-05
2074	2.31e-05
2086	3.57e-05
2098	2.1e-05
2110	2.94e-05
2122	3.57e-05
2134	4.62e-05
2146	2.52e-05
2158	2.31e-05
2170	2.73e-05
2182	1.68e-05
2194	3.99e-05
2206	1.05e-05
2218	2.52e-05
2230	4.41e-05
2242	5.04e-05
2254	3.57e-05
2266	3.36e-05
2278	4.83e-05
2290	3.36e-05
2302	1.89e-05
2314	3.36e-05
2326	3.36e-05
2338	2.73e-05
2350	3.57e-05
2362	4.83e-05
2374	5.67e-05
2386	5.46e-05
2398	5.04e-05
2410	5.25e-05
2422	4.62e-05
2434	4.2e-05
2446	3.99e-05
2458	4.62e-05
2470	3.78e-05
2482	3.36e-05
2494	5.46e-05
2506	4.83e-05
2518	6.93e-05
2530	6.09e-05
2542	5.25e-05
2554	7.35e-05
2566	0.0001008
2578	5.46e-05
2590	8.82e-05
2602	9.45e-05
2614	0.0001365
2626	0.0001491
2638	0.000168
2650	0.0001869
2662	0.0001785
2674	0.0002079
2686	0.0001869
2698	0.0001638
2710	0.0002457
2722	0.0003423
2734	0.0003864
2746	0.0004011
2758	0.0004032
2770	0.0004116
2782	0.0004557
2794	0.0005376
2806	0.0007203
2818	0.0010311
2830	0.0014889
2842	0.002394
2854	0.0039396
2866	0.0056154
2878	0.0072156
2890	0.0084126
2902	0.0097314
2914	0.0119154
2926	0.0131418
2938	0.0133329
2950	0.0146286
2962	0.0192507
2974	0.0199374
2986	0.0109956
2998	0.0046116
3010	0.002373
3022	0.0016233
3034	0.0012495
3046	0.0012369
3058	0.0014742
3070	0.0025893
3082	0.0030975
3094	0.0016485
3106	0.0008085
3118	0.0005649
3130	0.000441
3142	0.0003969
3154	0.0003003
3166	0.000294
3178	0.0002688
3190	0.0002709
3202	0.0002541
3214	0.0002373
3226	0.0002121
3238	0.0001659
3250	0.0002058
3262	0.0001617
3274	0.000126
3286	0.0001281
3298	0.0001134
3310	9.66e-05
3322	0.0001008
3334	0.0001155
3346	9.24e-05
3358	5.88e-05
3370	8.19e-05
3382	8.4e-05
3394	5.46e-05
3406	6.51e-05
3418	7.77e-05
3430	7.56e-05
3442	6.09e-05
3454	3.57e-05
3466	4.62e-05
3478	2.52e-05
3490	6.51e-05
3502	7.14e-05
3514	6.72e-05
3526	5.88e-05
3538	6.93e-05
3550	7.14e-05
3562	5.46e-05
3574	1.05e-05
3586	3.36e-05
3598	5.67e-05
3610	7.35e-05
3622	3.78e-05
3634	4.2e-05
3646	6.3e-05
3658	9.66e-05
3670	6.3e-05
3682	5.46e-05
3694	8.61e-05
3706	5.04e-05
3718	4.2e-05
3730	9.66e-05
3742	5.88e-05
3754	6.3e-05
3766	4.2e-05
3778	3.99e-05
3790	7.56e-05
3802	6.51e-05
3814	5.67e-05
3826	9.24e-05
3838	0.0001113
