Infrared Spectrum: 3-Methyl-4-penten-1-ol
Formula: C 6 H 12 O
CAS: 51174-44-8
State: gas
Instrument: HP-GC/MS/IRD
Origin: NIST Mass Spectrometry Data Center
1/CM	ABSORBANCE
550	0.0006622
562	9.1e-05
574	0.0002772
586	0.0001372
598	0.0002548
610	0.0001582
622	0.000154
634	0.0001862
646	0.0003892
658	0.0007112
670	0.0010388
682	0.0010444
694	0.0005572
706	0.000203
718	4.2e-05
730	7.28e-05
742	3.92e-05
754	6.86e-05
766	9.66e-05
778	0.0001162
790	0.0001274
802	0.0001568
814	0.000224
826	0.0003416
838	0.0006468
850	0.0008708
862	0.000833
874	0.0009436
886	0.0013258
898	0.0028168
910	0.0056084
922	0.0059556
934	0.0034776
946	0.00252
958	0.0026558
970	0.0031206
982	0.0046214
994	0.0061488
1006	0.005831
1018	0.0053844
1030	0.0069216
1042	0.009212
1054	0.0093086
1066	0.0069664
1078	0.0047726
1090	0.0033054
1102	0.002352
1114	0.0018984
1126	0.001638
1138	0.0014098
1150	0.0012082
1162	0.0011816
1174	0.0012628
1186	0.001379
1198	0.0014532
1210	0.0015134
1222	0.001526
1234	0.001498
1246	0.0015722
1258	0.0015666
1270	0.0016422
1282	0.0016884
1294	0.0016296
1306	0.0015414
1318	0.001526
1330	0.0015582
1342	0.0015554
1354	0.001715
1366	0.0022232
1378	0.0029358
1390	0.002975
1402	0.0023492
1414	0.0020916
1426	0.0019012
1438	0.0017164
1450	0.0018186
1462	0.0018956
1474	0.0015932
1486	0.0010528
1498	0.000462
1510	0.0002296
1522	0.0001204
1534	7.7e-05
1546	0.0001162
1558	0.0001176
1570	0.0001764
1582	0.000252
1594	0.0002772
1606	0.0003514
1618	0.0007224
1630	0.0014588
1642	0.0017458
1654	0.0010682
1666	0.0004368
1678	0.000238
1690	9.52e-05
1702	7.14e-05
1714	6.3e-05
1726	1.26e-05
1738	5.32e-05
1750	3.78e-05
1762	1.4e-06
1774	4.62e-05
1786	4.62e-05
1798	7.56e-05
1810	0.0001792
1822	0.0003906
1834	0.000539
1846	0.0003766
1858	0.0001932
1870	8.96e-05
1882	4.9e-05
1894	4.34e-05
1906	7.7e-05
1918	5.74e-05
1930	3.22e-05
1942	4.48e-05
1954	5.88e-05
1966	4.62e-05
1978	7.98e-05
1990	9.52e-05
2002	0.0001008
2014	7.84e-05
2026	9.8e-05
2038	0.000133
2050	0.000105
2062	9.52e-05
2074	8.96e-05
2086	8.96e-05
2098	9.8e-05
2110	5.88e-05
2122	5.74e-05
2134	3.36e-05
2146	6.58e-05
2158	8.12e-05
2170	4.2e-05
2182	4.34e-05
2194	4.48e-05
2206	5.88e-05
2218	5.88e-05
2230	5.18e-05
2242	4.76e-05
2254	5.88e-05
2266	0.0001064
2278	8.12e-05
2290	0.0001008
2302	8.68e-05
2314	8.54e-05
2326	7e-05
2338	9.52e-05
2350	9.8e-05
2362	9.38e-05
2374	6.44e-05
2386	0.0001022
2398	9.38e-05
2410	0.000126
2422	9.24e-05
2434	0.0001106
2446	0.0001134
2458	9.66e-05
2470	4.76e-05
2482	0.0001036
2494	3.5e-05
2506	0.0001078
2518	8.4e-05
2530	5.46e-05
2542	8.26e-05
2554	0.0001064
2566	0.0001092
2578	0.0001344
2590	0.0001302
2602	0.0001092
2614	0.0001442
2626	0.0001218
2638	0.0001652
2650	0.0001624
2662	0.0002184
2674	0.000245
2686	0.0002366
2698	0.0003164
2710	0.000364
2722	0.0004088
2734	0.0004928
2746	0.0005502
2758	0.0005726
2770	0.0006146
2782	0.0006692
2794	0.000763
2806	0.0008904
2818	0.001141
2830	0.00161
2842	0.0023758
2854	0.0035644
2866	0.0057176
2878	0.0081452
2890	0.009317
2902	0.0095718
2914	0.0109872
2926	0.0131292
2938	0.0135786
2950	0.0125594
2962	0.0135422
2974	0.013146
2986	0.008904
2998	0.0044548
3010	0.002744
3022	0.0017598
3034	0.001232
3046	0.0010892
3058	0.0014336
3070	0.0022652
3082	0.0032158
3094	0.002653
3106	0.0012068
3118	0.0005656
3130	0.0003584
3142	0.000308
3154	0.000238
3166	0.0002408
3178	0.0002002
3190	0.00021
3202	0.0002212
3214	0.0001148
3226	0.0001008
3238	7.98e-05
3250	0.0001428
3262	0.0001218
3274	0.0001554
3286	3.78e-05
3298	9.52e-05
3310	0.0001372
3322	2.66e-05
3334	8.4e-05
3346	0.000112
3358	3.78e-05
3370	0.0001316
3382	8.26e-05
3394	7.14e-05
3406	0.0001344
3418	0.0001526
3430	0.000161
3442	0.0001232
3454	0.0001512
3466	0.0001372
3478	0.0001652
3490	0.0002142
3502	0.0002254
3514	0.0001652
3526	0.0002058
3538	0.0001708
3550	0.000203
3562	0.000252
3574	0.000266
3586	0.0002184
3598	0.0002548
3610	0.0003612
3622	0.0005922
3634	0.0008918
3646	0.0014728
3658	0.002233
3670	0.0024752
3682	0.0016058
3694	0.0006972
3706	0.0004018
3718	0.0003066
3730	0.0003094
3742	0.0002534
3754	0.0001834
3766	0.0002002
3778	0.0001722
3790	0.0001946
3802	0.000161
3814	0.0002072
3826	0.0002184
3838	0.000224
