Infrared Spectrum: PURINE, 2,6-BIS(BENZAMIDO)-
Formula: C19 H14 N6 O2
CAS: 51173-57-0
State: SOLID (1 mg / 650 mg KBr DISC)
Class: COBLENTZ III
Instrument: PERKIN-ELMER 221 (GRATING)
Instrument parameters: FILTER CHANGES AT 2490, 980 CM^-^1, GRATING FOR 4000-1428 CM^-^1, NaCl PRISM FOR 1428-650 CM^-^1
Sampling: TRANSMISSION
Resolution: 4
Origin: SOUTHERN RESEARCH INST.
1/CM	TRANSMITTANCE
639.773	0.602
649.319	0.577
658.864	0.62
668.41	0.6521
677.955	0.555
687.501	0.613
697.046	0.5161
706.592	0.3831
716.137	0.6417
725.683	0.6221
735.228	0.5411
744.774	0.801
754.319	0.805
763.865	0.848
773.41	0.839
782.956	0.779
792.501	0.8726
802.047	0.877
811.592	0.863
821.138	0.8151
830.683	0.708
840.229	0.873
849.774	0.862
859.32	0.836
868.865	0.789
878.411	0.788
887.956	0.85
897.502	0.835
907.048	0.7531
916.593	0.676
926.139	0.77
935.684	0.8509
945.23	0.863
954.775	0.855
964.321	0.841
973.866	0.823
983.412	0.811
992.957	0.777
1002.5	0.788
1012.05	0.782
1021.59	0.735
1031.14	0.771
1040.68	0.769
1050.23	0.756
1059.78	0.679
1069.32	0.731
1078.87	0.691
1088.41	0.706
1097.96	0.725
1107.5	0.704
1117.05	0.68
1126.59	0.5861
1136.14	0.693
1145.69	0.761
1155.23	0.745
1164.78	0.674
1174.32	0.6539
1183.87	0.705
1193.41	0.694
1202.96	0.676
1212.5	0.629
1222.05	0.5631
1231.6	0.492
1241.14	0.4521
1250.69	0.416
1260.23	0.4479
1269.78	0.3291
1279.32	0.279
1288.87	0.6219
1298.41	0.674
1307.96	0.668
1317.5	0.686
1327.05	0.639
1336.6	0.5631
1346.14	0.4591
1355.69	0.456
1365.23	0.426
1374.78	0.357
1384.32	0.4589
1393.87	0.666
1403.41	0.4589
1412.96	0.406
1422.51	0.476
1432.05	0.585
1441.6	0.661
1451.14	0.664
1460.69	0.5471
1470.23	0.434
1479.78	0.326
1489.32	0.529
1498.87	0.3929
1508.42	0.357
1517.96	0.407
1527.51	0.4358
1537.05	0.555
1546.6	0.4659
1556.14	0.2721
1565.69	0.3911
1575.23	0.5269
1584.78	0.602
1594.32	0.632
1603.87	0.596
1613.42	0.504
1622.96	0.566
1632.51	0.459
1642.05	0.3099
1651.6	0.346
1661.14	0.578
1670.69	0.3542
1680.23	0.236
1689.78	0.6821
1699.33	0.829
1708.87	0.866
1718.42	0.893
1727.96	0.944
1737.51	0.965
1747.05	0.961
1756.6	0.957
1766.14	0.952
1775.69	0.949
1785.24	0.945
1794.78	0.942
1804.33	0.936
1813.87	0.918
1823.42	0.899
1832.96	0.934
1842.51	0.943
1852.05	0.941
1861.6	0.934
1871.14	0.923
1880.69	0.919
1890.24	0.911
1899.78	0.908
1909.33	0.909
1918.87	0.911
1928.42	0.903
1937.96	0.895
1947.51	0.893
1957.05	0.893
1966.6	0.893
1976.15	0.893
1985.69	0.892
1995.24	0.889
2004.78	0.886
2014.33	0.8812
2023.87	0.8803
2033.42	0.88
2042.96	0.88
2052.51	0.8776
2062.06	0.873
2071.6	0.869
2081.15	0.8649
2090.69	0.862
2100.24	0.859
2109.78	0.858
2119.33	0.858
2128.87	0.858
2138.42	0.858
2147.96	0.858
2157.51	0.858
2167.06	0.857
2176.6	0.856
2186.15	0.8541
2195.69	0.854
2205.24	0.853
2214.78	0.8504
2224.33	0.848
2233.87	0.8466
2243.42	0.845
2252.97	0.844
2262.51	0.8429
2272.06	0.841
2281.6	0.838
2291.15	0.835
2300.69	0.833
2310.24	0.8304
2319.78	0.827
2329.33	0.8256
2338.88	0.823
2348.42	0.822
2357.97	0.821
2367.51	0.822
2377.06	0.82
2386.6	0.819
2396.15	0.8174
2405.69	0.816
2415.24	0.814
2424.78	0.812
2434.33	0.811
2443.88	0.809
2453.42	0.808
2462.97	0.8051
2472.51	0.8032
2482.06	0.8003
2491.6	0.799
2501.15	0.797
2510.69	0.7966
2520.24	0.796
2529.79	0.795
2539.33	0.794
2548.88	0.793
2558.42	0.7912
2567.97	0.789
2577.51	0.7864
2587.06	0.7845
2596.6	0.7816
2606.15	0.78
2615.7	0.779
2625.24	0.778
2634.79	0.778
2644.33	0.777
2653.88	0.7752
2663.42	0.773
2672.97	0.771
2682.51	0.77
2692.06	0.768
2701.6	0.766
2711.15	0.763
2720.7	0.754
2730.24	0.7462
2739.79	0.741
2749.33	0.739
2758.88	0.7386
2768.42	0.7415
2777.97	0.7396
2787.51	0.737
2797.06	0.735
2806.61	0.7339
2816.15	0.73
2825.7	0.726
2835.24	0.7192
2844.79	0.712
2854.33	0.7105
2863.88	0.709
2873.42	0.708
2882.97	0.709
2892.52	0.7027
2902.06	0.693
2911.61	0.6851
2921.15	0.6794
2930.7	0.678
2940.24	0.6698
2949.79	0.6585
2959.33	0.6522
2968.88	0.6317
2978.42	0.628
2987.97	0.626
2997.52	0.624
3007.06	0.623
3016.61	0.614
3026.15	0.6006
3035.7	0.6335
3045.24	0.6103
3054.79	0.5913
3064.33	0.5776
3073.88	0.5976
3083.43	0.618
3092.97	0.5902
3102.52	0.573
3112.06	0.572
3121.61	0.57
3131.15	0.5645
3140.7	0.5654
3150.24	0.5644
3159.79	0.507
3169.34	0.5352
3178.88	0.5351
3188.43	0.5136
3197.97	0.51
3207.52	0.5074
3217.06	0.4904
3226.61	0.481
3236.15	0.4794
3245.7	0.4711
3255.24	0.457
3264.79	0.459
3274.34	0.4688
3283.88	0.4948
3293.43	0.5412
3302.97	0.5776
3312.52	0.589
3322.06	0.5914
3331.61	0.593
3341.15	0.5828
3350.7	0.507
3360.25	0.4156
3369.79	0.4762
3379.34	0.6134
3388.88	0.6413
3398.43	0.6435
3407.97	0.6426
3417.52	0.6423
3427.06	0.645
3436.61	0.645
3446.16	0.646
3455.7	0.647
3465.25	0.65
3474.79	0.6517
3484.34	0.6536
3493.88	0.6545
3503.43	0.6564
3512.97	0.659
3522.52	0.663
3532.06	0.6701
3541.61	0.6789
3551.16	0.6858
3560.7	0.6945
3570.25	0.698
3579.79	0.701
3589.34	0.704
3598.88	0.706
3608.43	0.722
3617.97	0.731
3627.52	0.731
3637.07	0.733
3646.61	0.735
3656.16	0.7377
3665.7	0.739
3675.25	0.7365
3684.79	0.735
3694.34	0.735
3703.88	0.738
3713.43	0.739
3722.98	0.735
3732.52	0.733
3742.07	0.7323
3751.61	0.7294
3761.16	0.7285
3770.7	0.7324
3780.25	0.735
3789.79	0.7338
3799.34	0.73
3808.88	0.727
3818.43	0.727
3827.98	0.726
3837.52	0.725
3847.07	0.724
3856.61	0.724
3866.16	0.7216
3875.7	0.721
3885.25	0.721
3894.79	0.721
3904.34	0.721
3913.89	0.721
3923.43	0.7203
3932.98	0.72
3942.52	0.72
3952.07	0.72
3961.61	0.719
3971.16	0.719
3980.7	0.719
3990.25	0.719
3999.8	0.718
4009.34	0.717
4018.89	0.717
