Infrared Spectrum: N-Acryloylmorpholine
Formula: C 7 H 11 N O 2
CAS: 5117-12-4
State: gas
Origin: EPA-IR VAPOR PHASE LIBRARY
1/CM	ABSORBANCE
549.9	0.01022
559.547	0.01681
569.193	0.02103
578.84	0.01569
588.486	0.00757
598.133	0.00451
607.779	0.0032524
617.426	0.00287206
627.072	0.0032481
636.719	0.00413
646.365	0.00428
656.012	0.0032718
665.658	0.002411
675.305	0.001989
684.951	0.00186
694.598	0.00177
704.245	0.00179
713.891	0.0018
723.538	0.00183
733.184	0.001957
742.831	0.002102
752.477	0.002626
762.124	0.00464
771.77	0.00924
781.417	0.01415
791.063	0.01299
800.71	0.00787
810.356	0.00461
820.003	0.00413
829.649	0.00555
839.296	0.01415
848.943	0.01806
858.589	0.01169
868.236	0.0053
877.882	0.00456
887.529	0.00493
897.175	0.00677
906.822	0.01012
916.468	0.01207
926.115	0.01402
935.761	0.02297
945.408	0.0356
955.054	0.03666
964.701	0.02989
974.347	0.0299
983.994	0.02534
993.64	0.02069
1003.29	0.01975
1012.93	0.02682
1022.58	0.04276
1032.23	0.05534
1041.87	0.04492
1051.52	0.02616
1061.17	0.02101
1070.81	0.02197
1080.46	0.02138
1090.11	0.02071
1099.75	0.03493
1109.4	0.07607
1119.05	0.12253
1128.69	0.10253
1138.34	0.04946
1147.99	0.01908
1157.63	0.01193
1167.28	0.01251
1176.92	0.0181
1186.57	0.03264
1196.22	0.05154
1205.86	0.07836
1215.51	0.1145
1225.16	0.15985
1234.8	0.14554
1244.45	0.07877
1254.1	0.05629
1263.74	0.06335
1273.39	0.05839
1283.04	0.03839
1292.68	0.03377
1302.33	0.02902
1311.98	0.01957
1321.62	0.01534
1331.27	0.01446
1340.92	0.01615
1350.56	0.02203
1360.21	0.02836
1369.86	0.03728
1379.5	0.04587
1389.15	0.04801
1398.79	0.05055
1408.44	0.08299
1418.09	0.15949
1427.73	0.1933
1437.38	0.12935
1447.03	0.06352
1456.67	0.04917
1466.32	0.03681
1475.97	0.02324
1485.61	0.01597
1495.26	0.01242
1504.91	0.01034
1514.55	0.00937
1524.2	0.0083
1533.85	0.00705
1543.49	0.00673
1553.14	0.00718
1562.79	0.00803
1572.43	0.00863
1582.08	0.0091
1591.73	0.01026
1601.37	0.01351
1611.02	0.01989
1620.67	0.02804
1630.31	0.03234
1639.96	0.03401
1649.6	0.04699
1659.25	0.09741
1668.9	0.22377
1678.54	0.27859
1688.19	0.18725
1697.84	0.05996
1707.48	0.02231
1717.13	0.01287
1726.78	0.00966
1736.42	0.00854
1746.07	0.00812
1755.72	0.00766
1765.36	0.00645
1775.01	0.00529
1784.66	0.00467
1794.3	0.00419
1803.95	0.0037365
1813.6	0.0032963
1823.24	0.00290182
1832.89	0.002704
1842.54	0.002648
1852.18	0.00268
1861.83	0.00289305
1871.47	0.0030626
1881.12	0.0032136
1890.77	0.0033402
1900.41	0.0036415
1910.06	0.00459
1919.71	0.00521
1929.35	0.0051
1939	0.00461
1948.65	0.00448
1958.29	0.00469
1967.94	0.0045
1977.59	0.0036927
1987.23	0.002748
1996.88	0.002341
2006.53	0.002241
2016.17	0.002275
2025.82	0.002302
2035.47	0.002255
2045.11	0.002192
2054.76	0.002141
2064.41	0.002167
2074.05	0.002148
2083.7	0.002077
2093.35	0.002047
2102.99	0.002046
2112.64	0.002214
2122.28	0.002214
2131.93	0.002262
2141.58	0.002244
2151.22	0.002198
2160.87	0.002241
2170.52	0.002266
2180.16	0.002131
2189.81	0.00192
2199.46	0.00182
2209.1	0.00182
2218.75	0.00186
2228.4	0.001934
2238.04	0.001953
2247.69	0.001895
2257.34	0.0018
2266.98	0.00179
2276.63	0.001934
2286.28	0.002034
2295.92	0.002091
2305.57	0.002009
2315.22	0.001957
2324.86	0.001893
2334.51	0.001905
2344.16	0.001911
2353.8	0.001946
2363.45	0.002028
2373.09	0.002069
2382.74	0.002029
2392.39	0.002072
2402.03	0.002239
2411.68	0.002505
2421.33	0.002596
2430.97	0.002406
2440.62	0.002056
2450.27	0.002053
2459.91	0.002049
2469.56	0.002078
2479.21	0.001985
2488.85	0.00184
2498.5	0.00182
2508.15	0.00174
2517.79	0.00171
2527.44	0.00176
2537.09	0.00171
2546.73	0.00174
2556.38	0.001937
2566.03	0.002197
2575.67	0.002333
2585.32	0.002238
2594.96	0.00212
2604.61	0.002195
2614.26	0.002203
2623.9	0.002203
2633.55	0.002297
2643.2	0.002519
2652.84	0.00295997
2662.49	0.0034389
2672.14	0.00423
2681.78	0.00492
2691.43	0.00499
2701.08	0.00511
2710.72	0.00556
2720.37	0.00566
2730.02	0.00514
2739.66	0.00505
2749.31	0.00528
2758.96	0.00563
2768.6	0.00497
2778.25	0.00443
2787.9	0.00432
2797.54	0.0049
2807.19	0.00599
2816.84	0.00796
2826.48	0.01176
2836.13	0.01938
2845.77	0.04069
2855.42	0.07384
2865.07	0.08844
2874.71	0.06224
2884.36	0.04455
2894.01	0.04346
2903.65	0.0484
2913.3	0.04817
2922.95	0.04656
2932.59	0.03792
2942.24	0.02529
2951.89	0.02422
2961.53	0.05049
2971.18	0.08302
2980.83	0.07669
2990.47	0.04029
3000.12	0.02686
3009.77	0.01763
3019.41	0.0105
3029.06	0.00912
3038.71	0.00842
3048.35	0.00679
3058	0.00562
3067.64	0.00496
3077.29	0.00502
3086.94	0.00563
3096.58	0.00696
3106.23	0.0067
3115.88	0.00409
3125.52	0.001884
3135.17	0.00118
3144.82	0.00081
3154.46	0.00052
3164.11	0.00041
3173.76	0.00045
3183.4	0.00053
3193.05	0.00034
3202.7	0.00039
3212.34	0.00013
3221.99	0.00023
3231.64	0.00013
3241.28	0.00028
3250.93	0.00027
3260.58	0.00033
3270.22	0.00035
3279.87	0.00076
3289.52	0.00098
3299.16	0.00118
3308.81	0.00127
3318.45	0.00121
3328.1	0.001944
3337.75	0.00222
3347.39	0.001984
3357.04	0.00123
3366.69	0.00071
3376.33	0.00034
3385.98	0.00041
3395.63	0.00013
3405.27	0.00011
3414.92	2e-05
3424.57	0.00032
3434.21	0.00027
3443.86	0.00025
3453.51	0.00018
3463.15	0.00034
3472.8	0.00016
3482.45	0.00017
3492.09	0.00024
3501.74	0.00043
3511.39	0.00029
3521.03	0.00029
3530.68	0.00038
3540.33	0.00039
3549.97	0.00058
3559.62	0.00054
3569.26	0.00052
3578.91	0.00062
3588.56	0.00059
3598.2	0.00051
3607.85	0.0007
3617.5	0.00062
3627.14	0.0006
3636.79	0.00066
3646.44	0.0007
3656.08	0.00072
3665.73	0.00072
3675.38	0.0007
3685.02	0.00079
3694.67	0.00083
3704.32	0.00078
3713.96	0.00098
3723.61	0.00089
3733.26	0.00084
3742.9	0.00085
3752.55	0.00086
3762.2	0.00101
3771.84	0.00105
3781.49	0.00096
3791.13	0.00099
3800.78	0.00106
3810.43	0.00116
3820.07	0.00122
3829.72	0.00119
3839.37	0.00115
3849.01	0.0012
3858.66	0.00115
3868.31	0.0012
3877.95	0.0012
3887.6	0.00117
3897.25	0.00131
3906.89	0.00127
3916.54	0.00129
3926.19	0.00134
3935.83	0.00147
3945.48	0.00138
3955.13	0.00143
3964.77	0.00144
3974.42	0.00167
3984.07	0.00179
3993.71	0.00178
