Infrared Spectrum: 3-Methyl-6-hepten-1-yn-3-ol
Formula: C 8 H 12 O
CAS: 51193-99-8
State: gas
Instrument: HP-GC/MS/IRD
Origin: NIST Mass Spectrometry Data Center
1/CM	ABSORBANCE
550	0.0018768
562	0.0014024
574	0.0009248
586	0.0009192
598	0.0009632
610	0.0011144
622	0.003456
634	0.0072968
646	0.006244
658	0.0054896
670	0.0021592
682	0.0005736
694	0.0002872
706	0.0003136
718	0.0003352
730	0.0002416
742	0.000288
754	0.000184
766	0.0001616
778	0.0001888
790	0.000104
802	8.8e-05
814	0.0001128
826	0.000176
838	0.0002152
850	0.0003248
862	0.0004944
874	0.0007632
886	0.0013568
898	0.0026728
910	0.0044024
922	0.0043136
934	0.0031872
946	0.00272
958	0.0021992
970	0.0015824
982	0.001504
994	0.0016624
1006	0.0013512
1018	0.0011808
1030	0.001332
1042	0.0015256
1054	0.0017056
1066	0.0019616
1078	0.0022488
1090	0.0025536
1102	0.0031448
1114	0.0036624
1126	0.0036608
1138	0.003324
1150	0.0031304
1162	0.0028568
1174	0.0023976
1186	0.001964
1198	0.001712
1210	0.0016536
1222	0.0017104
1234	0.0018184
1246	0.0025128
1258	0.0036184
1270	0.0032536
1282	0.0023792
1294	0.002308
1306	0.0025984
1318	0.0028336
1330	0.002724
1342	0.0024856
1354	0.0022408
1366	0.0021968
1378	0.0021376
1390	0.001328
1402	0.0007624
1414	0.0006848
1426	0.000824
1438	0.0011896
1450	0.0014344
1462	0.001024
1474	0.0005032
1486	0.0002384
1498	0.0001368
1510	0.0001216
1522	8.8e-05
1534	9.04e-05
1546	8.96e-05
1558	6.88e-05
1570	8.8e-05
1582	0.0001176
1594	0.0001328
1606	0.0001776
1618	0.0003984
1630	0.0010136
1642	0.0014384
1654	0.0007792
1666	0.000216
1678	0.0001208
1690	8.88e-05
1702	5.76e-05
1714	4.8e-05
1726	5.6e-05
1738	1.44e-05
1750	2.88e-05
1762	3.68e-05
1774	6e-05
1786	9.04e-05
1798	9.52e-05
1810	0.00014
1822	0.0002992
1834	0.0003496
1846	0.0001856
1858	0.0001096
1870	7.84e-05
1882	8.08e-05
1894	7.68e-05
1906	4.8e-05
1918	6.24e-05
1930	7.28e-05
1942	4.48e-05
1954	8e-05
1966	7.6e-05
1978	7.44e-05
1990	7.52e-05
2002	6.48e-05
2014	7.52e-05
2026	6.08e-05
2038	6.08e-05
2050	5.84e-05
2062	4.88e-05
2074	6.56e-05
2086	7.68e-05
2098	0.0001088
2110	8.64e-05
2122	8.16e-05
2134	8.88e-05
2146	3.84e-05
2158	8.08e-05
2170	5.12e-05
2182	7.84e-05
2194	8.72e-05
2206	6.24e-05
2218	7.68e-05
2230	8.08e-05
2242	7.76e-05
2254	6.96e-05
2266	5.04e-05
2278	8.96e-05
2290	7.76e-05
2302	7.2e-05
2314	5.6e-05
2326	7.44e-05
2338	4.08e-05
2350	5.04e-05
2362	5.84e-05
2374	4.32e-05
2386	7.04e-05
2398	7.92e-05
2410	6.8e-05
2422	6.8e-05
2434	6.88e-05
2446	5.84e-05
2458	5.04e-05
2470	6.56e-05
2482	6.88e-05
2494	8.16e-05
2506	5.84e-05
2518	4.08e-05
2530	6.8e-05
2542	8e-05
2554	6.88e-05
2566	6.56e-05
2578	7.12e-05
2590	6.96e-05
2602	5.76e-05
2614	6.08e-05
2626	6.16e-05
2638	5.44e-05
2650	8.32e-05
2662	8.72e-05
2674	8.56e-05
2686	9.36e-05
2698	8.88e-05
2710	8.96e-05
2722	7.36e-05
2734	8.48e-05
2746	7.2e-05
2758	8.96e-05
2770	9.52e-05
2782	8.88e-05
2794	0.00014
2806	0.0001536
2818	0.0002256
2830	0.0003048
2842	0.0005384
2854	0.000876
2866	0.0010728
2878	0.0010848
2890	0.0010512
2902	0.0013104
2914	0.0021032
2926	0.0033592
2938	0.0045288
2950	0.0045
2962	0.0031168
2974	0.0031208
2986	0.0048328
2998	0.0043344
3010	0.00222
3022	0.0010184
3034	0.0006072
3046	0.00056
3058	0.0006576
3070	0.0010776
3082	0.0018392
3094	0.0016192
3106	0.000512
3118	0.0002608
3130	0.0001768
3142	0.000132
3154	8.72e-05
3166	7.68e-05
3178	6.4e-05
3190	6.56e-05
3202	5.44e-05
3214	5.52e-05
3226	9.52e-05
3238	8.4e-05
3250	0.000104
3262	0.000216
3274	0.0004096
3286	0.000784
3298	0.001664
3310	0.0029376
3322	0.0044912
3334	0.0032976
3346	0.0007608
3358	0.0002616
3370	0.0001656
3382	0.0001056
3394	0.0001008
3406	8.08e-05
3418	3.84e-05
3430	4.72e-05
3442	7.6e-05
3454	7.68e-05
3466	4.4e-05
3478	6.88e-05
3490	7.44e-05
3502	6.8e-05
3514	9.52e-05
3526	8.88e-05
3538	5.76e-05
3550	6.08e-05
3562	2.48e-05
3574	9.84e-05
3586	8.24e-05
3598	0.0002648
3610	0.0004264
3622	0.0006504
3634	0.0015776
3646	0.0017928
3658	0.0007088
3670	0.0002
3682	6.08e-05
3694	8.8e-06
3706	1.6e-06
3718	2.4e-06
3730	2.4e-06
3742	2e-05
3754	2.4e-06
3766	8e-07
3778	2.4e-06
3790	2.4e-06
3802	0
3814	5.6e-06
3826	1.6e-06
3838	2.4e-06
