Infrared Spectrum: Diosgenin
Formula: C27 H42 O3
CAS: 512-04-9
State: SOLID (SPLIT MULL), FLUOROLUBE FOR 3800-1330 CM^-^1, NUJOL FOR 1330-400 CM^-^1
Class: COBLENTZ II
Instrument: DOW KBr FOREPRISM-GRATING
Instrument parameters: BLAZED AT 3.5, 12.0, 20.0 MICRON AND CHANGED AT 5.0, 7.5, 14.9 MICRON
Sampling: TRANSMISSION
Resolution: 2
Origin: DOW CHEMICAL COMPANY
1/CM	TRANSMITTANCE
3816	0.5954
3807	0.5981
3798	0.6005
3789	0.6021
3780	0.6031
3771	0.6041
3762	0.6067
3753	0.6093
3744	0.6121
3735	0.6149
3726	0.6171
3717	0.6192
3708	0.621
3699	0.6226
3690	0.6226
3681	0.6228
3672	0.6237
3663	0.6247
3654	0.6234
3645	0.618
3636	0.6112
3627	0.6024
3618	0.5928
3609	0.5824
3600	0.5703
3591	0.5558
3582	0.5385
3573	0.5205
3564	0.508
3555	0.5073
3546	0.517
3537	0.5273
3528	0.5325
3519	0.5347
3510	0.5325
3501	0.5194
3492	0.4767
3483	0.4364
3474	0.382
3465	0.3068
3456	0.3021
3447	0.3188
3438	0.3327
3429	0.3364
3420	0.3322
3411	0.323
3402	0.314
3393	0.307
3384	0.2997
3375	0.2906
3366	0.2881
3357	0.294
3348	0.3049
3339	0.3198
3330	0.3359
3321	0.3494
3312	0.3627
3303	0.3775
3294	0.3936
3285	0.4055
3276	0.4071
3267	0.4079
3258	0.4247
3249	0.443
3240	0.4599
3231	0.4788
3222	0.501
3213	0.5207
3204	0.5395
3195	0.5584
3186	0.5738
3177	0.59
3168	0.6031
3159	0.6155
3150	0.6279
3141	0.641
3132	0.6551
3123	0.6651
3114	0.6751
3105	0.6825
3096	0.6899
3087	0.6971
3078	0.7038
3069	0.7093
3060	0.7133
3051	0.7134
3042	0.6942
3033	0.6718
3024	0.7017
3015	0.7119
3006	0.7011
2997	0.4462
2988	0.3066
2979	0.1813
2970	0.1555
2961	0.0377
2952	0.0388
2943	0.0562
2934	0.0628
2925	0.0854
2916	0.0814
2907	0.0599
2898	0.1061
2889	0.172
2880	0.1481
2871	0.1555
2862	0.1528
2853	0.1531
2844	0.2242
2835	0.2688
2826	0.3228
2817	0.452
2808	0.5192
2799	0.5521
2790	0.5651
2781	0.5758
2772	0.5823
2763	0.5884
2754	0.5937
2745	0.5989
2736	0.6041
2727	0.6093
2718	0.6175
2709	0.6229
2700	0.6267
2691	0.6294
2682	0.6308
2673	0.6312
2664	0.6331
2655	0.6372
2646	0.6478
2637	0.6568
2628	0.6648
2619	0.6706
2610	0.6761
2601	0.6807
2592	0.6851
2583	0.6896
2574	0.6941
2565	0.6971
2556	0.7003
2547	0.7033
2538	0.7064
2529	0.7086
2520	0.7108
2511	0.7128
2502	0.715
2493	0.7165
2484	0.7183
2475	0.72
2466	0.7217
2457	0.7228
2448	0.7239
2439	0.7249
2430	0.7262
2421	0.7275
2412	0.729
2403	0.7301
2394	0.7312
2385	0.7324
2376	0.7338
2367	0.735
2358	0.7364
2349	0.7375
2340	0.7378
2331	0.7382
2322	0.7384
2313	0.7385
2304	0.7386
2295	0.7387
2286	0.739
2277	0.7398
2268	0.7408
2259	0.7421
2250	0.7453
2241	0.7491
2232	0.7539
2223	0.7593
2214	0.7658
2205	0.7721
2196	0.7764
2187	0.7774
2178	0.7795
2169	0.7833
2160	0.7872
2151	0.7911
2142	0.7935
2133	0.794
2124	0.7925
2115	0.7911
2106	0.7899
2097	0.7914
2088	0.7946
2079	0.7983
2070	0.8021
2061	0.8065
2052	0.8108
2043	0.815
2034	0.8192
2025	0.8221
2016	0.8251
2007	0.8278
1998	0.831
1989	0.8294
1980	0.8318
1971	0.836
1962	0.8373
1953	0.8364
1944	0.8389
1935	0.8414
1926	0.8436
1917	0.8449
1908	0.8461
1899	0.8468
1890	0.8474
1881	0.8482
1872	0.85
1863	0.8515
1854	0.8521
1845	0.8528
1836	0.8527
1827	0.8518
1818	0.8518
1809	0.8531
1800	0.8542
1791	0.8552
1782	0.8563
1773	0.8575
1764	0.8588
1755	0.8596
1746	0.8584
1737	0.8581
1728	0.86
1719	0.8635
1710	0.8665
1701	0.8668
1692	0.8664
1683	0.8661
1674	0.8634
1665	0.8448
1656	0.7934
1647	0.8028
1638	0.7542
1629	0.8151
1620	0.8396
1611	0.8528
1602	0.8607
1593	0.8664
1584	0.8702
1575	0.8716
1566	0.8709
1557	0.8694
1548	0.8668
1539	0.865
1530	0.8635
1521	0.8624
1512	0.8618
1503	0.8609
1494	0.8585
1485	0.8504
1476	0.7736
1467	0.583
1458	0.3392
1449	0.3218
1440	0.4297
1431	0.529
1422	0.4934
1413	0.6224
1404	0.6924
1395	0.7178
1386	0.5947
1377	0.3834
1368	0.4316
1359	0.4574
1350	0.5474
1341	0.5459
1332	0.5897
1323	0.7069
1314	0.7171
1305	0.6378
1296	0.6494
1287	0.7061
1278	0.7596
1269	0.7728
1260	0.7535
1251	0.7899
1242	0.635
1233	0.5384
1224	0.7634
1215	0.7758
1206	0.8061
1197	0.7517
1188	0.6786
1179	0.5917
1170	0.4126
1161	0.5906
1152	0.5512
1143	0.6939
1134	0.6908
1125	0.6693
1116	0.7361
1107	0.7737
1098	0.7019
1089	0.5215
1080	0.6774
1071	0.2878
1062	0.1911
1053	0.1331
1044	0.1995
1035	0.3725
1026	0.6681
1017	0.596
1008	0.572
999	0.619
990	0.5446
981	0.5269
972	0.3936
963	0.6051
954	0.5581
945	0.6279
936	0.8211
927	0.8043
918	0.7867
909	0.7275
900	0.7885
891	0.5031
882	0.6875
873	0.819
864	0.6346
855	0.7639
846	0.8437
837	0.7584
828	0.7695
819	0.8973
810	0.8721
801	0.8332
792	0.7765
783	0.8094
774	0.8837
765	0.8877
756	0.8601
747	0.8584
738	0.8348
729	0.7739
720	0.7742
711	0.8187
702	0.8217
693	0.8244
684	0.8213
675	0.8084
666	0.7675
657	0.8115
648	0.8232
639	0.8225
630	0.7522
621	0.8103
612	0.7725
603	0.8265
594	0.8072
585	0.8138
576	0.8235
567	0.7597
558	0.8268
549	0.8478
540	0.8513
531	0.7701
522	0.822
513	0.7599
504	0.8244
495	0.8325
486	0.8075
477	0.8114
468	0.8119
459	0.811
450	0.7884
441	0.7867
432	0.7711
423	0.7591
414	0.7528
405	0.7396
396	0.7325
