Infrared Spectrum: Trimethyl phosphate
Formula: C 3 H 9 O 4 P
CAS: 512-56-1
State: gas
Instrument: HP-GC/MS/IRD
Origin: NIST Mass Spectrometry Data Center
1/CM	ABSORBANCE
550	0.0010902
562	0.0007584
574	0.0003081
586	0.0001422
598	7.11e-05
610	7.11e-05
622	9.48e-05
634	2.37e-05
646	7.11e-05
658	0.0001185
670	0.0001659
682	0.0003555
694	0.0006162
706	0.001185
718	0.0026781
730	0.0057591
742	0.0093378
754	0.0104754
766	0.0060672
778	0.0029625
790	0.0031284
802	0.0047163
814	0.00948
826	0.0294354
838	0.0771198
850	0.0889698
862	0.0377067
874	0.009717
886	0.0045741
898	0.0030573
910	0.0024648
922	0.0021804
934	0.0021804
946	0.0024648
958	0.0029862
970	0.0036498
982	0.0049533
994	0.0075603
1006	0.0128928
1018	0.0266388
1030	0.0699624
1042	0.164999
1054	0.237
1066	0.192231
1078	0.0991608
1090	0.0531117
1102	0.0348627
1114	0.0270417
1126	0.0215433
1138	0.0165189
1150	0.0131535
1162	0.0126558
1174	0.0158316
1186	0.0195999
1198	0.0179172
1210	0.012798
1222	0.0100962
1234	0.0091008
1246	0.0087927
1258	0.0108072
1270	0.0210693
1282	0.0392472
1294	0.0538938
1306	0.0531591
1318	0.0372564
1330	0.0159264
1342	0.0058065
1354	0.003792
1366	0.0031284
1378	0.002844
1390	0.0026781
1402	0.0025359
1414	0.00237
1426	0.0024885
1438	0.0036972
1450	0.006162
1462	0.0069915
1474	0.0055932
1486	0.0040527
1498	0.0028677
1510	0.00237
1522	0.0022041
1534	0.0022752
1546	0.0023226
1558	0.0022752
1570	0.002133
1582	0.0019197
1594	0.001659
1606	0.0013509
1618	0.0009954
1630	0.0007347
1642	0.0005688
1654	0.0004503
1666	0.0004029
1678	0.0004266
1690	0.0003792
1702	0.0002607
1714	0.0001659
1726	0.0001422
1738	0.0001422
1750	0.0002607
1762	0.0004977
1774	0.0008769
1786	0.0013272
1798	0.0015642
1810	0.0014457
1822	0.0009006
1834	0.0004977
1846	0.0004266
1858	0.0005214
1870	0.0008058
1882	0.0012561
1894	0.0017775
1906	0.0020145
1918	0.0018723
1930	0.0016353
1942	0.0013746
1954	0.0010191
1966	0.0006399
1978	0.0004266
1990	0.0003081
2002	0.0002607
2014	0.0002844
2026	0.0003792
2038	0.0004029
2050	0.0003555
2062	0.0002133
2074	0.0001659
2086	0.0002133
2098	0.0002844
2110	0.0002607
2122	0.0002844
2134	0.0003081
2146	0.0002607
2158	0.0001422
2170	4.74e-05
2182	4.74e-05
2194	0
2206	0
2218	2.37e-05
2230	0
2242	2.37e-05
2254	2.37e-05
2266	7.11e-05
2278	9.48e-05
2290	0.0001185
2302	0.0001422
2314	0.0001422
2326	0.0001185
2338	4.74e-05
2350	9.48e-05
2362	4.74e-05
2374	7.11e-05
2386	2.37e-05
2398	4.74e-05
2410	9.48e-05
2422	9.48e-05
2434	7.11e-05
2446	0
2458	4.74e-05
2470	7.11e-05
2482	7.11e-05
2494	7.11e-05
2506	9.48e-05
2518	0.0001185
2530	0.0001185
2542	0.0001422
2554	0.0001422
2566	0.0001896
2578	0.0001896
2590	0.0001896
2602	0.0002844
2614	0.0003081
2626	0.0003081
2638	0.0003318
2650	0.0003318
2662	0.0002844
2674	0.0002607
2686	0.000237
2698	0.000237
2710	0.000237
2722	0.000237
2734	0.0002607
2746	0.0002844
2758	0.0003555
2770	0.0003555
2782	0.000474
2794	0.0006162
2806	0.000948
2818	0.0015168
2830	0.00237
2842	0.0046452
2854	0.0107835
2866	0.0132246
2878	0.0083898
2890	0.0049533
2902	0.0053088
2914	0.0067308
2926	0.0080106
2938	0.0100725
2950	0.0212589
2962	0.032232
2974	0.0261885
2986	0.0141489
2998	0.0123951
3010	0.0119448
3022	0.0105465
3034	0.0080343
3046	0.0060198
3058	0.0051429
3070	0.0048348
3082	0.0042423
3094	0.0034365
3106	0.0026544
3118	0.0020382
3130	0.0014931
3142	0.0010191
3154	0.0007584
3166	0.0005451
3178	0.0003792
3190	0.0003318
3202	0.0002844
3214	0.0002607
3226	0.0002133
3238	0.000237
3250	0.0001896
3262	0.0001896
3274	0.0001659
3286	0.0001896
3298	9.48e-05
3310	0.0001185
3322	0.0001659
3334	0.0001422
3346	0.0001185
3358	0.0001659
3370	0.0001422
3382	7.11e-05
3394	7.11e-05
3406	0.0001422
3418	0.0001422
3430	7.11e-05
3442	7.11e-05
3454	0.0001185
3466	0.0001185
3478	9.48e-05
3490	9.48e-05
3502	9.48e-05
3514	9.48e-05
3526	7.11e-05
3538	4.74e-05
3550	0.0001185
3562	4.74e-05
3574	7.11e-05
3586	2.37e-05
3598	2.37e-05
3610	4.74e-05
3622	7.11e-05
3634	7.11e-05
3646	4.74e-05
3658	7.11e-05
3670	4.74e-05
3682	7.11e-05
3694	4.74e-05
3706	4.74e-05
3718	0.0001185
3730	7.11e-05
3742	7.11e-05
3754	0.0001422
3766	9.48e-05
3778	4.74e-05
3790	7.11e-05
3802	9.48e-05
3814	4.74e-05
3826	9.48e-05
3838	4.74e-05
