Infrared Spectrum: Hexaphenylcyclotrisiloxane
Formula: C36 H30 O3 Si3
CAS: 512-63-0
State: SOLUTION (10% CCl4 FOR 3800-1300, 2% CS2 FOR 1300-650, AND 10% CCl4 FOR 650-250)
Melting point: 190 C
Class: COBLENTZ III
Instrument: PERKIN-ELMER 521 (GRATING)
Instrument parameters: FILTERS AT 3150, 2500, 2000, 1150, 700, 410. GRATING CHANGES: 2000, 630
Path length: 0.011 CM, 0.010 CM, AND 0.010 CM
Resolution: 2
Origin: DOW CORNING CORP.
1/CM	TRANSMITTANCE
244	0.8405
253	0.8344
262	0.8271
271	0.8191
280	0.811
289	0.8023
298	0.7867
307	0.7501
316	0.7947
325	0.8044
334	0.806
343	0.7942
352	0.7872
361	0.7819
370	0.7723
379	0.7459
388	0.6373
397	0.4382
406	0.51
415	0.7196
424	0.7537
433	0.7401
442	0.7179
451	0.6849
460	0.6538
469	0.597
478	0.4452
487	0.2728
496	0.4011
505	0.6159
514	0.6854
523	0.4955
532	0.0205
541	0.4282
550	0.7252
559	0.7433
568	0.7826
577	0.8037
586	0.8058
595	0.8019
604	0.7908
613	0.767
622	0.7577
631	0.8363
640	0.9097
649	0.8933
658	0.8877
667	0.8798
676	0.7921
685	0.8161
694	0.572
703	0.4533
712	0.7424
721	0.4236
730	0.6107
739	0.6105
748	0.8143
757	0.8339
766	0.7982
775	0.8418
784	0.8399
793	0.8398
802	0.8415
811	0.8448
820	0.8499
829	0.8482
838	0.8438
847	0.8414
856	0.8416
865	0.8499
874	0.8538
883	0.8549
892	0.8545
901	0.8531
910	0.8502
919	0.8468
928	0.8428
937	0.8368
946	0.8279
955	0.8145
964	0.7926
973	0.7402
982	0.6166
991	0.2079
1000	0.6285
1009	0.1759
1018	0.084
1027	0.5722
1036	0.1136
1045	0.7256
1054	0.7899
1063	0.7915
1072	0.7895
1081	0.7878
1090	0.7715
1099	0.7475
1108	0.7032
1117	0.3254
1126	0.4104
1135	0.5711
1144	0.7997
1153	0.8096
1162	0.8225
1171	0.8278
1180	0.8186
1189	0.815
1198	0.8394
1207	0.8432
1216	0.8439
1225	0.8438
1234	0.844
1243	0.8407
1252	0.8213
1261	0.8088
1270	0.8311
1279	0.8505
1288	0.8466
1297	0.8399
1306	0.8426
1315	0.8866
1324	0.876
1333	0.8746
1342	0.9235
1351	0.9215
1360	0.9133
1369	0.8862
1378	0.8743
1387	0.9149
1396	0.912
1405	0.8999
1414	0.875
1423	0.6967
1432	0.3224
1441	0.873
1450	0.9084
1459	0.9142
1468	0.912
1477	0.8943
1486	0.8036
1495	0.9095
1504	0.9274
1513	0.9207
1522	0.915
1531	0.9074
1540	0.8991
1549	0.8713
1558	0.8909
1567	0.8212
1576	0.8667
1585	0.8097
1594	0.4208
1603	0.8882
1612	0.8771
1621	0.9048
1630	0.9172
1639	0.9053
1648	0.8963
1657	0.8887
1666	0.9188
1675	0.9227
1684	0.9227
1693	0.9226
1702	0.9211
1711	0.9059
1720	0.9061
1729	0.9237
1738	0.9218
1747	0.918
1756	0.9147
1765	0.8908
1774	0.8772
1783	0.9122
1792	0.9193
1801	0.9147
1810	0.9073
1819	0.836
1828	0.8709
1837	0.8795
1846	0.9126
1855	0.9208
1864	0.9214
1873	0.91
1882	0.8628
1891	0.8313
1900	0.8555
1909	0.8808
1918	0.9178
1927	0.9182
1936	0.9191
1945	0.9065
1954	0.8447
1963	0.8497
1972	0.8674
1981	0.8995
1990	0.9164
1999	0.9215
2008	0.9226
2017	0.9233
2026	0.924
2035	0.9246
2044	0.9251
2053	0.9256
2062	0.9256
2071	0.9254
2080	0.9243
2089	0.9229
2098	0.9215
2107	0.9206
2116	0.9199
2125	0.9199
2134	0.9201
2143	0.9202
2152	0.9194
2161	0.9186
2170	0.9167
2179	0.9146
2188	0.9125
2197	0.9103
2206	0.9085
2215	0.9069
2224	0.9054
2233	0.9043
2242	0.9032
2251	0.9036
2260	0.9056
2269	0.9057
2278	0.9044
2287	0.903
2296	0.9006
2305	0.8972
2314	0.8942
2323	0.902
2332	0.9019
2341	0.9013
2350	0.9006
2359	0.8999
2368	0.899
2377	0.8983
2386	0.8977
2395	0.897
2404	0.8964
2413	0.8957
2422	0.8952
2431	0.8943
2440	0.8935
2449	0.8926
2458	0.8918
2467	0.891
2476	0.8902
2485	0.8894
2494	0.8877
2503	0.8859
2512	0.8842
2521	0.8824
2530	0.8813
2539	0.8817
2548	0.882
2557	0.882
2566	0.8819
2575	0.8817
2584	0.8821
2593	0.8826
2602	0.8831
2611	0.8835
2620	0.8836
2629	0.8834
2638	0.883
2647	0.8821
2656	0.8809
2665	0.8794
2674	0.8767
2683	0.8732
2692	0.8697
2701	0.8661
2710	0.8644
2719	0.8653
2728	0.8699
2737	0.8702
2746	0.8702
2755	0.8693
2764	0.8683
2773	0.8673
2782	0.8663
2791	0.865
2800	0.8634
2809	0.8618
2818	0.8605
2827	0.8599
2836	0.8602
2845	0.8603
2854	0.862
2863	0.8592
2872	0.8533
2881	0.8482
2890	0.8485
2899	0.8427
2908	0.8364
2917	0.837
2926	0.8418
2935	0.8371
2944	0.8326
2953	0.8267
2962	0.8224
2971	0.8183
2980	0.804
2989	0.7797
2998	0.6898
3007	0.6233
3016	0.6402
3025	0.6414
3034	0.6929
3043	0.5968
3052	0.4794
3061	0.5761
3070	0.5009
3079	0.4638
3088	0.7283
3097	0.7723
3106	0.8448
3115	0.8476
3124	0.846
3133	0.8147
3142	0.8293
3151	0.8644
3160	0.8649
3169	0.8649
3178	0.8654
3187	0.8657
3196	0.8658
3205	0.8658
3214	0.8658
3223	0.8656
3232	0.8653
3241	0.865
3250	0.8647
3259	0.8643
3268	0.8641
3277	0.8637
3286	0.863
3295	0.8623
3304	0.8616
3313	0.8609
3322	0.8606
3331	0.8604
3340	0.8603
3349	0.8601
3358	0.8598
3367	0.8593
3376	0.859
3385	0.8585
3394	0.8579
3403	0.8569
3412	0.8559
3421	0.8549
3430	0.8538
3439	0.8524
3448	0.8511
3457	0.8497
3466	0.8487
3475	0.8478
3484	0.8468
3493	0.8464
3502	0.8467
3511	0.847
3520	0.8474
3529	0.8479
3538	0.8489
3547	0.8499
3556	0.8521
3565	0.8552
3574	0.8568
3583	0.8579
3592	0.8573
3601	0.8575
3610	0.8591
3619	0.8608
3628	0.8624
3637	0.8652
3646	0.8688
3655	0.869
3664	0.8696
3673	0.8717
3682	0.8702
3691	0.8663
3700	0.8656
3709	0.8656
3718	0.8681
3727	0.871
3736	0.8744
3745	0.8783
3754	0.8781
3763	0.8726
3772	0.8703
3781	0.869
3790	0.8693
3799	0.8706
