Infrared Spectrum: Metolachlor
Formula: C 15 H 22 Cl N O 2
CAS: 51218-45-2
State: gas
Instrument: HP-GC/MS/IRD
Origin: NIST Mass Spectrometry Data Center
1/CM	ABSORBANCE
550	0.0023055
562	0.0023691
574	0.0054537
586	0.0040863
598	0.0036252
610	0.0030687
622	0.0029892
634	0.0026871
646	0.001749
658	0.0010653
670	0.0011289
682	0.0029256
694	0.0070755
706	0.0075048
718	0.0049449
730	0.0024486
742	0.0026394
754	0.0061533
766	0.0135627
778	0.0169494
790	0.0181578
802	0.0124338
814	0.0036093
826	0.0011925
838	0.000318
850	0.0001431
862	0.0008427
874	0.0014151
886	0.0028302
898	0.0019716
910	0.0024804
922	0.004134
934	0.0049608
946	0.0061692
958	0.0066462
970	0.0048813
982	0.0038637
994	0.002544
1006	0.0017808
1018	0.002226
1030	0.0037683
1042	0.0068847
1054	0.0104781
1066	0.0130698
1078	0.0174582
1090	0.0283815
1102	0.0492582
1114	0.0716931
1126	0.0597363
1138	0.0423258
1150	0.0361725
1162	0.026553
1174	0.0193185
1186	0.0179829
1198	0.0239454
1210	0.0265689
1222	0.0353139
1234	0.0390504
1246	0.0385416
1258	0.0308619
1270	0.0190959
1282	0.0131175
1294	0.0136422
1306	0.0219579
1318	0.0367131
1330	0.0518499
1342	0.0537738
1354	0.0408789
1366	0.0241362
1378	0.0244701
1390	0.0245337
1402	0.0218307
1414	0.0186825
1426	0.0244542
1438	0.0281748
1450	0.0351867
1462	0.0382554
1474	0.0276024
1486	0.0138012
1498	0.0077274
1510	0.0053106
1522	0.0041658
1534	0.0035934
1546	0.0031641
1558	0.0029574
1570	0.0032754
1582	0.0044043
1594	0.004452
1606	0.0034821
1618	0.0036888
1630	0.0050721
1642	0.0091425
1654	0.0168063
1666	0.0344553
1678	0.0972444
1690	0.159
1702	0.0849696
1714	0.0292401
1726	0.0107007
1738	0.0053742
1750	0.0033072
1762	0.0022737
1774	0.0019239
1786	0.0019557
1798	0.0011448
1810	0.0007632
1822	0.0005883
1834	0.0004929
1846	0.0006519
1858	0.0011766
1870	0.0005406
1882	0.0001272
1894	7.95e-05
1906	0.0001113
1918	0.0004134
1930	0.0015105
1942	0.0008745
1954	9.54e-05
1966	0
1978	1.59e-05
1990	9.54e-05
2002	0.0002226
2014	0.0002862
2026	0.0004293
2038	0.0005565
2050	0.0006837
2062	0.0007632
2074	0.0007473
2086	0.0006201
2098	0.0004611
2110	0.000318
2122	0.0002067
2134	0.0001431
2146	0.0001431
2158	0.0001431
2170	9.54e-05
2182	0.0001272
2194	9.54e-05
2206	0.0001272
2218	0.0001113
2230	0.0001431
2242	0.0001272
2254	0.0001272
2266	0.0001431
2278	0.0001113
2290	0.0001272
2302	0.000159
2314	0.0001908
2326	0.0001908
2338	0.0003657
2350	0.0003339
2362	0.0001431
2374	0.0001272
2386	0.0001908
2398	0.0002226
2410	0.0001749
2422	0.000159
2434	0.0001908
2446	0.0002385
2458	0.0002544
2470	0.0002862
2482	0.0003021
2494	0.000318
2506	0.0003021
2518	0.0002544
2530	0.0002703
2542	0.0003021
2554	0.0003816
2566	0.0004293
2578	0.0004929
2590	0.0005724
2602	0.000636
2614	0.0006837
2626	0.0007473
2638	0.0008268
2650	0.0008586
2662	0.0008268
2674	0.0009063
2686	0.0009699
2698	0.0010494
2710	0.0012243
2722	0.0016377
2734	0.0024168
2746	0.0031323
2758	0.0030687
2770	0.0033231
2782	0.0040863
2794	0.0055809
2806	0.0090312
2818	0.0178239
2830	0.0224667
2842	0.0203043
2854	0.0203838
2866	0.0250107
2878	0.031482
2890	0.0390027
2902	0.0385893
2914	0.0375876
2926	0.0440748
2938	0.0531696
2950	0.0491628
2962	0.0368562
2974	0.048336
2986	0.0528993
2998	0.0361089
3010	0.0206223
3022	0.0163293
3034	0.0140556
3046	0.0124179
3058	0.015741
3070	0.0176013
3082	0.0105735
3094	0.0044997
3106	0.0029415
3118	0.0023214
3130	0.0019239
3142	0.0016536
3154	0.0015582
3166	0.0014628
3178	0.0011766
3190	0.000795
3202	0.0006201
3214	0.0005247
3226	0.0004452
3238	0.0003975
3250	0.000318
3262	0.0002703
3274	0.000318
3286	0.0002862
3298	0.0003021
3310	0.0003339
3322	0.0005088
3334	0.0007632
3346	0.0010176
3358	0.0012084
3370	0.0010971
3382	0.000954
3394	0.000636
3406	0.0004611
3418	0.0002226
3430	0.0001908
3442	0.0001749
3454	0.0001749
3466	0.0001272
3478	0.000159
3490	0.000159
3502	0.0001431
3514	9.54e-05
3526	0.0001113
3538	9.54e-05
3550	7.95e-05
3562	0.000159
3574	9.54e-05
3586	9.54e-05
3598	0.0001431
3610	0.0001431
3622	0.0001272
3634	9.54e-05
3646	9.54e-05
3658	0.0001113
3670	0.0001431
3682	0.000159
3694	0.0001431
3706	0.000159
3718	0.000159
3730	0.000159
3742	0.0001749
3754	0.0003339
3766	0.0003498
3778	0.0003816
3790	0.0003816
3802	0.0003816
3814	0.0003339
3826	0.0003975
3838	0.0003975
