Infrared Spectrum: Sulfanilanilide, 3-nitro-4-N-phenyl-
Formula: C18 H15 N3 O4 S
CAS: 5124-25-4
State: SOLID (SPLIT MULL), FLUOROLUBE FOR 3800-1330 CM^-^1, NUJOL FOR 1330-400 CM^-^1
Class: COBLENTZ III
Instrument: BECKMAN IR-9 (GRATING)
Instrument parameters: ORDER CHANGES: 670, 1200, 2000 CM^-^1
Sampling: TRANSMISSION
Resolution: 2
Origin: DOW CHEMICAL COMPANY
1/CM	TRANSMITTANCE
402	0.6699
411	0.6736
420	0.6905
429	0.7528
438	0.8031
447	0.8102
456	0.854
465	0.8763
474	0.8779
483	0.8638
492	0.5518
501	0.7074
510	0.6338
519	0.5844
528	0.3713
537	0.5925
546	0.6917
555	0.775
564	0.7736
573	0.7049
582	0.2798
591	0.6811
600	0.6206
609	0.7357
618	0.8574
627	0.8301
636	0.7643
645	0.7195
654	0.621
663	0.643
672	0.4017
681	0.4973
690	0.6489
699	0.2152
708	0.2672
717	0.4271
726	0.2026
735	0.6224
744	0.7584
753	0.7493
762	0.2229
771	0.5974
780	0.7687
789	0.8118
798	0.8283
807	0.831
816	0.7207
825	0.5062
834	0.7678
843	0.7506
852	0.7745
861	0.7875
870	0.7892
879	0.6374
888	0.5335
897	0.7794
906	0.6871
915	0.6138
924	0.4514
933	0.7642
942	0.8171
951	0.83
960	0.8256
969	0.7923
978	0.798
987	0.7888
996	0.8063
1005	0.7935
1014	0.7966
1023	0.7799
1032	0.6283
1041	0.7406
1050	0.7728
1059	0.7595
1068	0.6867
1077	0.4466
1086	0.6717
1095	0.6903
1104	0.5079
1113	0.4537
1122	0.5985
1131	0.6726
1140	0.6436
1149	0.5144
1158	0.2293
1167	0.0296
1176	0.047
1185	0.3595
1194	0.6711
1203	0.712
1212	0.6488
1221	0.5556
1230	0.6093
1239	0.4199
1248	0.6596
1257	0.6493
1266	0.5196
1275	0.1564
1284	0.1958
1293	0.3871
1302	0.4979
1311	0.5116
1320	0.5657
1329	0.4435
1338	0.2769
1347	0.3297
1356	0.4238
1365	0.4972
1374	0.4881
1383	0.3032
1392	0.6275
1401	0.6455
1410	0.5397
1419	0.6467
1428	0.6413
1437	0.7526
1446	0.7492
1455	0.6625
1464	0.6708
1473	0.6262
1482	0.6348
1491	0.4894
1500	0.4233
1509	0.307
1518	0.3248
1527	0.5171
1536	0.7481
1545	0.7494
1554	0.672
1563	0.4374
1572	0.429
1581	0.6608
1590	0.4761
1599	0.2441
1608	0.5989
1617	0.2549
1626	0.4301
1635	0.7919
1644	0.8379
1653	0.853
1662	0.8573
1671	0.8625
1680	0.8625
1689	0.8602
1698	0.8562
1707	0.8516
1716	0.847
1725	0.8423
1734	0.8373
1743	0.8334
1752	0.832
1761	0.8301
1770	0.8274
1779	0.8228
1788	0.8151
1797	0.8092
1806	0.8051
1815	0.8074
1824	0.8164
1833	0.8183
1842	0.8166
1851	0.8138
1860	0.8106
1869	0.806
1878	0.8023
1887	0.8007
1896	0.8009
1905	0.8026
1914	0.8027
1923	0.7995
1932	0.7949
1941	0.7883
1950	0.7813
1959	0.7892
1968	0.7882
1977	0.7882
1986	0.7867
1995	0.7803
2004	0.7816
2013	0.7836
2022	0.7834
2031	0.7823
2040	0.7804
2049	0.7782
2058	0.776
2067	0.7734
2076	0.7709
2085	0.7679
2094	0.7645
2103	0.7611
2112	0.7578
2121	0.7542
2130	0.7506
2139	0.7469
2148	0.7433
2157	0.7397
2166	0.736
2175	0.7324
2184	0.7283
2193	0.7255
2202	0.7232
2211	0.7199
2220	0.7147
2229	0.7084
2238	0.7021
2247	0.6969
2256	0.6918
2265	0.6884
2274	0.685
2283	0.6816
2292	0.6792
2301	0.6776
2310	0.676
2319	0.6751
2328	0.6756
2337	0.6762
2346	0.677
2355	0.6786
2364	0.6805
2373	0.6827
2382	0.6785
2391	0.6697
2400	0.6653
2409	0.6635
2418	0.6619
2427	0.6601
2436	0.6584
2445	0.6573
2454	0.6562
2463	0.655
2472	0.6538
2481	0.6526
2490	0.6514
2499	0.6502
2508	0.6492
2517	0.648
2526	0.647
2535	0.6459
2544	0.6448
2553	0.6435
2562	0.6423
2571	0.641
2580	0.6388
2589	0.6366
2598	0.6351
2607	0.6337
2616	0.6323
2625	0.6306
2634	0.6288
2643	0.627
2652	0.6253
2661	0.6232
2670	0.6213
2679	0.6198
2688	0.6188
2697	0.618
2706	0.6169
2715	0.6137
2724	0.6103
2733	0.6066
2742	0.603
2751	0.6002
2760	0.5978
2769	0.5954
2778	0.593
2787	0.5915
2796	0.5918
2805	0.5917
2814	0.5888
2823	0.5858
2832	0.5823
2841	0.5784
2850	0.5746
2859	0.5722
2868	0.5704
2877	0.5694
2886	0.568
2895	0.5666
2904	0.5634
2913	0.5581
2922	0.5512
2931	0.5473
2940	0.5467
2949	0.5481
2958	0.549
2967	0.5506
2976	0.5492
2985	0.5469
2994	0.5435
3003	0.5394
3012	0.5352
3021	0.5288
3030	0.521
3039	0.5123
3048	0.5014
3057	0.4914
3066	0.4824
3075	0.4779
3084	0.4924
3093	0.4957
3102	0.482
3111	0.5102
3120	0.5171
3129	0.517
3138	0.5158
3147	0.5137
3156	0.5112
3165	0.5085
3174	0.5052
3183	0.501
3192	0.4962
3201	0.4908
3210	0.485
3219	0.477
3228	0.4683
3237	0.4577
3246	0.4423
3255	0.4232
3264	0.4016
3273	0.3728
3282	0.3006
3291	0.2388
3300	0.3378
3309	0.4375
3318	0.4487
3327	0.4673
3336	0.4717
3345	0.4067
3354	0.2635
3363	0.3642
3372	0.5109
3381	0.5148
3390	0.5138
3399	0.5124
3408	0.5099
3417	0.5067
3426	0.5031
3435	0.4998
3444	0.4968
3453	0.4933
3462	0.4896
3471	0.4865
3480	0.4838
3489	0.4812
3498	0.4786
3507	0.4761
3516	0.4735
3525	0.4717
3534	0.4699
3543	0.4681
3552	0.4668
3561	0.4656
3570	0.4637
3579	0.4609
3588	0.4555
3597	0.4544
3606	0.457
3615	0.4561
3624	0.4544
3633	0.4519
3642	0.4504
3651	0.4487
3660	0.4469
3669	0.445
3678	0.4431
3687	0.4411
3696	0.4391
3705	0.4371
3714	0.4351
3723	0.4329
3732	0.4308
3741	0.4286
3750	0.4266
3759	0.4246
3768	0.4229
3777	0.4227
3786	0.4235
3795	0.4242
