Infrared Spectrum: 5,9-Tetradecadiyne
Formula: C 14 H 22
CAS: 51255-61-9
State: gas
Instrument: HP-GC/MS/IRD
Origin: NIST Mass Spectrometry Data Center
1/CM	ABSORBANCE
550	0.0004392
562	0.0004896
574	0.0004428
586	0.0003168
598	0.0002556
610	0.0001476
622	0.000144
634	0.0001188
646	0.0001908
658	0.000126
670	0.0001548
682	0.000126
694	0.0001584
706	0.0002016
718	0.0002268
730	0.0003564
742	0.000432
754	0.00054
766	0.000414
778	0.0002448
790	0.0002304
802	0.0001548
814	1.8e-05
826	1.8e-05
838	9.72e-05
850	4.68e-05
862	9.36e-05
874	0.0001152
886	0.0001332
898	0.0001944
910	0.0002016
922	0.0002592
934	0.0003348
946	0.0002196
958	0.0003204
970	0.0002988
982	0.0002448
994	0.0002232
1006	0.000198
1018	0.0001404
1030	0.0001764
1042	0.0001512
1054	0.00018
1066	0.00018
1078	0.0001656
1090	0.0003636
1102	0.0005004
1114	0.0002592
1126	9.36e-05
1138	0.0001728
1150	0.0001188
1162	5.04e-05
1174	0.0001404
1186	0.0001908
1198	0.000306
1210	0.0002988
1222	0.0002844
1234	0.0004572
1246	0.0009684
1258	0.0021168
1270	0.0010944
1282	0.0008352
1294	0.0012708
1306	0.001908
1318	0.0034344
1330	0.005346
1342	0.0044532
1354	0.002196
1366	0.00162
1378	0.0014256
1390	0.00135
1402	0.0009576
1414	0.0010512
1426	0.0019872
1438	0.0040392
1450	0.0036432
1462	0.003402
1474	0.002538
1486	0.0012816
1498	0.000738
1510	0.000504
1522	0.0003708
1534	0.0003168
1546	0.0002448
1558	0.0002124
1570	0.0002016
1582	0.000162
1594	0.0001296
1606	0.0001044
1618	0.0001188
1630	8.64e-05
1642	0.0001044
1654	7.92e-05
1666	5.76e-05
1678	3.96e-05
1690	4.32e-05
1702	5.04e-05
1714	5.4e-05
1726	1.44e-05
1738	3.6e-05
1750	3.24e-05
1762	1.8e-05
1774	3.6e-05
1786	2.16e-05
1798	4.68e-05
1810	2.16e-05
1822	0
1834	3.6e-06
1846	3.96e-05
1858	0
1870	2.88e-05
1882	2.88e-05
1894	2.52e-05
1906	1.08e-05
1918	3.6e-06
1930	3.24e-05
1942	3.6e-06
1954	3.24e-05
1966	2.88e-05
1978	1.08e-05
1990	5.76e-05
2002	5.04e-05
2014	7.92e-05
2026	0.0001188
2038	9.36e-05
2050	8.28e-05
2062	8.64e-05
2074	5.04e-05
2086	4.32e-05
2098	2.52e-05
2110	5.04e-05
2122	5.04e-05
2134	5.4e-05
2146	6.48e-05
2158	5.4e-05
2170	5.04e-05
2182	7.92e-05
2194	9e-05
2206	9.72e-05
2218	0.0001296
2230	0.0001476
2242	0.0001188
2254	9.72e-05
2266	8.64e-05
2278	7.56e-05
2290	6.48e-05
2302	7.92e-05
2314	3.6e-05
2326	3.6e-05
2338	9e-05
2350	6.12e-05
2362	7.56e-05
2374	4.32e-05
2386	3.96e-05
2398	3.6e-05
2410	3.6e-05
2422	6.84e-05
2434	7.56e-05
2446	5.76e-05
2458	1.8e-05
2470	2.16e-05
2482	2.52e-05
2494	3.24e-05
2506	3.24e-05
2518	2.88e-05
2530	4.68e-05
2542	9e-05
2554	0.0001116
2566	0.0001512
2578	0.0001944
2590	0.0001944
2602	0.0001872
2614	0.000126
2626	0.000216
2638	0.0002448
2650	0.0003276
2662	0.0003708
2674	0.00036
2686	0.000342
2698	0.0002916
2710	0.0002484
2722	0.0002736
2734	0.0003816
2746	0.0005112
2758	0.000558
2770	0.0005832
2782	0.0006732
2794	0.0008712
2806	0.0011304
2818	0.0015372
2830	0.002214
2842	0.0040824
2854	0.0077436
2866	0.0109728
2878	0.011556
2890	0.0106452
2902	0.0105516
2914	0.0164772
2926	0.0286056
2938	0.036
2950	0.0272412
2962	0.02313
2974	0.0189648
2986	0.0084024
2998	0.0040428
3010	0.0024516
3022	0.0018
3034	0.0013644
3046	0.0009972
3058	0.0007092
3070	0.0006012
3082	0.0005112
3094	0.0004356
3106	0.000432
3118	0.0003672
3130	0.0003024
3142	0.0003384
3154	0.0002916
3166	0.0002484
3178	0.0002268
3190	0.0001728
3202	0.0002088
3214	0.0001584
3226	0.0001296
3238	0.0001188
3250	6.48e-05
3262	6.84e-05
3274	9.36e-05
3286	9e-05
3298	8.64e-05
3310	0.0001476
3322	0.0001656
3334	0.0001728
3346	9.72e-05
3358	0.0001332
3370	0.000108
3382	5.4e-05
3394	8.64e-05
3406	0.000108
3418	0.000144
3430	0.0001476
3442	0.00018
3454	6.84e-05
3466	5.76e-05
3478	0.0001008
3490	5.4e-05
3502	8.28e-05
3514	5.4e-05
3526	6.12e-05
3538	6.48e-05
3550	2.52e-05
3562	3.24e-05
3574	0.0001116
3586	7.2e-05
3598	1.44e-05
3610	6.84e-05
3622	0.0001368
3634	0.0001368
3646	0.0001116
3658	0.000108
3670	9.72e-05
3682	0.0001116
3694	0.00018
3706	0.0001188
3718	0.0001548
3730	0.000144
3742	0.0001188
3754	0.0001692
3766	0.0001332
3778	0.0001296
3790	0.0001656
3802	0.0001512
3814	0.0002196
3826	0.0001368
3838	0.0001728
