Infrared Spectrum: 2H-Azepin-2-one, hexahydro-1-(2-pyridyl)-,
Formula: C11 H14 N2 O
CAS: 51263-32-2
State: SOLUTION (10% CCl4 FOR 3800-1330, 10% CS2 FOR 1330-400 CM^-^1)
Boiling point: 172 C AT 0.6 mmHg
Class: COBLENTZ III
Instrument: DOW KBr FOREPRISM-GRATING
Instrument parameters: BLAZED AT 3.5, 12.0, 20.0 MICRON AND CHANGED AT 5.0, 7.5, 14.9 MICRON
Sampling: TRANSMISSION
Path length: 0.011 CM, 0.011 CM
Resolution: 2
Origin: DOW CHEMICAL COMPANY
1/CM	TRANSMITTANCE
402	0.2514
411	0.3075
420	0.4591
429	0.646
438	0.699
447	0.7119
456	0.7151
465	0.7239
474	0.746
483	0.7198
492	0.7121
501	0.6798
510	0.6865
519	0.7061
528	0.7006
537	0.6558
546	0.7301
555	0.7201
564	0.5069
573	0.7147
582	0.6978
591	0.63
600	0.651
609	0.7764
618	0.7965
627	0.7335
636	0.8018
645	0.7825
654	0.7574
663	0.736
672	0.8106
681	0.8097
690	0.791
699	0.7298
708	0.7425
717	0.7239
726	0.6933
735	0.6394
744	0.2342
753	0.7151
762	0.723
771	0.6129
780	0.095
789	0.4833
798	0.6381
807	0.7143
816	0.7055
825	0.6978
834	0.7239
843	0.5462
852	0.4822
861	0.6222
870	0.6073
879	0.6085
888	0.4112
897	0.709
906	0.7686
915	0.7749
924	0.7425
933	0.7844
942	0.7821
951	0.7431
960	0.6106
969	0.3372
978	0.363
987	0.3634
996	0.4929
1005	0.7338
1014	0.696
1023	0.7322
1032	0.6539
1041	0.7172
1050	0.5962
1059	0.678
1068	0.6899
1077	0.553
1086	0.3599
1095	0.6207
1104	0.5979
1113	0.7057
1122	0.5843
1131	0.4212
1140	0.6122
1149	0.5682
1158	0.1865
1167	0.608
1176	0.6023
1185	0.3793
1194	0.149
1203	0.1935
1212	0.2283
1221	0.0795
1230	0.5559
1239	0.5765
1248	0.4562
1257	0.3275
1266	0.2124
1275	0.2204
1284	0.4323
1293	0.2026
1302	0.2557
1311	0.4426
1320	0.4907
1329	0.4931
1338	0.1954
1347	0.4989
1356	0.1365
1365	0.2085
1374	0.3916
1383	0.4204
1392	0.2569
1401	0.0068
1410	0.0356
1419	0.2173
1428	0.2082
1437	0.003
1446	0.1322
1455	0.2619
1464	0.0926
1473	0.0083
1482	0.1904
1491	0.3579
1500	0.4872
1509	0.4862
1518	0.4758
1527	0.4732
1536	0.4496
1545	0.3812
1554	0.3543
1563	0.3697
1572	0.2979
1581	0.2624
1590	0.0656
1599	0.2391
1608	0.3692
1617	0.442
1626	0.4432
1635	0.3716
1644	0.2287
1653	0.0783
1662	0.0101
1671	0
1680	0.0002
1689	0.0413
1698	0.2829
1707	0.4958
1716	0.5995
1725	0.6958
1734	0.723
1743	0.7342
1752	0.7458
1761	0.761
1770	0.7722
1779	0.7754
1788	0.7869
1797	0.7958
1806	0.7972
1815	0.8001
1824	0.7965
1833	0.7875
1842	0.7978
1851	0.7995
1860	0.7964
1869	0.8014
1878	0.8157
1887	0.8216
1896	0.82
1905	0.8107
1914	0.7939
1923	0.8097
1932	0.8162
1941	0.8035
1950	0.8058
1959	0.8141
1968	0.8075
1977	0.8025
1986	0.8161
1995	0.8098
2004	0.837
2013	0.8389
2022	0.8386
2031	0.8382
2040	0.8388
2049	0.8395
2058	0.8425
2067	0.8446
2076	0.8428
2085	0.84
2094	0.8409
2103	0.843
2112	0.8446
2121	0.8445
2130	0.844
2139	0.8434
2148	0.8425
2157	0.8416
2166	0.8395
2175	0.8368
2184	0.8359
2193	0.8362
2202	0.8366
2211	0.8367
2220	0.8384
2229	0.8386
2238	0.8337
2247	0.8294
2256	0.8251
2265	0.8228
2274	0.8218
2283	0.822
2292	0.8225
2301	0.8251
2310	0.8309
2319	0.8434
2328	0.8497
2337	0.8432
2346	0.8387
2355	0.8396
2364	0.8407
2373	0.8417
2382	0.8421
2391	0.8421
2400	0.8423
2409	0.8423
2418	0.8421
2427	0.8416
2436	0.8407
2445	0.839
2454	0.8371
2463	0.8341
2472	0.8331
2481	0.832
2490	0.8313
2499	0.8317
2508	0.8325
2517	0.8336
2526	0.8345
2535	0.8366
2544	0.8387
2553	0.8394
2562	0.8378
2571	0.833
2580	0.8306
2589	0.8307
2598	0.8313
2607	0.8323
2616	0.8273
2625	0.8217
2634	0.8185
2643	0.8089
2652	0.8051
2661	0.8025
2670	0.7991
2679	0.7992
2688	0.8088
2697	0.8095
2706	0.8121
2715	0.8134
2724	0.81
2733	0.8007
2742	0.7865
2751	0.7598
2760	0.748
2769	0.7487
2778	0.7521
2787	0.7418
2796	0.714
2805	0.6786
2814	0.6588
2823	0.5451
2832	0.2915
2841	0.2851
2850	0.4227
2859	0.4736
2868	0.4255
2877	0.3893
2886	0.3095
2895	0.1854
2904	0.0552
2913	0.0402
2922	0.0717
2931	0.2159
2940	0.357
2949	0.3984
2958	0.4788
2967	0.5648
2976	0.6131
2985	0.5878
2994	0.5986
3003	0.6975
3012	0.7082
3021	0.6706
3030	0.5666
3039	0.5746
3048	0.5866
3057	0.6251
3066	0.6865
3075	0.7058
3084	0.7247
3093	0.7378
3102	0.7418
3111	0.7422
3120	0.7415
3129	0.7398
3138	0.7342
3147	0.7242
3156	0.7111
3165	0.6908
3174	0.6689
3183	0.6533
3192	0.6506
3201	0.6533
3210	0.6626
3219	0.6817
3228	0.7022
3237	0.7153
3246	0.7194
3255	0.713
3264	0.7047
3273	0.7005
3282	0.7048
3291	0.7124
3300	0.7212
3309	0.7311
3318	0.7428
3327	0.7564
3336	0.7685
3345	0.779
3354	0.7865
3363	0.7907
3372	0.788
3381	0.7765
3390	0.7565
3399	0.7668
3408	0.8078
3417	0.8114
3426	0.8148
3435	0.8188
3444	0.8228
3453	0.8266
3462	0.8303
3471	0.8341
3480	0.8378
3489	0.8418
3498	0.8462
3507	0.8503
3516	0.854
3525	0.8564
3534	0.8573
3543	0.8594
3552	0.8661
3561	0.8687
3570	0.8701
3579	0.8704
3588	0.8705
3597	0.8702
3606	0.8694
3615	0.8665
3624	0.858
3633	0.8356
3642	0.8404
3651	0.8643
3660	0.8743
3669	0.8771
3678	0.8791
3687	0.8795
3696	0.8793
3705	0.8788
3714	0.8785
3723	0.8784
3732	0.8788
3741	0.8792
3750	0.8793
3759	0.8794
3768	0.8799
3777	0.8803
3786	0.8807
3795	0.8816
