Infrared Spectrum: 2-Propenoic acid, 3,3-diphenyl-2-(o-methoxyphenyl)-
Formula: C22 H18 O3
CAS: 5129-14-6
State: SOLID (OIL MULL)
Class: COBLENTZ III
Instrument: PERKIN-ELMER 21 (GRATING)
Instrument parameters: NaCl PRISM
Sampling: TRANSMISSION
Resolution: 2
Origin: SMITH KLINE & FRENCH LABS.
1/CM	TRANSMITTANCE
672	0.7171
681	0.7502
690	0.5487
699	0.2741
708	0.7887
717	0.6666
726	0.7811
735	0.7823
744	0.5949
753	0.3764
762	0.4244
771	0.7747
780	0.7553
789	0.8181
798	0.8746
807	0.8885
816	0.8746
825	0.8841
834	0.8591
843	0.8418
852	0.8455
861	0.816
870	0.7762
879	0.8342
888	0.8356
897	0.8118
906	0.8072
915	0.7633
924	0.7498
933	0.7211
942	0.7087
951	0.6932
960	0.7228
969	0.766
978	0.7752
987	0.7814
996	0.7237
1005	0.6946
1014	0.5678
1023	0.6454
1032	0.6507
1041	0.7814
1050	0.7788
1059	0.8031
1068	0.7485
1077	0.7501
1086	0.8101
1095	0.7946
1104	0.6317
1113	0.6386
1122	0.8071
1131	0.8079
1140	0.7771
1149	0.6782
1158	0.6411
1167	0.7205
1176	0.724
1185	0.7745
1194	0.7658
1203	0.7345
1212	0.6625
1221	0.547
1230	0.6568
1239	0.4682
1248	0.3356
1257	0.5151
1266	0.3654
1275	0.2525
1284	0.271
1293	0.4729
1302	0.4725
1311	0.5107
1320	0.4249
1329	0.526
1338	0.6681
1347	0.6821
1356	0.651
1365	0.5645
1374	0.4426
1383	0.628
1392	0.7
1401	0.6893
1410	0.5786
1419	0.467
1428	0.5306
1437	0.3571
1446	0.2479
1455	0.2555
1464	0.2319
1473	0.4029
1482	0.3364
1491	0.4377
1500	0.6331
1509	0.7768
1518	0.7852
1527	0.7874
1536	0.7705
1545	0.7669
1554	0.717
1563	0.6512
1572	0.6137
1581	0.7038
1590	0.6458
1599	0.5897
1608	0.7509
1617	0.7279
1626	0.7308
1635	0.6973
1644	0.6169
1653	0.5788
1662	0.4747
1671	0.2522
1680	0.1378
1689	0.1695
1698	0.4939
1707	0.6881
1716	0.789
1725	0.7943
1734	0.7916
1743	0.7868
1752	0.7827
1761	0.7822
1770	0.7807
1779	0.7741
1788	0.7671
1797	0.7591
1806	0.7496
1815	0.749
1824	0.7516
1833	0.754
1842	0.7549
1851	0.7531
1860	0.7509
1869	0.7483
1878	0.7448
1887	0.7419
1896	0.7435
1905	0.7598
1914	0.7669
1923	0.7646
1932	0.7607
1941	0.7569
1950	0.7569
1959	0.7619
1968	0.7614
1977	0.7591
1986	0.7553
1995	0.7506
2004	0.7462
2013	0.7447
2022	0.7492
2031	0.7566
2040	0.7592
2049	0.7601
2058	0.7609
2067	0.7607
2076	0.7552
2085	0.7503
2094	0.7545
2103	0.7534
2112	0.7503
2121	0.7463
2130	0.7431
2139	0.7398
2148	0.7344
2157	0.7308
2166	0.7282
2175	0.7283
2184	0.7298
2193	0.7246
2202	0.719
2211	0.7137
2220	0.7122
2229	0.7097
2238	0.7037
2247	0.6941
2256	0.6828
2265	0.6723
2274	0.6701
2283	0.6562
2292	0.6418
2301	0.631
2310	0.6253
2319	0.6193
2328	0.6137
2337	0.612
2346	0.6132
2355	0.6191
2364	0.6216
2373	0.6215
2382	0.6187
2391	0.6087
2400	0.5935
2409	0.5869
2418	0.5845
2427	0.5674
2436	0.5451
2445	0.5325
2454	0.522
2463	0.5134
2472	0.507
2481	0.5027
2490	0.4986
2499	0.4959
2508	0.4931
2517	0.4911
2526	0.4902
2535	0.4895
2544	0.4836
2553	0.4733
2562	0.4693
2571	0.4677
2580	0.4667
2589	0.4637
2598	0.4572
2607	0.4568
2616	0.457
2625	0.4579
2634	0.4593
2643	0.4613
2652	0.463
2661	0.4638
2670	0.4631
2679	0.4616
2688	0.4585
2697	0.4554
2706	0.4504
2715	0.4452
2724	0.4379
2733	0.4281
2742	0.4114
2751	0.3839
2760	0.3611
2769	0.3318
2778	0.2859
2787	0.2545
2796	0.2054
2805	0.1786
2814	0.142
2823	0.0911
2832	0.0857
2841	0.086
2850	0.0871
2859	0.0873
2868	0.0863
2877	0.0846
2886	0.0829
2895	0.0834
2904	0.0897
2913	0.1239
2922	0.1651
2931	0.2061
2940	0.2467
2949	0.2871
2958	0.3103
2967	0.3284
2976	0.3465
2985	0.3644
2994	0.3823
3003	0.4
3012	0.4157
3021	0.4447
3030	0.476
3039	0.49
3048	0.5091
3057	0.5173
3066	0.5216
3075	0.5269
3084	0.5427
3093	0.5542
3102	0.5578
3111	0.5591
3120	0.5605
3129	0.5613
3138	0.5697
3147	0.5853
3156	0.5981
3165	0.6056
3174	0.6103
3183	0.6113
3192	0.6111
3201	0.6105
3210	0.6101
3219	0.6102
3228	0.6102
3237	0.611
3246	0.6122
3255	0.6128
3264	0.6133
3273	0.6137
3282	0.6142
3291	0.6146
3300	0.6151
3309	0.6155
3318	0.6159
3327	0.6152
3336	0.6136
3345	0.6112
3354	0.6076
3363	0.6045
3372	0.6015
3381	0.5992
3390	0.5971
3399	0.5949
3408	0.5928
3417	0.5909
3426	0.589
3435	0.5868
3444	0.5847
3453	0.5845
3462	0.5849
3471	0.5853
3480	0.5861
3489	0.5856
3498	0.5838
3507	0.5816
3516	0.5785
3525	0.5752
3534	0.571
3543	0.567
3552	0.5641
3561	0.5615
3570	0.5589
3579	0.5579
3588	0.5574
3597	0.557
3606	0.5564
3615	0.556
3624	0.5555
3633	0.555
3642	0.5545
3651	0.5541
3660	0.5536
3669	0.5531
3678	0.5522
3687	0.551
3696	0.5498
3705	0.5487
3714	0.5469
3723	0.5445
3732	0.5421
3741	0.5397
3750	0.5373
3759	0.5343
3768	0.5311
3777	0.5279
3786	0.5247
3795	0.5217
3804	0.5199
3813	0.5182
3822	0.5166
3831	0.5153
3840	0.5149
3849	0.5144
3858	0.514
3867	0.5135
3876	0.513
3885	0.5127
3894	0.5124
3903	0.5122
3912	0.5119
3921	0.5116
3930	0.5114
3939	0.5111
3948	0.5109
3957	0.5107
3966	0.5105
3975	0.5103
3984	0.5102
3993	0.5101
