Infrared Spectrum: 2,3-Butanediol
Formula: C 4 H 10 O 2
CAS: 513-85-9
State: gas
Instrument: HP-GC/MS/IRD
Origin: NIST Mass Spectrometry Data Center
1/CM	ABSORBANCE
550	0.000324
562	0.000163
574	0.0001915
586	0.0001515
598	0.000174
610	0.000176
622	0.0002685
634	0.000331
646	0.000253
658	0.000206
670	9.85e-05
682	6.4e-05
694	7.9e-05
706	7.9e-05
718	6.35e-05
730	5.6e-05
742	4.45e-05
754	0.000159
766	0.0002065
778	0.0001535
790	6.95e-05
802	5.15e-05
814	4.5e-05
826	8.75e-05
838	4.05e-05
850	0.000192
862	0.000472
874	0.001016
886	0.00149
898	0.001375
910	0.001106
922	0.001068
934	0.0010035
946	0.0008025
958	0.0006365
970	0.000914
982	0.0015425
994	0.002299
1006	0.002667
1018	0.0026325
1030	0.002772
1042	0.0033155
1054	0.004162
1066	0.004839
1078	0.0049955
1090	0.0046805
1102	0.003945
1114	0.0031855
1126	0.0024265
1138	0.0018335
1150	0.001496
1162	0.0012365
1174	0.001051
1186	0.000942
1198	0.0010285
1210	0.00126
1222	0.0015585
1234	0.0018415
1246	0.0020635
1258	0.0021175
1270	0.0019465
1282	0.001588
1294	0.0013205
1306	0.001314
1318	0.00142
1330	0.0014465
1342	0.001448
1354	0.001597
1366	0.0020765
1378	0.0026065
1390	0.002598
1402	0.0018875
1414	0.00124
1426	0.000909
1438	0.0009255
1450	0.001022
1462	0.0009405
1474	0.0006285
1486	0.000362
1498	0.000197
1510	0.00014
1522	0.00012
1534	0.000102
1546	8.5e-05
1558	5.8e-05
1570	5.85e-05
1582	5.15e-05
1594	4.35e-05
1606	5.1e-05
1618	4.1e-05
1630	3.8e-05
1642	6.35e-05
1654	3.9e-05
1666	2.5e-05
1678	2.8e-05
1690	3.45e-05
1702	3.35e-05
1714	4.35e-05
1726	7e-06
1738	2.4e-05
1750	1.9e-05
1762	2.3e-05
1774	7e-06
1786	7.5e-06
1798	5e-07
1810	9.5e-06
1822	1.3e-05
1834	3.8e-05
1846	2.8e-05
1858	4.25e-05
1870	4.5e-05
1882	4.75e-05
1894	3.2e-05
1906	4.3e-05
1918	4.75e-05
1930	4.45e-05
1942	2.75e-05
1954	4.4e-05
1966	4.95e-05
1978	4.55e-05
1990	6.7e-05
2002	6.15e-05
2014	6.25e-05
2026	3.95e-05
2038	5.1e-05
2050	4.05e-05
2062	5.7e-05
2074	6.35e-05
2086	5.05e-05
2098	6.25e-05
2110	4.6e-05
2122	4.45e-05
2134	5.75e-05
2146	4.75e-05
2158	6.65e-05
2170	4.95e-05
2182	4e-05
2194	3.75e-05
2206	4.6e-05
2218	5.65e-05
2230	6.95e-05
2242	4.65e-05
2254	7.75e-05
2266	5.75e-05
2278	5.2e-05
2290	5.05e-05
2302	5.55e-05
2314	6.85e-05
2326	5.7e-05
2338	4.55e-05
2350	6.2e-05
2362	4.3e-05
2374	4.35e-05
2386	9.3e-05
2398	6.85e-05
2410	8.95e-05
2422	6.75e-05
2434	6.85e-05
2446	7.75e-05
2458	6.6e-05
2470	7.55e-05
2482	5.25e-05
2494	5.2e-05
2506	5.85e-05
2518	5.9e-05
2530	7.15e-05
2542	7.45e-05
2554	4.9e-05
2566	9.15e-05
2578	8.5e-05
2590	6.5e-05
2602	0.000104
2614	0.0001275
2626	0.0001505
2638	0.000124
2650	0.000142
2662	0.000131
2674	0.000146
2686	0.0001615
2698	0.0001615
2710	0.000185
2722	0.0001885
2734	0.000197
2746	0.0001985
2758	0.0002355
2770	0.000258
2782	0.000305
2794	0.0003075
2806	0.000382
2818	0.0004725
2830	0.0005555
2842	0.0007495
2854	0.0010855
2866	0.00164
2878	0.002535
2890	0.0033805
2902	0.0036375
2914	0.0032295
2926	0.002823
2938	0.00261
2950	0.0025165
2962	0.0031725
2974	0.0045325
2986	0.0047845
2998	0.003214
3010	0.0013585
3022	0.000503
3034	0.000235
3046	0.0001815
3058	0.0001675
3070	0.000141
3082	0.000164
3094	0.000134
3106	0.000117
3118	0.0001255
3130	9e-05
3142	8.2e-05
3154	9.3e-05
3166	0.0001055
3178	0.000131
3190	9.65e-05
3202	0.0001215
3214	0.000109
3226	5.9e-05
3238	6.5e-05
3250	7.4e-05
3262	8.25e-05
3274	6.45e-05
3286	5.8e-05
3298	3.45e-05
3310	6.4e-05
3322	3e-05
3334	6.1e-05
3346	7.7e-05
3358	6.55e-05
3370	4e-05
3382	6.75e-05
3394	6.5e-05
3406	8.6e-05
3418	8.3e-05
3430	9.05e-05
3442	7.6e-05
3454	6.8e-05
3466	7.5e-05
3478	0.0001255
3490	0.000132
3502	0.0001435
3514	0.000119
3526	0.000133
3538	0.00013
3550	0.0001605
3562	0.0001765
3574	0.000228
3586	0.0003705
3598	0.0005535
3610	0.0009295
3622	0.001223
3634	0.0013275
3646	0.0013915
3658	0.0013145
3670	0.001074
3682	0.0006765
3694	0.000329
3706	0.000159
3718	0.0001765
3730	0.000138
3742	0.000136
3754	5.15e-05
3766	0.000126
3778	6.9e-05
3790	9.9e-05
3802	7.5e-05
3814	6.8e-05
3826	8.9e-05
3838	9.55e-05
