Infrared Spectrum: Phosphoric acid, triisopropyl ester
Formula: C9 H21 O4 P
CAS: 513-02-0
State: SOLUTION, SALTED (CCl4 FOR 2.7-7.5, CS2 FOR 7.5-26 MICRON)
Class: COBLENTZ III
Instrument: DOW KBr FOREPRISM-GRATING
Instrument parameters: BLAZED AT 3.5, 12.0, 20.0 MICRON AND CHANGED AT 5.0, 7.5, 14.9 MICRON
Sampling: TRANSMISSION
Path length: 0.011 CM, 0.011 CM
Resolution: 2
Origin: DOW CHEMICAL COMPANY
1/CM	TRANSMITTANCE
3792	0.9333
3783	0.9312
3774	0.9323
3765	0.9308
3756	0.9319
3747	0.9346
3738	0.9309
3729	0.9272
3720	0.9309
3711	0.9333
3702	0.9329
3693	0.9304
3684	0.9279
3675	0.9206
3666	0.9162
3657	0.9233
3648	0.9287
3639	0.9294
3630	0.93
3621	0.9296
3612	0.9288
3603	0.9275
3594	0.9274
3585	0.927
3576	0.9262
3567	0.923
3558	0.9211
3549	0.9203
3540	0.9201
3531	0.9209
3522	0.9173
3513	0.9166
3504	0.9156
3495	0.9139
3486	0.9121
3477	0.9102
3468	0.9085
3459	0.9061
3450	0.9038
3441	0.9016
3432	0.9012
3423	0.9012
3414	0.9037
3405	0.9057
3396	0.9075
3387	0.9091
3378	0.9106
3369	0.9119
3360	0.9132
3351	0.9144
3342	0.9165
3333	0.9159
3324	0.9166
3315	0.9173
3306	0.9193
3297	0.9186
3288	0.9188
3279	0.9202
3270	0.9202
3261	0.9202
3252	0.9203
3243	0.9206
3234	0.921
3225	0.9201
3216	0.9216
3207	0.9204
3198	0.9208
3189	0.9214
3180	0.9208
3171	0.9208
3162	0.9217
3153	0.9225
3144	0.9212
3135	0.9227
3126	0.9227
3117	0.9227
3108	0.9227
3099	0.9255
3090	0.9276
3081	0.9229
3072	0.9251
3063	0.9209
3054	0.9195
3045	0.9194
3036	0.9232
3027	0.9123
3018	0.9051
3009	0.8897
3000	0.842
2991	0.5958
2982	0.4396
2973	0.6281
2964	0.8013
2955	0.8413
2946	0.8182
2937	0.7389
2928	0.7418
2919	0.7833
2910	0.827
2901	0.8598
2892	0.8665
2883	0.8759
2874	0.863
2865	0.8603
2856	0.8925
2847	0.9023
2838	0.9104
2829	0.9106
2820	0.9096
2811	0.9098
2802	0.9161
2793	0.9202
2784	0.922
2775	0.9233
2766	0.924
2757	0.9242
2748	0.9226
2739	0.9192
2730	0.9191
2721	0.9208
2712	0.9218
2703	0.9229
2694	0.9239
2685	0.9249
2676	0.9263
2667	0.9276
2658	0.9268
2649	0.9251
2640	0.9248
2631	0.9252
2622	0.9277
2613	0.9292
2604	0.9306
2595	0.931
2586	0.9309
2577	0.9306
2568	0.9305
2559	0.9304
2550	0.9305
2541	0.9305
2532	0.9306
2523	0.9307
2514	0.9308
2505	0.9304
2496	0.93
2487	0.9297
2478	0.9308
2469	0.9303
2460	0.93
2451	0.9297
2442	0.9294
2433	0.9289
2424	0.9286
2415	0.9282
2406	0.9293
2397	0.9288
2388	0.9306
2379	0.9351
2370	0.9455
2361	0.9447
2352	0.951
2343	0.9512
2334	0.9509
2325	0.949
2316	0.9419
2307	0.9373
2298	0.9361
2289	0.9355
2280	0.9339
2271	0.9323
2262	0.9339
2253	0.9344
2244	0.9364
2235	0.9375
2226	0.9378
2217	0.9379
2208	0.9396
2199	0.9399
2190	0.9381
2181	0.937
2172	0.9384
2163	0.9369
2154	0.9368
2145	0.9367
2136	0.9366
2127	0.9366
2118	0.9367
2109	0.9367
2100	0.9368
2091	0.937
2082	0.9372
2073	0.9375
2064	0.9382
2055	0.9396
2046	0.9379
2037	0.9374
2028	0.937
2019	0.9368
2010	0.877
2001	0.8922
1992	0.9171
1983	0.915
1974	0.9185
1965	0.9234
1956	0.9266
1947	0.9246
1938	0.9249
1929	0.9249
1920	0.9246
1911	0.9243
1902	0.9243
1893	0.9232
1884	0.9215
1875	0.9224
1866	0.9217
1857	0.923
1848	0.9224
1839	0.9222
1830	0.9203
1821	0.9182
1812	0.9175
1803	0.9126
1794	0.9114
1785	0.9109
1776	0.9105
1767	0.9107
1758	0.9123
1749	0.9069
1740	0.8996
1731	0.8994
1722	0.9051
1713	0.9053
1704	0.9068
1695	0.9072
1686	0.9042
1677	0.9007
1668	0.9004
1659	0.8996
1650	0.9009
1641	0.904
1632	0.9022
1623	0.9013
1614	0.9069
1605	0.906
1596	0.9043
1587	0.8894
1578	0.8585
1569	0.856
1560	0.8406
1551	0.8159
1542	0.8203
1533	0.8546
1524	0.8674
1515	0.8818
1506	0.8848
1497	0.8883
1488	0.9044
1479	0.8972
1470	0.7602
1461	0.8344
1452	0.8024
1443	0.858
1434	0.8912
1425	0.9015
1416	0.9009
1407	0.8982
1398	0.8547
1389	0.4971
1380	0.5932
1371	0.8116
1362	0.8317
1353	0.8445
1344	0.8666
1335	0.8727
1326	0.891
1317	0.9037
1308	0.9104
1299	0.9018
1290	0.8571
1281	0.6647
1272	0.4855
1263	0.4362
1254	0.4576
1245	0.6836
1236	0.761
1227	0.7937
1218	0.8244
1209	0.8581
1200	0.8824
1191	0.8901
1182	0.7597
1173	0.7832
1164	0.8408
1155	0.8489
1146	0.6855
1137	0.768
1128	0.8195
1119	0.7566
1110	0.5815
1101	0.8254
1092	0.8777
1083	0.8935
1074	0.8844
1065	0.8634
1056	0.8182
1047	0.7227
1038	0.4965
1029	0.3349
1020	0.1921
1011	0.0594
1002	0.0155
993	0.095
984	0.4289
975	0.6823
966	0.7931
957	0.8317
948	0.8459
939	0.8362
930	0.875
921	0.894
912	0.8729
903	0.703
894	0.8603
885	0.8473
876	0.8673
867	0.8656
858	0.893
849	0.9856
840	0.9441
831	0.9268
822	0.9231
813	0.9152
804	0.8808
795	0.7534
786	0.7876
777	0.8502
768	0.8914
759	0.813
750	0.8603
741	0.8945
732	0.8853
723	0.8966
714	0.9072
705	0.9111
696	0.913
687	0.9122
678	0.9143
669	0.9251
660	0.9031
651	0.9115
642	0.9174
633	0.9174
624	0.9207
615	0.9222
606	0.9202
597	0.9179
588	0.911
579	0.889
570	0.823
561	0.7193
552	0.7199
543	0.7751
534	0.8599
525	0.873
516	0.8437
507	0.833
498	0.8544
489	0.8679
480	0.8694
471	0.8485
462	0.8154
453	0.7964
444	0.7735
435	0.741
426	0.6953
417	0.6136
408	0.4516
399	0.3422
