Infrared Spectrum: 1,8-DIMETHOXYOCTANE
Formula: C10 H22 O2
CAS: 51306-09-3
State: SOLUTION (10% IN CCl4 FOR 3800-1330 CM^-^1, 10% IN CS2 FOR 1330-400 CM^-^1)
Class: COBLENTZ III
Instrument: BECKMAN IR-9 (GRATING)
Instrument parameters: ORDER CHANGES AT 670, 1200, 2000 CM^-^1
Sampling: TRANSMISSION
Path length: 0.011 CM, 0.01 CM
Resolution: 4
Origin: DOW CHEMICAL COMPANY
1/CM	TRANSMITTANCE
400	0.255
408.796	0.113
417.592	0.389
426.388	0.57
435.184	0.668
443.98	0.746
452.776	0.797
461.572	0.84
470.369	0.872
479.165	0.908
487.961	0.923
496.757	0.932
505.553	0.941
514.349	0.954
523.145	0.962
531.941	0.972
540.737	0.979
549.533	0.983
558.329	0.986
567.125	0.993
575.921	1.004
584.717	1.016
593.514	1.015
602.31	1.024
611.106	1.033
619.902	1.031
628.698	1.012
637.494	1.013
646.29	1
655.086	0.969
663.882	0.997
672.678	1.005
681.474	1.019
690.27	1.041
699.066	1.047
707.862	1.037
716.658	0.983
725.455	0.891
734.251	0.951
743.047	0.988
751.843	1.002
760.639	1.024
769.435	1.019
778.231	1.004
787.027	1.002
795.823	1.005
804.619	1.009
813.415	1.005
822.211	0.993
831.007	0.98
839.803	0.98
848.599	0.869
857.396	0.793
866.192	0.762
874.988	0.778
883.784	0.751
892.58	0.818
901.376	0.887
910.172	0.897
918.968	0.85
927.764	0.807
936.56	0.85
945.356	0.773
954.152	0.675
962.948	0.689
971.744	0.797
980.541	0.846
989.337	0.775
998.133	0.744
1006.93	0.765
1015.72	0.74
1024.52	0.757
1033.32	0.714
1042.11	0.707
1050.91	0.707
1059.71	0.697
1068.5	0.658
1077.3	0.64
1086.09	0.514
1094.89	0.302
1103.69	0.171
1112.48	0.063
1121.28	0.008
1130.07	0.019
1138.87	0.248
1147.67	0.399
1156.46	0.466
1165.26	0.5
1174.05	0.495
1182.85	0.539
1191.65	0.449
1200.44	0.396
1209.24	0.496
1218.03	0.614
1226.83	0.694
1235.63	0.728
1244.42	0.783
1253.22	0.843
1262.01	0.834
1270.81	0.836
1279.61	0.826
1288.4	0.858
1297.2	0.861
1306	0.852
1314.79	0.88
1323.59	0.894
1332.38	0.869
1341.18	0.847
1349.98	0.778
1358.77	0.782
1367.57	0.803
1376.36	0.687
1385.16	0.424
1393.96	0.5901
1402.75	0.7821
1411.55	0.875
1420.34	0.871
1429.14	0.7569
1437.94	0.633
1446.73	0.3919
1455.53	0.346
1464.32	0.3191
1473.12	0.6061
1481.92	0.5921
1490.71	0.793
1499.51	0.808
1508.3	0.779
1517.1	0.736
1525.9	0.69
1534.69	0.622
1543.49	0.529
1552.28	0.499
1561.08	0.561
1569.88	0.638
1578.67	0.668
1587.47	0.694
1596.27	0.785
1605.06	0.864
1613.86	0.904
1622.65	0.932
1631.45	0.948
1640.25	0.958
1649.04	0.958
1657.84	0.969
1666.63	0.962
1675.43	0.925
1684.23	0.9
1693.02	0.968
1701.82	0.976
1710.61	0.981
1719.41	0.983
1728.21	0.981
1737	0.972
1745.8	0.969
1754.59	0.983
1763.39	0.988
1772.19	0.988
1780.98	0.987
1789.78	0.986
1798.57	0.988
1807.37	0.99
1816.17	0.99
1824.96	0.987
1833.76	0.987
1842.56	0.984
1851.35	0.986
1860.15	0.983
1868.94	0.984
1877.74	0.988
1886.54	0.987
1895.33	0.988
1904.13	0.987
1912.92	0.987
1921.72	0.986
1930.52	0.986
1939.31	0.984
1948.11	0.983
1956.9	0.981
1965.7	0.98
1974.5	0.977
1983.29	0.975
1992.09	0.966
2000.88	0.9625
2009.68	0.9625
2018.48	0.961
2027.27	0.9599
2036.07	0.9615
2044.86	0.959
2053.66	0.9561
2062.46	0.9516
2071.25	0.9489
2080.05	0.9544
2088.85	0.9614
2097.64	0.968
2106.44	0.972
2115.23	0.975
2124.03	0.9726
2132.83	0.972
2141.62	0.9724
2150.42	0.973
2159.21	0.9754
2168.01	0.977
2176.81	0.98
2185.6	0.981
2194.4	0.981
2203.19	0.98
2211.99	0.979
2220.79	0.979
2229.58	0.9757
2238.38	0.975
2247.17	0.9763
2255.97	0.9785
2264.77	0.976
2273.56	0.9728
2282.36	0.9698
2291.15	0.968
2299.95	0.966
2308.75	0.966
2317.54	0.963
2326.34	0.962
2335.14	0.961
2343.93	0.962
2352.73	0.962
2361.52	0.9578
2370.32	0.955
2379.12	0.9656
2387.91	0.979
2396.71	0.98
2405.5	0.98
2414.3	0.98
2423.1	0.981
2431.89	0.981
2440.69	0.983
2449.48	0.984
2458.28	0.984
2467.08	0.984
2475.87	0.983
2484.67	0.9829
2493.46	0.981
2502.26	0.98
2511.06	0.98
2519.85	0.979
2528.65	0.977
2537.44	0.976
2546.24	0.975
2555.04	0.972
2563.83	0.97
2572.63	0.9631
2581.42	0.9512
2590.22	0.9361
2599.02	0.933
2607.81	0.932
2616.61	0.933
2625.41	0.932
2634.2	0.9272
2643	0.92
2651.79	0.9151
2660.59	0.9055
2669.39	0.8941
2678.18	0.8873
2686.98	0.8803
2695.77	0.8733
2704.57	0.871
2713.37	0.8577
2722.16	0.7787
2730.96	0.715
2739.75	0.709
2748.55	0.7344
2757.35	0.7352
2766.14	0.7468
2774.94	0.7725
2783.73	0.7524
2792.53	0.6633
2801.33	0.3844
2810.12	0.2553
2818.92	0.2318
2827.71	0.1057
2836.51	0.2
2845.31	0.1179
2854.1	0.023
2862.9	0.0136
2871.7	0.0248
2880.49	0.0711
2889.29	0.0873
2898.08	0.0674
2906.88	0.0524
2915.68	0.0269
2924.47	0.0027
2933.27	0
2942.06	0.0046
2950.86	0.0248
2959.66	0.209
2968.45	0.33
2977.25	0.2937
2986.04	0.2772
2994.84	0.5147
3003.64	0.7049
3012.43	0.7852
3021.23	0.8253
3030.02	0.8533
3038.82	0.8706
3047.62	0.8841
3056.41	0.896
3065.21	0.9065
3074	0.9145
3082.8	0.921
3091.6	0.9265
3100.39	0.9309
3109.19	0.9335
3117.99	0.937
3126.78	0.9413
3135.58	0.9463
3144.37	0.952
3153.17	0.9544
3161.97	0.957
3170.76	0.958
3179.56	0.958
3188.35	0.959
3197.15	0.9598
3205.95	0.9614
3214.74	0.9624
3223.54	0.9637
3232.33	0.9653
3241.13	0.966
3249.93	0.968
3258.72	0.968
3267.52	0.969
3276.31	0.969
3285.11	0.969
3293.91	0.969
3302.7	0.969
3311.5	0.969
3320.29	0.969
3329.09	0.969
3337.89	0.968
3346.68	0.968
3355.48	0.966
3364.28	0.965
3373.07	0.965
3381.87	0.963
3390.66	0.962
3399.46	0.9618
3408.26	0.961
3417.05	0.9607
3425.85	0.959
3434.64	0.958
3443.44	0.955
3452.24	0.9519
3461.03	0.9479
3469.83	0.9449
3478.62	0.9398
3487.42	0.936
3496.22	0.934
3505.01	0.9331
3513.81	0.936
3522.6	0.938
3531.4	0.9431
3540.2	0.9512
3548.99	0.958
3557.79	0.959
3566.58	0.959
3575.38	0.965
3584.18	0.948
3592.97	0.958
3601.77	0.962
3610.56	0.959
3619.36	0.961
3628.16	0.957
3636.95	0.958
3645.75	0.962
3654.55	0.966
3663.34	0.9651
3672.14	0.9611
3680.93	0.9512
3689.73	0.9412
3698.53	0.9538
3707.32	0.959
3716.12	0.9629
3724.91	0.965
3733.71	0.9678
3742.51	0.969
3751.3	0.969
3760.1	0.969
3768.89	0.969
3777.69	0.968
3786.49	0.966
3795.28	0.965
