Infrared Spectrum: 2-Butoxycarbonylphenyl isocyanate
Formula: C 12 H 13 N O 3
CAS: 51310-19-1
State: gas
Origin: EPA-IR VAPOR PHASE LIBRARY
1/CM	ABSORBANCE
549.8	0.00492
559.445	0.00679
569.09	0.00824
578.734	0.01082
588.379	0.0169
598.024	0.02163
607.669	0.01661
617.313	0.01062
626.958	0.00781
636.603	0.00743
646.248	0.00721
655.893	0.00833
665.537	0.00558
675.182	0.00422
684.827	0.00662
694.472	0.01185
704.116	0.01125
713.761	0.00693
723.406	0.00542
733.051	0.00919
742.695	0.03403
752.34	0.09197
761.985	0.04696
771.63	0.01455
781.275	0.00817
790.919	0.00625
800.564	0.00551
810.209	0.0051
819.854	0.00481
829.498	0.00584
839.143	0.00657
848.788	0.00609
858.433	0.00448
868.078	0.00491
877.722	0.00425
887.367	0.00298
897.012	0.00305
906.657	0.00365
916.301	0.00403
925.946	0.00654
935.591	0.01185
945.236	0.01415
954.88	0.01327
964.525	0.01001
974.17	0.00645
983.815	0.0057
993.46	0.00614
1003.1	0.00611
1012.75	0.00727
1022.39	0.00971
1032.04	0.01953
1041.68	0.02838
1051.33	0.02789
1060.97	0.06184
1070.62	0.12225
1080.26	0.07282
1089.91	0.02794
1099.55	0.03026
1109.2	0.06388
1118.84	0.11411
1128.49	0.09044
1138.13	0.06224
1147.78	0.04518
1157.42	0.0405
1167.07	0.03012
1176.71	0.0172
1186.36	0.01486
1196	0.01498
1205.64	0.01778
1215.29	0.02275
1224.93	0.03747
1234.58	0.07988
1244.22	0.17256
1253.87	0.1585
1263.51	0.07118
1273.16	0.10186
1282.8	0.17949
1292.45	0.18336
1302.09	0.07533
1311.74	0.03748
1321.38	0.02359
1331.03	0.01779
1340.67	0.01286
1350.32	0.01085
1359.96	0.00962
1369.61	0.009
1379.25	0.01175
1388.9	0.01464
1398.54	0.01048
1408.18	0.00869
1417.83	0.01208
1427.47	0.02182
1437.12	0.0222
1446.76	0.01786
1456.41	0.02184
1466.05	0.02803
1475.7	0.02267
1485.34	0.01811
1494.99	0.02128
1504.63	0.03158
1514.28	0.04563
1523.92	0.04562
1533.57	0.02803
1543.21	0.01488
1552.86	0.01057
1562.5	0.01395
1572.15	0.02445
1581.79	0.02787
1591.44	0.03698
1601.08	0.05674
1610.73	0.03125
1620.37	0.01223
1630.01	0.00748
1639.66	0.00517
1649.3	0.00459
1658.95	0.00485
1668.59	0.00549
1678.24	0.00715
1687.88	0.01118
1697.53	0.0176
1707.17	0.02741
1716.82	0.05099
1726.46	0.12143
1736.11	0.17949
1745.75	0.11068
1755.4	0.05247
1765.04	0.02978
1774.69	0.01766
1784.33	0.01045
1793.98	0.0067
1803.62	0.00509
1813.27	0.00473
1822.91	0.00423
1832.55	0.00313
1842.2	0.00294
1851.84	0.00265
1861.49	0.00206
1871.13	0.002
1880.78	0.00199
1890.42	0.0023
1900.07	0.00264
1909.71	0.00283
1919.36	0.00345
1929	0.00393
1938.65	0.00302
1948.29	0.00316
1957.94	0.00317
1967.58	0.00197
1977.23	0.00151
1986.87	0.0014
1996.52	0.00144
2006.16	0.00152
2015.81	0.00171
2025.45	0.00193
2035.1	0.00221
2044.74	0.00258
2054.38	0.00286
2064.03	0.00347
2073.67	0.00382
2083.32	0.00428
2092.96	0.00482
2102.61	0.00551
2112.25	0.00645
2121.9	0.00792
2131.54	0.00911
2141.19	0.01018
2150.83	0.01234
2160.48	0.01585
2170.12	0.01975
2179.77	0.02465
2189.41	0.02989
2199.06	0.03592
2208.7	0.04526
2218.35	0.05891
2227.99	0.07667
2237.64	0.10495
2247.28	0.16641
2256.92	0.29911
2266.57	0.48069
2276.21	0.5833
2285.86	0.57693
2295.5	0.47474
2305.15	0.31049
2314.79	0.18342
2324.44	0.1143
2334.08	0.07671
2343.73	0.05497
2353.37	0.04268
2363.02	0.03713
2372.66	0.03466
2382.31	0.03194
2391.95	0.027
2401.6	0.02094
2411.24	0.01523
2420.89	0.01117
2430.53	0.00821
2440.18	0.00625
2449.82	0.00504
2459.47	0.00397
2469.11	0.00332
2478.75	0.00293
2488.4	0.00245
2498.04	0.00234
2507.69	0.00201
2517.33	0.0018
2526.98	0.00174
2536.62	0.00173
2546.27	0.00172
2555.91	0.00167
2565.56	0.002
2575.2	0.00207
2584.85	0.00217
2594.49	0.00202
2604.14	0.0019
2613.78	0.00174
2623.43	0.00168
2633.07	0.00161
2642.72	0.00163
2652.36	0.0017
2662.01	0.00168
2671.65	0.00179
2681.29	0.00173
2690.94	0.00198
2700.58	0.00197
2710.23	0.00199
2719.87	0.00215
2729.52	0.00238
2739.16	0.00277
2748.81	0.00304
2758.45	0.00335
2768.1	0.003
2777.74	0.00309
2787.39	0.00284
2797.03	0.00294
2806.68	0.00336
2816.32	0.00382
2825.97	0.00448
2835.61	0.00538
2845.26	0.0074
2854.9	0.01077
2864.55	0.01467
2874.19	0.0218
2883.84	0.0284
2893.48	0.02615
2903.12	0.02474
2912.77	0.02877
2922.41	0.03419
2932.06	0.04042
2941.7	0.052
2951.35	0.05381
2960.99	0.06501
2970.64	0.07968
2980.28	0.054
2989.93	0.02869
2999.57	0.01744
3009.22	0.01206
3018.86	0.00968
3028.51	0.00905
3038.15	0.00827
3047.8	0.00829
3057.44	0.01088
3067.09	0.01451
3076.73	0.0188
3086.38	0.01566
3096.02	0.00765
3105.67	0.00452
3115.31	0.00353
3124.95	0.00283
3134.6	0.00264
3144.24	0.00225
3153.89	0.00189
3163.53	0.00154
3173.18	0.00132
3182.82	0.00107
3192.47	0.0008035
3202.11	0.0008286
3211.76	0.0007242
3221.4	0.0006356
3231.05	0.0003595
3240.69	0.0004239
3250.34	0.000444
3259.98	0.0004307
3269.63	0.000444
3279.27	0.0003694
3288.92	0.0007203
3298.56	0.0008082
3308.21	0.000913
3317.85	0.00103
3327.49	0.0014
3337.14	0.00154
3346.78	0.00173
3356.43	0.00189
3366.07	0.00195
3375.72	0.00208
3385.36	0.00221
3395.01	0.0026
3404.65	0.00279
3414.3	0.00331
3423.94	0.00361
3433.59	0.00422
3443.23	0.00386
3452.88	0.00343
3462.52	0.00282
3472.17	0.00198
3481.81	0.00149
3491.46	0.00129
3501.1	0.00122
3510.75	0.0009104
3520.39	0.0006617
3530.04	0.0007096
3539.68	0.0007635
3549.32	0.0007356
3558.97	0.0007384
3568.61	0.0006541
3578.26	0.0006552
3587.9	0.0007673
3597.55	0.0006994
3607.19	0.0007797
3616.84	0.0008822
3626.48	0.001
3636.13	0.00117
3645.77	0.00118
3655.42	0.00148
3665.06	0.00171
3674.71	0.0022
3684.35	0.00282
3694	0.003
3703.64	0.00302
3713.29	0.00277
3722.93	0.00255
3732.58	0.00238
3742.22	0.00204
3751.86	0.00204
3761.51	0.00194
3771.15	0.00214
3780.8	0.00211
3790.44	0.00201
3800.09	0.00225
3809.73	0.00202
3819.38	0.00182
3829.02	0.00153
3838.67	0.00123
3848.31	0.0008433
3857.96	0.0007631
3867.6	0.0007201
3877.25	0.0008674
3886.89	0.0007259
3896.54	0.0006601
3906.18	0.0007946
3915.83	0.0007068
3925.47	0.0006182
3935.12	0.0007617
3944.76	0.0005633
3954.41	0.0007527
3964.05	0.0004851
3973.69	0.0003733
3983.34	0.0006324
3992.98	0.0007244
