Infrared Spectrum: Methyl 3,5-dibromobenzoate
Formula: C 8 H 6 Br 2 O 2
CAS: 51329-16-9
State: gas
Origin: EPA-IR VAPOR PHASE LIBRARY
1/CM	ABSORBANCE
549.8	0.001048
559.445	0.000957
569.09	2e-05
578.734	0.0014637
588.379	0.0013821
598.024	0.0011572
607.669	0.0015926
617.313	0.0017084
626.958	0.0014577
636.603	0.0015551
646.248	0.00237
655.893	0.00758
665.537	0.01079
675.182	0.00296
684.827	0.00305
694.472	0.00264
704.116	0.00482
713.761	0.01702
723.406	0.04598
733.051	0.0365
742.695	0.06914
752.34	0.05055
761.985	0.03898
771.63	0.01938
781.275	0.00685
790.919	0.00348
800.564	0.00275
810.209	0.00304
819.854	0.00518
829.498	0.00314
839.143	0.00481
848.788	0.01018
858.433	0.00764
868.078	0.02056
877.722	0.01279
887.367	0.00402
897.012	0.00403
906.657	0.00627
916.301	0.00372
925.946	0.0017468
935.591	0.00257
945.236	0.00364
954.88	0.00547
964.525	0.01286
974.17	0.0308
983.815	0.03601
993.46	0.01428
1003.1	0.00558
1012.75	0.00387
1022.39	0.00349
1032.04	0.00358
1041.68	0.00308
1051.33	0.00429
1060.97	0.00414
1070.62	0.00588
1080.26	0.00853
1089.91	0.01689
1099.55	0.03039
1109.2	0.02441
1118.84	0.03399
1128.49	0.0539
1138.13	0.04772
1147.78	0.01844
1157.42	0.01045
1167.07	0.00951
1176.71	0.01138
1186.36	0.01529
1196	0.01797
1205.64	0.01917
1215.29	0.03027
1224.93	0.03085
1234.58	0.04358
1244.22	0.07172
1253.87	0.19507
1263.51	0.51034
1273.16	0.31136
1282.8	0.06241
1292.45	0.0266
1302.09	0.01942
1311.74	0.01429
1321.38	0.01139
1331.03	0.01029
1340.67	0.00988
1350.32	0.01105
1359.96	0.0137
1369.61	0.02119
1379.25	0.02363
1388.9	0.01199
1398.54	0.01441
1408.18	0.03229
1417.83	0.06102
1427.47	0.03483
1437.12	0.03929
1446.76	0.0389
1456.41	0.01137
1466.05	0.00879
1475.7	0.00688
1485.34	0.00559
1494.99	0.00557
1504.63	0.0055
1514.28	0.0064
1523.92	0.00959
1533.57	0.01406
1543.21	0.02567
1552.86	0.07965
1562.5	0.09304
1572.15	0.01921
1581.79	0.01126
1591.44	0.00829
1601.08	0.00501
1610.73	0.00374
1620.37	0.00363
1630.01	0.00398
1639.66	0.00455
1649.3	0.00452
1658.95	0.00512
1668.59	0.00464
1678.24	0.00451
1687.88	0.00487
1697.53	0.00609
1707.17	0.01405
1716.82	0.0187
1726.46	0.01584
1736.11	0.03606
1745.75	0.19996
1755.4	0.17075
1765.04	0.02
1774.69	0.01439
1784.33	0.02244
1793.98	0.01678
1803.62	0.00813
1813.27	0.00584
1822.91	0.00395
1832.55	0.00363
1842.2	0.00361
1851.84	0.0021889
1861.49	0.0018445
1871.13	0.0015216
1880.78	0.0016414
1890.42	0.00122047
1900.07	0.0013608
1909.71	0.0013377
1919.36	0.0017198
1929	0.001568
1938.65	0.00228
1948.29	0.00285
1957.94	0.00286
1967.58	0.00263
1977.23	0.00245
1986.87	0.0020384
1996.52	0.0015862
2006.16	0.00121513
2015.81	0.0013286
2025.45	0.0011556
2035.1	0.00124909
2044.74	0.0014048
2054.38	0.0014463
2064.03	0.0018415
2073.67	0.0020069
2083.32	0.0019878
2092.96	0.00243
2102.61	0.00342
2112.25	0.00356
2121.9	0.00273
2131.54	0.0017933
2141.19	0.0014461
2150.83	0.00125477
2160.48	0.0013463
2170.12	0.00125455
2179.77	0.0013565
2189.41	0.0012332
2199.06	0.00124911
2208.7	0.000992
2218.35	0.0013567
2227.99	0.001092
2237.64	0.0013606
2247.28	0.001008
2256.92	0.0011872
2266.57	0.000965
2276.21	0.0011137
2285.86	0.0013788
2295.5	0.0011362
2305.15	0.00120495
2314.79	0.00121574
2324.44	0.00129085
2334.08	0.0011539
2343.73	0.000973
2353.37	0.0014188
2363.02	0.0014743
2372.66	0.0016172
2382.31	0.0016293
2391.95	0.0015635
2401.6	0.0015316
2411.24	0.0014661
2420.89	0.000911
2430.53	0.00122934
2440.18	0.001109
2449.82	0.00130587
2459.47	0.00127829
2469.11	0.001011
2478.75	0.0011237
2488.4	0.0011116
2498.04	0.0014627
2507.69	0.0015311
2517.33	0.00126415
2526.98	0.00128811
2536.62	0.00120862
2546.27	0.001383
2555.91	0.00128028
2565.56	0.0015488
2575.2	0.001447
2584.85	0.0015547
2594.49	0.00129177
2604.14	0.0015043
2613.78	0.00121869
2623.43	0.0011743
2633.07	0.000911
2642.72	0.0014113
2652.36	0.00107
2662.01	0.001556
2671.65	0.000981
2681.29	0.001505
2690.94	0.001378
2700.58	0.00129116
2710.23	0.0011333
2719.87	0.000908
2729.52	0.000849
2739.16	0.00126678
2748.81	0.000868
2758.45	0.000963
2768.1	0.00122068
2777.74	0.000815
2787.39	0.00120761
2797.03	0.0014868
2806.68	0.0013734
2816.32	0.0018798
2825.97	0.0021797
2835.61	0.00284
2845.26	0.00566
2854.9	0.00601
2864.55	0.00445
2874.19	0.00339
2883.84	0.00278
2893.48	0.00348
2903.12	0.00464
2912.77	0.00476
2922.41	0.00573
2932.06	0.00538
2941.7	0.00564
2951.35	0.01223
2960.99	0.03548
2970.64	0.0216
2980.28	0.00657
2989.93	0.00535
2999.57	0.0077
3009.22	0.00821
3018.86	0.00576
3028.51	0.00624
3038.15	0.00658
3047.8	0.00427
3057.44	0.00326
3067.09	0.00321
3076.73	0.00416
3086.38	0.00663
3096.02	0.00442
3105.67	0.00251
3115.31	0.0018993
3124.95	0.0017307
3134.6	0.0019615
3144.24	0.002127
3153.89	0.0016912
3163.53	0.00097
3173.18	0.001089
3182.82	0.00124518
3192.47	0.000901
3202.11	0.000972
3211.76	0.000859
3221.4	0.0011707
3231.05	0.000568
3240.69	0.000691
3250.34	0.000981
3259.98	0.000534
3269.63	0.000425
3279.27	0.000563
3288.92	0.001066
3298.56	0.000849
3308.21	0.000404
3317.85	0.000941
3327.49	0.000436
3337.14	0.000353
3346.78	0.000722
3356.43	0.000515
3366.07	0.000879
3375.72	0.000939
3385.36	0.000782
3395.01	2e-05
3404.65	0.0011428
3414.3	0.0011926
3423.94	0.000862
3433.59	0.000883
3443.23	0.0011896
3452.88	0.00095
3462.52	0.000803
3472.17	0.002157
3481.81	0.00331
3491.46	0.002025
3501.1	0.001
3510.75	0.000736
3520.39	0.000715
3530.04	0.00025
3539.68	0.0001
3549.32	0.000562
3558.97	0.000444
3568.61	0.000615
3578.26	0.000832
3587.9	0.0011274
3597.55	0.001009
3607.19	0.000257
3616.84	0.0013104
3626.48	0.000881
3636.13	0.000331
3645.77	0.000799
3655.42	0.000941
3665.06	0.00021
3674.71	0.000645
3684.35	0.000751
3694	0.000653
3703.64	0.000454
3713.29	0.000735
3722.93	0.000891
3732.58	0.000763
3742.22	0.000776
3751.86	0.000475
3761.51	0.000393
3771.15	0.000591
3780.8	0.000495
3790.44	0.000947
3800.09	0.0017844
3809.73	0.0015057
3819.38	0.0012097
3829.02	0.000999
3838.67	0.0015841
3848.31	0.000666
3857.96	0.0011611
3867.6	0.000663
3877.25	0.000537
3886.89	0.001046
3896.54	0.000828
3906.18	0.00038
3915.83	0.001104
3925.47	0.001093
3935.12	0.000988
3944.76	0.000476
3954.41	0.00067
3964.05	0.000613
3973.69	0.0016343
3983.34	0.0011708
3992.98	0.00097
