Infrared Spectrum: 3-(Methylthio)phenyl isothiocyanate
Formula: C 8 H 7 N S 2
CAS: 51333-80-3
State: gas
Origin: EPA-IR VAPOR PHASE LIBRARY
1/CM	ABSORBANCE
549.8	0.021019
559.445	0.017999
569.09	0.013529
578.734	0.009239
588.379	0.006949
598.024	0.006959
607.669	0.008709
617.313	0.006529
626.958	0.003599
636.603	0.002589
646.248	0.003749
655.893	0.005939
665.537	0.009769
675.182	0.019519
684.827	0.019509
694.472	0.010359
704.116	0.007239
713.761	0.007479
723.406	0.008199
733.051	0.011469
742.695	0.021569
752.34	0.036699
761.985	0.049569
771.63	0.062489
781.275	0.046639
790.919	0.018119
800.564	0.006179
810.209	0.003999
819.854	0.004139
829.498	0.003359
839.143	0.003209
848.788	0.004319
858.433	0.007379
868.078	0.010659
877.722	0.010309
887.367	0.006859
897.012	0.004979
906.657	0.004429
916.301	0.003729
925.946	0.003689
935.591	0.004259
945.236	0.006569
954.88	0.012949
964.525	0.022569
974.17	0.023379
983.815	0.012859
993.46	0.009229
1003.1	0.006969
1012.75	0.003449
1022.39	0.002399
1032.04	0.001889
1041.68	0.001479
1051.33	0.001819
1060.97	0.003629
1070.62	0.007299
1080.26	0.007779
1089.91	0.006379
1099.55	0.005579
1109.2	0.002349
1118.84	0.001409
1128.49	0.001599
1138.13	0.0010765
1147.78	0.0012926
1157.42	0.001759
1167.07	0.002709
1176.71	0.001419
1186.36	0.001489
1196	0.001729
1205.64	0.001699
1215.29	0.001979
1224.93	0.002989
1234.58	0.004079
1244.22	0.004659
1253.87	0.006199
1263.51	0.008449
1273.16	0.007589
1282.8	0.005489
1292.45	0.005529
1302.09	0.004669
1311.74	0.005149
1321.38	0.007229
1331.03	0.005479
1340.67	0.003009
1350.32	0.001939
1359.96	0.001649
1369.61	0.002009
1379.25	0.002739
1388.9	0.004459
1398.54	0.007459
1408.18	0.012439
1417.83	0.018089
1427.47	0.020149
1437.12	0.023889
1446.76	0.024399
1456.41	0.022619
1466.05	0.041129
1475.7	0.052379
1485.34	0.019059
1494.99	0.008079
1504.63	0.006169
1514.28	0.006409
1523.92	0.008219
1533.57	0.009349
1543.21	0.012019
1552.86	0.022459
1562.5	0.047839
1572.15	0.099929
1581.79	0.166719
1591.44	0.101519
1601.08	0.028069
1610.73	0.013749
1620.37	0.008409
1630.01	0.006079
1639.66	0.004999
1649.3	0.004539
1658.95	0.004369
1668.59	0.004199
1678.24	0.003359
1687.88	0.002799
1697.53	0.002529
1707.17	0.002579
1716.82	0.002699
1726.46	0.003179
1736.11	0.003599
1745.75	0.003849
1755.4	0.004019
1765.04	0.004279
1774.69	0.004299
1784.33	0.004389
1793.98	0.004079
1803.62	0.003839
1813.27	0.003619
1822.91	0.003649
1832.55	0.003859
1842.2	0.004409
1851.84	0.005249
1861.49	0.005399
1871.13	0.005489
1880.78	0.006719
1890.42	0.009209
1900.07	0.013189
1909.71	0.019739
1919.36	0.029399
1929	0.039119
1938.65	0.045779
1948.29	0.054389
1957.94	0.069179
1967.58	0.089839
1977.23	0.117229
1986.87	0.154869
1996.52	0.205649
2006.16	0.264669
2015.81	0.322029
2025.45	0.384969
2035.1	0.472859
2044.74	0.513029
2054.38	0.365729
2064.03	0.240229
2073.67	0.228819
2083.32	0.291249
2092.96	0.333529
2102.61	0.280379
2112.25	0.187249
2121.9	0.131789
2131.54	0.107769
2141.19	0.091459
2150.83	0.073809
2160.48	0.053319
2170.12	0.038669
2179.77	0.031859
2189.41	0.029359
2199.06	0.028069
2208.7	0.025159
2218.35	0.020699
2227.99	0.016479
2237.64	0.012189
2247.28	0.008949
2256.92	0.006779
2266.57	0.005089
2276.21	0.003849
2285.86	0.003159
2295.5	0.002619
2305.15	0.002279
2314.79	0.002259
2324.44	0.002349
2334.08	0.002479
2343.73	0.002319
2353.37	0.002369
2363.02	0.002439
2372.66	0.002639
2382.31	0.002709
2391.95	0.003219
2401.6	0.003549
2411.24	0.004089
2420.89	0.004249
2430.53	0.004109
2440.18	0.004169
2449.82	0.004439
2459.47	0.004819
2469.11	0.004839
2478.75	0.004609
2488.4	0.004659
2498.04	0.004719
2507.69	0.004309
2517.33	0.003899
2526.98	0.003979
2536.62	0.004379
2546.27	0.005029
2555.91	0.005669
2565.56	0.006749
2575.2	0.008629
2584.85	0.008399
2594.49	0.005109
2604.14	0.002779
2613.78	0.002069
2623.43	0.001809
2633.07	0.001629
2642.72	0.001589
2652.36	0.001439
2662.01	0.001569
2671.65	0.001709
2681.29	0.001839
2690.94	0.001869
2700.58	0.002099
2710.23	0.002189
2719.87	0.002249
2729.52	0.002449
2739.16	0.002479
2748.81	0.002929
2758.45	0.003159
2768.1	0.003429
2777.74	0.003629
2787.39	0.004149
2797.03	0.004569
2806.68	0.004649
2816.32	0.004399
2825.97	0.004309
2835.61	0.004179
2845.26	0.004859
2854.9	0.004909
2864.55	0.003929
2874.19	0.003339
2883.84	0.003029
2893.48	0.003159
2903.12	0.004089
2912.77	0.006059
2922.41	0.009719
2932.06	0.017849
2941.7	0.014169
2951.35	0.007679
2960.99	0.005789
2970.64	0.005219
2980.28	0.005959
2989.93	0.007749
2999.57	0.009569
3009.22	0.007519
3018.86	0.006069
3028.51	0.005059
3038.15	0.004119
3047.8	0.003899
3057.44	0.005849
3067.09	0.010199
3076.73	0.011779
3086.38	0.008949
3096.02	0.005679
3105.67	0.002579
3115.31	0.001609
3124.95	0.0011623
3134.6	0.0011175
3144.24	0.0009357
3153.89	0.0008663
3163.53	0.0007279
3173.18	0.0007596
3182.82	0.00052
3192.47	0.00041314
3202.11	0.0003838
3211.76	0.000278
3221.4	0.0003274
3231.05	0.000226
3240.69	0.0003255
3250.34	0.000163
3259.98	9.2e-05
3269.63	0.000226
3279.27	7.9e-05
3288.92	0.000157
3298.56	0.000222
3308.21	0.0003757
3317.85	0.0003486
3327.49	9.5e-05
3337.14	0.000197
3346.78	9.7e-05
3356.43	0.000303
3366.07	9.9e-05
3375.72	0.000189
3385.36	0.000141
3395.01	0.0003313
3404.65	0.0003306
3414.3	0.000137
3423.94	0.000167
3433.59	0.000256
3443.23	0.00040337
3452.88	0.00040764
3462.52	8.2e-05
3472.17	0.0003327
3481.81	0.00044856
3491.46	0.000277
3501.1	0.0003337
3510.75	0.0003156
3520.39	0.0003158
3530.04	0.0003486
3539.68	0.000268
3549.32	0.000410515
3558.97	0.000271
3568.61	0.0003185
3578.26	0.000218
3587.9	0.0003281
3597.55	0.0003191
3607.19	0.000198
3616.84	0.000163
3626.48	0.00044776
3636.13	0.000408876
3645.77	0.00028
3655.42	0.0006081
3665.06	0.0004543
3674.71	0.0003623
3684.35	0.0005223
3694	0.0005983
3703.64	0.00045867
3713.29	0.00050335
3722.93	0.0005506
3732.58	0.00045718
3742.22	0.0006548
3751.86	0.0005733
3761.51	0.0007779
3771.15	0.0005284
3780.8	0.0005877
3790.44	0.0006674
3800.09	0.0005753
3809.73	0.0006724
3819.38	0.0007828
3829.02	0.0007614
3838.67	0.0008369
3848.31	0.0006754
3857.96	0.0010073
3867.6	0.0008878
3877.25	0.0008989
3886.89	0.0010369
3896.54	0.0010164
3906.18	0.00104
3915.83	0.001112
3925.47	0.001429
3935.12	0.001529
3944.76	0.001739
3954.41	0.001519
3964.05	0.001739
3973.69	0.001969
3983.34	0.001849
3992.98	0.002069
