Infrared Spectrum: 2-(Methylthio)phenyl isothiocyanate
Formula: C 8 H 7 N S 2
CAS: 51333-75-6
State: gas
Origin: EPA-IR VAPOR PHASE LIBRARY
1/CM	ABSORBANCE
549.8	0.024917
559.445	0.023817
569.09	0.022847
578.734	0.021707
588.379	0.016227
598.024	0.010277
607.669	0.007227
617.313	0.005587
626.958	0.005267
636.603	0.005217
646.248	0.008207
655.893	0.016237
665.537	0.014637
675.182	0.007157
684.827	0.007367
694.472	0.014177
704.116	0.020767
713.761	0.024087
723.406	0.039397
733.051	0.068147
742.695	0.128847
752.34	0.148267
761.985	0.051167
771.63	0.009657
781.275	0.005347
790.919	0.006937
800.564	0.006087
810.209	0.002917
819.854	0.002297
829.498	0.002417
839.143	0.002567
848.788	0.003097
858.433	0.003317
868.078	0.003127
877.722	0.003737
887.367	0.005957
897.012	0.010497
906.657	0.014397
916.301	0.020237
925.946	0.037457
935.591	0.070577
945.236	0.080847
954.88	0.052627
964.525	0.033497
974.17	0.024067
983.815	0.013617
993.46	0.008547
1003.1	0.006617
1012.75	0.006467
1022.39	0.009857
1032.04	0.015177
1041.68	0.011607
1051.33	0.006477
1060.97	0.010457
1070.62	0.018887
1080.26	0.015047
1089.91	0.005097
1099.55	0.002537
1109.2	0.002367
1118.84	0.002137
1128.49	0.003237
1138.13	0.002857
1147.78	0.002497
1157.42	0.002757
1167.07	0.002807
1176.71	0.002077
1186.36	0.001897
1196	0.002067
1205.64	0.002337
1215.29	0.002397
1224.93	0.003917
1234.58	0.005817
1244.22	0.006707
1253.87	0.007657
1263.51	0.015297
1273.16	0.022987
1282.8	0.016267
1292.45	0.008347
1302.09	0.006997
1311.74	0.009027
1321.38	0.010457
1331.03	0.006757
1340.67	0.003187
1350.32	0.002837
1359.96	0.003127
1369.61	0.004357
1379.25	0.006017
1388.9	0.006947
1398.54	0.007117
1408.18	0.009567
1417.83	0.016467
1427.47	0.031297
1437.12	0.058057
1446.76	0.058337
1456.41	0.082837
1466.05	0.126087
1475.7	0.062777
1485.34	0.018677
1494.99	0.014587
1504.63	0.012557
1514.28	0.008357
1523.92	0.006867
1533.57	0.007537
1543.21	0.009857
1552.86	0.018877
1562.5	0.037427
1572.15	0.056567
1581.79	0.060437
1591.44	0.030587
1601.08	0.014907
1610.73	0.010617
1620.37	0.007427
1630.01	0.005207
1639.66	0.003907
1649.3	0.003387
1658.95	0.003667
1668.59	0.004467
1678.24	0.005477
1687.88	0.006487
1697.53	0.006207
1707.17	0.005677
1716.82	0.006037
1726.46	0.005467
1736.11	0.004597
1745.75	0.004467
1755.4	0.004567
1765.04	0.004917
1774.69	0.005487
1784.33	0.006367
1793.98	0.007517
1803.62	0.008017
1813.27	0.008197
1822.91	0.008577
1832.55	0.008997
1842.2	0.009547
1851.84	0.011067
1861.49	0.013197
1871.13	0.015727
1880.78	0.018717
1890.42	0.020407
1900.07	0.022177
1909.71	0.025247
1919.36	0.030277
1929	0.039557
1938.65	0.052717
1948.29	0.068037
1957.94	0.089007
1967.58	0.118967
1977.23	0.158647
1986.87	0.211747
1996.52	0.281717
2006.16	0.367737
2015.81	0.466077
2025.45	0.583297
2035.1	0.739437
2044.74	0.920437
2054.38	1.00769
2064.03	0.863257
2073.67	0.630617
2083.32	0.497267
2092.96	0.472177
2102.61	0.487737
2112.25	0.465677
2121.9	0.384357
2131.54	0.292787
2141.19	0.225937
2150.83	0.174067
2160.48	0.129767
2170.12	0.104087
2179.77	0.091087
2189.41	0.074957
2199.06	0.057347
2208.7	0.046677
2218.35	0.037567
2227.99	0.026477
2237.64	0.017067
2247.28	0.011707
2256.92	0.008887
2266.57	0.007387
2276.21	0.006667
2285.86	0.006477
2295.5	0.006457
2305.15	0.006867
2314.79	0.006797
2324.44	0.006077
2334.08	0.005887
2343.73	0.006057
2353.37	0.005757
2363.02	0.005187
2372.66	0.004917
2382.31	0.005217
2391.95	0.005717
2401.6	0.006097
2411.24	0.005887
2420.89	0.005417
2430.53	0.005137
2440.18	0.005537
2449.82	0.006457
2459.47	0.007617
2469.11	0.008447
2478.75	0.008477
2488.4	0.008097
2498.04	0.008837
2507.69	0.010027
2517.33	0.010047
2526.98	0.009657
2536.62	0.010357
2546.27	0.010627
2555.91	0.010757
2565.56	0.011357
2575.2	0.012297
2584.85	0.012137
2594.49	0.010527
2604.14	0.008477
2613.78	0.006367
2623.43	0.004577
2633.07	0.003737
2642.72	0.003317
2652.36	0.003177
2662.01	0.003147
2671.65	0.003217
2681.29	0.003397
2690.94	0.003577
2700.58	0.004277
2710.23	0.005187
2719.87	0.005677
2729.52	0.005917
2739.16	0.006007
2748.81	0.006317
2758.45	0.007077
2768.1	0.007547
2777.74	0.007427
2787.39	0.006607
2797.03	0.005367
2806.68	0.004277
2816.32	0.004197
2825.97	0.004887
2835.61	0.006657
2845.26	0.008377
2854.9	0.008017
2864.55	0.006077
2874.19	0.005327
2883.84	0.004727
2893.48	0.004597
2903.12	0.005817
2912.77	0.009277
2922.41	0.021057
2932.06	0.042387
2941.7	0.033977
2951.35	0.012997
2960.99	0.008697
2970.64	0.008687
2980.28	0.010317
2989.93	0.014907
2999.57	0.018447
3009.22	0.015777
3018.86	0.012067
3028.51	0.009107
3038.15	0.007397
3047.8	0.008697
3057.44	0.017727
3067.09	0.040337
3076.73	0.041947
3086.38	0.021847
3096.02	0.011987
3105.67	0.006237
3115.31	0.005557
3124.95	0.005447
3134.6	0.004347
3144.24	0.002497
3153.89	0.001587
3163.53	0.0009733
3173.18	0.0007738
3182.82	0.0007337
3192.47	0.0005135
3202.11	0.0004259
3211.76	0.00038335
3221.4	0.0002769
3231.05	0.0002282
3240.69	0.000232
3250.34	0.000166
3259.98	0.000203
3269.63	0.000154
3279.27	0.000145
3288.92	6.7e-05
3298.56	0.0002762
3308.21	3.5e-05
3317.85	0.0002439
3327.49	0.0002725
3337.14	0.0002196
3346.78	0.000111
3356.43	6e-05
3366.07	0.000143
3375.72	0.000155
3385.36	7.5e-05
3395.01	0.000169
3404.65	0.00016
3414.3	0.0002572
3423.94	0.0002269
3433.59	0.00014
3443.23	7.9e-05
3452.88	0.000198
3462.52	0.0002331
3472.17	0.000127
3481.81	0.000174
3491.46	0.000196
3501.1	0.00031971
3510.75	0.00029379
3520.39	0.00031744
3530.04	0.00036017
3539.68	0.000306274
3549.32	0.0002504
3558.97	0.0002732
3568.61	0.000212
3578.26	0.000177
3587.9	0.000306998
3597.55	0.00038533
3607.19	0.00029582
3616.84	0.00032153
3626.48	0.00029117
3636.13	0.0002781
3645.77	0.000172
3655.42	0.0005115
3665.06	0.0004022
3674.71	0.0005237
3684.35	0.0005757
3694	0.0005907
3703.64	0.0005654
3713.29	0.0006757
3722.93	0.0006364
3732.58	0.0007392
3742.22	0.0008909
3751.86	0.0008601
3761.51	0.0008215
3771.15	0.0007385
3780.8	0.000966
3790.44	0.0011565
3800.09	0.001024
3809.73	0.0008327
3819.38	0.0008799
3829.02	0.0007783
3838.67	0.0007566
3848.31	0.0008697
3857.96	0.0008255
3867.6	0.0011052
3877.25	0.0010253
3886.89	0.0012063
3896.54	0.001357
3906.18	0.001557
3915.83	0.001567
3925.47	0.001767
3935.12	0.001887
3944.76	0.001957
3954.41	0.002177
3964.05	0.002507
3973.69	0.002587
3983.34	0.002427
3992.98	0.002847
