Infrared Spectrum: N,N'-METHYLENEBIS-n-DODECANAMIDE
Formula: C25 H50 N2 O2
CAS: 5136-45-8
State: SOLID (NUJOL MULL)
Class: COBLENTZ
Instrument: PERKIN-ELMER
Sampling: TRANSMISSION
Resolution: 4
Origin: ABBOTT LABORATORIES - WASHBURN
MICROMETERS	TRANSMITTANCE
2.036	0.821
2.07016	0.825
2.10431	0.83
2.13847	0.832
2.17262	0.833
2.20678	0.839
2.24093	0.8387
2.27509	0.8151
2.30924	0.7821
2.3434	0.792
2.37755	0.794
2.41171	0.7941
2.44586	0.8084
2.48002	0.8212
2.51417	0.835
2.54833	0.839
2.58248	0.844
2.61664	0.845
2.65079	0.8452
2.68495	0.849
2.7191	0.847
2.75326	0.84
2.78741	0.835
2.82157	0.8249
2.85572	0.8078
2.88988	0.7915
2.92403	0.7367
2.95819	0.509
2.99234	0.2269
3.0265	0.4563
3.06065	0.5884
3.09481	0.637
3.12896	0.6993
3.16312	0.7363
3.19727	0.7312
3.23143	0.625
3.26558	0.6572
3.29974	0.5887
3.33389	0.1986
3.36805	0.0876
3.4022	0.0469
3.43636	0.041
3.47051	0.047
3.50467	0.0768
3.53882	0.5553
3.57298	0.6775
3.60713	0.7241
3.64129	0.741
3.67544	0.7701
3.7096	0.7799
3.74375	0.779
3.77791	0.784
3.81206	0.7993
3.84622	0.8084
3.88037	0.821
3.91453	0.832
3.94868	0.8422
3.98284	0.8492
4.01699	0.8523
4.05115	0.8573
4.0853	0.861
4.11946	0.861
4.15361	0.863
4.18777	0.863
4.22192	0.8643
4.25608	0.8708
4.29023	0.8691
4.32439	0.869
4.35854	0.868
4.3927	0.8662
4.42685	0.869
4.46101	0.869
4.49516	0.871
4.52932	0.871
4.56347	0.8709
4.59763	0.8679
4.63178	0.868
4.66594	0.869
4.70009	0.8713
4.73425	0.873
4.7684	0.873
4.80256	0.873
4.83671	0.873
4.87087	0.873
4.90502	0.871
4.93918	0.873
4.97333	0.8749
5.00749	0.875
5.04164	0.8759
5.0758	0.878
5.10995	0.878
5.14411	0.878
5.17826	0.878
5.21242	0.878
5.24657	0.875
5.28073	0.875
5.31488	0.8799
5.34904	0.8809
5.38319	0.876
5.41735	0.88
5.4515	0.881
5.48566	0.878
5.51981	0.875
5.55397	0.876
5.58812	0.8713
5.62228	0.871
5.65643	0.8662
5.69059	0.8606
5.72474	0.861
5.7589	0.8526
5.79305	0.844
5.82721	0.8277
5.86136	0.8053
5.89552	0.7802
5.92967	0.7134
5.96383	0.5675
5.99798	0.4061
6.03214	0.3303
6.06629	0.1369
6.10045	0.1145
6.1346	0.1992
6.16876	0.3342
6.20291	0.48
6.23707	0.5895
6.27123	0.6367
6.30538	0.6223
6.33954	0.5763
6.37369	0.4502
6.40785	0.2929
6.442	0.2626
6.47616	0.2929
6.51031	0.3405
6.54447	0.4825
6.57862	0.5899
6.61278	0.639
6.64693	0.66
6.68109	0.6562
6.71524	0.6198
6.7494	0.5059
6.78355	0.2253
6.81771	0.14
6.85186	0.1922
6.88602	0.2738
6.92017	0.3763
6.95433	0.4719
6.98848	0.5129
7.02264	0.5905
7.05679	0.6593
7.09095	0.6621
7.1251	0.5152
7.15926	0.5044
7.19341	0.4591
7.22757	0.3209
7.26172	0.2685
7.29588	0.3811
7.33003	0.4847
7.36419	0.5543
7.39834	0.554
7.4325	0.5832
7.46665	0.616
7.50081	0.5915
7.53496	0.6071
7.56912	0.6421
7.60327	0.6467
7.63743	0.6158
7.67158	0.6198
7.70574	0.6553
7.73989	0.6739
7.77405	0.688
7.8082	0.6689
7.84236	0.587
7.87651	0.6419
7.91067	0.6951
7.94482	0.691
7.97898	0.612
8.01313	0.513
8.04729	0.6663
8.08144	0.6959
8.1156	0.6638
8.14975	0.5592
8.18391	0.5782
8.21806	0.6823
8.25222	0.7192
8.28637	0.7089
8.32053	0.692
8.35468	0.6462
8.38884	0.7249
8.42299	0.746
8.45715	0.741
8.4913	0.748
8.52546	0.758
8.55961	0.763
8.59377	0.7739
8.62792	0.7737
8.66208	0.7736
8.69623	0.7731
8.73039	0.7647
8.76454	0.7403
8.7987	0.6397
8.83285	0.4012
8.86701	0.357
8.90116	0.4719
8.93532	0.6388
8.96947	0.7136
9.00363	0.7424
9.03778	0.7595
9.07194	0.7751
9.10609	0.7845
9.14025	0.787
9.1744	0.785
9.20856	0.7747
9.24271	0.7579
9.27687	0.7215
9.31102	0.7397
9.34518	0.7678
9.37933	0.7844
9.41349	0.785
9.44764	0.78
9.4818	0.787
9.51595	0.7864
9.55011	0.783
9.58426	0.777
9.61842	0.7644
9.65257	0.7685
9.68673	0.7624
9.72088	0.7496
9.75504	0.7399
9.78919	0.75
9.82335	0.7483
9.8575	0.767
9.89166	0.7693
9.92581	0.7923
9.95997	0.8031
9.99412	0.814
10.0283	0.8248
10.0624	0.818
10.0966	0.8147
10.1307	0.8039
10.1649	0.7969
10.1991	0.7867
10.2332	0.7893
10.2674	0.8013
10.3015	0.818
10.3357	0.818
10.3698	0.821
10.404	0.821
10.4381	0.821
10.4723	0.823
10.5065	0.823
10.5406	0.823
10.5748	0.8212
10.6089	0.8132
10.6431	0.7961
10.6772	0.784
10.7114	0.789
10.7455	0.7742
10.7797	0.7844
10.8138	0.7988
10.848	0.7968
10.8822	0.8021
10.9163	0.8177
10.9505	0.8295
10.9846	0.833
11.0188	0.8364
11.0529	0.839
11.0871	0.8385
11.1212	0.839
11.1554	0.83
11.1896	0.821
11.2237	0.8116
11.2579	0.815
11.292	0.825
11.3262	0.8293
11.3603	0.8323
11.3945	0.8247
11.4286	0.813
11.4628	0.8048
11.4969	0.7928
11.5311	0.794
11.5653	0.801
11.5994	0.8047
11.6336	0.8252
11.6677	0.84
11.7019	0.8396
11.736	0.84
11.7702	0.8395
11.8043	0.8396
11.8385	0.835
11.8727	0.8359
11.9068	0.84
11.941	0.837
11.9751	0.839
12.0093	0.84
12.0434	0.8394
12.0776	0.84
12.1117	0.837
12.1459	0.8283
12.18	0.8104
12.2142	0.8165
12.2484	0.8214
12.2825	0.828
12.3167	0.828
12.3508	0.832
12.385	0.8347
12.4191	0.8315
12.4533	0.828
12.4874	0.83
12.5216	0.8297
12.5558	0.825
12.5899	0.823
12.6241	0.818
12.6582	0.818
12.6924	0.816
12.7265	0.8128
12.7607	0.806
12.7948	0.789
12.829	0.773
12.8631	0.7731
12.8973	0.782
12.9315	0.7849
12.9656	0.785
12.9998	0.785
13.0339	0.784
13.0681	0.785
13.1022	0.782
13.1364	0.7701
13.1705	0.77
13.2047	0.7672
13.2389	0.7564
13.273	0.7484
13.3072	0.7394
13.3413	0.732
13.3755	0.7312
13.4096	0.7274
13.4438	0.722
13.4779	0.71
13.5121	0.6806
13.5462	0.6552
13.5804	0.619
13.6146	0.601
13.6487	0.5884
13.6829	0.5249
13.717	0.448
13.7512	0.4423
13.7853	0.4794
13.8195	0.498
13.8536	0.4683
13.8878	0.4176
13.922	0.4593
13.9561	0.5314
13.9903	0.5681
14.0244	0.579
14.0586	0.5783
14.0927	0.5599
14.1269	0.5382
14.161	0.5144
14.1952	0.4855
14.2293	0.4455
14.2635	0.4188
14.2977	0.3904
14.3318	0.38
14.366	0.3701
14.4001	0.3774
14.4343	0.4017
14.4684	0.4236
14.5026	0.4499
14.5367	0.4755
14.5709	0.5003
14.6051	0.5217
14.6392	0.5396
14.6734	0.5595
14.7075	0.5734
14.7417	0.5893
14.7758	0.5995
14.81	0.609
14.8441	0.6147
14.8783	0.621
14.9125	0.6269
14.9466	0.6263
14.9808	0.6421
15.0149	0.6445
15.0491	0.6358
15.0832	0.6326
15.1174	0.631
15.1515	0.633
15.1857	0.631
15.2198	0.6308
15.254	0.628
15.2882	0.6259
15.3223	0.625
15.3565	0.621
15.3906	0.618
15.4248	0.614
