Infrared Spectrum: Amyl phenylacetate
Formula: C 13 H 18 O 2
CAS: 5137-52-0
State: gas
Instrument: HP-GC/MS/IRD
Origin: NIST Mass Spectrometry Data Center
1/CM	ABSORBANCE
550	0.0004094
562	0.0002553
574	0.0001656
586	3.22e-05
598	0.0001242
610	0.0001656
622	0.0005497
634	0.000759
646	0.0005566
658	0.000483
670	0.0009223
682	0.0018975
694	0.0043217
706	0.0053981
718	0.0050025
730	0.0029693
742	0.001771
754	0.0013317
766	0.0008832
778	0.0005014
790	0.0002967
802	0.0002829
814	0.0003013
826	0.000368
838	0.0004094
850	0.0004807
862	0.0005405
874	0.0005474
886	0.0006049
898	0.0006969
910	0.0006647
922	0.0006762
934	0.0007199
946	0.0007958
958	0.0009039
970	0.0015663
982	0.003565
994	0.0048162
1006	0.0040135
1018	0.0031648
1030	0.0037352
1042	0.0031533
1054	0.0022517
1066	0.002139
1078	0.0023
1090	0.0021528
1102	0.0028313
1114	0.0048898
1126	0.0098026
1138	0.0169602
1150	0.0172408
1162	0.0115184
1174	0.0069253
1186	0.0051313
1198	0.0050577
1210	0.006578
1222	0.0093426
1234	0.0136022
1246	0.0155296
1258	0.0124292
1270	0.007912
1282	0.0061686
1294	0.0055706
1306	0.0049151
1318	0.0047058
1330	0.0046138
1342	0.003726
1354	0.0023644
1366	0.0017457
1378	0.0018492
1390	0.0018584
1402	0.0011753
1414	0.0011661
1426	0.0017066
1438	0.0022517
1450	0.0026381
1462	0.0029302
1474	0.0022862
1486	0.0019297
1498	0.002783
1510	0.0009821
1522	0.0005083
1534	0.000391
1546	0.0003404
1558	0.0003473
1570	0.0003749
1582	0.0005704
1594	0.0009131
1606	0.0011132
1618	0.0005543
1630	0.0003404
1642	0.0003128
1654	0.000391
1666	0.0004554
1678	0.0005727
1690	0.0008027
1702	0.0013593
1714	0.0023736
1726	0.0044321
1738	0.0104926
1750	0.0220869
1762	0.0171235
1774	0.0066401
1786	0.0029946
1798	0.0016491
1810	0.0009315
1822	0.0006049
1834	0.0004508
1846	0.0003795
1858	0.0003818
1870	0.0003726
1882	0.0003519
1894	0.0002898
1906	0.0002392
1918	0.0002599
1930	0.0003312
1942	0.0004232
1954	0.0003749
1966	0.0002415
1978	0.0001932
1990	0.0001932
2002	0.0001748
2014	0.0001518
2026	0.0001702
2038	0.0001748
2050	0.0001242
2062	0.0001334
2074	0.0001127
2086	0.0001104
2098	8.28e-05
2110	8.05e-05
2122	6.44e-05
2134	7.59e-05
2146	4.14e-05
2158	5.75e-05
2170	7.59e-05
2182	3.91e-05
2194	5.06e-05
2206	5.98e-05
2218	7.36e-05
2230	5.75e-05
2242	8.74e-05
2254	8.74e-05
2266	9.66e-05
2278	8.28e-05
2290	0.0001012
2302	8.28e-05
2314	8.51e-05
2326	0.0001127
2338	9.66e-05
2350	9.66e-05
2362	8.51e-05
2374	6.67e-05
2386	7.59e-05
2398	5.75e-05
2410	8.97e-05
2422	9.43e-05
2434	8.97e-05
2446	8.05e-05
2458	5.29e-05
2470	4.37e-05
2482	6.44e-05
2494	7.82e-05
2506	8.51e-05
2518	5.98e-05
2530	6.21e-05
2542	5.52e-05
2554	3.91e-05
2566	4.37e-05
2578	5.98e-05
2590	0.0001012
2602	0.0001127
2614	0.0001035
2626	0.000138
2638	0.000138
2650	0.0001311
2662	0.0001334
2674	0.0001656
2686	0.0001886
2698	0.0001886
2710	0.0001633
2722	0.0002024
2734	0.0002323
2746	0.0003082
2758	0.0002921
2770	0.0003082
2782	0.0003266
2794	0.0004002
2806	0.0004899
2818	0.000667
2830	0.0009108
2842	0.0013731
2854	0.0024771
2866	0.0039882
2878	0.0049105
2890	0.0047219
2902	0.0048645
2914	0.006279
2926	0.009062
2938	0.012006
2950	0.0115828
2962	0.0124821
2974	0.0111757
2986	0.0056373
2998	0.0030038
3010	0.0020309
3022	0.0023207
3034	0.0034776
3046	0.0029394
3058	0.0023483
3070	0.0034454
3082	0.0025875
3094	0.0017204
3106	0.0011661
3118	0.0006831
3130	0.0003381
3142	0.0002231
3154	0.0002024
3166	0.0002001
3178	0.0001564
3190	0.0001058
3202	0.0001196
3214	6.44e-05
3226	7.13e-05
3238	7.82e-05
3250	8.28e-05
3262	0.0001219
3274	6.9e-06
3286	5.75e-05
3298	0
3310	0
3322	7.36e-05
3334	5.06e-05
3346	0.0001104
3358	5.98e-05
3370	0.0001058
3382	5.75e-05
3394	0.0001012
3406	8.51e-05
3418	5.29e-05
3430	0.0001334
3442	6.9e-05
3454	0.0001587
3466	0.0002024
3478	0.0002622
3490	0.0002668
3502	0.0002208
3514	0.0001886
3526	0.0001081
3538	9.89e-05
3550	8.74e-05
3562	0.0001495
3574	8.05e-05
3586	2.76e-05
3598	8.05e-05
3610	8.51e-05
3622	8.51e-05
3634	7.13e-05
3646	0.0001012
3658	8.05e-05
3670	0.0001288
3682	5.29e-05
3694	0.0001403
3706	0.0001403
3718	0.0001058
3730	8.74e-05
3742	0.0001012
3754	0.0001265
3766	0.0001587
3778	8.97e-05
3790	0.0001426
3802	4.6e-05
3814	0.0001265
3826	0.0001334
3838	0.0001127
