Infrared Spectrum: 5-Bromo-2-fluorotoluene
Formula: C 7 H 6 Br F
CAS: 51437-00-4
State: gas
Origin: EPA-IR VAPOR PHASE LIBRARY
1/CM	ABSORBANCE
549.8	0.009901
559.445	0.007451
569.09	0.002261
578.734	0.001451
588.379	0.001631
598.024	0.002411
607.669	0.007901
617.313	0.040171
626.958	0.040031
636.603	0.005351
646.248	0.001341
655.893	0.001551
665.537	0.0005835
675.182	0.00026608
684.827	0.00030129
694.472	0.00031058
704.116	0.0004564
713.761	0.0005099
723.406	0.0007623
733.051	0.001321
742.695	0.005781
752.34	0.021101
761.985	0.016851
771.63	0.004611
781.275	0.003411
790.919	0.009961
800.564	0.030791
810.209	0.059381
819.854	0.032151
829.498	0.010491
839.143	0.002931
848.788	0.004531
858.433	0.014961
868.078	0.031531
877.722	0.020891
887.367	0.006801
897.012	0.002171
906.657	0.001421
916.301	0.0010789
925.946	0.001461
935.591	0.001501
945.236	0.001481
954.88	0.001331
964.525	0.001851
974.17	0.002761
983.815	0.004061
993.46	0.004911
1003.1	0.003291
1012.75	0.001591
1022.39	0.0011655
1032.04	0.001651
1041.68	0.001991
1051.33	0.002621
1060.97	0.005281
1070.62	0.014041
1080.26	0.017681
1089.91	0.017551
1099.55	0.014701
1109.2	0.022041
1118.84	0.039681
1128.49	0.025991
1138.13	0.009751
1147.78	0.004101
1157.42	0.004921
1167.07	0.027191
1176.71	0.108961
1186.36	0.090851
1196	0.015401
1205.64	0.010971
1215.29	0.008851
1224.93	0.024961
1234.58	0.092051
1244.22	0.113621
1253.87	0.049841
1263.51	0.014041
1273.16	0.005851
1282.8	0.002971
1292.45	0.001871
1302.09	0.001871
1311.74	0.001981
1321.38	0.001741
1331.03	0.001671
1340.67	0.002141
1350.32	0.003081
1359.96	0.004171
1369.61	0.005361
1379.25	0.007531
1388.9	0.015761
1398.54	0.021691
1408.18	0.017241
1417.83	0.014141
1427.47	0.010341
1437.12	0.009251
1446.76	0.009811
1456.41	0.015361
1466.05	0.042651
1475.7	0.103951
1485.34	0.195581
1494.99	0.165631
1504.63	0.051331
1514.28	0.020591
1523.92	0.012191
1533.57	0.009321
1543.21	0.006491
1552.86	0.004801
1562.5	0.004641
1572.15	0.005611
1581.79	0.006671
1591.44	0.006001
1601.08	0.005401
1610.73	0.006091
1620.37	0.004781
1630.01	0.003041
1639.66	0.001391
1649.3	0.0009041
1658.95	0.0009802
1668.59	0.0011989
1678.24	0.001501
1687.88	0.001491
1697.53	0.001261
1707.17	0.0010499
1716.82	0.001411
1726.46	0.003031
1736.11	0.005281
1745.75	0.004111
1755.4	0.001381
1765.04	0.0006876
1774.69	0.0005377
1784.33	0.0005949
1793.98	0.0009212
1803.62	0.0010971
1813.27	0.0008005
1822.91	0.000617
1832.55	0.0008122
1842.2	0.001621
1851.84	0.003241
1861.49	0.004551
1871.13	0.003821
1880.78	0.001791
1890.42	0.0008037
1900.07	0.0005063
1909.71	0.0004866
1919.36	0.0005501
1929	0.000534
1938.65	0.0005757
1948.29	0.0004649
1957.94	0.0004672
1967.58	0.0005001
1977.23	0.0007397
1986.87	0.001491
1996.52	0.001761
2006.16	0.0011848
2015.81	0.0007247
2025.45	0.0004808
2035.1	0.0004011
2044.74	0.0003392
2054.38	0.0003502
2064.03	0.0002982
2073.67	0.00027793
2083.32	0.00027958
2092.96	0.00030522
2102.61	0.0005218
2112.25	0.0007276
2121.9	0.0005794
2131.54	0.0004558
2141.19	0.0004531
2150.83	0.0003681
2160.48	0.00028769
2170.12	0.0003729
2179.77	0.00021649
2189.41	0.0003398
2199.06	0.000447
2208.7	0.0004149
2218.35	0.0007078
2227.99	0.0009336
2237.64	0.001201
2247.28	0.001251
2256.92	0.0010834
2266.57	0.0008515
2276.21	0.0006545
2285.86	0.0005347
2295.5	0.0004978
2305.15	0.0005135
2314.79	0.0005644
2324.44	0.0007144
2334.08	0.0009015
2343.73	0.0009261
2353.37	0.0009594
2363.02	0.0008581
2372.66	0.0006987
2382.31	0.0005412
2391.95	0.0006555
2401.6	0.0007352
2411.24	0.0009025
2420.89	0.0010794
2430.53	0.0008801
2440.18	0.0009077
2449.82	0.0010994
2459.47	0.0011249
2469.11	0.001581
2478.75	0.001761
2488.4	0.001351
2498.04	0.0010668
2507.69	0.0007423
2517.33	0.000839
2526.98	0.0006444
2536.62	0.0005712
2546.27	0.0006403
2555.91	0.0007022
2565.56	0.000696
2575.2	0.0005113
2584.85	0.000509
2594.49	0.0004348
2604.14	0.000397
2613.78	0.0003487
2623.43	0.0004301
2633.07	0.0003679
2642.72	0.0004396
2652.36	0.0005403
2662.01	0.0006263
2671.65	0.0005628
2681.29	0.0003738
2690.94	0.0005017
2700.58	0.0005483
2710.23	0.0004964
2719.87	0.0006264
2729.52	0.0008405
2739.16	0.001035
2748.81	0.001241
2758.45	0.001261
2768.1	0.0009629
2777.74	0.0008127
2787.39	0.0008347
2797.03	0.0008855
2806.68	0.0010378
2816.32	0.0011531
2825.97	0.001421
2835.61	0.001791
2845.26	0.002321
2854.9	0.003491
2864.55	0.005391
2874.19	0.007451
2883.84	0.007501
2893.48	0.006481
2903.12	0.006431
2912.77	0.007141
2922.41	0.009811
2932.06	0.015001
2941.7	0.019281
2951.35	0.015411
2960.99	0.009861
2970.64	0.008801
2980.28	0.007901
2989.93	0.007881
2999.57	0.006571
3009.22	0.004371
3018.86	0.003441
3028.51	0.003821
3038.15	0.004951
3047.8	0.006001
3057.44	0.006491
3067.09	0.006251
3076.73	0.004901
3086.38	0.003711
3096.02	0.003221
3105.67	0.002651
3115.31	0.001831
3124.95	0.0012165
3134.6	0.0007129
3144.24	0.0006301
3153.89	0.000553
3163.53	0.0005168
3173.18	0.00031598
3182.82	0.0004045
3192.47	0.0003899
3202.11	0.0004543
3211.76	0.00031497
3221.4	0.000121
3231.05	0.0001703
3240.69	0.00030565
3250.34	5.7e-05
3259.98	0.0003233
3269.63	0.0001628
3279.27	0.00029287
3288.92	0.0001862
3298.56	0.0002953
3308.21	0.00021484
3317.85	0.00025541
3327.49	0.000105
3337.14	0.0003294
3346.78	0.00028375
3356.43	0.00027261
3366.07	0.0001567
3375.72	0.00024338
3385.36	0.00025706
3395.01	0.0001413
3404.65	0.00024746
3414.3	0.0002738
3423.94	0.00023288
3433.59	0.0004223
3443.23	0.0001381
3452.88	0.00029238
3462.52	0.00027678
3472.17	0.0003285
3481.81	0.0003434
3491.46	0.00025527
3501.1	0.0003627
3510.75	0.0003396
3520.39	0.00028419
3530.04	0.0005138
3539.68	0.0001524
3549.32	0.0002038
3558.97	0.0003222
3568.61	3.8e-05
3578.26	0.00031168
3587.9	0.00026289
3597.55	0.000228141
3607.19	0.0003116
3616.84	0.00028176
3626.48	0.00029866
3636.13	0.00034
3645.77	0.000221995
3655.42	0.0005574
3665.06	0.00024938
3674.71	0.0004474
3684.35	0.00029627
3694	0.00029226
3703.64	0.0004678
3713.29	0.0003586
3722.93	0.0001877
3732.58	0.0002017
3742.22	0.0003731
3751.86	0.0004093
3761.51	0.0003748
3771.15	0.0003305
3780.8	0.0003299
3790.44	0.0001829
3800.09	0.000223978
3809.73	0.0003358
3819.38	0.0004483
3829.02	0.0003341
3838.67	0.0003561
3848.31	0.0004607
3857.96	0.0006233
3867.6	0.0003916
3877.25	9.1e-05
3886.89	0.00023855
3896.54	0.0004905
3906.18	0.0003729
3915.83	0.0007283
3925.47	0.0006964
3935.12	0.0008068
3944.76	0.0008155
3954.41	0.000759
3964.05	0.0007359
3973.69	0.0006581
3983.34	0.0005662
3992.98	0.0003809
