Infrared Spectrum: 2-Ethyl-4,4-dimethyl-2-oxazoline
Formula: C 7 H 13 N O
CAS: 5146-88-3
State: gas
Origin: EPA-IR VAPOR PHASE LIBRARY
1/CM	ABSORBANCE
549.8	0.00063103
559.445	0.00045
569.09	0.0006764
578.735	0.0009597
588.38	0.0013765
598.025	0.0013463
607.67	0.0014691
617.315	0.001458
626.96	0.001885
636.605	0.002255
646.251	0.002155
655.896	0.0014847
665.541	0.0011331
675.186	0.0009052
684.831	0.00065768
694.476	0.0008168
704.121	0.0009213
713.766	0.0009062
723.411	0.0007381
733.056	0.0005638
742.701	0.00058676
752.346	0.0005555
761.991	0.0004973
771.636	0.0007013
781.281	0.0011089
790.926	0.0013795
800.571	0.001615
810.216	0.001745
819.861	0.001655
829.507	0.0011368
839.152	0.0008554
848.797	0.0011195
858.442	0.001775
868.087	0.002935
877.732	0.004145
887.377	0.004145
897.022	0.003525
906.667	0.004905
916.312	0.009505
925.957	0.011185
935.602	0.007875
945.247	0.005615
954.892	0.007505
964.537	0.010355
974.182	0.011975
983.827	0.014015
993.472	0.020475
1003.12	0.027025
1012.76	0.024745
1022.41	0.014415
1032.05	0.006735
1041.7	0.004255
1051.34	0.004875
1060.99	0.006005
1070.63	0.005615
1080.28	0.004505
1089.92	0.003385
1099.57	0.002665
1109.21	0.002535
1118.86	0.002945
1128.5	0.003875
1138.15	0.005845
1147.79	0.009005
1157.44	0.011645
1167.08	0.012365
1176.73	0.013505
1186.37	0.017285
1196.02	0.018245
1205.66	0.013325
1215.31	0.007685
1224.95	0.007575
1234.6	0.010455
1244.24	0.012965
1253.89	0.011555
1263.53	0.009345
1273.18	0.008545
1282.82	0.008015
1292.47	0.005975
1302.11	0.004205
1311.76	0.003875
1321.4	0.005275
1331.05	0.007425
1340.69	0.009315
1350.34	0.010785
1359.98	0.012605
1369.63	0.013795
1379.27	0.011735
1388.92	0.007825
1398.56	0.004575
1408.21	0.002885
1417.85	0.002825
1427.5	0.003705
1437.14	0.005135
1446.79	0.006745
1456.43	0.008435
1466.08	0.009325
1475.73	0.007535
1485.37	0.004155
1495.02	0.002045
1504.66	0.0012565
1514.31	0.0010008
1523.95	0.0008487
1533.6	0.0007701
1543.24	0.00063497
1552.89	0.00060245
1562.53	0.0007011
1572.18	0.0007278
1581.82	0.000836
1591.47	0.0010078
1601.11	0.0011961
1610.76	0.0014972
1620.4	0.002255
1630.05	0.003645
1639.69	0.006385
1649.34	0.013995
1658.98	0.031925
1668.63	0.049295
1678.27	0.046295
1687.92	0.024075
1697.56	0.010075
1707.21	0.005195
1716.85	0.003105
1726.5	0.002235
1736.14	0.001855
1745.79	0.0014799
1755.43	0.0012674
1765.08	0.0011281
1774.72	0.0009183
1784.37	0.0008402
1794.01	0.0007393
1803.66	0.0007822
1813.3	0.00066131
1822.95	0.00058533
1832.59	0.00056685
1842.24	0.0005371
1851.88	0.00049
1861.53	0.000444
1871.17	0.000416
1880.82	0.0004751
1890.46	0.000438
1900.11	0.000475
1909.75	0.0005168
1919.4	0.0005425
1929.04	0.00066152
1938.69	0.00064021
1948.33	0.00061701
1957.98	0.0007009
1967.62	0.00062646
1977.27	0.000583427
1986.91	0.0005057
1996.56	0.000532
2006.2	0.0005122
2015.85	0.000334
2025.49	0.000371
2035.14	0.000415
2044.78	0.0004
2054.43	0.000428
2064.07	0.0004896
2073.72	0.000457
2083.36	0.000464
2093.01	0.000388
2102.65	0.000297
2112.3	0.000331
2121.94	0.000371
2131.59	0.00033
2141.23	0.000361
2150.88	0.000391
2160.52	0.000346
2170.17	0.000435
2179.81	0.000419
2189.46	0.000446
2199.1	0.000335
2208.75	0.000321
2218.39	0.000338
2228.04	0.000344
2237.68	0.000446
2247.33	0.000405
2256.97	0.000417
2266.62	0.00044
2276.26	0.0004956
2285.91	0.000389
2295.55	0.000389
2305.2	0.000531
2314.84	0.00044
2324.49	0.000377
2334.13	0.000381
2343.78	0.000442
2353.42	0.0005502
2363.07	0.000393
2372.72	0.000394
2382.36	0.000412
2392.01	0.00041
2401.65	0.000418
2411.3	0.0004881
2420.94	0.000417
2430.59	0.000426
2440.23	0.000405
2449.88	0.000405
2459.52	0.000399
2469.17	0.00038
2478.81	0.000332
2488.46	0.000337
2498.1	0.000312
2507.75	0.000339
2517.39	0.000465
2527.04	0.000464
2536.68	0.000436
2546.33	0.000451
2555.97	0.000377
2565.62	0.0005392
2575.26	0.000561
2584.91	0.000576121
2594.55	0.000579623
2604.2	0.0005587
2613.84	0.00060017
2623.49	0.00063398
2633.13	0.00057263
2642.78	0.000574329
2652.42	0.0007582
2662.07	0.000732
2671.71	0.0007931
2681.36	0.0007863
2691	0.0007448
2700.65	0.0007054
2710.29	0.0008738
2719.94	0.0009551
2729.58	0.0010337
2739.23	0.0011553
2748.87	0.00123
2758.52	0.001072
2768.16	0.0010972
2777.81	0.0011839
2787.45	0.0012807
2797.1	0.0014883
2806.74	0.001775
2816.39	0.002055
2826.03	0.002435
2835.68	0.002935
2845.32	0.003915
2854.97	0.005455
2864.61	0.008485
2874.26	0.012425
2883.9	0.017005
2893.55	0.020265
2903.19	0.020325
2912.84	0.018905
2922.48	0.020725
2932.13	0.026595
2941.77	0.030715
2951.42	0.031415
2961.06	0.039685
2970.71	0.050965
2980.35	0.051355
2990	0.034685
2999.64	0.017575
3009.29	0.008555
3018.93	0.005195
3028.58	0.003695
3038.22	0.002765
3047.87	0.002085
3057.51	0.001705
3067.16	0.0014577
3076.8	0.0015095
3086.45	0.0012566
3096.09	0.0013284
3105.74	0.0012872
3115.38	0.00124
3125.03	0.001297
3134.67	0.0011205
3144.32	0.0010417
3153.96	0.0010254
3163.61	0.0010501
3173.25	0.0011872
3182.9	0.0009803
3192.54	0.0008072
3202.19	0.0007943
3211.83	0.0008811
3221.48	0.0007938
3231.12	0.00068
3240.77	0.0004833
3250.41	0.0005569
3260.06	0.00059838
3269.7	0.0004
3279.35	0.000438
3289	0.00061161
3298.64	0.00059617
3308.29	0.0007799
3317.93	0.0007344
3327.58	0.0007134
3337.22	0.0007253
3346.87	0.0006131
3356.51	0.000378
3366.16	0.000217
3375.8	0.000445
3385.45	0.000251
3395.09	0.00022
3404.74	0.000248
3414.38	0.000297
3424.03	0.000362
3433.67	0.000258
3443.32	0.000326
3452.96	0.000324
3462.61	0.000353
3472.25	0.000159
3481.9	0.000211
3491.54	0.000252
3501.19	0.00029
3510.83	0.000299
3520.48	0.000277
3530.12	0.00025
3539.77	4e-06
3549.41	0.000258
3559.06	0.000257
3568.7	0.000264
3578.35	0.000301
3587.99	0.000321
3597.64	0.000112
3607.28	0.000223
3616.93	0.000385
3626.57	4.4e-05
3636.22	0.00017
3645.86	0.000173
3655.51	0.000316
3665.15	0.000242
3674.8	0.000297
3684.44	0.000343
3694.09	0.000268
3703.73	0.000308
3713.38	0.000138
3723.02	0.000214
3732.67	0.000262
3742.31	0.000219
3751.96	0.000201
3761.6	0.000294
3771.25	0.000232
3780.89	0.0005149
3790.54	0.000365
3800.18	0.000292
3809.83	0.000389
3819.47	0.0005004
3829.12	0.000539
3838.76	0.000489
3848.41	0.000459
3858.05	0.0005317
3867.7	0.000247
3877.34	0.00038
3886.99	0.00056848
3896.63	0.00059048
3906.28	0.00063739
3915.92	0.0007034
3925.57	0.000365
3935.21	0.000433
3944.86	0.00067186
3954.5	0.0005737
3964.15	0.00058711
3973.79	0.0006857
3983.44	0.00061804
3993.08	0.0005392
