Infrared Spectrum: ACETAMIDE, N-(6-CHLORO-5-NITRO-4-OXO-3,4-DIHYDRO-PYRIMIDIN-2-YL)-
Formula: C6 H5 Cl N4 O4
CAS: 51471-45-5
State: SOLID (1 mg / 500 mg KBr DISC)
Class: COBLENTZ III
Instrument: PERKIN-ELMER 621
Sampling: TRANSMISSION
Resolution: 4
Origin: SOUTHERN RESEARCH INSTITUTE
1/CM	TRANSMITTANCE
252.185	0.207
262.675	0.254
273.164	0.3549
283.654	0.4869
294.143	0.619
304.633	0.654
315.122	0.673
325.612	0.7
336.101	0.763
346.591	0.82
357.08	0.864
367.57	0.892
378.059	0.907
388.549	0.921
399.038	0.942
409.528	0.954
420.018	0.958
430.507	0.964
440.997	0.968
451.486	0.968
461.976	0.964
472.465	0.942
482.955	0.901
493.444	0.67
503.934	0.967
514.423	0.956
524.913	0.939
535.402	0.924
545.892	0.917
556.381	0.908
566.871	0.878
577.361	0.8391
587.85	0.6942
598.34	0.6909
608.829	0.899
619.319	0.871
629.808	0.894
640.298	0.886
650.787	0.881
661.277	0.862
671.766	0.849
682.256	0.837
692.745	0.824
703.235	0.797
713.725	0.743
724.214	0.72
734.704	0.637
745.193	0.694
755.683	0.619
766.172	0.5
776.662	0.352
787.151	0.261
797.641	0.3599
808.13	0.456
818.62	0.435
829.109	0.49
839.599	0.4559
850.088	0.847
860.578	0.857
871.068	0.839
881.557	0.831
892.047	0.813
902.536	0.7461
913.026	0.5621
923.515	0.7149
934.005	0.824
944.494	0.815
954.984	0.763
965.473	0.632
975.963	0.724
986.452	0.715
996.942	0.6181
1007.43	0.6
1017.92	0.721
1028.41	0.684
1038.9	0.614
1049.39	0.5112
1059.88	0.7419
1070.37	0.802
1080.86	0.785
1091.35	0.749
1101.84	0.6581
1112.33	0.6959
1122.82	0.732
1133.31	0.713
1143.8	0.678
1154.28	0.633
1164.77	0.575
1175.26	0.503
1185.75	0.352
1196.24	0.166
1206.73	0.207
1217.22	0.5619
1227.71	0.533
1238.2	0.475
1248.69	0.56
1259.18	0.7179
1269.67	0.762
1280.16	0.729
1290.65	0.678
1301.14	0.573
1311.63	0.4231
1322.12	0.352
1332.61	0.56
1343.1	0.515
1353.59	0.41
1364.08	0.239
1374.57	0.4259
1385.05	0.581
1395.54	0.596
1406.03	0.585
1416.52	0.569
1427.01	0.551
1437.5	0.535
1447.99	0.508
1458.48	0.467
1468.97	0.422
1479.46	0.352
1489.95	0.281
1500.44	0.249
1510.93	0.169
1521.42	0.095
1531.91	0.041
1542.4	0.052
1552.89	0.075
1563.38	0.079
1573.87	0.116
1584.36	0.163
1594.85	0.133
1605.33	0.091
1615.82	0.18
1626.31	0.273
1636.8	0.291
1647.29	0.274
1657.78	0.198
1668.27	0.104
1678.76	0.033
1689.25	0.033
1699.74	0.128
1710.23	0.288
1720.72	0.396
1731.21	0.465
1741.7	0.5509
1752.19	0.616
1762.68	0.669
1773.17	0.711
1783.66	0.741
1794.15	0.759
1804.64	0.772
1815.13	0.783
1825.62	0.792
1836.1	0.819
1846.59	0.848
1857.08	0.873
1867.57	0.894
1878.06	0.903
1888.55	0.913
1899.04	0.918
1909.53	0.924
1920.02	0.924
1930.51	0.924
1941	0.933
1951.49	0.939
1961.98	0.941
1972.47	0.938
1982.96	0.943
1993.45	0.96
2003.94	0.954
2014.43	0.951
2024.92	0.949
2035.41	0.941
2045.9	0.941
2056.38	0.939
2066.87	0.938
2077.36	0.939
2087.85	0.939
2098.34	0.939
2108.83	0.93
2119.32	0.926
2129.81	0.926
2140.3	0.916
2150.79	0.911
2161.28	0.909
2171.77	0.907
2182.26	0.904
2192.75	0.895
2203.24	0.89
2213.73	0.891
2224.22	0.898
2234.71	0.9
2245.2	0.899
2255.69	0.896
2266.18	0.896
2276.67	0.891
2287.15	0.883
2297.64	0.883
2308.13	0.874
2318.62	0.867
2329.11	0.864
2339.6	0.86
2350.09	0.857
2360.58	0.852
2371.07	0.849
2381.56	0.848
2392.05	0.844
2402.54	0.843
2413.03	0.841
2423.52	0.836
2434.01	0.836
2444.5	0.832
2454.99	0.83
2465.48	0.83
2475.97	0.828
2486.46	0.828
2496.95	0.83
2507.43	0.83
2517.92	0.827
2528.41	0.823
2538.9	0.819
2549.39	0.814
2559.88	0.811
2570.37	0.807
2580.86	0.809
2591.35	0.811
2601.84	0.815
2612.33	0.809
2622.82	0.807
2633.31	0.807
2643.8	0.797
2654.29	0.792
2664.78	0.784
2675.27	0.781
2685.76	0.779
2696.25	0.773
2706.74	0.764
2717.23	0.759
2727.72	0.756
2738.2	0.751
2748.69	0.747
2759.18	0.732
2769.67	0.724
2780.16	0.707
2790.65	0.709
2801.14	0.705
2811.63	0.707
2822.12	0.7
2832.61	0.7
2843.1	0.696
2853.59	0.69
2864.08	0.684
2874.57	0.666
2885.06	0.641
2895.55	0.623
2906.04	0.611
2916.53	0.598
2927.02	0.584
2937.51	0.579
2948	0.589
2958.48	0.6
2968.97	0.594
2979.46	0.584
2989.95	0.562
3000.44	0.551
3010.93	0.529
3021.42	0.498
3031.91	0.466
3042.4	0.43
3052.89	0.407
3063.38	0.409
3073.87	0.402
3084.36	0.397
3094.85	0.39
3105.34	0.385
3115.83	0.371
3126.32	0.351
3136.81	0.315
3147.3	0.283
3157.79	0.256
3168.28	0.256
3178.77	0.281
3189.25	0.298
3199.74	0.275
3210.23	0.23
3220.72	0.226
3231.21	0.3
3241.7	0.403
3252.19	0.505
3262.68	0.567
3273.17	0.614
3283.66	0.65
3294.15	0.661
3304.64	0.665
3315.13	0.678
3325.62	0.705
3336.11	0.709
3346.6	0.708
3357.09	0.708
3367.58	0.705
3378.07	0.704
3388.56	0.695
3399.05	0.687
3409.53	0.687
3420.02	0.686
3430.51	0.686
3441	0.684
3451.49	0.684
3461.98	0.686
3472.47	0.686
3482.96	0.686
3493.45	0.688
3503.94	0.695
3514.43	0.695
3524.92	0.701
3535.41	0.705
3545.9	0.707
3556.39	0.712
3566.88	0.717
3577.37	0.725
3587.86	0.729
3598.35	0.735
3608.84	0.746
3619.33	0.751
3629.82	0.756
3640.3	0.756
3650.79	0.76
3661.28	0.763
3671.77	0.763
3682.26	0.763
3692.75	0.764
3703.24	0.762
3713.73	0.76
3724.22	0.76
3734.71	0.758
3745.2	0.759
3755.69	0.756
3766.18	0.754
3776.67	0.752
3787.16	0.75
3797.65	0.749
3808.14	0.747
3818.63	0.747
3829.12	0.747
3839.61	0.746
3850.1	0.741
3860.58	0.738
3871.07	0.737
3881.56	0.735
3892.05	0.737
3902.54	0.734
3913.03	0.73
3923.52	0.725
3934.01	0.725
3944.5	0.718
3954.99	0.72
3965.48	0.718
3975.97	0.721
3986.46	0.72
3996.95	0.718
