Infrared Spectrum: 2-ALLYL-4-CHLOROPHENYL ALLYL ETHER
Formula: C12 H13 Cl O
CAS: 51496-26-5
State: SOLUTION (10% CCl4 FOR 5000-1330, 10% CS2 FOR 1330-625 CM^-^1)
Class: COBLENTZ
Instrument: Not specified, most likely a prism, grating, or hybrid spectrometer.
Sampling: TRANSMISSION
Path length: 0.0120 CM, 0.0115 CM
Resolution: 4
Origin: DOW CHEMICAL COMPANY
MICROMETERS	TRANSMITTANCE
2.034	0.902
2.0751	0.898
2.11619	0.891
2.15729	0.888
2.19839	0.885
2.23949	0.883
2.28058	0.874
2.32168	0.881
2.36278	0.886
2.40387	0.89
2.44497	0.891
2.48607	0.891
2.52716	0.895
2.56826	0.897
2.60936	0.905
2.65046	0.903
2.69155	0.897
2.73265	0.903
2.77375	0.902
2.81484	0.902
2.85594	0.9
2.89704	0.898
2.93813	0.898
2.97923	0.898
3.02033	0.9
3.06143	0.903
3.10252	0.903
3.14362	0.9
3.18472	0.873
3.22581	0.761
3.26691	0.698
3.30801	0.797
3.34911	0.706
3.3902	0.722
3.4313	0.622
3.4724	0.686
3.51349	0.806
3.55459	0.886
3.59569	0.895
3.63678	0.897
3.67788	0.898
3.71898	0.91
3.76008	0.919
3.80117	0.917
3.84227	0.91
3.88337	0.909
3.92446	0.9
3.96556	0.902
4.00666	0.903
4.04775	0.909
4.08885	0.915
4.12995	0.915
4.17105	0.898
4.21214	0.893
4.25324	0.905
4.29434	0.912
4.33543	0.898
4.37653	0.897
4.41763	0.914
4.45873	0.917
4.49982	0.921
4.54092	0.921
4.58202	0.924
4.62311	0.922
4.66421	0.924
4.70531	0.922
4.7464	0.919
4.7875	0.917
4.8286	0.919
4.8697	0.905
4.91079	0.895
4.95189	0.909
4.99299	0.898
5.03408	0.902
5.07518	0.909
5.11628	0.914
5.15737	0.919
5.19847	0.919
5.23957	0.915
5.28067	0.91
5.32176	0.886
5.36286	0.864
5.40396	0.83
5.44505	0.838
5.48615	0.891
5.52725	0.891
5.56835	0.909
5.60944	0.91
5.65054	0.909
5.69164	0.905
5.73273	0.895
5.77383	0.9
5.81493	0.909
5.85602	0.903
5.89712	0.907
5.93822	0.909
5.97932	0.907
6.02041	0.876
6.06151	0.753
6.10261	0.646
6.1437	0.849
6.1848	0.809
6.2259	0.684
6.26699	0.552
6.30809	0.591
6.34919	0.59
6.39029	0.571
6.43138	0.514
6.47248	0.488
6.51358	0.523
6.55467	0.559
6.59577	0.572
6.63687	0.54
6.67797	0.377
6.71906	0.072
6.76016	0.174
6.80126	0.435
6.84235	0.408
6.88345	0.569
6.92455	0.639
6.96564	0.495
7.00674	0.397
7.04784	0.437
7.08894	0.445
7.13003	0.631
7.17113	0.801
7.21223	0.751
7.25332	0.771
7.29442	0.789
7.33552	0.742
7.37661	0.825
7.41771	0.84
7.45881	0.806
7.49991	0.728
7.541	0.583
7.5821	0.554
7.6232	0.511
7.66429	0.475
7.70539	0.475
7.74649	0.511
7.78758	0.495
7.82868	0.447
7.86978	0.518
7.91088	0.487
7.95197	0.351
7.99307	0.174
8.03417	0.048
8.07526	0.09
8.11636	0.157
8.15746	0.234
8.19856	0.49
8.23965	0.602
8.28075	0.615
8.32185	0.595
8.36294	0.531
8.40404	0.5
8.44514	0.406
8.48623	0.368
8.52733	0.605
8.56843	0.715
8.60953	0.749
8.65062	0.744
8.69172	0.682
8.73282	0.569
8.77391	0.428
8.81501	0.289
8.85611	0.246
8.8972	0.303
8.9383	0.459
8.9794	0.578
9.0205	0.62
9.06159	0.634
9.10269	0.667
9.14379	0.704
9.18488	0.728
9.22598	0.737
9.26708	0.742
9.30818	0.765
9.34927	0.783
9.39037	0.799
9.43147	0.802
9.47256	0.802
9.51366	0.799
9.55476	0.778
9.59585	0.722
9.63695	0.632
9.67805	0.493
9.71915	0.353
9.76024	0.26
9.80134	0.277
9.84244	0.375
9.88353	0.466
9.92463	0.49
9.96573	0.428
10.0068	0.283
10.0479	0.2
10.089	0.212
10.1301	0.3
10.1712	0.355
10.2123	0.439
10.2534	0.622
10.2945	0.706
10.3356	0.746
10.3767	0.766
10.4178	0.773
10.4589	0.773
10.5	0.763
10.5411	0.742
10.5822	0.706
10.6233	0.646
10.6644	0.543
10.7055	0.423
10.7466	0.291
10.7877	0.2
10.8288	0.152
10.8699	0.121
10.911	0.118
10.9521	0.164
10.9932	0.24
11.0343	0.356
11.0753	0.493
11.1164	0.584
11.1575	0.62
11.1986	0.615
11.2397	0.572
11.2808	0.536
11.3219	0.536
11.363	0.557
11.4041	0.562
11.4452	0.493
11.4863	0.397
11.5274	0.385
11.5685	0.487
11.6096	0.591
11.6507	0.634
11.6918	0.667
11.7329	0.687
11.774	0.716
11.8151	0.747
11.8562	0.777
11.8973	0.797
11.9384	0.806
11.9795	0.807
12.0206	0.804
12.0617	0.797
12.1028	0.78
12.1439	0.759
12.185	0.742
12.2261	0.72
12.2672	0.679
12.3083	0.6
12.3494	0.49
12.3905	0.336
12.4315	0.181
12.4726	0.128
12.5137	0.183
12.5548	0.384
12.5959	0.596
12.637	0.691
12.6781	0.74
12.7192	0.777
12.7603	0.797
12.8014	0.807
12.8425	0.814
12.8836	0.819
12.9247	0.821
12.9658	0.821
13.0069	0.821
13.048	0.823
13.0891	0.825
13.1302	0.823
13.1713	0.821
13.2124	0.819
13.2535	0.811
13.2946	0.804
13.3357	0.795
13.3768	0.782
13.4179	0.765
13.459	0.747
13.5001	0.728
13.5412	0.703
13.5823	0.692
13.6234	0.691
13.6645	0.698
13.7056	0.706
13.7467	0.713
13.7878	0.716
13.8288	0.72
13.8699	0.718
13.911	0.715
13.9521	0.71
13.9932	0.704
14.0343	0.701
14.0754	0.701
14.1165	0.699
14.1576	0.694
14.1987	0.684
14.2398	0.67
14.2809	0.658
14.322	0.638
14.3631	0.617
14.4042	0.591
14.4453	0.555
14.4864	0.507
14.5275	0.464
14.5686	0.42
14.6097	0.389
14.6508	0.377
14.6919	0.382
14.733	0.404
14.7741	0.43
14.8152	0.444
14.8563	0.456
14.8974	0.461
14.9385	0.464
14.9796	0.473
15.0207	0.471
15.0618	0.464
15.1029	0.454
15.144	0.44
15.1851	0.428
15.2261	0.42
15.2672	0.406
15.3083	0.399
15.3494	0.387
15.3905	0.375
15.4316	0.372
15.4727	0.361
15.5138	0.348
15.5549	0.334
15.596	0.329
15.6371	0.331
15.6782	0.332
15.7193	0.336
15.7604	0.339
15.8015	0.337
15.8426	0.337
15.8837	0.337
