Infrared Spectrum: Acetic acid, trichloro-, ethyl ester
Formula: C4 H5 Cl3 O2
CAS: 515-84-4
State: SOLUTION (10% CCl4 FOR 2.6-7.5, 10% CS2 FOR 7.5-22 MICRON)
Class: COBLENTZ III
Instrument: DOW KBr FOREPRISM-GRATING
Instrument parameters: BLAZED AT 3.5, 12.0, 20.0 MICRON AND CHANGED AT 5.0, 7.5, 14.9 MICRON
Sampling: TRANSMISSION
Path length: 0.010 CM, 0.011 CM
Resolution: 2
Origin: DOW CHEMICAL COMPANY
1/CM	TRANSMITTANCE
3798	0.9212
3789	0.9217
3780	0.9207
3771	0.9197
3762	0.9187
3753	0.9179
3744	0.9169
3735	0.9175
3726	0.9166
3717	0.9156
3708	0.916
3699	0.9146
3690	0.9092
3681	0.9013
3672	0.8989
3663	0.9
3654	0.9011
3645	0.901
3636	0.9003
3627	0.9012
3618	0.9011
3609	0.9006
3600	0.8997
3591	0.8979
3582	0.885
3573	0.8992
3564	0.9019
3555	0.9017
3546	0.8994
3537	0.8913
3528	0.8665
3519	0.8487
3510	0.8506
3501	0.8743
3492	0.8897
3483	0.8967
3474	0.9028
3465	0.906
3456	0.9087
3447	0.9116
3438	0.9143
3429	0.9155
3420	0.9166
3411	0.9175
3402	0.9212
3393	0.9198
3384	0.9191
3375	0.9166
3366	0.9138
3357	0.9104
3348	0.9072
3339	0.9041
3330	0.9018
3321	0.8996
3312	0.8988
3303	0.895
3294	0.8928
3285	0.8919
3276	0.8917
3267	0.8918
3258	0.8912
3249	0.8903
3240	0.8895
3231	0.8887
3222	0.8879
3213	0.8872
3204	0.8856
3195	0.8868
3186	0.8856
3177	0.885
3168	0.8849
3159	0.8859
3150	0.885
3141	0.8832
3132	0.8831
3123	0.8823
3114	0.8813
3105	0.8811
3096	0.8838
3087	0.8802
3078	0.8773
3069	0.8749
3060	0.871
3051	0.8664
3042	0.8641
3033	0.8409
3024	0.7922
3015	0.7443
3006	0.6654
2997	0.5681
2988	0.4718
2979	0.5116
2970	0.6083
2961	0.7062
2952	0.7754
2943	0.739
2934	0.7089
2925	0.762
2916	0.7981
2907	0.7546
2898	0.7769
2889	0.8203
2880	0.8319
2871	0.815
2862	0.833
2853	0.85
2844	0.8551
2835	0.8568
2826	0.86
2817	0.859
2808	0.8629
2799	0.8664
2790	0.8668
2781	0.8666
2772	0.8671
2763	0.8669
2754	0.8676
2745	0.8684
2736	0.8692
2727	0.8714
2718	0.8745
2709	0.8786
2700	0.8841
2691	0.888
2682	0.89
2673	0.8905
2664	0.8898
2655	0.8887
2646	0.8852
2637	0.8793
2628	0.8767
2619	0.8731
2610	0.8702
2601	0.8686
2592	0.8687
2583	0.8707
2574	0.873
2565	0.875
2556	0.8776
2547	0.8791
2538	0.8798
2529	0.8793
2520	0.8789
2511	0.8782
2502	0.8775
2493	0.8777
2484	0.8763
2475	0.8708
2466	0.8678
2457	0.8661
2448	0.8719
2439	0.8788
2430	0.8828
2421	0.8865
2412	0.8886
2403	0.8912
2394	0.8923
2385	0.895
2376	0.9008
2367	0.9005
2358	0.9026
2349	0.9018
2340	0.9002
2331	0.8983
2322	0.9039
2313	0.9052
2304	0.9047
2295	0.9056
2286	0.9042
2277	0.9018
2268	0.9004
2259	0.9005
2250	0.8992
2241	0.901
2232	0.9036
2223	0.9057
2214	0.9029
2205	0.9014
2196	0.8999
2187	0.8985
2178	0.8996
2169	0.9
2160	0.9
2151	0.9012
2142	0.9023
2133	0.9025
2124	0.9009
2115	0.9
2106	0.8999
2097	0.8993
2088	0.9012
2079	0.9004
2070	0.898
2061	0.8955
2052	0.8962
2043	0.8959
2034	0.8976
2025	0.9006
2016	0.9026
2007	0.9024
1998	0.8991
1989	0.8816
1980	0.877
1971	0.8733
1962	0.8839
1953	0.8792
1944	0.8756
1935	0.874
1926	0.8698
1917	0.8658
1908	0.859
1899	0.8567
1890	0.8565
1881	0.8599
1872	0.8615
1863	0.8535
1854	0.843
1845	0.8377
1836	0.8294
1827	0.8143
1818	0.7988
1809	0.7774
1800	0.7304
1791	0.5895
1782	0.257
1773	0.0136
1764	0.0244
1755	0.2957
1746	0.4788
1737	0.6432
1728	0.6851
1719	0.7382
1710	0.785
1701	0.8147
1692	0.8344
1683	0.8526
1674	0.8611
1665	0.8634
1656	0.8607
1647	0.8876
1638	0.901
1629	0.8948
1620	0.8819
1611	0.8715
1602	0.8735
1593	0.8574
1584	0.85
1575	0.8464
1566	0.8282
1557	0.8155
1548	0.8061
1539	0.7975
1530	0.8163
1521	0.8127
1512	0.8043
1503	0.8008
1494	0.8136
1485	0.8068
1476	0.6824
1467	0.6135
1458	0.6992
1449	0.7129
1440	0.6576
1431	0.7887
1422	0.8228
1413	0.8169
1404	0.7892
1395	0.7242
1386	0.6775
1377	0.7322
1368	0.5165
1359	0.7979
1350	0.8249
1341	0.8207
1332	0.7937
1323	0.7832
1314	0.779
1305	0.7244
1296	0.5185
1287	0.5744
1278	0.565
1269	0.5006
1260	0.203
1251	0.0291
1242	0.0099
1233	0.0069
1224	0.0956
1215	0.3297
1206	0.5224
1197	0.6609
1188	0.7303
1179	0.7537
1170	0.7571
1161	0.7795
1152	0.79
1143	0.8232
1134	0.8509
1125	0.861
1116	0.8316
1107	0.7754
1098	0.72
1089	0.6811
1080	0.8011
1071	0.8232
1062	0.8288
1053	0.8131
1044	0.7667
1035	0.5977
1026	0.2256
1017	0.058
1008	0.4355
999	0.6628
990	0.7613
981	0.8005
972	0.8044
963	0.7117
954	0.7517
945	0.7602
936	0.8202
927	0.8466
918	0.8523
909	0.8395
900	0.8016
891	0.6806
882	0.1816
873	0.286
864	0.5566
855	0.6215
846	0.5628
837	0.4586
828	0.0141
819	0.0994
810	0.4462
801	0.4434
792	0.5678
783	0.7055
774	0.7629
765	0.7634
756	0.6768
747	0.5337
738	0.5815
729	0.7296
720	0.7386
711	0.7115
702	0.683
693	0.5486
684	0.0936
675	0.1141
666	0.53
657	0.7448
648	0.7901
639	0.8204
630	0.8578
621	0.878
612	0.8893
603	0.8971
594	0.9028
585	0.8767
576	0.9026
567	0.9069
558	0.9056
549	0.9012
540	0.8984
531	0.8993
522	0.899
513	0.8961
504	0.8928
495	0.889
486	0.8841
477	0.8797
468	0.8647
459	0.8446
450	0.8349
