Infrared Spectrum: ETHANOL, 2,2,2-TRICHLORO-1-ETHOXY-
Formula: C4 H7 Cl3 O2
CAS: 515-83-3
State: SOLUTION (10% CCl4 FOR 2-7.6, 10% CS2 FOR 7.6-16 MICRON) VS SOLVENT
Melting point: 47.5 C
Boiling point: 116 C AT 760 mmHg
Class: COBLENTZ III
Instrument: BAIRD (PRISM)
Instrument parameters: NaCl PRISM
Sampling: TRANSMISSION
Path length: 0.013 CM, 0.011 CM
Resolution: 2
Origin: DOW CHEMICAL COMPANY
MICROMETERS	TRANSMITTANCE
1.983	0.988
2.02194	0.988
2.06089	0.991
2.09983	0.986
2.13877	0.985
2.17772	0.985
2.21666	0.973
2.2556	0.969
2.29455	0.97
2.33349	0.97
2.37244	0.969
2.41138	0.969
2.45032	0.963
2.48927	0.96
2.52821	0.951
2.56715	0.948
2.6061	0.948
2.64504	0.952
2.68398	0.953
2.72293	0.932
2.76187	0.782
2.80081	0.615
2.83976	0.741
2.8787	0.763
2.91764	0.772
2.95659	0.82
2.99553	0.858
3.03448	0.882
3.07342	0.898
3.11236	0.908
3.15131	0.92
3.19025	0.924
3.22919	0.926
3.26814	0.919
3.30708	0.85
3.34602	0.599
3.38497	0.587
3.42391	0.571
3.46285	0.68
3.5018	0.833
3.54074	0.873
3.57968	0.886
3.61863	0.891
3.65757	0.902
3.69652	0.909
3.73546	0.913
3.7744	0.921
3.81335	0.921
3.85229	0.925
3.89123	0.927
3.93018	0.925
3.96912	0.921
4.00806	0.924
4.04701	0.921
4.08595	0.92
4.12489	0.92
4.16384	0.92
4.20278	0.92
4.24172	0.919
4.28067	0.922
4.31961	0.919
4.35856	0.915
4.3975	0.916
4.43644	0.909
4.47539	0.908
4.51433	0.909
4.55327	0.902
4.59222	0.902
4.63116	0.9
4.6701	0.899
4.70905	0.9
4.74799	0.902
4.78693	0.902
4.82588	0.902
4.86482	0.9
4.90376	0.908
4.94271	0.906
4.98165	0.903
5.0206	0.902
5.05954	0.903
5.09848	0.903
5.13743	0.9
5.17637	0.9
5.21531	0.895
5.25426	0.893
5.2932	0.898
5.33214	0.898
5.37109	0.898
5.41003	0.9
5.44897	0.898
5.48792	0.898
5.52686	0.899
5.56581	0.9
5.60475	0.897
5.64369	0.892
5.68264	0.887
5.72158	0.886
5.76052	0.886
5.79947	0.877
5.83841	0.875
5.87735	0.872
5.9163	0.872
5.95524	0.876
5.99418	0.872
6.03313	0.87
6.07207	0.871
6.11101	0.872
6.14996	0.88
6.1889	0.884
6.22785	0.88
6.26679	0.876
6.30573	0.872
6.34468	0.866
6.38362	0.865
6.42256	0.864
6.46151	0.861
6.50045	0.861
6.53939	0.864
6.57834	0.865
6.61728	0.862
6.65622	0.858
6.69517	0.829
6.73411	0.713
6.77305	0.736
6.812	0.763
6.85094	0.708
6.88989	0.651
6.92883	0.678
6.96777	0.724
7.00672	0.72
7.04566	0.659
7.0846	0.582
7.12355	0.536
7.16249	0.455
7.20143	0.335
7.24038	0.309
7.27932	0.489
7.31826	0.572
7.35721	0.651
7.39615	0.649
7.43509	0.593
7.47404	0.509
7.51298	0.421
7.55193	0.492
7.59087	0.663
7.62981	0.691
7.66876	0.668
7.7077	0.621
7.74664	0.632
7.78559	0.658
7.82453	0.641
7.86347	0.552
7.90242	0.463
7.94136	0.51
7.9803	0.603
8.01925	0.659
8.05819	0.7
8.09713	0.735
8.13608	0.752
8.17502	0.762
8.21397	0.769
8.25291	0.768
8.29185	0.753
8.3308	0.75
8.36974	0.723
8.40868	0.7
8.44763	0.632
8.48657	0.553
8.52551	0.522
8.56446	0.541
8.6034	0.555
8.64234	0.553
8.68129	0.538
8.72023	0.504
8.75917	0.449
8.79812	0.358
8.83706	0.263
8.87601	0.162
8.91495	0.106
8.95389	0.062
8.99284	0.028
9.03178	0.011
9.07072	0.012
9.10967	0.022
9.14861	0.052
9.18755	0.074
9.2265	0.053
9.26544	0.03
9.30438	0.037
9.34333	0.112
9.38227	0.2
9.42121	0.299
9.46016	0.38
9.4991	0.421
9.53805	0.413
9.57699	0.39
9.61593	0.401
9.65488	0.43
9.69382	0.471
9.73276	0.529
9.77171	0.581
9.81065	0.642
9.84959	0.663
9.88854	0.679
9.92748	0.684
9.96642	0.68
10.0054	0.64
10.0443	0.572
10.0833	0.45
10.1222	0.403
10.1611	0.425
10.2001	0.493
10.239	0.588
10.278	0.671
10.3169	0.731
10.3559	0.769
10.3948	0.788
10.4337	0.801
10.4727	0.816
10.5116	0.821
10.5506	0.826
10.5895	0.832
10.6285	0.834
10.6674	0.834
10.7064	0.835
10.7453	0.835
10.7842	0.831
10.8232	0.829
10.8621	0.823
10.9011	0.801
10.94	0.762
10.979	0.681
11.0179	0.55
11.0568	0.418
11.0958	0.412
11.1347	0.455
11.1737	0.503
11.2126	0.599
11.2516	0.685
11.2905	0.74
11.3294	0.767
11.3684	0.784
11.4073	0.789
11.4463	0.793
11.4852	0.791
11.5242	0.78
11.5631	0.776
11.6021	0.763
11.641	0.738
11.6799	0.724
11.7189	0.701
11.7578	0.659
11.7968	0.626
11.8357	0.581
11.8747	0.501
11.9136	0.384
11.9525	0.27
11.9915	0.172
12.0304	0.067
12.0694	0.039
12.1083	0.033
12.1473	0.05
12.1862	0.11
12.2251	0.186
12.2641	0.249
12.303	0.271
12.342	0.268
12.3809	0.205
12.4199	0.108
12.4588	0.056
12.4978	0.042
12.5367	0.041
12.5756	0.075
12.6146	0.151
12.6535	0.242
12.6925	0.342
12.7314	0.441
12.7704	0.51
12.8093	0.567
12.8482	0.621
12.8872	0.656
12.9261	0.684
12.9651	0.714
13.004	0.739
13.043	0.752
13.0819	0.769
13.1209	0.78
13.1598	0.791
13.1987	0.795
13.2377	0.801
13.2766	0.809
13.3156	0.813
13.3545	0.82
13.3935	0.824
13.4324	0.829
13.4713	0.833
13.5103	0.833
13.5492	0.834
13.5882	0.833
13.6271	0.829
13.6661	0.828
13.705	0.827
13.7439	0.827
13.7829	0.823
13.8218	0.827
13.8608	0.829
13.8997	0.833
13.9387	0.833
13.9776	0.832
14.0166	0.833
14.0555	0.832
14.0944	0.824
14.1334	0.823
14.1723	0.826
14.2113	0.822
14.2502	0.821
14.2892	0.816
14.3281	0.813
14.367	0.812
14.406	0.813
14.4449	0.812
14.4839	0.809
14.5228	0.806
14.5618	0.804
14.6007	0.8
14.6396	0.793
14.6786	0.787
14.7175	0.783
14.7565	0.769
14.7954	0.763
14.8344	0.75
14.8733	0.723
14.9123	0.703
14.9512	0.682
14.9901	0.656
15.0291	0.616
15.068	0.578
15.107	0.533
15.1459	0.488
15.1849	0.454
15.2238	0.418
15.2627	0.378
15.3017	0.354
15.3406	0.337
15.3796	0.32
15.4185	0.317
15.4575	0.32
15.4964	0.326
15.5353	0.348
15.5743	0.372
15.6132	0.397
15.6522	0.41
15.6911	0.429
15.7301	0.449
15.769	0.455
15.808	0.471
15.8469	0.474
15.8858	0.477
15.9248	0.483
15.9637	0.481
