Infrared Spectrum: Neophyl chloride
Formula: C 10 H 13 Cl
CAS: 515-40-2
State: gas
Origin: EPA-IR VAPOR PHASE LIBRARY
1/CM	ABSORBANCE
549.9	0.009607
559.547	0.010837
569.193	0.007257
578.84	0.006127
588.486	0.002427
598.133	0.0013268
607.779	0.0009717
617.426	0.0008955
627.072	0.0008391
636.719	0.0009375
646.365	0.001467
656.012	0.002297
665.658	0.004707
675.305	0.008877
684.951	0.018497
694.598	0.031957
704.245	0.028457
713.891	0.024067
723.538	0.022917
733.184	0.014527
742.831	0.012307
752.477	0.019697
762.124	0.028547
771.77	0.020067
781.417	0.007187
791.063	0.003127
800.71	0.002097
810.356	0.001867
820.003	0.002547
829.649	0.007947
839.296	0.015677
848.943	0.009697
858.589	0.002717
868.236	0.001767
877.882	0.002387
887.529	0.004037
897.175	0.005137
906.822	0.003707
916.468	0.001927
926.115	0.001467
935.761	0.001767
945.408	0.002217
955.054	0.002967
964.701	0.002697
974.347	0.0013007
983.994	0.0008241
993.64	0.0008967
1003.29	0.0011724
1012.93	0.001587
1022.58	0.005817
1032.23	0.008577
1041.87	0.003667
1051.52	0.001477
1061.17	0.002047
1070.81	0.003117
1080.46	0.003717
1090.11	0.005017
1099.75	0.005647
1109.4	0.002657
1119.05	0.0012981
1128.69	0.0009359
1138.34	0.0008458
1147.99	0.0007572
1157.63	0.0009351
1167.28	0.001257
1176.92	0.0014043
1186.57	0.002077
1196.22	0.003237
1205.86	0.003217
1215.51	0.003817
1225.16	0.005027
1234.8	0.004317
1244.45	0.002907
1254.1	0.002707
1263.74	0.004707
1273.39	0.008877
1283.04	0.012867
1292.68	0.011207
1302.33	0.004977
1311.98	0.001877
1321.62	0.0010906
1331.27	0.0010139
1340.92	0.0012512
1350.56	0.002317
1360.21	0.005627
1369.86	0.011287
1379.5	0.012767
1389.15	0.012307
1398.79	0.007947
1408.44	0.003307
1418.09	0.002937
1427.73	0.005257
1437.38	0.011087
1447.03	0.013677
1456.67	0.012327
1466.32	0.013347
1475.97	0.013897
1485.61	0.013907
1495.26	0.016267
1504.91	0.010257
1514.55	0.003617
1524.2	0.002297
1533.85	0.001557
1543.49	0.0010064
1553.14	0.0009189
1562.79	0.0010479
1572.43	0.001517
1582.08	0.002797
1591.73	0.005077
1601.37	0.006267
1611.02	0.004067
1620.67	0.0014265
1630.31	0.0006849
1639.96	0.0005902
1649.6	0.0006431
1659.25	0.0009178
1668.9	0.0008867
1678.54	0.0007437
1688.19	0.00042443
1697.84	0.0003892
1707.48	0.00045227
1717.13	0.0005906
1726.78	0.0009184
1736.42	0.0009247
1746.07	0.0007421
1755.72	0.000436202
1765.36	0.00053
1775.01	0.0010003
1784.66	0.001957
1794.3	0.002067
1803.95	0.0012761
1813.6	0.0007378
1823.24	0.0003812
1832.89	0.0003701
1842.54	0.0005573
1852.18	0.0008572
1861.83	0.0012258
1871.47	0.001477
1881.12	0.001447
1890.77	0.0008787
1900.41	0.0004142
1910.06	0.000430862
1919.71	0.0007075
1929.35	0.0012714
1939	0.001697
1948.65	0.001837
1958.29	0.0014186
1967.94	0.00050321
1977.59	0.000248
1987.23	0.000172
1996.88	0.000123
2006.53	0.000153
2016.17	0.000132
2025.82	0.000127
2035.47	0.000118
2045.11	0.000129
2054.76	9.9e-05
2064.41	9.1e-05
2074.05	0.000171
2083.7	4.8e-05
2093.35	0.000107
2102.99	7.8e-05
2112.64	6.2e-05
2122.28	0.000105
2131.93	9.5e-05
2141.58	0.000109
2151.22	0.000118
2160.87	0.000156
2170.52	0.000126
2180.16	0.000115
2189.81	0.000132
2199.46	8.8e-05
2209.1	0.000169
2218.75	0.0001
2228.4	0.000135
2238.04	0.000115
2247.69	0.000134
2257.34	0.000127
2266.98	0.000177
2276.63	0.000215
2286.28	0.000195
2295.92	0.000241
2305.57	0.000286
2315.22	0.00047765
2324.86	0.0003375
2334.51	0.000172
2344.16	0.000225
2353.8	0.000248
2363.45	0.000187
2373.09	0.000203
2382.74	0.000266
2392.39	0.000224
2402.03	0.000205
2411.68	0.000252
2421.33	0.000225
2430.97	0.000214
2440.62	0.000292
2450.27	0.000191
2459.91	0.000168
2469.56	0.0002
2479.21	0.000193
2488.85	0.000245
2498.5	0.000221
2508.15	0.000262
2517.79	0.000201
2527.44	0.000173
2537.09	0.000177
2546.73	0.000247
2556.38	0.00023
2566.03	0.000324
2575.67	0.0003419
2585.32	0.0003888
2594.96	0.0003502
2604.61	0.0003564
2614.26	0.0003417
2623.9	0.000282
2633.55	0.00031
2643.2	0.0003389
2652.84	0.0003892
2662.49	0.00044961
2672.14	0.00045102
2681.78	0.000325
2691.43	0.000322
2701.08	0.00042279
2710.72	0.0005451
2720.37	0.0006139
2730.02	0.0008354
2739.66	0.0008466
2749.31	0.0007215
2758.96	0.0006742
2768.6	0.0006103
2778.25	0.0006329
2787.9	0.0006989
2797.54	0.0007445
2807.19	0.0010283
2816.84	0.0012743
2826.48	0.001677
2836.13	0.001937
2845.77	0.002537
2855.42	0.004217
2865.07	0.006707
2874.71	0.009647
2884.36	0.011837
2894.01	0.012347
2903.65	0.011867
2913.3	0.012747
2922.95	0.014557
2932.59	0.017997
2942.24	0.022937
2951.89	0.030207
2961.53	0.041667
2971.18	0.051147
2980.83	0.053817
2990.47	0.042817
3000.12	0.021987
3009.77	0.010757
3019.41	0.009837
3029.06	0.013917
3038.71	0.016727
3048.35	0.015337
3058	0.018067
3067.64	0.024767
3077.29	0.020577
3086.94	0.014737
3096.58	0.013367
3106.23	0.009337
3115.88	0.005777
3125.52	0.002907
3135.17	0.001697
3144.82	0.001193
3154.46	0.0011165
3164.11	0.0009066
3173.76	0.0008007
3183.4	0.0009013
3193.05	0.000769
3202.7	0.0008587
3212.34	0.0008198
3221.99	0.000779
3231.64	0.0005436
3241.28	0.00045119
3250.93	0.00048774
3260.58	0.00049849
3270.22	0.0006299
3279.87	0.0006244
3289.52	0.0006616
3299.16	0.000331
3308.81	0.00042206
3318.45	0.0003548
3328.1	0.000319
3337.75	0.000301
3347.39	0.0003408
3357.04	0.000317
3366.69	0.000152
3376.33	0.000256
3385.98	0.000291
3395.63	0.000177
3405.27	0.000138
3414.92	0.000296
3424.57	0.000229
3434.21	0.00025
3443.86	0.00017
3453.51	0.0003625
3463.15	0.000266
3472.8	7.2e-05
3482.45	0.000173
3492.09	0.000262
3501.74	0.0003353
3511.39	0.000216
3521.03	0.000283
3530.68	6.7e-05
3540.33	0.000125
3549.97	0.000135
3559.62	0.000165
3569.26	0.000141
3578.91	8.4e-05
3588.56	0.000122
3598.2	0.000132
3607.85	0.000163
3617.5	0.000249
3627.14	0.000235
3636.79	0.00012
3646.44	0.0003392
3656.08	0.000265
3665.73	0.000254
3675.38	0.00012
3685.02	0.000430808
3694.67	0.000266
3704.32	0.000272
3713.96	0.00041729
3723.61	0.0003762
3733.26	0.000271
3742.9	0.000322
3752.55	0.000102
3762.2	0.0004013
3771.84	0.0003566
3781.49	0.000204
3791.13	0.00032
3800.78	0.000203
3810.43	0.000175
3820.07	0.000132
3829.72	0.000265
3839.37	0.000189
3849.01	0.000293
3858.66	0.000314
3868.31	0.0003671
3877.95	0.000317
3887.6	0.0003396
3897.25	0.0004105
3906.89	0.0004124
3916.54	0.00047856
3926.19	0.0003339
3935.83	0.000313
3945.48	0.00049572
3955.13	0.000319
3964.77	0.0003844
3974.42	0.0003572
3984.07	0.0003812
3993.71	0.0003736
