Infrared Spectrum: CYCLOBUTYL ETHYNYL METHYL CARBINOL
Formula: C8 H12 O
CAS: 515-81-1
Class: COBLENTZ
Instrument: Not specified, most likely a grating spectrometer.
Sampling: TRANSMISSION
Path length: 0.00125 CM
Resolution: 4
Origin: ABBOTT LABORATORIES
MICROMETERS	TRANSMITTANCE
1.956	0.924
1.9925	0.915
2.02899	0.914
2.06549	0.902
2.10199	0.91
2.13849	0.914
2.17498	0.917
2.21148	0.917
2.24798	0.888
2.28448	0.891
2.32097	0.9
2.35747	0.9
2.39397	0.891
2.43046	0.895
2.46696	0.895
2.50346	0.881
2.53996	0.885
2.57645	0.897
2.61295	0.897
2.64945	0.9
2.68595	0.878
2.72244	0.794
2.75894	0.545
2.79544	0.377
2.83194	0.264
2.86843	0.181
2.90493	0.171
2.94143	0.198
2.97792	0.188
3.01442	0.128
3.05092	0.32
3.08742	0.586
3.12391	0.718
3.16041	0.789
3.19691	0.816
3.23341	0.813
3.2699	0.648
3.3064	0.231
3.3429	0.118
3.37939	0.116
3.41589	0.341
3.45239	0.361
3.48889	0.632
3.52538	0.775
3.56188	0.819
3.59838	0.835
3.63488	0.837
3.67137	0.838
3.70787	0.845
3.74437	0.857
3.78087	0.867
3.81736	0.873
3.85386	0.876
3.89036	0.878
3.92685	0.878
3.96335	0.879
3.99985	0.878
4.03635	0.871
4.07284	0.874
4.10934	0.878
4.14584	0.881
4.18234	0.881
4.21883	0.879
4.25533	0.895
4.29183	0.885
4.32832	0.883
4.36482	0.886
4.40132	0.883
4.43782	0.881
4.47431	0.89
4.51081	0.881
4.54731	0.878
4.58381	0.874
4.6203	0.873
4.6568	0.869
4.6933	0.862
4.7298	0.816
4.76629	0.854
4.80279	0.873
4.83929	0.878
4.87578	0.876
4.91228	0.878
4.94878	0.879
4.98528	0.883
5.02177	0.885
5.05827	0.886
5.09477	0.886
5.13127	0.888
5.16776	0.89
5.20426	0.893
5.24076	0.891
5.27725	0.891
5.31375	0.89
5.35025	0.891
5.38675	0.888
5.42324	0.885
5.45974	0.873
5.49624	0.879
5.53274	0.886
5.56923	0.888
5.60573	0.888
5.64223	0.891
5.67873	0.89
5.71522	0.879
5.75172	0.876
5.78822	0.866
5.82471	0.85
5.86121	0.777
5.89771	0.771
5.93421	0.816
5.9707	0.838
6.0072	0.85
6.0437	0.852
6.0802	0.818
6.11669	0.792
6.15319	0.825
6.18969	0.826
6.22618	0.843
6.26268	0.852
6.29918	0.855
6.33568	0.861
6.37217	0.859
6.40867	0.855
6.44517	0.855
6.48167	0.855
6.51816	0.845
6.55466	0.84
6.59116	0.835
6.62765	0.835
6.66415	0.823
6.70065	0.814
6.73715	0.79
6.77364	0.751
6.81014	0.677
6.84664	0.584
6.88314	0.473
6.91963	0.416
6.95613	0.404
6.99263	0.454
7.02913	0.571
7.06562	0.598
7.10212	0.574
7.13862	0.526
7.17511	0.493
7.21161	0.468
7.24811	0.403
7.28461	0.301
7.3211	0.173
7.3576	0.234
7.3941	0.284
7.4306	0.312
7.46709	0.334
7.50359	0.351
7.54009	0.348
7.57658	0.344
7.61308	0.332
7.64958	0.337
7.68608	0.346
7.72257	0.372
7.75907	0.409
7.79557	0.464
7.83207	0.497
7.86856	0.514
7.90506	0.523
7.94156	0.499
7.97806	0.408
8.01455	0.32
8.05105	0.281
8.08755	0.337
8.12404	0.468
8.16054	0.476
8.19704	0.483
8.23354	0.469
8.27003	0.451
8.30653	0.481
8.34303	0.49
8.37953	0.454
8.41602	0.389
8.45252	0.325
8.48902	0.293
8.52551	0.284
8.56201	0.3
8.59851	0.32
8.63501	0.337
8.6715	0.325
8.708	0.303
8.7445	0.283
8.781	0.248
8.81749	0.202
8.85399	0.161
8.89049	0.149
8.92699	0.154
8.96348	0.152
8.99998	0.14
9.03648	0.125
9.07297	0.123
9.10947	0.197
9.14597	0.329
9.18247	0.43
9.21896	0.481
9.25546	0.497
9.29196	0.459
9.32846	0.44
9.36495	0.389
9.40145	0.339
9.43795	0.303
9.47444	0.334
9.51094	0.42
9.54744	0.53
9.58394	0.562
9.62043	0.578
9.65693	0.504
9.69343	0.38
9.72993	0.305
9.76642	0.32
9.80292	0.341
9.83942	0.262
9.87592	0.257
9.91241	0.305
9.94891	0.423
9.98541	0.567
10.0219	0.631
10.0584	0.672
10.0949	0.703
10.1314	0.727
10.1679	0.749
10.2044	0.758
10.2409	0.761
10.2774	0.761
10.3139	0.753
10.3504	0.732
10.3869	0.698
10.4234	0.602
10.4599	0.548
10.4964	0.471
10.5329	0.514
10.5694	0.55
10.6059	0.531
10.6424	0.521
10.6789	0.548
10.7154	0.557
10.7519	0.519
10.7883	0.437
10.8248	0.301
10.8613	0.174
10.8978	0.126
10.9343	0.12
10.9708	0.13
11.0073	0.212
11.0438	0.344
11.0803	0.471
11.1168	0.528
11.1533	0.605
11.1898	0.653
11.2263	0.677
11.2628	0.689
11.2993	0.699
11.3358	0.703
11.3723	0.704
11.4088	0.71
11.4453	0.728
11.4818	0.734
11.5183	0.744
11.5548	0.756
11.5913	0.761
11.6278	0.771
11.6643	0.768
11.7008	0.765
11.7373	0.77
11.7738	0.768
11.8103	0.763
11.8468	0.763
11.8833	0.749
11.9198	0.723
11.9563	0.71
11.9928	0.68
12.0293	0.614
12.0658	0.566
12.1023	0.511
12.1387	0.48
12.1752	0.475
12.2117	0.512
12.2482	0.545
12.2847	0.612
12.3212	0.655
12.3577	0.682
12.3942	0.708
12.4307	0.732
12.4672	0.739
12.5037	0.747
12.5402	0.754
12.5767	0.754
12.6132	0.754
12.6497	0.754
12.6862	0.751
12.7227	0.746
12.7592	0.737
12.7957	0.728
12.8322	0.725
12.8687	0.713
12.9052	0.713
12.9417	0.722
12.9782	0.725
13.0147	0.723
13.0512	0.725
13.0877	0.716
13.1242	0.715
13.1607	0.715
13.1972	0.71
13.2337	0.701
13.2702	0.698
13.3067	0.687
13.3432	0.679
13.3797	0.674
13.4162	0.668
13.4527	0.662
13.4891	0.651
13.5256	0.639
13.5621	0.622
13.5986	0.607
13.6351	0.583
13.6716	0.56
13.7081	0.535
13.7446	0.518
13.7811	0.511
13.8176	0.511
13.8541	0.516
13.8906	0.506
13.9271	0.497
13.9636	0.488
14.0001	0.473
14.0366	0.451
14.0731	0.432
14.1096	0.408
14.1461	0.401
14.1826	0.409
14.2191	0.413
14.2556	0.413
14.2921	0.409
14.3286	0.401
14.3651	0.389
14.4016	0.382
14.4381	0.37
14.4746	0.36
14.5111	0.349
14.5476	0.337
14.5841	0.317
14.6206	0.305
14.6571	0.291
14.6936	0.279
14.7301	0.265
14.7666	0.25
14.8031	0.234
14.8395	0.219
14.876	0.205
14.9125	0.198
14.949	0.2
14.9855	0.181
15.022	0.145
15.0585	0.138
15.095	0.128
15.1315	0.126
15.168	0.12
15.2045	0.114
15.241	0.111
15.2775	0.108
15.314	0.106
15.3505	0.104
15.387	0.102
15.4235	0.108
15.46	0.109
15.4965	0.111
