Infrared Spectrum: FORMAMIDE,N-(2,2,2-TRICHLORO-1-HYDROXYETHYL)-
Formula: C3 H4 Cl3 N O2
CAS: 515-82-2
State: SOLID (NUJOL MULL)
Melting point: 113-115 C
Class: COBLENTZ III
Instrument: PERKIN-ELMER 21 (GRATING)
Instrument parameters: FILTER AT ABOUT 10 MICRONS
Resolution: 2
Origin: ABBOTT LABORATORIES
1/CM	TRANSMITTANCE
665	0.5855
674	0.5835
683	0.5762
692	0.5655
701	0.5185
710	0.4631
719	0.434
728	0.5204
737	0.5714
746	0.6185
755	0.6156
764	0.5647
773	0.4701
782	0.516
791	0.5218
800	0.4283
809	0.3631
818	0.3799
827	0.1942
836	0.2231
845	0.3145
854	0.6811
863	0.7554
872	0.7739
881	0.778
890	0.7781
899	0.7779
908	0.7742
917	0.77
926	0.7617
935	0.7556
944	0.7463
953	0.7441
962	0.7328
971	0.7254
980	0.7344
989	0.7352
998	0.6949
1007	0.6968
1016	0.6207
1025	0.4708
1034	0.4186
1043	0.6143
1052	0.6611
1061	0.5994
1070	0.5602
1079	0.5609
1088	0.2741
1097	0.2103
1106	0.5238
1115	0.6647
1124	0.7014
1133	0.7034
1142	0.6902
1151	0.676
1160	0.6761
1169	0.6697
1178	0.6706
1187	0.6452
1196	0.6153
1205	0.5668
1214	0.501
1223	0.3466
1232	0.2566
1241	0.4393
1250	0.5851
1259	0.5847
1268	0.5502
1277	0.5044
1286	0.4582
1295	0.4312
1304	0.4456
1313	0.4883
1322	0.4445
1331	0.4824
1340	0.5297
1349	0.5088
1358	0.4748
1367	0.385
1376	0.2611
1385	0.254
1394	0.2399
1403	0.29
1412	0.4043
1421	0.5172
1430	0.5415
1439	0.4433
1448	0.3223
1457	0.2297
1466	0.1784
1475	0.337
1484	0.5011
1493	0.5333
1502	0.5237
1511	0.456
1520	0.3729
1529	0.2205
1538	0.1127
1547	0.2318
1556	0.3588
1565	0.5236
1574	0.5441
1583	0.546
1592	0.5376
1601	0.5135
1610	0.4668
1619	0.4189
1628	0.3603
1637	0.3071
1646	0.2285
1655	0.1484
1664	0.1226
1673	0.1688
1682	0.2477
1691	0.3258
1700	0.3687
1709	0.5162
1718	0.5935
1727	0.6654
1736	0.7152
1745	0.7451
1754	0.7634
1763	0.7727
1772	0.7916
1781	0.8014
1790	0.803
1799	0.812
1808	0.8193
1817	0.822
1826	0.8251
1835	0.8276
1844	0.8289
1853	0.8279
1862	0.8268
1871	0.8266
1880	0.8266
1889	0.8271
1898	0.8279
1907	0.8245
1916	0.8206
1925	0.8183
1934	0.8162
1943	0.8144
1952	0.8202
1961	0.8198
1970	0.8186
1979	0.8175
1988	0.8163
1997	0.815
2006	0.8178
2015	0.8141
2024	0.806
2033	0.8027
2042	0.8006
2051	0.7986
2060	0.7986
2069	0.7993
2078	0.7998
2087	0.7986
2096	0.7941
2105	0.7914
2114	0.7894
2123	0.788
2132	0.7878
2141	0.7887
2150	0.7896
2159	0.7869
2168	0.7822
2177	0.7802
2186	0.7795
2195	0.7788
2204	0.778
2213	0.7763
2222	0.7736
2231	0.7706
2240	0.767
2249	0.7633
2258	0.7602
2267	0.758
2276	0.7578
2285	0.757
2294	0.7552
2303	0.7527
2312	0.7511
2321	0.7504
2330	0.7506
2339	0.751
2348	0.7517
2357	0.7524
2366	0.753
2375	0.7506
2384	0.7482
2393	0.7431
2402	0.7375
2411	0.7284
2420	0.7225
2429	0.7215
2438	0.7213
2447	0.7212
2456	0.7213
2465	0.7213
2474	0.7214
2483	0.7215
2492	0.7215
2501	0.7214
2510	0.7213
2519	0.7179
2528	0.7107
2537	0.7002
2546	0.6871
2555	0.6799
2564	0.6742
2573	0.666
2582	0.659
2591	0.6562
2600	0.6543
2609	0.652
2618	0.6492
2627	0.6408
2636	0.6321
2645	0.6243
2654	0.6176
2663	0.6137
2672	0.6115
2681	0.6102
2690	0.608
2699	0.605
2708	0.6009
2717	0.5966
2726	0.5909
2735	0.5843
2744	0.5771
2753	0.5695
2762	0.5607
2771	0.5519
2780	0.5364
2789	0.5193
2798	0.5001
2807	0.4756
2816	0.4308
2825	0.3773
2834	0.3018
2843	0.2266
2852	0.152
2861	0.0777
2870	0.0464
2879	0.046
2888	0.0449
2897	0.0379
2906	0.0352
2915	0.0358
2924	0.0372
2933	0.0413
2942	0.0479
2951	0.0602
2960	0.0757
2969	0.0873
2978	0.1296
2987	0.1725
2996	0.2153
3005	0.2577
3014	0.2931
3023	0.3016
3032	0.3031
3041	0.3065
3050	0.315
3059	0.3248
3068	0.3428
3077	0.3471
3086	0.3472
3095	0.3453
3104	0.3404
3113	0.332
3122	0.3186
3131	0.3062
3140	0.2871
3149	0.2673
3158	0.2476
3167	0.2281
3176	0.2086
3185	0.1918
3194	0.1826
3203	0.1786
3212	0.1763
3221	0.1749
3230	0.1747
3239	0.1761
3248	0.1803
3257	0.1853
3266	0.1943
3275	0.2277
3284	0.2644
3293	0.3008
3302	0.3371
3311	0.3732
3320	0.409
3329	0.4448
3338	0.4803
3347	0.5156
3356	0.5459
3365	0.5627
3374	0.5968
3383	0.6054
3392	0.6132
3401	0.621
3410	0.6389
3419	0.6536
3428	0.668
3437	0.6853
3446	0.6968
3455	0.706
3464	0.7133
3473	0.7186
3482	0.7215
3491	0.7236
3500	0.7249
3509	0.7249
3518	0.7244
3527	0.7239
3536	0.7233
3545	0.7225
3554	0.7216
3563	0.7203
3572	0.7182
3581	0.7162
3590	0.7142
3599	0.7121
3608	0.7099
3617	0.7076
3626	0.7053
3635	0.703
3644	0.7006
3653	0.6983
3662	0.6958
3671	0.6935
3680	0.691
3689	0.6887
3698	0.6862
3707	0.6838
3716	0.6813
3725	0.6789
3734	0.6764
3743	0.6739
3752	0.6714
3761	0.669
3770	0.6661
3779	0.6621
3788	0.6585
3797	0.6548
3806	0.6513
3815	0.6492
3824	0.6473
3833	0.646
3842	0.6447
3851	0.6424
3860	0.6395
3869	0.636
3878	0.6327
3887	0.6301
3896	0.629
3905	0.6282
3914	0.6274
3923	0.6269
3932	0.6265
3941	0.6264
3950	0.6264
3959	0.6263
3968	0.626
3977	0.6256
3986	0.6253
3995	0.6249
