Infrared Spectrum: 2,4,6-Trichlorobenzenesulphonyl chloride
Formula: C 6 H 2 Cl 4 O 2 S
CAS: 51527-73-2
State: gas
Origin: EPA-IR VAPOR PHASE LIBRARY
1/CM	ABSORBANCE
549.8	0.023267
559.445	0.016607
569.09	0.015917
578.734	0.052807
588.379	0.058867
598.024	0.028697
607.669	0.097097
617.313	0.102817
626.958	0.015927
636.603	0.005947
646.248	0.005067
655.893	0.003307
665.537	0.003617
675.182	0.0019587
684.827	0.0013258
694.472	0.001882
704.116	0.005077
713.761	0.003477
723.406	0.002477
733.051	0.0017247
742.695	0.002667
752.34	0.002887
761.985	0.002957
771.63	0.003387
781.275	0.005447
790.919	0.015357
800.564	0.030027
810.209	0.029697
819.854	0.022657
829.498	0.038167
839.143	0.072167
848.788	0.034827
858.433	0.026857
868.078	0.023047
877.722	0.007477
887.367	0.004907
897.012	0.003007
906.657	0.002227
916.301	0.0012426
925.946	0.0015446
935.591	0.0014188
945.236	0.000567
954.88	0.0010717
964.525	0.0013781
974.17	0.0014494
983.815	0.0014595
993.46	0.001852
1003.1	0.0013389
1012.75	0.0017711
1022.39	0.003377
1032.04	0.007857
1041.68	0.004547
1051.33	0.002127
1060.97	0.0017344
1070.62	0.0012369
1080.26	0.002817
1089.91	0.002157
1099.55	0.004347
1109.2	0.005777
1118.84	0.006427
1128.49	0.008577
1138.13	0.022127
1147.78	0.039237
1157.42	0.015607
1167.07	0.011047
1176.71	0.023387
1186.36	0.062937
1196	0.094387
1205.64	0.038437
1215.29	0.015887
1224.93	0.017247
1234.58	0.014337
1244.22	0.008067
1253.87	0.004527
1263.51	0.003937
1273.16	0.002907
1282.8	0.002077
1292.45	0.0017757
1302.09	0.002417
1311.74	0.003227
1321.38	0.005057
1331.03	0.007357
1340.67	0.010637
1350.32	0.019307
1359.96	0.033057
1369.61	0.021767
1379.25	0.017927
1388.9	0.019717
1398.54	0.026877
1408.18	0.069597
1417.83	0.134187
1427.47	0.036817
1437.12	0.008777
1446.76	0.005477
1456.41	0.004147
1466.05	0.003967
1475.7	0.004047
1485.34	0.003617
1494.99	0.003767
1504.63	0.005267
1514.28	0.009777
1523.92	0.027007
1533.57	0.071597
1543.21	0.072177
1552.86	0.077937
1562.5	0.101287
1572.15	0.048347
1581.79	0.013967
1591.44	0.007257
1601.08	0.005927
1610.73	0.004777
1620.37	0.002947
1630.01	0.002387
1639.66	0.002247
1649.3	0.002147
1658.95	0.0019506
1668.59	0.002067
1678.24	0.0019527
1687.88	0.0018175
1697.53	0.0016252
1707.17	0.0018549
1716.82	0.002517
1726.46	0.003977
1736.11	0.003907
1745.75	0.002407
1755.4	0.0015772
1765.04	0.0011328
1774.69	0.0013239
1784.33	0.0011559
1793.98	0.0010798
1803.62	0.0013214
1813.27	0.0011593
1822.91	0.0011559
1832.55	0.000718
1842.2	0.0011376
1851.84	0.0009206
1861.49	0.00101576
1871.13	0.0013603
1880.78	0.0011499
1890.42	0.0011667
1900.07	0.0013084
1909.71	0.0013538
1919.36	0.0013147
1929	0.0014889
1938.65	0.0014274
1948.29	0.0015066
1957.94	0.0012655
1967.58	0.0012028
1977.23	0.0011874
1986.87	0.0011419
1996.52	0.00101224
2006.16	0.0010677
2015.81	0.0008837
2025.45	0.000635
2035.1	0.000815
2044.74	0.000777
2054.38	0.0009022
2064.03	0.00082
2073.67	0.0009457
2083.32	0.0008915
2092.96	0.00083
2102.61	0.000784
2112.25	0.000819
2121.9	0.000775
2131.54	0.0009343
2141.19	0.00099764
2150.83	0.0011935
2160.48	0.00100055
2170.12	0.0008848
2179.77	0.000821
2189.41	0.000825
2199.06	0.000821
2208.7	0.000813
2218.35	0.0009356
2227.99	0.0009039
2237.64	0.00079
2247.28	0.000759
2256.92	0.000502
2266.57	0.00068
2276.21	0.000801
2285.86	0.00096033
2295.5	0.000818
2305.15	0.0011036
2314.79	0.000864
2324.44	0.00078
2334.08	0.000675
2343.73	0.000857
2353.37	0.00095899
2363.02	0.0009407
2372.66	0.0009428
2382.31	0.000829
2391.95	0.000748
2401.6	0.00103577
2411.24	0.000828
2420.89	0.001078
2430.53	0.0008912
2440.18	0.0008774
2449.82	0.000861
2459.47	0.00106147
2469.11	0.001018
2478.75	0.0015908
2488.4	0.0012756
2498.04	0.0011009
2507.69	0.0009537
2517.33	0.000974725
2526.98	0.000796
2536.62	0.0011404
2546.27	0.000876
2555.91	0.000864
2565.56	0.0012386
2575.2	0.0011435
2584.85	0.0013993
2594.49	0.0016788
2604.14	0.0017382
2613.78	0.0015292
2623.43	0.001254
2633.07	0.00103745
2642.72	0.0012321
2652.36	0.00098068
2662.01	0.00103913
2671.65	0.000655
2681.29	0.000639
2690.94	0.0010916
2700.58	0.000804
2710.23	0.000716
2719.87	0.000556
2729.52	0.000731
2739.16	0.000789
2748.81	0.000749
2758.45	0.000682
2768.1	0.00101253
2777.74	0.000789
2787.39	0.0009374
2797.03	0.000811
2806.68	0.000862
2816.32	0.000338
2825.97	0.000451
2835.61	0.00076
2845.26	0.000737
2854.9	0.00066
2864.55	0.0011335
2874.19	0.000415
2883.84	0.00033
2893.48	0.000269
2903.12	0.000485
2912.77	0.000681
2922.41	0.000789
2932.06	0.00105219
2941.7	0.00103067
2951.35	0.000816
2960.99	0.000885
2970.64	0.000835
2980.28	0.00072
2989.93	0.00068
2999.57	0.000714
3009.22	0.000489
3018.86	0.00085
3028.51	0.000635
3038.15	0.00066
3047.8	0.000664
3057.44	0.000851
3067.09	0.0016018
3076.73	0.002017
3086.38	0.0011552
3096.02	0.001338
3105.67	0.001563
3115.31	0.001861
3124.95	0.0013246
3134.6	0.000749
3144.24	0.0012579
3153.89	0.000358
3163.53	0.000386
3173.18	0.00034
3182.82	0.0009239
3192.47	0.000554
3202.11	0.000641
3211.76	0.000396
3221.4	0.00063
3231.05	0.00021
3240.69	0.000453
3250.34	0.000548
3259.98	0.00035
3269.63	0.000642
3279.27	0.000864
3288.92	0.000514
3298.56	0.000469
3308.21	0.000371
3317.85	0.00105687
3327.49	0.000645
3337.14	0.000189
3346.78	0.000326
3356.43	0.000862
3366.07	0.000459
3375.72	0.000705
3385.36	0.000581
3395.01	0.000704
3404.65	0.000561
3414.3	0.000824
3423.94	0.000665
3433.59	0.000689
3443.23	0.000788
3452.88	0.0009432
3462.52	0.00071
3472.17	0.00103884
3481.81	0.000715
3491.46	0.000412
3501.1	0.000464
3510.75	0.0010678
3520.39	0.000657
3530.04	0.00077
3539.68	0.0008747
3549.32	0.00100843
3558.97	0.00104052
3568.61	0.000611
3578.26	0.000363
3587.9	0.000791
3597.55	0.000535
3607.19	0.000658
3616.84	0.000382
3626.48	0.000447
3636.13	0.00099022
3645.77	0.000802
3655.42	0.000375
3665.06	0.0009354
3674.71	0.000704
3684.35	0.000554
3694	0.000614
3703.64	0.000971657
3713.29	0.001294
3722.93	0
3732.58	0.0012013
3742.22	0.0008998
3751.86	0.000194
3761.51	0.000257
3771.15	0.0010744
3780.8	0.000357
3790.44	0.0008953
3800.09	0.000607
3809.73	0.000967549
3819.38	0.000924
3829.02	0.000567
3838.67	0.000126
3848.31	0.0011533
3857.96	0.0009016
3867.6	0.0011093
3877.25	0.000813
3886.89	0.00078
3896.54	0.0008799
3906.18	0.0009031
3915.83	0.000322
3925.47	0.000483
3935.12	0.00105177
3944.76	0.000623
3954.41	0.0012403
3964.05	0.00075
3973.69	0.000663
3983.34	0.0009087
3992.98	0.000557
