Infrared Spectrum: p-Bromophenyloctane
Formula: C14 H21 Br
CAS: 51554-93-9
State: gas
Origin: EPA-IR VAPOR PHASE LIBRARY
1/CM	ABSORBANCE
549.8	0.0005269
559.445	8.2e-05
569.09	0.0004734
578.734	0.0002281
588.379	0.0007011
598.024	0.001904
607.669	0.0011112
617.313	0.0007928
626.958	0.001604
636.603	0.001494
646.248	0.0005662
655.893	0.0005061
665.537	0.0004225
675.182	0.0005516
684.827	0.0004872
694.472	0.0006718
704.116	0.0010674
713.761	0.001804
723.406	0.001644
733.051	0.001684
742.695	0.001344
752.34	0.001794
761.985	0.002254
771.63	0.003284
781.275	0.004844
790.919	0.006134
800.564	0.007434
810.209	0.007434
819.854	0.006724
829.498	0.005984
839.143	0.003874
848.788	0.002674
858.433	0.001724
868.078	0.0012405
877.722	0.0008679
887.367	0.0009125
897.012	0.0009974
906.657	0.0007998
916.301	0.0008251
925.946	0.0010134
935.591	0.0006704
945.236	0.0008308
954.88	0.0006213
964.525	0.000668
974.17	0.0006979
983.815	0.0006261
993.46	0.001239
1003.1	0.004584
1012.75	0.021224
1022.39	0.003094
1032.04	0.0010728
1041.68	0.0011519
1051.33	0.001404
1060.97	0.003014
1070.62	0.013344
1080.26	0.009404
1089.91	0.003284
1099.55	0.001744
1109.2	0.002614
1118.84	0.001764
1128.49	0.0009673
1138.13	0.0009122
1147.78	0.0008769
1157.42	0.0004534
1167.07	0.0010031
1176.71	0.0008069
1186.36	0.001664
1196	0.002394
1205.64	0.001584
1215.29	0.001494
1224.93	0.002014
1234.58	0.001128
1244.22	0.0010105
1253.87	0.0009562
1263.51	0.0009506
1273.16	0.0011422
1282.8	0.001344
1292.45	0.001524
1302.09	0.001664
1311.74	0.001804
1321.38	0.001834
1331.03	0.002254
1340.67	0.002844
1350.32	0.003264
1359.96	0.003024
1369.61	0.002754
1379.25	0.002744
1388.9	0.002974
1398.54	0.003214
1408.18	0.002984
1417.83	0.002374
1427.47	0.002464
1437.12	0.003734
1446.76	0.006264
1456.41	0.008304
1466.05	0.009054
1475.7	0.010424
1485.34	0.024534
1494.99	0.018034
1504.63	0.003794
1514.28	0.001824
1523.92	0.0012352
1533.57	0.0009945
1543.21	0.0008388
1552.86	0.0007259
1562.5	0.0007225
1572.15	0.0008692
1581.79	0.0010735
1591.44	0.001554
1601.08	0.0011792
1610.73	0.000869
1620.37	0.0009725
1630.01	0.0009352
1639.66	0.0009127
1649.3	0.0007998
1658.95	0.0006849
1668.59	0.0005663
1678.24	0.000506
1687.88	0.0004126
1697.53	0.0004704
1707.17	0.0004095
1716.82	0.0004193
1726.46	0.0003695
1736.11	0.0003722
1745.75	0.0004773
1755.4	0.0004653
1765.04	0.0008948
1774.69	0.0009539
1784.33	0.0003998
1793.98	0.000356
1803.62	0.0003879
1813.27	0.0003856
1822.91	0.0003729
1832.55	0.00033376
1842.2	0.0003939
1851.84	0.00033961
1861.49	0.0005016
1871.13	0.0006973
1880.78	0.0011282
1890.42	0.001404
1900.07	0.0009076
1909.71	0.0005845
1919.36	0.0004396
1929	0.0003833
1938.65	0.0003527
1948.29	0.0003508
1957.94	0.0003717
1967.58	0.00029572
1977.23	0.00032065
1986.87	0.000253108
1996.52	0.0004042
2006.16	0.0003589
2015.81	0.00027814
2025.45	0.0004618
2035.1	0.0003828
2044.74	0.0003853
2054.38	0.0003576
2064.03	0.0003876
2073.67	0.0003565
2083.32	0.0004073
2092.96	0.0003686
2102.61	0.0004046
2112.25	0.000358
2121.9	0.000357
2131.54	0.0004246
2141.19	0.00034346
2150.83	0.0003842
2160.48	0.0004041
2170.12	0.00034278
2179.77	0.0003814
2189.41	0.0004035
2199.06	0.0003693
2208.7	0.000313
2218.35	0.0003727
2227.99	0.0004021
2237.64	0.0003776
2247.28	0.0003448
2256.92	0.0003629
2266.57	0.0004363
2276.21	0.0004066
2285.86	0.0004887
2295.5	0.0005082
2305.15	0.0003484
2314.79	0.0004961
2324.44	0.0004831
2334.08	0.00035
2343.73	0.0003742
2353.37	0.0004062
2363.02	0.0004728
2372.66	0.0003979
2382.31	0.0004334
2391.95	0.0004075
2401.6	0.0004311
2411.24	0.0004297
2420.89	0.0004639
2430.53	0.0004384
2440.18	0.0003762
2449.82	0.0003741
2459.47	0.0004002
2469.11	0.00029793
2478.75	0.00028504
2488.4	0.0003995
2498.04	0.0004716
2507.69	0.0004086
2517.33	0.000435
2526.98	0.0005033
2536.62	0.0004513
2546.27	0.0006527
2555.91	0.000594
2565.56	0.0007776
2575.2	0.0006755
2584.85	0.0006257
2594.49	0.0006861
2604.14	0.0007681
2613.78	0.0007657
2623.43	0.0007359
2633.07	0.0008312
2642.72	0.0010047
2652.36	0.0010214
2662.01	0.001001
2671.65	0.0010428
2681.29	0.0010791
2690.94	0.001034
2700.58	0.0009691
2710.23	0.0009822
2719.87	0.0010238
2729.52	0.0009951
2739.16	0.0012223
2748.81	0.0011741
2758.45	0.0010841
2768.1	0.001364
2777.74	0.001584
2787.39	0.001844
2797.03	0.002064
2806.68	0.002494
2816.32	0.003264
2825.97	0.004134
2835.61	0.005604
2845.26	0.009444
2854.9	0.020184
2864.55	0.031524
2874.19	0.025054
2883.84	0.019674
2893.48	0.017534
2903.12	0.021554
2912.77	0.032064
2922.41	0.053904
2932.06	0.083884
2941.7	0.072424
2951.35	0.040224
2960.99	0.030574
2970.64	0.028314
2980.28	0.014834
2989.93	0.008354
2999.57	0.005684
3009.22	0.004664
3018.86	0.005184
3028.51	0.006914
3038.15	0.005414
3047.8	0.004254
3057.44	0.003074
3067.09	0.002894
3076.73	0.003394
3086.38	0.003764
3096.02	0.002814
3105.67	0.001714
3115.31	0.0011659
3124.95	0.0009414
3134.6	0.0008529
3144.24	0.0005629
3153.89	0.0006423
3163.53	0.0006257
3173.18	0.0005556
3182.82	0.0004789
3192.47	0.0004885
3202.11	0.0006576
3211.76	0.0005335
3221.4	0.0004679
3231.05	0.00033671
3240.69	0.00023712
3250.34	0.0003382
3259.98	0.0002573
3269.63	0.0004063
3279.27	0.0004265
3288.92	0.00033044
3298.56	0.0001811
3308.21	0.0004125
3317.85	0.00026404
3327.49	0.00027083
3337.14	0.0002005
3346.78	0.0001678
3356.43	0.0003821
3366.07	0.000444
3375.72	0.0003155
3385.36	0.0004335
3395.01	0.000362
3404.65	0.00026749
3414.3	0.00033538
3423.94	0.00026299
3433.59	0.00030603
3443.23	0.000155
3452.88	0.0002177
3462.52	0.00033326
3472.17	0.0004636
3481.81	0.0002302
3491.46	0.00027233
3501.1	0.00032059
3510.75	0.0002309
3520.39	0.00029563
3530.04	0.000134
3539.68	0.00030722
3549.32	0.00034163
3558.97	0.00023447
3568.61	0.0003947
3578.26	0.00026539
3587.9	0.00028008
3597.55	0.000387
3607.19	0.000253414
3616.84	0.0002018
3626.48	0.0003714
3636.13	0.0003787
3645.77	0.00033416
3655.42	0.00027365
3665.06	0.0004879
3674.71	0.00028619
3684.35	0.0004132
3694	0.0004386
3703.64	0.0003587
3713.29	0.0004822
3722.93	0.0003758
3732.58	0.00029162
3742.22	0.0003519
3751.86	0.0003726
3761.51	0.00033418
3771.15	0.0004347
3780.8	0.000136
3790.44	0.0003731
3800.09	0.000371
3809.73	0.00031924
3819.38	0.00032696
3829.02	0.0003804
3838.67	0.0003748
3848.31	0.0002135
3857.96	0.00026781
3867.6	0.0003726
3877.25	0.000475
3886.89	0.000123
3896.54	0.00025665
3906.18	0.0004736
3915.83	0.00033455
3925.47	0.000364
3935.12	0.0004747
3944.76	0.0005944
3954.41	0.0004251
3964.05	0.0005088
3973.69	0.0004494
3983.34	0.0004564
3992.98	0.00030271
