Infrared Spectrum: PHOSPHORAMIDOUS ACID, PHENYL-, DIETHYL ESTER
Formula: C10 H16 N O2 P
CAS: 5156-98-9
Class: COBLENTZ
Instrument: PERKIN-ELMER
Sampling: TRANSMISSION
Path length: 0.0024 CM
Resolution: 4
Origin: STANDARD OIL OF OHIO
MICROMETERS	TRANSMITTANCE
1.993	0.981
2.02675	0.981
2.0605	0.981
2.09425	0.977
2.128	0.972
2.16175	0.964
2.1955	0.971
2.22925	0.972
2.263	0.932
2.29675	0.928
2.3305	0.949
2.36425	0.957
2.398	0.95
2.43175	0.938
2.4655	0.918
2.49925	0.943
2.533	0.952
2.56675	0.955
2.6005	0.959
2.63425	0.962
2.668	0.966
2.70175	0.969
2.7355	0.969
2.76925	0.974
2.803	0.976
2.83675	0.962
2.8705	0.932
2.90425	0.804
2.938	0.398
2.97175	0.327
3.0055	0.49
3.03925	0.726
3.073	0.852
3.10675	0.891
3.1405	0.915
3.17425	0.881
3.208	0.728
3.24175	0.561
3.2755	0.514
3.30925	0.249
3.34301	0.154
3.37676	0.239
3.41051	0.285
3.44426	0.303
3.47801	0.617
3.51176	0.792
3.54551	0.845
3.57926	0.877
3.61301	0.881
3.64676	0.881
3.68051	0.906
3.71426	0.937
3.74801	0.938
3.78176	0.932
3.81551	0.915
3.84926	0.916
3.88301	0.935
3.91676	0.942
3.95051	0.911
3.98426	0.911
4.01801	0.921
4.05176	0.925
4.08551	0.932
4.11926	0.943
4.15301	0.943
4.18676	0.945
4.22051	0.95
4.25426	0.952
4.28801	0.954
4.32176	0.952
4.35551	0.952
4.38926	0.954
4.42301	0.955
4.45676	0.962
4.49051	0.969
4.52426	0.96
4.55801	0.95
4.59176	0.947
4.62551	0.949
4.65926	0.952
4.69301	0.943
4.72676	0.937
4.76051	0.932
4.79426	0.932
4.82801	0.94
4.86176	0.947
4.89551	0.949
4.92926	0.95
4.96301	0.952
4.99676	0.952
5.03051	0.938
5.06426	0.913
5.09801	0.889
5.13176	0.859
5.16551	0.85
5.19926	0.881
5.23301	0.925
5.26676	0.94
5.30051	0.935
5.33426	0.918
5.36801	0.893
5.40176	0.881
5.43551	0.884
5.46926	0.906
5.50301	0.906
5.53676	0.889
5.57051	0.865
5.60426	0.848
5.63801	0.848
5.67176	0.864
5.70551	0.876
5.73926	0.879
5.77301	0.874
5.80676	0.857
5.84051	0.84
5.87426	0.835
5.90801	0.837
5.94176	0.833
5.97551	0.823
6.00927	0.811
6.04302	0.791
6.07677	0.76
6.11052	0.631
6.14427	0.424
6.17802	0.171
6.21177	0.013
6.24552	0.132
6.27927	0.273
6.31302	0.495
6.34677	0.653
6.38052	0.731
6.41427	0.784
6.44802	0.809
6.48177	0.801
6.51552	0.772
6.54927	0.728
6.58302	0.548
6.61677	0.154
6.65052	0.01
6.68427	0.071
6.71802	0.122
6.75177	0.118
6.78552	0.249
6.81927	0.471
6.85302	0.466
6.88677	0.4
6.92052	0.358
6.95427	0.533
6.98802	0.653
7.02177	0.684
7.05552	0.646
7.08927	0.512
7.12302	0.348
7.15677	0.146
7.19052	0.059
7.22427	0.076
7.25802	0.088
7.29177	0.083
7.32552	0.152
7.35927	0.395
7.39302	0.565
7.42677	0.641
7.46052	0.616
7.49427	0.595
7.52802	0.556
7.56177	0.419
7.59552	0.378
7.62927	0.395
7.66302	0.215
7.69677	0.035
7.73052	0.006
7.76427	0.008
7.79802	0.032
7.83177	0.181
7.86552	0.325
7.89927	0.451
7.93302	0.55
7.96677	0.597
8.00052	0.606
8.03427	0.567
8.06802	0.465
8.10177	0.358
8.13552	0.327
8.16927	0.444
8.20302	0.585
8.23677	0.655
8.27052	0.689
8.30427	0.701
8.33802	0.709
8.37177	0.713
8.40552	0.691
8.43927	0.551
8.47302	0.358
8.50677	0.415
8.54052	0.419
8.57427	0.297
8.60802	0.229
8.64177	0.227
8.67552	0.317
8.70928	0.444
8.74303	0.524
8.77678	0.561
8.81053	0.573
8.84428	0.567
8.87803	0.548
8.91178	0.512
8.94553	0.46
8.97928	0.395
9.01303	0.283
9.04678	0.171
9.08053	0.098
9.11428	0.059
9.14803	0.074
9.18178	0.159
9.21553	0.193
9.24928	0.151
9.28303	0.117
9.31678	0.117
9.35053	0.083
9.38428	0.028
9.41803	0.006
9.45178	0.001
9.48553	0
9.51928	0
9.55303	0
9.58678	0
9.62053	0
9.65428	0
9.68803	0
9.72178	0
9.75553	0
9.78928	0
9.82303	0.001
9.85678	0.028
9.89053	0.112
9.92428	0.179
9.95803	0.247
9.99178	0.174
10.0255	0.151
10.0593	0.303
10.093	0.398
10.1268	0.427
10.1605	0.448
10.1943	0.461
10.228	0.468
10.2618	0.47
10.2955	0.471
10.3293	0.475
10.363	0.473
10.3968	0.458
10.4305	0.429
10.4643	0.38
10.498	0.324
10.5318	0.242
10.5655	0.151
10.5993	0.088
10.633	0.025
10.6668	0.01
10.7005	0.006
10.7343	0.003
10.768	0.001
10.8018	0
10.8355	0
10.8693	0
10.903	0
10.9368	0
10.9705	0
11.0043	0
11.038	0.001
11.0718	0.001
11.1055	0.003
11.1393	0.003
11.173	0.003
11.2068	0.001
11.2405	0.001
11.2743	0.001
11.308	0.001
11.3418	0
11.3755	0
11.4093	0
11.443	0
11.4768	0.008
11.5105	0.047
11.5443	0.113
11.578	0.2
11.6118	0.3
11.6455	0.387
11.6793	0.458
11.713	0.516
11.7468	0.561
11.7805	0.599
11.8143	0.612
11.848	0.624
11.8818	0.628
11.9155	0.623
11.9493	0.604
11.983	0.578
12.0168	0.533
12.0505	0.471
12.0843	0.402
12.118	0.337
12.1518	0.283
12.1855	0.247
12.2193	0.225
12.253	0.213
12.2868	0.208
12.3205	0.21
12.3543	0.217
12.388	0.224
12.4218	0.225
12.4555	0.213
12.4893	0.2
12.523	0.183
12.5568	0.181
12.5905	0.185
12.6243	0.198
12.658	0.213
12.6918	0.23
12.7255	0.247
12.7593	0.258
12.793	0.266
12.8268	0.271
12.8605	0.275
12.8943	0.271
12.928	0.264
12.9618	0.249
12.9955	0.225
13.0293	0.191
13.063	0.154
13.0968	0.122
13.1305	0.086
13.1643	0.039
13.198	0.016
13.2318	0.01
13.2655	0.006
13.2993	0.003
13.333	0.001
13.3668	0.001
13.4005	0.003
13.4343	0.008
13.468	0.01
13.5018	0.01
13.5355	0.011
13.5693	0.011
13.603	0.011
13.6368	0.011
13.6705	0.013
13.7043	0.013
13.738	0.013
13.7718	0.013
13.8055	0.016
13.8393	0.018
13.873	0.022
13.9068	0.023
13.9405	0.03
13.9743	0.04
14.008	0.056
14.0418	0.073
14.0755	0.089
14.1093	0.117
14.143	0.135
14.1768	0.152
14.2105	0.168
14.2443	0.178
14.278	0.179
14.3118	0.166
14.3455	0.135
14.3793	0.103
14.413	0.069
14.4468	0.05
14.4805	0.049
14.5143	0.081
14.548	0.164
14.5818	0.266
14.6155	0.349
14.6493	0.41
14.683	0.461
14.7168	0.5
14.7505	0.528
14.7843	0.548
14.818	0.56
14.8518	0.568
14.8855	0.577
14.9193	0.578
14.953	0.584
14.9868	0.599
15.0205	0.609
15.0543	0.616
15.088	0.623
15.1218	0.629
15.1555	0.638
15.1893	0.643
15.223	0.65
15.2568	0.653
15.2905	0.655
15.3243	0.657
15.358	0.657
