Infrared Spectrum: 3Alpha,6Alpha-Diphenylglycoluril
Formula: C16 H14 N4 O2
CAS: 5157-15-3
State: SOLID (SPLIT MULL)
Melting point: AVOVE 300 C
Class: COBLENTZ III
Instrument: BECKMAN IR-9 (GRATING)
Instrument parameters: ORDER CHANGES: 670, 1200, 2000 CM^-^1
Sampling: TRANSMISSION
Resolution: 2
Origin: DOW CHEMICAL COMPANY
1/CM	TRANSMITTANCE
3800	0.7015
3791	0.7037
3782	0.7061
3773	0.7087
3764	0.711
3755	0.7131
3746	0.7157
3737	0.7183
3728	0.7208
3719	0.7233
3710	0.7257
3701	0.7278
3692	0.7284
3683	0.729
3674	0.7292
3665	0.7292
3656	0.7298
3647	0.7311
3638	0.7322
3629	0.7336
3620	0.7351
3611	0.7365
3602	0.738
3593	0.7397
3584	0.7415
3575	0.7432
3566	0.745
3557	0.7468
3548	0.7487
3539	0.7506
3530	0.7526
3521	0.7549
3512	0.7571
3503	0.7594
3494	0.7621
3485	0.765
3476	0.7671
3467	0.769
3458	0.771
3449	0.7725
3440	0.7726
3431	0.7728
3422	0.7732
3413	0.7711
3404	0.7683
3395	0.7637
3386	0.7555
3377	0.7432
3368	0.7247
3359	0.7044
3350	0.6821
3341	0.6494
3332	0.6075
3323	0.5744
3314	0.5346
3305	0.492
3296	0.457
3287	0.4104
3278	0.293
3269	0.2433
3260	0.2134
3251	0.1939
3242	0.1908
3233	0.1943
3224	0.2014
3215	0.2114
3206	0.2227
3197	0.2334
3188	0.2454
3179	0.2547
3170	0.2633
3161	0.2742
3152	0.2859
3143	0.2988
3134	0.313
3125	0.3258
3116	0.3392
3107	0.3521
3098	0.364
3089	0.3662
3080	0.3642
3071	0.3649
3062	0.3755
3053	0.4002
3044	0.4209
3035	0.4528
3026	0.4793
3017	0.5097
3008	0.5417
2999	0.5656
2990	0.5812
2981	0.5894
2972	0.5945
2963	0.5984
2954	0.6006
2945	0.6018
2936	0.6014
2927	0.6019
2918	0.6069
2909	0.6134
2900	0.6174
2891	0.6179
2882	0.615
2873	0.6103
2864	0.6053
2855	0.6004
2846	0.5999
2837	0.6026
2828	0.6091
2819	0.6158
2810	0.6296
2801	0.6444
2792	0.6595
2783	0.6718
2774	0.6825
2765	0.6943
2756	0.7064
2747	0.7188
2738	0.7288
2729	0.7371
2720	0.7457
2711	0.7537
2702	0.7617
2693	0.7674
2684	0.7725
2675	0.7765
2666	0.7804
2657	0.7842
2648	0.788
2639	0.7918
2630	0.7954
2621	0.798
2612	0.8006
2603	0.8032
2594	0.8054
2585	0.8071
2576	0.8089
2567	0.8106
2558	0.8118
2549	0.8128
2540	0.8128
2531	0.8128
2522	0.8126
2513	0.8118
2504	0.8111
2495	0.8112
2486	0.8119
2477	0.8135
2468	0.8156
2459	0.8178
2450	0.8206
2441	0.8234
2432	0.8263
2423	0.829
2414	0.8305
2405	0.832
2396	0.833
2387	0.8331
2378	0.8293
2369	0.8221
2360	0.8187
2351	0.8188
2342	0.8203
2333	0.8233
2324	0.8262
2315	0.8292
2306	0.8328
2297	0.8371
2288	0.8416
2279	0.846
2270	0.8504
2261	0.8548
2252	0.8596
2243	0.8643
2234	0.8691
2225	0.8742
2216	0.8791
2207	0.8838
2198	0.8861
2189	0.8881
2180	0.8903
2171	0.8925
2162	0.8948
2153	0.8973
2144	0.8994
2135	0.9014
2126	0.9032
2117	0.9049
2108	0.9075
2099	0.9117
2090	0.9171
2081	0.9225
2072	0.9278
2063	0.9328
2054	0.9387
2045	0.9456
2036	0.9514
2027	0.9547
2018	0.9562
2009	0.9554
2000	0.9235
1991	0.9535
1982	0.9508
1973	0.9506
1964	0.9509
1955	0.9523
1946	0.9587
1937	0.9636
1928	0.9658
1919	0.9667
1910	0.9668
1901	0.967
1892	0.961
1883	0.9646
1874	0.9731
1865	0.9755
1856	0.9773
1847	0.9787
1838	0.9797
1829	0.9774
1820	0.9644
1811	0.967
1802	0.9725
1793	0.975
1784	0.9714
1775	0.9602
1766	0.938
1757	0.8978
1748	0.8357
1739	0.7258
1730	0.4549
1721	0.1146
1712	0.1811
1703	0.2521
1694	0.0986
1685	0.0283
1676	0.0209
1667	0.0296
1658	0.1627
1649	0.3298
1640	0.4681
1631	0.5536
1622	0.629
1613	0.6978
1604	0.7232
1595	0.6151
1586	0.706
1577	0.7304
1568	0.773
1559	0.7901
1550	0.7969
1541	0.7935
1532	0.7797
1523	0.7283
1514	0.593
1505	0.3849
1496	0.2784
1487	0.293
1478	0.4247
1469	0.5362
1460	0.6138
1451	0.2405
1442	0.5405
1433	0.6422
1424	0.6468
1415	0.6417
1406	0.6404
1397	0.6468
1388	0.6615
1379	0.6735
1370	0.6726
1361	0.6637
1352	0.6367
1343	0.6918
1334	0.7254
1325	0.7043
1316	0.6634
1307	0.7544
1298	0.7056
1289	0.7351
1280	0.7735
1271	0.7782
1262	0.6996
1253	0.7217
1244	0.6518
1235	0.512
1226	0.4647
1217	0.4799
1208	0.7431
1199	0.8358
1190	0.8415
1181	0.753
1172	0.7199
1163	0.668
1154	0.6158
1145	0.3364
1136	0.3849
1127	0.5837
1118	0.6634
1109	0.6757
1100	0.7118
1091	0.5366
1082	0.5156
1073	0.5924
1064	0.7928
1055	0.9207
1046	0.9394
1037	0.7601
1028	0.8032
1019	0.911
1010	0.9553
1001	0.8713
992	0.9875
983	0.9989
974	0.9553
965	0.9746
956	0.6749
947	0.7219
938	0.966
929	0.9697
920	0.9163
911	0.994
902	1.0043
893	0.9958
884	0.9643
875	0.8718
866	0.9791
857	0.9852
848	0.9449
839	0.9406
830	0.9221
821	0.8615
812	0.7918
803	0.645
794	0.4862
785	0.2681
776	0.1946
767	0.2228
758	0.3874
749	0.5117
740	0.5862
731	0.4388
722	0.3604
713	0.4376
704	0.5167
695	0.1492
686	0.4387
677	0.6356
668	0.6689
659	0.586
650	0.7125
641	0.7211
632	0.8019
623	0.8494
614	0.8145
605	0.8943
596	0.9164
587	0.9309
578	0.941
569	0.9496
560	0.9549
551	0.9557
542	0.9463
533	0.9339
524	0.908
515	0.8007
506	0.3107
497	0.6643
488	0.85
479	0.8974
470	0.8765
461	0.8735
452	0.8452
443	0.7948
434	0.7103
425	0.579
416	0.5885
407	0.5902
