Infrared Spectrum: 7-Chloro-3-heptyne
Formula: C 7 H 11 Cl
CAS: 51575-85-0
State: gas
Instrument: HP-GC/MS/IRD
Origin: NIST Mass Spectrometry Data Center
1/CM	ABSORBANCE
550	0.0003553
562	5.89e-05
574	0.000133
586	0.0001311
598	0.0001729
610	0.0001881
622	0.0004123
634	0.0007562
646	0.0016093
658	0.0026543
670	0.0023731
682	0.0014972
694	0.0013281
706	0.0013376
718	0.0015884
730	0.0023997
742	0.0021698
754	0.0012046
766	0.0013015
778	0.0016986
790	0.0015979
802	0.0014858
814	0.0008987
826	0.0006137
838	0.00076
850	0.0013775
862	0.0014155
874	0.0004997
886	0.0001691
898	0.0001311
910	0.0001235
922	0.0002147
934	0.0003439
946	0.0003781
958	0.0005681
970	0.0009785
982	0.0009747
994	0.0007087
1006	0.0003819
1018	0.0001976
1030	0.0002337
1042	0.0003629
1054	0.0007923
1066	0.0008873
1078	0.0005643
1090	0.0003192
1102	0.0001292
1114	5.13e-05
1126	0.0001064
1138	0.0002622
1150	0.0002242
1162	0.0002071
1174	0.0001634
1186	0.0002166
1198	0.0002432
1210	0.0003572
1222	0.000475
1234	0.0006536
1246	0.0008189
1258	0.0016549
1270	0.0032243
1282	0.0052459
1294	0.0065322
1306	0.0058634
1318	0.0081035
1330	0.0071782
1342	0.0038874
1354	0.0028215
1366	0.0015352
1378	0.0008417
1390	0.0008493
1402	0.0009823
1414	0.0013623
1426	0.0027835
1438	0.0051015
1450	0.0053181
1462	0.0033801
1474	0.0019665
1486	0.0010849
1498	0.0006726
1510	0.0004731
1522	0.0003534
1534	0.0002508
1546	0.0001843
1558	0.0001843
1570	0.0001501
1582	0.0001273
1594	0.0001045
1606	0.0001178
1618	0.0001064
1630	6.65e-05
1642	7.79e-05
1654	5.51e-05
1666	7.22e-05
1678	5.7e-05
1690	4.18e-05
1702	3.23e-05
1714	1.9e-05
1726	3.8e-06
1738	2.09e-05
1750	3.04e-05
1762	0
1774	1.14e-05
1786	2.28e-05
1798	1.9e-05
1810	2.47e-05
1822	3.04e-05
1834	3.99e-05
1846	7.6e-05
1858	6.27e-05
1870	8.93e-05
1882	7.03e-05
1894	3.99e-05
1906	3.99e-05
1918	5.32e-05
1930	6.08e-05
1942	5.7e-05
1954	1.33e-05
1966	4.18e-05
1978	3.8e-05
1990	4.94e-05
2002	5.13e-05
2014	3.8e-05
2026	7.22e-05
2038	0.0001311
2050	0.0001064
2062	0.0001197
2074	7.22e-05
2086	9.5e-05
2098	7.6e-05
2110	7.98e-05
2122	7.22e-05
2134	6.65e-05
2146	6.84e-05
2158	5.7e-05
2170	8.55e-05
2182	8.55e-05
2194	9.69e-05
2206	0.0001197
2218	0.0001121
2230	0.0001102
2242	0.0001159
2254	0.0001007
2266	8.55e-05
2278	0.0001159
2290	0.0001064
2302	9.31e-05
2314	9.88e-05
2326	7.6e-05
2338	6.84e-05
2350	6.84e-05
2362	7.41e-05
2374	6.46e-05
2386	4.56e-05
2398	6.08e-05
2410	0.0001064
2422	0.0001064
2434	9.12e-05
2446	7.41e-05
2458	4.94e-05
2470	4.75e-05
2482	7.22e-05
2494	7.22e-05
2506	8.36e-05
2518	6.84e-05
2530	3.8e-05
2542	1.52e-05
2554	4.18e-05
2566	2.85e-05
2578	7.41e-05
2590	0.0001026
2602	0.000114
2614	0.0001482
2626	0.0002071
2638	0.000228
2650	0.0001387
2662	0.0001178
2674	0.0001045
2686	0.000133
2698	0.0001539
2710	0.0001938
2722	0.0002508
2734	0.0003268
2746	0.0003667
2758	0.0003838
2770	0.000437
2782	0.0004123
2794	0.0004788
2806	0.0006346
2818	0.0008683
2830	0.0013737
2842	0.0025783
2854	0.0044099
2866	0.0054739
2878	0.0057456
2890	0.0069958
2902	0.0081206
2914	0.010754
2926	0.0135318
2938	0.0158441
2950	0.019
2962	0.016207
2974	0.0161766
2986	0.015903
2998	0.0091998
3010	0.0061294
3022	0.0030077
3034	0.0016397
3046	0.0010564
3058	0.0007961
3070	0.0006707
3082	0.0005434
3094	0.0004864
3106	0.0004541
3118	0.0004332
3130	0.000437
3142	0.0004161
3154	0.0003629
3166	0.000323
3178	0.0003268
3190	0.0002546
3202	0.00019
3214	0.0001539
3226	0.0001311
3238	0.0001292
3250	0.0001254
3262	0.0001197
3274	7.79e-05
3286	9.88e-05
3298	9.88e-05
3310	9.88e-05
3322	0.0001368
3334	0.0001197
3346	0.0001368
3358	0.000114
3370	0.0001311
3382	0.0001026
3394	8.55e-05
3406	2.85e-05
3418	6.08e-05
3430	8.74e-05
3442	0.0001425
3454	0.000152
3466	0.0001482
3478	0.0001083
3490	7.6e-05
3502	2.85e-05
3514	6.46e-05
3526	7.79e-05
3538	4.37e-05
3550	7.03e-05
3562	2.47e-05
3574	8.17e-05
3586	5.89e-05
3598	5.89e-05
3610	0.0001045
3622	5.89e-05
3634	9.12e-05
3646	8.55e-05
3658	7.03e-05
3670	9.31e-05
3682	0.0001007
3694	0.0001026
3706	8.36e-05
3718	9.69e-05
3730	6.65e-05
3742	0.0001729
3754	0.0001197
3766	0.0001349
3778	0.0001425
3790	5.51e-05
3802	0.0001482
3814	8.93e-05
3826	5.89e-05
3838	7.98e-05
