Infrared Spectrum: Methyloctadecyldichlorosilane
Formula: C 19 H 40 Cl 2 Si
CAS: 5157-75-5
State: gas
Origin: EPA-IR VAPOR PHASE LIBRARY
1/CM	ABSORBANCE
549.8	0.000832
559.445	0.0009156
569.09	0.00046529
578.734	0.0005583
588.379	0.0004853
598.024	0.000603
607.669	0.00040304
617.313	0.0007696
626.958	0.00038548
636.603	0.00038643
646.248	0.0005481
655.893	0.00041532
665.537	0.000256
675.182	0.0005547
684.827	0.0006503
694.472	0.000852
704.116	0.0008146
713.761	0.00086
723.406	0.0008639
733.051	0.0007039
742.695	0.0006877
752.34	0.0007548
761.985	0.0006206
771.63	0.0004989
781.275	0.0006183
790.919	0.00044991
800.564	0.0006912
810.209	0.0006711
819.854	0.0005169
829.498	0.0006213
839.143	0.0006291
848.788	0.0006322
858.433	0.0006025
868.078	0.0006366
877.722	0.0007606
887.367	0.0008256
897.012	0.00046227
906.657	0.0007145
916.301	0.0005422
925.946	0.0006718
935.591	0.0004944
945.236	0.0004891
954.88	0.0006037
964.525	0.0009271
974.17	0.0007174
983.815	0.0006363
993.46	0.0007207
1003.1	0.0003102
1012.75	0.0005074
1022.39	0.0006359
1032.04	0.0006265
1041.68	0.0007116
1051.33	0.0005843
1060.97	0.00044949
1070.62	0.0004839
1080.26	0.0006362
1089.91	0.0003363
1099.55	0.0007605
1109.2	0.0005199
1118.84	0.0004847
1128.49	0.000159
1138.13	0.0005255
1147.78	0.00038479
1157.42	0.0006712
1167.07	0.0007514
1176.71	0.0008462
1186.36	0.0007384
1196	0.0007635
1205.64	0.0006295
1215.29	0.0009598
1224.93	0.0009044
1234.58	0.000779
1244.22	0.0009959
1253.87	0.0007745
1263.51	0.0007995
1273.16	0.0006897
1282.8	0.0005968
1292.45	0.0006814
1302.09	0.0007523
1311.74	0.0007869
1321.38	0.0007763
1331.03	0.0008037
1340.67	0.0009839
1350.32	0.001092
1359.96	0.0010306
1369.61	0.000982
1379.25	0.000926
1388.9	0.0009182
1398.54	0.0007833
1408.18	0.0008014
1417.83	0.0007762
1427.47	0.0008185
1437.12	0.001002
1446.76	0.001517
1456.41	0.001967
1466.05	0.001997
1475.7	0.00132
1485.34	0.0008572
1494.99	0.0006816
1504.63	0.0005263
1514.28	0.0005262
1523.92	0.0005136
1533.57	0.0004914
1543.21	0.00045742
1552.86	0.0005432
1562.5	0.0005169
1572.15	0.0004787
1581.79	0.00039615
1591.44	0.0004937
1601.08	0.0003558
1610.73	0.00043627
1620.37	0.0004143
1630.01	0.00038984
1639.66	0.00045669
1649.3	0.0004849
1658.95	0.0005183
1668.59	0.00044987
1678.24	0.0004839
1687.88	0.00044819
1697.53	0.0004941
1707.17	0.0005118
1716.82	0.0005375
1726.46	0.00045011
1736.11	0.00045432
1745.75	0.00046515
1755.4	0.0004601
1765.04	0.00041528
1774.69	0.000492
1784.33	0.0004811
1793.98	0.00041674
1803.62	0.00042512
1813.27	0.00043683
1822.91	0.00046404
1832.55	0.00043915
1842.2	0.0005018
1851.84	0.00039388
1861.49	0.00044004
1871.13	0.00046455
1880.78	0.00041351
1890.42	0.00038028
1900.07	0.00046653
1909.71	0.00044914
1919.36	0.00042378
1929	0.00039947
1938.65	0.00040853
1948.29	0.00039775
1957.94	0.0003529
1967.58	0.000373744
1977.23	0.0004945
1986.87	0.00045354
1996.52	0.000386
2006.16	0.00046426
2015.81	0.00046163
2025.45	0.00041987
2035.1	0.00040754
2044.74	0.000371488
2054.38	0.00041834
2064.03	0.0004238
2073.67	0.00033
2083.32	0.00040881
2092.96	0.00043027
2102.61	0.0004695
2112.25	0.00041973
2121.9	0.0003183
2131.54	0.00041206
2141.19	0.0004563
2150.83	0.000366589
2160.48	0.00044305
2170.12	0.00040646
2179.77	0.00039248
2189.41	0.0003248
2199.06	0.00045686
2208.7	0.000335
2218.35	0.0003487
2227.99	0.00039106
2237.64	0.0003124
2247.28	0.000369588
2256.92	0.00039901
2266.57	0.00041849
2276.21	0.00039158
2285.86	0.000418
2295.5	0.000324
2305.15	0.00041883
2314.79	0.0003555
2324.44	0.00046041
2334.08	0.00040518
2343.73	0.00036221
2353.37	0.0004445
2363.02	0.00046631
2372.66	0.00044353
2382.31	0.0003357
2391.95	0.00040921
2401.6	0.000367153
2411.24	0.00039423
2420.89	0.0003948
2430.53	0.00036563
2440.18	0.00040764
2449.82	0.0003398
2459.47	0.0004843
2469.11	0.00044523
2478.75	0.00045682
2488.4	0.000317
2498.04	0.00040514
2507.69	0.00042061
2517.33	0.00038603
2526.98	0.00044571
2536.62	0.0003341
2546.27	0.00038464
2555.91	0.00045152
2565.56	0.0004718
2575.2	0.00042621
2584.85	0.0005319
2594.49	0.0004697
2604.14	0.00043372
2613.78	0.0005292
2623.43	0.0005587
2633.07	0.00046311
2642.72	0.0005536
2652.36	0.0004913
2662.01	0.0005028
2671.65	0.0004938
2681.29	0.000581
2690.94	0.0006237
2700.58	0.0005407
2710.23	0.00040938
2719.87	0.0006095
2729.52	0.000611
2739.16	0.0006769
2748.81	0.0006253
2758.45	0.0007028
2768.1	0.0006601
2777.74	0.0007704
2787.39	0.0007496
2797.03	0.0008669
2806.68	0.001001
2816.32	0.0012173
2825.97	0.001437
2835.61	0.002037
2845.26	0.003257
2854.9	0.006867
2864.55	0.009567
2874.19	0.006877
2883.84	0.005497
2893.48	0.005337
2903.12	0.006947
2912.77	0.010267
2922.41	0.017677
2932.06	0.026007
2941.7	0.018737
2951.35	0.010087
2960.99	0.007607
2970.64	0.007007
2980.28	0.003837
2989.93	0.002477
2999.57	0.001957
3009.22	0.001467
3018.86	0.0011905
3028.51	0.0011388
3038.15	0.0008692
3047.8	0.0007037
3057.44	0.0007179
3067.09	0.0005559
3076.73	0.0006054
3086.38	0.0004899
3096.02	0.000576
3105.67	0.0004877
3115.31	0.0004741
3124.95	0.00037731
3134.6	0.00039345
3144.24	0.0003448
3153.89	0.0003594
3163.53	0.0002976
3173.18	0.0002888
3182.82	0.00040125
3192.47	0.00041061
3202.11	0.000212
3211.76	0.0004883
3221.4	0.00038699
3231.05	0.0004742
3240.69	0.00037053
3250.34	0.0003015
3259.98	0.0004685
3269.63	0.0003076
3279.27	0.000187
3288.92	0.00043787
3298.56	0.00039946
3308.21	0.00042214
3317.85	0.000207
3327.49	0.0004772
3337.14	0.00036871
3346.78	0.000201
3356.43	0.0003497
3366.07	0.0004712
3375.72	0.00040599
3385.36	0.000253
3395.01	4.8e-05
3404.65	0.000207
3414.3	0.0003342
3423.94	0.00045631
3433.59	0.000262
3443.23	0.000252
3452.88	0.00038463
3462.52	0.000311
3472.17	0.000205
3481.81	0.00042828
3491.46	0.00042368
3501.1	0.00044089
3510.75	0.0002788
3520.39	0.000236
3530.04	0.000181
3539.68	0.0003102
3549.32	0.0002967
3558.97	0.0004626
3568.61	0.0003207
3578.26	0.000222
3587.9	0.00029
3597.55	0.000131
3607.19	0.000185
3616.84	0.0003209
3626.48	0.0002996
3636.13	0.000101
3645.77	0.0002847
3655.42	0
3665.06	0.0003532
3674.71	0.0004852
3684.35	0.000184
3694	0.00046464
3703.64	0.000224
3713.29	0.000196
3722.93	0.0003281
3732.58	0.0004837
3742.22	0.0003132
3751.86	0.0005128
3761.51	0.000287
3771.15	0.0006203
3780.8	0.0004514
3790.44	0.0002821
3800.09	0.0003191
3809.73	0.000555
3819.38	0.000575
3829.02	0.000128
3838.67	0.00019
3848.31	0.0004683
3857.96	0.000163
3867.6	0.000232
3877.25	0.0003286
3886.89	8.9e-05
3896.54	0.00040293
3906.18	0.00042266
3915.83	0.0003008
3925.47	0.0004706
3935.12	0.00038956
3944.76	0.0003311
3954.41	0.000518
3964.05	0.0004918
3973.69	0.00035774
3983.34	0.00038796
3992.98	0.0005586
