Infrared Spectrum: 1-(2-Chlorophenyl)imidazole
Formula: C 9 H 7 Cl N 2
CAS: 51581-50-1
State: gas
Origin: EPA-IR VAPOR PHASE LIBRARY
1/CM	ABSORBANCE
549.8	0.001718
559.445	0.001348
569.09	0.000594
578.734	0.0004913
588.379	0.0004813
598.024	0.0003714
607.669	0.0008501
617.313	0.002138
626.958	0.003228
636.603	0.003238
646.248	0.009798
655.893	0.015628
665.537	0.008718
675.182	0.002328
684.827	0.002368
694.472	0.002558
704.116	0.004038
713.761	0.012078
723.406	0.022088
733.051	0.018998
742.695	0.019408
752.34	0.033278
761.985	0.021898
771.63	0.006508
781.275	0.002588
790.919	0.002938
800.564	0.007178
810.209	0.011268
819.854	0.007458
829.498	0.002358
839.143	0.002288
848.788	0.002858
858.433	0.002108
868.078	0.001408
877.722	0.001508
887.367	0.004038
897.012	0.007318
906.657	0.003208
916.301	0.0011388
925.946	0.0009541
935.591	0.0011352
945.236	0.001888
954.88	0.004058
964.525	0.007758
974.17	0.003668
983.815	0.0012333
993.46	0.0006823
1003.1	0.0010879
1012.75	0.001638
1022.39	0.003298
1032.04	0.008598
1041.68	0.021988
1051.33	0.036168
1060.97	0.030368
1070.62	0.019648
1080.26	0.006528
1089.91	0.003738
1099.55	0.007698
1109.2	0.008498
1118.84	0.005788
1128.49	0.005728
1138.13	0.003748
1147.78	0.001788
1157.42	0.001318
1167.07	0.001448
1176.71	0.001518
1186.36	0.001448
1196	0.001458
1205.64	0.001438
1215.29	0.002068
1224.93	0.004078
1234.58	0.012998
1244.22	0.015578
1253.87	0.005958
1263.51	0.003368
1273.16	0.003638
1282.8	0.004778
1292.45	0.010808
1302.09	0.022408
1311.74	0.016928
1321.38	0.003528
1331.03	0.001518
1340.67	0.0011502
1350.32	0.001318
1359.96	0.002338
1369.61	0.003388
1379.25	0.002268
1388.9	0.001288
1398.54	0.001508
1408.18	0.001908
1417.83	0.002748
1427.47	0.004868
1437.12	0.008538
1446.76	0.010438
1456.41	0.009578
1466.05	0.010378
1475.7	0.014578
1485.34	0.040898
1494.99	0.101398
1504.63	0.085828
1514.28	0.019618
1523.92	0.008368
1533.57	0.006558
1543.21	0.004398
1552.86	0.002698
1562.5	0.004458
1572.15	0.008848
1581.79	0.010118
1591.44	0.009448
1601.08	0.007008
1610.73	0.004948
1620.37	0.004388
1630.01	0.002548
1639.66	0.001358
1649.3	0.001408
1658.95	0.002248
1668.59	0.001948
1678.24	0.001338
1687.88	0.001998
1697.53	0.003208
1707.17	0.002288
1716.82	0.0011411
1726.46	0.0010208
1736.11	0.0009106
1745.75	0.0006651
1755.4	0.0005101
1765.04	0.0005362
1774.69	0.0005439
1784.33	0.0007897
1793.98	0.001428
1803.62	0.001368
1813.27	0.0008753
1822.91	0.0007738
1832.55	0.0008082
1842.2	0.0004825
1851.84	0.0002445
1861.49	0.00031419
1871.13	0.0004424
1880.78	0.000622
1890.42	0.0006232
1900.07	0.0007333
1909.71	0.001428
1919.36	0.001308
1929	0.0008162
1938.65	0.0010553
1948.29	0.0011487
1957.94	0.0007373
1967.58	0.0003697
1977.23	0.0002356
1986.87	0.00032608
1996.52	0.00029809
2006.16	0.00028372
2015.81	0.00030998
2025.45	0.00032907
2035.1	0.00031652
2044.74	0.0002385
2054.38	0.000270706
2064.03	0.00030872
2073.67	0.000277642
2083.32	0.000270299
2092.96	0.00032261
2102.61	0.00033649
2112.25	0.00028423
2121.9	0.00030472
2131.54	0.0003887
2141.19	0.000455
2150.83	0.0004891
2160.48	0.000478
2170.12	0.0003911
2179.77	0.0004201
2189.41	0.00023
2199.06	0.0003844
2208.7	0.0004122
2218.35	0.00035819
2227.99	0.0004266
2237.64	0.00030871
2247.28	0.00030267
2256.92	0.0003381
2266.57	0.00034592
2276.21	0.0003917
2285.86	0.0005314
2295.5	0.0005174
2305.15	0.0004231
2314.79	0.0004937
2324.44	0.0006811
2334.08	0.0004941
2343.73	0.0005108
2353.37	0.0004001
2363.02	0.000395
2372.66	0.0004256
2382.31	0.0002373
2391.95	0.000374
2401.6	0.0004579
2411.24	0.0005021
2420.89	0.000555
2430.53	0.000487
2440.18	0.0003918
2449.82	0.00035215
2459.47	0.0004498
2469.11	0.0005256
2478.75	0.0005467
2488.4	0.0005504
2498.04	0.0005873
2507.69	0.0006386
2517.33	0.0006557
2526.98	0.0008736
2536.62	0.0008857
2546.27	0.0009221
2555.91	0.0009313
2565.56	0.0008761
2575.2	0.0009374
2584.85	0.0007483
2594.49	0.0008154
2604.14	0.0006868
2613.78	0.0006214
2623.43	0.0004961
2633.07	0.0002925
2642.72	0.0004292
2652.36	0.00036474
2662.01	0.00036175
2671.65	0.0003715
2681.29	0.0004008
2690.94	0.00033488
2700.58	0.0003987
2710.23	0.0005413
2719.87	0.0005959
2729.52	0.0007794
2739.16	0.0007488
2748.81	0.0005357
2758.45	0.000517
2768.1	0.0005543
2777.74	0.0005566
2787.39	0.0006354
2797.03	0.0006851
2806.68	0.0006341
2816.32	0.0004471
2825.97	0.00029516
2835.61	0.00048
2845.26	0.000396
2854.9	0.00027974
2864.55	0.0002132
2874.19	0.0001732
2883.84	0.000274795
2893.48	0.00036392
2903.12	0.00031586
2912.77	0.0002532
2922.41	0.0004987
2932.06	0.0004945
2941.7	0.0003866
2951.35	0.000401
2960.99	0.0004316
2970.64	0.0003982
2980.28	0.0005587
2989.93	0.0005543
2999.57	0.0005096
3009.22	0.0003893
3018.86	0.0007435
3028.51	0.0010331
3038.15	0.001448
3047.8	0.001638
3057.44	0.002278
3067.09	0.004468
3076.73	0.007118
3086.38	0.005568
3096.02	0.002578
3105.67	0.001528
3115.31	0.002098
3124.95	0.002988
3134.6	0.001948
3144.24	0.001254
3153.89	0.001428
3163.53	0.0009821
3173.18	0.0005825
3182.82	0.0004232
3192.47	0.00031799
3202.11	0.0001875
3211.76	0.00026396
3221.4	0.00036418
3231.05	0.0001992
3240.69	0.00036727
3250.34	0.000145
3259.98	0.00028029
3269.63	0.0001863
3279.27	0.000107
3288.92	5.7e-05
3298.56	0.000148
3308.21	7.7e-05
3317.85	0.0001942
3327.49	0.00036744
3337.14	0.000256
3346.78	0.0002359
3356.43	0.000144
3366.07	0.0003851
3375.72	0.000275845
3385.36	0.00034418
3395.01	0.0004595
3404.65	0.0002407
3414.3	0.0002116
3423.94	0.0004082
3433.59	0.000121
3443.23	0.00030171
3452.88	0.0001959
3462.52	0.00030697
3472.17	3.5e-05
3481.81	0.0002147
3491.46	0.0001
3501.1	0.0003819
3510.75	0.0002387
3520.39	0.0003768
3530.04	0.00033584
3539.68	0.00026654
3549.32	0.0002414
3558.97	0.000272786
3568.61	0.00032319
3578.26	0.00030462
3587.9	0.00026136
3597.55	0.00028804
3607.19	0.00034821
3616.84	0.00026086
3626.48	0.00029599
3636.13	0.000114
3645.77	0.0001811
3655.42	0.00026183
3665.06	0.000164
3674.71	0.0004658
3684.35	0.0005327
3694	0.00029618
3703.64	0.0002455
3713.29	0.000386
3722.93	0.00028954
3732.58	0.000529
3742.22	0.00026045
3751.86	0.000375
3761.51	0.0004364
3771.15	0.0004565
3780.8	0.0003733
3790.44	0.0003796
3800.09	0.0004078
3809.73	0.000270556
3819.38	0.0004212
3829.02	0.0003462
3838.67	0.00028993
3848.31	0.00031122
3857.96	0.00031672
3867.6	0.00030769
3877.25	0.00030374
3886.89	0.000153
3896.54	0.0002371
3906.18	0.0003824
3915.83	0.00029429
3925.47	4.3e-05
3935.12	0.0005031
3944.76	0.000145
3954.41	0.000272408
3964.05	0.00025818
3973.69	0.0002424
3983.34	0.000421
3992.98	0.000154
