Infrared Spectrum: 1-(2-Chlorophenyl)imidazoline-2-thione
Formula: C 9 H 7 Cl N 2 S
CAS: 51581-47-6
State: gas
Origin: EPA-IR VAPOR PHASE LIBRARY
1/CM	ABSORBANCE
549.8	0.001631
559.445	0.0010626
569.09	0.001321
578.734	0.003291
588.379	0.002751
598.024	0.0011911
607.669	0.0011815
617.313	0.0007474
626.958	0.0006481
636.603	0.0009806
646.248	0.001961
655.893	0.006191
665.537	0.006661
675.182	0.003031
684.827	0.003731
694.472	0.007271
704.116	0.003921
713.761	0.002891
723.406	0.004201
733.051	0.004061
742.695	0.004741
752.34	0.008461
761.985	0.003941
771.63	0.0009894
781.275	0.0007858
790.919	0.0005699
800.564	0.0004013
810.209	0.0004841
819.854	0.0005976
829.498	0.0005252
839.143	0.0008105
848.788	0.0009058
858.433	0.0007803
868.078	0.0005881
877.722	0.0005942
887.367	0.0006876
897.012	0.002041
906.657	0.003271
916.301	0.0010594
925.946	0.0005878
935.591	0.0005041
945.236	0.0007742
954.88	0.0011249
964.525	0.002891
974.17	0.002671
983.815	0.0009717
993.46	0.0006811
1003.1	0.0009682
1012.75	0.0010078
1022.39	0.001551
1032.04	0.003111
1041.68	0.005851
1051.33	0.007171
1060.97	0.004741
1070.62	0.005961
1080.26	0.004051
1089.91	0.001401
1099.55	0.0010451
1109.2	0.001651
1118.84	0.001841
1128.49	0.002251
1138.13	0.003361
1147.78	0.004461
1157.42	0.002541
1167.07	0.0009244
1176.71	0.0009769
1186.36	0.001531
1196	0.002011
1205.64	0.003441
1215.29	0.006911
1224.93	0.005981
1234.58	0.006261
1244.22	0.008711
1253.87	0.008081
1263.51	0.007631
1273.16	0.004901
1282.8	0.002831
1292.45	0.002971
1302.09	0.006691
1311.74	0.010231
1321.38	0.004751
1331.03	0.001481
1340.67	0.001231
1350.32	0.001371
1359.96	0.001351
1369.61	0.001361
1379.25	0.001811
1388.9	0.003611
1398.54	0.007481
1408.18	0.007781
1417.83	0.006261
1427.47	0.013961
1437.12	0.030131
1446.76	0.034881
1456.41	0.023771
1466.05	0.011771
1475.7	0.009571
1485.34	0.017981
1494.99	0.017501
1504.63	0.009131
1514.28	0.003271
1523.92	0.001741
1533.57	0.001511
1543.21	0.001351
1552.86	0.001281
1562.5	0.001451
1572.15	0.002211
1581.79	0.002351
1591.44	0.002151
1601.08	0.001601
1610.73	0.001221
1620.37	0.0008986
1630.01	0.00069
1639.66	0.0004434
1649.3	0.00024944
1658.95	0.00028475
1668.59	0.00021752
1678.24	0.0003338
1687.88	0.0003772
1697.53	0.0002775
1707.17	0.00028961
1716.82	0.00026368
1726.46	0.000365
1736.11	0.000203013
1745.75	0.0002769
1755.4	0.00021666
1765.04	0.0003045
1774.69	0.0003439
1784.33	0.0004854
1793.98	0.000547
1803.62	0.0004035
1813.27	0.0003738
1822.91	0.0004475
1832.55	0.0003519
1842.2	0.00025121
1851.84	0.00028626
1861.49	0.00029671
1871.13	0.0003311
1880.78	0.000407
1890.42	0.0003453
1900.07	0.0003877
1909.71	0.0005379
1919.36	0.0004599
1929	0.0003283
1938.65	0.0004563
1948.29	0.0005608
1957.94	0.0003818
1967.58	0.0003271
1977.23	0.00026906
1986.87	0.0002914
1996.52	0.00026134
2006.16	0.00024636
2015.81	0.0002941
2025.45	0.00025872
2035.1	0.00025953
2044.74	0.00027508
2054.38	0.000208536
2064.03	0.00021301
2073.67	0.000209301
2083.32	0.00022649
2092.96	0.000206192
2102.61	0.0003054
2112.25	0.000322
2121.9	0.00029065
2131.54	0.00025539
2141.19	0.00030079
2150.83	0.0003234
2160.48	0.0003322
2170.12	0.00029059
2179.77	0.0004022
2189.41	0.0003088
2199.06	0.00028262
2208.7	0.00022724
2218.35	0.0002652
2227.99	0.00023676
2237.64	0.00022583
2247.28	0.00025903
2256.92	0.0002806
2266.57	0.00023759
2276.21	0.0003509
2285.86	0.00028698
2295.5	0.0003695
2305.15	0.00028363
2314.79	0.0003703
2324.44	0.000282
2334.08	0.000311
2343.73	0.00022385
2353.37	0.00029858
2363.02	0.0003248
2372.66	0.00026855
2382.31	0.0002725
2391.95	0.0003534
2401.6	0.00029844
2411.24	0.0003246
2420.89	0.00028071
2430.53	0.00029586
2440.18	0.00025409
2449.82	0.0003183
2459.47	0.00028995
2469.11	0.00030084
2478.75	0.0003289
2488.4	0.0004101
2498.04	0.0003837
2507.69	0.0003884
2517.33	0.0004427
2526.98	0.0003658
2536.62	0.0003072
2546.27	0.00021709
2555.91	0.00028212
2565.56	0.0003438
2575.2	0.000315
2584.85	0.00026916
2594.49	0.00028282
2604.14	0.00028575
2613.78	0.0003234
2623.43	0.0003013
2633.07	0.00025734
2642.72	0.00026808
2652.36	0.0003828
2662.01	0.0003162
2671.65	0.0003054
2681.29	0.0003028
2690.94	0.0001486
2700.58	0.00027072
2710.23	0.0003421
2719.87	0.00025694
2729.52	0.00027727
2739.16	0.00023082
2748.81	0.0001134
2758.45	0.00021766
2768.1	0.0001872
2777.74	0.00023832
2787.39	0.000173
2797.03	0.0001326
2806.68	0.00021851
2816.32	0.00024644
2825.97	0.000200151
2835.61	0.00028093
2845.26	0.00029575
2854.9	0.00022295
2864.55	0.00025266
2874.19	0.00014
2883.84	0.0001357
2893.48	0.0001375
2903.12	4.6e-05
2912.77	0.000101
2922.41	0.0001268
2932.06	0.0001412
2941.7	0.000153
2951.35	0.000204701
2960.99	0.00021591
2970.64	0.00026486
2980.28	0.0002583
2989.93	0.00026992
2999.57	0.00025729
3009.22	0.00026029
3018.86	0.00028704
3028.51	0.00023944
3038.15	0.0003984
3047.8	0.0005719
3057.44	0.0009087
3067.09	0.001581
3076.73	0.002211
3086.38	0.001541
3096.02	0.0008342
3105.67	0.0004264
3115.31	0.000292
3124.95	0.0001714
3134.6	0.00028908
3144.24	0.0006558
3153.89	0.0007884
3163.53	0.0004037
3173.18	0.0003417
3182.82	0.000206968
3192.47	0.00020446
3202.11	0.0001611
3211.76	0.0001249
3221.4	0.00021709
3231.05	0.000116
3240.69	0.00026337
3250.34	0.00022698
3259.98	0.0001584
3269.63	0.0001553
3279.27	0.0001698
3288.92	0.00021358
3298.56	0.0002406
3308.21	0.00022181
3317.85	0.0001443
3327.49	0.0001799
3337.14	0.0001587
3346.78	0.0001875
3356.43	0.0001084
3366.07	9.1e-05
3375.72	0.00023066
3385.36	0.0001397
3395.01	0.0001139
3404.65	0.00026279
3414.3	0.0001016
3423.94	0.00029803
3433.59	0.0003495
3443.23	0.0004273
3452.88	0.0005233
3462.52	0.0006036
3472.17	0.0009451
3481.81	0.001971
3491.46	0.004821
3501.1	0.011521
3510.75	0.011671
3520.39	0.002221
3530.04	0.0006355
3539.68	0.0004989
3549.32	0.0003426
3558.97	0.0003115
3568.61	0.00029904
3578.26	0.0003083
3587.9	0.0001845
3597.55	0.00028356
3607.19	0.000143
3616.84	0.00028384
3626.48	0.0001014
3636.13	0.0001163
3645.77	0.00022227
3655.42	0.0003257
3665.06	0.0003056
3674.71	0.000203065
3684.35	0.00026889
3694	0.0003607
3703.64	0.00029314
3713.29	0.0003259
3722.93	0.0002844
3732.58	9.6e-05
3742.22	0.00019298
3751.86	0.000263
3761.51	0.0002716
3771.15	0.000206216
3780.8	0.00018
3790.44	0.0003165
3800.09	0.0001896
3809.73	0.00023596
3819.38	0.000207102
3829.02	0.0001246
3838.67	0.0002381
3848.31	0.0001896
3857.96	0.00023821
3867.6	0.0001577
3877.25	0.00028467
3886.89	0.0003711
3896.54	0.0002673
3906.18	0.00023618
3915.83	0.0001905
3925.47	0.00028538
3935.12	0.00025547
3944.76	0.0002473
3954.41	0.0003875
3964.05	0.00024381
3973.69	0.0003173
3983.34	0.0003856
3992.98	0.000335
