Infrared Spectrum: 2,5-Dichloro-3,4-dinitrothiophene
Formula: C 4 Cl 2 N 2 O 4 S
CAS: 51584-21-5
State: gas
Origin: EPA-IR VAPOR PHASE LIBRARY
1/CM	ABSORBANCE
549.8	0.001757
559.445	0.001757
569.09	0.002637
578.734	0.002767
588.379	0.002947
598.024	0.003797
607.669	0.002507
617.313	0.002057
626.958	0.003057
636.603	0.004897
646.248	0.006127
655.893	0.004857
665.537	0.004547
675.182	0.006127
684.827	0.005607
694.472	0.003307
704.116	0.003507
713.761	0.003927
723.406	0.006147
733.051	0.015937
742.695	0.057847
752.34	0.078487
761.985	0.046597
771.63	0.012507
781.275	0.005177
790.919	0.003107
800.564	0.002977
810.209	0.004537
819.854	0.005027
829.498	0.003447
839.143	0.002617
848.788	0.002477
858.433	0.002507
868.078	0.002397
877.722	0.003127
887.367	0.006317
897.012	0.019957
906.657	0.020757
916.301	0.004167
925.946	0.003157
935.591	0.005977
945.236	0.012517
954.88	0.009097
964.525	0.002767
974.17	0.002277
983.815	0.001937
993.46	0.0011818
1003.1	0.001787
1012.75	0.0013655
1022.39	0.0015144
1032.04	0.0015856
1041.68	0.002357
1051.33	0.002957
1060.97	0.003407
1070.62	0.005137
1080.26	0.006147
1089.91	0.010497
1099.55	0.031477
1109.2	0.051287
1118.84	0.020237
1128.49	0.004367
1138.13	0.002157
1147.78	0.001977
1157.42	0.0016083
1167.07	0.002147
1176.71	0.003107
1186.36	0.002567
1196	0.002987
1205.64	0.002677
1215.29	0.002457
1224.93	0.002867
1234.58	0.004157
1244.22	0.004507
1253.87	0.006757
1263.51	0.007407
1273.16	0.007977
1282.8	0.010707
1292.45	0.015847
1302.09	0.026307
1311.74	0.064287
1321.38	0.103877
1331.03	0.070687
1340.67	0.056057
1350.32	0.054987
1359.96	0.037957
1369.61	0.046447
1379.25	0.073117
1388.9	0.072357
1398.54	0.032417
1408.18	0.016857
1417.83	0.015567
1427.47	0.011977
1437.12	0.011007
1446.76	0.014887
1456.41	0.026297
1466.05	0.035477
1475.7	0.024097
1485.34	0.014527
1494.99	0.014317
1504.63	0.017407
1514.28	0.025947
1523.92	0.046217
1533.57	0.064607
1543.21	0.079117
1552.86	0.124177
1562.5	0.238217
1572.15	0.330027
1581.79	0.187147
1591.44	0.091977
1601.08	0.044237
1610.73	0.018527
1620.37	0.010897
1630.01	0.008767
1639.66	0.006587
1649.3	0.005537
1658.95	0.004747
1668.59	0.003667
1678.24	0.002867
1687.88	0.002697
1697.53	0.002077
1707.17	0.002017
1716.82	0.002117
1726.46	0.002497
1736.11	0.002437
1745.75	0.001937
1755.4	0.0016838
1765.04	0.0014836
1774.69	0.0016418
1784.33	0.0012648
1793.98	0.0012807
1803.62	0.0011923
1813.27	0.0013394
1822.91	0.0011711
1832.55	0.0013494
1842.2	0.0013907
1851.84	0.0013365
1861.49	0.0011191
1871.13	0.0009151
1880.78	0.001047
1890.42	0.0011447
1900.07	0.0010984
1909.71	0.0009952
1919.36	0.0009353
1929	0.0011217
1938.65	0.0010575
1948.29	0.001035
1957.94	0.0012544
1967.58	0.000931
1977.23	0.0008803
1986.87	0.0011109
1996.52	0.0010565
2006.16	0.0008706
2015.81	0.0008912
2025.45	0.0009983
2035.1	0.0007281
2044.74	0.00084551
2054.38	0.00083789
2064.03	0.0008647
2073.67	0.00080851
2083.32	0.0007836
2092.96	0.0009381
2102.61	0.00083179
2112.25	0.0010673
2121.9	0.0011676
2131.54	0.0013539
2141.19	0.001119
2150.83	0.0009654
2160.48	0.00081073
2170.12	0.00081971
2179.77	0.0009636
2189.41	0.0010324
2199.06	0.0010994
2208.7	0.0009364
2218.35	0.0009061
2227.99	0.0008971
2237.64	0.0010713
2247.28	0.0008915
2256.92	0.00077608
2266.57	0.00083387
2276.21	0.00081633
2285.86	0.0009749
2295.5	0.0009934
2305.15	0.0011025
2314.79	0.0010041
2324.44	0.0008501
2334.08	0.0009313
2343.73	0.0009965
2353.37	0.0010263
2363.02	0.0008909
2372.66	0.0006846
2382.31	0.00083637
2391.95	0.0008571
2401.6	0.00078305
2411.24	0.0008701
2420.89	0.0009449
2430.53	0.0010512
2440.18	0.0011793
2449.82	0.0011006
2459.47	0.0013012
2469.11	0.001767
2478.75	0.0013842
2488.4	0.0012029
2498.04	0.0010316
2507.69	0.00102
2517.33	0.0011104
2526.98	0.0009812
2536.62	0.000607
2546.27	0.0009435
2555.91	0.0012269
2565.56	0.001074
2575.2	0.001193
2584.85	0.0009589
2594.49	0.0011591
2604.14	0.0010372
2613.78	0.0013361
2623.43	0.0015804
2633.07	0.002277
2642.72	0.002327
2652.36	0.002147
2662.01	0.002617
2671.65	0.002527
2681.29	0.002297
2690.94	0.001917
2700.58	0.001433
2710.23	0.0017426
2719.87	0.0013816
2729.52	0.0008659
2739.16	0.000865
2748.81	0.0012543
2758.45	0.001245
2768.1	0.0011507
2777.74	0.0014816
2787.39	0.0011302
2797.03	0.0014379
2806.68	0.001427
2816.32	0.002107
2825.97	0.002017
2835.61	0.002627
2845.26	0.002927
2854.9	0.003677
2864.55	0.003767
2874.19	0.005217
2883.84	0.006087
2893.48	0.005097
2903.12	0.004427
2912.77	0.003787
2922.41	0.003007
2932.06	0.002247
2941.7	0.002307
2951.35	0.0017064
2960.99	0.001977
2970.64	0.001887
2980.28	0.001331
2989.93	0.0012156
2999.57	0.0008708
3009.22	0.00080051
3018.86	0.0009099
3028.51	0.000647
3038.15	0.000619
3047.8	0.0010564
3057.44	0.000505
3067.09	0.000883
3076.73	0.000556
3086.38	0.00075735
3096.02	0.00084507
3105.67	0.00080567
3115.31	0.0009121
3124.95	0.0010638
3134.6	0.0012108
3144.24	0.0007845
3153.89	0.0008833
3163.53	0.0011581
3173.18	0.0009147
3182.82	0.000621
3192.47	0.000618
3202.11	0.000462
3211.76	0.000448
3221.4	0.0007163
3231.05	0.0006746
3240.69	0.000557
3250.34	0.000391
3259.98	0.001025
3269.63	0.00086
3279.27	0.0012418
3288.92	0.0012205
3298.56	0.0008884
3308.21	0.000624
3317.85	0.001003
3327.49	0.0011324
3337.14	0.0006476
3346.78	0.0010874
3356.43	0.0007331
3366.07	0.00084132
3375.72	0.000404
3385.36	0.00078045
3395.01	0.000632
3404.65	0.00081221
3414.3	0.000347
3423.94	0.0007122
3433.59	0.000755034
3443.23	0.0010458
3452.88	0.0013694
3462.52	0.000588
3472.17	0.0010484
3481.81	0.0010287
3491.46	0.00061
3501.1	0.000725
3510.75	0.0010918
3520.39	0.000405
3530.04	0.0010382
3539.68	0.0012482
3549.32	0.0012345
3558.97	0.00076334
3568.61	0.000395
3578.26	0.00076244
3587.9	0.0010317
3597.55	0.0009494
3607.19	0.0009881
3616.84	0.0011276
3626.48	0.00083555
3636.13	0.000515
3645.77	0.000327
3655.42	0.000391
3665.06	0.00080242
3674.71	0.0010122
3684.35	0.001226
3694	0.0009355
3703.64	0.0008643
3713.29	0.000412
3722.93	0.00079596
3732.58	0.000749557
3742.22	0.0009808
3751.86	0.00076396
3761.51	0.0011211
3771.15	0.00017
3780.8	0.0010137
3790.44	0.0010003
3800.09	0.0012609
3809.73	0.000754603
3819.38	0.000351
3829.02	0.00083115
3838.67	0.000267
3848.31	0.00079655
3857.96	0.000547
3867.6	0.00083733
3877.25	0.000534
3886.89	0.0006658
3896.54	0.0006828
3906.18	0.0010924
3915.83	0.000306
3925.47	0.0007141
3935.12	0.0011268
3944.76	0.0006953
3954.41	0.0006701
3964.05	0.0009462
3973.69	0.0007278
3983.34	0.0008889
3992.98	0.000492
