Infrared Spectrum: 1-(4-Chlorophenyl)imidazole
Formula: C 9 H 7 Cl N 2
CAS: 51581-54-5
State: gas
Origin: EPA-IR VAPOR PHASE LIBRARY
1/CM	ABSORBANCE
549.8	0.002861
559.445	0.001681
569.09	0.001441
578.734	0.0010485
588.379	0.001611
598.024	0.002391
607.669	0.004131
617.313	0.004501
626.958	0.005411
636.603	0.010961
646.248	0.022761
655.893	0.030841
665.537	0.021451
675.182	0.011711
684.827	0.009431
694.472	0.011331
704.116	0.019601
713.761	0.039291
723.406	0.051341
733.051	0.028231
742.695	0.012731
752.34	0.009031
761.985	0.008071
771.63	0.007451
781.275	0.009091
790.919	0.016531
800.564	0.037111
810.209	0.062301
819.854	0.074601
829.498	0.068561
839.143	0.039031
848.788	0.016941
858.433	0.010281
868.078	0.007151
877.722	0.005431
887.367	0.007721
897.012	0.029541
906.657	0.007821
916.301	0.002761
925.946	0.002211
935.591	0.002621
945.236	0.005971
954.88	0.035001
964.525	0.076941
974.17	0.007551
983.815	0.004581
993.46	0.005871
1003.1	0.017231
1012.75	0.071251
1022.39	0.019751
1032.04	0.031841
1041.68	0.065941
1051.33	0.160411
1060.97	0.053261
1070.62	0.063291
1080.26	0.051251
1089.91	0.022681
1099.55	0.040731
1109.2	0.025081
1118.84	0.016881
1128.49	0.008971
1138.13	0.006101
1147.78	0.004301
1157.42	0.003481
1167.07	0.003761
1176.71	0.004881
1186.36	0.003501
1196	0.003201
1205.64	0.004431
1215.29	0.008831
1224.93	0.016341
1234.58	0.039571
1244.22	0.076131
1253.87	0.050191
1263.51	0.017081
1273.16	0.017581
1282.8	0.023631
1292.45	0.073781
1302.09	0.161591
1311.74	0.064931
1321.38	0.015391
1331.03	0.008141
1340.67	0.006481
1350.32	0.006651
1359.96	0.010481
1369.61	0.021491
1379.25	0.014111
1388.9	0.005511
1398.54	0.007691
1408.18	0.010381
1417.83	0.009991
1427.47	0.009021
1437.12	0.013111
1446.76	0.022771
1456.41	0.033561
1466.05	0.033251
1475.7	0.053781
1485.34	0.117051
1494.99	0.460431
1504.63	0.430201
1514.28	0.083831
1523.92	0.054081
1533.57	0.067871
1543.21	0.026831
1552.86	0.010711
1562.5	0.012161
1572.15	0.025471
1581.79	0.021471
1591.44	0.029871
1601.08	0.031331
1610.73	0.017091
1620.37	0.012051
1630.01	0.009501
1639.66	0.009001
1649.3	0.008211
1658.95	0.009701
1668.59	0.005921
1678.24	0.003671
1687.88	0.003821
1697.53	0.007791
1707.17	0.011041
1716.82	0.003711
1726.46	0.003371
1736.11	0.003171
1745.75	0.003631
1755.4	0.005761
1765.04	0.005291
1774.69	0.002071
1784.33	0.001231
1793.98	0.001481
1803.62	0.001491
1813.27	0.002041
1822.91	0.002701
1832.55	0.002161
1842.2	0.0011857
1851.84	0.001023
1861.49	0.001681
1871.13	0.003051
1880.78	0.004961
1890.42	0.005401
1900.07	0.003501
1909.71	0.001721
1919.36	0.0010309
1929	0.0008747
1938.65	0.0010555
1948.29	0.001251
1957.94	0.001361
1967.58	0.0011406
1977.23	0.0008796
1986.87	0.0006912
1996.52	0.0007949
2006.16	0.0007613
2015.81	0.0008745
2025.45	0.0009436
2035.1	0.0008685
2044.74	0.0008672
2054.38	0.0010659
2064.03	0.0008535
2073.67	0.0006124
2083.32	0.000829
2092.96	0.0010937
2102.61	0.0010191
2112.25	0.0007817
2121.9	0.0007563
2131.54	0.0008598
2141.19	0.0009847
2150.83	0.0011106
2160.48	0.0008843
2170.12	0.0008059
2179.77	0.0008885
2189.41	0.0008831
2199.06	0.0009353
2208.7	0.0011108
2218.35	0.001361
2227.99	0.0011472
2237.64	0.000772
2247.28	0.0008367
2256.92	0.001034
2266.57	0.0011813
2276.21	0.001451
2285.86	0.001631
2295.5	0.001601
2305.15	0.001391
2314.79	0.001191
2324.44	0.001087
2334.08	0.0010422
2343.73	0.0009091
2353.37	0.0009673
2363.02	0.0009044
2372.66	0.0009436
2382.31	0.0010918
2391.95	0.001371
2401.6	0.001711
2411.24	0.001761
2420.89	0.001961
2430.53	0.001461
2440.18	0.0009495
2449.82	0.0008824
2459.47	0.001261
2469.11	0.001581
2478.75	0.001901
2488.4	0.002161
2498.04	0.001881
2507.69	0.001851
2517.33	0.002261
2526.98	0.001931
2536.62	0.002091
2546.27	0.002551
2555.91	0.002911
2565.56	0.002671
2575.2	0.002791
2584.85	0.003151
2594.49	0.002971
2604.14	0.002421
2613.78	0.001871
2623.43	0.001631
2633.07	0.001191
2642.72	0.001281
2652.36	0.001261
2662.01	0.001381
2671.65	0.001611
2681.29	0.001831
2690.94	0.001601
2700.58	0.001601
2710.23	0.002071
2719.87	0.002621
2729.52	0.002801
2739.16	0.002661
2748.81	0.001931
2758.45	0.001671
2768.1	0.001951
2777.74	0.002591
2787.39	0.002091
2797.03	0.002031
2806.68	0.002031
2816.32	0.001831
2825.97	0.001711
2835.61	0.001741
2845.26	0.001651
2854.9	0.001201
2864.55	0.0008413
2874.19	0.000839
2883.84	0.0008377
2893.48	0.0008131
2903.12	0.0008451
2912.77	0.0010567
2922.41	0.0008167
2932.06	0.0009897
2941.7	0.001371
2951.35	0.001331
2960.99	0.0009785
2970.64	0.001098
2980.28	0.001221
2989.93	0.001241
2999.57	0.001381
3009.22	0.001261
3018.86	0.0009696
3028.51	0.001401
3038.15	0.002671
3047.8	0.005281
3057.44	0.004901
3067.09	0.004491
3076.73	0.006721
3086.38	0.005341
3096.02	0.004701
3105.67	0.004901
3115.31	0.005741
3124.95	0.008301
3134.6	0.004501
3144.24	0.003261
3153.89	0.003531
3163.53	0.001471
3173.18	0.0007376
3182.82	0.000543
3192.47	0.0002943
3202.11	0.0003131
3211.76	0.00027652
3221.4	0.00021472
3231.05	0.0001477
3240.69	0.0003466
3250.34	0.00023995
3259.98	0.0002993
3269.63	0.0001107
3279.27	0.0003656
3288.92	0.0004108
3298.56	0.0003547
3308.21	0.000197003
3317.85	0.00019385
3327.49	0.0001615
3337.14	0.0003484
3346.78	0.00027871
3356.43	0.00028378
3366.07	0.000117
3375.72	8.4e-05
3385.36	0.00027743
3395.01	0.0003452
3404.65	0.0003595
3414.3	1.7e-05
3423.94	9.53e-05
3433.59	0.0001658
3443.23	0.00022018
3452.88	0.0003023
3462.52	0.00021089
3472.17	0.00020478
3481.81	0.000313
3491.46	0.0003383
3501.1	0.0002974
3510.75	0.00026328
3520.39	0.0003461
3530.04	0.000172
3539.68	0.0003478
3549.32	0.0003095
3558.97	0.0001623
3568.61	0.0003119
3578.26	0.0001788
3587.9	0.0003661
3597.55	0.0003388
3607.19	0.0003805
3616.84	0.0001551
3626.48	0.00020628
3636.13	0.0003339
3645.77	0.0003818
3655.42	0.0005247
3665.06	0.00026137
3674.71	0.0003574
3684.35	0.0003881
3694	0.000593
3703.64	0.0005282
3713.29	0.0005168
3722.93	0.0005593
3732.58	0.000453
3742.22	0.0004565
3751.86	0.00027143
3761.51	0.0004571
3771.15	0.0005146
3780.8	0.0005286
3790.44	0.0003086
3800.09	0.000532
3809.73	0.0006174
3819.38	0.000578
3829.02	0.000417
3838.67	0.0003961
3848.31	0.0002948
3857.96	0.00022624
3867.6	0.00023276
3877.25	0.0003077
3886.89	0.000175
3896.54	0.0003937
3906.18	0.00027346
3915.83	0.00028891
3925.47	0.0001701
3935.12	0.0004947
3944.76	0.0004504
3954.41	0.00025286
3964.05	0.0003528
3973.69	0.0004142
3983.34	0.0004572
3992.98	0.000468
