Infrared Spectrum: 1-(3-Chlorophenyl)imidazole
Formula: C 9 H 7 Cl N 2
CAS: 51581-52-3
State: gas
Origin: EPA-IR VAPOR PHASE LIBRARY
1/CM	ABSORBANCE
549.8	2.3e-05
559.445	0.0005165
569.09	0.000567
578.734	0.0008702
588.379	0.0013138
598.024	0.0010256
607.669	0.0014438
617.313	0.00328
626.958	0.00349
636.603	0.00547
646.248	0.01185
655.893	0.01742
665.537	0.01493
675.182	0.01969
684.827	0.02836
694.472	0.01738
704.116	0.01272
713.761	0.021
723.406	0.02806
733.051	0.01647
742.695	0.00953
752.34	0.01361
761.985	0.0414
771.63	0.08033
781.275	0.05263
790.919	0.02353
800.564	0.01739
810.209	0.02136
819.854	0.01311
829.498	0.00613
839.143	0.00427
848.788	0.00433
858.433	0.00859
868.078	0.01522
877.722	0.0127
887.367	0.01082
897.012	0.01361
906.657	0.00484
916.301	0.00172
925.946	0.0013885
935.591	0.0011576
945.236	0.0013419
954.88	0.00228
964.525	0.00422
974.17	0.00938
983.815	0.01044
993.46	0.00574
1003.1	0.0042
1012.75	0.0036
1022.39	0.00412
1032.04	0.00676
1041.68	0.03231
1051.33	0.09477
1060.97	0.05502
1070.62	0.01908
1080.26	0.02149
1089.91	0.02931
1099.55	0.02881
1109.2	0.03218
1118.84	0.0243
1128.49	0.00754
1138.13	0.0043
1147.78	0.00348
1157.42	0.0036
1167.07	0.00379
1176.71	0.00314
1186.36	0.00293
1196	0.00239
1205.64	0.00364
1215.29	0.00461
1224.93	0.00823
1234.58	0.02103
1244.22	0.03142
1253.87	0.01711
1263.51	0.00613
1273.16	0.0062
1282.8	0.01308
1292.45	0.02803
1302.09	0.0495
1311.74	0.0367
1321.38	0.01093
1331.03	0.00537
1340.67	0.00384
1350.32	0.00361
1359.96	0.00439
1369.61	0.0055
1379.25	0.00413
1388.9	0.00311
1398.54	0.00412
1408.18	0.00513
1417.83	0.00819
1427.47	0.01517
1437.12	0.01747
1446.76	0.01748
1456.41	0.01984
1466.05	0.02299
1475.7	0.04098
1485.34	0.11167
1494.99	0.22132
1504.63	0.12722
1514.28	0.02657
1523.92	0.01428
1533.57	0.01357
1543.21	0.01225
1552.86	0.01099
1562.5	0.01774
1572.15	0.03732
1581.79	0.06118
1591.44	0.11954
1601.08	0.11169
1610.73	0.03044
1620.37	0.0114
1630.01	0.00705
1639.66	0.0058
1649.3	0.00618
1658.95	0.00738
1668.59	0.00606
1678.24	0.00337
1687.88	0.00273
1697.53	0.0045
1707.17	0.00586
1716.82	0.0038
1726.46	0.00336
1736.11	0.00342
1745.75	0.00313
1755.4	0.00261
1765.04	0.00218
1774.69	0.00243
1784.33	0.00228
1793.98	0.00165
1803.62	0.0011854
1813.27	0.0010051
1822.91	0.0010744
1832.55	0.001339
1842.2	0.00204
1851.84	0.00284
1861.49	0.00236
1871.13	0.001351
1880.78	0.0011414
1890.42	0.0011028
1900.07	0.0010249
1909.71	0.0011701
1919.36	0.00184
1929	0.00235
1938.65	0.00195
1948.29	0.0012624
1957.94	0.0011514
1967.58	0.000998
1977.23	0.0009198
1986.87	0.000796
1996.52	0.0008435
2006.16	0.00067728
2015.81	0.0007521
2025.45	0.0008015
2035.1	0.0008188
2044.74	0.0007068
2054.38	0.0007527
2064.03	0.0008699
2073.67	0.0009065
2083.32	0.0007902
2092.96	0.0007907
2102.61	0.0007993
2112.25	0.0007289
2121.9	0.0007552
2131.54	0.0007943
2141.19	0.001008
2150.83	0.001006
2160.48	0.0010961
2170.12	0.0009263
2179.77	0.0009568
2189.41	0.0009272
2199.06	0.0009254
2208.7	0.0009898
2218.35	0.0008648
2227.99	0.0007456
2237.64	0.0007188
2247.28	0.0008797
2256.92	0.0010306
2266.57	0.0009303
2276.21	0.0008269
2285.86	0.0008792
2295.5	0.0009052
2305.15	0.0008861
2314.79	0.0008381
2324.44	0.0008774
2334.08	0.0010986
2343.73	0.001219
2353.37	0.0011847
2363.02	0.0010273
2372.66	0.0009684
2382.31	0.0010347
2391.95	0.0011606
2401.6	0.0012807
2411.24	0.001337
2420.89	0.0012658
2430.53	0.001062
2440.18	0.0008553
2449.82	0.0008698
2459.47	0.0009569
2469.11	0.0012541
2478.75	0.0013964
2488.4	0.0012847
2498.04	0.0011398
2507.69	0.0012843
2517.33	0.0015535
2526.98	0.0015093
2536.62	0.001505
2546.27	0.00169
2555.91	0.00164
2565.56	0.00166
2575.2	0.00169
2584.85	0.00177
2594.49	0.00185
2604.14	0.0015758
2613.78	0.0012726
2623.43	0.0009162
2633.07	0.0008375
2642.72	0.00067407
2652.36	0.0008624
2662.01	0.000944
2671.65	0.000941
2681.29	0.0009405
2690.94	0.0009494
2700.58	0.0012125
2710.23	0.00167
2719.87	0.00186
2729.52	0.00204
2739.16	0.00185
2748.81	0.00159
2758.45	0.0012189
2768.1	0.0013222
2777.74	0.00171
2787.39	0.00174
2797.03	0.00171
2806.68	0.0010895
2816.32	0.000901
2825.97	0.0010239
2835.61	0.0009296
2845.26	0.0009706
2854.9	0.0006878
2864.55	0.00067846
2874.19	0.0007244
2883.84	0.00048
2893.48	0.0005712
2903.12	0.0005048
2912.77	0.00064331
2922.41	0.00067458
2932.06	0.0008232
2941.7	0.0008778
2951.35	0.0009696
2960.99	0.0010813
2970.64	0.0009593
2980.28	0.0009132
2989.93	0.0009688
2999.57	0.0008489
3009.22	0.0008925
3018.86	0.0011139
3028.51	0.0015712
3038.15	0.0024
3047.8	0.00245
3057.44	0.00271
3067.09	0.00393
3076.73	0.00627
3086.38	0.00608
3096.02	0.0037
3105.67	0.00278
3115.31	0.00305
3124.95	0.00449
3134.6	0.00282
3144.24	0.00186
3153.89	0.00206
3163.53	0.0011941
3173.18	0.00067679
3182.82	0.00064825
3192.47	0.0007129
3202.11	0.0008536
3211.76	0.0005008
3221.4	0.000318
3231.05	0.000278
3240.69	0.000285
3250.34	0.000191
3259.98	0.000338
3269.63	0.000435
3279.27	0.000147
3288.92	0.000471
3298.56	0.000419
3308.21	0.0004922
3317.85	0.000275
3327.49	0.000479
3337.14	0.000203
3346.78	0.000304
3356.43	0.000148
3366.07	0.000466
3375.72	0.000461
3385.36	0.000199
3395.01	0.000416
3404.65	0.000207
3414.3	0.00025
3423.94	0.00057784
3433.59	0.000248
3443.23	0.000337
3452.88	0.000315
3462.52	0.000467
3472.17	0.0005224
3481.81	0.000458
3491.46	0.000303
3501.1	0.00029
3510.75	0.000345
3520.39	0.000336
3530.04	0.0005537
3539.68	0.000399
3549.32	0.0005016
3558.97	0.0004905
3568.61	0.000412
3578.26	0.000426
3587.9	0.000436
3597.55	0.00035
3607.19	0.000348
3616.84	0.000417
3626.48	0.000313
3636.13	0.000295
3645.77	0.000346
3655.42	0.00057386
3665.06	0.000437
3674.71	0.0005056
3684.35	0.000228
3694	0.0005453
3703.64	0.0005101
3713.29	0.000457
3722.93	0.000351
3732.58	0.000471
3742.22	0.00061757
3751.86	0.000453
3761.51	0.0006288
3771.15	0.0007051
3780.8	0.0005435
3790.44	0.000397
3800.09	0.000331
3809.73	0.000378
3819.38	0.000352
3829.02	0.000459
3838.67	0.00063532
3848.31	0.000392
3857.96	0.00061008
3867.6	0.0004867
3877.25	0.00065733
3886.89	0.0005262
3896.54	0.000381
3906.18	0.000369
3915.83	0.000453
3925.47	0.00062906
3935.12	0.0007392
3944.76	0.000391
3954.41	0.000475
3964.05	0.0005375
3973.69	0.000357
3983.34	0.000425
3992.98	0.000579238
