Infrared Spectrum: 5Alpha-PREGNAN-3Beta-OL-20-ONE
Formula: C21 H34 O2
CAS: 516-55-2
State: SOLUTION (0.2M IN CHCl3)
Class: COBLENTZ
Instrument: PERKIN-ELMER
Sampling: TRANSMISSION
Path length: 0.010 CM
Resolution: 4
Origin: ABBOTT LABORATORIES - WASHBURN
MICROMETERS	TRANSMITTANCE
2.007	0.88
2.04117	0.881
2.07534	0.885
2.10951	0.892
2.14368	0.895
2.17784	0.897
2.21201	0.897
2.24618	0.893
2.28035	0.888
2.31452	0.89
2.34869	0.8949
2.38286	0.897
2.41703	0.897
2.4512	0.902
2.48537	0.9052
2.51953	0.9068
2.5537	0.9104
2.58787	0.9156
2.62204	0.914
2.65621	0.9168
2.69038	0.912
2.72455	0.8631
2.75872	0.8386
2.79289	0.8544
2.82706	0.8241
2.86122	0.8002
2.89539	0.8075
2.92956	0.8262
2.96373	0.8611
2.9979	0.8769
3.03207	0.8914
3.06624	0.897
3.10041	0.902
3.13458	0.904
3.16875	0.8974
3.20291	0.904
3.23708	0.8854
3.27125	0.7571
3.30542	0.4893
3.33959	0.3374
3.37376	0.2083
3.40793	0.3351
3.4421	0.3755
3.47627	0.4694
3.51043	0.7881
3.5446	0.8667
3.57877	0.894
3.61294	0.9
3.64711	0.902
3.68128	0.902
3.71545	0.9011
3.74962	0.898
3.78379	0.9061
3.81796	0.9115
3.85212	0.9166
3.88629	0.912
3.92046	0.9127
3.95463	0.9114
3.9888	0.9064
4.02297	0.9
4.05714	0.898
4.09131	0.9075
4.12548	0.9163
4.15965	0.9337
4.19381	0.9254
4.22798	0.9276
4.26215	0.922
4.29632	0.9217
4.33049	0.916
4.36466	0.91
4.39883	0.914
4.433	0.912
4.46717	0.91
4.50133	0.909
4.5355	0.9118
4.56967	0.91
4.60384	0.909
4.63801	0.912
4.67218	0.9073
4.70635	0.9053
4.74052	0.905
4.77469	0.909
4.80886	0.905
4.84302	0.904
4.87719	0.905
4.91136	0.905
4.94553	0.902
4.9797	0.9
5.01387	0.9051
5.04804	0.904
5.08221	0.9044
5.11638	0.907
5.15055	0.9041
5.18471	0.907
5.21888	0.905
5.25305	0.907
5.28722	0.907
5.32139	0.904
5.35556	0.905
5.38973	0.904
5.4239	0.904
5.45807	0.905
5.49224	0.9
5.5264	0.904
5.56057	0.9
5.59474	0.895
5.62891	0.892
5.66308	0.8779
5.69725	0.8657
5.73142	0.8483
5.76559	0.7892
5.79976	0.571
5.83392	0.2376
5.86809	0.3077
5.90226	0.6669
5.93643	0.7798
5.9706	0.804
6.00477	0.8319
6.03894	0.859
6.07311	0.8691
6.10728	0.873
6.14145	0.873
6.17561	0.876
6.20978	0.876
6.24395	0.873
6.27812	0.876
6.31229	0.875
6.34646	0.875
6.38063	0.876
6.4148	0.876
6.44897	0.88
6.48314	0.8881
6.5173	0.89
6.55147	0.8859
6.58564	0.878
6.61981	0.873
6.65398	0.8609
6.68815	0.8558
6.72232	0.8092
6.75649	0.6731
6.79066	0.662
6.82482	0.678
6.85899	0.5605
6.89316	0.5572
6.92733	0.6633
6.9615	0.7395
6.99567	0.753
7.02984	0.756
7.06401	0.7611
7.09818	0.7649
7.13235	0.74
7.16651	0.6097
7.20068	0.494
7.23485	0.57
7.26902	0.5961
7.30319	0.5103
7.33736	0.428
7.37153	0.5117
7.4057	0.64
7.43987	0.708
7.47404	0.7484
7.5082	0.779
7.54237	0.7872
7.57654	0.7992
7.61071	0.813
7.64488	0.806
7.67905	0.7832
7.71322	0.7377
7.74739	0.7345
7.78156	0.7514
7.81573	0.755
7.84989	0.753
7.88406	0.751
7.91823	0.748
7.9524	0.7439
7.98657	0.7287
8.02074	0.7
8.05491	0.643
8.08908	0.6309
8.12325	0.6311
8.15741	0.6379
8.19158	0.6449
8.22575	0.66
8.25992	0.678
8.29409	0.7027
8.32826	0.7461
8.36243	0.743
8.3966	0.7193
8.43077	0.6929
8.46494	0.679
8.4991	0.7005
8.53327	0.7171
8.56744	0.7121
8.60161	0.6726
8.63578	0.6059
8.66995	0.6362
8.70412	0.7362
8.73829	0.7551
8.77246	0.7481
8.80663	0.7081
8.84079	0.7141
8.87496	0.7461
8.90913	0.7731
8.9433	0.7851
8.97747	0.7989
9.01164	0.8079
9.04581	0.815
9.07998	0.8129
9.11415	0.8059
9.14831	0.8109
9.18248	0.7923
9.21665	0.7244
9.25082	0.6518
9.28499	0.636
9.31916	0.6891
9.35333	0.7563
9.3875	0.765
9.42167	0.7907
9.45584	0.828
9.49	0.8199
9.52417	0.8124
9.55834	0.6884
9.59251	0.5717
9.62668	0.4297
9.66085	0.385
9.69502	0.4072
9.72919	0.5081
9.76336	0.6409
9.79753	0.7386
9.83169	0.7669
9.86586	0.773
9.90003	0.7681
9.9342	0.78
9.96837	0.7675
10.0025	0.7261
10.0367	0.6792
10.0709	0.7105
10.105	0.7721
10.1392	0.7868
10.1734	0.7724
10.2076	0.755
10.2417	0.7718
10.2759	0.7971
10.3101	0.8161
10.3442	0.8302
10.3784	0.8329
10.4126	0.827
10.4467	0.7774
10.4809	0.7119
10.5151	0.7482
10.5492	0.7966
10.5834	0.8213
10.6176	0.825
10.6517	0.8041
10.6859	0.8081
10.7201	0.8282
10.7543	0.8522
10.7884	0.856
10.8226	0.852
10.8568	0.851
10.8909	0.8328
10.9251	0.8282
10.9593	0.8511
10.9934	0.8662
11.0276	0.868
11.0618	0.859
11.0959	0.839
11.1301	0.8591
11.1643	0.8732
11.1985	0.88
11.2326	0.885
11.2668	0.89
11.301	0.8861
11.3351	0.897
11.3693	0.9102
11.4035	0.917
11.4376	0.917
11.4718	0.914
11.506	0.9019
11.5401	0.895
11.5743	0.893
11.6085	0.8929
11.6426	0.885
11.6768	0.876
11.711	0.854
11.7452	0.8661
11.7793	0.88
11.8135	0.886
11.8477	0.88
11.8818	0.866
11.916	0.8661
11.9502	0.8751
11.9843	0.8812
12.0185	0.888
12.0527	0.892
12.0868	0.892
12.121	0.895
12.1552	0.892
12.1894	0.892
12.2235	0.892
12.2577	0.89
12.2919	0.89
12.326	0.8849
12.3602	0.864
12.3944	0.8485
12.4285	0.8152
12.4627	0.768
12.4969	0.717
12.531	0.6717
12.5652	0.6306
12.5994	0.6019
12.6335	0.594
12.6677	0.592
12.7019	0.597
12.7361	0.597
12.7702	0.602
12.8044	0.6072
12.8386	0.609
12.8727	0.613
12.9069	0.618
12.9411	0.619
12.9752	0.619
13.0094	0.621
13.0436	0.6332
13.0777	0.638
13.1119	0.633
13.1461	0.6381
13.1803	0.642
13.2144	0.638
13.2486	0.6403
13.2828	0.647
13.3169	0.65
13.3511	0.6498
13.3853	0.648
13.4194	0.655
13.4536	0.6498
13.4878	0.652
13.5219	0.65
13.5561	0.6541
13.5903	0.66
13.6245	0.66
13.6586	0.6588
13.6928	0.655
13.727	0.659
13.7611	0.667
13.7953	0.6671
13.8295	0.6711
13.8636	0.6792
13.8978	0.6912
13.932	0.7241
13.9661	0.7583
14.0003	0.7854
14.0345	0.8059
14.0686	0.8368
14.1028	0.8591
14.137	0.883
14.1712	0.9003
14.2053	0.9101
14.2395	0.91
14.2737	0.922
14.3078	0.926
14.342	0.929
14.3762	0.9329
14.4103	0.9291
14.4445	0.936
14.4787	0.938
14.5128	0.938
14.547	0.936
14.5812	0.9361
14.6154	0.94
14.6495	0.941
14.6837	0.9429
14.7179	0.943
14.752	0.945
14.7862	0.9462
14.8204	0.9481
14.8545	0.957
14.8887	0.953
14.9229	0.9479
14.957	0.941
14.9912	0.9328
15.0254	0.9221
15.0595	0.9211
15.0937	0.909
15.1279	0.8899
15.1621	0.8659
15.1962	0.861
15.2304	0.866
15.2646	0.868
15.2987	0.876
15.3329	0.878
