Infrared Spectrum: VALINE
Formula: C5 H11 N O2
CAS: 516-06-3
State: SOLID (SPLIT MULL)
Melting point: 315 C
Class: COBLENTZ III
Instrument: DOW KBr FOREPRISM-GRATING
Instrument parameters: BLAZED AT 3.5, 12.0, 20.0 MICRON AND CHANGED AT 5.0, 7.5, 14.9 MICRON
Sampling: TRANSMISSION
Resolution: 2
Origin: DOW CHEMICAL COMPANY
1/CM	TRANSMITTANCE
3784	0.7944
3775	0.7961
3766	0.7981
3757	0.8004
3748	0.803
3739	0.8051
3730	0.8068
3721	0.8083
3712	0.8099
3703	0.8108
3694	0.8118
3685	0.8128
3676	0.8138
3667	0.8145
3658	0.8153
3649	0.816
3640	0.8168
3631	0.8178
3622	0.8187
3613	0.8197
3604	0.8205
3595	0.8212
3586	0.8218
3577	0.8225
3568	0.8233
3559	0.8239
3550	0.8246
3541	0.8251
3532	0.8256
3523	0.826
3514	0.8265
3505	0.8268
3496	0.8274
3487	0.8278
3478	0.8286
3469	0.8296
3460	0.8306
3451	0.8315
3442	0.8325
3433	0.8344
3424	0.8368
3415	0.8394
3406	0.8418
3397	0.8443
3388	0.8454
3379	0.8456
3370	0.8445
3361	0.8435
3352	0.8428
3343	0.8423
3334	0.8418
3325	0.8414
3316	0.8382
3307	0.832
3298	0.8286
3289	0.8267
3280	0.8258
3271	0.8247
3262	0.8228
3253	0.8165
3244	0.8051
3235	0.7903
3226	0.7753
3217	0.7574
3208	0.7336
3199	0.7053
3190	0.6793
3181	0.6521
3172	0.623
3163	0.5929
3154	0.5642
3145	0.5427
3136	0.525
3127	0.5194
3118	0.5247
3109	0.5364
3100	0.5484
3091	0.5551
3082	0.5558
3073	0.5509
3064	0.5455
3055	0.5422
3046	0.539
3037	0.5354
3028	0.531
3019	0.5256
3010	0.5179
3001	0.4602
2992	0.4345
2983	0.4288
2974	0.415
2965	0.3509
2956	0.399
2947	0.4184
2938	0.4181
2929	0.426
2920	0.441
2911	0.4575
2902	0.4657
2893	0.4698
2884	0.4754
2875	0.4995
2866	0.5148
2857	0.5237
2848	0.5295
2839	0.5429
2830	0.5451
2821	0.5475
2812	0.5512
2803	0.5551
2794	0.5583
2785	0.5607
2776	0.5619
2767	0.5622
2758	0.5615
2749	0.5591
2740	0.5521
2731	0.5518
2722	0.5455
2713	0.5393
2704	0.5376
2695	0.5399
2686	0.5456
2677	0.5539
2668	0.5659
2659	0.5871
2650	0.5988
2641	0.5993
2632	0.5808
2623	0.5535
2614	0.5351
2605	0.5171
2596	0.5002
2587	0.4878
2578	0.48
2569	0.4736
2560	0.4679
2551	0.4723
2542	0.4766
2533	0.4778
2524	0.4799
2515	0.4826
2506	0.4899
2497	0.4979
2488	0.5065
2479	0.5156
2470	0.5251
2461	0.5357
2452	0.541
2443	0.5462
2434	0.5525
2425	0.5632
2416	0.5679
2407	0.5658
2398	0.567
2389	0.5805
2380	0.5979
2371	0.6136
2362	0.6246
2353	0.6353
2344	0.6431
2335	0.6504
2326	0.656
2317	0.661
2308	0.6661
2299	0.6712
2290	0.6765
2281	0.6792
2272	0.6812
2263	0.6835
2254	0.6858
2245	0.6895
2236	0.7021
2227	0.716
2218	0.7191
2209	0.7157
2200	0.7068
2191	0.6989
2182	0.6911
2173	0.6835
2164	0.6751
2155	0.6669
2146	0.6608
2137	0.66
2128	0.6685
2119	0.6828
2110	0.7053
2101	0.7275
2092	0.7445
2083	0.7561
2074	0.7686
2065	0.7785
2056	0.7868
2047	0.794
2038	0.8006
2029	0.8065
2020	0.8118
2011	0.8178
2002	0.8246
1993	0.8275
1984	0.8325
1975	0.8358
1966	0.8378
1957	0.8382
1948	0.8406
1939	0.8445
1930	0.8478
1921	0.8491
1912	0.8502
1903	0.8513
1894	0.8518
1885	0.8525
1876	0.8538
1867	0.8555
1858	0.8591
1849	0.8631
1840	0.866
1831	0.868
1822	0.8692
1813	0.8699
1804	0.8701
1795	0.8693
1786	0.8698
1777	0.8718
1768	0.8728
1759	0.8704
1750	0.8687
1741	0.868
1732	0.87
1723	0.8688
1714	0.8716
1705	0.8659
1696	0.8591
1687	0.854
1678	0.8375
1669	0.8221
1660	0.8041
1651	0.7601
1642	0.6907
1633	0.5415
1624	0.4491
1615	0.4155
1606	0.2698
1597	0.1918
1588	0.2878
1579	0.4775
1570	0.5943
1561	0.6803
1552	0.7051
1543	0.7176
1534	0.6582
1525	0.48
1516	0.2277
1507	0.166
1498	0.2155
1489	0.3568
1480	0.4593
1471	0.4314
1462	0.5075
1453	0.5489
1444	0.6492
1435	0.6387
1426	0.4972
1417	0.3512
1408	0.4924
1399	0.5718
1390	0.5141
1381	0.6626
1372	0.5858
1363	0.4558
1354	0.5459
1345	0.563
1336	0.5387
1327	0.2037
1318	0.3131
1309	0.4919
1300	0.5728
1291	0.614
1282	0.646
1273	0.4973
1264	0.6312
1255	0.6648
1246	0.6897
1237	0.7094
1228	0.7182
1219	0.7237
1210	0.7265
1201	0.7269
1192	0.7115
1183	0.6578
1174	0.6869
1165	0.7174
1156	0.7228
1147	0.7225
1138	0.6965
1129	0.665
1120	0.7251
1111	0.718
1102	0.6868
1093	0.7378
1084	0.7393
1075	0.7231
1066	0.6594
1057	0.7151
1048	0.736
1039	0.7168
1030	0.6464
1021	0.7375
1012	0.7531
1003	0.7611
994	0.7665
985	0.7668
976	0.7628
967	0.7587
958	0.7553
949	0.7225
940	0.7508
931	0.7545
922	0.7056
913	0.7653
904	0.7725
895	0.7519
886	0.6981
877	0.7625
868	0.7743
859	0.7814
850	0.7833
841	0.7856
832	0.786
823	0.7531
814	0.7574
805	0.7896
796	0.7928
787	0.7828
778	0.4575
769	0.7331
760	0.7617
751	0.7628
742	0.7537
733	0.7303
724	0.6951
715	0.7212
706	0.78
697	0.7886
688	0.6353
679	0.7414
670	0.7906
661	0.8101
652	0.8161
643	0.8178
634	0.8126
625	0.809
616	0.8071
607	0.8049
598	0.8015
589	0.7976
580	0.7928
571	0.7837
562	0.7705
553	0.7501
544	0.5944
535	0.5457
526	0.7344
517	0.7689
508	0.7768
499	0.7758
490	0.7684
481	0.7006
472	0.6789
463	0.7107
454	0.7321
