Infrared Spectrum: 2-Bromo-4-isopropylaniline
Formula: C 9 H 12 Br N
CAS: 51605-97-1
State: gas
Origin: EPA-IR VAPOR PHASE LIBRARY
1/CM	ABSORBANCE
549.8	0.019
559.445	0.01965
569.09	0.02078
578.734	0.02328
588.379	0.03259
598.024	0.04151
607.669	0.02989
617.313	0.02467
626.958	0.02657
636.603	0.03315
646.248	0.04111
655.893	0.04831
665.537	0.06062
675.182	0.06897
684.827	0.0621
694.472	0.05994
704.116	0.0614
713.761	0.06631
723.406	0.06299
733.051	0.05331
742.695	0.03926
752.34	0.02494
761.985	0.02049
771.63	0.01832
781.275	0.01859
790.919	0.0247
800.564	0.04974
810.209	0.08012
819.854	0.05347
829.498	0.02706
839.143	0.02326
848.788	0.02175
858.433	0.01793
868.078	0.02623
877.722	0.03924
887.367	0.03048
897.012	0.03002
906.657	0.02199
916.301	0.01268
925.946	0.01112
935.591	0.01059
945.236	0.0099
954.88	0.01008
964.525	0.00965
974.17	0.00946
983.815	0.00858
993.46	0.00878
1003.1	0.00883
1012.75	0.00964
1022.39	0.01984
1032.04	0.0516
1041.68	0.05487
1051.33	0.0312
1060.97	0.02235
1070.62	0.02112
1080.26	0.02131
1089.91	0.01845
1099.55	0.01653
1109.2	0.01696
1118.84	0.01565
1128.49	0.01584
1138.13	0.01885
1147.78	0.02631
1157.42	0.03324
1167.07	0.02189
1176.71	0.01203
1186.36	0.0117
1196	0.02021
1205.64	0.03521
1215.29	0.02994
1224.93	0.01393
1234.58	0.01415
1244.22	0.02461
1253.87	0.03749
1263.51	0.03529
1273.16	0.04519
1282.8	0.08018
1292.45	0.08542
1302.09	0.06715
1311.74	0.06193
1321.38	0.05426
1331.03	0.03961
1340.67	0.02092
1350.32	0.01385
1359.96	0.01691
1369.61	0.02271
1379.25	0.01932
1388.9	0.02207
1398.54	0.02748
1408.18	0.03915
1417.83	0.03251
1427.47	0.01787
1437.12	0.01568
1446.76	0.0198
1456.41	0.0328
1466.05	0.05181
1475.7	0.05534
1485.34	0.07068
1494.99	0.19345
1504.63	0.25821
1514.28	0.0938
1523.92	0.03887
1533.57	0.02968
1543.21	0.02301
1552.86	0.02444
1562.5	0.02821
1572.15	0.02691
1581.79	0.02555
1591.44	0.03531
1601.08	0.05146
1610.73	0.09341
1620.37	0.17861
1630.01	0.16001
1639.66	0.06369
1649.3	0.02685
1658.95	0.01498
1668.59	0.00981
1678.24	0.0077
1687.88	0.00676
1697.53	0.00647
1707.17	0.00674
1716.82	0.00695
1726.46	0.00702
1736.11	0.00834
1745.75	0.00959
1755.4	0.00757
1765.04	0.00478
1774.69	0.00349
1784.33	0.00296
1793.98	0.00284
1803.62	0.00319
1813.27	0.00329
1822.91	0.0029
1832.55	0.00254
1842.2	0.00284
1851.84	0.00413
1861.49	0.00663
1871.13	0.00678
1880.78	0.00403
1890.42	0.00266
1900.07	0.0025
1909.71	0.0024
1919.36	0.00244
1929	0.00261
1938.65	0.00266
1948.29	0.00241
1957.94	0.00271
1967.58	0.00287
1977.23	0.0029
1986.87	0.00274
1996.52	0.00263
2006.16	0.00249
2015.81	0.00252
2025.45	0.0023
2035.1	0.00226
2044.74	0.00211
2054.38	0.00196
2064.03	0.00221
2073.67	0.00215
2083.32	0.00197
2092.96	0.0019
2102.61	0.0018
2112.25	0.0019
2121.9	0.00208
2131.54	0.00195
2141.19	0.00189
2150.83	0.00186
2160.48	0.00185
2170.12	0.0018
2179.77	0.00162
2189.41	0.00172
2199.06	0.00165
2208.7	0.00179
2218.35	0.00157
2227.99	0.00171
2237.64	0.00152
2247.28	0.00128
2256.92	0.00139
2266.57	0.00151
2276.21	0.00167
2285.86	0.00184
2295.5	0.00197
2305.15	0.00188
2314.79	0.00203
2324.44	0.00226
2334.08	0.00221
2343.73	0.00224
2353.37	0.00199
2363.02	0.0018
2372.66	0.00182
2382.31	0.00173
2391.95	0.00143
2401.6	0.00155
2411.24	0.00132
2420.89	0.00134
2430.53	0.00114
2440.18	0.00134
2449.82	0.00144
2459.47	0.0018
2469.11	0.0018
2478.75	0.00176
2488.4	0.00132
2498.04	0.00146
2507.69	0.00151
2517.33	0.00135
2526.98	0.00174
2536.62	0.00202
2546.27	0.00237
2555.91	0.00212
2565.56	0.00242
2575.2	0.00288
2584.85	0.00374
2594.49	0.00423
2604.14	0.00369
2613.78	0.00282
2623.43	0.00244
2633.07	0.00218
2642.72	0.00217
2652.36	0.00189
2662.01	0.0018
2671.65	0.0018
2681.29	0.00172
2690.94	0.00203
2700.58	0.00212
2710.23	0.00228
2719.87	0.00338
2729.52	0.00355
2739.16	0.00344
2748.81	0.0032
2758.45	0.00338
2768.1	0.0036
2777.74	0.00337
2787.39	0.00335
2797.03	0.00392
2806.68	0.00436
2816.32	0.00534
2825.97	0.00572
2835.61	0.00699
2845.26	0.00986
2854.9	0.01629
2864.55	0.02782
2874.19	0.05179
2883.84	0.06524
2893.48	0.05739
2903.12	0.0599
2912.77	0.0602
2922.41	0.06164
2932.06	0.07646
2941.7	0.08681
2951.35	0.09076
2960.99	0.19199
2970.64	0.2685
2980.28	0.11943
2989.93	0.04457
2999.57	0.02931
3009.22	0.02237
3018.86	0.03175
3028.51	0.04054
3038.15	0.02746
3047.8	0.02361
3057.44	0.02409
3067.09	0.02213
3076.73	0.01884
3086.38	0.01292
3096.02	0.00855
3105.67	0.00677
3115.31	0.00514
3124.95	0.00363
3134.6	0.00304
3144.24	0.00311
3153.89	0.00337
3163.53	0.00372
3173.18	0.004
3182.82	0.00503
3192.47	0.00569
3202.11	0.00558
3211.76	0.00476
3221.4	0.00389
3231.05	0.00264
3240.69	0.00214
3250.34	0.00151
3259.98	0.00146
3269.63	0.00102
3279.27	0.0009307
3288.92	0.0005391
3298.56	0.0006994
3308.21	0.0009158
3317.85	0.0007663
3327.49	0.0006494
3337.14	0.0009138
3346.78	0.00102
3356.43	0.00179
3366.07	0.00254
3375.72	0.00508
3385.36	0.01176
3395.01	0.02826
3404.65	0.03934
3414.3	0.02877
3423.94	0.01153
3433.59	0.00386
3443.23	0.00322
3452.88	0.00386
3462.52	0.00627
3472.17	0.01137
3481.81	0.02098
3491.46	0.03084
3501.1	0.03
3510.75	0.02366
3520.39	0.01267
3530.04	0.00438
3539.68	0.00215
3549.32	0.00155
3558.97	0.00108
3568.61	0.0009317
3578.26	0.000692
3587.9	0.0006835
3597.55	0.0005342
3607.19	0.0006862
3616.84	0.0007045
3626.48	0.00111
3636.13	0.0007884
3645.77	0.0009226
3655.42	0.0006959
3665.06	0.0008807
3674.71	0.0008387
3684.35	0.00116
3694	0.00071
3703.64	0.0004928
3713.29	0.0004647
3722.93	0.000739
3732.58	0.0009591
3742.22	0.00103
3751.86	0.00112
3761.51	0.0008689
3771.15	0.0007874
3780.8	0.0009224
3790.44	0.0006592
3800.09	0.000942
3809.73	0.00111
3819.38	0.00137
3829.02	0.0024
3838.67	0.0022
3848.31	0.00213
3857.96	0.00216
3867.6	0.00192
3877.25	0.00193
3886.89	0.00208
3896.54	0.00153
3906.18	0.00118
3915.83	0.00182
3925.47	0.0018
3935.12	0.00172
3944.76	0.00172
3954.41	0.00175
3964.05	0.00152
3973.69	0.00163
3983.34	0.00149
3992.98	0.00128
