Infrared Spectrum: 3-Chloro-4-methylbenzoic acid
Formula: C 8 H 7 Cl O 2
CAS: 5162-82-3
State: gas
Origin: EPA-IR VAPOR PHASE LIBRARY
1/CM	ABSORBANCE
549.8	0.007223
559.445	0.010423
569.09	0.010753
578.734	0.011633
588.379	0.013483
598.024	0.017153
607.669	0.020403
617.313	0.010743
626.958	0.003233
636.603	0.002793
646.248	0.002213
655.893	0.002013
665.537	0.002023
675.182	0.004543
684.827	0.018093
694.472	0.018953
704.116	0.004793
713.761	0.003713
723.406	0.005173
733.051	0.006963
742.695	0.009363
752.34	0.016273
761.985	0.021423
771.63	0.011323
781.275	0.004803
790.919	0.002653
800.564	0.002203
810.209	0.002253
819.854	0.002293
829.498	0.003253
839.143	0.003773
848.788	0.005893
858.433	0.007363
868.078	0.005193
877.722	0.002623
887.367	0.002273
897.012	0.003543
906.657	0.003813
916.301	0.002453
925.946	0.0016307
935.591	0.0015131
945.236	0.00148
954.88	0.0015109
964.525	0.0016041
974.17	0.001693
983.815	0.002523
993.46	0.003653
1003.1	0.003293
1012.75	0.002853
1022.39	0.002863
1032.04	0.004543
1041.68	0.007963
1051.33	0.011843
1060.97	0.011773
1070.62	0.012233
1080.26	0.030093
1089.91	0.052803
1099.55	0.045463
1109.2	0.015313
1118.84	0.011303
1128.49	0.012173
1138.13	0.014033
1147.78	0.014493
1157.42	0.015123
1167.07	0.025963
1176.71	0.050383
1186.36	0.059483
1196	0.030233
1205.64	0.011953
1215.29	0.007193
1224.93	0.005243
1234.58	0.005003
1244.22	0.006073
1253.87	0.008873
1263.51	0.012163
1273.16	0.009983
1282.8	0.006813
1292.45	0.007103
1302.09	0.008543
1311.74	0.012813
1321.38	0.019303
1331.03	0.020493
1340.67	0.015883
1350.32	0.012523
1359.96	0.016503
1369.61	0.018213
1379.25	0.016613
1388.9	0.019683
1398.54	0.013853
1408.18	0.006283
1417.83	0.004413
1427.47	0.004313
1437.12	0.005003
1446.76	0.005403
1456.41	0.004753
1466.05	0.004283
1475.7	0.004593
1485.34	0.005633
1494.99	0.005673
1504.63	0.003763
1514.28	0.002583
1523.92	0.002503
1533.57	0.002653
1543.21	0.003153
1552.86	0.003913
1562.5	0.005763
1572.15	0.006283
1581.79	0.004983
1591.44	0.004783
1601.08	0.006233
1610.73	0.005643
1620.37	0.003143
1630.01	0.001983
1639.66	0.001803
1649.3	0.001823
1658.95	0.001813
1668.59	0.001703
1678.24	0.0015771
1687.88	0.001923
1697.53	0.003153
1707.17	0.005653
1716.82	0.007273
1726.46	0.007143
1736.11	0.009873
1745.75	0.027583
1755.4	0.098343
1765.04	0.122773
1774.69	0.043263
1784.33	0.015163
1793.98	0.009543
1803.62	0.008163
1813.27	0.008053
1822.91	0.004903
1832.55	0.002423
1842.2	0.0014704
1851.84	0.0011486
1861.49	0.0011817
1871.13	0.0011602
1880.78	0.0010935
1890.42	0.0012369
1900.07	0.0014254
1909.71	0.001933
1919.36	0.001893
1929	0.001262
1938.65	0.0009695
1948.29	0.0009427
1957.94	0.0008673
1967.58	0.000844
1977.23	0.00071285
1986.87	0.00072292
1996.52	0.0008341
2006.16	0.00072034
2015.81	0.00073737
2025.45	0.0008058
2035.1	0.0008209
2044.74	0.00078595
2054.38	0.0007467
2064.03	0.00077095
2073.67	0.0006641
2083.32	0.0006352
2092.96	0.00067
2102.61	0.00078906
2112.25	0.0007946
2121.9	0.0006775
2131.54	0.0006006
2141.19	0.00068601
2150.83	0.00068652
2160.48	0.000678
2170.12	0.00078627
2179.77	0.0008243
2189.41	0.0008398
2199.06	0.00078138
2208.7	0.0006134
2218.35	0.00068964
2227.99	0.0006462
2237.64	0.0006722
2247.28	0.0006123
2256.92	0.000699565
2266.57	0.0006269
2276.21	0.00068445
2285.86	0.0006741
2295.5	0.000588
2305.15	0.0006614
2314.79	0.0006509
2324.44	0.00072484
2334.08	0.000694229
2343.73	0.00064
2353.37	0.00075998
2363.02	0.00078406
2372.66	0.00074859
2382.31	0.00069088
2391.95	0.0006819
2401.6	0.00071143
2411.24	0.00071669
2420.89	0.00076511
2430.53	0.00075975
2440.18	0.0008641
2449.82	0.0008201
2459.47	0.0008093
2469.11	0.00073288
2478.75	0.0007046
2488.4	0.0006549
2498.04	0.0006342
2507.69	0.0006373
2517.33	0.000575
2526.98	0.000537
2536.62	0.00072392
2546.27	0.00071033
2555.91	0.0008516
2565.56	0.0008049
2575.2	0.0008072
2584.85	0.0006713
2594.49	0.0006562
2604.14	0.000593
2613.78	0.0006246
2623.43	0.0006514
2633.07	0.000623
2642.72	0.0006121
2652.36	0.0006744
2662.01	0.00070651
2671.65	0.00072446
2681.29	0.0006099
2690.94	0.0006098
2700.58	0.0006399
2710.23	0.000452
2719.87	0.0006259
2729.52	0.0006018
2739.16	0.0006022
2748.81	0.0008331
2758.45	0.0006166
2768.1	0.000561
2777.74	0.00071476
2787.39	0.00070309
2797.03	0.00070867
2806.68	0.00072695
2816.32	0.0008004
2825.97	0.000963
2835.61	0.0009776
2845.26	0.0012462
2854.9	0.001261
2864.55	0.0015738
2874.19	0.001863
2883.84	0.0016552
2893.48	0.0015604
2903.12	0.001713
2912.77	0.001833
2922.41	0.002453
2932.06	0.004073
2941.7	0.004783
2951.35	0.003303
2960.99	0.002923
2970.64	0.003033
2980.28	0.003133
2989.93	0.003443
2999.57	0.002903
3009.22	0.002093
3018.86	0.002073
3028.51	0.002463
3038.15	0.002863
3047.8	0.002513
3057.44	0.002353
3067.09	0.003193
3076.73	0.003443
3086.38	0.002673
3096.02	0.0013582
3105.67	0.001114
3115.31	0.0008153
3124.95	0.0006497
3134.6	0.00073702
3144.24	0.00055
3153.89	0.0006666
3163.53	0.000507
3173.18	0.000625
3182.82	0.000525
3192.47	0.000461
3202.11	0.000448
3211.76	0.000554
3221.4	0.000484
3231.05	0.000376
3240.69	0.000389
3250.34	0.0004
3259.98	0.000468
3269.63	0.000386
3279.27	0.000423
3288.92	0.000475
3298.56	0.000389
3308.21	0.000449
3317.85	0.000446
3327.49	0.000382
3337.14	0.00046
3346.78	0.000368
3356.43	0.00047
3366.07	0.000353
3375.72	0.00048
3385.36	0.000276
3395.01	0.000458
3404.65	0.000421
3414.3	0.000504
3423.94	0.000295
3433.59	0.000431
3443.23	0.000484
3452.88	0.000239
3462.52	0.000494
3472.17	0.000415
3481.81	0.000536
3491.46	0.0009187
3501.1	0.0013126
3510.75	0.0012887
3520.39	0.0011518
3530.04	0.000989
3539.68	0.0008813
3549.32	0.0011376
3558.97	0.002073
3568.61	0.009863
3578.26	0.036993
3587.9	0.035553
3597.55	0.006473
3607.19	0.0013536
3616.84	0.0008534
3626.48	0.0009025
3636.13	0.000481
3645.77	0.00044
3655.42	0.000381
3665.06	0.000496
3674.71	0.000341
3684.35	0.000372
3694	0.000385
3703.64	0.000388
3713.29	0.000417
3722.93	0.000358
3732.58	0.000547
3742.22	0.000551
3751.86	0.000324
3761.51	0.000219
3771.15	0.000292
3780.8	0.00045
3790.44	0.000574
3800.09	0.000246
3809.73	0.000207
3819.38	0.000449
3829.02	0.000322
3838.67	0.000367
3848.31	0.000197
3857.96	0.000386
3867.6	0.000241
3877.25	0.000143
3886.89	0.000209
3896.54	0.00025
3906.18	0.0003
3915.83	0.000488
3925.47	0.000232
3935.12	0.000405
3944.76	0.000403
3954.41	0.000306
3964.05	0.000396
3973.69	0.000491
3983.34	0.000225
3992.98	0.000204
