Infrared Spectrum: 2,2,4-Trimethyl-3-pentanol
Formula: C 8 H 18 O
CAS: 5162-48-1
State: gas
Instrument: HP-GC/MS/IRD
Origin: NIST Mass Spectrometry Data Center
1/CM	ABSORBANCE
550	0.0004968
562	0.0002806
574	0.0003174
586	0.0003036
598	0.0002806
610	0.0003174
622	0.00046
634	0.0003726
646	0.0001702
658	0.0001058
670	6.9e-05
682	6.44e-05
694	4.6e-05
706	5.06e-05
718	8.28e-05
730	0.0001932
742	0.0003404
754	0.0004692
766	0.0003956
778	0.0002576
790	0.0001886
802	0.000253
814	0.0002438
826	0.0002346
838	0.0002392
850	0.0002116
862	0.0002806
874	0.000552
886	0.0006394
898	0.0005796
910	0.0008234
922	0.0013432
934	0.0018768
946	0.0027048
958	0.004186
970	0.0062882
982	0.0090344
994	0.0099406
1006	0.0068586
1018	0.0042826
1030	0.0043286
1042	0.003933
1054	0.0026496
1066	0.0019228
1078	0.0020102
1090	0.002461
1102	0.0032338
1114	0.0041262
1126	0.0037168
1138	0.0027968
1150	0.0028658
1162	0.0036892
1174	0.0039054
1186	0.0033212
1198	0.0031418
1210	0.0030682
1222	0.0031924
1234	0.0032798
1246	0.00299
1258	0.002576
1270	0.0023092
1282	0.0020838
1294	0.001817
1306	0.00161
1318	0.0014214
1330	0.001495
1342	0.0019918
1354	0.0038962
1366	0.0071898
1378	0.007544
1390	0.0066148
1402	0.005336
1414	0.00276
1426	0.001725
1438	0.0020148
1450	0.0031556
1462	0.0054464
1474	0.0074842
1486	0.0060674
1498	0.0029118
1510	0.0012604
1522	0.0007498
1534	0.0004922
1546	0.000391
1558	0.0004002
1570	0.0002346
1582	0.0002024
1594	0.0001978
1606	0.0001794
1618	0.0002116
1630	0.000184
1642	0.0001794
1654	0.000253
1666	0.0001748
1678	0.0001472
1690	0.000115
1702	0.0001748
1714	0.0001334
1726	7.36e-05
1738	8.28e-05
1750	8.28e-05
1762	6.9e-05
1774	6.9e-05
1786	5.06e-05
1798	3.68e-05
1810	2.3e-05
1822	2.3e-05
1834	3.68e-05
1846	3.68e-05
1858	3.68e-05
1870	6.44e-05
1882	2.3e-05
1894	1.84e-05
1906	9.2e-06
1918	2.76e-05
1930	1.84e-05
1942	5.52e-05
1954	3.22e-05
1966	7.36e-05
1978	6.44e-05
1990	5.06e-05
2002	3.22e-05
2014	2.3e-05
2026	3.22e-05
2038	1.38e-05
2050	2.3e-05
2062	4.6e-06
2074	1.38e-05
2086	2.3e-05
2098	1.84e-05
2110	3.68e-05
2122	3.68e-05
2134	3.68e-05
2146	2.3e-05
2158	2.76e-05
2170	2.3e-05
2182	0
2194	1.38e-05
2206	0
2218	0
2230	2.3e-05
2242	2.3e-05
2254	3.22e-05
2266	1.84e-05
2278	6.44e-05
2290	5.98e-05
2302	7.36e-05
2314	7.36e-05
2326	7.82e-05
2338	8.74e-05
2350	6.44e-05
2362	0.0001242
2374	0.0001012
2386	8.74e-05
2398	0.0001058
2410	0.0001196
2422	0.0001058
2434	9.2e-05
2446	9.2e-05
2458	9.66e-05
2470	0.0001058
2482	9.2e-05
2494	8.74e-05
2506	0.0001012
2518	7.36e-05
2530	0.000115
2542	0.0001104
2554	0.0001564
2566	0.0001978
2578	0.0002438
2590	0.0002806
2602	0.0002898
2614	0.0003542
2626	0.0004094
2638	0.0004278
2650	0.0004968
2662	0.0005198
2674	0.000575
2686	0.0006808
2698	0.0006946
2710	0.0008142
2722	0.0009246
2734	0.000966
2746	0.0009108
2758	0.0009062
2770	0.0009568
2782	0.0010488
2794	0.001242
2806	0.0015594
2818	0.0020194
2830	0.002875
2842	0.0044712
2854	0.007291
2866	0.0119968
2878	0.0168176
2890	0.0167624
2902	0.0151064
2914	0.0166198
2926	0.019872
2938	0.0239798
2950	0.032384
2962	0.0446982
2974	0.0406824
2986	0.0228206
2998	0.0112332
3010	0.0054602
3022	0.0028658
3034	0.001748
3046	0.0012788
3058	0.0010258
3070	0.00092
3082	0.000851
3094	0.0007774
3106	0.000713
3118	0.0006486
3130	0.0006486
3142	0.0006164
3154	0.0006486
3166	0.0006118
3178	0.0005566
3190	0.0005612
3202	0.0004968
3214	0.000437
3226	0.0003404
3238	0.0002622
3250	0.000184
3262	0.000184
3274	0.0001426
3286	0.0001196
3298	9.66e-05
3310	6.44e-05
3322	7.36e-05
3334	6.44e-05
3346	4.6e-05
3358	5.52e-05
3370	7.82e-05
3382	7.82e-05
3394	0.0001104
3406	7.82e-05
3418	0.0001058
3430	0.0001058
3442	9.2e-05
3454	0.0001196
3466	0.0001196
3478	0.000115
3490	0.0001058
3502	0.000115
3514	6.9e-05
3526	2.3e-05
3538	0
3550	3.68e-05
3562	3.22e-05
3574	3.22e-05
3586	5.52e-05
3598	6.9e-05
3610	0.0001518
3622	0.0002806
3634	0.000621
3646	0.0012604
3658	0.0020562
3670	0.002369
3682	0.001334
3694	0.0004278
3706	0.0001794
3718	9.2e-05
3730	8.74e-05
3742	0.000115
3754	6.9e-05
3766	4.14e-05
3778	5.52e-05
3790	7.36e-05
3802	0.000115
3814	0.0001334
3826	0.0001426
3838	0.0001886
