Infrared Spectrum: 4-Iodophenylacetonitrile
Formula: C 8 H 6 I N
CAS: 51628-12-7
State: gas
Origin: EPA-IR VAPOR PHASE LIBRARY
1/CM	ABSORBANCE
549.8	0.001302
559.445	0.0005982
569.09	0.000427701
578.734	0.0008769
588.379	0.0010563
598.024	0.0012545
607.669	0.0010278
617.313	0.001649
626.958	0.002529
636.603	0.004199
646.248	0.002479
655.893	0.001539
665.537	0.001519
675.182	0.001609
684.827	0.002039
694.472	0.001979
704.116	0.002019
713.761	0.002169
723.406	0.002289
733.051	0.002509
742.695	0.002519
752.34	0.003339
761.985	0.006389
771.63	0.012889
781.275	0.024059
790.919	0.032359
800.564	0.029749
810.209	0.020799
819.854	0.014749
829.498	0.011849
839.143	0.007139
848.788	0.003639
858.433	0.002199
868.078	0.001779
877.722	0.002079
887.367	0.001839
897.012	0.001989
906.657	0.002729
916.301	0.002899
925.946	0.002829
935.591	0.003129
945.236	0.003359
954.88	0.002609
964.525	0.002099
974.17	0.001879
983.815	0.002359
993.46	0.005269
1003.1	0.031529
1012.75	0.067699
1022.39	0.006049
1032.04	0.002259
1041.68	0.002089
1051.33	0.006649
1060.97	0.023319
1070.62	0.009449
1080.26	0.003239
1089.91	0.002799
1099.55	0.002169
1109.2	0.003399
1118.84	0.003549
1128.49	0.002389
1138.13	0.0013075
1147.78	0.0010405
1157.42	0.001779
1167.07	0.001649
1176.71	0.004409
1186.36	0.008039
1196	0.004509
1205.64	0.002539
1215.29	0.003969
1224.93	0.004139
1234.58	0.002509
1244.22	0.002259
1253.87	0.002139
1263.51	0.002049
1273.16	0.001909
1282.8	0.002179
1292.45	0.003119
1302.09	0.003329
1311.74	0.002689
1321.38	0.002149
1331.03	0.001769
1340.67	0.001529
1350.32	0.001619
1359.96	0.001619
1369.61	0.002129
1379.25	0.003679
1388.9	0.007089
1398.54	0.011329
1408.18	0.013159
1417.83	0.013279
1427.47	0.016679
1437.12	0.009179
1446.76	0.005809
1456.41	0.005209
1466.05	0.005949
1475.7	0.020119
1485.34	0.064159
1494.99	0.031789
1504.63	0.006199
1514.28	0.003189
1523.92	0.002099
1533.57	0.001589
1543.21	0.001519
1552.86	0.001509
1562.5	0.001819
1572.15	0.002319
1581.79	0.004179
1591.44	0.005109
1601.08	0.004209
1610.73	0.002919
1620.37	0.002489
1630.01	0.002159
1639.66	0.001789
1649.3	0.0013614
1658.95	0.0011967
1668.59	0.000879
1678.24	0.0007601
1687.88	0.0007457
1697.53	0.0007598
1707.17	0.0008465
1716.82	0.0008624
1726.46	0.000996
1736.11	0.0013533
1745.75	0.001439
1755.4	0.0012245
1765.04	0.0012632
1774.69	0.002529
1784.33	0.002529
1793.98	0.001004
1803.62	0.0006796
1813.27	0.0005708
1822.91	0.0006683
1832.55	0.0007144
1842.2	0.0006531
1851.84	0.0008448
1861.49	0.0012647
1871.13	0.001689
1880.78	0.002089
1890.42	0.002249
1900.07	0.002499
1909.71	0.002359
1919.36	0.001679
1929	0.0010245
1938.65	0.0006819
1948.29	0.0005742
1957.94	0.0005364
1967.58	0.00051796
1977.23	0.00050381
1986.87	0.000424053
1996.52	0.0003483
2006.16	0.0003709
2015.81	0.0005518
2025.45	0.0005419
2035.1	0.00043102
2044.74	0.00044679
2054.38	0.0005167
2064.03	0.00049603
2073.67	0.000634
2083.32	0.00050853
2092.96	0.0005534
2102.61	0.000616
2112.25	0.0005673
2121.9	0.0006564
2131.54	0.0005372
2141.19	0.0005415
2150.83	0.00043235
2160.48	0.0003976
2170.12	0.0003858
2179.77	0.0003812
2189.41	0.00041519
2199.06	0.0003778
2208.7	0.00047733
2218.35	0.0005219
2227.99	0.0005978
2237.64	0.000875
2247.28	0.001429
2256.92	0.002039
2266.57	0.001549
2276.21	0.0009504
2285.86	0.0008353
2295.5	0.0009019
2305.15	0.0009678
2314.79	0.0008648
2324.44	0.0007972
2334.08	0.0008014
2343.73	0.0006628
2353.37	0.0007273
2363.02	0.0007618
2372.66	0.0007646
2382.31	0.0006686
2391.95	0.0006116
2401.6	0.0006201
2411.24	0.0006405
2420.89	0.0005498
2430.53	0.00048239
2440.18	0.00046766
2449.82	0.00049785
2459.47	0.0004565
2469.11	0.0005373
2478.75	0.00050482
2488.4	0.0005796
2498.04	0.0005582
2507.69	0.00046724
2517.33	0.0006678
2526.98	0.0006618
2536.62	0.0007771
2546.27	0.0009306
2555.91	0.0006438
2565.56	0.0007259
2575.2	0.0008596
2584.85	0.0011702
2594.49	0.0012379
2604.14	0.0010983
2613.78	0.0007805
2623.43	0.0005642
2633.07	0.0005936
2642.72	0.0005803
2652.36	0.00050296
2662.01	0.0005558
2671.65	0.0005405
2681.29	0.00041198
2690.94	0.00049799
2700.58	0.0005977
2710.23	0.0005249
2719.87	0.0005227
2729.52	0.0006884
2739.16	0.00041694
2748.81	0.0006923
2758.45	0.0006358
2768.1	0.0005806
2777.74	0.00051872
2787.39	0.0006263
2797.03	0.000562
2806.68	0.0005443
2816.32	0.0007446
2825.97	0.0010247
2835.61	0.0013348
2845.26	0.0011735
2854.9	0.0007631
2864.55	0.0008471
2874.19	0.0006624
2883.84	0.0005899
2893.48	0.000696
2903.12	0.0008343
2912.77	0.001519
2922.41	0.003089
2932.06	0.004819
2941.7	0.003589
2951.35	0.002169
2960.99	0.002009
2970.64	0.002139
2980.28	0.001619
2989.93	0.001669
2999.57	0.001579
3009.22	0.001979
3018.86	0.003639
3028.51	0.007179
3038.15	0.006619
3047.8	0.005239
3057.44	0.005169
3067.09	0.005449
3076.73	0.004509
3086.38	0.004709
3096.02	0.003699
3105.67	0.001809
3115.31	0.0007995
3124.95	0.0006112
3134.6	0.0003541
3144.24	0.0007052
3153.89	0.00045061
3163.53	0.0006575
3173.18	0.0006531
3182.82	0.0009024
3192.47	0.0008614
3202.11	0.0007735
3211.76	0.0005705
3221.4	0.0003456
3231.05	0.000281
3240.69	0.0004159
3250.34	0.00047629
3259.98	0.0005821
3269.63	0.0003696
3279.27	0.000189
3288.92	0.0003424
3298.56	0.0003212
3308.21	0.00019
3317.85	0.000232
3327.49	0.00019
3337.14	0.000187
3346.78	0.000173
3356.43	0.000123
3366.07	0.000298
3375.72	0.00041603
3385.36	0.00045593
3395.01	0.000232
3404.65	0.000118
3414.3	0.0003433
3423.94	0.00041765
3433.59	0.0003328
3443.23	0.0003295
3452.88	0.000208
3462.52	0.0004075
3472.17	9.6e-05
3481.81	0.000251
3491.46	0.000244
3501.1	0.0003262
3510.75	0.000131
3520.39	0.000420071
3530.04	0.000183
3539.68	0.000211
3549.32	0.0003351
3558.97	0.0003706
3568.61	0.00040969
3578.26	0.000239
3587.9	0.000359
3597.55	0.000172
3607.19	0.0003504
3616.84	0.000317
3626.48	0.00041657
3636.13	0.000318
3645.77	0.0005439
3655.42	0.00043705
3665.06	0.0004351
3674.71	0.00049729
3684.35	0.000584
3694	0.0004052
3703.64	0.000628
3713.29	0.0005722
3722.93	0.0003769
3732.58	0.00043757
3742.22	0.0003483
3751.86	0.0003445
3761.51	0.00048258
3771.15	0.0003309
3780.8	0.0002
3790.44	0.000197
3800.09	0.00051117
3809.73	0.000121
3819.38	0.000157
3829.02	0.000321
3838.67	0.00050626
3848.31	0.0003196
3857.96	0.00023
3867.6	0.0006841
3877.25	0.00045284
3886.89	0.000317
3896.54	0.0004089
3906.18	0.00040977
3915.83	0.0003946
3925.47	0.000265
3935.12	0.0003484
3944.76	0.0003533
3954.41	0.000187
3964.05	0.0003471
3973.69	0.00048896
3983.34	0.000228
3992.98	0.000215
