Infrared Spectrum: 4-Ethylphenylacetonitrile
Formula: C 10 H 11 N
CAS: 51632-28-1
State: gas
Origin: EPA-IR VAPOR PHASE LIBRARY
1/CM	ABSORBANCE
549.8	0.003157
559.445	0.002507
569.09	0.002637
578.734	0.002497
588.379	0.002267
598.024	0.002637
607.669	0.001877
617.313	0.0013143
626.958	0.0008641
636.603	0.0010219
646.248	0.0007261
655.893	0.0008947
665.537	0.0012581
675.182	0.001567
684.827	0.002037
694.472	0.002377
704.116	0.002587
713.761	0.002657
723.406	0.002757
733.051	0.003127
742.695	0.003067
752.34	0.003117
761.985	0.003167
771.63	0.003867
781.275	0.005717
790.919	0.009367
800.564	0.014097
810.209	0.016757
819.854	0.015827
829.498	0.012097
839.143	0.008277
848.788	0.005127
858.433	0.003337
868.078	0.002107
877.722	0.001587
887.367	0.0012365
897.012	0.001687
906.657	0.002087
916.301	0.002207
925.946	0.002327
935.591	0.002047
945.236	0.001917
954.88	0.001997
964.525	0.002767
974.17	0.002637
983.815	0.001657
993.46	0.0012736
1003.1	0.001487
1012.75	0.003757
1022.39	0.005727
1032.04	0.002527
1041.68	0.002337
1051.33	0.002937
1060.97	0.004377
1070.62	0.003037
1080.26	0.0010059
1089.91	0.0011159
1099.55	0.001667
1109.2	0.002397
1118.84	0.003007
1128.49	0.002827
1138.13	0.0013428
1147.78	0.0013103
1157.42	0.0010841
1167.07	0.0010752
1176.71	0.0007249
1186.36	0.0012373
1196	0.002517
1205.64	0.002297
1215.29	0.001917
1224.93	0.002837
1234.58	0.003097
1244.22	0.002067
1253.87	0.001517
1263.51	0.002087
1273.16	0.002297
1282.8	0.002527
1292.45	0.003197
1302.09	0.003587
1311.74	0.003737
1321.38	0.004487
1331.03	0.004207
1340.67	0.002907
1350.32	0.002217
1359.96	0.002137
1369.61	0.002347
1379.25	0.002857
1388.9	0.003397
1398.54	0.004427
1408.18	0.006807
1417.83	0.010797
1427.47	0.014327
1437.12	0.011417
1446.76	0.008087
1456.41	0.007537
1466.05	0.007237
1475.7	0.005877
1485.34	0.004677
1494.99	0.006227
1504.63	0.015097
1514.28	0.025417
1523.92	0.014017
1533.57	0.003607
1543.21	0.002457
1552.86	0.001907
1562.5	0.0014602
1572.15	0.0013169
1581.79	0.0011963
1591.44	0.0012857
1601.08	0.0012354
1610.73	0.001507
1620.37	0.001777
1630.01	0.001857
1639.66	0.001757
1649.3	0.001657
1658.95	0.001597
1668.59	0.0013867
1678.24	0.0010905
1687.88	0.0009643
1697.53	0.0008053
1707.17	0.0007801
1716.82	0.0008233
1726.46	0.0008942
1736.11	0.0009899
1745.75	0.0011798
1755.4	0.001477
1765.04	0.001627
1774.69	0.001957
1784.33	0.002477
1793.98	0.001767
1803.62	0.0008293
1813.27	0.0007696
1822.91	0.0007567
1832.55	0.0008051
1842.2	0.0007678
1851.84	0.0009934
1861.49	0.0011611
1871.13	0.001487
1880.78	0.001757
1890.42	0.002097
1900.07	0.002207
1909.71	0.002197
1919.36	0.001587
1929	0.0010905
1938.65	0.0007883
1948.29	0.0006705
1957.94	0.00054866
1967.58	0.00056109
1977.23	0.0005831
1986.87	0.0006383
1996.52	0.00052471
2006.16	0.0006529
2015.81	0.00056466
2025.45	0.0007204
2035.1	0.0006444
2044.74	0.00055472
2054.38	0.000631
2064.03	0.0005982
2073.67	0.0006419
2083.32	0.00054619
2092.96	0.000668
2102.61	0.0006015
2112.25	0.0007285
2121.9	0.0005805
2131.54	0.0006155
2141.19	0.0006185
2150.83	0.00053371
2160.48	0.0005904
2170.12	0.0006487
2179.77	0.000657
2189.41	0.0006692
2199.06	0.0006919
2208.7	0.000587
2218.35	0.0006943
2227.99	0.0007945
2237.64	0.0012636
2247.28	0.001767
2256.92	0.002187
2266.57	0.001597
2276.21	0.0010507
2285.86	0.0008245
2295.5	0.000832
2305.15	0.0009111
2314.79	0.0010419
2324.44	0.001005
2334.08	0.0010653
2343.73	0.0010596
2353.37	0.0010124
2363.02	0.0008085
2372.66	0.0008659
2382.31	0.0006937
2391.95	0.0007625
2401.6	0.0007714
2411.24	0.0007678
2420.89	0.0006922
2430.53	0.0007534
2440.18	0.0006375
2449.82	0.0007197
2459.47	0.0006276
2469.11	0.00057589
2478.75	0.0006325
2488.4	0.0006112
2498.04	0.0006589
2507.69	0.0006888
2517.33	0.000692
2526.98	0.0008213
2536.62	0.0007909
2546.27	0.0007302
2555.91	0.0008123
2565.56	0.0009646
2575.2	0.0009972
2584.85	0.0010113
2594.49	0.0010203
2604.14	0.0010932
2613.78	0.0011187
2623.43	0.0010057
2633.07	0.0012243
2642.72	0.0010233
2652.36	0.0008626
2662.01	0.0008241
2671.65	0.0008692
2681.29	0.0008675
2690.94	0.0007964
2700.58	0.0009359
2710.23	0.0009239
2719.87	0.0010015
2729.52	0.0012914
2739.16	0.0013821
2748.81	0.0014079
2758.45	0.0014424
2768.1	0.0014202
2777.74	0.001677
2787.39	0.001547
2797.03	0.001677
2806.68	0.001907
2816.32	0.002237
2825.97	0.002997
2835.61	0.003977
2845.26	0.004767
2854.9	0.006047
2864.55	0.009097
2874.19	0.012547
2883.84	0.015517
2893.48	0.015717
2903.12	0.014967
2912.77	0.015937
2922.41	0.018837
2932.06	0.024297
2941.7	0.029397
2951.35	0.027497
2960.99	0.025907
2970.64	0.044797
2980.28	0.044877
2989.93	0.021177
2999.57	0.015097
3009.22	0.013577
3018.86	0.015667
3028.51	0.020077
3038.15	0.016937
3047.8	0.011937
3057.44	0.011047
3067.09	0.009527
3076.73	0.006977
3086.38	0.005687
3096.02	0.004887
3105.67	0.003887
3115.31	0.003147
3124.95	0.002457
3134.6	0.002277
3144.24	0.002027
3153.89	0.001707
3163.53	0.0013763
3173.18	0.00144
3182.82	0.0013212
3192.47	0.0014043
3202.11	0.0012025
3211.76	0.0010825
3221.4	0.0006373
3231.05	0.0007693
3240.69	0.0004322
3250.34	0.0004103
3259.98	0.0004357
3269.63	0.00052261
3279.27	0.000480267
3288.92	0.0004525
3298.56	0.0005783
3308.21	0.0006948
3317.85	0.0003976
3327.49	0.000254
3337.14	0.000321
3346.78	0.00049811
3356.43	0.0004202
3366.07	0.000349
3375.72	0.00047135
3385.36	0.000358
3395.01	0.0004342
3404.65	0.000346
3414.3	0.000343
3423.94	0.000355
3433.59	0.000335
3443.23	0.000254
3452.88	0.00027
3462.52	0.000319
3472.17	0.000292
3481.81	0.0003895
3491.46	0.000312
3501.1	0.000263
3510.75	0.0005819
3520.39	0.000214
3530.04	0.000301
3539.68	9e-05
3549.32	0.000131
3558.97	0.000207
3568.61	0.000486791
3578.26	0.0003986
3587.9	6e-05
3597.55	0.000216
3607.19	0.000309
3616.84	0.000339
3626.48	0.000198
3636.13	0.000338
3645.77	0.000257
3655.42	0.0004303
3665.06	0.00057032
3674.71	0.00061
3684.35	0.0006177
3694	0.0004128
3703.64	0.00032
3713.29	0.000362
3722.93	0.0004651
3732.58	0.00050474
3742.22	0.00047423
3751.86	0.00057088
3761.51	0.000434
3771.15	0.000192
3780.8	0.000279
3790.44	0.000131
3800.09	0.000328
3809.73	0.0004046
3819.38	0.00047151
3829.02	0.000478284
3838.67	0.0006539
3848.31	0.00052761
3857.96	0.000309
3867.6	0.0006261
3877.25	0.0005636
3886.89	0.0005793
3896.54	0.0004233
3906.18	0.0004411
3915.83	0.000341
3925.47	0.000349
3935.12	0.00056849
3944.76	0.0005993
3954.41	0.0007212
3964.05	0.000177
3973.69	0.000669
3983.34	0.0006207
3992.98	0.00050778
