Infrared Spectrum: 3-Phenoxyphenylacetonitrile
Formula: C 14 H 11 N O
CAS: 51632-29-2
State: gas
Origin: EPA-IR VAPOR PHASE LIBRARY
1/CM	ABSORBANCE
549.8	0.00123
559.445	0.0011432
569.09	0.0009769
578.734	0.0006389
588.379	0.0008535
598.024	0.00128
607.669	0.0013
617.313	0.00149
626.958	0.00135
636.603	0.00185
646.248	0.0023
655.893	0.00353
665.537	0.00497
675.182	0.0101
684.827	0.02712
694.472	0.03449
704.116	0.01586
713.761	0.00838
723.406	0.00862
733.051	0.0124
742.695	0.01658
752.34	0.021
761.985	0.02633
771.63	0.02964
781.275	0.0265
790.919	0.01773
800.564	0.01114
810.209	0.01074
819.854	0.0102
829.498	0.01003
839.143	0.00674
848.788	0.00528
858.433	0.00679
868.078	0.00754
877.722	0.00802
887.367	0.01083
897.012	0.01492
906.657	0.01395
916.301	0.00894
925.946	0.00763
935.591	0.00692
945.236	0.00673
954.88	0.01043
964.525	0.01918
974.17	0.01395
983.815	0.00633
993.46	0.0042
1003.1	0.00393
1012.75	0.0045
1022.39	0.00861
1032.04	0.00354
1041.68	0.00173
1051.33	0.00211
1060.97	0.00377
1070.62	0.00654
1080.26	0.00509
1089.91	0.00319
1099.55	0.00254
1109.2	0.00182
1118.84	0.00279
1128.49	0.00678
1138.13	0.01558
1147.78	0.01506
1157.42	0.02154
1167.07	0.02252
1176.71	0.01313
1186.36	0.01487
1196	0.02928
1205.64	0.067
1215.29	0.07278
1224.93	0.05482
1234.58	0.07985
1244.22	0.13583
1253.87	0.16077
1263.51	0.10551
1273.16	0.06363
1282.8	0.03949
1292.45	0.02843
1302.09	0.02636
1311.74	0.02495
1321.38	0.0181
1331.03	0.01306
1340.67	0.00929
1350.32	0.00565
1359.96	0.00416
1369.61	0.00393
1379.25	0.0045
1388.9	0.00461
1398.54	0.00594
1408.18	0.00819
1417.83	0.01155
1427.47	0.01807
1437.12	0.03013
1446.76	0.0604
1456.41	0.03764
1466.05	0.02584
1475.7	0.05516
1485.34	0.14518
1494.99	0.10526
1504.63	0.03033
1514.28	0.01381
1523.92	0.00931
1533.57	0.00853
1543.21	0.00913
1552.86	0.01242
1562.5	0.02368
1572.15	0.04807
1581.79	0.09574
1591.44	0.1014
1601.08	0.05808
1610.73	0.03841
1620.37	0.0183
1630.01	0.00724
1639.66	0.00436
1649.3	0.00319
1658.95	0.00257
1668.59	0.0023
1678.24	0.00232
1687.88	0.00245
1697.53	0.00264
1707.17	0.00283
1716.82	0.0029
1726.46	0.00286
1736.11	0.00268
1745.75	0.00235
1755.4	0.00249
1765.04	0.00262
1774.69	0.00285
1784.33	0.00231
1793.98	0.00199
1803.62	0.00177
1813.27	0.00173
1822.91	0.00197
1832.55	0.0022
1842.2	0.00252
1851.84	0.00304
1861.49	0.00299
1871.13	0.00258
1880.78	0.00202
1890.42	0.00177
1900.07	0.00191
1909.71	0.00233
1919.36	0.00338
1929	0.00438
1938.65	0.00358
1948.29	0.00288
1957.94	0.00209
1967.58	0.00208
1977.23	0.0022
1986.87	0.00232
1996.52	0.00215
2006.16	0.002
2015.81	0.00201
2025.45	0.00223
2035.1	0.00226
2044.74	0.00206
2054.38	0.00182
2064.03	0.00168
2073.67	0.00155
2083.32	0.00149
2092.96	0.00137
2102.61	0.0013
2112.25	0.0012002
2121.9	0.0010707
2131.54	0.0011132
2141.19	0.0010484
2150.83	0.0009799
2160.48	0.0010937
2170.12	0.0010563
2179.77	0.0010062
2189.41	0.0009701
2199.06	0.0011008
2208.7	0.0012095
2218.35	0.0011183
2227.99	0.0013
2237.64	0.0011745
2247.28	0.0016
2256.92	0.00202
2266.57	0.00164
2276.21	0.0012151
2285.86	0.00129
2295.5	0.00129
2305.15	0.00154
2314.79	0.00171
2324.44	0.00175
2334.08	0.00145
2343.73	0.00146
2353.37	0.00149
2363.02	0.00153
2372.66	0.00169
2382.31	0.00219
2391.95	0.00244
2401.6	0.0025
2411.24	0.00257
2420.89	0.00228
2430.53	0.00195
2440.18	0.00177
2449.82	0.00172
2459.47	0.00175
2469.11	0.00155
2478.75	0.00152
2488.4	0.00149
2498.04	0.00145
2507.69	0.0014
2517.33	0.00133
2526.98	0.0012113
2536.62	0.0010576
2546.27	0.0012167
2555.91	0.0010821
2565.56	0.00123
2575.2	0.00138
2584.85	0.00123
2594.49	0.00126
2604.14	0.001146
2613.78	0.0010163
2623.43	0.0009211
2633.07	0.0008164
2642.72	0.0007733
2652.36	0.0006936
2662.01	0.0005696
2671.65	0.0006202
2681.29	0.0005748
2690.94	0.0007006
2700.58	0.0008658
2710.23	0.0008061
2719.87	0.000839
2729.52	0.0009526
2739.16	0.0010174
2748.81	0.000806
2758.45	0.0008291
2768.1	0.0006482
2777.74	0.0006944
2787.39	0.0007634
2797.03	0.000623
2806.68	0.0007148
2816.32	0.0007821
2825.97	0.000946
2835.61	0.0011866
2845.26	0.0011673
2854.9	0.0007891
2864.55	0.0008986
2874.19	0.0007653
2883.84	0.0007566
2893.48	0.0008263
2903.12	0.0009343
2912.77	0.00141
2922.41	0.00221
2932.06	0.00326
2941.7	0.00258
2951.35	0.00159
2960.99	0.00143
2970.64	0.00139
2980.28	0.0010198
2989.93	0.0009435
2999.57	0.00148
3009.22	0.0023
3018.86	0.00443
3028.51	0.00794
3038.15	0.0133
3047.8	0.01654
3057.44	0.01466
3067.09	0.0167
3076.73	0.02132
3086.38	0.01792
3096.02	0.01084
3105.67	0.00677
3115.31	0.00336
3124.95	0.00185
3134.6	0.0008972
3144.24	0.0006786
3153.89	0.0006967
3163.53	0.0005444
3173.18	0.0006847
3182.82	0.0008213
3192.47	0.0007676
3202.11	0.0007314
3211.76	0.0007463
3221.4	0.0003607
3231.05	0.0003838
3240.69	0.0006484
3250.34	0.00025907
3259.98	0.00028298
3269.63	0.0004471
3279.27	0.00029663
3288.92	0.00028596
3298.56	0.0003538
3308.21	0.0004178
3317.85	0.0004152
3327.49	7e-06
3337.14	0.00025068
3346.78	0.00026507
3356.43	0.00028551
3366.07	0.0003317
3375.72	0.0003472
3385.36	0.0002064
3395.01	0.0003601
3404.65	0.0005888
3414.3	0.0003344
3423.94	0.00024143
3433.59	0.00024854
3443.23	0.0001814
3452.88	0.0001343
3462.52	0.0004029
3472.17	0.0003752
3481.81	0.00029663
3491.46	0.0003576
3501.1	0.00027618
3510.75	0.0003361
3520.39	0.000463
3530.04	0.0003611
3539.68	0.0003134
3549.32	0.0001535
3558.97	0.0003603
3568.61	0.0004008
3578.26	0.0004762
3587.9	0.00030956
3597.55	0.0004878
3607.19	0.00027517
3616.84	0.0004452
3626.48	0.0003748
3636.13	0.0004121
3645.77	0.0003875
3655.42	0.0006301
3665.06	0.0003617
3674.71	0.0003949
3684.35	0.0003627
3694	0.0005089
3703.64	0.00027037
3713.29	0.0003851
3722.93	0.0003415
3732.58	0.0003236
3742.22	0.0003965
3751.86	0.0004761
3761.51	0.00024729
3771.15	0.0003335
3780.8	0.00024953
3790.44	0.00027981
3800.09	0.0003325
3809.73	0.000626
3819.38	0.0003584
3829.02	0.0004826
3838.67	0.0003343
3848.31	0.0004631
3857.96	0.000435
3867.6	0.00024402
3877.25	0.00027241
3886.89	0.0005223
3896.54	0.0004911
3906.18	0.00026427
3915.83	0.00031421
3925.47	0.0004164
3935.12	0.0004725
3944.76	0.00026265
3954.41	0.0003336
3964.05	0
3973.69	0.00023601
3983.34	0.0005067
3992.98	0.000227381
