Infrared Spectrum: 2-Bromo-4,5-dimethoxyphenylacetonitrile
Formula: C 10 H 10 Br N O 2
CAS: 51655-39-1
State: gas
Origin: EPA-IR VAPOR PHASE LIBRARY
1/CM	ABSORBANCE
549.8	0.001745
559.445	0.001985
569.09	0.002265
578.734	0.003245
588.379	0.004285
598.024	0.003435
607.669	0.002945
617.313	0.003155
626.958	0.003235
636.603	0.003075
646.248	0.002515
655.893	0.002555
665.537	0.002435
675.182	0.001865
684.827	0.0013979
694.472	0.0013371
704.116	0.0013254
713.761	0.0014234
723.406	0.001605
733.051	0.002225
742.695	0.002365
752.34	0.002025
761.985	0.002375
771.63	0.003675
781.275	0.007525
790.919	0.015305
800.564	0.014305
810.209	0.007605
819.854	0.004695
829.498	0.004455
839.143	0.005845
848.788	0.008035
858.433	0.007695
868.078	0.008835
877.722	0.009815
887.367	0.005895
897.012	0.003955
906.657	0.004305
916.301	0.004475
925.946	0.006535
935.591	0.008655
945.236	0.008685
954.88	0.009765
964.525	0.009485
974.17	0.007105
983.815	0.006365
993.46	0.008635
1003.1	0.013595
1012.75	0.025835
1022.39	0.038605
1032.04	0.036655
1041.68	0.028555
1051.33	0.014475
1060.97	0.007225
1070.62	0.005125
1080.26	0.003595
1089.91	0.003495
1099.55	0.003155
1109.2	0.003265
1118.84	0.004235
1128.49	0.006005
1138.13	0.012045
1147.78	0.026955
1157.42	0.044075
1167.07	0.038385
1176.71	0.028055
1186.36	0.026155
1196	0.030345
1205.64	0.045045
1215.29	0.055545
1224.93	0.045445
1234.58	0.031415
1244.22	0.028975
1253.87	0.039505
1263.51	0.048875
1273.16	0.053165
1282.8	0.059715
1292.45	0.050345
1302.09	0.029665
1311.74	0.026355
1321.38	0.027585
1331.03	0.020895
1340.67	0.014385
1350.32	0.010695
1359.96	0.011575
1369.61	0.024195
1379.25	0.037155
1388.9	0.019365
1398.54	0.009885
1408.18	0.010095
1417.83	0.017385
1427.47	0.025265
1437.12	0.030525
1446.76	0.033725
1456.41	0.027135
1466.05	0.031875
1475.7	0.034785
1485.34	0.054715
1494.99	0.103475
1504.63	0.108205
1514.28	0.058405
1523.92	0.023905
1533.57	0.013465
1543.21	0.010965
1552.86	0.011965
1562.5	0.013695
1572.15	0.010985
1581.79	0.007985
1591.44	0.009955
1601.08	0.012975
1610.73	0.009515
1620.37	0.004785
1630.01	0.003325
1639.66	0.002665
1649.3	0.002405
1658.95	0.002355
1668.59	0.002305
1678.24	0.002305
1687.88	0.001995
1697.53	0.001545
1707.17	0.001495
1716.82	0.001495
1726.46	0.001545
1736.11	0.001585
1745.75	0.001705
1755.4	0.001705
1765.04	0.001605
1774.69	0.001495
1784.33	0.001465
1793.98	0.0013565
1803.62	0.0012341
1813.27	0.0013481
1822.91	0.0012859
1832.55	0.0012142
1842.2	0.0011518
1851.84	0.0011728
1861.49	0.0010674
1871.13	0.0009786
1880.78	0.0011215
1890.42	0.0010393
1900.07	0.0011112
1909.71	0.0010287
1919.36	0.0009634
1929	0.0010752
1938.65	0.0011669
1948.29	0.0013809
1957.94	0.001515
1967.58	0.001605
1977.23	0.001715
1986.87	0.001845
1996.52	0.001975
2006.16	0.001895
2015.81	0.001955
2025.45	0.001775
2035.1	0.001775
2044.74	0.001845
2054.38	0.001955
2064.03	0.002185
2073.67	0.002165
2083.32	0.001845
2092.96	0.001505
2102.61	0.0012226
2112.25	0.0011043
2121.9	0.0009796
2131.54	0.0009046
2141.19	0.0008941
2150.83	0.0009315
2160.48	0.0008853
2170.12	0.0009497
2179.77	0.0009753
2189.41	0.0008911
2199.06	0.0009175
2208.7	0.0009483
2218.35	0.0009965
2227.99	0.0010199
2237.64	0.0011541
2247.28	0.001575
2256.92	0.001695
2266.57	0.0013497
2276.21	0.001189
2285.86	0.0012439
2295.5	0.0012816
2305.15	0.0012001
2314.79	0.0010599
2324.44	0.0009308
2334.08	0.0008896
2343.73	0.0008095
2353.37	0.0007668
2363.02	0.0007091
2372.66	0.0007722
2382.31	0.0008806
2391.95	0.0008907
2401.6	0.0007838
2411.24	0.0008411
2420.89	0.000786
2430.53	0.0008575
2440.18	0.0008827
2449.82	0.0008435
2459.47	0.0009562
2469.11	0.0008951
2478.75	0.0009041
2488.4	0.001031
2498.04	0.0009883
2507.69	0.0010126
2517.33	0.0010364
2526.98	0.0012939
2536.62	0.0012172
2546.27	0.0014486
2555.91	0.001655
2565.56	0.001805
2575.2	0.001855
2584.85	0.001815
2594.49	0.001695
2604.14	0.001655
2613.78	0.0013595
2623.43	0.0010247
2633.07	0.0010264
2642.72	0.0008941
2652.36	0.0008491
2662.01	0.000862
2671.65	0.0007527
2681.29	0.0008367
2690.94	0.0009243
2700.58	0.0008632
2710.23	0.0008975
2719.87	0.0010199
2729.52	0.000913
2739.16	0.0010732
2748.81	0.0011434
2758.45	0.0012865
2768.1	0.0013506
2777.74	0.0013015
2787.39	0.001685
2797.03	0.002015
2806.68	0.002935
2816.32	0.004085
2825.97	0.005785
2835.61	0.008695
2845.26	0.015225
2854.9	0.016465
2864.55	0.009735
2874.19	0.007095
2883.84	0.006845
2893.48	0.007965
2903.12	0.009755
2912.77	0.012535
2922.41	0.014855
2932.06	0.017795
2941.7	0.026965
2951.35	0.028415
2960.99	0.022235
2970.64	0.018215
2980.28	0.013555
2989.93	0.011725
2999.57	0.014145
3009.22	0.020155
3018.86	0.015625
3028.51	0.007335
3038.15	0.004965
3047.8	0.004085
3057.44	0.003425
3067.09	0.002965
3076.73	0.003015
3086.38	0.002665
3096.02	0.002155
3105.67	0.001855
3115.31	0.001525
3124.95	0.0012324
3134.6	0.0012915
3144.24	0.0010826
3153.89	0.0010725
3163.53	0.0009202
3173.18	0.0009245
3182.82	0.0010085
3192.47	0.0007839
3202.11	0.0008461
3211.76	0.0007759
3221.4	0.0006822
3231.05	0.0006062
3240.69	0.00053126
3250.34	0.0004089
3259.98	0.000472636
3269.63	0.0004172
3279.27	0.000293
3288.92	0.0003861
3298.56	0.000309
3308.21	0.000363
3317.85	0.00034
3327.49	0.000296
3337.14	0.00050375
3346.78	2.7e-05
3356.43	0.00035
3366.07	0.000205
3375.72	0.000304
3385.36	0.0004149
3395.01	0.000346
3404.65	0.000232
3414.3	0.000224
3423.94	0.000333
3433.59	0.0003799
3443.23	0.0003986
3452.88	0.000226
3462.52	0.000196
3472.17	0.000141
3481.81	0.0003772
3491.46	0.00034
3501.1	0.000145
3510.75	0.00045912
3520.39	0.000402
3530.04	0.000165
3539.68	0.00033
3549.32	0.0003661
3558.97	0.0004314
3568.61	0.000359
3578.26	0.000332
3587.9	0.00024
3597.55	0.000342
3607.19	0.000265
3616.84	0.000224
3626.48	0.000313
3636.13	0.000261
3645.77	0.000113
3655.42	0.000286
3665.06	0.00025
3674.71	0.000225
3684.35	0.00026
3694	9e-05
3703.64	0.00028
3713.29	0.000155
3722.93	0.0003855
3732.58	0.000225
3742.22	0.000193
3751.86	0.00036
3761.51	0.000326
3771.15	0.00032
3780.8	0.0003688
3790.44	0.0003967
3800.09	0.0004311
3809.73	0.0004265
3819.38	0.000361
3829.02	0.00048581
3838.67	0.000194
3848.31	0.000295
3857.96	0.00055497
3867.6	0.000471856
3877.25	0.000303
3886.89	0.000336
3896.54	0.00047704
3906.18	0.0003907
3915.83	0.00035
3925.47	0.000364
3935.12	0.000333
3944.76	0.000231
3954.41	0.0004087
3964.05	0.0004493
3973.69	0.00051122
3983.34	0.000423
3992.98	0.000468265
