Infrared Spectrum: Acetic acid, bromo(o-hydroxyphenyl)phenyl-, Gamma-lactone
Formula: C14 H9 Br O2
CAS: 51656-58-7
State: SOLUTION (7% CHCl3 FOR 2.5-13.2 MICRON) VS SOLVENT
Class: COBLENTZ
Instrument: PERKIN-ELMER 21 (GRATING)
Instrument parameters: FILTER AT ABOUT 10 MICRONS
Path length: 0.010 CM
Resolution: 2
Origin: ABBOTT LABORATORIES
1/CM	TRANSMITTANCE
664	1.02
673	1.02
682	1.0201
691	1.0201
700	1.0202
709	1.0203
718	1.0203
727	1.0204
736	1.0204
745	1.0205
754	1.0205
763	0.9898
772	0.9687
781	0.9638
790	0.9501
799	0.9295
808	0.8899
817	0.8775
826	0.8358
835	0.7857
844	0.8115
853	0.8147
862	0.7128
871	0.55
880	0.7689
889	0.7959
898	0.7627
907	0.6671
916	0.7749
925	0.5357
934	0.3628
943	0.7043
952	0.809
961	0.811
970	0.8091
979	0.8187
988	0.8207
997	0.7732
1006	0.8022
1015	0.6997
1024	0.7966
1033	0.7414
1042	0.655
1051	0.403
1060	0.1022
1069	0.2867
1078	0.5286
1087	0.7915
1096	0.8067
1105	0.7824
1114	0.55
1123	0.2249
1132	0.6016
1141	0.7521
1150	0.7667
1159	0.6886
1168	0.7787
1177	0.787
1186	0.7926
1195	0.7663
1204	0.6598
1213	0.6115
1222	0.5802
1231	0.6868
1240	0.7965
1249	0.7957
1258	0.7943
1267	0.7845
1276	0.6957
1285	0.5367
1294	0.7106
1303	0.7199
1312	0.6612
1321	0.7308
1330	0.8153
1339	0.8167
1348	0.8233
1357	0.8244
1366	0.8208
1375	0.8159
1384	0.8162
1393	0.8236
1402	0.8359
1411	0.8621
1420	0.8581
1429	0.8211
1438	0.7022
1447	0.6987
1456	0.4124
1465	0.5086
1474	0.598
1483	0.7116
1492	0.6597
1501	0.8768
1510	0.8865
1519	0.8831
1528	0.8729
1537	0.8596
1546	0.8512
1555	0.8384
1564	0.8343
1573	0.8132
1582	0.7808
1591	0.6707
1600	0.5991
1609	0.6327
1618	0.4681
1627	0.7918
1636	0.831
1645	0.8348
1654	0.8335
1663	0.8297
1672	0.8254
1681	0.8222
1690	0.8213
1699	0.8201
1708	0.8185
1717	0.8179
1726	0.821
1735	0.8121
1744	0.8112
1753	0.8028
1762	0.7566
1771	0.7243
1780	0.7059
1789	0.5579
1798	0.3317
1807	0.1292
1816	0.071
1825	0.408
1834	0.5699
1843	0.6214
1852	0.7105
1861	0.7553
1870	0.7742
1879	0.7969
1888	0.8272
1897	0.8322
1906	0.8351
1915	0.837
1924	0.841
1933	0.8366
1942	0.8294
1951	0.8237
1960	0.8365
1969	0.8403
1978	0.84
1987	0.84
1996	0.8423
2005	0.8478
2014	0.8519
2023	0.8551
2032	0.8566
2041	0.8578
2050	0.8583
2059	0.858
2068	0.8573
2077	0.8568
2086	0.8562
2095	0.8556
2104	0.855
2113	0.8546
2122	0.8549
2131	0.8553
2140	0.8557
2149	0.8565
2158	0.8574
2167	0.8583
2176	0.8595
2185	0.8617
2194	0.8639
2203	0.8656
2212	0.8673
2221	0.8665
2230	0.8657
2239	0.8648
2248	0.8636
2257	0.862
2266	0.8605
2275	0.8595
2284	0.8592
2293	0.8598
2302	0.8635
2311	0.8689
2320	0.8786
2329	0.8845
2338	0.8885
2347	0.8905
2356	0.8923
2365	0.8938
2374	0.8951
2383	0.8955
2392	0.895
2401	0.8915
2410	0.8866
2419	0.8832
2428	0.8803
2437	0.8791
2446	0.8778
2455	0.8769
2464	0.8768
2473	0.8766
2482	0.8764
2491	0.8762
2500	0.8761
2509	0.876
2518	0.8758
2527	0.8757
2536	0.8754
2545	0.8752
2554	0.8749
2563	0.8747
2572	0.8745
2581	0.8745
2590	0.8747
2599	0.875
2608	0.8752
2617	0.8754
2626	0.8756
2635	0.8758
2644	0.876
2653	0.8762
2662	0.8765
2671	0.8769
2680	0.8772
2689	0.8774
2698	0.8777
2707	0.878
2716	0.8783
2725	0.8786
2734	0.879
2743	0.8794
2752	0.8799
2761	0.8803
2770	0.8807
2779	0.8813
2788	0.8824
2797	0.8834
2806	0.8845
2815	0.8856
2824	0.8866
2833	0.8878
2842	0.889
2851	0.8898
2860	0.8905
2869	0.8913
2878	0.8918
2887	0.8922
2896	0.8926
2905	0.8929
2914	0.8926
2923	0.892
2932	0.8913
2941	0.8889
2950	0.8858
2959	0.8811
2968	0.8745
2977	0.868
2986	0.8614
2995	0.8556
3004	0.8503
3013	0.8453
3022	0.8413
3031	0.8375
3040	0.8357
3049	0.8343
3058	0.8353
3067	0.8392
3076	0.845
3085	0.8515
3094	0.8582
3103	0.8645
3112	0.8697
3121	0.8743
3130	0.8778
3139	0.8811
3148	0.8829
3157	0.8845
3166	0.8861
3175	0.887
3184	0.8877
3193	0.8884
3202	0.889
3211	0.8896
3220	0.8896
3229	0.8896
3238	0.8895
3247	0.8895
3256	0.8893
3265	0.889
3274	0.8886
3283	0.8882
3292	0.8879
3301	0.8875
3310	0.8872
3319	0.887
3328	0.8868
3337	0.8866
3346	0.8864
3355	0.8862
3364	0.8861
3373	0.8859
3382	0.8857
3391	0.8855
3400	0.8854
3409	0.8852
3418	0.8851
3427	0.885
3436	0.8849
3445	0.8848
3454	0.8847
3463	0.8847
3472	0.8846
3481	0.8845
3490	0.8844
3499	0.884
3508	0.8835
3517	0.883
3526	0.8826
3535	0.8821
3544	0.8817
3553	0.8813
3562	0.8808
3571	0.8805
3580	0.88
3589	0.8797
3598	0.8793
3607	0.8795
3616	0.88
3625	0.8806
3634	0.8814
3643	0.8831
3652	0.8849
3661	0.8865
3670	0.8873
3679	0.8879
3688	0.8883
3697	0.8883
3706	0.8883
3715	0.8883
3724	0.8884
3733	0.8884
3742	0.8884
3751	0.8884
3760	0.8885
3769	0.8885
3778	0.8885
3787	0.8886
3796	0.8886
3805	0.8886
3814	0.8886
3823	0.8887
3832	0.8887
3841	0.8885
3850	0.8884
3859	0.8882
3868	0.8881
3877	0.8879
3886	0.8878
3895	0.8877
3904	0.8876
3913	0.8874
3922	0.8873
3931	0.8872
3940	0.8871
3949	0.887
3958	0.8868
3967	0.8867
3976	0.8866
3985	0.8865
3994	0.8864
