Infrared Spectrum: 1-Decene, 2-butyl-
Formula: C14 H28
CAS: 51655-65-3
State: LIQUID (NEAT)
Class: COBLENTZ III
Instrument: BECKMAN IR-12 (GRATING)
Instrument parameters: GRATING
Sampling: TRANSMISSION
Path length: CAPILLARY
Resolution: 2
Origin: COLGATE-PALMOLIVE COMPANY (KELLENBACH)
1/CM	TRANSMITTANCE
402	0.6866
412	0.7185
422	0.761
432	0.8024
442	0.8377
452	0.863
462	0.8862
472	0.9039
482	0.9166
492	0.9325
502	0.9453
512	0.945
522	0.9472
532	0.9511
542	0.9552
552	0.9508
562	0.9397
572	0.9366
582	0.9332
592	0.9355
602	0.938
612	0.9401
622	0.942
632	0.9497
642	0.9591
652	0.9414
662	0.9077
672	0.9033
682	0.9016
692	0.8967
702	0.8874
712	0.8596
722	0.7266
732	0.7307
742	0.773
752	0.8178
762	0.8447
772	0.8523
782	0.8656
792	0.8641
802	0.8799
812	0.886
822	0.8887
832	0.8808
842	0.8858
852	0.8777
862	0.863
872	0.8153
882	0.545
892	0.2308
902	0.646
912	0.8134
922	0.8539
932	0.8448
942	0.8477
952	0.8711
962	0.8791
972	0.8871
982	0.8882
992	0.8865
1002	0.886
1012	0.8851
1022	0.8788
1032	0.8795
1042	0.8766
1052	0.8686
1062	0.8642
1072	0.8666
1082	0.8626
1092	0.8606
1102	0.8516
1112	0.8518
1122	0.831
1132	0.8667
1142	0.8991
1152	0.9056
1162	0.8975
1172	0.8886
1182	0.8868
1192	0.8738
1202	0.8661
1212	0.8741
1222	0.8655
1232	0.8596
1242	0.8491
1252	0.8489
1262	0.8502
1272	0.8436
1282	0.8421
1292	0.8242
1302	0.81
1312	0.8156
1322	0.8312
1332	0.8382
1342	0.8047
1352	0.7864
1362	0.7881
1372	0.7569
1382	0.5512
1392	0.7856
1402	0.8041
1412	0.7979
1422	0.7598
1432	0.6381
1442	0.5139
1452	0.4395
1462	0.341
1472	0.448
1482	0.7179
1492	0.7995
1502	0.8431
1512	0.8356
1522	0.8563
1532	0.8708
1542	0.8565
1552	0.8795
1562	0.8615
1572	0.8885
1582	0.8816
1592	0.897
1602	0.8985
1612	0.8923
1622	0.8583
1632	0.8366
1642	0.6122
1652	0.4823
1662	0.8274
1672	0.8665
1682	0.8895
1692	0.8923
1702	0.8787
1712	0.8858
1722	0.8443
1732	0.8884
1742	0.8974
1752	0.9016
1762	0.9102
1772	0.8951
1782	0.8667
1792	0.8774
1802	0.8988
1812	0.9092
1822	0.9152
1832	0.9171
1842	0.918
1852	0.9186
1862	0.9194
1872	0.9196
1882	0.9195
1892	0.9198
1902	0.9223
1912	0.9226
1922	0.9229
1932	0.9228
1942	0.9226
1952	0.9224
1962	0.9224
1972	0.923
1982	0.9242
1992	0.923
2002	0.9155
2012	0.9119
2022	0.9088
2032	0.9068
2042	0.9055
2052	0.9046
2062	0.9046
2072	0.9051
2082	0.9062
2092	0.9085
2102	0.9108
2112	0.9104
2122	0.91
2132	0.9087
2142	0.9071
2152	0.9056
2162	0.9037
2172	0.9025
2182	0.9036
2192	0.9048
2202	0.9064
2212	0.9059
2222	0.9044
2232	0.9035
2242	0.9047
2252	0.9073
2262	0.9057
2272	0.9046
2282	0.9036
2292	0.903
2302	0.9018
2312	0.898
2322	0.8923
2332	0.8838
2342	0.8763
2352	0.8697
2362	0.8668
2372	0.8663
2382	0.8712
2392	0.8841
2402	0.8979
2412	0.9011
2422	0.9026
2432	0.9033
2442	0.9042
2452	0.9048
2462	0.9047
2472	0.9047
2482	0.9043
2492	0.9039
2502	0.9031
2512	0.9022
2522	0.9002
2532	0.8981
2542	0.8957
2552	0.8927
2562	0.8896
2572	0.8839
2582	0.8787
2592	0.877
2602	0.8762
2612	0.8759
2622	0.8754
2632	0.8707
2642	0.863
2652	0.8539
2662	0.8448
2672	0.8418
2682	0.8385
2692	0.8384
2702	0.8421
2712	0.8448
2722	0.8433
2732	0.8318
2742	0.8187
2752	0.8285
2762	0.8334
2772	0.8305
2782	0.8142
2792	0.787
2802	0.7592
2812	0.7154
2822	0.6083
2832	0.5092
2842	0.3913
2852	0.1675
2862	0.1052
2872	0.1628
2882	0.2318
2892	0.2134
2902	0.1624
2912	0.1174
2922	0.0472
2932	0.0209
2942	0.0837
2952	0.1258
2962	0.0953
2972	0.2273
2982	0.4323
2992	0.5336
3002	0.6271
3012	0.6998
3022	0.7363
3032	0.7727
3042	0.7865
3052	0.7917
3062	0.7685
3072	0.6548
3082	0.6376
3092	0.7169
3102	0.7962
3112	0.8472
3122	0.8599
3132	0.868
3142	0.8747
3152	0.8796
3162	0.8836
3172	0.8842
3182	0.8836
3192	0.8829
3202	0.8877
3212	0.8909
3222	0.8932
3232	0.8948
3242	0.8962
3252	0.8974
3262	0.8986
3272	0.8992
3282	0.8993
3292	0.8995
3302	0.8996
3312	0.8996
3322	0.8996
3332	0.8995
3342	0.8995
3352	0.8995
3362	0.8996
3372	0.8996
3382	0.8997
3392	0.8998
3402	0.9
3412	0.9002
3422	0.9003
3432	0.9005
3442	0.9007
3452	0.901
3462	0.9012
3472	0.9015
3482	0.9018
3492	0.9021
3502	0.9024
3512	0.9027
3522	0.9029
3532	0.9027
3542	0.9025
3552	0.9023
3562	0.9021
3572	0.9018
3582	0.9015
3592	0.8998
3602	0.8977
3612	0.8955
3622	0.8936
3632	0.892
3642	0.8911
3652	0.8916
3662	0.8935
3672	0.8964
3682	0.8987
3692	0.899
3702	0.8975
3712	0.896
3722	0.8937
3732	0.8908
3742	0.8866
3752	0.8828
3762	0.8871
3772	0.8949
3782	0.8992
3792	0.8972
3802	0.8947
3812	0.8915
3822	0.8883
3832	0.8863
3842	0.8845
3852	0.8843
3862	0.8842
3872	0.885
3882	0.8867
3892	0.8883
3902	0.8907
3912	0.8926
3922	0.8938
3932	0.8942
3942	0.8941
3952	0.8928
3962	0.8911
3972	0.8887
3982	0.8867
3992	0.891
4002	0.8933
