Infrared Spectrum: EQUILENIN ACETATE
Formula: C18 H18 O2
CAS: 517-09-9
State: SOLID (KBr DISC)
Melting point: 258-259 C
Class: COBLENTZ III
Instrument: PERKIN-ELMER 21 (GRATING)
Instrument parameters: FILTER AT ABOUT 10 MICRONS
Sampling: TRANSMISSION
Resolution: 2
1/CM	TRANSMITTANCE
4000	0.8885
3991	0.8889
3982	0.8892
3973	0.8894
3964	0.8895
3955	0.8897
3946	0.8898
3937	0.89
3928	0.8902
3919	0.8904
3910	0.8907
3901	0.8912
3892	0.8918
3883	0.8924
3874	0.893
3865	0.8937
3856	0.8951
3847	0.8963
3838	0.8977
3829	0.8992
3820	0.9007
3811	0.9021
3802	0.9035
3793	0.905
3784	0.9062
3775	0.9071
3766	0.9081
3757	0.9089
3748	0.9097
3739	0.9104
3730	0.9111
3721	0.9118
3712	0.9121
3703	0.9125
3694	0.9128
3685	0.913
3676	0.9128
3667	0.9128
3658	0.9128
3649	0.9125
3640	0.9121
3631	0.911
3622	0.9094
3613	0.9059
3604	0.9012
3595	0.8945
3586	0.8852
3577	0.876
3568	0.867
3559	0.8573
3550	0.8433
3541	0.832
3532	0.8241
3523	0.8161
3514	0.8072
3505	0.798
3496	0.7886
3487	0.7765
3478	0.7625
3469	0.7451
3460	0.7276
3451	0.7078
3442	0.694
3433	0.6804
3424	0.6668
3415	0.6532
3406	0.6395
3397	0.6257
3388	0.6118
3379	0.5978
3370	0.5838
3361	0.5697
3352	0.5555
3343	0.5412
3334	0.5269
3325	0.5126
3316	0.4981
3307	0.4871
3298	0.4795
3289	0.4745
3280	0.4725
3271	0.4717
3262	0.4728
3253	0.48
3244	0.4923
3235	0.5129
3226	0.537
3217	0.5612
3208	0.5855
3199	0.6099
3190	0.6345
3181	0.6592
3172	0.6841
3163	0.7091
3154	0.7332
3145	0.7508
3136	0.7641
3127	0.7762
3118	0.7849
3109	0.7901
3100	0.7945
3091	0.7978
3082	0.8014
3073	0.8049
3064	0.8083
3055	0.8118
3046	0.8156
3037	0.8196
3028	0.8225
3019	0.824
3010	0.8246
3001	0.8236
2992	0.8188
2983	0.8058
2974	0.7865
2965	0.7681
2956	0.7514
2947	0.736
2938	0.7268
2929	0.7244
2920	0.7231
2911	0.7231
2902	0.7251
2893	0.73
2884	0.7353
2875	0.7445
2866	0.7572
2857	0.775
2848	0.7971
2839	0.8058
2830	0.8087
2821	0.8104
2812	0.8119
2803	0.8213
2794	0.8316
2785	0.8425
2776	0.853
2767	0.8628
2758	0.8721
2749	0.8798
2740	0.8846
2731	0.8874
2722	0.8901
2713	0.8918
2704	0.8937
2695	0.8954
2686	0.8982
2677	0.9012
2668	0.9043
2659	0.9073
2650	0.9097
2641	0.912
2632	0.9143
2623	0.9161
2614	0.9171
2605	0.9181
2596	0.9182
2587	0.9183
2578	0.9184
2569	0.9187
2560	0.9192
2551	0.9197
2542	0.9202
2533	0.9206
2524	0.9213
2515	0.922
2506	0.9225
2497	0.9233
2488	0.924
2479	0.9252
2470	0.9264
2461	0.9275
2452	0.9287
2443	0.9303
2434	0.9323
2425	0.9343
2416	0.9362
2407	0.9383
2398	0.9403
2389	0.9425
2380	0.9444
2371	0.9446
2362	0.9441
2353	0.9433
2344	0.9424
2335	0.9417
2326	0.9415
2317	0.9413
2308	0.942
2299	0.9437
2290	0.9471
2281	0.9516
2272	0.9575
2263	0.9614
2254	0.9646
2245	0.9657
2236	0.9664
2227	0.9671
2218	0.9678
2209	0.9687
2200	0.9696
2191	0.9707
2182	0.9718
2173	0.973
2164	0.974
2155	0.9749
2146	0.9755
2137	0.9747
2128	0.9727
2119	0.9727
2110	0.9739
2101	0.9759
2092	0.9781
2083	0.98
2074	0.9816
2065	0.9818
2056	0.981
2047	0.9806
2038	0.9809
2029	0.9812
2020	0.982
2011	0.9833
2002	0.9847
1993	0.986
1984	0.9877
1975	0.9893
1966	0.991
1957	0.9928
1948	0.9946
1939	0.9966
1930	0.9989
1921	0.999
1912	0.9908
1903	0.9803
1894	0.9798
1885	0.9854
1876	0.992
1867	0.9968
1858	0.9989
1849	1.0004
1840	1.0008
1831	1.0008
1822	1.0013
1813	1.0015
1804	0.9987
1795	0.9905
1786	0.9856
1777	0.9841
1768	0.9675
1759	0.9153
1750	0.8208
1741	0.6815
1732	0.4466
1723	0.2369
1714	0.3979
1705	0.6496
1696	0.8171
1687	0.8561
1678	0.861
1669	0.8631
1660	0.8656
1651	0.8566
1642	0.7876
1633	0.6229
1624	0.5392
1615	0.6951
1606	0.6076
1597	0.7006
1588	0.8145
1579	0.8234
1570	0.8681
1561	0.9025
1552	0.9266
1543	0.9315
1534	0.9157
1525	0.894
1516	0.881
1507	0.9065
1498	0.911
1489	0.789
1480	0.7414
1471	0.8354
1462	0.7532
1453	0.8253
1444	0.8356
1435	0.798
1426	0.7219
1417	0.8243
1408	0.8303
1399	0.703
1390	0.4509
1381	0.6761
1372	0.7593
1363	0.8106
1354	0.7692
1345	0.8652
1336	0.8752
1327	0.8706
1318	0.8463
1309	0.8492
1300	0.825
1291	0.7405
1282	0.8144
1273	0.8417
1264	0.8101
1255	0.7801
1246	0.6883
1237	0.6867
1228	0.5576
1219	0.5396
1210	0.376
1201	0.405
1192	0.5807
1183	0.7217
1174	0.7565
1165	0.5225
1156	0.5885
1147	0.7058
1138	0.7911
1129	0.8202
1120	0.8405
1111	0.8577
1102	0.8491
1093	0.8612
1084	0.8654
1075	0.75
1066	0.6493
1057	0.8151
1048	0.8724
1039	0.881
1030	0.7601
1021	0.8763
1012	0.811
1003	0.9102
994	0.925
985	0.9368
976	0.9458
967	0.9238
958	0.9005
949	0.9228
940	0.8539
931	0.8967
922	0.9486
913	0.9492
904	0.9487
895	0.957
886	0.9541
877	0.9266
868	0.9101
859	0.9015
850	0.4833
841	0.799
832	0.9033
823	0.836
814	0.7631
805	0.9105
796	0.8682
787	0.8951
778	0.927
769	0.8983
760	0.9203
751	0.9109
742	0.8223
733	0.8883
724	0.8878
715	0.8827
706	0.7878
697	0.8216
688	0.8188
679	0.8142
670	0.8241
