Infrared Spectrum: 5,6,11,12-TETRAPHENYLNAPHTHACENE
Formula: C42 H28
CAS: 517-51-1
State: SOLID (KBr PELLET)
Melting point: 331 C
Class: COBLENTZ
Instrument: Not specified, most likely a prism, grating, or hybrid spectrometer.
Sampling: TRANSMISSION
Resolution: 4
Origin: UNION CARBIDE CORPORATION (CARBON PRODUCTS DIVISION)
MICROMETERS	TRANSMITTANCE
2.047	0.242
2.08025	0.246
2.11349	0.246
2.14674	0.249
2.17999	0.255
2.21323	0.259
2.24648	0.262
2.27972	0.267
2.31297	0.272
2.34622	0.276
2.37946	0.279
2.41271	0.283
2.44596	0.288
2.4792	0.292
2.51245	0.306
2.54569	0.311
2.57894	0.312
2.61219	0.314
2.64543	0.316
2.67868	0.319
2.71193	0.32
2.74517	0.32
2.77842	0.322
2.81167	0.322
2.84491	0.326
2.87816	0.326
2.9114	0.327
2.94465	0.326
2.9779	0.334
3.01114	0.351
3.04439	0.359
3.07764	0.37
3.11088	0.379
3.14413	0.391
3.17738	0.402
3.21062	0.407
3.24387	0.408
3.27711	0.387
3.31036	0.371
3.34361	0.372
3.37685	0.39
3.4101	0.4
3.44335	0.414
3.47659	0.418
3.50984	0.428
3.54308	0.432
3.57633	0.442
3.60958	0.451
3.64282	0.45
3.67607	0.452
3.70932	0.458
3.74256	0.462
3.77581	0.468
3.80906	0.471
3.8423	0.476
3.87555	0.484
3.90879	0.49
3.94204	0.495
3.97529	0.5
4.00853	0.5
4.04178	0.501
4.07503	0.504
4.10827	0.508
4.14152	0.515
4.17477	0.524
4.20801	0.528
4.24126	0.525
4.2745	0.527
4.30775	0.528
4.341	0.533
4.37424	0.541
4.40749	0.543
4.44074	0.549
4.47398	0.552
4.50723	0.552
4.54047	0.553
4.57372	0.563
4.60697	0.567
4.64021	0.571
4.67346	0.571
4.70671	0.575
4.73995	0.573
4.7732	0.579
4.80645	0.583
4.83969	0.585
4.87294	0.591
4.90618	0.592
4.93943	0.595
4.97268	0.601
5.00592	0.601
5.03917	0.603
5.07242	0.603
5.10566	0.601
5.13891	0.577
5.17216	0.592
5.2054	0.601
5.23865	0.611
5.27189	0.615
5.30514	0.599
5.33839	0.599
5.37163	0.62
5.40488	0.625
5.43813	0.627
5.47137	0.62
5.50462	0.612
5.53786	0.611
5.57111	0.631
5.60436	0.632
5.6376	0.632
5.67085	0.631
5.7041	0.632
5.73734	0.632
5.77059	0.637
5.80384	0.639
5.83708	0.639
5.87033	0.639
5.90357	0.643
5.93682	0.644
5.97007	0.649
6.00331	0.651
6.03656	0.648
6.06981	0.653
6.10305	0.657
6.1363	0.656
6.16955	0.652
6.20279	0.653
6.23604	0.576
6.26928	0.648
6.30253	0.668
6.33578	0.643
6.36902	0.655
6.40227	0.661
6.43552	0.663
6.46876	0.663
6.50201	0.673
6.53525	0.683
6.5685	0.687
6.60175	0.693
6.63499	0.692
6.66824	0.603
6.70149	0.583
6.73473	0.664
6.76798	0.679
6.80123	0.608
6.83447	0.552
6.86772	0.676
6.90096	0.688
6.93421	0.416
6.96746	0.625
7.0007	0.672
7.03395	0.685
7.0672	0.689
7.10044	0.693
7.13369	0.653
7.16694	0.452
7.20018	0.636
7.23343	0.68
7.26667	0.685
7.29992	0.695
7.33317	0.697
7.36641	0.701
7.39966	0.721
7.43291	0.725
7.46615	0.725
7.4994	0.725
7.53264	0.724
7.56589	0.723
7.59914	0.711
7.63238	0.691
7.66563	0.705
7.69888	0.723
7.73212	0.727
7.76537	0.731
7.79862	0.732
7.83186	0.732
7.86511	0.733
7.89835	0.74
7.9316	0.741
7.96485	0.743
7.99809	0.744
8.03134	0.744
8.06459	0.745
8.09783	0.747
8.13108	0.747
8.16433	0.737
8.19757	0.723
8.23082	0.719
8.26406	0.72
8.29731	0.728
8.33056	0.741
8.3638	0.745
8.39705	0.752
8.4303	0.752
8.46354	0.743
8.49679	0.731
8.53003	0.713
8.56328	0.727
8.59653	0.743
8.62977	0.752
8.66302	0.752
8.69627	0.748
8.72951	0.754
8.76276	0.766
8.79601	0.772
8.82925	0.768
8.8625	0.776
8.89574	0.792
8.92899	0.792
8.96224	0.782
8.99548	0.747
9.02873	0.743
9.06198	0.774
9.09522	0.785
9.12847	0.796
9.16172	0.8
9.19496	0.801
9.22821	0.798
9.26145	0.781
9.2947	0.748
9.32795	0.703
9.36119	0.665
9.39444	0.7
9.42769	0.768
9.46093	0.782
9.49418	0.794
9.52742	0.802
9.56067	0.809
9.59392	0.812
9.62716	0.81
9.66041	0.776
9.69366	0.623
9.7269	0.557
9.76015	0.649
9.7934	0.695
9.82664	0.731
9.85989	0.764
9.89313	0.774
9.92638	0.78
9.95963	0.78
9.99287	0.781
10.0261	0.79
10.0594	0.79
10.0926	0.79
10.1259	0.79
10.1591	0.79
10.1924	0.79
10.2256	0.79
10.2588	0.78
10.2921	0.74
10.3253	0.669
10.3586	0.737
10.3918	0.78
10.4251	0.78
10.4583	0.784
10.4916	0.794
10.5248	0.801
10.5581	0.8
10.5913	0.801
10.6246	0.801
10.6578	0.802
10.691	0.812
10.7243	0.812
10.7575	0.812
10.7908	0.812
10.824	0.812
10.8573	0.812
10.8905	0.801
10.9238	0.756
10.957	0.715
10.9903	0.719
11.0235	0.748
11.0568	0.782
11.09	0.8
11.1232	0.806
11.1565	0.813
11.1897	0.821
11.223	0.828
11.2562	0.83
11.2895	0.83
11.3227	0.83
11.356	0.832
11.3892	0.832
11.4225	0.832
11.4557	0.833
11.489	0.833
11.5222	0.836
11.5555	0.838
11.5887	0.841
11.6219	0.841
11.6552	0.841
11.6884	0.833
11.7217	0.817
11.7549	0.731
11.7882	0.6
11.8214	0.692
11.8547	0.701
11.8879	0.764
11.9212	0.788
11.9544	0.81
11.9877	0.828
12.0209	0.83
12.0541	0.833
12.0874	0.841
12.1206	0.841
12.1539	0.844
12.1871	0.849
12.2204	0.853
12.2536	0.853
12.2869	0.85
12.3201	0.842
12.3534	0.816
12.3866	0.78
12.4199	0.801
12.4531	0.84
12.4863	0.849
12.5196	0.857
12.5528	0.862
12.5861	0.862
12.6193	0.854
12.6526	0.733
12.6858	0.588
12.7191	0.689
12.7523	0.762
12.7856	0.798
12.8188	0.802
12.8521	0.798
12.8853	0.754
12.9186	0.688
12.9518	0.488
12.985	0.242
13.0183	0.162
13.0515	0.243
13.0848	0.39
13.118	0.455
13.1513	0.472
13.1845	0.394
13.2178	0.231
13.251	0.165
13.2843	0.336
13.3175	0.482
13.3508	0.584
13.384	0.632
13.4172	0.683
13.4505	0.715
13.4837	0.729
13.517	0.749
13.5502	0.762
13.5835	0.765
13.6167	0.756
13.65	0.732
13.6832	0.709
13.7165	0.715
13.7497	0.757
13.783	0.761
13.8162	0.754
13.8494	0.695
13.8827	0.621
13.9159	0.511
13.9492	0.458
13.9824	0.631
14.0157	0.699
14.0489	0.699
14.0822	0.66
14.1154	0.66
14.1487	0.701
14.1819	0.691
14.2152	0.62
14.2484	0.5
14.2817	0.342
14.3149	0.225
14.3481	0.125
14.3814	0.091
14.4146	0.078
14.4479	0.111
14.4811	0.201
14.5144	0.323
14.5476	0.411
14.5809	0.47
14.6141	0.515
14.6474	0.539
14.6806	0.553
14.7139	0.572
14.7471	0.581
14.7803	0.589
14.8136	0.595
14.8468	0.604
14.8801	0.607
14.9133	0.609
14.9466	0.603
14.9798	0.571
15.0131	0.553
15.0463	0.6
15.0796	0.612
15.1128	0.615
15.1461	0.619
15.1793	0.623
