Infrared Spectrum: 2-Acetylbutyrolactone
Formula: C 6 H 8 O 3
CAS: 517-23-7
State: gas
Origin: EPA-IR VAPOR PHASE LIBRARY
1/CM	ABSORBANCE
549.8	0.001544
559.445	0.002594
569.09	0.003364
578.734	0.003424
588.379	0.002984
598.024	0.002244
607.669	0.0011705
617.313	0.0011898
626.958	0.0009629
636.603	0.0010959
646.248	0.001934
655.893	0.002654
665.537	0.002174
675.182	0.001544
684.827	0.0011054
694.472	0.000849
704.116	0.0007352
713.761	0.0008134
723.406	0.0007049
733.051	0.0009218
742.695	0.0009037
752.34	0.0007559
761.985	0.0010416
771.63	0.001594
781.275	0.002304
790.919	0.002524
800.564	0.002034
810.209	0.001454
819.854	0.001012
829.498	0.0006004
839.143	0.0007434
848.788	0.0006148
858.433	0.0006433
868.078	0.0011775
877.722	0.001574
887.367	0.002804
897.012	0.003904
906.657	0.004664
916.301	0.004314
925.946	0.003984
935.591	0.003704
945.236	0.003664
954.88	0.003534
964.525	0.003434
974.17	0.003634
983.815	0.003844
993.46	0.005404
1003.1	0.008524
1012.75	0.013244
1022.39	0.016754
1032.04	0.017144
1041.68	0.015014
1051.33	0.011794
1060.97	0.008774
1070.62	0.006544
1080.26	0.006554
1089.91	0.007384
1099.55	0.008224
1109.2	0.009764
1118.84	0.015054
1128.49	0.026934
1138.13	0.047744
1147.78	0.058684
1157.42	0.047234
1167.07	0.025204
1176.71	0.014334
1186.36	0.011264
1196	0.011614
1205.64	0.015484
1215.29	0.020194
1224.93	0.020384
1234.58	0.014604
1244.22	0.009074
1253.87	0.006224
1263.51	0.005104
1273.16	0.004654
1282.8	0.004874
1292.45	0.004664
1302.09	0.004184
1311.74	0.003924
1321.38	0.003864
1331.03	0.004004
1340.67	0.004634
1350.32	0.007664
1359.96	0.014874
1369.61	0.019404
1379.25	0.015614
1388.9	0.007794
1398.54	0.004504
1408.18	0.003374
1417.83	0.003354
1427.47	0.003534
1437.12	0.003674
1446.76	0.003964
1456.41	0.003704
1466.05	0.003144
1475.7	0.002384
1485.34	0.002344
1494.99	0.002184
1504.63	0.001794
1514.28	0.001514
1523.92	0.001414
1533.57	0.001434
1543.21	0.001374
1552.86	0.001324
1562.5	0.001264
1572.15	0.001254
1581.79	0.0011234
1591.44	0.001128
1601.08	0.0011545
1610.73	0.001324
1620.37	0.001494
1630.01	0.001854
1639.66	0.002694
1649.3	0.004694
1658.95	0.007404
1668.59	0.008454
1678.24	0.006864
1687.88	0.005274
1697.53	0.006344
1707.17	0.010454
1716.82	0.021944
1726.46	0.039324
1736.11	0.046314
1745.75	0.035244
1755.4	0.017844
1765.04	0.013564
1774.69	0.021534
1784.33	0.041804
1793.98	0.061624
1803.62	0.063914
1813.27	0.042894
1822.91	0.021634
1832.55	0.011204
1842.2	0.006924
1851.84	0.004464
1861.49	0.003024
1871.13	0.002194
1880.78	0.001744
1890.42	0.001404
1900.07	0.001264
1909.71	0.0011229
1919.36	0.0010327
1929	0.0008986
1938.65	0.0008687
1948.29	0.0008601
1957.94	0.0008199
1967.58	0.0007317
1977.23	0.0007165
1986.87	0.0007333
1996.52	0.0006864
2006.16	0.0007005
2015.81	0.0006523
2025.45	0.0007601
2035.1	0.0007683
2044.74	0.0008233
2054.38	0.0008752
2064.03	0.0007758
2073.67	0.000708
2083.32	0.0006485
2092.96	0.0005665
2102.61	0.000574
2112.25	0.000515
2121.9	0.0004122
2131.54	0.0004509
2141.19	0.0004502
2150.83	0.0003922
2160.48	0.0004325
2170.12	0.0003886
2179.77	0.0003629
2189.41	0.0004565
2199.06	0.0004261
2208.7	0.000457
2218.35	0.0004845
2227.99	0.0005413
2237.64	0.0005719
2247.28	0.000621
2256.92	0.000657
2266.57	0.0007385
2276.21	0.0007473
2285.86	0.00078
2295.5	0.0008625
2305.15	0.0008655
2314.79	0.0008577
2324.44	0.0007361
2334.08	0.0006313
2343.73	0.0005575
2353.37	0.0006359
2363.02	0.0006306
2372.66	0.0006594
2382.31	0.0005317
2391.95	0.0004246
2401.6	0.0004755
2411.24	0.0004258
2420.89	0.0003472
2430.53	0.0004712
2440.18	0.0003747
2449.82	0.0004654
2459.47	0.0003916
2469.11	0.0004266
2478.75	0.0004458
2488.4	0.0005372
2498.04	0.0004842
2507.69	0.0004851
2517.33	0.0005472
2526.98	0.00033054
2536.62	0.0003519
2546.27	0.00030244
2555.91	0.0002971
2565.56	0.00030599
2575.2	0.000362
2584.85	0.00032004
2594.49	0.0003855
2604.14	0.0003504
2613.78	0.00027446
2623.43	0.00028622
2633.07	0.00031946
2642.72	0.00027483
2652.36	0.0003654
2662.01	0.00030941
2671.65	0.0003368
2681.29	0.00032975
2690.94	0.0004351
2700.58	0.000392
2710.23	0.0004757
2719.87	0.0005466
2729.52	0.0007328
2739.16	0.0005964
2748.81	0.0004038
2758.45	0.000551
2768.1	0.0004774
2777.74	0.0004301
2787.39	0.0004626
2797.03	0.0004825
2806.68	0.0005351
2816.32	0.0005363
2825.97	0.0006352
2835.61	0.0007405
2845.26	0.0010385
2854.9	0.0011068
2864.55	0.001454
2874.19	0.001824
2883.84	0.002214
2893.48	0.002674
2903.12	0.004374
2912.77	0.006984
2922.41	0.007944
2932.06	0.007044
2941.7	0.006014
2951.35	0.005874
2960.99	0.006144
2970.64	0.006204
2980.28	0.006924
2989.93	0.008524
2999.57	0.009874
3009.22	0.007644
3018.86	0.004604
3028.51	0.002564
3038.15	0.001734
3047.8	0.001444
3057.44	0.001264
3067.09	0.0011855
3076.73	0.001021
3086.38	0.0008498
3096.02	0.0009102
3105.67	0.0008069
3115.31	0.0007608
3124.95	0.0007802
3134.6	0.0006861
3144.24	0.0006119
3153.89	0.0005808
3163.53	0.0007612
3173.18	0.0007327
3182.82	0.0005097
3192.47	0.0005592
3202.11	0.000616
3211.76	0.0005394
3221.4	0.0005985
3231.05	0.0006151
3240.69	0.000513
3250.34	0.0006061
3259.98	0.0004483
3269.63	0.0005156
3279.27	0.0004938
3288.92	0.0005184
3298.56	0.0005114
3308.21	0.0003922
3317.85	0.0003712
3327.49	0.0003559
3337.14	0.0003448
3346.78	0.00042
3356.43	0.0003971
3366.07	0.0003555
3375.72	0.0004924
3385.36	0.00033081
3395.01	0.0004598
3404.65	0.0004418
3414.3	0.000541
3423.94	0.0004207
3433.59	0.0006797
3443.23	0.000864
3452.88	0.0008187
3462.52	0.0007298
3472.17	0.0005755
3481.81	0.0005591
3491.46	0.0004002
3501.1	0.0005428
3510.75	0.0003291
3520.39	0.0003468
3530.04	0.0003822
3539.68	0.0005487
3549.32	0.0006635
3558.97	0.0007871
3568.61	0.0009335
3578.26	0.0009952
3587.9	0.0008743
3597.55	0.0008091
3607.19	0.0006749
3616.84	0.0004016
3626.48	0.0004012
3636.13	0.00025534
3645.77	0.000236275
3655.42	0.00030327
3665.06	0.0003425
3674.71	0.00029679
3684.35	0.0001904
3694	0.0001986
3703.64	0.00024597
3713.29	0.00030501
3722.93	0.00025702
3732.58	0.00022741
3742.22	0.00030377
3751.86	0.0001479
3761.51	0.0003396
3771.15	0.00027408
3780.8	0.0002126
3790.44	0.00026039
3800.09	0.00025206
3809.73	0.00026988
3819.38	0.0002158
3829.02	0.0001688
3838.67	0.000113
3848.31	0.000183
3857.96	0.0003436
3867.6	0.00028368
3877.25	0.00028434
3886.89	0.0002071
3896.54	0.0001506
3906.18	0.0003413
3915.83	0.000236607
3925.47	0.00024672
3935.12	0.00024786
3944.76	0.0004059
3954.41	0.000216
3964.05	0.0003342
3973.69	0.0002155
3983.34	0.00025546
3992.98	0.0004669
