Infrared Spectrum: 2,4-Dimethyl-3-ethylpyrrole
Formula: C 8 H 13 N
CAS: 517-22-6
State: gas
Instrument: HP-GC/MS/IRD
Origin: NIST Mass Spectrometry Data Center
1/CM	ABSORBANCE
550	0.0003094
562	0.0002492
574	5.74e-05
586	1.4e-05
598	6.44e-05
610	3.92e-05
622	0
634	0.000112
646	0.000147
658	0.0004312
670	0.0003122
682	0.0003794
694	0.0006608
706	0.0017304
718	0.0036498
730	0.0030058
742	0.0012796
754	0.0002982
766	0.0001792
778	0.0001344
790	0.0001624
802	0.000175
814	0.000217
826	0.0002856
838	0.0004704
850	0.0008092
862	0.002366
874	0.0051856
886	0.005866
898	0.0033012
910	0.0012082
922	0.0006132
934	0.000553
946	0.0007854
958	0.0011186
970	0.0009296
982	0.0007364
994	0.0005152
1006	0.0004564
1018	0.0004536
1030	0.0004662
1042	0.000532
1054	0.0009198
1066	0.0010864
1078	0.0015302
1090	0.0018746
1102	0.0013048
1114	0.0005236
1126	0.000259
1138	0.0002548
1150	0.0001652
1162	0.0002016
1174	0.0003304
1186	0.0003794
1198	0.000336
1210	0.0003948
1222	0.0008834
1234	0.0012404
1246	0.0008624
1258	0.000483
1270	0.0005544
1282	0.001274
1294	0.0026838
1306	0.0023632
1318	0.000854
1330	0.0006146
1342	0.0005726
1354	0.0006062
1366	0.0008974
1378	0.0013062
1390	0.001141
1402	0.0008162
1414	0.0010038
1426	0.001729
1438	0.0032676
1450	0.005089
1462	0.0045164
1474	0.0022582
1486	0.0009954
1498	0.0008064
1510	0.0009856
1522	0.0010234
1534	0.0008302
1546	0.000504
1558	0.0003934
1570	0.000378
1582	0.0005474
1594	0.000749
1606	0.0006314
1618	0.0003514
1630	0.0002296
1642	0.0002268
1654	0.0001708
1666	0.0002156
1678	0.0001316
1690	0.000105
1702	9.24e-05
1714	0.0001232
1726	0.0001162
1738	0.0001064
1750	9.52e-05
1762	8.54e-05
1774	9.1e-05
1786	4.76e-05
1798	4.34e-05
1810	4.76e-05
1822	6.86e-05
1834	3.78e-05
1846	4.2e-05
1858	5.32e-05
1870	6.86e-05
1882	7.14e-05
1894	5.46e-05
1906	9.1e-05
1918	6.72e-05
1930	5.32e-05
1942	7.84e-05
1954	5.88e-05
1966	2.8e-05
1978	5.04e-05
1990	5.18e-05
2002	2.1e-05
2014	2.1e-05
2026	2.24e-05
2038	8.54e-05
2050	5.88e-05
2062	5.6e-05
2074	3.22e-05
2086	4.48e-05
2098	4.62e-05
2110	3.08e-05
2122	2.94e-05
2134	2.66e-05
2146	1.68e-05
2158	3.5e-05
2170	2.52e-05
2182	4.06e-05
2194	2.1e-05
2206	2.38e-05
2218	1.54e-05
2230	2.94e-05
2242	3.22e-05
2254	2.94e-05
2266	4.34e-05
2278	2.38e-05
2290	2.1e-05
2302	1.82e-05
2314	5.32e-05
2326	4.34e-05
2338	3.92e-05
2350	6.02e-05
2362	8.82e-05
2374	9.24e-05
2386	9.52e-05
2398	0.000112
2410	8.96e-05
2422	7.14e-05
2434	0.0001064
2446	0.000133
2458	0.0001596
2470	0.0001428
2482	0.0001498
2494	0.00014
2506	0.0001302
2518	0.0001428
2530	0.000147
2542	0.0001708
2554	0.0001568
2566	0.0001596
2578	0.000133
2590	0.0001484
2602	0.0001246
2614	0.0001106
2626	0.000154
2638	0.000161
2650	0.0001666
2662	0.0001722
2674	0.0002086
2686	0.0001792
2698	0.0002058
2710	0.000252
2722	0.0003248
2734	0.000574
2746	0.0007294
2758	0.0006328
2770	0.0005586
2782	0.0006328
2794	0.0006874
2806	0.0008344
2818	0.0011102
2830	0.001575
2842	0.0024276
2854	0.004291
2866	0.007091
2878	0.0085078
2890	0.0076398
2902	0.0076678
2914	0.0101178
2926	0.0133224
2938	0.0134246
2950	0.0107044
2962	0.011501
2974	0.0107142
2986	0.0056126
2998	0.0030828
3010	0.00238
3022	0.0021476
3034	0.0018424
3046	0.0015442
3058	0.0012026
3070	0.0009884
3082	0.0008848
3094	0.0008064
3106	0.0007308
3118	0.0007154
3130	0.000651
3142	0.0004354
3154	0.0002828
3166	0.0002408
3178	0.0001918
3190	6.16e-05
3202	0.0001162
3214	5.04e-05
3226	7.98e-05
3238	0.0001036
3250	6.16e-05
3262	5.18e-05
3274	0.0001036
3286	8.82e-05
3298	5.88e-05
3310	2.8e-06
3322	4.76e-05
3334	1.26e-05
3346	6.86e-05
3358	3.64e-05
3370	4.2e-05
3382	0.0001302
3394	4.76e-05
3406	4.2e-05
3418	7.98e-05
3430	0.0001666
3442	0.0002296
3454	0.0003066
3466	0.0005544
3478	0.0010598
3490	0.0021252
3502	0.0047082
3514	0.0050162
3526	0.0022736
3538	0.0004396
3550	0.0001218
3562	0.0001288
3574	9.94e-05
3586	7.14e-05
3598	7.56e-05
3610	5.46e-05
3622	9.24e-05
3634	5.88e-05
3646	6.44e-05
3658	7.56e-05
3670	5.32e-05
3682	1.54e-05
3694	3.78e-05
3706	0
3718	2.8e-06
3730	8.54e-05
3742	3.22e-05
3754	3.78e-05
3766	5.04e-05
3778	8.68e-05
3790	6.44e-05
3802	4.34e-05
3814	7.28e-05
3826	4.2e-05
3838	4.06e-05
