Infrared Spectrum: 2,6-Dimethyl-1,6-heptadiene
Formula: C 9 H 16
CAS: 51708-83-9
State: gas
Instrument: HP-GC/MS/IRD
Origin: NIST Mass Spectrometry Data Center
1/CM	ABSORBANCE
550	0.0010432
562	0.0008976
574	0.0005744
586	0.0003248
598	0.0001488
610	9.76e-05
622	0.0002
634	8.64e-05
646	9.12e-05
658	0.0001136
670	9.76e-05
682	0.000136
694	0.0001104
706	0.000232
718	0.0002032
730	0.0003408
742	0.000296
754	0.0001824
766	0.0001408
778	0.0002016
790	0.000224
802	0.00032
814	0.0003424
826	0.000448
838	0.000584
850	0.001056
862	0.0019712
874	0.0048368
886	0.0107792
898	0.0095504
910	0.0035952
922	0.0014128
934	0.0008192
946	0.0006064
958	0.0004736
970	0.0004512
982	0.0004464
994	0.00044
1006	0.0003808
1018	0.0003536
1030	0.0003152
1042	0.0003312
1054	0.0003696
1066	0.0003472
1078	0.0003216
1090	0.0002432
1102	0.0002096
1114	0.0001888
1126	0.000208
1138	0.0002704
1150	0.0003344
1162	0.000376
1174	0.0003008
1186	0.0003584
1198	0.0004896
1210	0.0006064
1222	0.0006576
1234	0.0008224
1246	0.0009136
1258	0.0009968
1270	0.0011168
1282	0.001024
1294	0.0008736
1306	0.0007264
1318	0.0006272
1330	0.0006112
1342	0.0007968
1354	0.00112
1366	0.0019712
1378	0.003104
1390	0.0022624
1402	0.001472
1414	0.0015424
1426	0.002208
1438	0.0032992
1450	0.0043504
1462	0.00384
1474	0.0021808
1486	0.0011504
1498	0.0007296
1510	0.0005408
1522	0.0004464
1534	0.0004
1546	0.0004352
1558	0.0004464
1570	0.0005584
1582	0.0006336
1594	0.0007568
1606	0.0009728
1618	0.0014384
1630	0.0025984
1642	0.0044208
1654	0.0042368
1666	0.001944
1678	0.0008048
1690	0.0004416
1702	0.0003136
1714	0.0002224
1726	0.0001712
1738	0.00016
1750	0.000208
1762	0.0003072
1774	0.0005952
1786	0.0007984
1798	0.000608
1810	0.00032
1822	0.0002
1834	0.0001264
1846	0.0001104
1858	0.00012
1870	0.0001008
1882	9.92e-05
1894	8.32e-05
1906	7.84e-05
1918	5.6e-05
1930	5.44e-05
1942	4.64e-05
1954	8.8e-05
1966	5.6e-05
1978	7.2e-05
1990	5.12e-05
2002	5.28e-05
2014	5.76e-05
2026	5.92e-05
2038	4e-05
2050	6.72e-05
2062	6.56e-05
2074	5.12e-05
2086	6.24e-05
2098	8e-05
2110	6.88e-05
2122	5.92e-05
2134	4.48e-05
2146	6.24e-05
2158	6.4e-05
2170	7.04e-05
2182	5.44e-05
2194	5.12e-05
2206	3.2e-05
2218	4.32e-05
2230	4.48e-05
2242	3.52e-05
2254	1.76e-05
2266	1.28e-05
2278	5.6e-05
2290	2.72e-05
2302	6.4e-05
2314	5.6e-05
2326	5.44e-05
2338	7.2e-05
2350	4e-05
2362	2.4e-05
2374	2.08e-05
2386	6.4e-06
2398	2.4e-05
2410	8e-06
2422	4.8e-06
2434	2.24e-05
2446	3.04e-05
2458	2.4e-05
2470	4.64e-05
2482	4.32e-05
2494	7.68e-05
2506	6.24e-05
2518	2.4e-05
2530	2.72e-05
2542	3.2e-05
2554	2.24e-05
2566	2.56e-05
2578	3.36e-05
2590	5.44e-05
2602	5.76e-05
2614	6.56e-05
2626	4.8e-05
2638	9.28e-05
2650	0.0001024
2662	0.0001056
2674	0.0001424
2686	0.0001632
2698	0.0001744
2710	0.0002544
2722	0.000272
2734	0.00036
2746	0.0003712
2758	0.0003296
2770	0.0003456
2782	0.0004768
2794	0.000608
2806	0.0008208
2818	0.0012016
2830	0.0020432
2842	0.0033312
2854	0.0047952
2866	0.0056112
2878	0.006192
2890	0.0071456
2902	0.008584
2914	0.0100272
2926	0.01204
2938	0.0154976
2950	0.0145472
2962	0.0096336
2974	0.0096272
2986	0.0078864
2998	0.0045968
3010	0.0028
3022	0.0019024
3034	0.0015504
3046	0.0016656
3058	0.002424
3070	0.0049184
3082	0.006848
3094	0.003632
3106	0.001296
3118	0.0006704
3130	0.0004688
3142	0.0002864
3154	0.000192
3166	8.96e-05
3178	8.8e-05
3190	7.84e-05
3202	7.04e-05
3214	4.64e-05
3226	3.68e-05
3238	1.92e-05
3250	4e-05
3262	9.28e-05
3274	4.8e-05
3286	7.2e-05
3298	7.36e-05
3310	3.2e-05
3322	6.08e-05
3334	6.24e-05
3346	5.12e-05
3358	6.56e-05
3370	4.32e-05
3382	7.2e-05
3394	4.64e-05
3406	5.76e-05
3418	6.08e-05
3430	4.96e-05
3442	2.72e-05
3454	5.28e-05
3466	2.56e-05
3478	5.76e-05
3490	6.72e-05
3502	4.96e-05
3514	5.44e-05
3526	9.6e-05
3538	7.84e-05
3550	3.84e-05
3562	7.04e-05
3574	5.28e-05
3586	6.4e-05
3598	6.56e-05
3610	0.0001168
3622	8.8e-05
3634	3.36e-05
3646	6.4e-05
3658	8.64e-05
3670	8.32e-05
3682	7.68e-05
3694	0.0001008
3706	7.52e-05
3718	6.24e-05
3730	8.16e-05
3742	9.6e-05
3754	9.92e-05
3766	0.0001248
3778	8.96e-05
3790	0.0001264
3802	0.000112
3814	0.0001104
3826	0.0001008
3838	0.0001168
