Infrared Spectrum: 3,3,4,4-Tetramethylhexane
Formula: C 10 H 22
CAS: 5171-84-6
State: gas
Instrument: HP-GC/MS/IRD
Origin: NIST Mass Spectrometry Data Center
1/CM	ABSORBANCE
550	9.38e-05
562	0.0001456
574	6.86e-05
586	0.000154
598	0.0001414
610	9.94e-05
622	6.86e-05
634	0.000154
646	0.0001302
658	0.0002618
670	0.000203
682	0.0001372
694	0.0001344
706	0.0001582
718	0.0002114
730	0.0001428
742	0.0002296
754	0.0002674
766	0.0002072
778	0.0002464
790	0.000294
802	0.0002198
814	0.0001876
826	0.000112
838	0.0002044
850	0.000147
862	0.0001078
874	0.0001988
886	0.000161
898	0.0002254
910	0.0002002
922	0.00021
934	0.0002338
946	0.0002002
958	0.0001932
970	0.0002226
982	0.0003108
994	0.0004354
1006	0.000637
1018	0.0006636
1030	0.0004088
1042	0.0003444
1054	0.0003682
1066	0.0003654
1078	0.0002842
1090	0.0002828
1102	0.0002744
1114	0.0002814
1126	0.000504
1138	0.0009268
1150	0.001106
1162	0.0007924
1174	0.0004228
1186	0.0002016
1198	0.0001078
1210	8.54e-05
1222	8.68e-05
1234	3.08e-05
1246	8.54e-05
1258	0.0001008
1270	0.0001148
1282	0.000147
1294	0.0001736
1306	0.0001946
1318	0.000154
1330	0.0002408
1342	0.000231
1354	0.0004578
1366	0.001162
1378	0.0018676
1390	0.0017094
1402	0.0009856
1414	0.0004914
1426	0.000364
1438	0.000525
1450	0.0009058
1462	0.0014322
1474	0.001568
1486	0.0010654
1498	0.0004802
1510	0.0001946
1522	0.0001736
1534	0.000175
1546	0.0001274
1558	0.0001232
1570	0.000147
1582	0.0001148
1594	0.0001162
1606	0.0001022
1618	0.000119
1630	8.4e-05
1642	7.28e-05
1654	7e-05
1666	6.16e-05
1678	4.62e-05
1690	2.8e-05
1702	3.08e-05
1714	2.24e-05
1726	2.52e-05
1738	3.22e-05
1750	1.96e-05
1762	3.64e-05
1774	2.52e-05
1786	1.82e-05
1798	1.54e-05
1810	4.2e-05
1822	2.66e-05
1834	3.92e-05
1846	3.08e-05
1858	4.2e-05
1870	4.48e-05
1882	5.32e-05
1894	3.5e-05
1906	6.44e-05
1918	5.04e-05
1930	5.46e-05
1942	6.58e-05
1954	4.76e-05
1966	6.3e-05
1978	5.46e-05
1990	3.64e-05
2002	6.3e-05
2014	3.92e-05
2026	5.46e-05
2038	7.84e-05
2050	7.56e-05
2062	7.14e-05
2074	6.3e-05
2086	2.52e-05
2098	5.32e-05
2110	5.46e-05
2122	4.62e-05
2134	4.34e-05
2146	4.9e-05
2158	6.16e-05
2170	5.6e-05
2182	7.28e-05
2194	8.4e-05
2206	8.68e-05
2218	7.28e-05
2230	6.72e-05
2242	6.58e-05
2254	5.04e-05
2266	5.6e-05
2278	5.32e-05
2290	4.48e-05
2302	3.08e-05
2314	4.34e-05
2326	6.02e-05
2338	6.72e-05
2350	7.7e-05
2362	7.56e-05
2374	7.84e-05
2386	7.98e-05
2398	8.82e-05
2410	7.98e-05
2422	9.8e-05
2434	7.84e-05
2446	0.0001064
2458	8.68e-05
2470	8.82e-05
2482	7.56e-05
2494	8.26e-05
2506	0.0001162
2518	9.94e-05
2530	0.0001008
2542	0.0001218
2554	0.0001218
2566	0.0001204
2578	0.0001568
2590	0.0001708
2602	0.000182
2614	0.0001568
2626	0.0001806
2638	0.0001652
2650	0.0001946
2662	0.0002114
2674	0.0001932
2686	0.000203
2698	0.0002156
2710	0.0002268
2722	0.0002548
2734	0.0003066
2746	0.000315
2758	0.000336
2770	0.000343
2782	0.0003598
2794	0.0004186
2806	0.000406
2818	0.000483
2830	0.0005502
2842	0.0007098
2854	0.0009856
2866	0.001526
2878	0.0027188
2890	0.0041804
2902	0.0040978
2914	0.0038402
2926	0.004648
2938	0.0064862
2950	0.0077434
2962	0.0095676
2974	0.0138474
2986	0.0108038
2998	0.0043372
3010	0.0018494
3022	0.0011046
3034	0.0007784
3046	0.0006538
3058	0.0005488
3070	0.000483
3082	0.0003948
3094	0.0003416
3106	0.0003388
3118	0.00035
3130	0.0003052
3142	0.0002828
3154	0.0002856
3166	0.0002814
3178	0.0002898
3190	0.0002464
3202	0.0002548
3214	0.0002492
3226	0.0002338
3238	0.0002142
3250	0.0001904
3262	0.00021
3274	0.0001666
3286	0.0001764
3298	0.00014
3310	0.000126
3322	0.000175
3334	0.0001162
3346	0.0001162
3358	0.000154
3370	0.0001596
3382	0.00014
3394	8.54e-05
3406	0.0001078
3418	0.0001344
3430	0.0001526
3442	9.38e-05
3454	0.0001022
3466	0.0001386
3478	0.000105
3490	0.000119
3502	0.0001316
3514	7.28e-05
3526	9.24e-05
3538	5.88e-05
3550	8.26e-05
3562	7.7e-05
3574	0.0001134
3586	7e-05
3598	0.0001246
3610	3.36e-05
3622	0.0001022
3634	7.56e-05
3646	8.4e-05
3658	0.000126
3670	0.0001078
3682	0.0001498
3694	0.000119
3706	0.0001036
3718	0.000147
3730	0.0001792
3742	0.000126
3754	0.0001302
3766	0.0001372
3778	0.0001904
3790	0.000168
3802	0.0001736
3814	0.000133
3826	0.0001848
3838	0.0001092
