Infrared Spectrum: 3-Decyn-1-ol
Formula: C 10 H 18 O
CAS: 51721-39-2
State: gas
Instrument: HP-GC/MS/IRD
Origin: NIST Mass Spectrometry Data Center
1/CM	ABSORBANCE
550	6.4e-06
562	0.0001152
574	0.0001536
586	0.0001728
598	0.0002624
610	0.000224
622	0.0002176
634	0.0002304
646	0.0001408
658	0.0002112
670	0.0002176
682	0.000256
694	0.0003264
706	0.0005248
718	0.0007552
730	0.0007488
742	0.0006336
754	0.0005312
766	0.0005376
778	0.000512
790	0.0005056
802	0.0004736
814	0.0005184
826	0.0004928
838	0.0005888
850	0.0006592
862	0.0007424
874	0.0008896
886	0.000992
898	0.0010432
910	0.0011328
922	0.0012992
934	0.0014272
946	0.0016576
958	0.0019904
970	0.0022592
982	0.0026816
994	0.0033728
1006	0.0046656
1018	0.0065664
1030	0.0088896
1042	0.0104256
1054	0.0099456
1066	0.007744
1078	0.0057088
1090	0.0039808
1102	0.0024768
1114	0.0016448
1126	0.0014272
1138	0.0013312
1150	0.001312
1162	0.0013056
1174	0.0013952
1186	0.0014976
1198	0.0016768
1210	0.0017984
1222	0.0019008
1234	0.0020096
1246	0.0021632
1258	0.0022592
1270	0.0023424
1282	0.0025088
1294	0.0028992
1306	0.0040448
1318	0.0070144
1330	0.006976
1342	0.0046656
1354	0.0039424
1366	0.003488
1378	0.0034752
1390	0.0033792
1402	0.002592
1414	0.0022016
1426	0.0025728
1438	0.0044928
1450	0.0051968
1462	0.005152
1474	0.0034688
1486	0.0019136
1498	0.0010752
1510	0.0006848
1522	0.00048
1534	0.0003648
1546	0.0003072
1558	0.0002688
1570	0.0002176
1582	0.000224
1594	0.0001728
1606	0.0001664
1618	0.0001472
1630	0.0001216
1642	0.0001024
1654	0.0001152
1666	8.32e-05
1678	8.32e-05
1690	7.68e-05
1702	4.48e-05
1714	5.12e-05
1726	2.56e-05
1738	5.12e-05
1750	0
1762	1.28e-05
1774	5.12e-05
1786	1.28e-05
1798	1.28e-05
1810	4.48e-05
1822	5.76e-05
1834	4.48e-05
1846	6.4e-05
1858	8.96e-05
1870	9.6e-05
1882	7.04e-05
1894	6.4e-05
1906	8.96e-05
1918	8.32e-05
1930	7.04e-05
1942	5.12e-05
1954	5.76e-05
1966	8.96e-05
1978	7.68e-05
1990	9.6e-05
2002	0.0001024
2014	0.0001664
2026	0.0001728
2038	0.000224
2050	0.0002176
2062	0.0001792
2074	0.0001664
2086	0.000128
2098	0.000128
2110	0.0001216
2122	0.0001152
2134	0.0001024
2146	0.0001088
2158	0.000128
2170	8.32e-05
2182	0.0001344
2194	0.0001088
2206	0.000128
2218	0.000128
2230	0.000128
2242	0.000128
2254	0.000128
2266	0.000128
2278	0.0001408
2290	0.0001408
2302	0.0001408
2314	0.0001344
2326	0.00016
2338	0.00016
2350	0.00016
2362	0.0001536
2374	0.0001664
2386	0.0001728
2398	0.000192
2410	0.0001856
2422	0.0002048
2434	0.0002112
2446	0.0001984
2458	0.0002048
2470	0.0001856
2482	0.000192
2494	0.000224
2506	0.0002752
2518	0.0002624
2530	0.0002624
2542	0.0002688
2554	0.0002944
2566	0.0003008
2578	0.0003456
2590	0.0003968
2602	0.000416
2614	0.0005056
2626	0.0006016
2638	0.0006656
2650	0.0006592
2662	0.0007168
2674	0.0007808
2686	0.0008512
2698	0.0008512
2710	0.0008768
2722	0.0009408
2734	0.0010752
2746	0.0012352
2758	0.0013568
2770	0.001504
2782	0.0016512
2794	0.001984
2806	0.0024512
2818	0.0032
2830	0.0045824
2842	0.0078144
2854	0.016
2866	0.024064
2878	0.020352
2890	0.018368
2902	0.021664
2914	0.0315392
2926	0.0491776
2938	0.064
2950	0.043616
2962	0.0207808
2974	0.0151936
2986	0.0128256
2998	0.0065664
3010	0.0041792
3022	0.00272
3034	0.0018176
3046	0.0012992
3058	0.0010624
3070	0.000864
3082	0.0006912
3094	0.0006464
3106	0.0005632
3118	0.000608
3130	0.0005632
3142	0.0004736
3154	0.0004992
3166	0.0004416
3178	0.0003648
3190	0.0003584
3202	0.0002944
3214	0.0002176
3226	0.0002304
3238	0.0002112
3250	0.0002048
3262	0.0001664
3274	0.0001216
3286	0.0001728
3298	0.0001792
3310	0.00016
3322	0.000192
3334	0.0001728
3346	0.0001984
3358	0.0002112
3370	0.0001728
3382	0.0001536
3394	0.0001984
3406	0.00016
3418	0.0002368
3430	0.0002112
3442	0.0002816
3454	0.0002688
3466	0.000256
3478	0.0002752
3490	0.000256
3502	0.0002368
3514	0.000192
3526	0.0001664
3538	0.0001856
3550	0.0001664
3562	0.00016
3574	0.0001984
3586	0.0002304
3598	0.0002944
3610	0.0003648
3622	0.0004736
3634	0.0006848
3646	0.0012224
3658	0.0023488
3670	0.0027456
3682	0.0017344
3694	0.0008512
3706	0.0005184
3718	0.0003648
3730	0.0002752
3742	0.0002752
3754	0.0002752
3766	0.0002368
3778	0.0003072
3790	0.000288
3802	0.000352
3814	0.0002368
3826	0.0003008
3838	0.0003136
