Infrared Spectrum: p-Decyloxybenzylidene p-butylaniline
Formula: C 27 H 39 N O
CAS: 51749-29-2
State: gas
Origin: EPA-IR VAPOR PHASE LIBRARY
1/CM	ABSORBANCE
549.8	0.0004184
559.445	0.0003248
569.09	0.0004635
578.734	0.0005014
588.379	0.0003481
598.024	0.0003957
607.669	0.0005312
617.313	0.0002656
626.958	0.0003472
636.603	0.00015181
646.248	0.0003021
655.893	0.0002438
665.537	0.0003164
675.182	0.0003762
684.827	0.00018817
694.472	0.000293
704.116	0.0004087
713.761	0.0005175
723.406	0.0004254
733.051	0.00017512
742.695	0.00015192
752.34	0.0005232
761.985	0.0001106
771.63	0.00023147
781.275	0.0004304
790.919	0.0004711
800.564	0.0005732
810.209	0.0007889
819.854	0.0011189
829.498	0.001629
839.143	0.001429
848.788	0.0010114
858.433	0.0007523
868.078	0.0007562
877.722	0.0008574
887.367	0.001259
897.012	0.0008212
906.657	0.0006275
916.301	0.0005114
925.946	0.0005026
935.591	0.000539
945.236	0.0004559
954.88	0.0007441
964.525	0.0005794
974.17	0.000973
983.815	0.0005443
993.46	0.0008333
1003.1	0.0010118
1012.75	0.001449
1022.39	0.001259
1032.04	0.001249
1041.68	0.001369
1051.33	0.001159
1060.97	0.001149
1070.62	0.0009581
1080.26	0.0007309
1089.91	0.0009995
1099.55	0.0006404
1109.2	0.0008154
1118.84	0.0004091
1128.49	0.0009464
1138.13	0.0005792
1147.78	0.0010594
1157.42	0.003299
1167.07	0.005599
1176.71	0.001269
1186.36	0.001131
1196	0.001579
1205.64	0.001699
1215.29	0.002559
1224.93	0.003299
1234.58	0.005029
1244.22	0.006369
1253.87	0.004769
1263.51	0.002299
1273.16	0.001569
1282.8	0.001429
1292.45	0.001829
1302.09	0.002409
1311.74	0.001589
1321.38	0.0010055
1331.03	0.0008146
1340.67	0.0008028
1350.32	0.0008179
1359.96	0.0007961
1369.61	0.0007683
1379.25	0.0008766
1388.9	0.0009973
1398.54	0.0006367
1408.18	0.0006948
1417.83	0.001169
1427.47	0.0008023
1437.12	0.0007237
1446.76	0.0009867
1456.41	0.001229
1466.05	0.001519
1475.7	0.001789
1485.34	0.001159
1494.99	0.001769
1504.63	0.004989
1514.28	0.005499
1523.92	0.001499
1533.57	0.0008938
1543.21	0.0007036
1552.86	0.000725
1562.5	0.001041
1572.15	0.002139
1581.79	0.002019
1591.44	0.003409
1601.08	0.005859
1610.73	0.003249
1620.37	0.001869
1630.01	0.003469
1639.66	0.002119
1649.3	0.000968
1658.95	0.0006509
1668.59	0.0004819
1678.24	0.0004567
1687.88	0.0004137
1697.53	0.0003326
1707.17	0.0002432
1716.82	0.000327
1726.46	0.0003388
1736.11	0.00022783
1745.75	0.000281
1755.4	0.0003195
1765.04	0.0003509
1774.69	0.000359
1784.33	0.000277
1793.98	0.0002718
1803.62	0.0002774
1813.27	0.000261
1822.91	0.0002801
1832.55	0.00021157
1842.2	0.0002683
1851.84	0.0002857
1861.49	0.0002534
1871.13	0.0003016
1880.78	0.0002865
1890.42	0.0002919
1900.07	0.0003023
1909.71	0.0003112
1919.36	0.0002587
1929	0.0003276
1938.65	0.0002949
1948.29	0.0003003
1957.94	0.00022929
1967.58	0.0002741
1977.23	0.0002651
1986.87	0.0002563
1996.52	0.00018399
2006.16	0.0002679
2015.81	0.0002792
2025.45	0.0002722
2035.1	0.0002939
2044.74	0.0002638
2054.38	0.0002756
2064.03	0.0002976
2073.67	0.0002999
2083.32	0.0002595
2092.96	0.0002717
2102.61	0.0002779
2112.25	0.0002456
2121.9	0.00019981
2131.54	0.0002916
2141.19	0.00020314
2150.83	0.0002597
2160.48	0.00015881
2170.12	0.00018956
2179.77	0.00023114
2189.41	0.00021166
2199.06	0.00016652
2208.7	0.00019953
2218.35	0.0002469
2227.99	0.00029
2237.64	0.0002452
2247.28	0.00019513
2256.92	0.0002494
2266.57	0.0003067
2276.21	0.0002635
2285.86	0.00020774
2295.5	0.0002663
2305.15	0.0002805
2314.79	0.00018256
2324.44	0.0002514
2334.08	0.00021427
2343.73	0.0003173
2353.37	0.0003072
2363.02	0.0001874
2372.66	0.0002586
2382.31	0.0002402
2391.95	0.0002662
2401.6	0.0003341
2411.24	0.0003092
2420.89	0.00020952
2430.53	0.0002852
2440.18	0.0002741
2449.82	0.00020626
2459.47	0.0001601
2469.11	0.00023142
2478.75	0.0003369
2488.4	0.000317
2498.04	0.000254
2507.69	0.00023628
2517.33	0.0002936
2526.98	0.0002843
2536.62	0.000316
2546.27	0.0003896
2555.91	0.0003009
2565.56	0.0003014
2575.2	0.0002859
2584.85	0.0003714
2594.49	0.00025
2604.14	0.0002486
2613.78	0.0002994
2623.43	0.0003018
2633.07	0.0002617
2642.72	0.0002484
2652.36	0.0002506
2662.01	0.0002802
2671.65	0.0003528
2681.29	0.000278
2690.94	0.0002841
2700.58	0.0003103
2710.23	0.0003285
2719.87	0.0003152
2729.52	0.0003975
2739.16	0.0004262
2748.81	0.0004085
2758.45	0.0004352
2768.1	0.000376
2777.74	0.0004275
2787.39	0.0004361
2797.03	0.0005584
2806.68	0.000522
2816.32	0.0006942
2825.97	0.0007777
2835.61	0.0010215
2845.26	0.001569
2854.9	0.002939
2864.55	0.004009
2874.19	0.003599
2883.84	0.003219
2893.48	0.002799
2903.12	0.003149
2912.77	0.004469
2922.41	0.006589
2932.06	0.009229
2941.7	0.008029
2951.35	0.005649
2960.99	0.004749
2970.64	0.004429
2980.28	0.002299
2989.93	0.001559
2999.57	0.001139
3009.22	0.0009246
3018.86	0.0010917
3028.51	0.001459
3038.15	0.0010904
3047.8	0.0006148
3057.44	0.0007544
3067.09	0.000726
3076.73	0.0008763
3086.38	0.0006785
3096.02	0.0005932
3105.67	0.000557
3115.31	0.0004137
3124.95	0.0004785
3134.6	0.0004162
3144.24	0.0003622
3153.89	0.000337
3163.53	0.0003488
3173.18	0.00021406
3182.82	0.0002709
3192.47	0.0003409
3202.11	0.0002688
3211.76	0.000315
3221.4	0.0004415
3231.05	0.0002946
3240.69	0.00021158
3250.34	0.0004016
3259.98	0.0002851
3269.63	0.000366
3279.27	0.0002601
3288.92	0.0003573
3298.56	0.0003259
3308.21	0.000289
3317.85	9.73e-05
3327.49	0.00020771
3337.14	0.000263
3346.78	0.000309
3356.43	0.0002997
3366.07	0.0002679
3375.72	0.00021446
3385.36	0.0003303
3395.01	0.0002778
3404.65	0.0003128
3414.3	0.0003159
3423.94	0.00023193
3433.59	0.0003362
3443.23	0.0004987
3452.88	0.00021819
3462.52	0.0002544
3472.17	0.0002511
3481.81	0.0003011
3491.46	0.0003196
3501.1	0.0003414
3510.75	0.0002953
3520.39	0.00017234
3530.04	0.0003076
3539.68	0.0003302
3549.32	0.0003154
3558.97	0.0003532
3568.61	9.13e-05
3578.26	0.00018759
3587.9	0.0004145
3597.55	3.1e-05
3607.19	0.0002995
3616.84	0.0003838
3626.48	0.0003412
3636.13	0.00015071
3645.77	0.00016177
3655.42	0.0003347
3665.06	0.0002391
3674.71	0.00023806
3684.35	0.0003094
3694	0.0003701
3703.64	0.0002772
3713.29	0.0003042
3722.93	0.000401
3732.58	0.000446
3742.22	0.0003243
3751.86	0.0004348
3761.51	0.00022672
3771.15	0.0001653
3780.8	0.00020306
3790.44	0.0003953
3800.09	0.0002575
3809.73	0.0003173
3819.38	0.000319
3829.02	0.0002463
3838.67	0.0001822
3848.31	0.00022494
3857.96	0.0002473
3867.6	0.0003632
3877.25	0.0003211
3886.89	0.0002689
3896.54	0.0004577
3906.18	0.00022058
3915.83	0.00018355
3925.47	0.000319
3935.12	0.0004231
3944.76	0.0004598
3954.41	0.0003257
3964.05	0.0002747
3973.69	0.0002685
3983.34	0.0003519
3992.98	0.0001013
