Infrared Spectrum: p-Nonyloxybenzylidene p-butylaniline
Formula: C 26 H 37 N O
CAS: 51749-28-1
State: gas
Origin: EPA-IR VAPOR PHASE LIBRARY
1/CM	ABSORBANCE
549.8	0.001315
559.445	0.001785
569.09	0.001178
578.734	0.000999
588.379	0.0004419
598.024	0.0006943
607.669	0.0008185
617.313	0.000877
626.958	0.0005237
636.603	0.0006559
646.248	0.0005394
655.893	0.0006635
665.537	0.0005441
675.182	0.00018857
684.827	0.0003196
694.472	0.0006222
704.116	0.0006272
713.761	0.0009188
723.406	0.0011237
733.051	0.0009935
742.695	0.0008494
752.34	0.000786
761.985	0.000762
771.63	0.0007427
781.275	0.0008411
790.919	0.0007478
800.564	0.001385
810.209	0.002035
819.854	0.002765
829.498	0.004385
839.143	0.004365
848.788	0.002575
858.433	0.001565
868.078	0.001585
877.722	0.002485
887.367	0.003365
897.012	0.001625
906.657	0.0009546
916.301	0.0009756
925.946	0.0011084
935.591	0.0009699
945.236	0.0008323
954.88	0.0010845
964.525	0.001245
974.17	0.001675
983.815	0.001615
993.46	0.001995
1003.1	0.002285
1012.75	0.003225
1022.39	0.002795
1032.04	0.002895
1041.68	0.003085
1051.33	0.002295
1060.97	0.002265
1070.62	0.001445
1080.26	0.001395
1089.91	0.0007949
1099.55	0.0011284
1109.2	0.001435
1118.84	0.001435
1128.49	0.0011557
1138.13	0.0009375
1147.78	0.002065
1157.42	0.009515
1167.07	0.017475
1176.71	0.003745
1186.36	0.003805
1196	0.005285
1205.64	0.005075
1215.29	0.006645
1224.93	0.010195
1234.58	0.014995
1244.22	0.018905
1253.87	0.014565
1263.51	0.007065
1273.16	0.004585
1282.8	0.004685
1292.45	0.005625
1302.09	0.007185
1311.74	0.004535
1321.38	0.002745
1331.03	0.002165
1340.67	0.002205
1350.32	0.002115
1359.96	0.002095
1369.61	0.002005
1379.25	0.002355
1388.9	0.002665
1398.54	0.001745
1408.18	0.001715
1417.83	0.003035
1427.47	0.001935
1437.12	0.001815
1446.76	0.002365
1456.41	0.003295
1466.05	0.004095
1475.7	0.005035
1485.34	0.003345
1494.99	0.005155
1504.63	0.014595
1514.28	0.016305
1523.92	0.004355
1533.57	0.002225
1543.21	0.001705
1552.86	0.001755
1562.5	0.002685
1572.15	0.006165
1581.79	0.005655
1591.44	0.009955
1601.08	0.017535
1610.73	0.009455
1620.37	0.005525
1630.01	0.010215
1639.66	0.006305
1649.3	0.002735
1658.95	0.001815
1668.59	0.001325
1678.24	0.001063
1687.88	0.0009713
1697.53	0.0007088
1707.17	0.0007167
1716.82	0.0006415
1726.46	0.0006288
1736.11	0.000638
1745.75	0.0006626
1755.4	0.0006988
1765.04	0.0008796
1774.69	0.0006932
1784.33	0.0005871
1793.98	0.0005453
1803.62	0.0005293
1813.27	0.0005603
1822.91	0.0005041
1832.55	0.0004743
1842.2	0.0005269
1851.84	0.0005795
1861.49	0.0005488
1871.13	0.0006146
1880.78	0.0006685
1890.42	0.0007226
1900.07	0.0007353
1909.71	0.0005912
1919.36	0.0005295
1929	0.0005882
1938.65	0.0006727
1948.29	0.0006029
1957.94	0.0004287
1967.58	0.0006224
1977.23	0.0005452
1986.87	0.0005715
1996.52	0.0004802
2006.16	0.0006145
2015.81	0.0006902
2025.45	0.0006202
2035.1	0.0006595
2044.74	0.000758
2054.38	0.0006433
2064.03	0.0004936
2073.67	0.0006411
2083.32	0.0005357
2092.96	0.0005256
2102.61	0.0004253
2112.25	0.0004574
2121.9	0.0005325
2131.54	0.0005047
2141.19	0.0005041
2150.83	0.0005138
2160.48	0.0004369
2170.12	0.0004386
2179.77	0.0004531
2189.41	0.000362
2199.06	0.0004143
2208.7	0.000497
2218.35	0.0004676
2227.99	0.0005102
2237.64	0.0004282
2247.28	0.0005172
2256.92	0.0005575
2266.57	0.0004984
2276.21	0.0005357
2285.86	0.000477
2295.5	0.0004783
2305.15	0.0005166
2314.79	0.0004556
2324.44	0.0005045
2334.08	0.0005467
2343.73	0.0005917
2353.37	0.0004995
2363.02	0.0005229
2372.66	0.0006071
2382.31	0.0005488
2391.95	0.0006102
2401.6	0.0006293
2411.24	0.0006356
2420.89	0.0006473
2430.53	0.0005784
2440.18	0.0006252
2449.82	0.0005932
2459.47	0.0006317
2469.11	0.0006833
2478.75	0.0006671
2488.4	0.0006403
2498.04	0.0006982
2507.69	0.000644
2517.33	0.0008785
2526.98	0.0007172
2536.62	0.0007402
2546.27	0.0008288
2555.91	0.0008526
2565.56	0.0008078
2575.2	0.0007966
2584.85	0.0006762
2594.49	0.0007223
2604.14	0.0006321
2613.78	0.0006993
2623.43	0.0007199
2633.07	0.0007611
2642.72	0.0007213
2652.36	0.0008477
2662.01	0.0007544
2671.65	0.0007739
2681.29	0.0006898
2690.94	0.0007847
2700.58	0.0008104
2710.23	0.0006944
2719.87	0.0008674
2729.52	0.0008584
2739.16	0.0009603
2748.81	0.0011471
2758.45	0.0009284
2768.1	0.0011208
2777.74	0.0010759
2787.39	0.0010935
2797.03	0.0011765
2806.68	0.001345
2816.32	0.001785
2825.97	0.002085
2835.61	0.002815
2845.26	0.004165
2854.9	0.007675
2864.55	0.011205
2874.19	0.010305
2883.84	0.009205
2893.48	0.007795
2903.12	0.008535
2912.77	0.011935
2922.41	0.017925
2932.06	0.024475
2941.7	0.022415
2951.35	0.015725
2960.99	0.013815
2970.64	0.013115
2980.28	0.006795
2989.93	0.004195
2999.57	0.003245
3009.22	0.002685
3018.86	0.003155
3028.51	0.004335
3038.15	0.003105
3047.8	0.002085
3057.44	0.002035
3067.09	0.002185
3076.73	0.002475
3086.38	0.001715
3096.02	0.001525
3105.67	0.0011173
3115.31	0.0010301
3124.95	0.0009547
3134.6	0.0005401
3144.24	0.000634
3153.89	0.0004807
3163.53	0.0004329
3173.18	0.0004677
3182.82	0.0005481
3192.47	0.000333
3202.11	0.0004426
3211.76	0.0003766
3221.4	0.0005812
3231.05	0.0004425
3240.69	0.0004082
3250.34	0.0005608
3259.98	0.0004164
3269.63	0.0003109
3279.27	0.00024144
3288.92	0.0003251
3298.56	0.0004
3308.21	0.0004106
3317.85	0.00025023
3327.49	0.00025707
3337.14	0.00028384
3346.78	0.000204126
3356.43	0.0004606
3366.07	0.0003343
3375.72	0.0004069
3385.36	0.0003256
3395.01	0.00025527
3404.65	0.00021454
3414.3	0.0004621
3423.94	0.00028856
3433.59	0.0001734
3443.23	0.00021876
3452.88	0.000202695
3462.52	0.0001603
3472.17	0.0003978
3481.81	0.0002453
3491.46	0.0003481
3501.1	0.000131
3510.75	0.0001351
3520.39	0.0003135
3530.04	0.0003927
3539.68	0.000318
3549.32	0.0003289
3558.97	0.00019237
3568.61	8.6e-05
3578.26	0.00021152
3587.9	0.00023143
3597.55	0.0003024
3607.19	0.0001762
3616.84	0.0001674
3626.48	0.00022529
3636.13	0.0001669
3645.77	0.00028447
3655.42	0.00020796
3665.06	0.0001608
3674.71	0.0003842
3684.35	0.0003288
3694	0.00029243
3703.64	0.0003204
3713.29	0.0003932
3722.93	0.000199447
3732.58	0.0002448
3742.22	0.0005157
3751.86	0.0003809
3761.51	0.0003086
3771.15	8.7e-05
3780.8	0.0003557
3790.44	0.0004615
3800.09	0.0001649
3809.73	0.00022255
3819.38	0.0002974
3829.02	0.00028472
3838.67	0.00029486
3848.31	0.0002319
3857.96	0.0001565
3867.6	0.0002959
3877.25	0.0002329
3886.89	0.0003678
3896.54	0.0003443
3906.18	0.0002984
3915.83	0.0001836
3925.47	0.00024
3935.12	0.0003456
3944.76	0.00021232
3954.41	0.0004049
3964.05	0.0001737
3973.69	0.00026706
3983.34	0.0001473
3992.98	0.000418
