Infrared Spectrum: ACETAMIDE, N-[4(5)-IMIDAZOLYL]-
Formula: C5 H7 N3 O
CAS: 51741-72-1
State: SOLID (0.8 mg / 650 mg KBr DISC)
Class: COBLENTZ III
Instrument: PERKIN-ELMER 21 (GRATING)
Instrument parameters: FILTER CHANGE ABOUT 1075 CM^-^1
Sampling: TRANSMISSION
Resolution: 4
Origin: SOUTHERN RESEARCH INSTITUTE
1/CM	TRANSMITTANCE
625.193	0.498
633.488	0.5122
641.783	0.907
650.078	0.8965
658.373	0.8547
666.668	0.8403
674.963	0.8205
683.258	0.8038
691.553	0.7797
699.847	0.7484
708.142	0.7032
716.437	0.6422
724.732	0.4734
733.027	0.5978
741.322	0.6422
749.617	0.6032
757.912	0.5608
766.207	0.4968
774.502	0.4865
782.797	0.494
791.092	0.4896
799.387	0.6024
807.682	0.683
815.977	0.6719
824.272	0.6315
832.567	0.5913
840.861	0.6921
849.156	0.6916
857.451	0.6844
865.746	0.6635
874.041	0.6574
882.336	0.665
890.631	0.6567
898.926	0.6497
907.221	0.641
915.516	0.622
923.811	0.5961
932.106	0.5602
940.401	0.5103
948.696	0.4108
956.991	0.3416
965.286	0.5152
973.581	0.4499
981.876	0.5815
990.17	0.5754
998.465	0.5247
1006.76	0.4929
1015.06	0.462
1023.35	0.4968
1031.65	0.5146
1039.94	0.5424
1048.24	0.544
1056.53	0.5105
1064.82	0.4414
1073.12	0.3371
1081.41	0.4751
1089.71	0.5384
1098	0.5666
1106.3	0.554
1114.59	0.5371
1122.89	0.5233
1131.18	0.5087
1139.48	0.494
1147.77	0.4722
1156.07	0.4284
1164.36	0.3941
1172.66	0.3853
1180.95	0.3486
1189.25	0.2586
1197.54	0.2067
1205.84	0.3771
1214.13	0.3238
1222.43	0.1624
1230.72	0.1318
1239.02	0.118
1247.31	0.1523
1255.61	0.1345
1263.9	0.2828
1272.2	0.4244
1280.49	0.3377
1288.79	0.2949
1297.08	0.583
1305.38	0.671
1313.67	0.6362
1321.97	0.6031
1330.26	0.5119
1338.56	0.4567
1346.85	0.3871
1355.15	0.2481
1363.44	0.245
1371.74	0.2214
1380.03	0.1518
1388.33	0.198
1396.62	0.3897
1404.92	0.4909
1413.21	0.4863
1421.51	0.4654
1429.8	0.4587
1438.1	0.4654
1446.39	0.4484
1454.69	0.3852
1462.98	0.3188
1471.28	0.2012
1479.57	0.2026
1487.87	0.4106
1496.16	0.456
1504.46	0.4749
1512.75	0.4712
1521.05	0.4517
1529.34	0.425
1537.64	0.2816
1545.93	0.2236
1554.23	0.1508
1562.52	0.162
1570.82	0.239
1579.11	0.3283
1587.41	0.3187
1595.7	0.266
1604	0.4704
1612.29	0.6098
1620.59	0.6085
1628.88	0.5954
1637.18	0.5659
1645.47	0.5221
1653.77	0.4692
1662.06	0.3343
1670.36	0.2805
1678.65	0.154
1686.95	0.3007
1695.24	0.552
1703.54	0.4261
1711.83	0.1645
1720.13	0.1449
1728.42	0.1909
1736.72	0.3084
1745.01	0.442
1753.31	0.5636
1761.6	0.6484
1769.89	0.7165
1778.19	0.7548
1786.48	0.783
1794.78	0.7949
1803.07	0.8138
1811.37	0.8258
1819.66	0.8347
1827.96	0.8396
1836.25	0.85
1844.55	0.85
1852.84	0.844
1861.14	0.8365
1869.43	0.8392
1877.73	0.8512
1886.02	0.855
1894.32	0.855
1902.61	0.8542
1910.91	0.857
1919.2	0.859
1927.5	0.861
1935.79	0.861
1944.09	0.8596
1952.38	0.8577
1960.68	0.8563
1968.97	0.8519
1977.27	0.851
1985.56	0.846
1993.86	0.8422
2002.15	0.842
2010.45	0.842
2018.74	0.842
2027.04	0.842
2035.33	0.842
2043.63	0.841
2051.92	0.839
2060.22	0.84
2068.51	0.8372
2076.81	0.834
2085.1	0.832
2093.4	0.831
2101.69	0.8294
2109.99	0.8262
2118.28	0.824
2126.58	0.821
2134.87	0.8132
2143.17	0.809
2151.46	0.809
2159.76	0.813
2168.05	0.811
2176.35	0.8082
2184.64	0.807
2192.94	0.802
2201.23	0.7964
2209.53	0.7932
2217.82	0.7874
2226.12	0.785
2234.41	0.783
2242.71	0.783
2251	0.783
2259.3	0.7802
2267.59	0.7764
2275.89	0.7692
2284.18	0.7652
2292.48	0.761
2300.77	0.756
2309.07	0.755
2317.36	0.7558
2325.66	0.756
2333.95	0.757
2342.25	0.7542
2350.54	0.7528
2358.84	0.752
2367.13	0.75
2375.43	0.7492
2383.72	0.749
2392.02	0.749
2400.31	0.746
2408.61	0.7422
2416.9	0.739
2425.2	0.7326
2433.49	0.73
2441.79	0.724
2450.08	0.7212
2458.38	0.7176
2466.67	0.715
2474.97	0.716
2483.26	0.716
2491.55	0.717
2499.85	0.7132
2508.14	0.7082
2516.44	0.703
2524.73	0.702
2533.03	0.7
2541.32	0.6962
2549.62	0.694
2557.91	0.691
2566.21	0.69
2574.5	0.69
2582.8	0.6854
2591.09	0.685
2599.39	0.683
2607.68	0.6802
2615.98	0.6752
2624.27	0.674
2632.57	0.67
2640.86	0.665
2649.16	0.6622
2657.45	0.6492
2665.75	0.6466
2674.04	0.6432
2682.34	0.637
2690.63	0.6282
2698.93	0.623
2707.22	0.621
2715.52	0.6162
2723.81	0.61
2732.11	0.6052
2740.4	0.596
2748.7	0.5892
2756.99	0.5746
2765.29	0.5562
2773.58	0.5484
2781.88	0.543
2790.17	0.541
2798.47	0.5392
2806.76	0.537
2815.06	0.536
2823.35	0.536
2831.65	0.534
2839.94	0.521
2848.24	0.5114
2856.53	0.4987
2864.83	0.4894
2873.12	0.4812
2881.42	0.4732
2889.71	0.4556
2898.01	0.4472
2906.3	0.445
2914.6	0.441
2922.89	0.4364
2931.19	0.433
2939.48	0.412
2947.78	0.3906
2956.07	0.3768
2964.37	0.3572
2972.66	0.349
2980.96	0.341
2989.25	0.3428
2997.55	0.3498
3005.84	0.3548
3014.14	0.36
3022.43	0.3596
3030.73	0.361
3039.02	0.3708
3047.32	0.3804
3055.61	0.4053
3063.91	0.4191
3072.2	0.436
3080.5	0.4402
3088.79	0.4254
3097.09	0.4162
3105.38	0.4263
3113.68	0.441
3121.97	0.4382
3130.27	0.4192
3138.56	0.4022
3146.86	0.3769
3155.15	0.3489
3163.45	0.341
3171.74	0.343
3180.04	0.3611
3188.33	0.4069
3196.62	0.4373
3204.92	0.4576
3213.21	0.4644
3221.51	0.4806
3229.8	0.5109
3238.1	0.5432
3246.39	0.5629
3254.69	0.5764
3262.98	0.5848
3271.28	0.6013
3279.57	0.6146
3287.87	0.6276
3296.16	0.634
3304.46	0.632
3312.75	0.6292
3321.05	0.624
3329.34	0.621
3337.64	0.616
3345.93	0.611
3354.23	0.6064
3362.52	0.5972
3370.82	0.5922
3379.11	0.5892
3387.41	0.586
3395.7	0.584
3404	0.5868
3412.29	0.593
3420.59	0.5968
3428.88	0.5998
3437.18	0.6076
3445.47	0.6098
3453.77	0.612
3462.06	0.615
3470.36	0.6178
3478.65	0.6228
3486.95	0.6308
3495.24	0.6388
3503.54	0.6448
3511.83	0.6498
3520.13	0.6536
3528.42	0.655
3536.72	0.659
3545.01	0.6666
3553.31	0.671
3561.6	0.674
3569.9	0.675
3578.19	0.681
3586.49	0.685
3594.78	0.688
3603.08	0.69
3611.37	0.69
3619.67	0.6882
3627.96	0.6872
3636.26	0.685
3644.55	0.684
3652.85	0.685
3661.14	0.685
3669.44	0.6842
3677.73	0.682
3686.03	0.682
3694.32	0.683
3702.62	0.683
3710.91	0.683
3719.21	0.683
3727.5	0.684
3735.8	0.685
3744.09	0.687
3752.39	0.6832
3760.68	0.68
3768.98	0.675
3777.27	0.672
3785.57	0.671
3793.86	0.671
3802.16	0.671
3810.45	0.67
3818.75	0.669
3827.04	0.669
3835.34	0.668
3843.63	0.668
3851.93	0.669
3860.22	0.669
3868.52	0.669
3876.81	0.669
3885.11	0.669
3893.4	0.669
3901.7	0.669
