Infrared Spectrum: 7-METHYLDIBENZO(a,h)PYRENE
Formula: C25 H16
CAS: 5174-22-1
State: SOLID (KBr PELLET)
Melting point: 329 C
Class: COBLENTZ
Instrument: Not specified, most likely a prism, grating, or hybrid spectrometer.
Sampling: TRANSMISSION
Resolution: 4
Origin: UNION CARBIDE CORPORATION (CARBON PRODUCTS DIVISION)
MICROMETERS	TRANSMITTANCE
2.027	0.137
2.06032	0.137
2.09363	0.133
2.12695	0.133
2.16026	0.136
2.19358	0.135
2.22689	0.14
2.26021	0.14
2.29352	0.141
2.32684	0.144
2.36016	0.145
2.39347	0.147
2.42679	0.149
2.4601	0.152
2.49342	0.155
2.52673	0.16
2.56005	0.163
2.59336	0.168
2.62668	0.169
2.65999	0.171
2.69331	0.172
2.72663	0.172
2.75994	0.177
2.79326	0.179
2.82657	0.18
2.85989	0.184
2.8932	0.188
2.92652	0.189
2.95983	0.192
2.99315	0.2
3.02647	0.204
3.05978	0.213
3.0931	0.219
3.12641	0.223
3.15973	0.232
3.19304	0.235
3.22636	0.245
3.25967	0.247
3.29299	0.247
3.3263	0.241
3.35962	0.244
3.39294	0.245
3.42625	0.251
3.45957	0.256
3.49288	0.26
3.5262	0.262
3.55951	0.263
3.59283	0.272
3.62614	0.279
3.65946	0.286
3.69278	0.288
3.72609	0.291
3.75941	0.298
3.79272	0.303
3.82604	0.306
3.85935	0.308
3.89267	0.32
3.92598	0.323
3.9593	0.326
3.99261	0.33
4.02593	0.336
4.05925	0.34
4.09256	0.343
4.12588	0.344
4.15919	0.348
4.19251	0.352
4.22582	0.352
4.25914	0.351
4.29245	0.346
4.32577	0.356
4.35909	0.372
4.3924	0.378
4.42572	0.382
4.45903	0.39
4.49235	0.391
4.52566	0.406
4.55898	0.41
4.59229	0.413
4.62561	0.413
4.65893	0.418
4.69224	0.419
4.72556	0.426
4.75887	0.427
4.79219	0.431
4.8255	0.435
4.85882	0.443
4.89213	0.446
4.92545	0.455
4.95876	0.455
4.99208	0.457
5.0254	0.463
5.05871	0.47
5.09203	0.471
5.12534	0.473
5.15866	0.473
5.19197	0.473
5.22529	0.469
5.2586	0.467
5.29192	0.471
5.32524	0.478
5.35855	0.491
5.39187	0.497
5.42518	0.498
5.4585	0.498
5.49181	0.498
5.52513	0.5
5.55844	0.502
5.59176	0.502
5.62507	0.504
5.65839	0.506
5.69171	0.506
5.72502	0.51
5.75834	0.525
5.79165	0.537
5.82497	0.538
5.85828	0.534
5.8916	0.534
5.92491	0.534
5.95823	0.537
5.99155	0.538
6.02486	0.546
6.05818	0.553
6.09149	0.554
6.12481	0.55
6.15812	0.439
6.19144	0.471
6.22475	0.524
6.25807	0.53
6.29138	0.529
6.3247	0.532
6.35802	0.546
6.39133	0.548
6.42465	0.554
6.45796	0.557
6.49128	0.564
6.52459	0.568
6.55791	0.566
6.59122	0.57
6.62454	0.573
6.65786	0.577
6.69117	0.577
6.72449	0.56
6.7578	0.558
6.79112	0.56
6.82443	0.495
6.85775	0.516
6.89106	0.534
6.92438	0.553
6.95769	0.564
6.99101	0.572
7.02433	0.566
7.05764	0.57
7.09096	0.57
7.12427	0.576
7.15759	0.592
7.1909	0.616
7.22422	0.605
7.25753	0.588
7.29085	0.586
7.32417	0.529
7.35748	0.504
7.3908	0.561
7.42411	0.6
7.45743	0.61
7.49074	0.618
7.52406	0.622
7.55737	0.606
7.59069	0.604
7.62401	0.61
7.65732	0.596
7.69064	0.586
7.72395	0.606
7.75727	0.643
7.79058	0.649
7.8239	0.645
7.85721	0.644
7.89053	0.647
7.92384	0.645
7.95716	0.605
7.99048	0.609
8.02379	0.616
8.05711	0.652
8.09042	0.653
8.12374	0.668
8.15705	0.673
8.19037	0.681
8.22368	0.687
8.257	0.577
8.29032	0.562
8.32363	0.64
8.35695	0.668
8.39026	0.673
8.42358	0.681
8.45689	0.679
8.49021	0.673
8.52352	0.672
8.55684	0.673
8.59015	0.671
8.62347	0.672
8.65679	0.672
8.6901	0.672
8.72342	0.672
8.75673	0.673
8.79005	0.677
8.82336	0.681
8.85668	0.693
8.88999	0.705
8.92331	0.713
8.95663	0.716
8.98994	0.766
9.02326	0.754
9.05657	0.752
9.08989	0.752
9.1232	0.75
9.15652	0.75
9.18983	0.747
9.22315	0.747
9.25646	0.747
9.28978	0.747
9.3231	0.745
9.35641	0.745
9.38973	0.741
9.42304	0.743
9.45636	0.745
9.48967	0.747
9.52299	0.751
9.5563	0.752
9.58962	0.752
9.62294	0.754
9.65625	0.756
9.68957	0.755
9.72288	0.756
9.7562	0.752
9.78951	0.721
9.82283	0.713
9.85614	0.727
9.88946	0.732
9.92278	0.741
9.95609	0.743
9.98941	0.748
10.0227	0.756
10.056	0.762
10.0894	0.771
10.1227	0.778
10.156	0.779
10.1893	0.779
10.2226	0.782
10.2559	0.782
10.2892	0.782
10.3226	0.782
10.3559	0.782
10.3892	0.783
10.4225	0.783
10.4558	0.782
10.4891	0.783
10.5225	0.787
10.5558	0.784
10.5891	0.752
10.6224	0.743
10.6557	0.759
10.689	0.77
10.7223	0.782
10.7557	0.784
10.789	0.783
10.8223	0.79
10.8556	0.791
10.8889	0.798
10.9222	0.804
10.9556	0.811
10.9889	0.816
11.0222	0.823
11.0555	0.823
11.0888	0.824
11.1221	0.827
11.1554	0.828
11.1888	0.835
11.2221	0.84
11.2554	0.842
11.2887	0.84
11.322	0.823
11.3553	0.783
11.3887	0.64
11.422	0.37
11.4553	0.393
11.4886	0.536
11.5219	0.655
11.5552	0.731
11.5886	0.756
11.6219	0.776
11.6552	0.802
11.6885	0.802
11.7218	0.786
11.7551	0.747
11.7884	0.751
11.8218	0.751
11.8551	0.72
11.8884	0.731
11.9217	0.791
11.955	0.806
11.9883	0.82
12.0217	0.824
12.055	0.828
12.0883	0.827
12.1216	0.827
12.1549	0.831
12.1882	0.84
12.2215	0.839
12.2549	0.803
12.2882	0.664
12.3215	0.537
12.3548	0.604
12.3881	0.721
12.4214	0.752
12.4548	0.741
12.4881	0.713
12.5214	0.715
12.5547	0.732
12.588	0.759
12.6213	0.792
12.6546	0.822
12.688	0.827
12.7213	0.834
12.7546	0.839
12.7879	0.85
12.8212	0.852
12.8545	0.852
12.8879	0.862
12.9212	0.863
12.9545	0.862
12.9878	0.859
13.0211	0.859
13.0544	0.863
13.0877	0.863
13.1211	0.852
13.1544	0.822
13.1877	0.653
13.221	0.406
13.2543	0.319
13.2876	0.232
13.321	0.215
13.3543	0.195
13.3876	0.188
13.4209	0.223
13.4542	0.308
13.4875	0.407
13.5208	0.494
13.5542	0.455
13.5875	0.282
13.6208	0.237
13.6541	0.303
13.6874	0.433
13.7207	0.512
13.7541	0.561
13.7874	0.616
13.8207	0.647
13.854	0.671
13.8873	0.685
13.9206	0.703
13.954	0.715
13.9873	0.723
14.0206	0.733
14.0539	0.74
14.0872	0.743
14.1205	0.748
14.1538	0.752
14.1872	0.752
14.2205	0.751
14.2538	0.743
14.2871	0.727
14.3204	0.717
14.3537	0.72
14.3871	0.729
14.4204	0.733
14.4537	0.735
14.487	0.737
14.5203	0.74
14.5536	0.727
14.5869	0.541
14.6203	0.347
14.6536	0.359
14.6869	0.504
14.7202	0.586
14.7535	0.613
14.7868	0.645
14.8202	0.665
14.8535	0.685
14.8868	0.701
14.9201	0.703
14.9534	0.704
14.9867	0.705
15.02	0.731
