Infrared Spectrum: Dimethyl 5-bromoisophthalate
Formula: C 10 H 9 Br O 4
CAS: 51760-21-5
State: gas
Origin: EPA-IR VAPOR PHASE LIBRARY
1/CM	ABSORBANCE
549.8	0.000546
559.445	0.0003428
569.09	0.0005897
578.734	0.0004678
588.379	0.0004794
598.024	0.0003943
607.669	0.0005324
617.313	0.0005373
626.958	0.0004148
636.603	0.000526
646.248	0.0008698
655.893	0.0015
665.537	0.00316
675.182	0.00191
684.827	0.0011528
694.472	0.00178
704.116	0.00459
713.761	0.01899
723.406	0.02986
733.051	0.03624
742.695	0.01541
752.34	0.03082
761.985	0.01987
771.63	0.00508
781.275	0.00224
790.919	0.0017
800.564	0.00169
810.209	0.00413
819.854	0.00856
829.498	0.00823
839.143	0.00302
848.788	0.00257
858.433	0.0043
868.078	0.00599
877.722	0.00388
887.367	0.005
897.012	0.00874
906.657	0.00517
916.301	0.00251
925.946	0.0027
935.591	0.00279
945.236	0.00316
954.88	0.00635
964.525	0.01187
974.17	0.01485
983.815	0.01165
993.46	0.02478
1003.1	0.04051
1012.75	0.019
1022.39	0.00565
1032.04	0.00356
1041.68	0.00278
1051.33	0.00289
1060.97	0.00376
1070.62	0.00429
1080.26	0.00607
1089.91	0.01175
1099.55	0.02434
1109.2	0.02654
1118.84	0.01974
1128.49	0.02575
1138.13	0.03838
1147.78	0.02704
1157.42	0.0157
1167.07	0.01421
1176.71	0.01592
1186.36	0.02217
1196	0.03259
1205.64	0.04351
1215.29	0.06643
1224.93	0.13996
1234.58	0.32712
1244.22	0.30303
1253.87	0.11822
1263.51	0.04945
1273.16	0.03696
1282.8	0.05612
1292.45	0.12556
1302.09	0.16833
1311.74	0.07998
1321.38	0.02427
1331.03	0.01616
1340.67	0.0126
1350.32	0.0101
1359.96	0.00775
1369.61	0.00655
1379.25	0.00689
1388.9	0.00734
1398.54	0.00752
1408.18	0.00873
1417.83	0.01329
1427.47	0.02415
1437.12	0.03917
1446.76	0.03866
1456.41	0.01253
1466.05	0.00863
1475.7	0.00641
1485.34	0.00508
1494.99	0.00444
1504.63	0.00433
1514.28	0.004
1523.92	0.0039
1533.57	0.00469
1543.21	0.00519
1552.86	0.00712
1562.5	0.01188
1572.15	0.02041
1581.79	0.01461
1591.44	0.00528
1601.08	0.00517
1610.73	0.00472
1620.37	0.0026
1630.01	0.00237
1639.66	0.00263
1649.3	0.00293
1658.95	0.00384
1668.59	0.00439
1678.24	0.00537
1687.88	0.0054
1697.53	0.00723
1707.17	0.01639
1716.82	0.01981
1726.46	0.01947
1736.11	0.04251
1745.75	0.21517
1755.4	0.19419
1765.04	0.033
1774.69	0.01352
1784.33	0.02201
1793.98	0.01473
1803.62	0.00621
1813.27	0.00506
1822.91	0.00515
1832.55	0.00458
1842.2	0.00381
1851.84	0.00331
1861.49	0.00254
1871.13	0.00175
1880.78	0.0011861
1890.42	0.0009264
1900.07	0.000866
1909.71	0.0010209
1919.36	0.001145
1929	0.00126
1938.65	0.00149
1948.29	0.00184
1957.94	0.00237
1967.58	0.00239
1977.23	0.0019
1986.87	0.00146
1996.52	0.0015
2006.16	0.00134
2015.81	0.0010927
2025.45	0.0010189
2035.1	0.0009018
2044.74	0.0010768
2054.38	0.00139
2064.03	0.00171
2073.67	0.00162
2083.32	0.00137
2092.96	0.00152
2102.61	0.00172
2112.25	0.00165
2121.9	0.00149
2131.54	0.00126
2141.19	0.00122
2150.83	0.0011658
2160.48	0.0012
2170.12	0.0009542
2179.77	0.0007552
2189.41	0.0007535
2199.06	0.0006461
2208.7	0.0005672
2218.35	0.0005054
2227.99	0.0004302
2237.64	0.0005388
2247.28	0.0005387
2256.92	0.0004417
2266.57	0.0005199
2276.21	0.0005769
2285.86	0.0004612
2295.5	0.0005203
2305.15	0.0007018
2314.79	0.0006427
2324.44	0.0005152
2334.08	0.0005611
2343.73	0.0007055
2353.37	0.0005424
2363.02	0.0005994
2372.66	0.0005496
2382.31	0.0006779
2391.95	0.0007134
2401.6	0.0006364
2411.24	0.0006525
2420.89	0.0006716
2430.53	0.000678
2440.18	0.0004261
2449.82	0.0005953
2459.47	0.0005209
2469.11	0.000493
2478.75	0.0005722
2488.4	0.0006355
2498.04	0.0005292
2507.69	0.0005814
2517.33	0.0005401
2526.98	0.0006496
2536.62	0.0007146
2546.27	0.0006228
2555.91	0.0004794
2565.56	0.0006207
2575.2	0.0006999
2584.85	0.0007262
2594.49	0.0007805
2604.14	0.000757
2613.78	0.0005464
2623.43	0.0004526
2633.07	0.0004898
2642.72	0.0005289
2652.36	0.0004938
2662.01	0.0004923
2671.65	0.0003987
2681.29	0.0003946
2690.94	0.0004706
2700.58	0.0004346
2710.23	0.0004639
2719.87	0.0004508
2729.52	0.000404
2739.16	0.0004813
2748.81	0.0004162
2758.45	0.0004226
2768.1	0.0004801
2777.74	0.0003501
2787.39	0.0006274
2797.03	0.0004996
2806.68	0.0006608
2816.32	0.0009967
2825.97	0.00133
2835.61	0.00219
2845.26	0.00511
2854.9	0.00606
2864.55	0.00349
2874.19	0.00294
2883.84	0.00327
2893.48	0.00385
2903.12	0.00501
2912.77	0.00548
2922.41	0.00573
2932.06	0.0053
2941.7	0.00641
2951.35	0.01377
2960.99	0.04168
2970.64	0.02237
2980.28	0.00674
2989.93	0.00613
2999.57	0.00812
3009.22	0.0086
3018.86	0.00621
3028.51	0.00647
3038.15	0.00617
3047.8	0.0039
3057.44	0.00301
3067.09	0.0028
3076.73	0.00369
3086.38	0.00467
3096.02	0.00338
3105.67	0.00218
3115.31	0.0017
3124.95	0.00129
3134.6	0.0011268
3144.24	0.0009204
3153.89	0.0009341
3163.53	0.0006955
3173.18	0.0007025
3182.82	0.0006764
3192.47	0.0007055
3202.11	0.000553
3211.76	0.0004389
3221.4	0.0001789
3231.05	0.00024378
3240.69	0.000196199
3250.34	0.000191742
3259.98	0.0002964
3269.63	0.0002622
3279.27	0.00025724
3288.92	0.0003495
3298.56	0.0004559
3308.21	0.00021908
3317.85	0.0004887
3327.49	0.00025538
3337.14	0.0003298
3346.78	0.0003445
3356.43	0.000326
3366.07	0.00027914
3375.72	0.0001747
3385.36	0.00024994
3395.01	0.0003295
3404.65	0.00021445
3414.3	0.00024699
3423.94	0.0004147
3433.59	0.0003475
3443.23	0.0005417
3452.88	0.000759
3462.52	0.0008767
3472.17	0.00192
3481.81	0.00279
3491.46	0.00142
3501.1	0.0009565
3510.75	0.0007898
3520.39	0.0005509
3530.04	0.0004255
3539.68	0.0003665
3549.32	0.000495
3558.97	0.0003091
3568.61	0.0005181
3578.26	0.00025969
3587.9	0.00022745
3597.55	0.00024153
3607.19	0.00021435
3616.84	0.0003585
3626.48	7.9e-05
3636.13	0.00027709
3645.77	0.00022242
3655.42	0.00027853
3665.06	0.00020769
3674.71	2.5e-05
3684.35	0.00022306
3694	0.0002963
3703.64	0.00024658
3713.29	0.0004235
3722.93	0.0003613
3732.58	0.000196406
3742.22	0.00020384
3751.86	0.0001114
3761.51	0.0001766
3771.15	0.00020338
3780.8	0.00021786
3790.44	0.00022219
3800.09	0.0001658
3809.73	0.0003245
3819.38	0.0004538
3829.02	0.0003361
3838.67	0.000199121
3848.31	0.00020586
3857.96	0.0003678
3867.6	0.0003187
3877.25	0.0006224
3886.89	0.000190898
3896.54	0.00023488
3906.18	0.0003427
3915.83	0.0003359
3925.47	0.0004228
3935.12	0.00026231
3944.76	0.0005917
3954.41	0.0004186
3964.05	0.0004099
3973.69	0.0004647
3983.34	0.0003484
3992.98	0.0005058
