Infrared Spectrum: Pyrimidine, 5-amino-2,4-dichloro-,
Formula: C4 H3 Cl2 N3
CAS: 5177-27-5
State: SOLID (1 mg / 650 mg KBr DISC)
Class: COBLENTZ III
Instrument: PERKIN-ELMER 21 (GRATING)
Instrument parameters: FILTER CHANGE ABOUT 1070 CM^-^1
Resolution: 2
Origin: SOUTHERN RESEARCH INSTITUTE
1/CM	TRANSMITTANCE
623	0.8371
632.025	0.8176
641.049	0.7815
650.074	0.6731
659.099	0.4483
668.123	0.8491
677.148	0.8366
686.173	0.8107
695.198	0.7813
704.222	0.7463
713.247	0.6759
722.272	0.5274
731.296	0.449
740.321	0.625
749.346	0.7802
758.37	0.766
767.395	0.7636
776.42	0.7563
785.445	0.7443
794.469	0.7363
803.494	0.731
812.519	0.726
821.543	0.7185
830.568	0.7028
839.593	0.6912
848.617	0.6633
857.642	0.6275
866.667	0.3948
875.691	0.2757
884.716	0.6227
893.741	0.6213
902.766	0.5942
911.79	0.4348
920.815	0.6009
929.84	0.7262
938.864	0.7415
947.889	0.7422
956.914	0.7409
965.938	0.7384
974.963	0.7327
983.988	0.7213
993.013	0.6937
1002.04	0.6524
1011.06	0.6539
1020.09	0.6856
1029.11	0.7182
1038.14	0.7118
1047.16	0.7105
1056.19	0.709
1065.21	0.7075
1074.23	0.7058
1083.26	0.6931
1092.28	0.6606
1101.31	0.6257
1110.33	0.5717
1119.36	0.3263
1128.38	0.3879
1137.41	0.5845
1146.43	0.627
1155.46	0.5638
1164.48	0.5578
1173.51	0.5443
1182.53	0.275
1191.56	0.3342
1200.58	0.6474
1209.61	0.7143
1218.63	0.6795
1227.65	0.4591
1236.68	0.469
1245.7	0.6702
1254.73	0.7075
1263.75	0.7226
1272.78	0.7018
1281.8	0.6497
1290.83	0.6773
1299.85	0.69
1308.88	0.6711
1317.9	0.6246
1326.93	0.5711
1335.95	0.5924
1344.98	0.5868
1354	0.5435
1363.03	0.4051
1372.05	0.2791
1381.07	0.3797
1390.1	0.3701
1399.12	0.1067
1408.15	0.0268
1417.17	0.0462
1426.2	0.3263
1435.22	0.5674
1444.25	0.5037
1453.27	0.5599
1462.3	0.6952
1471.32	0.6835
1480.35	0.501
1489.37	0.5078
1498.4	0.508
1507.42	0.2346
1516.44	0.1491
1525.47	0.377
1534.49	0.5465
1543.52	0.5588
1552.54	0.5432
1561.57	0.3564
1570.59	0.5006
1579.62	0.6756
1588.64	0.6796
1597.67	0.6321
1606.69	0.4633
1615.72	0.2728
1624.74	0.1602
1633.77	0.3351
1642.79	0.5792
1651.82	0.7693
1660.84	0.8347
1669.86	0.857
1678.89	0.8628
1687.91	0.8647
1696.94	0.8668
1705.96	0.8693
1714.99	0.8723
1724.01	0.8738
1733.04	0.8771
1742.06	0.8811
1751.09	0.8818
1760.11	0.8781
1769.14	0.8729
1778.16	0.8663
1787.19	0.8604
1796.21	0.855
1805.24	0.8453
1814.26	0.8561
1823.28	0.8594
1832.31	0.8547
1841.33	0.8559
1850.36	0.859
1859.38	0.861
1868.41	0.8598
1877.43	0.8563
1886.46	0.852
1895.48	0.8468
1904.51	0.84
1913.53	0.843
1922.56	0.8453
1931.58	0.8432
1940.61	0.8415
1949.63	0.8395
1958.65	0.8369
1967.68	0.8345
1976.7	0.8323
1985.73	0.8292
1994.75	0.8251
2003.78	0.819
2012.8	0.8157
2021.83	0.8128
2030.85	0.8108
2039.88	0.8104
2048.9	0.8082
2057.93	0.8043
2066.95	0.8025
2075.98	0.8014
2085	0.7998
2094.03	0.7989
2103.05	0.7981
2112.07	0.7916
2121.1	0.7845
2130.12	0.7849
2139.15	0.7878
2148.17	0.7874
2157.2	0.7858
2166.22	0.7867
2175.25	0.7895
2184.27	0.7919
2193.3	0.7931
2202.32	0.7906
2211.35	0.787
2220.37	0.7823
2229.4	0.7787
2238.42	0.7786
2247.45	0.7755
2256.47	0.7649
2265.49	0.7621
2274.52	0.7611
2283.54	0.7609
2292.57	0.7585
2301.59	0.7522
2310.62	0.7505
2319.64	0.7502
2328.67	0.7505
2337.69	0.7511
2346.72	0.7521
2355.74	0.7532
2364.77	0.7548
2373.79	0.7495
2382.82	0.7411
2391.84	0.7384
2400.86	0.7373
2409.89	0.7319
2418.91	0.7254
2427.94	0.7152
2436.96	0.709
2445.99	0.7074
2455.01	0.7136
2464.04	0.7224
2473.06	0.7238
2482.09	0.7206
2491.11	0.7185
2500.14	0.7154
2509.16	0.7126
2518.19	0.7101
2527.21	0.7081
2536.24	0.7064
2545.26	0.7047
2554.28	0.7025
2563.31	0.7002
2572.33	0.698
2581.36	0.7001
2590.38	0.696
2599.41	0.6874
2608.43	0.6832
2617.46	0.6786
2626.48	0.6737
2635.51	0.6688
2644.53	0.6648
2653.56	0.6614
2662.58	0.658
2671.61	0.6553
2680.63	0.6526
2689.66	0.6495
2698.68	0.646
2707.7	0.6393
2716.73	0.639
2725.75	0.6413
2734.78	0.6446
2743.8	0.648
2752.83	0.6471
2761.85	0.6449
2770.88	0.6411
2779.9	0.6376
2788.93	0.6327
2797.95	0.6263
2806.98	0.6204
2816	0.6171
2825.03	0.6156
2834.05	0.6156
2843.07	0.6131
2852.1	0.6067
2861.12	0.6022
2870.15	0.5979
2879.17	0.5936
2888.2	0.5894
2897.22	0.5866
2906.25	0.5862
2915.27	0.586
2924.3	0.5851
2933.32	0.583
2942.35	0.5781
2951.37	0.5717
2960.4	0.5646
2969.42	0.5576
2978.45	0.5532
2987.47	0.5495
2996.49	0.5475
3005.52	0.5464
3014.54	0.5451
3023.57	0.5442
3032.59	0.544
3041.62	0.5415
3050.64	0.538
3059.67	0.5297
3068.69	0.5183
3077.72	0.5032
3086.74	0.4855
3095.77	0.4625
3104.79	0.4396
3113.82	0.4137
3122.84	0.3838
3131.87	0.3481
3140.89	0.309
3149.91	0.2866
3158.94	0.2693
3167.96	0.2572
3176.99	0.2527
3186.01	0.2604
3195.04	0.3061
3204.06	0.3743
3213.09	0.3788
3222.11	0.3681
3231.14	0.3336
3240.16	0.2991
3249.19	0.2646
3258.21	0.2296
3267.24	0.1871
3276.26	0.1477
3285.29	0.1314
3294.31	0.138
3303.33	0.1744
3312.36	0.2476
3321.38	0.319
3330.41	0.3686
3339.43	0.3708
3348.46	0.3626
3357.48	0.3481
3366.51	0.3211
3375.53	0.2701
3384.56	0.2243
3393.58	0.2342
3402.61	0.2807
3411.63	0.3703
3420.66	0.4081
3429.68	0.4456
3438.7	0.4712
3447.73	0.4893
3456.75	0.5026
3465.78	0.5152
3474.8	0.5272
3483.83	0.5369
3492.85	0.5463
3501.88	0.5551
3510.9	0.5633
3519.93	0.569
3528.95	0.5751
3537.98	0.5821
3547	0.5916
3556.03	0.6022
3565.05	0.611
3574.08	0.6206
3583.1	0.6336
3592.12	0.641
3601.15	0.6488
3610.17	0.6514
3619.2	0.6487
3628.22	0.6458
3637.25	0.6422
3646.27	0.6402
3655.3	0.642
3664.32	0.6453
3673.35	0.6481
3682.37	0.6489
3691.4	0.6483
3700.42	0.6467
3709.45	0.6449
3718.47	0.6419
3727.5	0.6387
3736.52	0.6358
3745.54	0.6335
3754.57	0.6321
3763.59	0.6302
3772.62	0.6272
3781.64	0.6223
3790.67	0.6183
3799.69	0.6144
3808.72	0.6113
3817.74	0.6095
3826.77	0.609
3835.79	0.6083
3844.82	0.6074
3853.84	0.6065
3862.87	0.6056
3871.89	0.6042
3880.91	0.6033
3889.94	0.6032
3898.96	0.6037
3907.99	0.6043
