Infrared Spectrum: 2,5-XYLIDINE, HYDROCHLORIDE
Formula: C8 H12 Cl N
CAS: 51786-53-9
State: SOLID (OIL MULL)
Melting point: 229 C
Class: COBLENTZ III
Instrument: BAIRD NaCl PRISM
Sampling: TRANSMISSION
Resolution: 4
Origin: WYANDOTTE CHEMICALS CORP.
MICROMETERS	TRANSMITTANCE
2.093	0.577
2.132	0.582
2.17099	0.59
2.20999	0.596
2.24898	0.593
2.28798	0.592
2.32697	0.598
2.36597	0.608
2.40496	0.618
2.44396	0.631
2.48295	0.646
2.52195	0.657
2.56094	0.672
2.59994	0.685
2.63893	0.696
2.67793	0.711
2.71692	0.727
2.75592	0.746
2.79491	0.755
2.83391	0.76
2.8729	0.763
2.9119	0.76
2.95089	0.759
2.98989	0.76
3.02888	0.765
3.06788	0.774
3.10687	0.779
3.14587	0.777
3.18486	0.747
3.22386	0.695
3.26285	0.603
3.30185	0.444
3.34084	0.274
3.37984	0.055
3.41883	0.023
3.45783	0.023
3.49682	0.023
3.53582	0.028
3.57481	0.134
3.61381	0.208
3.6528	0.272
3.6918	0.32
3.73079	0.36
3.76979	0.403
3.80878	0.426
3.84778	0.425
3.88677	0.379
3.92577	0.381
3.96476	0.382
4.00376	0.444
4.04275	0.517
4.08175	0.569
4.12074	0.607
4.15974	0.63
4.19873	0.647
4.23773	0.674
4.27672	0.688
4.31572	0.703
4.35472	0.723
4.39371	0.758
4.43271	0.777
4.4717	0.8
4.5107	0.807
4.54969	0.817
4.58869	0.83
4.62768	0.838
4.66668	0.841
4.70567	0.85
4.74467	0.867
4.78366	0.872
4.82266	0.876
4.86165	0.883
4.90065	0.888
4.93964	0.894
4.97864	0.9
5.01763	0.906
5.05663	0.91
5.09562	0.911
5.13462	0.912
5.17361	0.903
5.21261	0.894
5.2516	0.898
5.2906	0.903
5.32959	0.9
5.36859	0.9
5.40758	0.907
5.44658	0.909
5.48557	0.915
5.52457	0.923
5.56356	0.934
5.60256	0.941
5.64155	0.953
5.68055	0.958
5.71954	0.954
5.75854	0.96
5.79753	0.973
5.83653	0.974
5.87552	0.975
5.91452	0.976
5.95351	0.979
5.99251	0.982
6.0315	0.976
6.0705	0.975
6.10949	0.601
6.14849	0.549
6.18748	0.561
6.22648	0.455
6.26547	0.139
6.30447	0.076
6.34346	0.11
6.38246	0.111
6.42145	0.202
6.46045	0.266
6.49944	0.304
6.53844	0.207
6.57744	0.123
6.61643	0.092
6.65543	0.105
6.69442	0.149
6.73342	0.161
6.77241	0.152
6.81141	0.078
6.8504	0.072
6.8894	0.074
6.92839	0.084
6.96739	0.142
7.00638	0.236
7.04538	0.263
7.08437	0.307
7.12337	0.334
7.16236	0.352
7.20136	0.326
7.24035	0.228
7.27935	0.159
7.31834	0.234
7.35734	0.301
7.39633	0.373
7.43533	0.4
7.47432	0.418
7.51332	0.455
7.55231	0.484
7.59131	0.501
7.6303	0.505
7.6693	0.501
7.70829	0.472
7.74729	0.409
7.78628	0.451
7.82528	0.511
7.86427	0.534
7.90327	0.557
7.94226	0.565
7.98126	0.57
8.02025	0.472
8.05925	0.441
8.09824	0.531
8.13724	0.554
8.17623	0.55
8.21523	0.52
8.25422	0.56
8.29322	0.576
8.33221	0.586
8.37121	0.598
8.4102	0.611
8.4492	0.615
8.48819	0.623
8.52719	0.625
8.56618	0.624
8.60518	0.559
8.64417	0.564
8.68317	0.588
8.72216	0.602
8.76116	0.613
8.80016	0.611
8.83915	0.471
8.87815	0.431
8.91714	0.544
8.95614	0.561
8.99513	0.51
9.03413	0.434
9.07312	0.449
9.11212	0.542
9.15111	0.59
9.19011	0.612
9.2291	0.625
9.2681	0.629
9.30709	0.626
9.34609	0.598
9.38508	0.531
9.42408	0.511
9.46307	0.525
9.50207	0.525
9.54106	0.499
9.58006	0.428
9.61905	0.386
9.65805	0.386
9.69704	0.441
9.73604	0.521
9.77503	0.576
9.81403	0.604
9.85302	0.623
9.89202	0.634
9.93101	0.628
9.97001	0.597
10.009	0.553
10.048	0.574
10.087	0.609
10.126	0.641
10.165	0.661
10.204	0.682
10.243	0.687
10.282	0.692
10.321	0.699
10.36	0.712
10.399	0.723
10.4379	0.73
10.4769	0.73
10.5159	0.706
10.5549	0.719
10.5939	0.748
10.6329	0.757
10.6719	0.765
10.7109	0.771
10.7499	0.779
10.7889	0.788
10.8279	0.793
10.8669	0.806
10.9059	0.828
10.9449	0.845
10.9839	0.858
11.0229	0.877
11.0619	0.894
11.1009	0.9
11.1399	0.904
11.1789	0.911
11.2179	0.906
11.2568	0.893
11.2958	0.815
11.3348	0.533
11.3738	0.412
11.4128	0.66
11.4518	0.776
11.4908	0.84
11.5298	0.884
11.5688	0.905
11.6078	0.917
11.6468	0.932
11.6858	0.938
11.7248	0.942
11.7638	0.946
11.8028	0.953
11.8418	0.959
11.8808	0.961
11.9198	0.958
11.9588	0.964
11.9978	0.974
12.0367	0.982
12.0757	0.982
12.1147	0.982
12.1537	0.981
12.1927	0.968
12.2317	0.915
12.2707	0.79
12.3097	0.552
12.3487	0.253
12.3877	0.133
12.4267	0.126
12.4657	0.311
12.5047	0.563
12.5437	0.674
12.5827	0.75
12.6217	0.791
12.6607	0.823
12.6997	0.844
12.7387	0.856
12.7777	0.871
12.8166	0.874
12.8556	0.873
12.8946	0.874
12.9336	0.872
12.9726	0.867
13.0116	0.865
13.0506	0.862
13.0896	0.862
13.1286	0.861
13.1676	0.861
13.2066	0.858
13.2456	0.855
13.2846	0.849
13.3236	0.838
13.3626	0.817
13.4016	0.802
13.4406	0.797
13.4796	0.795
13.5186	0.781
13.5576	0.771
13.5966	0.758
13.6355	0.749
13.6745	0.746
13.7135	0.739
13.7525	0.732
13.7915	0.72
13.8305	0.706
13.8695	0.683
13.9085	0.62
13.9475	0.563
13.9865	0.591
14.0255	0.658
14.0645	0.717
14.1035	0.747
14.1425	0.765
14.1815	0.781
14.2205	0.791
14.2595	0.797
14.2985	0.78
14.3375	0.651
14.3765	0.525
14.4154	0.482
14.4544	0.56
14.4934	0.65
14.5324	0.701
14.5714	0.726
14.6104	0.733
14.6494	0.734
14.6884	0.737
14.7274	0.738
14.7664	0.736
14.8054	0.734
14.8444	0.73
14.8834	0.726
14.9224	0.722
14.9614	0.715
15.0004	0.705
15.0394	0.68
15.0784	0.656
15.1174	0.644
15.1564	0.644
15.1953	0.651
15.2343	0.651
15.2733	0.645
15.3123	0.636
15.3513	0.625
15.3903	0.614
15.4293	0.602
15.4683	0.591
15.5073	0.573
15.5463	0.56
15.5853	0.549
15.6243	0.536
15.6633	0.526
15.7023	0.511
15.7413	0.5
15.7803	0.492
15.8193	0.477
15.8583	0.463
15.8973	0.447
15.9363	0.435
15.9753	0.424
