Infrared Spectrum: 2,3-Dibromopropyl isothiocyanate
Formula: C 4 H 5 Br 2 N S
CAS: 51784-10-2
State: gas
Origin: EPA-IR VAPOR PHASE LIBRARY
1/CM	ABSORBANCE
549.8	0.013574
559.445	0.016854
569.09	0.024314
578.734	0.032954
588.379	0.024954
598.024	0.013414
607.669	0.009744
617.313	0.007294
626.958	0.005264
636.603	0.005584
646.248	0.007934
655.893	0.009924
665.537	0.007624
675.182	0.006324
684.827	0.006314
694.472	0.007354
704.116	0.008454
713.761	0.008064
723.406	0.007224
733.051	0.007054
742.695	0.005894
752.34	0.004764
761.985	0.003364
771.63	0.002194
781.275	0.001424
790.919	0.0012587
800.564	0.0012169
810.209	0.001534
819.854	0.001994
829.498	0.004394
839.143	0.005584
848.788	0.005214
858.433	0.004034
868.078	0.005064
877.722	0.006584
887.367	0.005404
897.012	0.002954
906.657	0.003024
916.301	0.003084
925.946	0.002864
935.591	0.002814
945.236	0.003414
954.88	0.003454
964.525	0.003684
974.17	0.005154
983.815	0.004134
993.46	0.003204
1003.1	0.003444
1012.75	0.002924
1022.39	0.003144
1032.04	0.002584
1041.68	0.002614
1051.33	0.002724
1060.97	0.003804
1070.62	0.004544
1080.26	0.004094
1089.91	0.003714
1099.55	0.003504
1109.2	0.004514
1118.84	0.005554
1128.49	0.008454
1138.13	0.013094
1147.78	0.011594
1157.42	0.008504
1167.07	0.008704
1176.71	0.012084
1186.36	0.011884
1196	0.010254
1205.64	0.009694
1215.29	0.013734
1224.93	0.024454
1234.58	0.021604
1244.22	0.009964
1253.87	0.011754
1263.51	0.017464
1273.16	0.013934
1282.8	0.009264
1292.45	0.009724
1302.09	0.011524
1311.74	0.015364
1321.38	0.018094
1331.03	0.019364
1340.67	0.025024
1350.32	0.046824
1359.96	0.051334
1369.61	0.025234
1379.25	0.010024
1388.9	0.006034
1398.54	0.004524
1408.18	0.004294
1417.83	0.007104
1427.47	0.013744
1437.12	0.025864
1446.76	0.042654
1456.41	0.019764
1466.05	0.005504
1475.7	0.003034
1485.34	0.002264
1494.99	0.001784
1504.63	0.001434
1514.28	0.001404
1523.92	0.001361
1533.57	0.001256
1543.21	0.0012952
1552.86	0.0012421
1562.5	0.0012281
1572.15	0.0010166
1581.79	0.0010013
1591.44	0.000996
1601.08	0.001054
1610.73	0.0010754
1620.37	0.0010324
1630.01	0.0009971
1639.66	0.0009538
1649.3	0.000867
1658.95	0.0008441
1668.59	0.0007565
1678.24	0.0008017
1687.88	0.0006974
1697.53	0.0007665
1707.17	0.0007503
1716.82	0.0007953
1726.46	0.0009339
1736.11	0.0008374
1745.75	0.0009221
1755.4	0.0010442
1765.04	0.0010584
1774.69	0.0011605
1784.33	0.0012836
1793.98	0.001404
1803.62	0.001444
1813.27	0.001614
1822.91	0.001904
1832.55	0.002154
1842.2	0.002374
1851.84	0.002834
1861.49	0.003354
1871.13	0.004124
1880.78	0.005034
1890.42	0.006364
1900.07	0.008064
1909.71	0.010114
1919.36	0.012874
1929	0.016714
1938.65	0.022074
1948.29	0.029464
1957.94	0.038904
1967.58	0.051854
1977.23	0.070004
1986.87	0.095804
1996.52	0.133164
2006.16	0.186574
2015.81	0.256814
2025.45	0.337434
2035.1	0.406164
2044.74	0.430124
2054.38	0.395744
2064.03	0.303234
2073.67	0.208914
2083.32	0.156724
2092.96	0.133364
2102.61	0.118874
2112.25	0.100224
2121.9	0.081624
2131.54	0.066174
2141.19	0.054324
2150.83	0.044334
2160.48	0.037554
2170.12	0.033074
2179.77	0.030604
2189.41	0.030914
2199.06	0.031604
2208.7	0.029554
2218.35	0.024924
2227.99	0.021064
2237.64	0.018884
2247.28	0.017434
2256.92	0.015274
2266.57	0.012574
2276.21	0.009934
2285.86	0.007834
2295.5	0.006354
2305.15	0.005334
2314.79	0.004334
2324.44	0.003664
2334.08	0.003094
2343.73	0.002744
2353.37	0.002444
2363.02	0.002124
2372.66	0.001904
2382.31	0.001714
2391.95	0.001634
2401.6	0.001524
2411.24	0.001414
2420.89	0.0013472
2430.53	0.0013566
2440.18	0.001306
2449.82	0.001444
2459.47	0.001404
2469.11	0.001434
2478.75	0.001504
2488.4	0.001704
2498.04	0.001604
2507.69	0.001664
2517.33	0.001764
2526.98	0.002004
2536.62	0.002264
2546.27	0.002494
2555.91	0.002474
2565.56	0.002544
2575.2	0.002434
2584.85	0.002194
2594.49	0.001984
2604.14	0.001954
2613.78	0.001984
2623.43	0.002004
2633.07	0.002154
2642.72	0.002224
2652.36	0.002234
2662.01	0.002274
2671.65	0.002344
2681.29	0.002334
2690.94	0.002384
2700.58	0.002614
2710.23	0.002884
2719.87	0.003174
2729.52	0.003234
2739.16	0.003784
2748.81	0.004124
2758.45	0.004674
2768.1	0.004944
2777.74	0.004754
2787.39	0.004224
2797.03	0.003944
2806.68	0.003494
2816.32	0.003164
2825.97	0.002474
2835.61	0.002284
2845.26	0.002184
2854.9	0.002794
2864.55	0.004724
2874.19	0.005444
2883.84	0.003934
2893.48	0.002724
2903.12	0.002664
2912.77	0.003974
2922.41	0.007554
2932.06	0.011884
2941.7	0.010674
2951.35	0.008514
2960.99	0.010084
2970.64	0.009044
2980.28	0.006604
2989.93	0.005474
2999.57	0.002634
3009.22	0.0012928
3018.86	0.0012295
3028.51	0.0009229
3038.15	0.0007916
3047.8	0.0005856
3057.44	0.0006682
3067.09	0.0006209
3076.73	0.0005624
3086.38	0.0005073
3096.02	0.0005171
3105.67	0.00044023
3115.31	0.0005289
3124.95	0.000528
3134.6	0.0003716
3144.24	0.00044119
3153.89	0.000281
3163.53	0.0003348
3173.18	0.000237
3182.82	0.0003306
3192.47	0.00038583
3202.11	0.0003189
3211.76	0.000232
3221.4	0.000293
3231.05	0.00021
3240.69	0.000212
3250.34	0.000162
3259.98	0.000276
3269.63	0.000244
3279.27	0.0003812
3288.92	0.000257
3298.56	0.000243
3308.21	0.0003272
3317.85	0.000155
3327.49	0.00015
3337.14	0.000211
3346.78	0.0003148
3356.43	0.0003255
3366.07	0.000133
3375.72	0.0003372
3385.36	0.000312
3395.01	0.000254
3404.65	0.00038655
3414.3	0.000281
3423.94	0.000271
3433.59	0.0003607
3443.23	0.00044866
3452.88	0.00041502
3462.52	0.00040473
3472.17	0.0003609
3481.81	0.00044591
3491.46	0.00041617
3501.1	0.000397173
3510.75	0.000254
3520.39	0.00043163
3530.04	0.0005403
3539.68	0.00041265
3549.32	0.0004891
3558.97	0.0003535
3568.61	0.00047328
3578.26	0.0005188
3587.9	0.0004945
3597.55	0.0005245
3607.19	0.0003607
3616.84	0.00043039
3626.48	0.00045054
3636.13	0.00048293
3645.77	0.0004977
3655.42	0.0005594
3665.06	0.0005422
3674.71	0.00046708
3684.35	0.0006497
3694	0.00046624
3703.64	0.0005632
3713.29	0.0005013
3722.93	0.00043601
3732.58	0.0005129
3742.22	0.00049235
3751.86	0.00046267
3761.51	0.0005884
3771.15	0.0005318
3780.8	0.0006616
3790.44	0.0006158
3800.09	0.0005565
3809.73	0.0006692
3819.38	0.0006759
3829.02	0.00068
3838.67	0.0008585
3848.31	0.0007492
3857.96	0.000724
3867.6	0.0008484
3877.25	0.0008014
3886.89	0.0008664
3896.54	0.0009574
3906.18	0.0009985
3915.83	0.0011703
3925.47	0.0010351
3935.12	0.0010324
3944.76	0.001394
3954.41	0.001464
3964.05	0.001424
3973.69	0.001544
3983.34	0.001834
3992.98	0.001844
