Infrared Spectrum: 4-Fluoro-2-methoxyacetophenone
Formula: C 9 H 9 F O 2
CAS: 51788-80-8
State: gas
Origin: EPA-IR VAPOR PHASE LIBRARY
1/CM	ABSORBANCE
549.8	0.013948
559.445	0.015418
569.09	0.015568
578.734	0.015678
588.379	0.012268
598.024	0.011438
607.669	0.010178
617.313	0.011378
626.958	0.009078
636.603	0.006158
646.248	0.002918
655.893	0.002218
665.537	0.0015071
675.182	0.002118
684.827	0.0016807
694.472	0.0013822
704.116	0.002018
713.761	0.003088
723.406	0.005298
733.051	0.005088
742.695	0.003008
752.34	0.001998
761.985	0.002478
771.63	0.002468
781.275	0.003578
790.919	0.004968
800.564	0.011158
810.209	0.021538
819.854	0.017718
829.498	0.030868
839.143	0.046578
848.788	0.030558
858.433	0.014778
868.078	0.008078
877.722	0.004768
887.367	0.005228
897.012	0.004088
906.657	0.005098
916.301	0.005428
925.946	0.008758
935.591	0.016258
945.236	0.034568
954.88	0.057748
964.525	0.056878
974.17	0.031658
983.815	0.015588
993.46	0.012738
1003.1	0.014488
1012.75	0.020688
1022.39	0.039128
1032.04	0.052948
1041.68	0.041478
1051.33	0.023348
1060.97	0.023228
1070.62	0.020998
1080.26	0.016278
1089.91	0.014228
1099.55	0.025118
1109.2	0.068128
1118.84	0.065068
1128.49	0.026398
1138.13	0.034538
1147.78	0.080978
1157.42	0.086488
1167.07	0.043218
1176.71	0.028208
1186.36	0.039478
1196	0.052408
1205.64	0.043038
1215.29	0.052848
1224.93	0.094658
1234.58	0.092928
1244.22	0.083768
1253.87	0.135438
1263.51	0.181358
1273.16	0.154918
1282.8	0.115348
1292.45	0.071718
1302.09	0.034298
1311.74	0.015528
1321.38	0.011108
1331.03	0.011958
1340.67	0.016748
1350.32	0.032098
1359.96	0.051838
1369.61	0.039438
1379.25	0.024788
1388.9	0.032888
1398.54	0.057758
1408.18	0.082838
1417.83	0.071398
1427.47	0.040038
1437.12	0.025958
1446.76	0.028218
1456.41	0.044208
1466.05	0.057778
1475.7	0.054308
1485.34	0.063318
1494.99	0.073578
1504.63	0.043298
1514.28	0.016578
1523.92	0.012668
1533.57	0.012718
1543.21	0.014648
1552.86	0.020578
1562.5	0.030238
1572.15	0.050558
1581.79	0.100068
1591.44	0.170768
1601.08	0.204348
1610.73	0.146418
1620.37	0.063758
1630.01	0.031878
1639.66	0.022608
1649.3	0.019848
1658.95	0.021238
1668.59	0.025638
1678.24	0.038878
1687.88	0.083088
1697.53	0.142368
1707.17	0.129528
1716.82	0.064008
1726.46	0.036808
1736.11	0.023678
1745.75	0.015198
1755.4	0.010098
1765.04	0.007068
1774.69	0.005198
1784.33	0.004428
1793.98	0.003978
1803.62	0.003588
1813.27	0.003628
1822.91	0.003218
1832.55	0.003328
1842.2	0.002748
1851.84	0.002548
1861.49	0.002858
1871.13	0.003618
1880.78	0.003948
1890.42	0.004058
1900.07	0.003848
1909.71	0.003238
1919.36	0.003448
1929	0.003078
1938.65	0.002708
1948.29	0.003118
1957.94	0.003018
1967.58	0.002678
1977.23	0.003358
1986.87	0.003448
1996.52	0.003318
2006.16	0.003158
2015.81	0.002728
2025.45	0.002478
2035.1	0.002338
2044.74	0.002568
2054.38	0.002628
2064.03	0.002538
2073.67	0.002638
2083.32	0.002398
2092.96	0.002158
2102.61	0.002478
2112.25	0.002298
2121.9	0.002418
2131.54	0.002198
2141.19	0.002458
2150.83	0.001918
2160.48	0.001938
2170.12	0.001938
2179.77	0.002178
2189.41	0.002288
2199.06	0.002008
2208.7	0.002398
2218.35	0.002808
2227.99	0.002548
2237.64	0.002688
2247.28	0.001878
2256.92	0.002148
2266.57	0.001968
2276.21	0.002048
2285.86	0.002128
2295.5	0.002088
2305.15	0.002708
2314.79	0.002488
2324.44	0.002938
2334.08	0.002688
2343.73	0.002568
2353.37	0.002328
2363.02	0.002528
2372.66	0.002088
2382.31	0.002408
2391.95	0.002328
2401.6	0.002648
2411.24	0.002398
2420.89	0.002678
2430.53	0.003038
2440.18	0.003158
2449.82	0.002558
2459.47	0.00184
2469.11	0.002208
2478.75	0.002028
2488.4	0.002208
2498.04	0.002118
2507.69	0.001978
2517.33	0.002278
2526.98	0.002368
2536.62	0.002498
2546.27	0.002028
2555.91	0.002438
2565.56	0.002558
2575.2	0.002518
2584.85	0.002628
2594.49	0.002208
2604.14	0.002578
2613.78	0.002548
2623.43	0.002418
2633.07	0.001968
2642.72	0.002368
2652.36	0.002188
2662.01	0.002238
2671.65	0.002258
2681.29	0.001878
2690.94	0.002378
2700.58	0.002448
2710.23	0.002408
2719.87	0.002118
2729.52	0.002008
2739.16	0.002078
2748.81	0.002318
2758.45	0.002798
2768.1	0.002228
2777.74	0.002828
2787.39	0.003298
2797.03	0.003048
2806.68	0.003308
2816.32	0.004228
2825.97	0.006578
2835.61	0.009448
2845.26	0.013068
2854.9	0.012938
2864.55	0.011618
2874.19	0.012708
2883.84	0.011938
2893.48	0.010408
2903.12	0.010648
2912.77	0.012478
2922.41	0.015548
2932.06	0.018558
2941.7	0.025868
2951.35	0.031568
2960.99	0.029418
2970.64	0.024488
2980.28	0.018568
2989.93	0.015088
2999.57	0.018298
3009.22	0.024598
3018.86	0.020488
3028.51	0.011408
3038.15	0.007698
3047.8	0.007208
3057.44	0.005398
3067.09	0.005348
3076.73	0.005668
3086.38	0.006328
3096.02	0.006288
3105.67	0.004648
3115.31	0.003148
3124.95	0.003548
3134.6	0.002798
3144.24	0.002098
3153.89	0.0016108
3163.53	0.001725
3173.18	0.001174
3182.82	0.0016616
3192.47	0.0014023
3202.11	0.0016845
3211.76	0.0012301
3221.4	0.00093146
3231.05	0.0013137
3240.69	0.0012896
3250.34	0.0012548
3259.98	0.0015206
3269.63	0.0013224
3279.27	0.0017693
3288.92	0.001317
3298.56	0.0014396
3308.21	0.001269
3317.85	0.001436
3327.49	0.0012599
3337.14	0.0012346
3346.78	0.0012391
3356.43	0.0016787
3366.07	0.002618
3375.72	0.003168
3385.36	0.003428
3395.01	0.0016367
3404.65	0.002538
3414.3	0.0017995
3423.94	0.0013877
3433.59	0.0014093
3443.23	0.0014943
3452.88	0.0013096
3462.52	0.0011954
3472.17	0.000647
3481.81	0.0011619
3491.46	0.0010095
3501.1	0.000486
3510.75	0.0007678
3520.39	0.0016223
3530.04	0.001064
3539.68	0.000553
3549.32	0.00045
3558.97	0.0011644
3568.61	0.0013615
3578.26	0.0013385
3587.9	0.00056
3597.55	0.0010679
3607.19	0.0011293
3616.84	0.000685
3626.48	0.000453
3636.13	0.00086417
3645.77	0.0012385
3655.42	0.0016703
3665.06	0.000614
3674.71	0.000416
3684.35	0.00062
3694	0.001007
3703.64	0.0012906
3713.29	0.0010865
3722.93	0.000534
3732.58	0.0012399
3742.22	0.0011886
3751.86	0.0008357
3761.51	0.0014074
3771.15	0.0009915
3780.8	0.00088184
3790.44	0.0012574
3800.09	0.0010443
3809.73	0.000361
3819.38	0.000556
3829.02	0.0014615
3838.67	0.0012553
3848.31	0.0009688
3857.96	0.0015679
3867.6	0.0011232
3877.25	0.0012336
3886.89	0.00090315
3896.54	0.0008054
3906.18	0.000739
3915.83	0.0014922
3925.47	0.0013366
3935.12	0.0011545
3944.76	0.0012142
3954.41	0.0014812
3964.05	0.0010838
3973.69	0.0017246
3983.34	0.00089435
3992.98	0.0016074
