Infrared Spectrum: .gamma.-(4-Fluorophenyl)-.gamma.-butyrolactone
Formula: C 10 H 9 F O 2
CAS: 51787-96-3
State: gas
Origin: EPA-IR VAPOR PHASE LIBRARY
1/CM	ABSORBANCE
549.8	0.0160216
559.445	0.0135516
569.09	0.0071516
578.734	0.0037316
588.379	0.0026316
598.024	0.0027516
607.669	0.0033816
617.313	0.0038316
626.958	0.0042616
636.603	0.0053516
646.248	0.0054216
655.893	0.0064716
665.537	0.0071316
675.182	0.0071716
684.827	0.0058616
694.472	0.0049916
704.116	0.0036616
713.761	0.0033616
723.406	0.0025816
733.051	0.0027816
742.695	0.0033416
752.34	0.0039816
761.985	0.0057816
771.63	0.0087216
781.275	0.0133416
790.919	0.0146716
800.564	0.0186216
810.209	0.0267216
819.854	0.0365016
829.498	0.0544316
839.143	0.0605516
848.788	0.0528016
858.433	0.0345916
868.078	0.0367016
877.722	0.0421616
887.367	0.0274816
897.012	0.0113916
906.657	0.0087316
916.301	0.0100216
925.946	0.0183516
935.591	0.0371316
945.236	0.0298816
954.88	0.0131716
964.525	0.0113416
974.17	0.0141516
983.815	0.0203316
993.46	0.0246116
1003.1	0.0251416
1012.75	0.0382916
1022.39	0.0509716
1032.04	0.0837116
1041.68	0.100992
1051.33	0.0715116
1060.97	0.0354716
1070.62	0.0197216
1080.26	0.0169416
1089.91	0.0188116
1099.55	0.0279716
1109.2	0.0418016
1118.84	0.0885916
1128.49	0.176892
1138.13	0.169082
1147.78	0.133062
1157.42	0.146302
1167.07	0.106082
1176.71	0.0593616
1186.36	0.0341916
1196	0.0313016
1205.64	0.0380916
1215.29	0.0401516
1224.93	0.0637516
1234.58	0.156882
1244.22	0.165212
1253.87	0.0410516
1263.51	0.0244216
1273.16	0.0234316
1282.8	0.0258716
1292.45	0.0273616
1302.09	0.0250616
1311.74	0.0281816
1321.38	0.0368216
1331.03	0.0306516
1340.67	0.0226416
1350.32	0.0232616
1359.96	0.0252716
1369.61	0.0169216
1379.25	0.0091216
1388.9	0.0071916
1398.54	0.0073116
1408.18	0.0078516
1417.83	0.0099316
1427.47	0.0134616
1437.12	0.0115016
1446.76	0.0091416
1456.41	0.0127716
1466.05	0.0164716
1475.7	0.0134016
1485.34	0.0135616
1494.99	0.0253916
1504.63	0.0763216
1514.28	0.144402
1523.92	0.0721816
1533.57	0.0174216
1543.21	0.0083016
1552.86	0.0056316
1562.5	0.0053616
1572.15	0.0064416
1581.79	0.0094516
1591.44	0.0175716
1601.08	0.0360016
1610.73	0.0431816
1620.37	0.0210716
1630.01	0.0097416
1639.66	0.0066516
1649.3	0.0060016
1658.95	0.0055316
1668.59	0.0046716
1678.24	0.0039916
1687.88	0.0037416
1697.53	0.0036716
1707.17	0.0038816
1716.82	0.0043616
1726.46	0.0054216
1736.11	0.0072316
1745.75	0.0097716
1755.4	0.0136616
1765.04	0.0191816
1774.69	0.0259016
1784.33	0.0402416
1793.98	0.0872316
1803.62	0.235562
1813.27	0.482212
1822.91	0.360372
1832.55	0.112792
1842.2	0.0404016
1851.84	0.0213316
1861.49	0.0147616
1871.13	0.0123116
1880.78	0.0114216
1890.42	0.0099616
1900.07	0.0078916
1909.71	0.0063716
1919.36	0.0053416
1929	0.0043616
1938.65	0.0039716
1948.29	0.0035216
1957.94	0.0031016
1967.58	0.0029016
1977.23	0.0029116
1986.87	0.0031316
1996.52	0.0038616
2006.16	0.0040516
2015.81	0.0036316
2025.45	0.0031616
2035.1	0.0026216
2044.74	0.0026816
2054.38	0.0023316
2064.03	0.0022816
2073.67	0.0021616
2083.32	0.0020016
2092.96	0.0017016
2102.61	0.0013216
2112.25	0.0011016
2121.9	0.0011116
2131.54	0.0010299
2141.19	0.0010124
2150.83	0.0010595
2160.48	0.0012216
2170.12	0.0013916
2179.77	0.0013916
2189.41	0.0014516
2199.06	0.0014416
2208.7	0.0014516
2218.35	0.0014516
2227.99	0.0017316
2237.64	0.0017616
2247.28	0.0022516
2256.92	0.0027016
2266.57	0.0026916
2276.21	0.0024816
2285.86	0.0024216
2295.5	0.0023616
2305.15	0.0020616
2314.79	0.0016916
2324.44	0.0016716
2334.08	0.0014016
2343.73	0.0012116
2353.37	0.0012216
2363.02	0.0012016
2372.66	0.0012416
2382.31	0.0013216
2391.95	0.0014016
2401.6	0.0017016
2411.24	0.0013816
2420.89	0.0012416
2430.53	0.0013916
2440.18	0.0017016
2449.82	0.0018316
2459.47	0.0021916
2469.11	0.0022016
2478.75	0.0020716
2488.4	0.0014816
2498.04	0.0011416
2507.69	0.0010257
2517.33	0.0009833
2526.98	0.0008193
2536.62	0.0008617
2546.27	0.0008934
2555.91	0.0009606
2565.56	0.0010816
2575.2	0.0011216
2584.85	0.0012016
2594.49	0.0010347
2604.14	0.0009238
2613.78	0.0008804
2623.43	0.0010085
2633.07	0.000805
2642.72	0.0008749
2652.36	0.0008226
2662.01	0.0006776
2671.65	0.0006728
2681.29	0.0008074
2690.94	0.0008748
2700.58	0.0008863
2710.23	0.0008504
2719.87	0.0007528
2729.52	0.0008349
2739.16	0.0009318
2748.81	0.0008395
2758.45	0.0010059
2768.1	0.001005
2777.74	0.0008654
2787.39	0.000703
2797.03	0.0010091
2806.68	0.0008611
2816.32	0.0011216
2825.97	0.0012516
2835.61	0.0018016
2845.26	0.0022216
2854.9	0.0024716
2864.55	0.0034616
2874.19	0.0055716
2883.84	0.0084116
2893.48	0.0115416
2903.12	0.0131616
2912.77	0.0119716
2922.41	0.0106416
2932.06	0.0129816
2941.7	0.0158416
2951.35	0.0171916
2960.99	0.0193816
2970.64	0.0191516
2980.28	0.0209716
2989.93	0.0216916
2999.57	0.0178516
3009.22	0.0115016
3018.86	0.0075116
3028.51	0.0065316
3038.15	0.0086816
3047.8	0.0097516
3057.44	0.0071816
3067.09	0.0053416
3076.73	0.0057916
3086.38	0.0055216
3096.02	0.0031816
3105.67	0.0023816
3115.31	0.0023316
3124.95	0.0020816
3134.6	0.0015716
3144.24	0.0010309
3153.89	0.0005252
3163.53	0.0004454
3173.18	0.0003994
3182.82	0.0006063
3192.47	0.0003559
3202.11	0.0004171
3211.76	0.0006222
3221.4	0.00012237
3231.05	0.0002795
3240.69	0.00011948
3250.34	0.0003365
3259.98	0.0002479
3269.63	0.0003135
3279.27	0.0003239
3288.92	0.0002823
3298.56	0.0003256
3308.21	0.00015432
3317.85	7.94e-05
3327.49	0.00012191
3337.14	0.0002421
3346.78	0.0001929
3356.43	0.0002776
3366.07	0.00015532
3375.72	0.000405
3385.36	6.69e-05
3395.01	0.0004814
3404.65	0.0002857
3414.3	8.0796e-05
3423.94	0.0001978
3433.59	0.0004148
3443.23	0.0003599
3452.88	0.0002447
3462.52	0.0005144
3472.17	0.0004348
3481.81	0.0005531
3491.46	0.0002159
3501.1	0.0003513
3510.75	0.0003375
3520.39	0.0005965
3530.04	0.0004551
3539.68	0.0005738
3549.32	0.0007401
3558.97	0.0010398
3568.61	0.0010233
3578.26	0.0015016
3587.9	0.0021316
3597.55	0.0034716
3607.19	0.0051816
3616.84	0.0056216
3626.48	0.0036716
3636.13	0.0021116
3645.77	0.0013116
3655.42	0.0009051
3665.06	0.0007321
3674.71	0.0008111
3684.35	0.0005558
3694	0.0005456
3703.64	0.0006038
3713.29	0.0005922
3722.93	0.0003367
3732.58	0.0003262
3742.22	0.0006059
3751.86	0.0004798
3761.51	0.0005464
3771.15	0.0003949
3780.8	0.0002304
3790.44	0.0003814
3800.09	0.0003483
3809.73	0.0002839
3819.38	0.0005439
3829.02	0.000246
3838.67	0.0007031
3848.31	0.000245
3857.96	0.0004585
3867.6	0.0006449
3877.25	0.0005766
3886.89	0.000624
3896.54	0.0004524
3906.18	0.0005315
3915.83	0.0006199
3925.47	0.0008091
3935.12	0.0008833
3944.76	0.0004814
3954.41	0.0008391
3964.05	0.0005522
3973.69	0.0006266
3983.34	0.0005995
3992.98	0.0008669
