Infrared Spectrum: 3,4-(2'-METHYL-2'-METHOXY-4'-PHENYL)DIHYDROPYRANO(-) COUMARIN
Formula: C20 H18 O4
CAS: 518-20-7
State: SOLUTION (7% CHCl3)
Class: COBLENTZ
Instrument: Not specified, most likely a prism, grating, or hybrid spectrometer.
Sampling: TRANSMISSION
Path length: 0.009 CM
Resolution: 4
MICROMETERS	TRANSMITTANCE
2	0.95
2.03564	0.947
2.07127	0.947
2.10691	0.947
2.14254	0.945
2.17818	0.943
2.21381	0.945
2.24945	0.942
2.28509	0.94
2.32072	0.94
2.35636	0.933
2.39199	0.931
2.42763	0.931
2.46326	0.926
2.4989	0.929
2.53453	0.931
2.57017	0.933
2.60581	0.931
2.64144	0.928
2.67708	0.928
2.71271	0.926
2.74835	0.926
2.78398	0.917
2.81962	0.905
2.85526	0.901
2.89089	0.903
2.92653	0.908
2.96216	0.903
2.9978	0.917
3.03343	0.919
3.06907	0.917
3.10471	0.917
3.14034	0.917
3.17598	0.908
3.21161	0.887
3.24725	0.823
3.28288	0.763
3.31852	0.677
3.35416	0.742
3.38979	0.782
3.42543	0.83
3.46106	0.872
3.4967	0.863
3.53233	0.884
3.56797	0.9
3.6036	0.912
3.63924	0.912
3.67488	0.912
3.71051	0.912
3.74615	0.912
3.78178	0.912
3.81742	0.912
3.85305	0.912
3.88869	0.912
3.92433	0.91
3.95996	0.91
3.9956	0.91
4.03123	0.901
4.06687	0.901
4.1025	0.901
4.13814	0.893
4.17378	0.9
4.20941	0.907
4.24505	0.917
4.28068	0.91
4.31632	0.894
4.35195	0.9
4.38759	0.908
4.42323	0.91
4.45886	0.91
4.4945	0.91
4.53013	0.912
4.56577	0.914
4.6014	0.912
4.63704	0.912
4.67267	0.912
4.70831	0.91
4.74395	0.91
4.77958	0.908
4.81522	0.908
4.85085	0.908
4.88649	0.907
4.92212	0.907
4.95776	0.898
4.9934	0.905
5.02903	0.9
5.06467	0.898
5.1003	0.884
5.13594	0.887
5.17157	0.886
5.20721	0.887
5.24285	0.896
5.27848	0.891
5.31412	0.884
5.34975	0.887
5.38539	0.896
5.42102	0.898
5.45666	0.893
5.4923	0.882
5.52793	0.868
5.56357	0.87
5.5992	0.872
5.63484	0.872
5.67047	0.859
5.70611	0.798
5.74174	0.579
5.77738	0.36
5.81302	0.168
5.84865	0.091
5.88429	0.138
5.91992	0.465
5.95556	0.704
5.99119	0.768
6.02683	0.81
6.06247	0.788
6.0981	0.612
6.13374	0.224
6.16937	0.14
6.20501	0.364
6.24064	0.69
6.27628	0.798
6.31192	0.733
6.34755	0.558
6.38319	0.751
6.41882	0.814
6.45446	0.852
6.49009	0.865
6.52573	0.861
6.56137	0.866
6.597	0.838
6.63264	0.817
6.66827	0.753
6.70391	0.413
6.73954	0.74
6.77518	0.83
6.81081	0.807
6.84645	0.718
6.88209	0.476
6.91772	0.674
6.95336	0.803
6.98899	0.779
7.02463	0.828
7.06026	0.838
7.0959	0.821
7.13154	0.791
7.16717	0.698
7.20281	0.53
7.23844	0.355
7.27408	0.161
7.30971	0.612
7.34535	0.746
7.38099	0.732
7.41662	0.784
7.45226	0.803
7.48789	0.803
7.52353	0.714
7.55916	0.612
7.5948	0.718
7.63044	0.714
7.66607	0.719
7.70171	0.798
7.73734	0.74
7.77298	0.579
7.80861	0.577
7.84425	0.653
7.87988	0.63
7.91552	0.647
7.95116	0.661
7.98679	0.711
8.02243	0.7
8.05806	0.609
8.0937	0.467
8.12933	0.388
8.16497	0.418
8.20061	0.439
8.23624	0.436
8.27188	0.45
8.30751	0.453
8.34315	0.553
8.37878	0.63
8.41442	0.593
8.45006	0.597
8.48569	0.64
8.52133	0.663
8.55696	0.509
8.5926	0.481
8.62823	0.69
8.66387	0.719
8.69951	0.7
8.73514	0.695
8.77078	0.595
8.80641	0.711
8.84205	0.781
8.87768	0.798
8.91332	0.81
8.94895	0.802
8.98459	0.77
9.02023	0.649
9.05586	0.565
9.0915	0.497
9.12713	0.408
9.16277	0.509
9.1984	0.418
9.23404	0.271
9.26968	0.273
9.30531	0.425
9.34095	0.441
9.37658	0.287
9.41222	0.383
9.44785	0.619
9.48349	0.654
9.51913	0.607
9.55476	0.495
9.5904	0.318
9.62603	0.283
9.66167	0.376
9.6973	0.462
9.73294	0.453
9.76857	0.674
9.80421	0.758
9.83985	0.802
9.87548	0.798
9.91112	0.658
9.94675	0.593
9.98239	0.702
10.018	0.66
10.0537	0.746
10.0893	0.754
10.1249	0.667
10.1606	0.549
10.1962	0.53
10.2318	0.6
10.2675	0.702
10.3031	0.767
10.3387	0.81
10.3744	0.828
10.41	0.847
10.4457	0.859
10.4813	0.861
10.5169	0.856
10.5526	0.828
10.5882	0.828
10.6238	0.809
10.6595	0.816
10.6951	0.828
10.7307	0.828
10.7664	0.821
10.802	0.795
10.8376	0.707
10.8733	0.574
10.9089	0.479
10.9446	0.492
10.9802	0.654
11.0158	0.69
11.0515	0.698
11.0871	0.737
11.1227	0.654
11.1584	0.676
11.194	0.781
11.2296	0.831
11.2653	0.852
11.3009	0.868
11.3365	0.873
11.3722	0.88
11.4078	0.882
11.4435	0.879
11.4791	0.873
11.5147	0.87
11.5504	0.866
11.586	0.861
11.6216	0.854
11.6573	0.858
11.6929	0.856
11.7285	0.849
11.7642	0.849
11.7998	0.837
11.8354	0.812
11.8711	0.749
11.9067	0.646
11.9424	0.563
11.978	0.598
12.0136	0.707
12.0493	0.777
12.0849	0.81
12.1205	0.817
12.1562	0.8
12.1918	0.746
12.2274	0.669
12.2631	0.604
12.2987	0.577
12.3343	0.569
12.37	0.57
12.4056	0.597
12.4412	0.625
12.4769	0.674
12.5125	0.702
12.5482	0.716
12.5838	0.725
12.6194	0.726
12.6551	0.725
12.6907	0.725
12.7263	0.721
12.762	0.719
12.7976	0.716
12.8332	0.711
12.8689	0.707
12.9045	0.709
12.9401	0.711
12.9758	0.711
13.0114	0.702
13.0471	0.695
13.0827	0.693
13.1183	0.697
13.154	0.69
13.1896	0.684
13.2252	0.683
13.2609	0.677
13.2965	0.683
13.3321	0.677
13.3678	0.683
13.4034	0.677
13.439	0.677
13.4747	0.684
13.5103	0.686
13.546	0.686
13.5816	0.681
13.6172	0.681
13.6529	0.679
13.6885	0.686
13.7241	0.686
13.7598	0.691
13.7954	0.693
13.831	0.688
13.8667	0.697
13.9023	0.702
13.9379	0.711
13.9736	0.719
14.0092	0.732
14.0449	0.747
14.0805	0.756
14.1161	0.751
14.1518	0.725
14.1874	0.639
14.223	0.521
14.2587	0.437
14.2943	0.404
14.3299	0.436
14.3656	0.56
14.4012	0.691
14.4368	0.742
14.4725	0.791
14.5081	0.807
14.5438	0.817
14.5794	0.824
14.615	0.826
14.6507	0.83
14.6863	0.842
14.7219	0.844
14.7576	0.844
14.7932	0.849
14.8288	0.849
14.8645	0.842
14.9001	0.837
14.9357	0.83
14.9714	0.821
15.007	0.802
15.0427	0.749
15.0783	0.705
15.1139	0.719
15.1496	0.774
15.1852	0.824
15.2208	0.844
15.2565	0.859
15.2921	0.882
15.3277	0.886
15.3634	0.88
15.399	0.884
15.4346	0.891
