Infrared Spectrum: PHENOTHIAZINE, Beta-DIMETHYLAMINOETHOXYETHYL-10-CARBOXYLATE-, HYDROCHLORIDE
Formula: C19 H23 Cl N2 O3 S
CAS: 518-63-8
State: SOLID (KCl DISC) VS KCl
Class: COBLENTZ III
Instrument: PERKIN-ELMER 21 (GRATING)
Instrument parameters: FILTER AT ABOUT 10 MICRONS
Sampling: TRANSMISSION
Resolution: 2
1/CM	TRANSMITTANCE
4000	0.3534
3991	0.3542
3982	0.3549
3973	0.3558
3964	0.3566
3955	0.3573
3946	0.3582
3937	0.3591
3928	0.3599
3919	0.3608
3910	0.3616
3901	0.3626
3892	0.3634
3883	0.3641
3874	0.3647
3865	0.3653
3856	0.3659
3847	0.3662
3838	0.3664
3829	0.3664
3820	0.3664
3811	0.3666
3802	0.3671
3793	0.3674
3784	0.3679
3775	0.3682
3766	0.3692
3757	0.3714
3748	0.3732
3739	0.3741
3730	0.375
3721	0.3758
3712	0.3764
3703	0.3773
3694	0.378
3685	0.3788
3676	0.3795
3667	0.3803
3658	0.3808
3649	0.3814
3640	0.3821
3631	0.3827
3622	0.3832
3613	0.3839
3604	0.3845
3595	0.385
3586	0.3857
3577	0.386
3568	0.3866
3559	0.387
3550	0.3874
3541	0.3876
3532	0.3878
3523	0.388
3514	0.3882
3505	0.388
3496	0.3876
3487	0.3871
3478	0.3864
3469	0.3858
3460	0.385
3451	0.3842
3442	0.3834
3433	0.3825
3424	0.3816
3415	0.381
3406	0.3808
3397	0.3804
3388	0.38
3379	0.3821
3370	0.385
3361	0.3879
3352	0.3904
3343	0.3926
3334	0.395
3325	0.3973
3316	0.3996
3307	0.4016
3298	0.404
3289	0.4062
3280	0.4084
3271	0.4108
3262	0.4131
3253	0.4155
3244	0.4179
3235	0.4202
3226	0.4224
3217	0.4246
3208	0.4269
3199	0.4291
3190	0.4318
3181	0.4344
3172	0.4371
3163	0.4399
3154	0.4428
3145	0.4457
3136	0.4479
3127	0.45
3118	0.4519
3109	0.4537
3100	0.4549
3091	0.4558
3082	0.4541
3073	0.4479
3064	0.4474
3055	0.4474
3046	0.4471
3037	0.4465
3028	0.4455
3019	0.4442
3010	0.4424
3001	0.4399
2992	0.4368
2983	0.431
2974	0.4176
2965	0.4007
2956	0.392
2947	0.3895
2938	0.3877
2929	0.3864
2920	0.3846
2911	0.3821
2902	0.3774
2893	0.3737
2884	0.3725
2875	0.3729
2866	0.3766
2857	0.3832
2848	0.3898
2839	0.3976
2830	0.4064
2821	0.4145
2812	0.4218
2803	0.4291
2794	0.4352
2785	0.4409
2776	0.4466
2767	0.4509
2758	0.4527
2749	0.4542
2740	0.4553
2731	0.4564
2722	0.4571
2713	0.4576
2704	0.4576
2695	0.4571
2686	0.455
2677	0.4499
2668	0.4425
2659	0.4348
2650	0.4277
2641	0.4203
2632	0.4114
2623	0.403
2614	0.3966
2605	0.3891
2596	0.3782
2587	0.3654
2578	0.3548
2569	0.345
2560	0.3395
2551	0.3362
2542	0.3353
2533	0.3359
2524	0.3393
2515	0.34
2506	0.3392
2497	0.3377
2488	0.3362
2479	0.3345
2470	0.3246
2461	0.3008
2452	0.2753
2443	0.2581
2434	0.2515
2425	0.2491
2416	0.2475
2407	0.2489
2398	0.258
2389	0.268
2380	0.2725
2371	0.2755
2362	0.2779
2353	0.2821
2344	0.2867
2335	0.2971
2326	0.3122
2317	0.3414
2308	0.3634
2299	0.3841
2290	0.4009
2281	0.4124
2272	0.4224
2263	0.4317
2254	0.4407
2245	0.4487
2236	0.456
2227	0.4624
2218	0.4686
2209	0.4753
2200	0.482
2191	0.4888
2182	0.4947
2173	0.5005
2164	0.5059
2155	0.5108
2146	0.5146
2137	0.5184
2128	0.5219
2119	0.5255
2110	0.5291
2101	0.5328
2092	0.5365
2083	0.5403
2074	0.544
2065	0.5487
2056	0.5541
2047	0.5606
2038	0.5675
2029	0.574
2020	0.5751
2011	0.5768
2002	0.5797
1993	0.5825
1984	0.5856
1975	0.5887
1966	0.5918
1957	0.595
1948	0.5983
1939	0.6018
1930	0.606
1921	0.6103
1912	0.615
1903	0.6197
1894	0.6247
1885	0.6299
1876	0.6356
1867	0.6425
1858	0.6501
1849	0.658
1840	0.6651
1831	0.6678
1822	0.6668
1813	0.6675
1804	0.6708
1795	0.6772
1786	0.6862
1777	0.7001
1768	0.7262
1759	0.7411
1750	0.7051
1741	0.5636
1732	0.2964
1723	0.1516
1714	0.1494
1705	0.292
1696	0.3973
1687	0.4549
1678	0.4915
1669	0.5208
1660	0.5414
1651	0.5573
1642	0.5726
1633	0.5868
1624	0.6023
1615	0.6222
1606	0.6381
1597	0.6194
1588	0.5725
1579	0.6121
1570	0.626
1561	0.6391
1552	0.673
1543	0.6789
1534	0.6981
1525	0.7044
1516	0.7154
1507	0.7175
1498	0.6661
1489	0.46
1480	0.2752
1471	0.2625
1462	0.1653
1453	0.2864
1444	0.2863
1435	0.3859
1426	0.4237
1417	0.496
1408	0.4899
1399	0.4317
1390	0.3982
1381	0.4524
1372	0.3982
1363	0.3645
1354	0.5227
1345	0.5988
1336	0.522
1327	0.2227
1318	0.1422
1309	0.2323
1300	0.3487
1291	0.341
1282	0.2847
1273	0.421
1264	0.4779
1255	0.2472
1246	0.2704
1237	0.3645
1228	0.4055
1219	0.1832
1210	0.2695
1201	0.3857
1192	0.4516
1183	0.421
1174	0.4685
1165	0.507
1156	0.4905
1147	0.5454
1138	0.3721
1129	0.2987
1120	0.3956
1111	0.4749
1102	0.5133
1093	0.3984
1084	0.5084
1075	0.4556
1066	0.3834
1057	0.3878
1048	0.2485
1039	0.4173
1030	0.3489
1021	0.4518
1012	0.5332
1003	0.5277
994	0.3898
985	0.4798
976	0.5585
967	0.6066
958	0.6244
949	0.6265
940	0.6047
931	0.6064
922	0.5514
913	0.6286
904	0.6614
895	0.6861
886	0.6989
877	0.714
868	0.6885
859	0.6804
850	0.6081
841	0.6612
832	0.6918
823	0.7193
814	0.7521
805	0.7665
796	0.7807
787	0.6144
778	0.3204
769	0.5196
760	0.266
751	0.4184
742	0.6217
733	0.6557
724	0.571
715	0.684
706	0.6982
697	0.6315
688	0.7025
679	0.7246
670	0.7424
