Infrared Spectrum: 3-Heptafluorobutyryl-D-camphor
Formula: C 14 H 15 F 7 O 2
CAS: 51800-99-8
State: gas
Origin: EPA-IR VAPOR PHASE LIBRARY
1/CM	ABSORBANCE
549.8	0.009253
559.445	0.010053
569.09	0.010583
578.734	0.009143
588.379	0.008983
598.024	0.010063
607.669	0.011933
617.313	0.009943
626.958	0.010053
636.603	0.011163
646.248	0.009213
655.893	0.008273
665.537	0.009193
675.182	0.012213
684.827	0.010443
694.472	0.009623
704.116	0.013363
713.761	0.020823
723.406	0.029093
733.051	0.034753
742.695	0.081323
752.34	0.047453
761.985	0.027933
771.63	0.027933
781.275	0.015263
790.919	0.008453
800.564	0.007023
810.209	0.013803
819.854	0.013323
829.498	0.008713
839.143	0.010593
848.788	0.009413
858.433	0.009283
868.078	0.012243
877.722	0.018913
887.367	0.038463
897.012	0.045163
906.657	0.030713
916.301	0.020073
925.946	0.024313
935.591	0.037133
945.236	0.042073
954.88	0.051573
964.525	0.026993
974.17	0.016193
983.815	0.015693
993.46	0.024683
1003.1	0.041093
1012.75	0.038673
1022.39	0.061073
1032.04	0.110473
1041.68	0.104053
1051.33	0.047413
1060.97	0.040163
1070.62	0.065363
1080.26	0.045323
1089.91	0.039433
1099.55	0.077693
1109.2	0.106073
1118.84	0.117713
1128.49	0.089883
1138.13	0.061663
1147.78	0.068383
1157.42	0.102793
1167.07	0.134193
1176.71	0.131333
1186.36	0.135373
1196	0.140243
1205.64	0.169983
1215.29	0.306623
1224.93	0.404373
1234.58	0.415653
1244.22	0.280963
1253.87	0.195993
1263.51	0.122793
1273.16	0.074673
1282.8	0.054263
1292.45	0.047173
1302.09	0.054153
1311.74	0.072443
1321.38	0.073233
1331.03	0.106723
1340.67	0.095553
1350.32	0.067853
1359.96	0.044083
1369.61	0.032403
1379.25	0.036803
1388.9	0.028283
1398.54	0.026943
1408.18	0.014153
1417.83	0.011713
1427.47	0.011663
1437.12	0.013973
1446.76	0.020443
1456.41	0.026523
1466.05	0.021903
1475.7	0.023533
1485.34	0.019383
1494.99	0.011933
1504.63	0.010033
1514.28	0.009563
1523.92	0.008963
1533.57	0.008773
1543.21	0.008983
1552.86	0.009393
1562.5	0.010213
1572.15	0.010653
1581.79	0.010643
1591.44	0.011473
1601.08	0.014443
1610.73	0.020203
1620.37	0.031073
1630.01	0.050073
1639.66	0.074063
1649.3	0.064633
1658.95	0.037923
1668.59	0.028363
1678.24	0.033083
1687.88	0.056773
1697.53	0.120983
1707.17	0.132223
1716.82	0.059213
1726.46	0.026863
1736.11	0.020483
1745.75	0.019063
1755.4	0.012373
1765.04	0.013453
1774.69	0.020183
1784.33	0.014483
1793.98	0.007473
1803.62	0.005423
1813.27	0.004503
1822.91	0.004063
1832.55	0.003703
1842.2	0.003323
1851.84	0.003093
1861.49	0.002833
1871.13	0.002643
1880.78	0.002653
1890.42	0.002433
1900.07	0.002403
1909.71	0.002313
1919.36	0.002103
1929	0.001993
1938.65	0.002083
1948.29	0.002083
1957.94	0.002123
1967.58	0.002193
1977.23	0.002163
1986.87	0.001923
1996.52	0.001833
2006.16	0.001563
2015.81	0.001683
2025.45	0.001523
2035.1	0.001573
2044.74	0.001453
2054.38	0.001723
2064.03	0.001653
2073.67	0.001453
2083.32	0.001583
2092.96	0.001603
2102.61	0.001773
2112.25	0.001823
2121.9	0.001713
2131.54	0.001723
2141.19	0.001693
2150.83	0.001773
2160.48	0.001813
2170.12	0.001593
2179.77	0.001753
2189.41	0.001693
2199.06	0.001713
2208.7	0.001713
2218.35	0.001913
2227.99	0.001983
2237.64	0.001993
2247.28	0.001983
2256.92	0.002183
2266.57	0.002333
2276.21	0.002483
2285.86	0.002603
2295.5	0.002673
2305.15	0.002643
2314.79	0.002633
2324.44	0.002643
2334.08	0.002623
2343.73	0.002863
2353.37	0.003143
2363.02	0.003093
2372.66	0.003073
2382.31	0.002943
2391.95	0.003073
2401.6	0.003213
2411.24	0.003143
2420.89	0.003323
2430.53	0.003143
2440.18	0.003363
2449.82	0.003363
2459.47	0.003493
2469.11	0.003523
2478.75	0.003273
2488.4	0.003303
2498.04	0.003193
2507.69	0.003123
2517.33	0.003093
2526.98	0.003033
2536.62	0.003193
2546.27	0.003243
2555.91	0.003233
2565.56	0.003503
2575.2	0.003473
2584.85	0.003493
2594.49	0.003423
2604.14	0.003333
2613.78	0.003343
2623.43	0.003543
2633.07	0.003693
2642.72	0.003343
2652.36	0.003763
2662.01	0.003883
2671.65	0.003603
2681.29	0.004053
2690.94	0.003913
2700.58	0.004003
2710.23	0.003993
2719.87	0.004153
2729.52	0.004353
2739.16	0.004983
2748.81	0.005633
2758.45	0.004993
2768.1	0.005013
2777.74	0.005273
2787.39	0.005543
2797.03	0.005813
2806.68	0.006033
2816.32	0.006433
2825.97	0.006903
2835.61	0.007833
2845.26	0.008673
2854.9	0.010033
2864.55	0.013723
2874.19	0.024883
2883.84	0.040583
2893.48	0.036873
2903.12	0.031923
2912.77	0.031123
2922.41	0.037643
2932.06	0.051243
2941.7	0.060373
2951.35	0.055163
2960.99	0.076683
2970.64	0.126823
2980.28	0.093623
2989.93	0.045093
2999.57	0.036223
3009.22	0.027193
3018.86	0.014903
3028.51	0.010183
3038.15	0.008783
3047.8	0.008763
3057.44	0.008843
3067.09	0.008623
3076.73	0.008813
3086.38	0.008503
3096.02	0.008533
3105.67	0.008453
3115.31	0.008483
3124.95	0.008423
3134.6	0.008123
3144.24	0.007803
3153.89	0.007123
3163.53	0.007083
3173.18	0.007093
3182.82	0.006903
3192.47	0.006423
3202.11	0.006123
3211.76	0.006213
3221.4	0.005853
3231.05	0.005413
3240.69	0.004983
3250.34	0.005183
3259.98	0.005033
3269.63	0.005183
3279.27	0.005043
3288.92	0.005003
3298.56	0.004703
3308.21	0.004803
3317.85	0.004743
3327.49	0.004713
3337.14	0.004173
3346.78	0.003823
3356.43	0.003933
3366.07	0.003373
3375.72	0.003423
3385.36	0.003233
3395.01	0.003123
3404.65	0.003083
3414.3	0.002573
3423.94	0.002803
3433.59	0.001943
3443.23	0.002403
3452.88	0.001923
3462.52	0.001643
3472.17	0.001843
3481.81	0.001403
3491.46	0.001763
3501.1	0.001403
3510.75	0.001523
3520.39	0.001363
3530.04	0.0010109
3539.68	0.001373
3549.32	0.001353
3558.97	0.0008645
3568.61	0.001123
3578.26	0.0010257
3587.9	0.0007994
3597.55	0.0005044
3607.19	0.0005917
3616.84	0.0006281
3626.48	0.0007545
3636.13	0.0005269
3645.77	8.01e-05
3655.42	0.000495
3665.06	0.0004196
3674.71	0.0002863
3684.35	0.0004847
3694	0.0005699
3703.64	0.0002601
3713.29	0.0004289
3722.93	0.0005526
3732.58	0.0002348
3742.22	0.0002788
3751.86	0.0003649
3761.51	0.000346
3771.15	0.0003046
3780.8	0.0007322
3790.44	0
3800.09	0.0003845
3809.73	0.0004015
3819.38	0.0006319
3829.02	0.0006491
3838.67	0.0004621
3848.31	0.0002788
3857.96	0.0004528
3867.6	0.0006712
3877.25	0.0004438
3886.89	0.0005384
3896.54	0.0004202
3906.18	0.0008049
3915.83	0.0005482
3925.47	0.0002898
3935.12	0.0003037
3944.76	0.0004576
3954.41	0.0003635
3964.05	0.0010997
3973.69	0.0006576
3983.34	0.0003128
3992.98	0.0006156
