Infrared Spectrum: 4-ETHYLAMINO-6-METHYL-1,3,3a,7-TETRAZAINDENE
Formula: C8 H11 N5
CAS: 51806-90-7
State: SOLID (KBr PRESSING)
Melting point: 147 C
Class: COBLENTZ
Instrument: Not specified, most likely a prism, grating, or hybrid spectrometer.
Sampling: TRANSMISSION
Resolution: 4
Origin: EASTMAN KODAK COMPANY, RESEARCH LABORATORIES, ROCHESTER, N.Y.
MICROMETERS	TRANSMITTANCE
2.021	0.603
2.05621	0.596
2.09142	0.591
2.12664	0.591
2.16185	0.595
2.19706	0.596
2.23227	0.589
2.26748	0.575
2.3027	0.574
2.33791	0.589
2.37312	0.607
2.40833	0.619
2.44355	0.621
2.47876	0.623
2.51397	0.63
2.54918	0.635
2.58439	0.642
2.61961	0.654
2.65482	0.661
2.69003	0.663
2.72524	0.666
2.76045	0.67
2.79567	0.65
2.83088	0.602
2.86609	0.554
2.9013	0.523
2.93652	0.481
2.97173	0.361
3.00694	0.186
3.04215	0.127
3.07736	0.111
3.11258	0.153
3.14779	0.226
3.183	0.261
3.21821	0.287
3.25342	0.336
3.28864	0.385
3.32385	0.408
3.35906	0.294
3.39427	0.328
3.42949	0.336
3.4647	0.389
3.49991	0.436
3.53512	0.525
3.57033	0.579
3.60555	0.6
3.64076	0.649
3.67597	0.654
3.71118	0.668
3.74639	0.673
3.78161	0.691
3.81682	0.71
3.85203	0.724
3.88724	0.736
3.92245	0.739
3.95767	0.75
3.99288	0.755
4.02809	0.762
4.0633	0.759
4.09852	0.757
4.13373	0.774
4.16894	0.801
4.20415	0.799
4.23936	0.802
4.27458	0.808
4.30979	0.809
4.345	0.825
4.38021	0.837
4.41542	0.849
4.45064	0.851
4.48585	0.835
4.52106	0.841
4.55627	0.842
4.59149	0.848
4.6267	0.856
4.66191	0.858
4.69712	0.867
4.73233	0.867
4.76755	0.869
4.80276	0.869
4.83797	0.863
4.87318	0.862
4.90839	0.867
4.94361	0.879
4.97882	0.877
5.01403	0.876
5.04924	0.881
5.08446	0.881
5.11967	0.883
5.15488	0.881
5.19009	0.879
5.2253	0.888
5.26052	0.898
5.29573	0.898
5.33094	0.907
5.36615	0.891
5.40136	0.835
5.43658	0.726
5.47179	0.837
5.507	0.881
5.54221	0.886
5.57743	0.881
5.61264	0.898
5.64785	0.902
5.68306	0.909
5.71827	0.891
5.75349	0.863
5.7887	0.828
5.82391	0.787
5.85912	0.748
5.89433	0.687
5.92955	0.57
5.96476	0.417
5.99997	0.256
6.03518	0.184
6.07039	0.043
6.10561	0.02
6.14082	0.015
6.17603	0.04
6.21124	0.048
6.24646	0.01
6.28167	0.012
6.31688	0.019
6.35209	0.054
6.3873	0.113
6.42252	0.214
6.45773	0.267
6.49294	0.333
6.52815	0.424
6.56336	0.422
6.59858	0.263
6.63379	0.08
6.669	0.28
6.70421	0.39
6.73943	0.321
6.77464	0.188
6.80985	0.26
6.84506	0.282
6.88027	0.253
6.91549	0.118
6.9507	0.055
6.98591	0.076
7.02112	0.082
7.05633	0.134
7.09155	0.268
7.12676	0.357
7.16197	0.335
7.19718	0.282
7.2324	0.453
7.26761	0.406
7.30282	0.179
7.33803	0.24
7.37324	0.075
7.40846	0.216
7.44367	0.277
7.47888	0.176
7.51409	0.15
7.5493	0.258
7.58452	0.349
7.61973	0.369
7.65494	0.221
7.69015	0.256
7.72536	0.261
7.76058	0.308
7.79579	0.268
7.831	0.326
7.86621	0.465
7.90143	0.492
7.93664	0.237
7.97185	0.02
8.00706	0.04
8.04227	0.228
8.07749	0.364
8.1127	0.359
8.14791	0.525
8.18312	0.572
8.21833	0.591
8.25355	0.502
8.28876	0.101
8.32397	0.029
8.35918	0.101
8.3944	0.141
8.42961	0.267
8.46482	0.371
8.50003	0.413
8.53524	0.441
8.57046	0.415
8.60567	0.279
8.64088	0.068
8.67609	0.038
8.7113	0.15
8.74652	0.284
8.78173	0.373
8.81694	0.45
8.85215	0.462
8.88737	0.438
8.92258	0.502
8.95779	0.553
8.993	0.588
9.02821	0.593
9.06343	0.602
9.09864	0.595
9.13385	0.575
9.16906	0.6
9.20427	0.636
9.23949	0.663
9.2747	0.678
9.30991	0.684
9.34512	0.675
9.38033	0.645
9.41555	0.549
9.45076	0.488
9.48597	0.455
9.52118	0.523
9.5564	0.602
9.59161	0.624
9.62682	0.631
9.66203	0.643
9.69724	0.687
9.73246	0.729
9.76767	0.745
9.80288	0.755
9.83809	0.75
9.8733	0.717
9.90852	0.699
9.94373	0.687
9.97894	0.664
10.0142	0.652
10.0494	0.654
10.0846	0.699
10.1198	0.759
10.155	0.778
10.1902	0.788
10.2254	0.802
10.2606	0.809
10.2959	0.823
10.3311	0.832
10.3663	0.834
10.4015	0.832
10.4367	0.813
10.4719	0.687
10.5071	0.46
10.5423	0.699
10.5775	0.806
10.6128	0.835
10.648	0.853
10.6832	0.856
10.7184	0.855
10.7536	0.806
10.7888	0.645
10.824	0.509
10.8592	0.671
10.8945	0.794
10.9297	0.858
10.9649	0.872
11.0001	0.883
11.0353	0.879
11.0705	0.867
11.1057	0.874
11.1409	0.888
11.1762	0.909
11.2114	0.917
11.2466	0.933
11.2818	0.937
11.317	0.938
11.3522	0.938
11.3874	0.94
11.4226	0.938
11.4579	0.94
11.4931	0.945
11.5283	0.945
11.5635	0.951
11.5987	0.952
11.6339	0.949
11.6691	0.945
11.7043	0.944
11.7395	0.933
11.7748	0.933
11.81	0.926
11.8452	0.931
11.8804	0.921
11.9156	0.921
11.9508	0.919
11.986	0.91
12.0212	0.9
12.0565	0.877
12.0917	0.849
12.1269	0.787
12.1621	0.67
12.1973	0.469
12.2325	0.417
12.2677	0.638
12.3029	0.781
12.3382	0.825
12.3734	0.834
12.4086	0.823
12.4438	0.804
12.479	0.787
12.5142	0.78
12.5494	0.743
12.5846	0.652
12.6199	0.471
12.6551	0.371
12.6903	0.354
12.7255	0.467
12.7607	0.61
12.7959	0.708
12.8311	0.694
12.8663	0.499
12.9015	0.102
12.9368	0.092
12.972	0.354
13.0072	0.61
13.0424	0.732
13.0776	0.771
13.1128	0.79
13.148	0.783
13.1832	0.78
13.2185	0.811
13.2537	0.821
13.2889	0.83
13.3241	0.828
13.3593	0.835
13.3945	0.834
13.4297	0.832
13.4649	0.832
13.5002	0.827
13.5354	0.821
13.5706	0.816
13.6058	0.799
13.641	0.795
13.6762	0.792
13.7114	0.785
13.7466	0.785
13.7819	0.783
13.8171	0.78
13.8523	0.773
13.8875	0.771
13.9227	0.767
13.9579	0.757
13.9931	0.748
14.0283	0.736
14.0635	0.717
14.0988	0.706
14.134	0.703
14.1692	0.698
14.2044	0.692
14.2396	0.687
14.2748	0.682
14.31	0.675
14.3452	0.657
14.3805	0.657
14.4157	0.642
14.4509	0.616
14.4861	0.581
14.5213	0.53
14.5565	0.462
14.5917	0.389
14.6269	0.347
14.6622	0.436
14.6974	0.541
14.7326	0.626
14.7678	0.666
14.803	0.678
14.8382	0.677
14.8734	0.67
14.9086	0.654
14.9439	0.623
14.9791	0.612
15.0143	0.631
15.0495	0.635
15.0847	0.624
15.1199	0.609
15.1551	0.595
15.1903	0.586
15.2255	0.574
15.2608	0.577
15.296	0.577
15.3312	0.577
15.3664	0.577
15.4016	0.575
15.4368	0.554
15.472	0.549
15.5072	0.534
15.5425	0.525
15.5777	0.521
15.6129	0.528
15.6481	0.546
15.6833	0.563
15.7185	0.586
15.7537	0.6
15.7889	0.607
15.8242	0.61
15.8594	0.616
15.8946	0.617
15.9298	0.617
15.965	0.617
16.0002	0.614
