Infrared Spectrum: 3-Trifluoroacetyl-D-camphor
Formula: C 12 H 15 F 3 O 2
CAS: 51800-98-7
State: gas
Origin: EPA-IR VAPOR PHASE LIBRARY
1/CM	ABSORBANCE
549.8	0.00808
559.445	0.02192
569.09	0.01535
578.734	0.00686
588.379	0.00517
598.024	0.00483
607.669	0.00458
617.313	0.00475
626.958	0.00802
636.603	0.01035
646.248	0.00611
655.893	0.00621
665.537	0.01211
675.182	0.0286
684.827	0.02219
694.472	0.01741
704.116	0.01762
713.761	0.02218
723.406	0.02097
733.051	0.02511
742.695	0.02671
752.34	0.02946
761.985	0.02729
771.63	0.01504
781.275	0.00862
790.919	0.00813
800.564	0.02017
810.209	0.03203
819.854	0.01942
829.498	0.01048
839.143	0.00915
848.788	0.00923
858.433	0.00791
868.078	0.00925
877.722	0.00792
887.367	0.00667
897.012	0.00769
906.657	0.01029
916.301	0.01538
925.946	0.01229
935.591	0.00934
945.236	0.00785
954.88	0.00686
964.525	0.00706
974.17	0.00737
983.815	0.00949
993.46	0.01523
1003.1	0.024
1012.75	0.02199
1022.39	0.03519
1032.04	0.06899
1041.68	0.06749
1051.33	0.04653
1060.97	0.06562
1070.62	0.09399
1080.26	0.05928
1089.91	0.0317
1099.55	0.03908
1109.2	0.05009
1118.84	0.04439
1128.49	0.06067
1138.13	0.09405
1147.78	0.18289
1157.42	0.32486
1167.07	0.32105
1176.71	0.23891
1186.36	0.27202
1196	0.39482
1205.64	0.2539
1215.29	0.21879
1224.93	0.25337
1234.58	0.13576
1244.22	0.10361
1253.87	0.17009
1263.51	0.2744
1273.16	0.18705
1282.8	0.11088
1292.45	0.07412
1302.09	0.07423
1311.74	0.15455
1321.38	0.1567
1331.03	0.06262
1340.67	0.05084
1350.32	0.05702
1359.96	0.05661
1369.61	0.0625
1379.25	0.07314
1388.9	0.06276
1398.54	0.04712
1408.18	0.02766
1417.83	0.02115
1427.47	0.02014
1437.12	0.02296
1446.76	0.03102
1456.41	0.03729
1466.05	0.03278
1475.7	0.03119
1485.34	0.02707
1494.99	0.01729
1504.63	0.01372
1514.28	0.01242
1523.92	0.01129
1533.57	0.01006
1543.21	0.00966
1552.86	0.01027
1562.5	0.01127
1572.15	0.01197
1581.79	0.01191
1591.44	0.01168
1601.08	0.01253
1610.73	0.01547
1620.37	0.02198
1630.01	0.03199
1639.66	0.04691
1649.3	0.06774
1658.95	0.06921
1668.59	0.04089
1678.24	0.03536
1687.88	0.05824
1697.53	0.1324
1707.17	0.2132
1716.82	0.13393
1726.46	0.04759
1736.11	0.03029
1745.75	0.03492
1755.4	0.02798
1765.04	0.02172
1774.69	0.03184
1784.33	0.02859
1793.98	0.01325
1803.62	0.00745
1813.27	0.00569
1822.91	0.00464
1832.55	0.00431
1842.2	0.00427
1851.84	0.00395
1861.49	0.00362
1871.13	0.00332
1880.78	0.00298
1890.42	0.00282
1900.07	0.00274
1909.71	0.00283
1919.36	0.0027
1929	0.00237
1938.65	0.00255
1948.29	0.00241
1957.94	0.00253
1967.58	0.0025
1977.23	0.0022
1986.87	0.00204
1996.52	0.0023
2006.16	0.00219
2015.81	0.00195
2025.45	0.00187
2035.1	0.00183
2044.74	0.00171
2054.38	0.0019
2064.03	0.00192
2073.67	0.00193
2083.32	0.00164
2092.96	0.00174
2102.61	0.00174
2112.25	0.00168
2121.9	0.00171
2131.54	0.00164
2141.19	0.00176
2150.83	0.00187
2160.48	0.00194
2170.12	0.00203
2179.77	0.00196
2189.41	0.00209
2199.06	0.00198
2208.7	0.00199
2218.35	0.00187
2227.99	0.00189
2237.64	0.00182
2247.28	0.00201
2256.92	0.00211
2266.57	0.00211
2276.21	0.00236
2285.86	0.00285
2295.5	0.00325
2305.15	0.0032
2314.79	0.00327
2324.44	0.00307
2334.08	0.00317
2343.73	0.00322
2353.37	0.0031
2363.02	0.00289
2372.66	0.00289
2382.31	0.00287
2391.95	0.0027
2401.6	0.00251
2411.24	0.00261
2420.89	0.00268
2430.53	0.00264
2440.18	0.00307
2449.82	0.00308
2459.47	0.00313
2469.11	0.00309
2478.75	0.00283
2488.4	0.00284
2498.04	0.00304
2507.69	0.00332
2517.33	0.00311
2526.98	0.00319
2536.62	0.00334
2546.27	0.00321
2555.91	0.00335
2565.56	0.00323
2575.2	0.00326
2584.85	0.00311
2594.49	0.00323
2604.14	0.00317
2613.78	0.00307
2623.43	0.00322
2633.07	0.00336
2642.72	0.00356
2652.36	0.0037
2662.01	0.00411
2671.65	0.00414
2681.29	0.00463
2690.94	0.00476
2700.58	0.00454
2710.23	0.00463
2719.87	0.00467
2729.52	0.00522
2739.16	0.00615
2748.81	0.00678
2758.45	0.00588
2768.1	0.00571
2777.74	0.00607
2787.39	0.00622
2797.03	0.00655
2806.68	0.00715
2816.32	0.00776
2825.97	0.0085
2835.61	0.00941
2845.26	0.0106
2854.9	0.01282
2864.55	0.01862
2874.19	0.03555
2883.84	0.05513
2893.48	0.05323
2903.12	0.04598
2912.77	0.0449
2922.41	0.05418
2932.06	0.0739
2941.7	0.08333
2951.35	0.07982
2960.99	0.11316
2970.64	0.18621
2980.28	0.14003
2989.93	0.06678
2999.57	0.05686
3009.22	0.031
3018.86	0.0165
3028.51	0.01279
3038.15	0.01162
3047.8	0.01095
3057.44	0.01086
3067.09	0.01099
3076.73	0.01101
3086.38	0.01123
3096.02	0.01122
3105.67	0.01097
3115.31	0.01097
3124.95	0.01076
3134.6	0.01074
3144.24	0.01042
3153.89	0.01019
3163.53	0.00963
3173.18	0.00979
3182.82	0.00936
3192.47	0.00889
3202.11	0.00876
3211.76	0.00835
3221.4	0.00796
3231.05	0.00772
3240.69	0.00762
3250.34	0.00728
3259.98	0.00719
3269.63	0.0068
3279.27	0.00692
3288.92	0.00658
3298.56	0.0068
3308.21	0.00699
3317.85	0.00698
3327.49	0.00673
3337.14	0.00643
3346.78	0.00611
3356.43	0.00586
3366.07	0.00537
3375.72	0.00482
3385.36	0.00453
3395.01	0.00457
3404.65	0.00465
3414.3	0.00388
3423.94	0.00367
3433.59	0.00302
3443.23	0.00296
3452.88	0.00269
3462.52	0.00241
3472.17	0.00233
3481.81	0.00253
3491.46	0.00221
3501.1	0.00188
3510.75	0.00187
3520.39	0.0015
3530.04	0.00149
3539.68	0.00161
3549.32	0.00151
3558.97	0.00137
3568.61	0.00126
3578.26	0.00104
3587.9	0.0008957
3597.55	0.00105
3607.19	0.0007279
3616.84	0.000711
3626.48	0.0008378
3636.13	0.00102
3645.77	0.0008885
3655.42	0.0006863
3665.06	0.0006029
3674.71	0.0005348
3684.35	0.000631
3694	0.0005898
3703.64	0.0007803
3713.29	0.000564
3722.93	0.0007768
3732.58	0.0006172
3742.22	0.0003178
3751.86	0.0005216
3761.51	0.0004503
3771.15	0.0003738
3780.8	0.0008098
3790.44	0.0008934
3800.09	0.0007404
3809.73	0.0004058
3819.38	0.0004612
3829.02	0.0005685
3838.67	0.0007462
3848.31	0.0005099
3857.96	0.0007391
3867.6	0.0008457
3877.25	0.0007602
3886.89	0.0008298
3896.54	0.0006881
3906.18	0.0006521
3915.83	0.0007237
3925.47	0.0008232
3935.12	0.0005423
3944.76	0.0004882
3954.41	0.0006404
3964.05	0.000766
3973.69	0.0004502
3983.34	0.0006113
3992.98	0.0004906
