Infrared Spectrum: Purine, 2-amino-6-ethoxy-
Formula: C7 H9 N5 O
CAS: 51866-19-4
State: SOLID (0.9 mg / 650 mg KBr DISC)
Class: COBLENTZ III
Instrument: PERKIN-ELMER 21 (GRATING)
Instrument parameters: FILTER CHANGE ABOUT 1025 CM^-^1
Sampling: TRANSMISSION
Resolution: 2
Origin: SOUTHERN RESEARCH INSTITUTE
1/CM	TRANSMITTANCE
605	0.3307
614.027	0.3365
623.053	0.3435
632.08	0.3521
641.106	0.4029
650.133	0.4435
659.159	0.4442
668.186	0.4421
677.212	0.4391
686.239	0.4372
695.265	0.4433
704.292	0.4402
713.318	0.4304
722.345	0.4156
731.371	0.401
740.398	0.4267
749.424	0.4476
758.451	0.4546
767.477	0.4429
776.504	0.4069
785.53	0.2789
794.557	0.3345
803.583	0.4146
812.61	0.3618
821.636	0.3225
830.663	0.4068
839.689	0.4544
848.716	0.4201
857.742	0.3741
866.769	0.3231
875.795	0.3222
884.822	0.4259
893.848	0.4152
902.875	0.3765
911.901	0.3379
920.928	0.2997
929.954	0.2899
938.981	0.2881
948.007	0.2547
957.034	0.236
966.06	0.3131
975.087	0.4696
984.113	0.4715
993.14	0.4411
1002.17	0.3957
1011.19	0.3331
1020.22	0.2305
1029.25	0.385
1038.27	0.4034
1047.3	0.4549
1056.33	0.4666
1065.35	0.441
1074.38	0.3776
1083.41	0.325
1092.43	0.3172
1101.46	0.3128
1110.48	0.2964
1119.51	0.299
1128.54	0.3082
1137.56	0.3482
1146.59	0.4499
1155.62	0.4202
1164.64	0.4365
1173.67	0.476
1182.7	0.4677
1191.72	0.4566
1200.75	0.4377
1209.78	0.3905
1218.8	0.3167
1227.83	0.3326
1236.86	0.412
1245.88	0.3931
1254.91	0.3562
1263.94	0.3008
1272.96	0.2125
1281.99	0.1784
1291.01	0.1983
1300.04	0.4026
1309.07	0.3558
1318.09	0.2987
1327.12	0.2183
1336.15	0.202
1345.17	0.161
1354.2	0.3183
1363.23	0.2537
1372.25	0.1182
1381.28	0.1491
1390.31	0.1221
1399.33	0.0965
1408.36	0.2891
1417.39	0.3695
1426.41	0.2392
1435.44	0.2421
1444.47	0.2284
1453.49	0.1306
1462.52	0.119
1471.54	0.1891
1480.57	0.3212
1489.6	0.3145
1498.62	0.2209
1507.65	0.1232
1516.68	0.1651
1525.7	0.4042
1534.73	0.437
1543.76	0.3617
1552.78	0.2862
1561.81	0.1972
1570.84	0.102
1579.86	0.0525
1588.89	0.0648
1597.92	0.1178
1606.94	0.1043
1615.97	0.0645
1625	0.0774
1634.02	0.1101
1643.05	0.1643
1652.08	0.2482
1661.1	0.3207
1670.13	0.3873
1679.15	0.4469
1688.18	0.4933
1697.21	0.5354
1706.23	0.5574
1715.26	0.5671
1724.29	0.5743
1733.31	0.5799
1742.34	0.5751
1751.37	0.5683
1760.39	0.5676
1769.42	0.5659
1778.45	0.5616
1787.47	0.5628
1796.5	0.5608
1805.53	0.5553
1814.55	0.5518
1823.58	0.5548
1832.61	0.5598
1841.63	0.5604
1850.66	0.5609
1859.68	0.564
1868.71	0.5718
1877.74	0.5785
1886.76	0.5809
1895.79	0.5841
1904.82	0.5899
1913.84	0.5966
1922.87	0.6019
1931.9	0.6049
1940.92	0.6076
1949.95	0.6091
1958.98	0.611
1968	0.6111
1977.03	0.6105
1986.06	0.6092
1995.08	0.6081
2004.11	0.6065
2013.14	0.6046
2022.16	0.6012
2031.19	0.5993
2040.22	0.598
2049.24	0.5965
2058.27	0.5947
2067.29	0.5922
2076.32	0.5891
2085.35	0.5853
2094.37	0.5814
2103.4	0.5771
2112.43	0.5726
2121.45	0.5679
2130.48	0.5631
2139.51	0.5575
2148.53	0.5489
2157.56	0.5404
2166.59	0.5318
2175.61	0.5227
2184.64	0.5134
2193.67	0.5043
2202.69	0.4953
2211.72	0.487
2220.75	0.479
2229.77	0.472
2238.8	0.465
2247.82	0.4556
2256.85	0.4449
2265.88	0.4376
2274.9	0.431
2283.93	0.4228
2292.96	0.4087
2301.98	0.385
2311.01	0.3649
2320.04	0.3471
2329.06	0.3431
2338.09	0.3411
2347.12	0.3367
2356.14	0.3403
2365.17	0.3407
2374.2	0.3406
2383.22	0.3393
2392.25	0.3344
2401.28	0.3285
2410.3	0.3208
2419.33	0.3138
2428.35	0.3096
2437.38	0.3099
2446.41	0.3105
2455.43	0.3048
2464.46	0.296
2473.49	0.2865
2482.51	0.2756
2491.54	0.2661
2500.57	0.2589
2509.59	0.2542
2518.62	0.2493
2527.65	0.2498
2536.67	0.2561
2545.7	0.2654
2554.73	0.2713
2563.75	0.2743
2572.78	0.2777
2581.81	0.2799
2590.83	0.2785
2599.86	0.2756
2608.89	0.272
2617.91	0.269
2626.94	0.2671
2635.96	0.2624
2644.99	0.2549
2654.02	0.2492
2663.04	0.2444
2672.07	0.2417
2681.1	0.2409
2690.12	0.2413
2699.15	0.2419
2708.18	0.2428
2717.2	0.244
2726.23	0.2459
2735.26	0.2486
2744.28	0.2542
2753.31	0.2608
2762.34	0.2705
2771.36	0.281
2780.39	0.2924
2789.42	0.3048
2798.44	0.3193
2807.47	0.333
2816.49	0.3404
2825.52	0.3428
2834.55	0.342
2843.57	0.3395
2852.6	0.3367
2861.63	0.3334
2870.65	0.3295
2879.68	0.3235
2888.71	0.3199
2897.73	0.3189
2906.76	0.3176
2915.79	0.3152
2924.81	0.3131
2933.84	0.3112
2942.87	0.3073
2951.89	0.3011
2960.92	0.2947
2969.95	0.2908
2978.97	0.2996
2988	0.3201
2997.03	0.3387
3006.05	0.3499
3015.08	0.3511
3024.1	0.3494
3033.13	0.3459
3042.16	0.3413
3051.18	0.3362
3060.21	0.3309
3069.24	0.3251
3078.26	0.3177
3087.29	0.3115
3096.32	0.3093
3105.34	0.3103
3114.37	0.3107
3123.4	0.3104
3132.42	0.3105
3141.45	0.3093
3150.48	0.3055
3159.5	0.3004
3168.53	0.2974
3177.56	0.2993
3186.58	0.3029
3195.61	0.307
3204.63	0.3118
3213.66	0.3172
3222.69	0.3251
3231.71	0.3347
3240.74	0.349
3249.77	0.3521
3258.79	0.3482
3267.82	0.3391
3276.85	0.326
3285.87	0.311
3294.9	0.2985
3303.93	0.2894
3312.95	0.2865
3321.98	0.289
3331.01	0.2968
3340.03	0.3113
3349.06	0.3315
3358.09	0.3455
3367.11	0.3533
3376.14	0.3543
3385.16	0.3523
3394.19	0.347
3403.22	0.3382
3412.24	0.3238
3421.27	0.3053
3430.3	0.3014
3439.32	0.305
3448.35	0.319
3457.38	0.3316
3466.4	0.3379
3475.43	0.3386
3484.46	0.3383
3493.48	0.343
3502.51	0.3769
3511.54	0.4204
3520.56	0.4576
3529.59	0.4944
3538.62	0.5187
3547.64	0.532
3556.67	0.5426
3565.7	0.5513
3574.72	0.5587
3583.75	0.5649
3592.77	0.5702
3601.8	0.5746
3610.83	0.5786
3619.85	0.5828
3628.88	0.5866
3637.91	0.5888
3646.93	0.5907
3655.96	0.5906
3664.99	0.5902
3674.01	0.5895
3683.04	0.5887
3692.07	0.5877
3701.09	0.5867
3710.12	0.5855
3719.15	0.5843
3728.17	0.584
3737.2	0.5836
3746.23	0.5837
3755.25	0.5843
3764.28	0.5869
3773.3	0.5881
3782.33	0.5856
3791.36	0.5807
3800.38	0.5767
3809.41	0.5749
3818.44	0.5741
3827.46	0.5736
3836.49	0.5729
3845.52	0.5718
3854.54	0.5708
3863.57	0.5697
3872.6	0.5686
3881.62	0.5676
3890.65	0.5665
3899.68	0.5654
3908.7	0.5644
3917.73	0.5634
3926.76	0.5624
3935.78	0.5619
3944.81	0.5606
3953.84	0.5596
3962.86	0.5591
3971.89	0.5587
3980.91	0.5583
3989.94	0.5572
3998.97	0.5561
4007.99	0.5551
