Infrared Spectrum: 4-NITROBENZOYL UREA
Formula: C8 H7 N3 O4
CAS: 51884-03-8
State: SOLID (MINERAL OIL MULL)
Class: COBLENTZ
Instrument: Not specified, most likely a prism, grating, or hybrid spectrometer.
Sampling: TRANSMISSION
Resolution: 4
Origin: DOW CHEMICAL COMPANY
MICROMETERS	TRANSMITTANCE
2.021	0.594
2.06015	0.594
2.09931	0.602
2.13846	0.614
2.17761	0.62
2.21676	0.619
2.25592	0.619
2.29507	0.629
2.33422	0.633
2.37337	0.645
2.41253	0.658
2.45168	0.669
2.49083	0.683
2.52999	0.692
2.56914	0.697
2.60829	0.699
2.64744	0.704
2.6866	0.709
2.72575	0.712
2.7649	0.704
2.80405	0.692
2.84321	0.681
2.88236	0.622
2.92151	0.501
2.96067	0.222
2.99982	0.16
3.03897	0.281
3.07812	0.266
3.11728	0.212
3.15643	0.279
3.19558	0.369
3.23474	0.447
3.27389	0.529
3.31304	0.553
3.35219	0.446
3.39135	0.138
3.4305	0.111
3.46965	0.21
3.5088	0.264
3.54796	0.624
3.58711	0.681
3.62626	0.697
3.66542	0.704
3.70457	0.709
3.74372	0.715
3.78287	0.727
3.82203	0.73
3.86118	0.741
3.90033	0.751
3.93948	0.756
3.97864	0.761
4.01779	0.766
4.05694	0.767
4.0961	0.777
4.13525	0.789
4.1744	0.789
4.21355	0.767
4.25271	0.758
4.29186	0.771
4.33101	0.792
4.37016	0.802
4.40932	0.803
4.44847	0.803
4.48762	0.802
4.52678	0.8
4.56593	0.805
4.60508	0.808
4.64423	0.812
4.68339	0.815
4.72254	0.818
4.76169	0.812
4.80085	0.816
4.84	0.816
4.87915	0.815
4.9183	0.818
4.95746	0.823
4.99661	0.82
5.03576	0.815
5.07491	0.81
5.11407	0.8
5.15322	0.807
5.19237	0.812
5.23153	0.808
5.27068	0.82
5.30983	0.815
5.34898	0.799
5.38814	0.794
5.42729	0.79
5.46644	0.776
5.50559	0.767
5.54475	0.759
5.5839	0.759
5.62305	0.758
5.66221	0.75
5.70136	0.722
5.74051	0.668
5.77966	0.593
5.81882	0.452
5.85797	0.174
5.89712	0.189
5.93627	0.14
5.97543	0.071
6.01458	0.06
6.05373	0.07
6.09289	0.109
6.13204	0.12
6.17119	0.163
6.21034	0.171
6.2495	0.287
6.28865	0.352
6.3278	0.416
6.36696	0.477
6.40611	0.517
6.44526	0.524
6.48441	0.354
6.52357	0.127
6.56272	0.21
6.60187	0.359
6.64102	0.41
6.68018	0.423
6.71933	0.382
6.75848	0.235
6.79764	0.214
6.83679	0.246
6.87594	0.294
6.91509	0.289
6.95425	0.228
6.9934	0.186
7.03255	0.173
7.0717	0.215
7.11086	0.254
7.15001	0.294
7.18916	0.284
7.22832	0.266
7.26747	0.308
7.30662	0.312
7.34577	0.225
7.38493	0.098
7.42408	0.21
7.46323	0.4
7.50238	0.326
7.54154	0.346
7.58069	0.482
7.61984	0.472
7.659	0.361
7.69815	0.401
7.7373	0.457
7.77645	0.424
7.81561	0.181
7.85476	0.109
7.89391	0.215
7.93306	0.29
7.97222	0.408
8.01137	0.535
8.05052	0.598
8.08968	0.643
8.12883	0.679
8.16798	0.691
8.20713	0.699
8.24629	0.705
8.28544	0.709
8.32459	0.718
8.36375	0.687
8.4029	0.681
8.44205	0.732
8.4812	0.743
8.52036	0.746
8.55951	0.746
8.59866	0.745
8.63781	0.738
8.67697	0.73
8.71612	0.73
8.75527	0.691
8.79443	0.668
8.83358	0.748
8.87273	0.743
8.91188	0.705
8.95104	0.66
8.99019	0.629
9.02934	0.555
9.06849	0.467
9.10765	0.256
9.1468	0.161
9.18595	0.276
9.22511	0.496
9.26426	0.638
9.30341	0.702
9.34256	0.738
9.38172	0.758
9.42087	0.764
9.46002	0.774
9.49917	0.784
9.53833	0.79
9.57748	0.794
9.61663	0.797
9.65579	0.799
9.69494	0.8
9.73409	0.799
9.77324	0.769
9.8124	0.64
9.85155	0.705
9.8907	0.8
9.92986	0.815
9.96901	0.821
10.0082	0.823
10.0473	0.823
10.0865	0.82
10.1256	0.816
10.1648	0.813
10.2039	0.792
10.2431	0.732
10.2822	0.691
10.3214	0.712
10.3605	0.642
10.3997	0.583
10.4388	0.63
10.478	0.728
10.5171	0.767
10.5563	0.784
10.5955	0.795
10.6346	0.799
10.6738	0.8
10.7129	0.802
10.7521	0.802
10.7912	0.802
10.8304	0.799
10.8695	0.799
10.9087	0.799
10.9478	0.795
10.987	0.79
11.0261	0.789
11.0653	0.782
11.1044	0.777
11.1436	0.767
11.1827	0.769
11.2219	0.769
11.261	0.761
11.3002	0.75
11.3394	0.718
11.3785	0.63
11.4177	0.45
11.4568	0.251
11.496	0.33
11.5351	0.576
11.5743	0.645
11.6134	0.651
11.6526	0.602
11.6917	0.496
11.7309	0.343
11.77	0.303
11.8092	0.457
11.8483	0.58
11.8875	0.62
11.9266	0.653
11.9658	0.678
12.005	0.687
12.0441	0.691
12.0833	0.689
12.1224	0.683
12.1616	0.673
12.2007	0.663
12.2399	0.643
12.279	0.625
12.3182	0.602
12.3573	0.58
12.3965	0.555
12.4356	0.537
12.4748	0.535
12.5139	0.56
12.5531	0.593
12.5922	0.614
12.6314	0.622
12.6705	0.589
12.7097	0.491
12.7489	0.374
12.788	0.356
12.8272	0.452
12.8663	0.54
12.9055	0.58
12.9446	0.602
12.9838	0.619
13.0229	0.629
13.0621	0.633
13.1012	0.633
13.1404	0.625
13.1795	0.619
13.2187	0.611
13.2578	0.607
13.297	0.604
13.3361	0.604
13.3753	0.601
13.4144	0.596
13.4536	0.586
13.4928	0.571
13.5319	0.55
13.5711	0.521
13.6102	0.498
13.6494	0.462
13.6885	0.426
13.7277	0.397
13.7668	0.354
13.806	0.318
13.8451	0.272
13.8843	0.223
13.9234	0.173
13.9626	0.125
14.0017	0.102
14.0409	0.094
14.08	0.094
14.1192	0.101
14.1584	0.109
14.1975	0.122
14.2367	0.142
14.2758	0.169
14.315	0.192
14.3541	0.218
14.3933	0.227
14.4324	0.227
14.4716	0.215
14.5107	0.207
14.5499	0.197
14.589	0.187
14.6282	0.183
14.6673	0.192
14.7065	0.209
14.7456	0.235
14.7848	0.256
14.8239	0.272
14.8631	0.274
14.9023	0.261
14.9414	0.254
14.9806	0.261
15.0197	0.259
15.0589	0.25
15.098	0.254
15.1372	0.264
15.1763	0.277
15.2155	0.289
15.2546	0.299
15.2938	0.305
15.3329	0.312
15.3721	0.318
15.4112	0.32
15.4504	0.32
15.4895	0.32
15.5287	0.315
15.5679	0.31
15.607	0.305
15.6462	0.303
15.6853	0.302
15.7245	0.299
15.7636	0.299
15.8028	0.3
15.8419	0.292
15.8811	0.299
