Infrared Spectrum: p-Toluenesulfonamide, 3-chloro-,
Formula: C7 H8 Cl N O2 S
CAS: 51896-27-6
State: SOLID (SPLIT MULL), FLUOROLUBE FOR 3800-1335 CM^-^1, NUJOL FOR 1335-400 CM^-^1
Melting point: 129 C
Class: COBLENTZ III
Instrument: DOW KBr FOREPRISM-GRATING
Instrument parameters: BLAZED AT 3.5, 12.0, 20.0 MICRON AND CHANGED AT 5.0, 7.5, 14.9 MICRON
Sampling: TRANSMISSION
Resolution: 2
Origin: DOW CHEMICAL COMPANY
1/CM	TRANSMITTANCE
3776	0.5696
3767	0.5706
3758	0.5719
3749	0.5731
3740	0.5745
3731	0.5757
3722	0.577
3713	0.5784
3704	0.5796
3695	0.5796
3686	0.5816
3677	0.585
3668	0.5877
3659	0.5899
3650	0.5914
3641	0.5927
3632	0.5945
3623	0.5964
3614	0.5987
3605	0.6009
3596	0.6023
3587	0.6026
3578	0.5992
3569	0.6054
3560	0.6096
3551	0.6125
3542	0.6149
3533	0.6172
3524	0.6189
3515	0.6202
3506	0.6216
3497	0.6235
3488	0.6255
3479	0.6275
3470	0.6297
3461	0.6324
3452	0.6367
3443	0.6417
3434	0.6471
3425	0.6515
3416	0.6548
3407	0.6558
3398	0.6492
3389	0.6291
3380	0.5929
3371	0.5314
3362	0.4409
3353	0.2994
3344	0.1608
3335	0.1308
3326	0.2014
3317	0.2982
3308	0.3766
3299	0.4109
3290	0.4284
3281	0.4349
3272	0.4285
3263	0.3337
3254	0.1884
3245	0.0872
3236	0.1063
3227	0.1799
3218	0.2717
3209	0.326
3200	0.3659
3191	0.3898
3182	0.4143
3173	0.4387
3164	0.4544
3155	0.4667
3146	0.4779
3137	0.4859
3128	0.4877
3119	0.4549
3110	0.4172
3101	0.433
3092	0.485
3083	0.5097
3074	0.5156
3065	0.5178
3056	0.5343
3047	0.5482
3038	0.5595
3029	0.5682
3020	0.5746
3011	0.58
3002	0.5841
2993	0.5852
2984	0.5869
2975	0.5906
2966	0.594
2957	0.5925
2948	0.5952
2939	0.6032
2930	0.6025
2921	0.5973
2912	0.5999
2903	0.6077
2894	0.6172
2885	0.6255
2876	0.6299
2867	0.6322
2858	0.6318
2849	0.6303
2840	0.6374
2831	0.6435
2822	0.6495
2813	0.6543
2804	0.6585
2795	0.6615
2786	0.6644
2777	0.6664
2768	0.6683
2759	0.6696
2750	0.6715
2741	0.6734
2732	0.675
2723	0.6767
2714	0.6786
2705	0.6798
2696	0.6806
2687	0.6812
2678	0.6815
2669	0.6817
2660	0.6811
2651	0.6778
2642	0.6736
2633	0.6706
2624	0.6742
2615	0.6818
2606	0.6884
2597	0.6925
2588	0.6967
2579	0.7006
2570	0.7045
2561	0.7076
2552	0.7108
2543	0.7139
2534	0.7162
2525	0.7175
2516	0.719
2507	0.7201
2498	0.72
2489	0.7174
2480	0.7148
2471	0.7144
2462	0.7167
2453	0.7196
2444	0.7217
2435	0.72
2426	0.7193
2417	0.7203
2408	0.7212
2399	0.7224
2390	0.7245
2381	0.7278
2372	0.7281
2363	0.7256
2354	0.7265
2345	0.728
2336	0.7275
2327	0.7262
2318	0.721
2309	0.7233
2300	0.7265
2291	0.7268
2282	0.7289
2273	0.7295
2264	0.7321
2255	0.7346
2246	0.7369
2237	0.7396
2228	0.7421
2219	0.7447
2210	0.7468
2201	0.7488
2192	0.7508
2183	0.7528
2174	0.7551
2165	0.7572
2156	0.7596
2147	0.7618
2138	0.7641
2129	0.7661
2120	0.7685
2111	0.7705
2102	0.7725
2093	0.7743
2084	0.7761
2075	0.7778
2066	0.7794
2057	0.7808
2048	0.7825
2039	0.7838
2030	0.7848
2021	0.7855
2012	0.786
2003	0.7864
1994	0.7922
1985	0.7993
1976	0.7996
1967	0.7997
1958	0.8045
1949	0.7954
1940	0.7994
1931	0.8036
1922	0.8012
1913	0.7804
1904	0.8026
1895	0.806
1886	0.8069
1877	0.8075
1868	0.8078
1859	0.8082
1850	0.8119
1841	0.8119
1832	0.8144
1823	0.8154
1814	0.8154
1805	0.8156
1796	0.8171
1787	0.8174
1778	0.7836
1769	0.7984
1760	0.8131
1751	0.8185
1742	0.8174
1733	0.8172
1724	0.8187
1715	0.8217
1706	0.8247
1697	0.8274
1688	0.8297
1679	0.8316
1670	0.8331
1661	0.8346
1652	0.8357
1643	0.8161
1634	0.8288
1625	0.8314
1616	0.8299
1607	0.8264
1598	0.8108
1589	0.7646
1580	0.7799
1571	0.6488
1562	0.5555
1553	0.6949
1544	0.7596
1535	0.789
1526	0.8036
1517	0.8124
1508	0.8175
1499	0.816
1490	0.7921
1481	0.7681
1472	0.5874
1463	0.7495
1454	0.746
1445	0.6547
1436	0.6272
1427	0.6875
1418	0.7287
1409	0.7588
1400	0.7612
1391	0.763
1382	0.5092
1373	0.5965
1364	0.7458
1355	0.7322
1346	0.5028
1337	0.0601
1328	0.1886
1319	0.5012
1310	0.6087
1301	0.6432
1292	0.5951
1283	0.5946
1274	0.6678
1265	0.7003
1256	0.7001
1247	0.7128
1238	0.7596
1229	0.7767
1220	0.7853
1211	0.7774
1202	0.7757
1193	0.765
1184	0.6724
1175	0.31
1166	0.0419
1157	0.1714
1148	0.2959
1139	0.5298
1130	0.5518
1121	0.6209
1112	0.5805
1103	0.3184
1094	0.5117
1085	0.4102
1076	0.6957
1067	0.7381
1058	0.6547
1049	0.6192
1040	0.7524
1031	0.7407
1022	0.7918
1013	0.8074
1004	0.8132
995	0.8045
986	0.8228
977	0.8252
968	0.8192
959	0.7517
950	0.8035
941	0.7962
932	0.7131
923	0.4194
914	0.5451
905	0.709
896	0.7276
887	0.6965
878	0.7905
869	0.8233
860	0.8288
851	0.7969
842	0.7255
833	0.7785
824	0.4099
815	0.7564
806	0.8461
797	0.848
788	0.843
779	0.8258
770	0.7837
761	0.7376
752	0.7508
743	0.7383
734	0.6775
725	0.5265
716	0.4527
707	0.5916
698	0.3984
689	0.5104
680	0.4189
671	0.3322
662	0.3958
653	0.7828
644	0.733
635	0.6693
626	0.6408
617	0.6392
608	0.6575
599	0.6434
590	0.1863
581	0.4994
572	0.4285
563	0.5915
554	0.7483
545	0.7438
536	0.7599
527	0.7734
518	0.7903
509	0.7742
500	0.6624
491	0.7547
482	0.8125
473	0.8235
464	0.8535
455	0.8691
446	0.8608
437	0.8343
428	0.8468
419	0.8654
410	0.872
401	0.8723
392	0.8688
383	0.8632
