Infrared Spectrum: Acetamide, N,N-diphenyl-
Formula: C14 H13 N O
CAS: 519-87-9
State: SOLUTION (2% CCl4 FOR 3800-1330, 2% CS2 FOR 1330-400 CM^-^1)
Class: COBLENTZ III
Instrument: DOW KBr FOREPRISM-GRATING
Instrument parameters: BLAZED AT 3.5, 12.0, 20.0 MICRON AND CHANGED AT 5.0, 7.5, 14.9 MICRON
Sampling: TRANSMISSION
Path length: 0.050 CM, 0.050 CM
Resolution: 2
Origin: DOW CHEMICAL COMPANY
1/CM	TRANSMITTANCE
3812	0.9453
3803	0.9491
3794	0.9482
3785	0.9478
3776	0.9477
3767	0.9475
3758	0.9471
3749	0.9453
3740	0.9426
3731	0.9459
3722	0.9459
3713	0.946
3704	0.9508
3695	0.9459
3686	0.9421
3677	0.9437
3668	0.9455
3659	0.9471
3650	0.9487
3641	0.95
3632	0.9566
3623	0.9587
3614	0.9605
3605	0.961
3596	0.9615
3587	0.9621
3578	0.9622
3569	0.9568
3560	0.9562
3551	0.9602
3542	0.9597
3533	0.9594
3524	0.9551
3515	0.9553
3506	0.9554
3497	0.9557
3488	0.9556
3479	0.956
3470	0.9574
3461	0.9587
3452	0.9607
3443	0.9624
3434	0.9633
3425	0.9603
3416	0.9648
3407	0.9673
3398	0.9643
3389	0.9623
3380	0.9542
3371	0.9373
3362	0.9284
3353	0.9236
3344	0.93
3335	0.9334
3326	0.9418
3317	0.9504
3308	0.9606
3299	0.9571
3290	0.9543
3281	0.9511
3272	0.9561
3263	0.9597
3254	0.9611
3245	0.958
3236	0.9595
3227	0.9574
3218	0.956
3209	0.9533
3200	0.9469
3191	0.9469
3182	0.9377
3173	0.9376
3164	0.9407
3155	0.9389
3146	0.9387
3137	0.9401
3128	0.9337
3119	0.9211
3110	0.89
3101	0.7675
3092	0.7732
3083	0.7413
3074	0.5986
3065	0.6309
3056	0.7059
3047	0.6634
3038	0.6235
3029	0.665
3020	0.7833
3011	0.8106
3002	0.8442
2993	0.8572
2984	0.862
2975	0.8934
2966	0.9169
2957	0.9241
2948	0.9069
2939	0.8845
2930	0.9016
2921	0.9216
2912	0.9306
2903	0.9327
2894	0.9335
2885	0.9342
2876	0.9349
2867	0.9356
2858	0.9364
2849	0.9322
2840	0.9364
2831	0.9355
2822	0.9357
2813	0.9328
2804	0.9338
2795	0.9306
2786	0.9244
2777	0.9271
2768	0.9268
2759	0.9263
2750	0.9267
2741	0.9275
2732	0.9283
2723	0.9289
2714	0.9295
2705	0.9299
2696	0.9301
2687	0.9296
2678	0.9292
2669	0.927
2660	0.9232
2651	0.9252
2642	0.925
2633	0.925
2624	0.9193
2615	0.9162
2606	0.9141
2597	0.9134
2588	0.9136
2579	0.9144
2570	0.9163
2561	0.9183
2552	0.9219
2543	0.9265
2534	0.9315
2525	0.9333
2516	0.9334
2507	0.9334
2498	0.9331
2489	0.9306
2480	0.9297
2471	0.9288
2462	0.929
2453	0.9319
2444	0.935
2435	0.9359
2426	0.9363
2417	0.9363
2408	0.9379
2399	0.9355
2390	0.9275
2381	0.9335
2372	0.9359
2363	0.9194
2354	0.9236
2345	0.9126
2336	0.8882
2327	0.8945
2318	0.8964
2309	0.8899
2300	0.8874
2291	0.8851
2282	0.8838
2273	0.8938
2264	0.8986
2255	0.903
2246	0.9107
2237	0.9212
2228	0.9301
2219	0.9328
2210	0.9356
2201	0.9359
2192	0.932
2183	0.9351
2174	0.9389
2165	0.9358
2156	0.9368
2147	0.9376
2138	0.9384
2129	0.9391
2120	0.9392
2111	0.9385
2102	0.9366
2093	0.9336
2084	0.9243
2075	0.9201
2066	0.9201
2057	0.9165
2048	0.9111
2039	0.9048
2030	0.8971
2021	0.9002
2012	0.8872
2003	0.8792
1994	0.8706
1985	0.889
1976	0.8789
1967	0.8647
1958	0.8505
1949	0.8363
1940	0.8366
1931	0.8838
1922	0.8945
1913	0.8902
1904	0.8744
1895	0.871
1886	0.8314
1877	0.8378
1868	0.8371
1859	0.8275
1850	0.8525
1841	0.8708
1832	0.8774
1823	0.8707
1814	0.8696
1805	0.8153
1796	0.8292
1787	0.8295
1778	0.8321
1769	0.8259
1760	0.844
1751	0.839
1742	0.851
1733	0.8296
1724	0.7996
1715	0.7941
1706	0.6524
1697	0.2244
1688	-0.0036
1679	-0.0036
1670	0.0224
1661	0.3781
1652	0.5674
1643	0.6534
1634	0.6933
1625	0.6981
1616	0.6094
1607	0.4851
1598	0.0546
1589	0.1064
1580	0.2247
1571	0.2697
1562	0.1785
1553	0.1772
1544	0.1898
1535	0.2567
1526	0.319
1517	0.3871
1508	0.3698
1499	0.0388
1490	-0.0036
1481	0.4273
1472	0.7075
1463	0.7348
1454	0.3054
1445	0.6607
1436	0.6306
1427	0.5884
1418	0.6739
1409	0.7226
1400	0.7048
1391	0.5966
1382	0.4507
1373	-0.0002
1364	0.0839
1355	0.5355
1346	0.4269
1337	0.1043
1328	0.0473
1319	0.0307
1310	0.0464
1301	-0.0036
1292	-0.0036
1283	0.0176
1274	0.0844
1265	0.2831
1256	0.6034
1247	0.6904
1238	0.7474
1229	0.7858
1220	0.786
1211	0.8137
1202	0.7917
1193	0.7994
1184	0.8206
1175	0.7949
1166	0.8009
1157	0.7785
1148	0.8366
1139	0.8676
1130	0.8868
1121	0.8801
1112	0.8615
1103	0.8406
1094	0.8571
1085	0.8435
1076	0.6062
1067	0.7627
1058	0.8511
1049	0.8347
1040	0.7467
1031	0.3953
1022	0.5913
1013	0.6105
1004	0.7836
995	0.7047
986	0.8387
977	0.8137
968	0.8742
959	0.887
950	0.9095
941	0.9312
932	0.9344
923	0.9172
914	0.8159
905	0.8756
896	0.7985
887	0.7507
878	0.7191
869	0.6698
860	0.571
851	0.5364
842	0.737
833	0.7564
824	0.8257
815	0.8585
806	0.8643
797	0.8618
788	0.8407
779	0.8105
770	0.5076
761	0.4613
752	-0.0036
743	0.7463
734	0.8012
725	0.8055
716	0.7625
707	0.4552
698	0.0497
689	-0.0036
680	0.6751
671	0.7164
662	0.7403
653	0.5946
644	0.2266
635	0.7145
626	0.7419
617	0.7705
608	0.7792
599	0.583
590	0.4958
581	0.0526
572	0.572
563	0.7622
554	0.8038
545	0.8091
536	0.8152
527	0.7949
518	0.7348
509	0.4297
500	0.6358
491	0.717
482	0.7316
473	0.7233
464	0.698
455	0.6624
446	0.6131
437	0.5584
428	0.4854
419	0.3398
410	0.102
401	0.016
392	-0.0036
