Infrared Spectrum: Triphenylmethane
Formula: C 19 H 16
CAS: 519-73-3
State: gas
Instrument: HP-GC/MS/IRD
Origin: NIST Mass Spectrometry Data Center
1/CM	ABSORBANCE
550	0.000112
562	4e-06
574	0.000158
586	0.000414
598	0.003704
610	0.005806
622	0.001922
634	0.000578
646	0.000852
658	0.00204
670	0.003312
682	0.004666
694	0.016228
706	0.014364
718	0.006966
730	0.007558
742	0.006476
754	0.006844
766	0.001512
778	0.000692
790	0.00053
802	0.000548
814	0.00075
826	0.00051
838	0.00038
850	0.000336
862	0.000476
874	0.00027
886	0.000284
898	0.00023
910	0.000556
922	0.000384
934	0.000166
946	0.000196
958	0.000254
970	0.000216
982	0.000212
994	0.000294
1006	0.000536
1018	0.000764
1030	0.003514
1042	0.000996
1054	0.000406
1066	0.000838
1078	0.001612
1090	0.000546
1102	0.000352
1114	0.00031
1126	0.000136
1138	7.8e-05
1150	7.8e-05
1162	0.000166
1174	0.000436
1186	0.000706
1198	0.000404
1210	0.00024
1222	0.00029
1234	0.000548
1246	0.000566
1258	0.00053
1270	0.000428
1282	0.00045
1294	0.00047
1306	0.000504
1318	0.000548
1330	0.000584
1342	0.000388
1354	0.000226
1366	0.000286
1378	0.000386
1390	0.000288
1402	0.00029
1414	0.000348
1426	0.000626
1438	0.00178
1450	0.00368
1462	0.001692
1474	0.001518
1486	0.004286
1498	0.008182
1510	0.00141
1522	0.000598
1534	0.000604
1546	0.000492
1558	0.000492
1570	0.000838
1582	0.002038
1594	0.004866
1606	0.003042
1618	0.000852
1630	0.00042
1642	0.000306
1654	0.000324
1666	0.000398
1678	0.00024
1690	0.000168
1702	0.00018
1714	0.000188
1726	0.000254
1738	0.000344
1750	0.00058
1762	0.000432
1774	0.000458
1786	0.000618
1798	0.00124
1810	0.000716
1822	0.000446
1834	0.000286
1846	0.000244
1858	0.000268
1870	0.000594
1882	0.000832
1894	0.00073
1906	0.000286
1918	0.000298
1930	0.000636
1942	0.001134
1954	0.000888
1966	0.000328
1978	0.000136
1990	0.000106
2002	7.8e-05
2014	6.8e-05
2026	6.2e-05
2038	6.4e-05
2050	2.6e-05
2062	3.6e-05
2074	3.2e-05
2086	3.8e-05
2098	4.2e-05
2110	3e-05
2122	6e-06
2134	2.6e-05
2146	2e-05
2158	3e-05
2170	4.4e-05
2182	5.2e-05
2194	5.4e-05
2206	5.4e-05
2218	6e-05
2230	3.2e-05
2242	4.8e-05
2254	5.4e-05
2266	5.8e-05
2278	3.8e-05
2290	4.2e-05
2302	9.2e-05
2314	0.000188
2326	0.000124
2338	0.000162
2350	0.000116
2362	0.000104
2374	8.6e-05
2386	7.6e-05
2398	5.6e-05
2410	9.2e-05
2422	0.000104
2434	9.6e-05
2446	9.8e-05
2458	6.8e-05
2470	6.8e-05
2482	6.6e-05
2494	8.6e-05
2506	9.2e-05
2518	4.6e-05
2530	6.4e-05
2542	7.4e-05
2554	6.2e-05
2566	6.8e-05
2578	0.000122
2590	0.00011
2602	0.000114
2614	7.6e-05
2626	8.8e-05
2638	8.8e-05
2650	6.6e-05
2662	5e-05
2674	4.2e-05
2686	2.2e-05
2698	1e-05
2710	3.2e-05
2722	2.2e-05
2734	5.4e-05
2746	5.2e-05
2758	6.4e-05
2770	9.6e-05
2782	0.000124
2794	8.8e-05
2806	6.4e-05
2818	0.000108
2830	0.000152
2842	0.000178
2854	0.000266
2866	0.000362
2878	0.000856
2890	0.001722
2902	0.000774
2914	0.000424
2926	0.000354
2938	0.000324
2950	0.000314
2962	0.000296
2974	0.000354
2986	0.00053
2998	0.001012
3010	0.002142
3022	0.006102
3034	0.009582
3046	0.00573
3058	0.007846
3070	0.014528
3082	0.007846
3094	0.005174
3106	0.00266
3118	0.0012
3130	0.000492
3142	0.000348
3154	0.00034
3166	0.00031
3178	0.00018
3190	0.00012
3202	8.6e-05
3214	6.6e-05
3226	4.6e-05
3238	8.4e-05
3250	6.4e-05
3262	6.4e-05
3274	3.4e-05
3286	9.2e-05
3298	3.8e-05
3310	6.2e-05
3322	2.8e-05
3334	2.4e-05
3346	4.4e-05
3358	6e-05
3370	3.4e-05
3382	4.8e-05
3394	2.6e-05
3406	3.8e-05
3418	2.8e-05
3430	6e-05
3442	3.8e-05
3454	3.8e-05
3466	8e-05
3478	3.6e-05
3490	2.8e-05
3502	5.2e-05
3514	5e-05
3526	7.2e-05
3538	4e-05
3550	2.8e-05
3562	8.4e-05
3574	8.6e-05
3586	4.6e-05
3598	5e-05
3610	6.2e-05
3622	9.4e-05
3634	9.8e-05
3646	0.000168
3658	0.000134
3670	0.000118
3682	0.000128
3694	0.000154
3706	0.000122
3718	0.000124
3730	8e-05
3742	0.000112
3754	8.6e-05
3766	0.000102
3778	6.4e-05
3790	5.2e-05
3802	6.8e-05
3814	9.2e-05
3826	6.4e-05
3838	8.6e-05
