Infrared Spectrum: O,P'-SULFONYL DIBENZOIC ACID
Formula: C14 H10 O6 S
CAS: 51907-25-6
State: SOLID (NUJOL MULL)
Class: COBLENTZ
Instrument: Not specified, most likely a prism, grating, or hybrid spectrometer.
Sampling: TRANSMISSION
Resolution: 4
Origin: TENNESSEE EASTMAN COMPANY, RESEARCH LABORATORIES
MICROMETERS	TRANSMITTANCE
2.024	0.652
2.06288	0.652
2.10175	0.653
2.14063	0.658
2.17951	0.663
2.21839	0.668
2.25726	0.668
2.29614	0.668
2.33502	0.669
2.3739	0.679
2.41277	0.684
2.45165	0.689
2.49053	0.704
2.52941	0.717
2.56828	0.73
2.60716	0.734
2.64604	0.739
2.68492	0.749
2.72379	0.76
2.76267	0.77
2.80155	0.777
2.84043	0.78
2.8793	0.783
2.91818	0.793
2.95706	0.796
2.99593	0.798
3.03481	0.798
3.07369	0.795
3.11257	0.783
3.15144	0.747
3.19032	0.7
3.2292	0.642
3.26808	0.601
3.30695	0.547
3.34583	0.334
3.38471	0.107
3.42359	0.073
3.46246	0.108
3.50134	0.188
3.54022	0.515
3.5791	0.583
3.61797	0.637
3.65685	0.639
3.69573	0.632
3.73461	0.608
3.77348	0.59
3.81236	0.596
3.85124	0.614
3.89011	0.614
3.92899	0.608
3.96787	0.6
4.00675	0.617
4.04562	0.647
4.0845	0.666
4.12338	0.682
4.16226	0.694
4.20113	0.718
4.24001	0.739
4.27889	0.749
4.31777	0.754
4.35664	0.767
4.39552	0.782
4.4344	0.79
4.47328	0.798
4.51215	0.809
4.55103	0.822
4.58991	0.829
4.62878	0.834
4.66766	0.837
4.70654	0.837
4.74542	0.84
4.78429	0.848
4.82317	0.865
4.86205	0.868
4.90093	0.869
4.9398	0.871
4.97868	0.873
5.01756	0.882
5.05644	0.886
5.09531	0.887
5.13419	0.887
5.17307	0.889
5.21195	0.899
5.25082	0.904
5.2897	0.908
5.32858	0.91
5.36746	0.91
5.40633	0.912
5.44521	0.917
5.48409	0.92
5.52296	0.92
5.56184	0.926
5.60072	0.933
5.6396	0.938
5.67847	0.938
5.71735	0.925
5.75623	0.793
5.79511	0.489
5.83398	0.281
5.87286	0.224
5.91174	0.325
5.95062	0.46
5.98949	0.57
6.02837	0.653
6.06725	0.691
6.10613	0.733
6.145	0.762
6.18388	0.791
6.22276	0.813
6.26164	0.795
6.30051	0.822
6.33939	0.764
6.37827	0.795
6.41714	0.839
6.45602	0.85
6.4949	0.861
6.53378	0.873
6.57265	0.874
6.61153	0.874
6.65041	0.873
6.68929	0.829
6.72816	0.757
6.76704	0.606
6.80592	0.417
6.8448	0.427
6.88367	0.5
6.92255	0.591
6.96143	0.658
7.00031	0.521
7.03918	0.523
7.07806	0.673
7.11694	0.684
7.15582	0.684
7.19469	0.695
7.23357	0.575
7.27245	0.552
7.31132	0.652
7.3502	0.733
7.38908	0.786
7.42796	0.785
7.46683	0.728
7.50571	0.588
7.54459	0.364
7.58347	0.317
7.62234	0.312
7.66122	0.318
7.7001	0.383
7.73898	0.372
7.77785	0.364
7.81673	0.396
7.85561	0.497
7.89449	0.58
7.93336	0.601
7.97224	0.617
8.01112	0.695
8.04999	0.736
8.08887	0.751
8.12775	0.78
8.16663	0.8
8.2055	0.803
8.24438	0.809
8.28326	0.826
8.32214	0.837
8.36101	0.842
8.39989	0.842
8.43877	0.778
8.47765	0.746
8.51652	0.806
8.5554	0.733
8.59428	0.526
8.63316	0.505
8.67203	0.613
8.71091	0.695
8.74979	0.759
8.78867	0.801
8.82754	0.736
8.86642	0.585
8.9053	0.611
8.94417	0.671
8.98305	0.643
9.02193	0.728
9.06081	0.783
9.09968	0.814
9.13856	0.806
9.17744	0.734
9.21632	0.749
9.25519	0.813
9.29407	0.839
9.33295	0.843
9.37183	0.853
9.4107	0.863
9.44958	0.855
9.48846	0.835
9.52734	0.845
9.56621	0.861
9.60509	0.871
9.64397	0.876
9.68285	0.882
9.72172	0.886
9.7606	0.892
9.79948	0.895
9.83835	0.824
9.87723	0.827
9.91611	0.85
9.95499	0.86
9.99386	0.871
10.0327	0.878
10.0716	0.881
10.1105	0.881
10.1494	0.881
10.1883	0.881
10.2271	0.881
10.266	0.881
10.3049	0.871
10.3438	0.866
10.3826	0.865
10.4215	0.863
10.4604	0.858
10.4993	0.847
10.5381	0.84
10.577	0.839
10.6159	0.827
10.6548	0.814
10.6937	0.786
10.7325	0.77
10.7714	0.764
10.8103	0.762
10.8492	0.762
10.888	0.762
10.9269	0.77
10.9658	0.79
11.0047	0.803
11.0436	0.83
11.0824	0.839
11.1213	0.845
11.1602	0.848
11.1991	0.839
11.2379	0.832
11.2768	0.837
11.3157	0.852
11.3546	0.878
11.3935	0.892
11.4323	0.904
11.4712	0.912
11.5101	0.917
11.549	0.92
11.5878	0.887
11.6267	0.826
11.6656	0.84
11.7045	0.853
11.7433	0.873
11.7822	0.882
11.8211	0.891
11.86	0.902
11.8989	0.907
11.9377	0.907
11.9766	0.908
12.0155	0.908
12.0544	0.908
12.0932	0.908
12.1321	0.907
12.171	0.889
12.2099	0.86
12.2488	0.845
12.2876	0.847
12.3265	0.839
12.3654	0.829
12.4043	0.829
12.4431	0.848
12.482	0.871
12.5209	0.886
12.5598	0.884
12.5986	0.816
12.6375	0.743
12.6764	0.747
12.7153	0.814
12.7542	0.852
12.793	0.868
12.8319	0.881
12.8708	0.884
12.9097	0.881
12.9485	0.853
12.9874	0.834
13.0263	0.839
13.0652	0.847
13.1041	0.843
13.1429	0.809
13.1818	0.796
13.2207	0.843
13.2596	0.869
13.2984	0.882
13.3373	0.882
13.3762	0.879
13.4151	0.852
13.454	0.814
13.4928	0.756
13.5317	0.674
13.5706	0.598
13.6095	0.544
13.6483	0.543
13.6872	0.541
13.7261	0.536
13.765	0.5
13.8038	0.469
13.8427	0.445
13.8816	0.443
13.9205	0.497
13.9594	0.573
13.9982	0.65
14.0371	0.7
14.076	0.728
14.1149	0.738
14.1537	0.739
14.1926	0.734
14.2315	0.723
14.2704	0.721
14.3093	0.721
14.3481	0.721
14.387	0.721
14.4259	0.725
14.4648	0.739
14.5036	0.754
14.5425	0.764
14.5814	0.764
14.6203	0.759
14.6592	0.746
14.698	0.741
14.7369	0.743
14.7758	0.744
14.8147	0.752
14.8535	0.762
14.8924	0.769
14.9313	0.77
14.9702	0.772
15.009	0.773
15.0479	0.775
15.0868	0.775
15.1257	0.775
15.1646	0.775
15.2034	0.775
15.2423	0.775
15.2812	0.775
15.3201	0.775
15.3589	0.775
15.3978	0.772
15.4367	0.764
15.4756	0.751
15.5145	0.739
15.5533	0.736
15.5922	0.736
15.6311	0.736
15.67	0.736
15.7088	0.738
15.7477	0.738
15.7866	0.738
15.8255	0.738
15.8643	0.739
15.9032	0.741
15.9421	0.741
15.981	0.741
