Infrared Spectrum: 4-Isothiocyanatobenzenesulfonamide
Formula: C 7 H 6 N 2 O 2 S 2
CAS: 51908-29-3
State: gas
Origin: EPA-IR VAPOR PHASE LIBRARY
1/CM	ABSORBANCE
549.8	0.004588
559.445	0.002948
569.09	0.002368
578.734	0.002468
588.379	0.002618
598.024	0.003548
607.669	0.006288
617.313	0.008218
626.958	0.007118
636.603	0.005648
646.248	0.003738
655.893	0.002508
665.537	0.002248
675.182	0.002218
684.827	0.002228
694.472	0.002258
704.116	0.002208
713.761	0.002098
723.406	0.002488
733.051	0.003788
742.695	0.006918
752.34	0.004298
761.985	0.002458
771.63	0.002148
781.275	0.001928
790.919	0.002018
800.564	0.002728
810.209	0.003118
819.854	0.004808
829.498	0.007398
839.143	0.008148
848.788	0.008718
858.433	0.009118
868.078	0.006528
877.722	0.004078
887.367	0.002538
897.012	0.001758
906.657	0.001588
916.301	0.001848
925.946	0.001858
935.591	0.002298
945.236	0.002628
954.88	0.001798
964.525	0.001144
974.17	0.0007457
983.815	0.0008688
993.46	0.0006109
1003.1	0.0005977
1012.75	0.0009144
1022.39	0.0006416
1032.04	0.0008746
1041.68	0.0005469
1051.33	0.0004903
1060.97	0.0004279
1070.62	0.0007041
1080.26	0.0012154
1089.91	0.002138
1099.55	0.002448
1109.2	0.001988
1118.84	0.001348
1128.49	0.0011995
1138.13	0.0009533
1147.78	0.001508
1157.42	0.003618
1167.07	0.014828
1176.71	0.020628
1186.36	0.009238
1196	0.003118
1205.64	0.001848
1215.29	0.001368
1224.93	0.001318
1234.58	0.0010528
1244.22	0.001438
1253.87	0.002078
1263.51	0.002338
1273.16	0.001818
1282.8	0.001648
1292.45	0.001308
1302.09	0.001298
1311.74	0.001031
1321.38	0.0010659
1331.03	0.0011885
1340.67	0.001528
1350.32	0.002558
1359.96	0.004168
1369.61	0.007388
1379.25	0.011338
1388.9	0.010628
1398.54	0.006048
1408.18	0.002998
1417.83	0.001458
1427.47	0.0011154
1437.12	0.0007703
1446.76	0.0007386
1456.41	0.0006343
1466.05	0.0009715
1475.7	0.001668
1485.34	0.003908
1494.99	0.003608
1504.63	0.001958
1514.28	0.0011915
1523.92	0.001348
1533.57	0.001758
1543.21	0.002538
1552.86	0.003398
1562.5	0.003508
1572.15	0.004278
1581.79	0.005898
1591.44	0.008438
1601.08	0.005038
1610.73	0.002428
1620.37	0.001498
1630.01	0.0011328
1639.66	0.0008196
1649.3	0.0006547
1658.95	0.000675
1668.59	0.0004869
1678.24	0.0004981
1687.88	0.0004557
1697.53	0.00034101
1707.17	0.0003577
1716.82	0.0003539
1726.46	0.0003935
1736.11	0.0003876
1745.75	0.0005077
1755.4	0.0004646
1765.04	0.000506
1774.69	0.0006171
1784.33	0.0006734
1793.98	0.0005989
1803.62	0.0005771
1813.27	0.0007256
1822.91	0.0007849
1832.55	0.0009064
1842.2	0.0008474
1851.84	0.0010562
1861.49	0.0010519
1871.13	0.001258
1880.78	0.001378
1890.42	0.001638
1900.07	0.001838
1909.71	0.002258
1919.36	0.002658
1929	0.003208
1938.65	0.004078
1948.29	0.005568
1957.94	0.007518
1967.58	0.010138
1977.23	0.013468
1986.87	0.018108
1996.52	0.023628
2006.16	0.029058
2015.81	0.034478
2025.45	0.043648
2035.1	0.044208
2044.74	0.029028
2054.38	0.019048
2064.03	0.017588
2073.67	0.023348
2083.32	0.029618
2092.96	0.023388
2102.61	0.013948
2112.25	0.009258
2121.9	0.007898
2131.54	0.008138
2141.19	0.007438
2150.83	0.005478
2160.48	0.004108
2170.12	0.003248
2179.77	0.002818
2189.41	0.002508
2199.06	0.002518
2208.7	0.002138
2218.35	0.001578
2227.99	0.0012137
2237.64	0.0009759
2247.28	0.0009237
2256.92	0.0008665
2266.57	0.0008393
2276.21	0.0007974
2285.86	0.0007611
2295.5	0.0007032
2305.15	0.0005725
2314.79	0.0003989
2324.44	0.0005438
2334.08	0.0006167
2343.73	0.0006486
2353.37	0.0004725
2363.02	0.000465
2372.66	0.0004532
2382.31	0.0004782
2391.95	0.0004652
2401.6	0.000431
2411.24	0.0004513
2420.89	0.0005447
2430.53	0.0004186
2440.18	0.0004801
2449.82	0.0004645
2459.47	0.0004424
2469.11	0.0005462
2478.75	0.0006093
2488.4	0.0005994
2498.04	0.0006616
2507.69	0.0008222
2517.33	0.0007047
2526.98	0.0007079
2536.62	0.000758
2546.27	0.0008565
2555.91	0.0009963
2565.56	0.0009586
2575.2	0.0011723
2584.85	0.0011153
2594.49	0.0009579
2604.14	0.000834
2613.78	0.0007554
2623.43	0.000719
2633.07	0.0006903
2642.72	0.0005516
2652.36	0.0005595
2662.01	0.0005369
2671.65	0.000462
2681.29	0.0004336
2690.94	0.000484
2700.58	0.0005948
2710.23	0.0004289
2719.87	0.0005331
2729.52	0.0004415
2739.16	0.0004605
2748.81	0.0005822
2758.45	0.0005768
2768.1	0.00058
2777.74	0.0004867
2787.39	0.0004928
2797.03	0.0003817
2806.68	0.0003782
2816.32	0.0004855
2825.97	0.0005052
2835.61	0.0004969
2845.26	0.00028218
2854.9	0.0004494
2864.55	0.0003866
2874.19	0.0003747
2883.84	0.0003867
2893.48	0.00033481
2903.12	0.00034501
2912.77	0.0004659
2922.41	0.0003906
2932.06	0.0003903
2941.7	0.000498
2951.35	0.0004815
2960.99	0.0004644
2970.64	0.0005236
2980.28	0.000353
2989.93	0.00034648
2999.57	0.000454
3009.22	0.0003944
3018.86	0.0004399
3028.51	0.0004138
3038.15	0.0004661
3047.8	0.0005474
3057.44	0.0004373
3067.09	0.0004479
3076.73	0.0007408
3086.38	0.0006089
3096.02	0.00034402
3105.67	0.00028938
3115.31	0.0003283
3124.95	0.0003833
3134.6	0.00032669
3144.24	0.0002103
3153.89	0.0004014
3163.53	0.00028443
3173.18	0.00027114
3182.82	0.0005215
3192.47	0.0002051
3202.11	0.00024297
3211.76	0.00031642
3221.4	0.000103
3231.05	0.0001775
3240.69	0.000348
3250.34	0.000475
3259.98	0.0001498
3269.63	0.0003761
3279.27	0.0004221
3288.92	0.0003901
3298.56	0.00029845
3308.21	0.00028043
3317.85	0.0003737
3327.49	0.0004076
3337.14	0.0005609
3346.78	0.0007986
3356.43	0.001598
3366.07	0.002568
3375.72	0.002718
3385.36	0.001718
3395.01	0.0010633
3404.65	0.0007661
3414.3	0.0006156
3423.94	0.0006001
3433.59	0.0006391
3443.23	0.000959
3452.88	0.0010112
3462.52	0.001668
3472.17	0.001758
3481.81	0.001548
3491.46	0.001086
3501.1	0.0009863
3510.75	0.0004528
3520.39	0.000448
3530.04	0.0003887
3539.68	0.0003559
3549.32	0.0002289
3558.97	0.0004577
3568.61	0.00033651
3578.26	0.000248482
3587.9	0.000102
3597.55	0.000475
3607.19	0.00027831
3616.84	0.00034131
3626.48	0.0004416
3636.13	0.00032609
3645.77	0.00030274
3655.42	0.0004089
3665.06	0.0003878
3674.71	5.7e-05
3684.35	0.0004025
3694	0.0004769
3703.64	0.00029465
3713.29	0.000124
3722.93	0.0002099
3732.58	0.0001727
3742.22	0.0003585
3751.86	0.00032893
3761.51	0.0001728
3771.15	0.00024443
3780.8	0.00021
3790.44	0.00034075
3800.09	0.0003884
3809.73	0.0005126
3819.38	0.000252154
3829.02	0.0005296
3838.67	0.0002317
3848.31	0.0004184
3857.96	0.00033004
3867.6	0.00033841
3877.25	0
3886.89	0.00026034
3896.54	0.0004099
3906.18	0.0003407
3915.83	0.0004003
3925.47	0.0002153
3935.12	0.0002066
3944.76	0.0004668
3954.41	0.0004235
3964.05	0.000117
3973.69	0.0003525
3983.34	0.0006734
3992.98	0.0006737
