Infrared Spectrum: N'-Ethyl-4-phenoxymetanilanilide
Formula: C20 H20 N2 O3 S
CAS: 51929-55-6
State: SOLID (SPLIT MULL), FLUOROLUBE FOR 3800-1330 CM^-^1, NUJOL FOR 1330-400 CM^-^1
Class: COBLENTZ III
Instrument: BECKMAN IR-9 (GRATING)
Instrument parameters: ORDER CHANGES: 670, 1200, 2000 CM^-^1
Sampling: TRANSMISSION
Resolution: 2
Origin: DOW CHEMICAL COMPANY
1/CM	TRANSMITTANCE
401	0.6776
410	0.6575
419	0.6571
428	0.6901
437	0.7428
446	0.7811
455	0.7075
464	0.8321
473	0.8502
482	0.8121
491	0.8573
500	0.7845
509	0.8193
518	0.8683
527	0.8718
536	0.827
545	0.575
554	0.7151
563	0.7733
572	0.6636
581	0.7021
590	0.5676
599	0.2285
608	0.8203
617	0.7748
626	0.8216
635	0.4526
644	0.8594
653	0.8798
662	0.8662
671	0.7946
680	0.8559
689	0.6881
698	0.4088
707	0.5246
716	0.5312
725	0.7258
734	0.7856
743	0.8028
752	0.5133
761	0.7339
770	0.8313
779	0.854
788	0.8456
797	0.5744
806	0.8317
815	0.8685
824	0.7601
833	0.8541
842	0.533
851	0.8538
860	0.8821
869	0.8792
878	0.8478
887	0.5633
896	0.73
905	0.8385
914	0.7995
923	0.8263
932	0.8195
941	0.8593
950	0.8325
959	0.5485
968	0.7654
977	0.8452
986	0.8525
995	0.8581
1004	0.8167
1013	0.8582
1022	0.7905
1031	0.8318
1040	0.829
1049	0.7793
1058	0.6248
1067	0.5622
1076	0.6031
1085	0.7286
1094	0.6847
1103	0.7689
1112	0.7767
1121	0.7588
1130	0.6546
1139	0.5329
1148	0.4252
1157	0.3887
1166	0.2183
1175	0.026
1184	0.4919
1193	0.701
1202	0.7041
1211	0.6173
1220	0.2311
1229	0.3178
1238	0.5739
1247	0.7421
1256	0.7649
1265	0.7468
1274	0.6246
1283	0.617
1292	0.411
1301	0.4968
1310	0.5638
1319	0.5134
1328	0.325
1337	0.2361
1346	0.379
1355	0.6785
1364	0.7105
1373	0.7668
1382	0.6778
1391	0.7501
1400	0.7489
1409	0.7228
1418	0.6217
1427	0.5142
1436	0.7182
1445	0.7068
1454	0.6508
1463	0.6772
1472	0.4832
1481	0.4291
1490	0.1562
1499	0.5025
1508	0.6931
1517	0.7933
1526	0.8412
1535	0.8335
1544	0.8201
1553	0.7961
1562	0.7478
1571	0.5789
1580	0.5701
1589	0.5348
1598	0.5057
1607	0.6685
1616	0.4116
1625	0.6578
1634	0.8039
1643	0.8332
1652	0.837
1661	0.8375
1670	0.837
1679	0.8382
1688	0.8391
1697	0.836
1706	0.8287
1715	0.818
1724	0.8203
1733	0.8239
1742	0.8216
1751	0.8137
1760	0.8053
1769	0.8105
1778	0.8075
1787	0.8012
1796	0.7918
1805	0.7984
1814	0.8046
1823	0.805
1832	0.8026
1841	0.7987
1850	0.7924
1859	0.7811
1868	0.7871
1877	0.7718
1886	0.78
1895	0.7887
1904	0.7886
1913	0.7875
1922	0.785
1931	0.7798
1940	0.7751
1949	0.7644
1958	0.7667
1967	0.7743
1976	0.773
1985	0.7711
1994	0.7675
2003	0.7665
2012	0.7747
2021	0.7719
2030	0.7687
2039	0.7658
2048	0.7626
2057	0.7592
2066	0.756
2075	0.7536
2084	0.7511
2093	0.7489
2102	0.7467
2111	0.7446
2120	0.7425
2129	0.7407
2138	0.7392
2147	0.7376
2156	0.7351
2165	0.7318
2174	0.7288
2183	0.7253
2192	0.7215
2201	0.7175
2210	0.7134
2219	0.7086
2228	0.7039
2237	0.6991
2246	0.6944
2255	0.6897
2264	0.6854
2273	0.6811
2282	0.6771
2291	0.6736
2300	0.6705
2309	0.6676
2318	0.6658
2327	0.6647
2336	0.6662
2345	0.6693
2354	0.6735
2363	0.6765
2372	0.6778
2381	0.6728
2390	0.6625
2399	0.6621
2408	0.6615
2417	0.661
2426	0.6611
2435	0.6619
2444	0.6621
2453	0.6621
2462	0.6619
2471	0.6618
2480	0.6614
2489	0.6614
2498	0.6615
2507	0.6615
2516	0.6617
2525	0.6611
2534	0.6606
2543	0.6591
2552	0.6571
2561	0.6555
2570	0.654
2579	0.6524
2588	0.6507
2597	0.6482
2606	0.6451
2615	0.6419
2624	0.6395
2633	0.6369
2642	0.6345
2651	0.6321
2660	0.6305
2669	0.6305
2678	0.6312
2687	0.6317
2696	0.6321
2705	0.6299
2714	0.6268
2723	0.6238
2732	0.6208
2741	0.6179
2750	0.6159
2759	0.6139
2768	0.612
2777	0.6099
2786	0.6073
2795	0.6047
2804	0.6016
2813	0.5982
2822	0.5945
2831	0.5902
2840	0.5847
2849	0.5777
2858	0.5684
2867	0.5481
2876	0.5058
2885	0.5519
2894	0.571
2903	0.5753
2912	0.5737
2921	0.5666
2930	0.5541
2939	0.5329
2948	0.5557
2957	0.5637
2966	0.5579
2975	0.5196
2984	0.4967
2993	0.5533
3002	0.5665
3011	0.563
3020	0.5567
3029	0.5504
3038	0.5486
3047	0.5498
3056	0.5324
3065	0.5142
3074	0.5069
3083	0.5268
3092	0.5322
3101	0.5403
3110	0.5468
3119	0.5464
3128	0.5441
3137	0.5415
3146	0.5381
3155	0.5349
3164	0.5317
3173	0.5295
3182	0.5278
3191	0.5262
3200	0.5252
3209	0.5247
3218	0.5243
3227	0.524
3236	0.5238
3245	0.5232
3254	0.5217
3263	0.5192
3272	0.5164
3281	0.5129
3290	0.5091
3299	0.5052
3308	0.501
3317	0.4948
3326	0.4886
3335	0.4812
3344	0.4734
3353	0.4626
3362	0.4418
3371	0.3812
3380	0.28
3389	0.4904
3398	0.5073
3407	0.5071
3416	0.5023
3425	0.4971
3434	0.4906
3443	0.4822
3452	0.4719
3461	0.46
3470	0.4465
3479	0.4064
3488	0.3462
3497	0.3402
3506	0.4965
3515	0.5012
3524	0.5006
3533	0.4996
3542	0.4975
3551	0.4935
3560	0.4898
3569	0.4865
3578	0.4838
3587	0.481
3596	0.4789
3605	0.4767
3614	0.4745
3623	0.4724
3632	0.4703
3641	0.4681
3650	0.4657
3659	0.4632
3668	0.4609
3677	0.4589
3686	0.457
3695	0.455
3704	0.4531
3713	0.4515
3722	0.4499
3731	0.4483
3740	0.447
3749	0.4457
3758	0.4445
3767	0.4431
3776	0.4418
3785	0.4397
3794	0.4377
3803	0.4357
