Infrared Spectrum: 5-Aminoindole
Formula: C 8 H 8 N 2
CAS: 5192-03-0
State: gas
Instrument: HP-GC/MS/IRD
Origin: NIST Mass Spectrometry Data Center
1/CM	ABSORBANCE
550	0.0016341
562	0.0023699
574	0.0029432
586	0.0039208
598	0.0033397
610	0.00247
622	0.0018122
634	0.0019162
646	0.0026351
658	0.0047359
670	0.0063661
682	0.0061308
694	0.0075335
706	0.011063
718	0.0106379
730	0.008333
742	0.0065962
754	0.0065923
766	0.0062296
778	0.0076869
790	0.0092742
802	0.0057759
814	0.0036088
826	0.0038922
838	0.004706
850	0.0044759
862	0.0026
874	0.0013156
886	0.0018889
898	0.0035295
910	0.0022373
922	0.0008502
934	0.0010803
946	0.0011518
958	0.0004537
970	0.000156
982	5.33e-05
994	9.75e-05
1006	0.000195
1018	0.0002093
1030	0.0002314
1042	0.0004303
1054	0.0014521
1066	0.0023114
1078	0.0020683
1090	0.002379
1102	0.0021333
1114	0.0014157
1126	0.0017433
1138	0.0030342
1150	0.0045955
1162	0.0036894
1174	0.0008086
1186	9.36e-05
1198	0.0002106
1210	0.0013078
1222	0.005863
1234	0.0072696
1246	0.0027781
1258	0.000962
1270	0.000338
1282	0.0010101
1294	0.0020618
1306	0.0020033
1318	0.0035776
1330	0.0066482
1342	0.005447
1354	0.0015574
1366	0.000507
1378	0.0004992
1390	0.000975
1402	0.0020189
1414	0.0021697
1426	0.0015743
1438	0.002522
1450	0.0063531
1462	0.0084357
1474	0.0089492
1486	0.0085475
1498	0.0039091
1510	0.0028041
1522	0.003107
1534	0.0023322
1546	0.0027326
1558	0.0028548
1570	0.0032292
1582	0.0044356
1594	0.0043134
1606	0.0046566
1618	0.0070031
1630	0.0070954
1642	0.0050206
1654	0.0031473
1666	0.0017108
1678	0.0012545
1690	0.0011882
1702	0.0008463
1714	0.0004199
1726	0.0001807
1738	5.59e-05
1750	3.38e-05
1762	9.23e-05
1774	0.0001209
1786	7.93e-05
1798	0.0001612
1810	0.0003887
1822	0.0004862
1834	0.000299
1846	9.1e-05
1858	2.47e-05
1870	1.17e-05
1882	7.67e-05
1894	7.8e-05
1906	3.9e-05
1918	1.69e-05
1930	5.59e-05
1942	6.37e-05
1954	7.8e-05
1966	8.97e-05
1978	5.33e-05
1990	3.38e-05
2002	4.03e-05
2014	3.64e-05
2026	4.68e-05
2038	8.45e-05
2050	5.98e-05
2062	5.2e-05
2074	6.11e-05
2086	7.54e-05
2098	8.32e-05
2110	8.58e-05
2122	9.36e-05
2134	0.0001066
2146	5.46e-05
2158	8.97e-05
2170	9.62e-05
2182	0.0001092
2194	0.0001001
2206	8.45e-05
2218	8.58e-05
2230	8.19e-05
2242	7.93e-05
2254	5.07e-05
2266	8.58e-05
2278	0.0001131
2290	0.0001157
2302	0.0001001
2314	0.0001248
2326	5.46e-05
2338	5.72e-05
2350	9.62e-05
2362	9.23e-05
2374	0.0001092
2386	0.0001287
2398	7.93e-05
2410	8.19e-05
2422	0.0001001
2434	0.0001079
2446	0.0001222
2458	0.0001963
2470	0.0001872
2482	0.0001885
2494	0.000169
2506	0.0001469
2518	0.0001404
2530	0.0001495
2542	0.0001339
2554	0.0001339
2566	0.0001443
2578	0.000156
2590	0.0001482
2602	7.28e-05
2614	7.41e-05
2626	0.0001131
2638	0.0001456
2650	0.0001209
2662	0.0001105
2674	0.0001495
2686	0.0001417
2698	0.0001378
2710	0.0001313
2722	0.0001456
2734	0.0001209
2746	7.93e-05
2758	4.68e-05
2770	8.06e-05
2782	7.41e-05
2794	9.36e-05
2806	9.36e-05
2818	7.67e-05
2830	8.58e-05
2842	0.00013
2854	7.15e-05
2866	5.59e-05
2878	4.68e-05
2890	0.0001092
2902	0.0001547
2914	0.0002392
2926	0.0003146
2938	0.0003068
2950	0.0002821
2962	0.0003042
2974	0.0002912
2986	0.0004082
2998	0.0006825
3010	0.0016978
3022	0.0035854
3034	0.00442
3046	0.0034567
3058	0.0024856
3070	0.0015041
3082	0.0010946
3094	0.0009321
3106	0.0009061
3118	0.0009529
3130	0.0012129
3142	0.0009945
3154	0.0003354
3166	0.0001521
3178	9.62e-05
3190	9.88e-05
3202	0.0001391
3214	0.0001859
3226	0.0001937
3238	0.0001846
3250	0.0001365
3262	0.0001885
3274	0.0001846
3286	7.93e-05
3298	8.84e-05
3310	0.0001053
3322	8.19e-05
3334	8.71e-05
3346	0.0001859
3358	0.0001248
3370	0.0002678
3382	0.0005265
3394	0.0007631
3406	0.0005629
3418	0.0003978
3430	0.0004823
3442	0.0005811
3454	0.0008866
3466	0.0015873
3478	0.0022971
3490	0.0031161
3502	0.0040755
3514	0.0068471
3526	0.0067145
3538	0.0026806
3550	0.0006344
3562	0.000234
3574	0.0001547
3586	0.0001079
3598	9.49e-05
3610	8.19e-05
3622	0.00013
3634	0.0001469
3646	0.0001703
3658	0.0001469
3670	7.15e-05
3682	0.0001144
3694	6.63e-05
3706	6.89e-05
3718	6.76e-05
3730	5.2e-05
3742	4.29e-05
3754	7.67e-05
3766	0.0001326
3778	0.0001391
3790	0.0001456
3802	0.0001066
3814	0.0001274
3826	0.0002093
3838	0.0001612
