Infrared Spectrum: 2,5-Diethyl-3,4-diphenylcyclopentadienone
Formula: C 21 H 20 O
CAS: 51932-77-5
State: gas
Origin: EPA-IR VAPOR PHASE LIBRARY
1/CM	ABSORBANCE
549.9	0.00374
559.547	0.0047
569.193	0.0045
578.84	0.003
588.486	0.0020086
598.133	0.0018863
607.779	0.0017464
617.426	0.00231
627.072	0.00363
636.719	0.0035
646.365	0.00458
656.012	0.00896
665.658	0.01002
675.305	0.01231
684.951	0.01725
694.598	0.07802
704.245	0.0698
713.891	0.01834
723.538	0.01047
733.184	0.01157
742.831	0.01857
752.477	0.02658
762.124	0.0291
771.77	0.02016
781.417	0.01076
791.063	0.00849
800.71	0.00736
810.356	0.00849
820.003	0.01271
829.649	0.00868
839.296	0.00448
848.943	0.00321
858.589	0.00283
868.236	0.00312
877.882	0.00295
887.529	0.00343
897.175	0.00758
906.822	0.01985
916.468	0.01094
926.115	0.00439
935.761	0.00411
945.408	0.00565
955.054	0.00467
964.701	0.00354
974.347	0.00388
983.994	0.00577
993.64	0.011
1003.29	0.01652
1012.93	0.02842
1022.58	0.02065
1032.23	0.01095
1041.87	0.00579
1051.52	0.00583
1061.17	0.008
1070.81	0.01111
1080.46	0.01148
1090.11	0.00648
1099.75	0.0046
1109.4	0.00372
1119.05	0.00279
1128.69	0.00269
1138.34	0.0028
1147.99	0.00314
1157.63	0.0039
1167.28	0.00626
1176.92	0.01327
1186.57	0.01435
1196.22	0.00645
1205.86	0.00353
1215.51	0.00303
1225.16	0.0038
1234.8	0.00561
1244.45	0.00484
1254.1	0.00466
1263.74	0.00655
1273.39	0.00948
1283.04	0.01585
1292.68	0.02059
1302.33	0.01636
1311.98	0.01481
1321.62	0.01287
1331.27	0.0178
1340.92	0.02807
1350.56	0.03852
1360.21	0.02323
1369.86	0.01491
1379.5	0.01689
1389.15	0.00832
1398.79	0.00583
1408.44	0.00516
1418.09	0.00494
1427.73	0.00605
1437.38	0.01365
1447.03	0.01616
1456.67	0.01215
1466.32	0.01349
1475.97	0.00934
1485.61	0.01058
1495.26	0.01274
1504.91	0.00458
1514.55	0.00308
1524.2	0.00307
1533.85	0.0036
1543.49	0.00321
1553.14	0.00266
1562.79	0.00341
1572.43	0.0058
1582.08	0.00523
1591.73	0.00631
1601.37	0.00435
1611.02	0.0027
1620.67	0.00274
1630.31	0.00318
1639.96	0.00304
1649.6	0.00318
1659.25	0.00418
1668.9	0.00645
1678.54	0.00815
1688.19	0.01076
1697.84	0.02496
1707.48	0.11073
1717.13	0.22252
1726.78	0.06029
1736.42	0.01892
1746.07	0.00901
1755.72	0.00555
1765.36	0.00369
1775.01	0.00337
1784.66	0.00371
1794.3	0.0062
1803.95	0.00633
1813.6	0.00532
1823.24	0.00413
1832.89	0.0022848
1842.54	0.0017416
1852.18	0.0015768
1861.83	0.0020571
1871.47	0.0036
1881.12	0.00358
1890.77	0.00373
1900.41	0.00256
1910.06	0.0020556
1919.71	0.0020651
1929.35	0.0027
1939	0.00476
1948.65	0.00394
1958.29	0.00398
1967.94	0.0018545
1977.59	0.00137278
1987.23	0.0012654
1996.88	0.0011921
2006.53	0.001113
2016.17	0.001064
2025.82	0.00104
2035.47	0.000948
2045.11	0.000968
2054.76	0.000955
2064.41	0.000934
2074.05	0.00097
2083.7	0.001069
2093.35	0.001124
2102.99	0.000971
2112.64	0.00085
2122.28	0.00084
2131.93	0.000786
2141.58	0.000794
2151.22	0.000833
2160.87	0.000872
2170.52	0.000916
2180.16	0.001102
2189.81	0.001154
2199.46	0.001173
2209.1	0.001164
2218.75	0.001077
2228.4	0.000999
2238.04	0.00107
2247.69	0.001097
2257.34	0.001111
2266.98	0.001066
2276.63	0.001115
2286.28	0.001108
2295.92	0.000986
2305.57	0.001049
2315.22	0.0016177
2324.86	0.001159
2334.51	0.00129095
2344.16	0.0012437
2353.8	0.001057
2363.45	0.001078
2373.09	0.001075
2382.74	0.00095
2392.39	0.000872
2402.03	0.000877
2411.68	0.000869
2421.33	0.00093
2430.97	0.000973
2440.62	0.000853
2450.27	0.000776
2459.91	0.000832
2469.56	0.000791
2479.21	0.000755
2488.85	0.000801
2498.5	0.000836
2508.15	0.00086
2517.79	0.000873
2527.44	0.000864
2537.09	0.000955
2546.73	0.000936
2556.38	0.000998
2566.03	0.000886
2575.67	0.000881
2585.32	0.000839
2594.96	0.000929
2604.61	0.000907
2614.26	0.000974
2623.9	0.001019
2633.55	0.000875
2643.2	0.000927
2652.84	0.00092
2662.49	0.000794
2672.14	0.000783
2681.78	0.000687
2691.43	0.000787
2701.08	0.00073
2710.72	0.000915
2720.37	0.001125
2730.02	0.001548
2739.66	0.0017331
2749.31	0.0016035
2758.96	0.0015064
2768.6	0.0015628
2778.25	0.0015983
2787.9	0.0018946
2797.54	0.0020562
2807.19	0.00239
2816.84	0.0028
2826.48	0.00349
2836.13	0.00459
2845.77	0.00592
2855.42	0.01035
2865.07	0.01448
2874.71	0.01737
2884.36	0.03003
2894.01	0.0255
2903.65	0.02039
2913.3	0.01962
2922.95	0.02694
2932.59	0.03767
2942.24	0.05342
2951.89	0.03865
2961.53	0.03412
2971.18	0.06956
2980.83	0.05544
2990.47	0.02814
3000.12	0.01427
3009.77	0.0129
3019.41	0.01699
3029.06	0.02198
3038.71	0.02132
3048.35	0.01744
3058	0.02961
3067.64	0.04699
3077.29	0.03369
3086.94	0.0283
3096.58	0.01479
3106.23	0.00956
3115.88	0.00561
3125.52	0.00398
3135.17	0.00367
3144.82	0.00337
3154.46	0.00254
3164.11	0.0015264
3173.76	0.0012103
3183.4	0.00101
3193.05	0.000815
3202.7	0.000675
3212.34	0.000614
3221.99	0.00051
3231.64	0.000398
3241.28	0.00027
3250.93	0.000326
3260.58	0.000378
3270.22	0.0002
3279.87	0.000339
3289.52	0.000324
3299.16	0.00025
3308.81	0
3318.45	2e-05
3328.1	0.00026
3337.75	0.000339
3347.39	0.00026
3357.04	0.00022
3366.69	0.000404
3376.33	0.000505
3385.98	0.000786
3395.63	0.0016938
3405.27	0.00412
3414.92	0.00456
3424.57	0.0017952
3434.21	0.000837
3443.86	0.000608
3453.51	0.000436
3463.15	0.000349
3472.8	0.00022
3482.45	0.00024
3492.09	0.000444
3501.74	0.00021
3511.39	0.00017
3521.03	0.000307
3530.68	0.00032
3540.33	0.000318
3549.97	0.00023
3559.62	0.000311
3569.26	0.00027
3578.91	0.000359
3588.56	0.00026
3598.2	0.000313
3607.85	0.000374
3617.5	0.000432
3627.14	0.000334
3636.79	0.000601
3646.44	0.000709
3656.08	0.000527
3665.73	0.000521
3675.38	0.000713
3685.02	0.000673
3694.67	0.000801
3704.32	0.000773
3713.96	0.000725
3723.61	0.000754
3733.26	0.000609
3742.9	0.000599
3752.55	0.000525
3762.2	0.000469
3771.84	0.000527
3781.49	0.000474
3791.13	0.000513
3800.78	0.000504
3810.43	0.000421
3820.07	0.000483
3829.72	0.000569
3839.37	0.000506
3849.01	0.000612
3858.66	0.000564
3868.31	0.000627
3877.95	0.000572
3887.6	0.000656
3897.25	0.000712
3906.89	0.000696
3916.54	0.000655
3926.19	0.000809
3935.83	0.000753
3945.48	0.000707
3955.13	0.000779
3964.77	0.000868
3974.42	0.00076
3984.07	0.000904
3993.71	0.000973
