Infrared Spectrum: 1-(Beta-CYANOETHYL)-4-PHENYL-4-PIPERIDINOL
Formula: C14 H18 N2 O
CAS: 5193-57-7
State: SOLUTION (7% CHCl3)
Class: COBLENTZ
Instrument: Not specified, most likely a grating spectrometer.
Sampling: TRANSMISSION
Path length: 0.010 CM
Resolution: 4
Origin: ABBOTT LABORATORIES
MICROMETERS	TRANSMITTANCE
2	0.967
2.03986	0.967
2.07971	0.967
2.11957	0.967
2.15942	0.967
2.19928	0.967
2.23913	0.962
2.27899	0.962
2.31884	0.955
2.3587	0.952
2.39855	0.951
2.43841	0.942
2.47827	0.939
2.51812	0.946
2.55798	0.946
2.59783	0.944
2.63769	0.944
2.67754	0.942
2.7174	0.938
2.75725	0.818
2.79711	0.812
2.83697	0.836
2.87682	0.827
2.91668	0.833
2.95653	0.849
2.99639	0.856
3.03624	0.876
3.0761	0.884
3.11595	0.882
3.15581	0.889
3.19566	0.882
3.23552	0.841
3.27538	0.8
3.31523	0.753
3.35509	0.595
3.39494	0.468
3.4348	0.606
3.47465	0.709
3.51451	0.626
3.55436	0.606
3.59422	0.73
3.63408	0.802
3.67393	0.84
3.71379	0.854
3.75364	0.864
3.7935	0.893
3.83335	0.895
3.87321	0.895
3.91306	0.895
3.95292	0.9
3.99277	0.898
4.03263	0.889
4.07249	0.882
4.11234	0.895
4.1522	0.9
4.19205	0.916
4.23191	0.915
4.27176	0.916
4.31162	0.918
4.35147	0.918
4.39133	0.907
4.43118	0.828
4.47104	0.822
4.5109	0.895
4.55075	0.908
4.59061	0.915
4.63046	0.911
4.67032	0.91
4.71017	0.91
4.75003	0.911
4.78988	0.913
4.82974	0.913
4.8696	0.911
4.90945	0.91
4.94931	0.91
4.98916	0.91
5.02902	0.91
5.06887	0.905
5.10873	0.893
5.14858	0.892
5.18844	0.902
5.22829	0.903
5.26815	0.9
5.30801	0.89
5.34786	0.902
5.38772	0.905
5.42757	0.907
5.46743	0.905
5.50728	0.895
5.54714	0.889
5.58699	0.898
5.62685	0.903
5.66671	0.9
5.70656	0.9
5.74642	0.9
5.78627	0.9
5.82613	0.898
5.86598	0.9
5.90584	0.893
5.94569	0.892
5.98555	0.88
6.0254	0.88
6.06526	0.879
6.10512	0.884
6.14497	0.88
6.18483	0.872
6.22468	0.854
6.26454	0.833
6.30439	0.859
6.34425	0.871
6.3841	0.884
6.42396	0.877
6.46381	0.88
6.50367	0.88
6.54353	0.884
6.58338	0.879
6.62324	0.871
6.66309	0.849
6.70295	0.657
6.7428	0.769
6.78266	0.789
6.82251	0.592
6.86237	0.73
6.90223	0.701
6.94208	0.613
6.98194	0.703
7.02179	0.688
7.06165	0.668
7.1015	0.724
7.14136	0.752
7.18121	0.712
7.22107	0.668
7.26092	0.566
7.30078	0.492
7.34064	0.566
7.38049	0.654
7.42035	0.593
7.4602	0.642
7.50006	0.693
7.53991	0.637
7.57977	0.654
7.61962	0.641
7.65948	0.606
7.69934	0.618
7.73919	0.621
7.77905	0.654
7.8189	0.667
7.85876	0.676
7.89861	0.693
7.93847	0.683
7.97832	0.683
8.01818	0.675
8.05803	0.644
8.09789	0.618
8.13775	0.601
8.1776	0.606
8.21746	0.624
8.25731	0.649
8.29717	0.67
8.33702	0.693
8.37688	0.734
8.41673	0.753
8.45659	0.752
8.49644	0.734
8.5363	0.737
8.57616	0.758
8.61601	0.755
8.65587	0.722
8.69572	0.663
8.73558	0.579
8.77543	0.51
8.81529	0.468
8.85514	0.45
8.895	0.419
8.93486	0.357
8.97471	0.378
9.01457	0.476
9.05442	0.544
9.09428	0.588
9.13413	0.626
9.17399	0.681
9.21384	0.729
9.2537	0.765
9.29355	0.771
9.33341	0.761
9.37327	0.786
9.41312	0.809
9.45298	0.799
9.49283	0.778
9.53269	0.681
9.57254	0.543
9.6124	0.458
9.65225	0.51
9.69211	0.644
9.73196	0.668
9.77182	0.709
9.81168	0.742
9.85153	0.747
9.89139	0.704
9.93124	0.665
9.9711	0.644
10.011	0.634
10.0508	0.678
10.0907	0.603
10.1305	0.676
10.1704	0.76
10.2102	0.787
10.2501	0.796
10.2899	0.776
10.3298	0.765
10.3697	0.732
10.4095	0.693
10.4494	0.667
10.4892	0.673
10.5291	0.683
10.5689	0.676
10.6088	0.673
10.6486	0.698
10.6885	0.753
10.7284	0.781
10.7682	0.802
10.8081	0.81
10.8479	0.802
10.8878	0.771
10.9276	0.717
10.9675	0.686
11.0073	0.714
11.0472	0.756
11.0871	0.781
11.1269	0.8
11.1668	0.818
11.2066	0.82
11.2465	0.809
11.2863	0.8
11.3262	0.817
11.366	0.836
11.4059	0.841
11.4458	0.851
11.4856	0.854
11.5255	0.851
11.5653	0.848
11.6052	0.848
11.645	0.849
11.6849	0.851
11.7247	0.851
11.7646	0.853
11.8045	0.856
11.8443	0.856
11.8842	0.849
11.924	0.838
11.9639	0.843
12.0037	0.84
12.0436	0.83
12.0834	0.822
12.1233	0.823
12.1631	0.831
12.203	0.83
12.2429	0.836
12.2827	0.838
12.3226	0.836
12.3624	0.833
12.4023	0.822
12.4421	0.809
12.482	0.804
12.5218	0.807
12.5617	0.81
12.6016	0.827
12.6414	0.831
12.6813	0.841
12.7211	0.854
12.761	0.856
12.8008	0.854
12.8407	0.856
12.8805	0.859
12.9204	0.862
12.9603	0.866
13.0001	0.871
13.04	0.88
13.0798	0.887
13.1197	0.895
13.1595	0.905
13.1994	0.921
13.2392	0.933
13.2791	0.942
13.319	0.959
13.3588	0.964
13.3987	0.964
13.4385	0.969
13.4784	0.975
13.5182	0.991
13.5581	0.996
13.5979	1.004
13.6378	1.009
13.6777	1.011
13.7175	1.019
13.7574	1.022
13.7972	1.024
13.8371	1.026
13.8769	1.026
13.9168	1.022
13.9566	1.011
13.9965	1
14.0364	0.985
14.0762	0.964
14.1161	0.92
14.1559	0.867
14.1958	0.787
14.2356	0.68
14.2755	0.533
14.3153	0.37
14.3552	0.316
14.3951	0.353
14.4349	0.466
14.4748	0.575
14.5146	0.667
14.5545	0.716
14.5943	0.776
14.6342	0.796
14.674	0.81
14.7139	0.827
14.7538	0.84
14.7936	0.848
14.8335	0.856
14.8733	0.864
14.9132	0.869
14.953	0.871
14.9929	0.887
15.0327	0.893
15.0726	0.89
15.1125	0.836
15.1523	0.768
15.1922	0.729
15.232	0.724
15.2719	0.737
15.3117	0.758
15.3516	0.778
15.3914	0.794
15.4313	0.804
