Infrared Spectrum: Ethyl 4-iodobenzoate
Formula: C 9 H 9 I O 2
CAS: 51934-41-9
State: gas
Origin: EPA-IR VAPOR PHASE LIBRARY
1/CM	ABSORBANCE
549.8	0.00032834
559.445	0.00036458
569.09	0.0008555
578.734	0.0007495
588.379	0.0004937
598.024	0.0005447
607.669	0.000405
617.313	0.0005882
626.958	0.001666
636.603	0.0010112
646.248	0.0005169
655.893	0.0008242
665.537	0.001636
675.182	0.003986
684.827	0.005486
694.472	0.005526
704.116	0.003166
713.761	0.002076
723.406	0.002556
733.051	0.005156
742.695	0.017096
752.34	0.035926
761.985	0.031266
771.63	0.014186
781.275	0.009176
790.919	0.007546
800.564	0.005876
810.209	0.005546
819.854	0.005936
829.498	0.009306
839.143	0.017846
848.788	0.022196
858.433	0.011866
868.078	0.005456
877.722	0.004466
887.367	0.003666
897.012	0.003196
906.657	0.003196
916.301	0.002866
925.946	0.002816
935.591	0.002386
945.236	0.002086
954.88	0.002286
964.525	0.002756
974.17	0.002866
983.815	0.003896
993.46	0.009096
1003.1	0.053016
1012.75	0.114686
1022.39	0.025256
1032.04	0.010096
1041.68	0.007196
1051.33	0.010336
1060.97	0.015276
1070.62	0.021166
1080.26	0.039486
1089.91	0.087436
1099.55	0.235306
1109.2	0.191926
1118.84	0.092376
1128.49	0.032576
1138.13	0.018636
1147.78	0.015616
1157.42	0.016036
1167.07	0.022546
1176.71	0.058716
1186.36	0.025516
1196	0.013946
1205.64	0.014516
1215.29	0.023256
1224.93	0.042896
1234.58	0.040896
1244.22	0.061336
1253.87	0.136556
1263.51	0.262966
1273.16	0.316046
1282.8	0.160966
1292.45	0.058926
1302.09	0.039246
1311.74	0.032446
1321.38	0.017556
1331.03	0.010986
1340.67	0.009236
1350.32	0.010596
1359.96	0.014966
1369.61	0.029676
1379.25	0.020006
1388.9	0.031446
1398.54	0.030156
1408.18	0.014106
1417.83	0.008966
1427.47	0.008296
1437.12	0.009606
1446.76	0.011736
1456.41	0.014086
1466.05	0.019776
1475.7	0.027046
1485.34	0.020916
1494.99	0.007936
1504.63	0.004686
1514.28	0.003546
1523.92	0.003096
1533.57	0.003336
1543.21	0.003876
1552.86	0.005846
1562.5	0.010096
1572.15	0.018406
1581.79	0.052606
1591.44	0.065496
1601.08	0.014626
1610.73	0.005376
1620.37	0.003736
1630.01	0.003816
1639.66	0.004256
1649.3	0.004436
1658.95	0.004966
1668.59	0.006476
1678.24	0.007506
1687.88	0.008316
1697.53	0.010476
1707.17	0.014396
1716.82	0.025786
1726.46	0.067656
1736.11	0.171266
1745.75	0.208026
1755.4	0.075316
1765.04	0.019686
1774.69	0.008696
1784.33	0.008066
1793.98	0.008756
1803.62	0.006626
1813.27	0.004396
1822.91	0.002836
1832.55	0.002066
1842.2	0.001766
1851.84	0.001546
1861.49	0.001476
1871.13	0.001726
1880.78	0.001836
1890.42	0.001896
1900.07	0.002056
1909.71	0.002766
1919.36	0.003306
1929	0.003036
1938.65	0.002276
1948.29	0.002106
1957.94	0.002146
1967.58	0.002086
1977.23	0.001696
1986.87	0.001316
1996.52	0.0009001
2006.16	0.0009216
2015.81	0.0012077
2025.45	0.0010315
2035.1	0.0008625
2044.74	0.0009562
2054.38	0.0009907
2064.03	0.0009507
2073.67	0.0010188
2083.32	0.0010587
2092.96	0.0011416
2102.61	0.001346
2112.25	0.001646
2121.9	0.001416
2131.54	0.001177
2141.19	0.0008076
2150.83	0.0006933
2160.48	0.0004685
2170.12	0.000605
2179.77	0.0005825
2189.41	0.0006065
2199.06	0.0005351
2208.7	0.0004696
2218.35	0.0006248
2227.99	0.0005984
2237.64	0.0006565
2247.28	0.0006701
2256.92	0.00071
2266.57	0.0007932
2276.21	0.0010443
2285.86	0.0009427
2295.5	0.0007113
2305.15	0.0006154
2314.79	0.0005478
2324.44	0.0006338
2334.08	0.0006702
2343.73	0.0007901
2353.37	0.0008528
2363.02	0.0012221
2372.66	0.0010628
2382.31	0.0010685
2391.95	0.0008562
2401.6	0.0007976
2411.24	0.0007502
2420.89	0.0007214
2430.53	0.0004956
2440.18	0.0004872
2449.82	0.0004917
2459.47	0.0005516
2469.11	0.0005958
2478.75	0.0005579
2488.4	0.000603
2498.04	0.0007203
2507.69	0.0006853
2517.33	0.0009555
2526.98	0.001386
2536.62	0.001426
2546.27	0.0011321
2555.91	0.0009496
2565.56	0.0009866
2575.2	0.0008179
2584.85	0.001046
2594.49	0.0010466
2604.14	0.0007445
2613.78	0.0006079
2623.43	0.0004334
2633.07	0.0003772
2642.72	0.00037408
2652.36	0.00036087
2662.01	0.0004705
2671.65	0.0002131
2681.29	0.00029528
2690.94	0.0002636
2700.58	0.0002304
2710.23	0.0003936
2719.87	0.0004327
2729.52	0.0006418
2739.16	0.0007726
2748.81	0.0006929
2758.45	0.0009384
2768.1	0.0010094
2777.74	0.0010666
2787.39	0.0010224
2797.03	0.0011212
2806.68	0.0010392
2816.32	0.0012163
2825.97	0.001476
2835.61	0.001836
2845.26	0.002396
2854.9	0.002866
2864.55	0.003296
2874.19	0.004136
2883.84	0.006156
2893.48	0.006396
2903.12	0.006916
2912.77	0.008886
2922.41	0.009086
2932.06	0.010336
2941.7	0.016866
2951.35	0.016276
2960.99	0.014036
2970.64	0.018926
2980.28	0.031166
2989.93	0.036216
2999.57	0.020346
3009.22	0.013776
3018.86	0.008356
3028.51	0.005476
3038.15	0.003846
3047.8	0.003036
3057.44	0.002376
3067.09	0.002426
3076.73	0.003186
3086.38	0.004356
3096.02	0.003866
3105.67	0.002186
3115.31	0.001616
3124.95	0.001546
3134.6	0.0011374
3144.24	0.0008784
3153.89	0.0009359
3163.53	0.0009497
3173.18	0.0006953
3182.82	0.0008771
3192.47	0.0006589
3202.11	0.0006235
3211.76	0.0005739
3221.4	0.0004712
3231.05	0.0006062
3240.69	0.0002047
3250.34	0.00030608
3259.98	0.000172
3269.63	0.000172
3279.27	0.000169
3288.92	0.00029645
3298.56	0.0002574
3308.21	0.0004357
3317.85	0.000166
3327.49	0.0005827
3337.14	0.0005734
3346.78	0.0001966
3356.43	0.00030621
3366.07	0.00031122
3375.72	0.0004788
3385.36	0.0002236
3395.01	0.00031243
3404.65	0.0004882
3414.3	0.00031066
3423.94	0.0004584
3433.59	0.0005689
3443.23	0.000985
3452.88	0.001566
3462.52	0.002266
3472.17	0.001636
3481.81	0.0010306
3491.46	0.0007042
3501.1	0.0005389
3510.75	0.0004455
3520.39	0.0004358
3530.04	0.0003922
3539.68	0.00030213
3549.32	0.0004417
3558.97	0.0002281
3568.61	0.000168
3578.26	0.0003804
3587.9	0.0002629
3597.55	0.0002124
3607.19	0.0003793
3616.84	0
3626.48	0.000122
3636.13	0.0002173
3645.77	0.0002415
3655.42	0.00033091
3665.06	0.0002157
3674.71	0.0002604
3684.35	0.00029476
3694	0.0002467
3703.64	0.00035003
3713.29	0.0005838
3722.93	0.000414
3732.58	0.00036162
3742.22	0.0004741
3751.86	0.0005276
3761.51	0.000451
3771.15	0.0007034
3780.8	0.0006134
3790.44	0.0005277
3800.09	0.0004474
3809.73	0.00029699
3819.38	0.0007239
3829.02	0.00029804
3838.67	0.000607
3848.31	0.0006313
3857.96	0.000527
3867.6	0.0004865
3877.25	0.00032351
3886.89	0.00032206
3896.54	0.0002468
3906.18	0.0004358
3915.83	0.0004064
3925.47	0.0004311
3935.12	0.00037134
3944.76	0.0003821
3954.41	0.0005355
3964.05	0.0005068
3973.69	0.0003764
3983.34	0.0004635
3992.98	0.0004121
