Infrared Spectrum: trans,trans-2,4-Hexadiene
Formula: C 6 H 10
CAS: 5194-51-4
State: gas
Instrument: HP-GC/MS/IRD
Origin: NIST Mass Spectrometry Data Center
1/CM	ABSORBANCE
550	0.0005382
562	0.0002938
574	0.0001456
586	0
598	0.0002444
610	0.0001794
622	0.0001716
634	9.88e-05
646	0.0001482
658	0.000143
670	0.0002288
682	0.0003952
694	0.0003692
706	0.000624
718	0.000819
730	0.0011726
742	0.0012324
754	0.0010036
766	0.0008346
778	0.0006942
790	0.0005148
802	0.0004524
814	0.000611
826	0.0005902
838	0.0005148
850	0.0006786
862	0.0007878
874	0.0009724
886	0.0015314
898	0.0025116
910	0.0044616
922	0.0081744
934	0.010621
946	0.0111644
958	0.0133484
970	0.0162136
982	0.0175656
994	0.014989
1006	0.011219
1018	0.0071942
1030	0.0040456
1042	0.0021996
1054	0.0013676
1066	0.0010218
1078	0.0008242
1090	0.0007306
1102	0.0006838
1114	0.0006526
1126	0.0007306
1138	0.0007202
1150	0.0007124
1162	0.0007956
1174	0.0008892
1186	0.0009594
1198	0.0009308
1210	0.0009178
1222	0.0010322
1234	0.0012974
1246	0.001456
1258	0.0012922
1270	0.0012376
1282	0.0013494
1294	0.0014404
1306	0.0015678
1318	0.0016016
1330	0.0016718
1342	0.0018304
1354	0.00208
1366	0.0024232
1378	0.0026156
1390	0.0027794
1402	0.0029068
1414	0.0031954
1426	0.0036868
1438	0.0043212
1450	0.0045786
1462	0.0042042
1474	0.0033098
1486	0.0025766
1498	0.0019162
1510	0.001469
1522	0.0011518
1534	0.0009724
1546	0.000871
1558	0.0008476
1570	0.0008606
1582	0.0008996
1594	0.000923
1606	0.001092
1618	0.0014794
1630	0.001599
1642	0.0012662
1654	0.0011076
1666	0.001521
1678	0.0016458
1690	0.0012012
1702	0.000715
1714	0.0005954
1726	0.0005122
1738	0.000416
1750	0.0004862
1762	0.0006838
1774	0.00104
1786	0.0012662
1798	0.0013052
1810	0.0012948
1822	0.0009984
1834	0.0006812
1846	0.0006526
1858	0.0006994
1870	0.000572
1882	0.000351
1894	0.000221
1906	0.0001742
1918	0.0001638
1930	0.000195
1942	0.000195
1954	0.0002652
1966	0.0002678
1978	0.0002678
1990	0.0002496
2002	0.0002782
2014	0.0003406
2026	0.0002626
2038	0.000117
2050	9.36e-05
2062	7.54e-05
2074	5.2e-05
2086	3.64e-05
2098	3.64e-05
2110	5.2e-06
2122	3.38e-05
2134	2.86e-05
2146	1.56e-05
2158	3.12e-05
2170	3.9e-05
2182	5.98e-05
2194	6.24e-05
2206	3.12e-05
2218	7.02e-05
2230	7.8e-05
2242	3.12e-05
2254	4.16e-05
2266	2.34e-05
2278	3.38e-05
2290	5.2e-06
2302	3.64e-05
2314	7.28e-05
2326	7.02e-05
2338	5.98e-05
2350	9.36e-05
2362	0.0001742
2374	0.0002522
2386	0.0003692
2398	0.0003328
2410	0.0002496
2422	0.0002028
2434	0.000169
2446	0.0002054
2458	0.0002262
2470	0.00026
2482	0.0002418
2494	0.0001508
2506	8.32e-05
2518	0.0001586
2530	0.0001586
2542	0.000195
2554	0.0001404
2566	0.0001612
2578	0.0001378
2590	0.0001378
2602	0.0001456
2614	0.0001326
2626	0.0001742
2638	0.0001066
2650	0.0001456
2662	0.0001326
2674	0.0001976
2686	0.000247
2698	0.0002834
2710	0.0003848
2722	0.00065
2734	0.0012584
2746	0.0015782
2758	0.0011154
2770	0.000767
2782	0.0008034
2794	0.0010582
2806	0.0013676
2818	0.0018122
2830	0.0024882
2842	0.0036686
2854	0.0073866
2866	0.0137696
2878	0.0155714
2890	0.013325
2902	0.0139074
2914	0.0199212
2926	0.026
2938	0.022399
2950	0.015626
2962	0.0150878
2974	0.014807
2986	0.0148122
2998	0.016133
3010	0.018863
3022	0.0187642
3034	0.0159692
3046	0.0112736
3058	0.0078182
3070	0.0051896
3082	0.0035308
3094	0.0024986
3106	0.0019032
3118	0.0014144
3130	0.0010556
3142	0.0008424
3154	0.000702
3166	0.0006526
3178	0.0004654
3190	0.0003458
3202	0.000312
3214	0.0002366
3226	0.0002886
3238	0.0001924
3250	0.0002236
3262	0.000273
3274	0.0001716
3286	0.0002002
3298	0.0002132
3310	0.0001664
3322	0.000182
3334	8.84e-05
3346	0.0001742
3358	0.000104
3370	0.0001352
3382	0.0001274
3394	9.62e-05
3406	0.0001638
3418	0.0001014
3430	0.0001898
3442	0.0001196
3454	9.88e-05
3466	0.0001456
3478	0.0001118
3490	0.0001196
3502	0.0001326
3514	0.0001456
3526	7.54e-05
3538	0.0001352
3550	8.84e-05
3562	0.0001378
3574	0.000117
3586	0.0001378
3598	5.72e-05
3610	5.2e-05
3622	2.08e-05
3634	4.42e-05
3646	0.0001352
3658	0.000169
3670	0.0001352
3682	0.0001742
3694	0.0001222
3706	0.0001612
3718	6.76e-05
3730	0.0001274
3742	8.32e-05
3754	9.36e-05
3766	0.000104
3778	0.0001586
3790	0.0001794
3802	0.0002054
3814	0.000208
3826	0.0001456
3838	0.0001612
