Infrared Spectrum: cis,trans-2,4-Hexadiene
Formula: C 6 H 10
CAS: 5194-50-3
State: gas
Instrument: HP-GC/MS/IRD
Origin: NIST Mass Spectrometry Data Center
1/CM	ABSORBANCE
550	0.0004998
562	0.0001241
574	0.0004675
586	0.0007055
598	0.0009809
610	0.0006205
622	0.0003536
634	0.0003638
646	0.0004301
658	0.0010489
670	0.0020655
682	0.003553
694	0.0045951
706	0.0041922
718	0.0029614
730	0.0014467
742	0.0005729
754	0.0003502
766	0.0003383
778	0.0003876
790	0.0010914
802	0.0016881
814	0.0022916
826	0.0020179
838	0.0015402
850	0.0009877
862	0.0007497
874	0.0007157
886	0.0008143
898	0.0014909
910	0.0034799
922	0.0066827
934	0.0079458
946	0.0072063
958	0.0067252
970	0.0069581
982	0.0060435
994	0.0042194
1006	0.0024412
1018	0.0013481
1030	0.000986
1042	0.0008245
1054	0.0005899
1066	0.0005202
1078	0.0004522
1090	0.0002958
1102	0.0003213
1114	0.0003978
1126	0.0005933
1138	0.0004675
1150	0.0003672
1162	0.0003145
1174	0.0003213
1186	0.0003264
1198	0.0004777
1210	0.0006766
1222	0.0007871
1234	0.0006902
1246	0.0004573
1258	0.0004267
1270	0.0004641
1282	0.0006426
1294	0.0007854
1306	0.0007769
1318	0.0008041
1330	0.0008177
1342	0.0009945
1354	0.0015453
1366	0.0024378
1378	0.0028288
1390	0.0029835
1402	0.0033099
1414	0.003485
1426	0.0033575
1438	0.0036227
1450	0.0040052
1462	0.0034731
1474	0.0024208
1486	0.0017153
1498	0.0013736
1510	0.001258
1522	0.0011815
1534	0.0010727
1546	0.0009639
1558	0.0008398
1570	0.0007463
1582	0.0006851
1594	0.0006511
1606	0.0008109
1618	0.0010727
1630	0.0016915
1642	0.0021794
1654	0.0020791
1666	0.0014552
1678	0.0006426
1690	0.0004607
1702	0.0004165
1714	0.0004692
1726	0.0005134
1738	0.0004862
1750	0.0005202
1762	0.0005372
1774	0.0007293
1786	0.0009554
1798	0.0008279
1810	0.0004556
1822	0.0003162
1834	0.000408
1846	0.0005032
1858	0.000391
1870	0.0001819
1882	0.000136
1894	0.0001173
1906	0.0001428
1918	0.0001411
1930	0.0001037
1942	0.0001564
1954	0.0002329
1966	0.0002856
1978	0.0003332
1990	0.0003213
2002	0.0003366
2014	0.0002176
2026	0.0001479
2038	7.48e-05
2050	6.97e-05
2062	7.14e-05
2074	5.95e-05
2086	6.29e-05
2098	2.72e-05
2110	4.08e-05
2122	5.27e-05
2134	4.25e-05
2146	1.02e-05
2158	1.02e-05
2170	5.44e-05
2182	4.42e-05
2194	3.4e-05
2206	3.06e-05
2218	5.1e-05
2230	6.97e-05
2242	2.38e-05
2254	7.31e-05
2266	4.25e-05
2278	6.12e-05
2290	9.86e-05
2302	0.0001326
2314	6.97e-05
2326	0.0001292
2338	0.0001003
2350	9.35e-05
2362	0.0001377
2374	0.0001139
2386	0.0001224
2398	0.0001122
2410	0.0001241
2422	0.0001275
2434	0.0001292
2446	0.0001785
2458	0.0001785
2470	0.0001275
2482	0.0001377
2494	7.48e-05
2506	0.0001054
2518	0.0001003
2530	7.99e-05
2542	6.12e-05
2554	0.0001105
2566	5.44e-05
2578	6.8e-05
2590	5.44e-05
2602	3.23e-05
2614	4.42e-05
2626	1.53e-05
2638	8.84e-05
2650	0.0001122
2662	6.8e-05
2674	4.42e-05
2686	0.0001037
2698	0.0001479
2710	0.0002278
2722	0.0004182
2734	0.0006919
2746	0.0007497
2758	0.0005491
2770	0.0005593
2782	0.000595
2794	0.0007327
2806	0.0009146
2818	0.0011917
2830	0.0016762
2842	0.0028135
2854	0.0052513
2866	0.0080682
2878	0.008959
2890	0.0087295
2902	0.0094537
2914	0.0128962
2926	0.0159936
2938	0.0148393
2950	0.0102255
2962	0.0087023
2974	0.0079781
2986	0.00816
2998	0.0098974
3010	0.0138992
3022	0.0169167
3034	0.0169507
3046	0.0121414
3058	0.0070584
3070	0.0038828
3082	0.0023749
3094	0.0016082
3106	0.0012546
3118	0.0009809
3130	0.0008823
3142	0.0006579
3154	0.0004471
3166	0.0002992
3178	0.0002652
3190	0.0002159
3202	0.0002295
3214	0.0001496
3226	0.0001972
3238	0.0001326
3250	0.0001003
3262	0.0001445
3274	0.0001581
3286	2.89e-05
3298	9.86e-05
3310	5.27e-05
3322	9.35e-05
3334	5.95e-05
3346	0.0001037
3358	9.01e-05
3370	8.16e-05
3382	6.8e-05
3394	8.84e-05
3406	0.0001105
3418	0.0001513
3430	0.0001428
3442	6.12e-05
3454	0.0001717
3466	0.0001853
3478	0.0001853
3490	0.0001343
3502	0.0001139
3514	0.0001513
3526	0.0001258
3538	9.18e-05
3550	9.86e-05
3562	0.0001343
3574	0.0002006
3586	0.0001649
3598	0.0001819
3610	0.0001564
3622	0.0001904
3634	0.0001734
3646	0.0001853
3658	0.0002006
3670	0.0001445
3682	0.0001513
3694	0.0001462
3706	0.0002193
3718	0.0002431
3730	0.0002108
3742	0.0001768
3754	0.0001683
3766	0.0002601
3778	0.0001734
3790	0.0002193
3802	0.000221
3814	0.0002652
3826	0.0003111
3838	0.0002669
