Infrared Spectrum: 4-Pyrrolidinobenzaldehyde
Formula: C 11 H 13 N O
CAS: 51980-54-2
State: gas
Origin: EPA-IR VAPOR PHASE LIBRARY
1/CM	ABSORBANCE
549.8	0.0021352
559.445	0.0016548
569.09	0.0015814
578.735	0.0011291
588.38	0.00126837
598.025	0.0016851
607.67	0.0018937
617.315	0.00297
626.96	0.00522
636.605	0.0035
646.251	0.00353
655.896	0.0068
665.541	0.01431
675.186	0.0068
684.831	0.00314
694.476	0.00281
704.121	0.00238
713.766	0.00238
723.411	0.0017815
733.056	0.0019266
742.701	0.00232
752.346	0.00408
761.991	0.00583
771.636	0.00465
781.281	0.00507
790.926	0.0097
800.571	0.02096
810.216	0.0347
819.861	0.03347
829.507	0.02233
839.152	0.01758
848.797	0.01222
858.442	0.00627
868.087	0.00419
877.732	0.00312
887.377	0.00244
897.022	0.00229
906.667	0.0033
916.312	0.00445
925.957	0.00289
935.602	0.00286
945.247	0.00473
954.892	0.01315
964.537	0.01129
974.182	0.00433
983.827	0.00344
993.472	0.00489
1003.12	0.00763
1012.76	0.0046
1022.41	0.00388
1032.05	0.00369
1041.7	0.00363
1051.34	0.00345
1060.99	0.00392
1070.63	0.00448
1080.28	0.00449
1089.92	0.00457
1099.57	0.00542
1109.21	0.00757
1118.86	0.01102
1128.5	0.01214
1138.15	0.01528
1147.79	0.02354
1157.44	0.05387
1167.08	0.17662
1176.73	0.09014
1186.37	0.02003
1196.02	0.01343
1205.66	0.01774
1215.31	0.03749
1224.95	0.05434
1234.6	0.02553
1244.24	0.01463
1253.89	0.01389
1263.53	0.01357
1273.18	0.01517
1282.82	0.02235
1292.47	0.02395
1302.11	0.02326
1311.76	0.0394
1321.4	0.03542
1331.05	0.02789
1340.69	0.03507
1350.34	0.05467
1359.98	0.09671
1369.63	0.15642
1379.27	0.13194
1388.92	0.05238
1398.56	0.02179
1408.21	0.01333
1417.85	0.01389
1427.5	0.01908
1437.14	0.01792
1446.79	0.01106
1456.43	0.01456
1466.08	0.02417
1475.73	0.0178
1485.37	0.03014
1495.02	0.04096
1504.66	0.03031
1514.31	0.06304
1523.95	0.07295
1533.6	0.03323
1543.24	0.01663
1552.89	0.02975
1562.53	0.05176
1572.18	0.03475
1581.82	0.04772
1591.47	0.12719
1601.11	0.26773
1610.76	0.19813
1620.4	0.05809
1630.05	0.03204
1639.69	0.01622
1649.34	0.01314
1658.98	0.01487
1668.63	0.01836
1678.27	0.02164
1687.92	0.03051
1697.56	0.06936
1707.21	0.17965
1716.85	0.11775
1726.5	0.02684
1736.14	0.01308
1745.79	0.00809
1755.43	0.00546
1765.08	0.00381
1774.72	0.00287
1784.37	0.00265
1794.01	0.00266
1803.66	0.00239
1813.3	0.00235
1822.95	0.00252
1832.59	0.00271
1842.24	0.00284
1851.88	0.00268
1861.53	0.00259
1871.17	0.00267
1880.82	0.00286
1890.46	0.00282
1900.11	0.00258
1909.75	0.00275
1919.4	0.00267
1929.04	0.0020421
1938.69	0.0017608
1948.33	0.001637
1957.98	0.0016533
1967.62	0.0016822
1977.27	0.0018255
1986.91	0.001997
1996.56	0.00234
2006.2	0.0028
2015.85	0.00246
2025.49	0.00224
2035.14	0.0020387
2044.78	0.0017347
2054.43	0.0016501
2064.07	0.0015725
2073.72	0.001399
2083.36	0.0013261
2093.01	0.00127012
2102.65	0.00128812
2112.3	0.0014717
2121.94	0.0015755
2131.59	0.0016327
2141.23	0.0015525
2150.88	0.00129585
2160.52	0.00122573
2170.17	0.0011742
2179.81	0.0011833
2189.46	0.0011905
2199.1	0.001108
2208.75	0.00122364
2218.39	0.0014588
2228.04	0.00129833
2237.68	0.0011657
2247.33	0.001041
2256.97	0.0011648
2266.62	0.00124437
2276.26	0.0014819
2285.91	0.0015736
2295.55	0.0014861
2305.2	0.0013786
2314.84	0.0013456
2324.49	0.001517
2334.13	0.0019579
2343.78	0.0018013
2353.42	0.0013983
2363.07	0.0013574
2372.72	0.0014409
2382.36	0.0015442
2392.01	0.0015576
2401.65	0.0014443
2411.3	0.00133
2420.94	0.0014122
2430.59	0.0015224
2440.23	0.0016313
2449.88	0.0016972
2459.52	0.0015265
2469.17	0.0013997
2478.81	0.0014094
2488.46	0.0013637
2498.1	0.0015452
2507.75	0.0017255
2517.39	0.0020832
2527.04	0.0021949
2536.68	0.00231
2546.33	0.00231
2555.97	0.00273
2565.62	0.00327
2575.26	0.00367
2584.91	0.00376
2594.55	0.00349
2604.2	0.00318
2613.84	0.00321
2623.49	0.00354
2633.13	0.00407
2642.78	0.00398
2652.42	0.00367
2662.07	0.0041
2671.71	0.00541
2681.36	0.00844
2691	0.01497
2700.65	0.01845
2710.29	0.02175
2719.94	0.0354
2729.58	0.03016
2739.23	0.01672
2748.87	0.01055
2758.52	0.00748
2768.16	0.00719
2777.81	0.00907
2787.45	0.01556
2797.1	0.02626
2806.74	0.02509
2816.39	0.0193
2826.03	0.01807
2835.68	0.02101
2845.32	0.03078
2854.97	0.03915
2864.61	0.03323
2874.26	0.02439
2883.9	0.02408
2893.55	0.02229
2903.19	0.02122
2912.84	0.02273
2922.48	0.02098
2932.13	0.01936
2941.77	0.02127
2951.42	0.02346
2961.06	0.029
2970.71	0.0446
2980.35	0.05085
2990	0.02646
2999.64	0.01142
3009.29	0.00799
3018.93	0.00801
3028.58	0.00791
3038.22	0.00825
3047.87	0.00679
3057.51	0.00473
3067.16	0.00474
3076.8	0.00779
3086.45	0.00809
3096.09	0.00692
3105.74	0.00499
3115.38	0.00315
3125.03	0.00253
3134.67	0.0014706
3144.32	0.000826
3153.96	0.000452
3163.61	0.000583
3173.25	0.000491
3182.9	0.000654
3192.54	0.000767
3202.19	0.001014
3211.83	0.000728
3221.48	0.000429
3231.12	0.000296
3240.77	0.000375
3250.41	0.000285
3260.06	0.000243
3269.7	0.00019
3279.35	0.000292
3289	0.000323
3298.64	0.00019
3308.29	0.000352
3317.93	0.000437
3327.58	0.000309
3337.22	0.00022
3346.87	0.00014
3356.51	0.000566
3366.16	0.000762
3375.8	0.000971
3385.45	0.0017415
3395.09	0.0020612
3404.74	0.0017821
3414.38	0.001098
3424.03	0.000553
3433.67	0.000401
3443.32	0.0002
3452.96	0.00022
3462.61	3e-05
3472.25	0.000339
3481.9	0.000279
3491.54	0.000261
3501.19	0.000274
3510.83	0.0004
3520.48	0.000388
3530.12	0.000335
3539.77	0.000454
3549.41	0.000554
3559.06	0.000449
3568.7	0.000491
3578.35	0.000402
3587.99	0.000311
3597.64	0.000603
3607.28	0.000439
3616.93	0.000244
3626.57	0.000279
3636.22	0.00038
3645.86	0.000494
3655.51	0.000598
3665.15	0.000476
3674.8	0.000593
3684.44	0.00055
3694.09	0.000379
3703.73	0.000397
3713.38	0.000463
3723.02	0.000673
3732.67	0.000484
3742.31	0.00063
3751.96	0.000464
3761.6	0.000503
3771.25	0.000556
3780.89	0.000391
3790.54	0.000706
3800.18	0.000635
3809.83	0.000482
3819.47	0.000751
3829.12	0.000654
3838.76	0.000617
3848.41	0.000729
3858.05	0.000622
3867.7	0.000612
3877.34	0.000321
3886.99	0.000611
3896.63	0.000618
3906.28	0.000505
3915.92	0.000498
3925.57	0.000375
3935.21	0.000389
3944.86	0.000636
3954.5	0.000471
3964.15	0.000388
3973.79	0.000644
3983.44	0.000635
3993.08	0.000429
