Infrared Spectrum: 1,4-PREGNADIENE-3,20-DIONE, 11Beta,17Alpha,21-TRIHYDROXY-, ACETATE
Formula: C23 H30 O6
CAS: 52-21-1
State: SOLID (1.02 mg / 200 mg KBr DISC)
Melting point: 237-239 C DECOMP.
Class: COBLENTZ III
Instrument: PERKIN-ELMER 21 (GRATING)
Instrument parameters: FILTER AT ABOUT 10 MICRONS
Sampling: TRANSMISSION
Path length: 0.055 CM (THICKNESS)
Resolution: 2
1/CM	TRANSMITTANCE
4000	0.8496
3991	0.8497
3982	0.8497
3973	0.8498
3964	0.8499
3955	0.8497
3946	0.8494
3937	0.8491
3928	0.8489
3919	0.8489
3910	0.8492
3901	0.8495
3892	0.8497
3883	0.8503
3874	0.851
3865	0.8518
3856	0.8523
3847	0.8525
3838	0.8528
3829	0.8527
3820	0.8521
3811	0.8518
3802	0.8515
3793	0.8513
3784	0.8511
3775	0.8509
3766	0.8512
3757	0.8515
3748	0.8518
3739	0.8525
3730	0.8536
3721	0.8542
3712	0.8546
3703	0.8548
3694	0.8548
3685	0.8546
3676	0.8536
3667	0.8523
3658	0.851
3649	0.8482
3640	0.8447
3631	0.8402
3622	0.8354
3613	0.8301
3604	0.8233
3595	0.8161
3586	0.8082
3577	0.8004
3568	0.7888
3559	0.7765
3550	0.7634
3541	0.7501
3532	0.7372
3523	0.7211
3514	0.7024
3505	0.6798
3496	0.6556
3487	0.6322
3478	0.6117
3469	0.5934
3460	0.5791
3451	0.559
3442	0.5257
3433	0.4922
3424	0.4585
3415	0.4246
3406	0.3905
3397	0.3562
3388	0.3332
3379	0.3328
3370	0.3477
3361	0.378
3352	0.388
3343	0.3975
3334	0.4092
3325	0.4072
3316	0.4056
3307	0.4
3298	0.396
3289	0.3942
3280	0.3958
3271	0.4082
3262	0.4407
3253	0.474
3244	0.5076
3235	0.5414
3226	0.5753
3217	0.6095
3208	0.6454
3199	0.6699
3190	0.6842
3181	0.6985
3172	0.7126
3163	0.725
3154	0.738
3145	0.7515
3136	0.7637
3127	0.7725
3118	0.7806
3109	0.7875
3100	0.7932
3091	0.7983
3082	0.8018
3073	0.8037
3064	0.8044
3055	0.8041
3046	0.8032
3037	0.8018
3028	0.7993
3019	0.7932
3010	0.7854
3001	0.7683
2992	0.7483
2983	0.6904
2974	0.6806
2965	0.6635
2956	0.6238
2947	0.5733
2938	0.5424
2929	0.5449
2920	0.5572
2911	0.574
2902	0.5827
2893	0.6196
2884	0.6356
2875	0.6476
2866	0.6649
2857	0.689
2848	0.7185
2839	0.7388
2830	0.76
2821	0.7776
2812	0.7893
2803	0.7999
2794	0.8072
2785	0.8096
2776	0.8097
2767	0.8095
2758	0.8094
2749	0.8094
2740	0.8095
2731	0.8104
2722	0.8126
2713	0.8168
2704	0.8209
2695	0.8246
2686	0.8284
2677	0.8321
2668	0.836
2659	0.8395
2650	0.8425
2641	0.845
2632	0.847
2623	0.8481
2614	0.8492
2605	0.8495
2596	0.8499
2587	0.8498
2578	0.8491
2569	0.8495
2560	0.8515
2551	0.8552
2542	0.8589
2533	0.8607
2524	0.86
2515	0.8589
2506	0.8593
2497	0.8598
2488	0.8609
2479	0.8621
2470	0.8637
2461	0.8653
2452	0.8663
2443	0.8673
2434	0.8684
2425	0.8691
2416	0.8699
2407	0.8706
2398	0.871
2389	0.8714
2380	0.8714
2371	0.8712
2362	0.8707
2353	0.8698
2344	0.8691
2335	0.8689
2326	0.8691
2317	0.8704
2308	0.873
2299	0.876
2290	0.8787
2281	0.8801
2272	0.8809
2263	0.8809
2254	0.8809
2245	0.8808
2236	0.8806
2227	0.8805
2218	0.8813
2209	0.8821
2200	0.8831
2191	0.884
2182	0.8847
2173	0.885
2164	0.8852
2155	0.8853
2146	0.885
2137	0.8846
2128	0.8841
2119	0.8836
2110	0.8836
2101	0.8837
2092	0.8837
2083	0.8828
2074	0.8818
2065	0.8821
2056	0.8825
2047	0.8833
2038	0.884
2029	0.8849
2020	0.8846
2011	0.8841
2002	0.8836
1993	0.8835
1984	0.8836
1975	0.8837
1966	0.8837
1957	0.8837
1948	0.8837
1939	0.8837
1930	0.8837
1921	0.8833
1912	0.8825
1903	0.8816
1894	0.8808
1885	0.8798
1876	0.8789
1867	0.8762
1858	0.8733
1849	0.8702
1840	0.8662
1831	0.8612
1822	0.8543
1813	0.8474
1804	0.8387
1795	0.8348
1786	0.8286
1777	0.8132
1768	0.766
1759	0.4494
1750	0.3101
1741	0.5206
1732	0.3637
1723	0.3909
1714	0.6582
1705	0.7339
1696	0.761
1687	0.7468
1678	0.6725
1669	0.4129
1660	0.1818
1651	0.2599
1642	0.4774
1633	0.6329
1624	0.6377
1615	0.4803
1606	0.3362
1597	0.1698
1588	0.322
1579	0.5606
1570	0.7018
1561	0.7261
1552	0.78
1543	0.7917
1534	0.8046
1525	0.8146
1516	0.8194
1507	0.8206
1498	0.8178
1489	0.7904
1480	0.7596
1471	0.7557
1462	0.6958
1453	0.6378
1444	0.581
1435	0.5832
1426	0.5748
1417	0.5223
1408	0.4791
1399	0.6269
1390	0.5905
1381	0.5282
1372	0.4686
1363	0.6199
1354	0.5999
1345	0.7208
1336	0.7287
1327	0.6628
1318	0.6407
1309	0.6049
1300	0.6758
1291	0.6958
1282	0.6445
1273	0.4833
1264	0.3968
1255	0.5641
1246	0.4894
1237	0.4039
1228	0.2013
1219	0.5547
1210	0.6632
1201	0.6888
1192	0.557
1183	0.6635
1174	0.6533
1165	0.627
1156	0.6508
1147	0.7182
1138	0.6951
1129	0.4881
1120	0.6567
1111	0.4688
1102	0.6277
1093	0.693
1084	0.5847
1075	0.7045
1066	0.6886
1057	0.5703
1048	0.4785
1039	0.5495
1030	0.6675
1021	0.7111
1012	0.7278
1003	0.7628
994	0.716
985	0.7743
976	0.7819
967	0.7858
958	0.753
949	0.7392
940	0.6617
931	0.7333
922	0.6804
913	0.7736
904	0.5582
895	0.4723
886	0.7157
877	0.7625
868	0.794
859	0.8068
850	0.8087
841	0.7615
832	0.7121
823	0.6341
814	0.8248
805	0.8214
796	0.8197
787	0.6743
778	0.7861
769	0.8158
760	0.8235
751	0.7775
742	0.8025
733	0.7996
724	0.7848
715	0.746
706	0.7251
697	0.7532
688	0.7498
679	0.7437
670	0.7558
661	0.7648
