Infrared Spectrum: Trichlorfon
Formula: C 4 H 8 Cl 3 O 4 P
CAS: 52-68-6
State: gas
Instrument: HP-GC/MS/IRD
Origin: NIST Mass Spectrometry Data Center
1/CM	ABSORBANCE
550	0.0009472
562	0.0003712
574	0.000112
586	3.2e-05
598	7.36e-05
610	7.68e-05
622	9.28e-05
634	0.0002464
646	0.0001888
658	0.0003968
670	0.0003552
682	0.000192
694	0.0002016
706	0.0001984
718	0.0001792
730	0.0002368
742	0.0006208
754	0.00144
766	0.0021152
778	0.0019872
790	0.0015776
802	0.0019872
814	0.0027168
826	0.0043072
838	0.0083616
850	0.0157696
862	0.0120416
874	0.0036032
886	0.0015264
898	0.0009856
910	0.0007712
922	0.0007744
934	0.0009408
946	0.0016672
958	0.0040448
970	0.009664
982	0.0108128
994	0.0043872
1006	0.0026048
1018	0.0036096
1030	0.0075008
1042	0.0170272
1054	0.0289056
1066	0.0312064
1078	0.02088
1090	0.0099712
1102	0.0067648
1114	0.0060704
1126	0.0060928
1138	0.0080448
1150	0.015568
1162	0.0172704
1174	0.0064
1186	0.0036064
1198	0.0027872
1210	0.0022304
1222	0.002064
1234	0.0019232
1246	0.001776
1258	0.0016832
1270	0.0021376
1282	0.0045472
1294	0.0068672
1306	0.0065152
1318	0.0078848
1330	0.0066784
1342	0.0029312
1354	0.0012928
1366	0.0008352
1378	0.0007008
1390	0.0005824
1402	0.0005408
1414	0.0004544
1426	0.0004192
1438	0.000512
1450	0.0008448
1462	0.00096
1474	0.0006976
1486	0.000512
1498	0.0004
1510	0.0003328
1522	0.0003072
1534	0.0003264
1546	0.0003424
1558	0.0002496
1570	0.0003264
1582	0.0003872
1594	0.000464
1606	0.0006048
1618	0.0008416
1630	0.0015104
1642	0.002128
1654	0.0015424
1666	0.0006752
1678	0.000256
1690	0.0002112
1702	0.000112
1714	0.000144
1726	0.000112
1738	8e-05
1750	0.0001504
1762	0.0002144
1774	0.0001024
1786	0.000112
1798	0.0001632
1810	0.0002496
1822	0.0003008
1834	0.0002816
1846	0.0002048
1858	0.0001792
1870	0.00016
1882	0.0001824
1894	0.0002368
1906	0.000272
1918	0.0002976
1930	0.0002528
1942	0.0001664
1954	0.0001312
1966	0.000112
1978	0.0001088
1990	0.0001216
2002	0.0001344
2014	0.0001856
2026	0.000128
2038	0.0001152
2050	7.36e-05
2062	0.0001184
2074	0.0001024
2086	9.92e-05
2098	6.4e-05
2110	6.4e-05
2122	8e-05
2134	4.48e-05
2146	3.2e-05
2158	5.76e-05
2170	8.32e-05
2182	8.32e-05
2194	9.92e-05
2206	0.0001088
2218	0.000112
2230	0.0001088
2242	7.68e-05
2254	7.36e-05
2266	8.64e-05
2278	0.000112
2290	0.000144
2302	0.0001728
2314	0.0001248
2326	7.04e-05
2338	3.2e-05
2350	7.68e-05
2362	2.88e-05
2374	9.6e-05
2386	6.72e-05
2398	8.64e-05
2410	3.84e-05
2422	0.0001088
2434	8.32e-05
2446	0.0001504
2458	9.92e-05
2470	6.72e-05
2482	8.32e-05
2494	6.4e-05
2506	5.76e-05
2518	5.76e-05
2530	6.08e-05
2542	9.6e-05
2554	8.96e-05
2566	8.96e-05
2578	0.0001312
2590	0.0001216
2602	0.0001184
2614	0.0001088
2626	8.32e-05
2638	0.0001088
2650	7.04e-05
2662	8e-05
2674	0.0001312
2686	0.0001184
2698	0.0001248
2710	0.0001152
2722	7.68e-05
2734	9.28e-05
2746	0.0001312
2758	0.000112
2770	0.0001536
2782	0.0001376
2794	0.0002272
2806	0.0002432
2818	0.0002816
2830	0.0002976
2842	0.0004864
2854	0.000848
2866	0.0014432
2878	0.00096
2890	0.0006208
2902	0.0005632
2914	0.0006688
2926	0.0008064
2938	0.0008672
2950	0.0013856
2962	0.0031616
2974	0.0030368
2986	0.0014592
2998	0.0012096
3010	0.001168
3022	0.0011136
3034	0.0009632
3046	0.000752
3058	0.0007136
3070	0.001024
3082	0.0018016
3094	0.000912
3106	0.0004832
3118	0.0004224
3130	0.0002592
3142	0.0003072
3154	0.000192
3166	0.0001632
3178	0.0001152
3190	8.96e-05
3202	0.0001472
3214	9.92e-05
3226	0.0001408
3238	0.0001088
3250	0.0001696
3262	0.0001216
3274	0.0001952
3286	8e-05
3298	0.0001536
3310	7.04e-05
3322	0.0001632
3334	9.28e-05
3346	0.000128
3358	7.36e-05
3370	3.84e-05
3382	0.0001696
3394	0.0001664
3406	0.0001824
3418	0.0001024
3430	8.96e-05
3442	0.0001152
3454	5.76e-05
3466	0.0001024
3478	0.0001152
3490	0.0002112
3502	0.0001152
3514	0.0001152
3526	0.000144
3538	9.6e-05
3550	0.0001568
3562	0.0001792
3574	6.08e-05
3586	0
3598	0.0001664
3610	7.68e-05
3622	0.0001472
3634	0.0001536
3646	0.0001088
3658	0.0001152
3670	4.16e-05
3682	0.0001024
3694	0.0001472
3706	8e-05
3718	0.0001632
3730	6.72e-05
3742	5.12e-05
3754	9.28e-05
3766	0.0001024
3778	0.0001728
3790	0.0001056
3802	3.2e-05
3814	0.0001152
3826	0.0002144
3838	2.24e-05
