Infrared Spectrum: Famphur
Formula: C 10 H 16 N O 5 P S 2
CAS: 52-85-7
State: gas
Instrument: HP-GC/MS/IRD
Origin: NIST Mass Spectrometry Data Center
1/CM	ABSORBANCE
550	0.0008151
562	0.0013057
574	0.0014894
586	0.0005258
598	0.0010725
610	0.0009372
622	0.0001155
634	0.0002145
646	0.0011803
658	0.0014872
670	0.0006138
682	0.000781
694	0.0028875
706	0.0045309
718	0.0026367
730	0.0026092
742	0.0004543
754	4.84e-05
766	3.3e-05
778	0.0003707
790	0.0005973
802	0.0009658
814	0.0020317
826	0.0034617
838	0.0048048
850	0.0059829
862	0.0026389
874	0.0009955
886	0.0009064
898	0.0013948
910	0.003223
922	0.007744
934	0.0088187
946	0.0054318
958	0.0042548
970	0.0022539
982	0.0011242
994	0.0006963
1006	0.0008624
1018	0.001969
1030	0.0031669
1042	0.0069905
1054	0.0097273
1066	0.0087747
1078	0.0065296
1090	0.0042405
1102	0.0025575
1114	0.0018062
1126	0.0013849
1138	0.0014091
1150	0.0023793
1162	0.0092598
1174	0.0073403
1186	0.0031823
1198	0.0026191
1210	0.0045529
1222	0.0060445
1234	0.003718
1246	0.0016632
1258	0.0011638
1270	0.0010901
1282	0.0009152
1294	0.0007953
1306	0.0005313
1318	0.0003619
1330	0.0005401
1342	0.0011968
1354	0.0028743
1366	0.0041206
1378	0.002299
1390	0.0008184
1402	0.0007205
1414	0.0005797
1426	0.0003828
1438	0.000473
1450	0.0008052
1462	0.0010417
1474	0.0015125
1486	0.002948
1498	0.0028787
1510	0.0007161
1522	0.0003674
1534	0.0003014
1546	0.0002937
1558	0.0004004
1570	0.0006479
1582	0.0016082
1594	0.002321
1606	0.000704
1618	0.0003113
1630	0.0002079
1642	0.0001518
1654	0.0001287
1666	0.0001265
1678	7.48e-05
1690	3.96e-05
1702	5.17e-05
1714	5.17e-05
1726	4.62e-05
1738	4.95e-05
1750	1.87e-05
1762	7.37e-05
1774	0.0001177
1786	7.04e-05
1798	6.05e-05
1810	4.29e-05
1822	0.0001078
1834	7.04e-05
1846	0.0001023
1858	0.0001155
1870	0.0001661
1882	0.000165
1894	0.0002101
1906	0.0001925
1918	0.0001452
1930	8.47e-05
1942	7.59e-05
1954	9.02e-05
1966	5.28e-05
1978	6.27e-05
1990	6.16e-05
2002	6.82e-05
2014	3.96e-05
2026	3.74e-05
2038	4.84e-05
2050	7.04e-05
2062	4.18e-05
2074	2.31e-05
2086	5.72e-05
2098	2.2e-05
2110	3.41e-05
2122	4.07e-05
2134	3.3e-05
2146	5.28e-05
2158	3.52e-05
2170	4.29e-05
2182	2.2e-06
2194	4.07e-05
2206	3.96e-05
2218	2.2e-05
2230	1.98e-05
2242	5.39e-05
2254	6.16e-05
2266	5.72e-05
2278	6.71e-05
2290	4.73e-05
2302	1.76e-05
2314	1.65e-05
2326	3.41e-05
2338	2.53e-05
2350	3.08e-05
2362	3.3e-05
2374	1.76e-05
2386	6.38e-05
2398	7.48e-05
2410	8.25e-05
2422	6.05e-05
2434	6.6e-05
2446	6.6e-05
2458	6.16e-05
2470	2.75e-05
2482	4.95e-05
2494	8.25e-05
2506	9.68e-05
2518	8.14e-05
2530	0.0001056
2542	7.37e-05
2554	7.26e-05
2566	0.0001122
2578	6.27e-05
2590	7.15e-05
2602	7.04e-05
2614	6.82e-05
2626	7.15e-05
2638	4.4e-05
2650	2.53e-05
2662	4.73e-05
2674	9.13e-05
2686	5.94e-05
2698	5.61e-05
2710	6.05e-05
2722	4.84e-05
2734	6.05e-05
2746	7.92e-05
2758	5.06e-05
2770	7.04e-05
2782	0.0001441
2794	0.0001683
2806	0.0003003
2818	0.000451
2830	0.0004466
2842	0.0004807
2854	0.0008976
2866	0.0009251
2878	0.000715
2890	0.0007887
2902	0.0008591
2914	0.0010329
2926	0.0010934
2938	0.0012969
2950	0.0019591
2962	0.0027896
2974	0.001364
2986	0.0007755
2998	0.0006677
3010	0.0006545
3022	0.0005742
3034	0.0004895
3046	0.0003795
3058	0.0003608
3070	0.0003421
3082	0.0004268
3094	0.0003454
3106	0.000231
3118	0.0002145
3130	0.0001892
3142	0.0001111
3154	0.0001331
3166	0.0001078
3178	6.27e-05
3190	0.0001122
3202	5.72e-05
3214	9.35e-05
3226	9.79e-05
3238	6.71e-05
3250	8.03e-05
3262	0.0001309
3274	4.51e-05
3286	0.0001111
3298	7.04e-05
3310	6.27e-05
3322	6.49e-05
3334	0.0001463
3346	9.02e-05
3358	3.3e-05
3370	6.16e-05
3382	6.6e-05
3394	8.8e-05
3406	7.92e-05
3418	7.7e-06
3430	0.0001166
3442	0.0001254
3454	0.0001078
3466	0.0001166
3478	3.3e-06
3490	8.8e-05
3502	9.24e-05
3514	0.0001507
3526	0.0001573
3538	0.0001397
3550	7.92e-05
3562	5.5e-05
3574	6.16e-05
3586	0
3598	7.92e-05
3610	5.17e-05
3622	9.02e-05
3634	0.0001254
3646	5.28e-05
3658	3.85e-05
3670	0.0001738
3682	0.0001397
3694	0.0001331
3706	0.00011
3718	4.73e-05
3730	8.25e-05
3742	0.0001298
3754	6.38e-05
3766	0.0001144
3778	7.15e-05
3790	0.0001375
3802	0.0001155
3814	0.0001639
3826	9.46e-05
3838	0.0001364
