Infrared Spectrum: 2Alpha,11Beta,17Alpha,21-TETRAHYDROXYPREGN-4-ENE-3,20-DIONE
Formula: C21 H30 O6
CAS: 520-84-3
State: SOLID (KBr DISC)
Class: COBLENTZ III
Instrument: BECKMAN IR-7
Sampling: TRANSMISSION
Resolution: 4
Origin: THE WORCESTER FOUNDATION FOR EXPERIMENTAL BIOLOGY, Neal L. McNiven
1/CM	TRANSMITTANCE
602.182	0.391
610.909	0.409
619.637	0.459
628.364	0.517
637.091	0.548
645.818	0.542
654.546	0.671
663.273	0.715
672	0.74
680.727	0.751
689.455	0.742
698.182	0.562
706.909	0.752
715.636	0.5701
724.364	0.6869
733.091	0.792
741.818	0.796
750.546	0.727
759.273	0.767
768	0.727
776.727	0.691
785.455	0.736
794.182	0.774
802.909	0.8
811.636	0.804
820.364	0.818
829.091	0.806
837.818	0.776
846.545	0.797
855.273	0.714
864	0.304
872.727	0.686
881.455	0.6251
890.182	0.582
898.909	0.2501
907.636	0.551
916.364	0.469
925.091	0.617
933.818	0.732
942.545	0.661
951.273	0.664
960	0.645
968.727	0.624
977.455	0.643
986.182	0.5919
994.909	0.645
1003.64	0.501
1012.36	0.564
1021.09	0.371
1029.82	0.262
1038.55	0.379
1047.27	0.312
1056	0.217
1064.73	0.428
1073.45	0.291
1082.18	0.125
1090.91	0.202
1099.64	0.164
1108.36	0.241
1117.09	0.2
1125.82	0.207
1134.55	0.334
1143.27	0.583
1152	0.509
1160.73	0.485
1169.45	0.62
1178.18	0.595
1186.91	0.451
1195.64	0.561
1204.36	0.479
1213.09	0.424
1221.82	0.198
1230.55	0.267
1239.27	0.28
1248	0.3609
1256.73	0.545
1265.45	0.501
1274.18	0.569
1282.91	0.583
1291.64	0.598
1300.36	0.582
1309.09	0.569
1317.82	0.331
1326.55	0.33
1335.27	0.539
1344	0.469
1352.73	0.456
1361.45	0.531
1370.18	0.611
1378.91	0.556
1387.64	0.4969
1396.36	0.265
1405.09	0.35
1413.82	0.501
1422.55	0.443
1431.27	0.573
1440	0.616
1448.73	0.474
1457.45	0.599
1466.18	0.6039
1474.91	0.734
1483.64	0.734
1492.36	0.827
1501.09	0.85
1509.82	0.863
1518.55	0.868
1527.27	0.867
1536	0.857
1544.73	0.852
1553.45	0.839
1562.18	0.832
1570.91	0.808
1579.64	0.768
1588.36	0.717
1597.09	0.658
1605.82	0.451
1614.55	0.309
1623.27	0.493
1632	0.517
1640.73	0.3891
1649.45	0.229
1658.18	0.032
1666.91	0.032
1675.64	0.179
1684.36	0.297
1693.09	0.356
1701.82	0.15
1710.54	0.191
1719.27	0.4479
1728	0.666
1736.73	0.752
1745.45	0.834
1754.18	0.887
1762.91	0.907
1771.64	0.93
1780.36	0.944
1789.09	0.947
1797.82	0.939
1806.54	0.95
1815.27	0.958
1824	0.962
1832.73	0.971
1841.45	0.973
1850.18	0.975
1858.91	0.975
1867.64	0.976
1876.36	0.975
1885.09	0.974
1893.82	0.972
1902.54	0.971
1911.27	0.972
1920	0.972
1928.73	0.973
1937.45	0.972
1946.18	0.971
1954.91	0.971
1963.64	0.971
1972.36	0.971
1981.09	0.971
1989.82	0.97
1998.54	0.969
2007.27	0.9685
2016	0.968
2024.73	0.968
2033.45	0.968
2042.18	0.968
2050.91	0.968
2059.64	0.968
2068.36	0.968
2077.09	0.968
2085.82	0.968
2094.54	0.968
2103.27	0.968
2112	0.967
2120.73	0.966
2129.45	0.9659
2138.18	0.965
2146.91	0.9649
2155.64	0.963
2164.36	0.9618
2173.09	0.9597
2181.82	0.9577
2190.54	0.955
2199.27	0.9536
2208	0.9516
2216.73	0.9496
2225.45	0.947
2234.18	0.9455
2242.91	0.944
2251.64	0.942
2260.36	0.9404
2269.09	0.94
2277.82	0.941
2286.54	0.941
2295.27	0.942
2304	0.942
2312.73	0.941
2321.45	0.941
2330.18	0.941
2338.91	0.942
2347.64	0.943
2356.36	0.943
2365.09	0.943
2373.82	0.942
2382.54	0.9383
2391.27	0.9276
2400	0.9205
2408.73	0.9127
2417.45	0.9107
2426.18	0.909
2434.91	0.9056
2443.64	0.903
2452.36	0.9015
2461.09	0.8995
2469.82	0.8954
2478.54	0.8898
2487.27	0.8884
2496	0.8863
2504.73	0.885
2513.45	0.8833
2522.18	0.8802
2530.91	0.8792
2539.64	0.879
2548.36	0.8771
2557.09	0.8721
2565.82	0.8661
2574.54	0.86
2583.27	0.857
2592	0.855
2600.73	0.853
2609.45	0.8508
2618.18	0.8478
2626.91	0.8393
2635.64	0.8312
2644.36	0.8254
2653.09	0.8237
2661.82	0.8216
2670.54	0.821
2679.27	0.8185
2688	0.812
2696.73	0.8069
2705.45	0.8008
2714.18	0.797
2722.91	0.797
2731.64	0.7997
2740.36	0.8017
2749.09	0.7994
2757.82	0.7878
2766.54	0.7738
2775.27	0.7594
2784	0.7463
2792.73	0.7341
2801.45	0.719
2810.18	0.699
2818.91	0.6042
2827.64	0.5467
2836.36	0.5015
2845.09	0.3562
2853.82	0.2836
2862.54	0.2041
2871.27	0.2314
2880	0.3252
2888.73	0.378
2897.45	0.3544
2906.18	0.3391
2914.91	0.3212
2923.64	0.2659
2932.36	0.2353
2941.09	0.3053
2949.82	0.3442
2958.54	0.4146
2967.27	0.4931
2976	0.5889
2984.73	0.6469
2993.45	0.7277
3002.18	0.7234
3010.91	0.6854
3019.64	0.7228
3028.36	0.7629
3037.09	0.7934
3045.82	0.8151
3054.54	0.816
3063.27	0.8145
3072	0.8098
3080.73	0.8076
3089.45	0.8027
3098.18	0.7997
3106.91	0.7963
3115.64	0.7939
3124.36	0.7882
3133.09	0.7821
3141.82	0.775
3150.54	0.7674
3159.27	0.7593
3168	0.7486
3176.73	0.7417
3185.45	0.734
3194.18	0.7241
3202.91	0.7135
3211.64	0.703
3220.36	0.6878
3229.09	0.6717
3237.82	0.6525
3246.54	0.6324
3255.27	0.6101
3264	0.5867
3272.73	0.5694
3281.45	0.5431
3290.18	0.5157
3298.91	0.486
3307.63	0.4546
3316.36	0.4295
3325.09	0.3997
3333.82	0.365
3342.54	0.3286
3351.27	0.2865
3360	0.2332
3368.73	0.2008
3377.45	0.1597
3386.18	0.1362
3394.91	0.1082
3403.63	0.1056
3412.36	0.1161
3421.09	0.1264
3429.82	0.129
3438.54	0.1117
3447.27	0.093
3456	0.0635
3464.73	0.049
3473.45	0.0608
3482.18	0.078
3490.91	0.0871
3499.63	0.1155
3508.36	0.1351
3517.09	0.1491
3525.82	0.1549
3534.54	0.2092
3543.27	0.3
3552	0.3545
3560.73	0.4521
3569.45	0.5265
3578.18	0.5986
3586.91	0.6373
3595.63	0.6708
3604.36	0.7097
3613.09	0.7476
3621.82	0.7737
3630.54	0.7964
3639.27	0.8144
3648	0.8288
3656.73	0.84
3665.45	0.8486
3674.18	0.8563
3682.91	0.86
3691.63	0.863
3700.36	0.865
3709.09	0.866
3717.82	0.866
3726.54	0.867
3735.27	0.867
3744	0.868
3752.73	0.867
3761.45	0.866
3770.18	0.8628
3778.91	0.86
3787.63	0.86
3796.36	0.859
3805.09	0.858
3813.82	0.858
3822.54	0.858
3831.27	0.858
3840	0.8575
3848.73	0.857
3857.45	0.855
3866.18	0.855
3874.91	0.8533
3883.63	0.853
3892.36	0.8522
3901.09	0.8512
3909.82	0.8493
3918.54	0.8471
3927.27	0.846
3936	0.845
3944.73	0.845
3953.45	0.845
3962.18	0.844
3970.91	0.844
3979.63	0.8398
3988.36	0.8378
3997.09	0.8372
4005.82	0.837
