Infrared Spectrum: 2-Amino-5-chlorobenzamide
Formula: C 7 H 7 Cl N 2 O
CAS: 5202-85-7
State: gas
Origin: EPA-IR VAPOR PHASE LIBRARY
1/CM	ABSORBANCE
549.8	0.02698
559.445	0.02223
569.09	0.01872
578.734	0.01705
588.379	0.01721
598.024	0.01665
607.669	0.01841
617.313	0.02018
626.958	0.02472
636.603	0.03192
646.248	0.03385
655.893	0.03335
665.537	0.03179
675.182	0.02176
684.827	0.01594
694.472	0.01472
704.116	0.01458
713.761	0.01408
723.406	0.01381
733.051	0.01463
742.695	0.01493
752.34	0.01416
761.985	0.012
771.63	0.01217
781.275	0.01326
790.919	0.01382
800.564	0.01987
810.209	0.03349
819.854	0.03213
829.498	0.02029
839.143	0.01371
848.788	0.01253
858.433	0.0134
868.078	0.01811
877.722	0.02158
887.367	0.01652
897.012	0.01314
906.657	0.01189
916.301	0.01082
925.946	0.01015
935.591	0.00894
945.236	0.00839
954.88	0.00792
964.525	0.00704
974.17	0.00696
983.815	0.0065
993.46	0.00724
1003.1	0.00699
1012.75	0.00648
1022.39	0.00695
1032.04	0.00716
1041.68	0.0084
1051.33	0.01115
1060.97	0.01342
1070.62	0.01267
1080.26	0.00978
1089.91	0.00906
1099.55	0.00927
1109.2	0.01214
1118.84	0.01175
1128.49	0.01591
1138.13	0.01945
1147.78	0.02237
1157.42	0.0236
1167.07	0.01749
1176.71	0.00936
1186.36	0.00777
1196	0.0076
1205.64	0.0073
1215.29	0.00923
1224.93	0.0115
1234.58	0.01974
1244.22	0.0316
1253.87	0.03578
1263.51	0.02288
1273.16	0.01428
1282.8	0.01685
1292.45	0.02628
1302.09	0.03978
1311.74	0.03882
1321.38	0.03012
1331.03	0.02746
1340.67	0.03775
1350.32	0.06892
1359.96	0.08639
1369.61	0.05424
1379.25	0.01984
1388.9	0.01288
1398.54	0.0164
1408.18	0.02233
1417.83	0.01672
1427.47	0.00884
1437.12	0.0073
1446.76	0.00753
1456.41	0.00973
1466.05	0.01882
1475.7	0.03971
1485.34	0.0557
1494.99	0.04032
1504.63	0.01861
1514.28	0.01282
1523.92	0.0134
1533.57	0.01806
1543.21	0.03003
1552.86	0.04217
1562.5	0.04137
1572.15	0.04888
1581.79	0.07862
1591.44	0.10431
1601.08	0.10595
1610.73	0.0915
1620.37	0.07257
1630.01	0.0422
1639.66	0.02385
1649.3	0.01967
1658.95	0.02349
1668.59	0.02616
1678.24	0.0378
1687.88	0.10875
1697.53	0.16196
1707.17	0.0906
1716.82	0.04027
1726.46	0.02925
1736.11	0.02338
1745.75	0.01617
1755.4	0.00943
1765.04	0.00579
1774.69	0.0039
1784.33	0.00301
1793.98	0.00243
1803.62	0.0021
1813.27	0.00215
1822.91	0.00197
1832.55	0.00182
1842.2	0.00192
1851.84	0.00227
1861.49	0.00286
1871.13	0.00357
1880.78	0.00344
1890.42	0.00231
1900.07	0.00177
1909.71	0.00157
1919.36	0.00145
1929	0.00146
1938.65	0.00138
1948.29	0.00139
1957.94	0.00129
1967.58	0.00117
1977.23	0.00116
1986.87	0.00128
1996.52	0.00125
2006.16	0.00113
2015.81	0.00104
2025.45	0.0009314
2035.1	0.00107
2044.74	0.00107
2054.38	0.00113
2064.03	0.00105
2073.67	0.0009475
2083.32	0.0009414
2092.96	0.000995
2102.61	0.00107
2112.25	0.00107
2121.9	0.00103
2131.54	0.0009954
2141.19	0.0009223
2150.83	0.0008761
2160.48	0.0009721
2170.12	0.00101
2179.77	0.0009143
2189.41	0.0009308
2199.06	0.00103
2208.7	0.00107
2218.35	0.00121
2227.99	0.00117
2237.64	0.00113
2247.28	0.001
2256.92	0.0008018
2266.57	0.0007987
2276.21	0.0008435
2285.86	0.0006664
2295.5	0.0007979
2305.15	0.0009146
2314.79	0.0009135
2324.44	0.000853
2334.08	0.0007652
2343.73	0.0009929
2353.37	0.000882
2363.02	0.0009531
2372.66	0.0008071
2382.31	0.0006374
2391.95	0.0007749
2401.6	0.0007509
2411.24	0.0008249
2420.89	0.0006708
2430.53	0.0006754
2440.18	0.0006667
2449.82	0.0007227
2459.47	0.0007349
2469.11	0.0006847
2478.75	0.000843
2488.4	0.0007366
2498.04	0.0006246
2507.69	0.00063
2517.33	0.0003729
2526.98	0.0003501
2536.62	0.0005876
2546.27	0.0007432
2555.91	0.0007496
2565.56	0.0006836
2575.2	0.0006453
2584.85	0.0006168
2594.49	0.0008417
2604.14	0.00103
2613.78	0.00103
2623.43	0.0006907
2633.07	0.0008167
2642.72	0.0008679
2652.36	0.0007568
2662.01	0.0008275
2671.65	0.0008965
2681.29	0.0009447
2690.94	0.0008062
2700.58	0.0008564
2710.23	0.000902
2719.87	0.0008557
2729.52	0.00101
2739.16	0.0009647
2748.81	0.0009358
2758.45	0.00101
2768.1	0.00116
2777.74	0.00103
2787.39	0.0009155
2797.03	0.0007317
2806.68	0.0009543
2816.32	0.0009869
2825.97	0.0006556
2835.61	0.0009518
2845.26	0.0008905
2854.9	0.00108
2864.55	0.0011
2874.19	0.00106
2883.84	0.00105
2893.48	0.00101
2903.12	0.0009076
2912.77	0.0007805
2922.41	0.001
2932.06	0.0009049
2941.7	0.00122
2951.35	0.00125
2960.99	0.00114
2970.64	0.0009687
2980.28	0.00107
2989.93	0.00113
2999.57	0.00117
3009.22	0.00189
3018.86	0.0029
3028.51	0.00532
3038.15	0.00578
3047.8	0.00452
3057.44	0.00291
3067.09	0.00327
3076.73	0.00376
3086.38	0.00351
3096.02	0.00222
3105.67	0.0018
3115.31	0.0016
3124.95	0.00112
3134.6	0.00127
3144.24	0.00151
3153.89	0.00148
3163.53	0.00156
3173.18	0.00162
3182.82	0.00149
3192.47	0.0013
3202.11	0.00154
3211.76	0.00136
3221.4	0.00153
3231.05	0.00138
3240.69	0.00141
3250.34	0.0014
3259.98	0.00214
3269.63	0.0023
3279.27	0.00261
3288.92	0.00329
3298.56	0.00446
3308.21	0.00442
3317.85	0.00436
3327.49	0.00499
3337.14	0.0075
3346.78	0.0156
3356.43	0.02969
3366.07	0.03566
3375.72	0.02839
3385.36	0.01873
3395.01	0.01114
3404.65	0.00838
3414.3	0.00929
3423.94	0.01467
3433.59	0.02003
3443.23	0.01626
3452.88	0.0085
3462.52	0.0055
3472.17	0.00612
3481.81	0.0081
3491.46	0.01232
3501.1	0.0196
3510.75	0.02295
3520.39	0.01864
3530.04	0.01289
3539.68	0.01285
3549.32	0.01546
3558.97	0.0131
3568.61	0.00641
3578.26	0.00303
3587.9	0.00216
3597.55	0.00165
3607.19	0.00107
3616.84	0.0009499
3626.48	0.0005389
3636.13	0.0007537
3645.77	0.0008338
3655.42	0.0008079
3665.06	0.0007816
3674.71	0.0008492
3684.35	0.0006027
3694	0.0005152
3703.64	0.0008833
3713.29	0.000626
3722.93	0.0001488
3732.58	0.0008039
3742.22	0.0006508
3751.86	0.0004104
3761.51	0.0005549
3771.15	0.0007361
3780.8	0.0003143
3790.44	0.0004927
3800.09	0.0005722
3809.73	0.0004881
3819.38	0.0009132
3829.02	0.0005921
3838.67	0.0004855
3848.31	0.0008094
3857.96	0.0007516
3867.6	0.0004002
3877.25	0.0006783
3886.89	0.0008014
3896.54	0.0006519
3906.18	0.000521
3915.83	0.0004342
3925.47	0.0005395
3935.12	0.0008207
3944.76	0.0006488
3954.41	0.0006965
3964.05	0.0006423
3973.69	0.0006431
3983.34	0.000448
3992.98	0.0007084
