Infrared Spectrum: p-Butoxybenzonitrile
Formula: C 11 H 13 N O
CAS: 5203-14-5
State: gas
Origin: EPA-IR VAPOR PHASE LIBRARY
1/CM	ABSORBANCE
549.8	0.020496
559.445	0.011066
569.09	0.006036
578.734	0.004206
588.379	0.002386
598.024	0.001756
607.669	0.001506
617.313	0.001326
626.958	0.0011941
636.603	0.001746
646.248	0.002436
655.893	0.003386
665.537	0.006056
675.182	0.008326
684.827	0.009136
694.472	0.010686
704.116	0.009396
713.761	0.005436
723.406	0.003426
733.051	0.003136
742.695	0.003606
752.34	0.003536
761.985	0.003496
771.63	0.003486
781.275	0.004086
790.919	0.005766
800.564	0.010086
810.209	0.013856
819.854	0.024216
829.498	0.048746
839.143	0.052856
848.788	0.029096
858.433	0.014356
868.078	0.011276
877.722	0.010646
887.367	0.007396
897.012	0.005076
906.657	0.005096
916.301	0.004526
925.946	0.004876
935.591	0.006206
945.236	0.008986
954.88	0.013976
964.525	0.020086
974.17	0.024116
983.815	0.020996
993.46	0.021556
1003.1	0.030786
1012.75	0.043166
1022.39	0.048706
1032.04	0.040016
1041.68	0.023276
1051.33	0.017506
1060.97	0.023976
1070.62	0.024796
1080.26	0.015706
1089.91	0.011546
1099.55	0.013806
1109.2	0.015406
1118.84	0.014046
1128.49	0.010966
1138.13	0.009236
1147.78	0.010816
1157.42	0.019836
1167.07	0.094386
1176.71	0.077646
1186.36	0.019536
1196	0.017306
1205.64	0.024016
1215.29	0.042546
1224.93	0.077576
1234.58	0.124556
1244.22	0.204926
1253.87	0.225956
1263.51	0.122316
1273.16	0.085056
1282.8	0.095406
1292.45	0.108816
1302.09	0.070916
1311.74	0.042986
1321.38	0.022296
1331.03	0.014676
1340.67	0.011266
1350.32	0.009676
1359.96	0.009076
1369.61	0.009736
1379.25	0.015626
1388.9	0.023116
1398.54	0.015266
1408.18	0.009696
1417.83	0.008906
1427.47	0.008226
1437.12	0.009656
1446.76	0.012166
1456.41	0.017556
1466.05	0.037486
1475.7	0.053556
1485.34	0.039496
1494.99	0.068996
1504.63	0.195996
1514.28	0.153456
1523.92	0.033316
1533.57	0.015896
1543.21	0.012496
1552.86	0.012986
1562.5	0.016376
1572.15	0.024416
1581.79	0.024706
1591.44	0.043936
1601.08	0.127036
1610.73	0.136766
1620.37	0.036256
1630.01	0.012306
1639.66	0.007876
1649.3	0.006126
1658.95	0.004876
1668.59	0.004156
1678.24	0.003246
1687.88	0.002796
1697.53	0.002376
1707.17	0.002136
1716.82	0.002026
1726.46	0.002066
1736.11	0.002226
1745.75	0.002446
1755.4	0.002996
1765.04	0.003206
1774.69	0.002156
1784.33	0.001936
1793.98	0.001656
1803.62	0.001526
1813.27	0.001466
1822.91	0.001416
1832.55	0.001506
1842.2	0.001616
1851.84	0.001826
1861.49	0.002296
1871.13	0.003086
1880.78	0.003806
1890.42	0.004446
1900.07	0.004116
1909.71	0.003256
1919.36	0.002476
1929	0.002026
1938.65	0.002076
1948.29	0.002256
1957.94	0.002436
1967.58	0.002696
1977.23	0.002876
1986.87	0.002926
1996.52	0.002996
2006.16	0.002756
2015.81	0.002656
2025.45	0.002766
2035.1	0.002616
2044.74	0.002586
2054.38	0.002496
2064.03	0.002346
2073.67	0.002326
2083.32	0.002186
2092.96	0.001956
2102.61	0.001696
2112.25	0.001656
2121.9	0.001516
2131.54	0.001276
2141.19	0.0010519
2150.83	0.001011
2160.48	0.0009365
2170.12	0.0011217
2179.77	0.001396
2189.41	0.0011823
2199.06	0.001666
2208.7	0.003196
2218.35	0.010076
2227.99	0.038126
2237.64	0.028626
2247.28	0.004096
2256.92	0.001996
2266.57	0.001526
2276.21	0.001466
2285.86	0.001326
2295.5	0.001266
2305.15	0.001276
2314.79	0.001286
2324.44	0.0011982
2334.08	0.001546
2343.73	0.001676
2353.37	0.001346
2363.02	0.001326
2372.66	0.001506
2382.31	0.001746
2391.95	0.001956
2401.6	0.002186
2411.24	0.002156
2420.89	0.002136
2430.53	0.002206
2440.18	0.002156
2449.82	0.001986
2459.47	0.002046
2469.11	0.002156
2478.75	0.002276
2488.4	0.002476
2498.04	0.002646
2507.69	0.002976
2517.33	0.003636
2526.98	0.004446
2536.62	0.005396
2546.27	0.005376
2555.91	0.004206
2565.56	0.002976
2575.2	0.002386
2584.85	0.002016
2594.49	0.001756
2604.14	0.001556
2613.78	0.001566
2623.43	0.001526
2633.07	0.001486
2642.72	0.001236
2652.36	0.001205
2662.01	0.001456
2671.65	0.001566
2681.29	0.001726
2690.94	0.001816
2700.58	0.001866
2710.23	0.001996
2719.87	0.002096
2729.52	0.002416
2739.16	0.002946
2748.81	0.003566
2758.45	0.003806
2768.1	0.004056
2777.74	0.003636
2787.39	0.003556
2797.03	0.003866
2806.68	0.004286
2816.32	0.005156
2825.97	0.006056
2835.61	0.007436
2845.26	0.010406
2854.9	0.015396
2864.55	0.022386
2874.19	0.033986
2883.84	0.045356
2893.48	0.041976
2903.12	0.037966
2912.77	0.043926
2922.41	0.051916
2932.06	0.062726
2941.7	0.080586
2951.35	0.082466
2960.99	0.084856
2970.64	0.094926
2980.28	0.065476
2989.93	0.031466
2999.57	0.016856
3009.22	0.011186
3018.86	0.008386
3028.51	0.006996
3038.15	0.007346
3047.8	0.010526
3057.44	0.010376
3067.09	0.006506
3076.73	0.005996
3086.38	0.006206
3096.02	0.006056
3105.67	0.006036
3115.31	0.004836
3124.95	0.003706
3134.6	0.002596
3144.24	0.002116
3153.89	0.001596
3163.53	0.001446
3173.18	0.001316
3182.82	0.001206
3192.47	0.0011763
3202.11	0.001366
3211.76	0.001226
3221.4	0.0010893
3231.05	0.0007818
3240.69	0.0006034
3250.34	0.0005056
3259.98	0.0003625
3269.63	0.00028913
3279.27	0.00029309
3288.92	0.00029377
3298.56	0.00022377
3308.21	0.0002328
3317.85	0.00030539
3327.49	0.000158
3337.14	0.0003439
3346.78	0.0003623
3356.43	0.0003064
3366.07	0.0003828
3375.72	0.0003236
3385.36	0.0003668
3395.01	0.0008661
3404.65	0.0010835
3414.3	0.000821
3423.94	0.0010112
3433.59	0.0009236
3443.23	0.0005976
3452.88	0.000393
3462.52	0.00022238
3472.17	0.0001172
3481.81	0.0002199
3491.46	0.00027545
3501.1	0.000104
3510.75	0.00029614
3520.39	0.0003237
3530.04	0.0001154
3539.68	0.0001112
3549.32	0.0003189
3558.97	0.00030022
3568.61	0.00022363
3578.26	6.7e-05
3587.9	8.6e-05
3597.55	0.0001371
3607.19	0.000206484
3616.84	0.0003814
3626.48	0.00020413
3636.13	0.000214859
3645.77	0.00024132
3655.42	0.0002437
3665.06	0.00025791
3674.71	0.0004474
3684.35	0.0004409
3694	0.0004775
3703.64	0.000516
3713.29	0.0004098
3722.93	0.0003944
3732.58	0.0004752
3742.22	0.0004847
3751.86	0.0003365
3761.51	0.0003099
3771.15	0.0005095
3780.8	0.000514
3790.44	0.000492
3800.09	0.000413
3809.73	0.0004381
3819.38	0.0005734
3829.02	0.0009375
3838.67	0.0009667
3848.31	0.0005446
3857.96	0.0007061
3867.6	0.0005946
3877.25	0.0005982
3886.89	0.0005201
3896.54	0.0004412
3906.18	0.0003689
3915.83	0.0004718
3925.47	0.0006314
3935.12	0.0004093
3944.76	0.0005097
3954.41	0.0006141
3964.05	0.0005203
3973.69	0.0004435
3983.34	0.0004954
3992.98	0.0003441
