Infrared Spectrum: 4-Pentenal, 2-ethyl-
Formula: C7 H12 O
CAS: 5204-80-8
State: SOLUTION (10% CCl4 FOR 3800-1330, 10% CS2 FOR 1330-400 CM^-^1) VS SOLVENT
Class: COBLENTZ
Instrument: DOW KBr FOREPRISM-GRATING
Instrument parameters: BLAZED AT 3.5, 12.0, 20.0 MICRON AND CHANGED AT 5.0, 7.5, 14.9 MICRON
Sampling: TRANSMISSION
Path length: 0.011 CM, 0.011 CM
Resolution: 2
Origin: DOW CHEMICAL COMPANY
1/CM	TRANSMITTANCE
384	0.9606
393	0.9547
402	0.9537
411	0.9511
420	0.9358
429	0.9223
438	0.9096
447	0.9018
456	0.8943
465	0.8914
474	0.8884
483	0.8832
492	0.8723
501	0.862
510	0.8512
519	0.8394
528	0.831
537	0.8271
546	0.8258
555	0.8392
564	0.8508
573	0.8476
582	0.8399
591	0.8281
600	0.8067
609	0.7805
618	0.7811
627	0.7759
636	0.7649
645	0.7638
654	0.7723
663	0.8035
672	0.8079
681	0.8397
690	0.8653
699	0.8761
708	0.879
717	0.8759
726	0.8696
735	0.8629
744	0.8533
753	0.8379
762	0.805
771	0.7035
780	0.5967
789	0.7288
798	0.7814
807	0.7892
816	0.7841
825	0.7674
834	0.7651
843	0.7709
852	0.7727
861	0.7543
870	0.7006
879	0.669
888	0.7064
897	0.658
906	0.5082
915	0.1741
924	0.2558
933	0.5382
942	0.5783
951	0.5939
960	0.6071
969	0.6111
978	0.5862
987	0.4344
996	0.3312
1005	0.5234
1014	0.5978
1023	0.6268
1032	0.631
1041	0.6202
1050	0.6295
1059	0.6325
1068	0.6279
1077	0.6229
1086	0.6173
1095	0.6172
1104	0.6182
1113	0.6147
1122	0.6073
1131	0.5983
1140	0.5905
1149	0.5852
1158	0.5961
1167	0.6104
1176	0.5889
1185	0.5925
1194	0.6214
1203	0.6081
1212	0.571
1221	0.5677
1230	0.5569
1239	0.5831
1248	0.6008
1257	0.6025
1266	0.602
1275	0.5849
1284	0.5815
1293	0.5883
1302	0.6193
1311	0.6405
1320	0.6519
1329	0.6435
1338	0.6333
1347	0.6302
1356	0.6056
1365	0.6076
1374	0.5974
1383	0.4583
1392	0.512
1401	0.6052
1410	0.5949
1419	0.51
1428	0.5642
1437	0.4954
1446	0.3636
1455	0.427
1464	0.2819
1473	0.5647
1482	0.7384
1491	0.7773
1500	0.7979
1509	0.814
1518	0.8292
1527	0.8431
1536	0.8601
1545	0.8682
1554	0.8612
1563	0.8394
1572	0.8242
1581	0.8164
1590	0.8038
1599	0.7801
1608	0.7646
1617	0.7455
1626	0.7346
1635	0.6559
1644	0.3202
1653	0.6677
1662	0.6905
1671	0.6714
1680	0.6323
1689	0.4922
1698	0.3334
1707	0.0801
1716	0.0653
1725	0.008
1734	0.0084
1743	0.191
1752	0.409
1761	0.5595
1770	0.6578
1779	0.706
1788	0.7404
1797	0.7678
1806	0.778
1815	0.7811
1824	0.7766
1833	0.7621
1842	0.7628
1851	0.7799
1860	0.8195
1869	0.8268
1878	0.8322
1887	0.8375
1896	0.8418
1905	0.8437
1914	0.8437
1923	0.845
1932	0.8471
1941	0.8479
1950	0.8474
1959	0.8456
1968	0.8448
1977	0.844
1986	0.842
1995	0.8449
2004	0.8508
2013	0.8499
2022	0.8503
2031	0.8505
2040	0.8506
2049	0.8499
2058	0.8497
2067	0.8499
2076	0.8508
2085	0.8516
2094	0.8525
2103	0.8526
2112	0.8527
2121	0.8529
2130	0.8532
2139	0.8534
2148	0.8534
2157	0.8534
2166	0.8535
2175	0.8535
2184	0.8532
2193	0.8528
2202	0.8517
2211	0.8503
2220	0.8497
2229	0.8494
2238	0.8486
2247	0.8475
2256	0.8486
2265	0.8554
2274	0.8544
2283	0.8526
2292	0.8503
2301	0.8477
2310	0.8492
2319	0.8599
2328	0.8631
2337	0.8598
2346	0.8553
2355	0.8452
2364	0.8427
2373	0.8399
2382	0.8371
2391	0.8352
2400	0.8337
2409	0.8324
2418	0.8316
2427	0.8308
2436	0.8299
2445	0.8283
2454	0.8255
2463	0.8219
2472	0.8182
2481	0.8143
2490	0.8103
2499	0.8062
2508	0.8022
2517	0.7979
2526	0.7937
2535	0.7894
2544	0.7847
2553	0.7798
2562	0.7751
2571	0.7704
2580	0.7657
2589	0.7609
2598	0.7559
2607	0.7507
2616	0.746
2625	0.741
2634	0.7341
2643	0.7189
2652	0.689
2661	0.6483
2670	0.5829
2679	0.5238
2688	0.4607
2697	0.4314
2706	0.4402
2715	0.4761
2724	0.5047
2733	0.5564
2742	0.6226
2751	0.6454
2760	0.6449
2769	0.6268
2778	0.591
2787	0.5196
2796	0.4527
2805	0.445
2814	0.4694
2823	0.4697
2832	0.4464
2841	0.4058
2850	0.3818
2859	0.2925
2868	0.2745
2877	0.2007
2886	0.3248
2895	0.3038
2904	0.2296
2913	0.179
2922	0.1285
2931	0.1056
2940	0.1429
2949	0.2228
2958	0.1248
2967	0.0719
2976	0.1091
2985	0.2859
2994	0.447
3003	0.4907
3012	0.5201
3021	0.6036
3030	0.6143
3039	0.6152
3048	0.6089
3057	0.5651
3066	0.5218
3075	0.4526
3084	0.439
3093	0.5846
3102	0.6469
3111	0.661
3120	0.6714
3129	0.6811
3138	0.688
3147	0.6914
3156	0.6935
3165	0.6954
3174	0.6984
3183	0.7021
3192	0.7068
3201	0.7116
3210	0.7164
3219	0.7207
3228	0.7236
3237	0.727
3246	0.7313
3255	0.735
3264	0.7389
3273	0.7428
3282	0.7457
3291	0.7481
3300	0.7504
3309	0.7524
3318	0.7534
3327	0.7539
3336	0.7545
3345	0.7546
3354	0.7544
3363	0.7536
3372	0.7526
3381	0.7505
3390	0.7482
3399	0.7445
3408	0.7394
3417	0.7319
3426	0.7221
3435	0.7185
3444	0.7447
3453	0.7558
3462	0.7618
3471	0.7653
3480	0.7684
3489	0.7709
3498	0.7721
3507	0.7732
3516	0.7744
3525	0.7757
3534	0.7813
3543	0.7901
3552	0.7985
3561	0.8067
3570	0.8143
3579	0.8183
3588	0.8175
3597	0.8218
3606	0.8234
3615	0.8288
3624	0.8403
3633	0.8494
3642	0.8562
3651	0.8571
3660	0.8552
3669	0.8517
3678	0.8478
3687	0.8486
3696	0.8566
3705	0.8647
3714	0.8706
3723	0.8728
3732	0.8733
3741	0.8731
3750	0.8733
3759	0.8737
3768	0.8738
3777	0.8739
3786	0.8739
3795	0.8733
