Infrared Spectrum: 5-Decanol
Formula: C 10 H 22 O
CAS: 5205-34-5
State: gas
Instrument: HP-GC/MS/IRD
Origin: NIST Mass Spectrometry Data Center
1/CM	ABSORBANCE
550	0.00031
562	6.5e-05
574	7e-05
586	8e-05
598	7.5e-05
610	0.00018
622	0.00017
634	6.5e-05
646	8.5e-05
658	3e-05
670	0.00019
682	0.00013
694	0.00015
706	0.000305
718	0.00053
730	0.000805
742	0.00077
754	0.00061
766	0.000605
778	0.00062
790	0.000545
802	0.000525
814	0.000485
826	0.000535
838	0.000535
850	0.000635
862	0.000705
874	0.000935
886	0.00115
898	0.0014
910	0.001295
922	0.00141
934	0.0018
946	0.002145
958	0.002025
970	0.001935
982	0.0023
994	0.003165
1006	0.004265
1018	0.005155
1030	0.005275
1042	0.0044
1054	0.003325
1066	0.002875
1078	0.00279
1090	0.00269
1102	0.002775
1114	0.003075
1126	0.003445
1138	0.00305
1150	0.00206
1162	0.001575
1174	0.00172
1186	0.002025
1198	0.00225
1210	0.002335
1222	0.002475
1234	0.00267
1246	0.00279
1258	0.00281
1270	0.00254
1282	0.00229
1294	0.00219
1306	0.002015
1318	0.00192
1330	0.00209
1342	0.002625
1354	0.002985
1366	0.003515
1378	0.0044
1390	0.004125
1402	0.00273
1414	0.001945
1426	0.0019
1438	0.0027
1450	0.003995
1462	0.00507
1474	0.00374
1486	0.00179
1498	0.000985
1510	0.000655
1522	0.000485
1534	0.000375
1546	0.000315
1558	0.000215
1570	0.000195
1582	0.00018
1594	0.000145
1606	0.00013
1618	0.00011
1630	0.00011
1642	8.5e-05
1654	7.5e-05
1666	8e-05
1678	6.5e-05
1690	3.5e-05
1702	4e-05
1714	7.5e-05
1726	4.5e-05
1738	1.5e-05
1750	1.5e-05
1762	5e-06
1774	2e-05
1786	1.5e-05
1798	0
1810	1.5e-05
1822	2e-05
1834	1.5e-05
1846	1e-05
1858	4.5e-05
1870	2e-05
1882	3e-05
1894	2.5e-05
1906	1e-05
1918	1.5e-05
1930	5e-06
1942	5e-06
1954	1e-05
1966	5e-06
1978	2e-05
1990	2e-05
2002	1e-05
2014	3e-05
2026	5e-05
2038	5.5e-05
2050	6e-05
2062	3.5e-05
2074	4.5e-05
2086	4.5e-05
2098	4e-05
2110	2e-05
2122	1e-05
2134	2e-05
2146	2.5e-05
2158	4e-05
2170	5e-05
2182	2.5e-05
2194	4e-05
2206	4.5e-05
2218	2e-05
2230	3e-05
2242	2.5e-05
2254	4e-05
2266	2e-05
2278	3.5e-05
2290	3.5e-05
2302	5e-05
2314	6.5e-05
2326	5.5e-05
2338	8e-05
2350	7.5e-05
2362	8.5e-05
2374	9e-05
2386	8.5e-05
2398	8.5e-05
2410	7.5e-05
2422	8e-05
2434	7.5e-05
2446	6e-05
2458	6.5e-05
2470	6e-05
2482	6e-05
2494	6.5e-05
2506	6.5e-05
2518	8.5e-05
2530	0.00013
2542	0.000135
2554	0.00016
2566	0.00023
2578	0.000215
2590	0.00028
2602	0.000295
2614	0.000325
2626	0.00037
2638	0.00044
2650	0.000515
2662	0.000575
2674	0.00061
2686	0.00061
2698	0.000635
2710	0.000645
2722	0.000715
2734	0.00085
2746	0.000945
2758	0.000975
2770	0.00108
2782	0.001295
2794	0.001595
2806	0.002025
2818	0.00272
2830	0.00393
2842	0.00664
2854	0.0125
2866	0.019545
2878	0.020905
2890	0.018065
2902	0.01838
2914	0.02669
2926	0.041155
2938	0.05
2950	0.037095
2962	0.032435
2974	0.02682
2986	0.010865
2998	0.005575
3010	0.003575
3022	0.00251
3034	0.001835
3046	0.001345
3058	0.001075
3070	0.000885
3082	0.000765
3094	0.000715
3106	0.00061
3118	0.000515
3130	0.00046
3142	0.00041
3154	0.00037
3166	0.000335
3178	0.000295
3190	0.000255
3202	0.000185
3214	0.000155
3226	0.000125
3238	8.5e-05
3250	8.5e-05
3262	4.5e-05
3274	6e-05
3286	7e-05
3298	2e-05
3310	2.5e-05
3322	4e-05
3334	7e-05
3346	2.5e-05
3358	4.5e-05
3370	0.000115
3382	8.5e-05
3394	0.00011
3406	0.000115
3418	0.000145
3430	0.000135
3442	0.000145
3454	0.000115
3466	8e-05
3478	8.5e-05
3490	8e-05
3502	0.00012
3514	9.5e-05
3526	5e-05
3538	0.0001
3550	0.000125
3562	8e-05
3574	9e-05
3586	0.00012
3598	0.000175
3610	0.00026
3622	0.000495
3634	0.000915
3646	0.001695
3658	0.00197
3670	0.00095
3682	0.000375
3694	0.000265
3706	0.000185
3718	0.00017
3730	0.00013
3742	0.000145
3754	0.000125
3766	0.000105
3778	0.000145
3790	0.00013
3802	0.00013
3814	0.00014
3826	0.00019
3838	0.00022
