Infrared Spectrum: 4-(1-Bromoethyl)benzoic acid
Formula: C 9 H 9 Br O 2
CAS: 52062-92-7
State: gas
Origin: EPA-IR VAPOR PHASE LIBRARY
1/CM	ABSORBANCE
549.8	0.002225
559.446	0.002605
569.092	0.002465
578.738	0.002205
588.384	0.001755
598.03	0.001785
607.676	0.0009147
617.322	0.0009807
626.968	0.0009542
636.614	0.000953
646.26	0.0011714
655.906	0.0008842
665.552	0.0010503
675.198	0.0009625
684.844	0.0009629
694.49	0.002015
704.136	0.004585
713.782	0.005635
723.428	0.002745
733.073	0.0012872
742.719	0.0009443
752.365	0.000719
762.011	0.0010181
771.657	0.001965
781.303	0.002445
790.949	0.001865
800.595	0.001313
810.241	0.0008396
819.887	0.0007521
829.533	0.0006948
839.179	0.0010981
848.825	0.001645
858.471	0.002175
868.117	0.001675
877.763	0.0011157
887.409	0.0007721
897.055	0.0011201
906.701	0.001825
916.347	0.002245
925.993	0.001855
935.639	0.0012909
945.285	0.0009953
954.931	0.0009554
964.577	0.0010865
974.223	0.0012576
983.869	0.001425
993.515	0.0011999
1003.16	0.0011321
1012.81	0.002105
1022.45	0.002025
1032.1	0.001229
1041.74	0.0011174
1051.39	0.001565
1061.04	0.002905
1070.68	0.007755
1080.33	0.012565
1089.97	0.008345
1099.62	0.002615
1109.27	0.001595
1118.91	0.0013645
1128.56	0.0013319
1138.2	0.001495
1147.85	0.002345
1157.5	0.005235
1167.14	0.009495
1176.79	0.008065
1186.43	0.005275
1196.08	0.004795
1205.73	0.002985
1215.37	0.001835
1225.02	0.001415
1234.66	0.001495
1244.31	0.001695
1253.96	0.002045
1263.6	0.002455
1273.25	0.002835
1282.89	0.002715
1292.54	0.002155
1302.19	0.001875
1311.83	0.002025
1321.48	0.002595
1331.12	0.003825
1340.77	0.003855
1350.42	0.003275
1360.06	0.004215
1369.71	0.004095
1379.35	0.002065
1389	0.001645
1398.65	0.002065
1408.29	0.001965
1417.94	0.0013343
1427.58	0.0010499
1437.23	0.0007758
1446.88	0.0006659
1456.52	0.0006695
1466.17	0.0005616
1475.81	0.0005013
1485.46	0.0005961
1495.11	0.0007126
1504.75	0.0009046
1514.4	0.0008052
1524.04	0.0006901
1533.69	0.0006542
1543.34	0.0007626
1552.98	0.0007678
1562.63	0.001013
1572.27	0.0009842
1581.92	0.0007842
1591.57	0.001138
1601.21	0.002115
1610.86	0.003015
1620.5	0.001965
1630.15	0.0011668
1639.79	0.0009369
1649.44	0.0007888
1659.09	0.0006052
1668.73	0.0008021
1678.38	0.0007627
1688.02	0.0009361
1697.67	0.0010947
1707.32	0.0012904
1716.96	0.001525
1726.61	0.001785
1736.25	0.003565
1745.9	0.009725
1755.55	0.022085
1765.19	0.020695
1774.84	0.006485
1784.48	0.002415
1794.13	0.001435
1803.78	0.0012374
1813.42	0.0010798
1823.07	0.0010238
1832.71	0.0009381
1842.36	0.0008307
1852.01	0.000582
1861.65	0.000548
1871.3	0.0005033
1880.94	0.0005513
1890.59	0.00045411
1900.24	0.00041471
1909.88	0.0005047
1919.53	0.0005387
1929.17	0.0005288
1938.82	0.0005805
1948.47	0.00044395
1958.11	0.000388272
1967.76	0.00040719
1977.4	0.0003718
1987.05	0.0003115
1996.7	0.0003078
2006.34	0.000272
2015.99	0.0003058
2025.63	0.0003355
2035.28	0.000313
2044.93	0.000318
2054.57	0.000265
2064.22	0.0002931
2073.86	0.0002922
2083.51	0.0002984
2093.16	0.0003101
2102.8	0.0002968
2112.45	0.0003008
2122.09	0.0003037
2131.74	0.000172
2141.39	0.000262
2151.03	0.000284
2160.68	0.0003025
2170.32	0.000232
2179.97	0.000249
2189.62	0.000234
2199.26	0.000205
2208.91	0.000239
2218.55	0.0002913
2228.2	0.00026
2237.85	0.000226
2247.49	0.000257
2257.14	0.000178
2266.78	0.000171
2276.43	0.000245
2286.08	0.000306
2295.72	0.00019
2305.37	0.000255
2315.01	0.000308
2324.66	0.000177
2334.31	0.0003707
2343.95	0.000251
2353.6	0.0003275
2363.24	0.000299
2372.89	0.000281
2382.53	0.000191
2392.18	8e-05
2401.83	0.000253
2411.47	0.000267
2421.12	0.000223
2430.76	0.000193
2440.41	0.000163
2450.06	0.000164
2459.7	0.000123
2469.35	0.000193
2478.99	0.00012
2488.64	0.000162
2498.29	8.7e-05
2507.93	0.000225
2517.58	0.000152
2527.22	7.8e-05
2536.87	0.000151
2546.52	0.000144
2556.16	0
2565.81	0.000101
2575.45	0.000197
2585.1	0.00028
2594.75	0.000116
2604.39	0.000163
2614.04	0.000193
2623.68	0.000213
2633.33	0.000179
2642.98	0.000138
2652.62	0.00012
2662.27	2.1e-05
2671.91	4.6e-05
2681.56	0.000149
2691.21	0.000145
2700.85	0.000132
2710.5	7.3e-05
2720.14	0.000145
2729.79	0.000173
2739.44	9.7e-05
2749.08	0.000221
2758.73	5.9e-05
2768.37	0.000175
2778.02	0.000258
2787.67	0.000242
2797.31	0.000212
2806.96	5.2e-05
2816.6	0.00022
2826.25	0.000139
2835.9	0.000217
2845.54	3.6e-05
2855.19	0.000218
2864.83	0.000161
2874.48	0.000141
2884.13	0.000241
2893.77	8.9e-05
2903.42	7.1e-05
2913.06	0.00024
2922.71	0.0004869
2932.36	0.000101
2942	0.000227
2951.65	0.0003102
2961.29	0.0003504
2970.94	0.000268
2980.59	0.0003614
2990.23	0.0006031
2999.88	0.0006758
3009.52	0.0009727
3019.17	0.0012635
3028.82	0.0008773
3038.46	0.0006975
3048.11	0.0009836
3057.75	0.0010385
3067.4	0.0008029
3077.04	0.0010021
3086.69	0.0010848
3096.34	0.001585
3105.98	0.0011317
3115.63	0.000599
3125.27	0.0006701
3134.92	0.0005251
3144.57	0.00044208
3154.21	0.00039888
3163.86	0.000261
3173.5	0.000221
3183.15	0.00041208
3192.8	0.00041078
3202.44	0.0005038
3212.09	0.0005026
3221.73	0.0003156
3231.38	0.00041612
3241.03	0.0005858
3250.67	0.0005437
3260.32	0.00045802
3269.96	0.0005722
3279.61	0.0005796
3289.26	0.0004917
3298.9	0.0005359
3308.55	0.0007456
3318.19	0.0006229
3327.84	0.0006531
3337.49	0.000577
3347.13	0.0006823
3356.78	0.0007042
3366.42	0.0006486
3376.07	0.0006171
3385.72	0.0005275
3395.36	0.0006033
3405.01	0.0007265
3414.65	0.0009499
3424.3	0.0006806
3433.95	0.0006838
3443.59	0.0007833
3453.24	0.0006272
3462.88	0.0007221
3472.53	0.0006949
3482.18	0.0008012
3491.82	0.0008271
3501.47	0.0009434
3511.11	0.0010091
3520.76	0.0008924
3530.41	0.0006107
3540.05	0.000752
3549.7	0.0007453
3559.34	0.0011191
3568.99	0.002175
3578.64	0.006945
3588.28	0.007125
3597.93	0.001765
3607.57	0.0008998
3617.22	0.0008967
3626.87	0.0007412
3636.51	0.0008399
3646.16	0.0007218
3655.8	0.0006003
3665.45	0.0005536
3675.1	0.0008731
3684.74	0.0005816
3694.39	0.000727
3704.03	0.0008973
3713.68	0.0007646
3723.33	0.0005861
3732.97	0.0005308
3742.62	0.0007018
3752.26	0.0003687
3761.91	0.0006615
3771.56	0.00042269
3781.2	0.0005969
3790.85	0.0006034
3800.49	0.0006446
3810.14	0.000493
3819.78	0.0007257
3829.43	0.0006226
3839.08	0.0005041
3848.72	0.0005523
3858.37	0.0006333
3868.01	0.000390348
3877.66	0.0005716
3887.31	0.0005998
3896.95	0.0006622
3906.6	0.0005239
3916.24	0.0005969
3925.89	0.0007628
3935.54	0.0005746
3945.18	0.00046701
3954.83	0.00045306
3964.47	0.0005541
3974.12	0.00048482
3983.77	0.0003157
3993.41	0.0006821
