Infrared Spectrum: p-TOLUENESULFONAMIDE, N-(2,4-DINITRO-1-NAPHTHYL)-
Formula: C17 H13 N3 O6 S
CAS: 52077-96-0
State: SOLID (SPLIT MULL), FLUOROLUBE FOR 3800-1330 CM^-^1, NUJOL FOR 1330-400 CM^-^1
Class: COBLENTZ III
Instrument: BECKMAN IR-9 (GRATING)
Instrument parameters: ORDER CHANGES: 670, 1200, 2000 CM^-^1
Sampling: TRANSMISSION
Resolution: 2
Origin: DOW CHEMICAL COMPANY
1/CM	TRANSMITTANCE
408	0.5551
417	0.5746
426	0.6243
435	0.6996
444	0.7232
453	0.7632
462	0.7812
471	0.7671
480	0.8108
489	0.8349
498	0.842
507	0.8428
516	0.8193
525	0.7398
534	0.5651
543	0.5397
552	0.7003
561	0.6174
570	0.5784
579	0.4488
588	0.5623
597	0.7682
606	0.773
615	0.7945
624	0.8744
633	0.8488
642	0.8139
651	0.7033
660	0.6077
669	0.6262
678	0.4462
687	0.6421
696	0.4227
705	0.4396
714	0.7508
723	0.6636
732	0.7367
741	0.7849
750	0.7926
759	0.6042
768	0.5596
777	0.3594
786	0.3072
795	0.8045
804	0.6025
813	0.6338
822	0.4269
831	0.7314
840	0.714
849	0.8648
858	0.8648
867	0.7575
876	0.6256
885	0.7367
894	0.8054
903	0.8485
912	0.8523
921	0.7758
930	0.7986
939	0.8584
948	0.8675
957	0.8528
966	0.8557
975	0.8437
984	0.8354
993	0.7803
1002	0.8484
1011	0.8554
1020	0.8112
1029	0.8395
1038	0.7896
1047	0.7686
1056	0.8149
1065	0.8047
1074	0.7594
1083	0.4882
1092	0.5477
1101	0.7687
1110	0.7839
1119	0.7815
1128	0.7706
1137	0.7654
1146	0.7141
1155	0.5945
1164	0.1599
1173	0.0951
1182	0.7112
1191	0.545
1200	0.776
1209	0.7961
1218	0.7362
1227	0.7871
1236	0.8161
1245	0.7985
1254	0.7675
1263	0.6871
1272	0.7026
1281	0.7153
1290	0.6396
1299	0.5008
1308	0.4439
1317	0.481
1326	0.254
1335	0.1466
1344	0.0696
1353	0.0483
1362	0.0721
1371	0.3444
1380	0.4709
1389	0.5601
1398	0.4686
1407	0.318
1416	0.269
1425	0.3462
1434	0.6518
1443	0.6851
1452	0.6575
1461	0.7099
1470	0.7075
1479	0.6919
1488	0.6379
1497	0.529
1506	0.4576
1515	0.365
1524	0.0897
1533	0.1518
1542	0.1944
1551	0.5889
1560	0.6967
1569	0.5585
1578	0.254
1587	0.4757
1596	0.5608
1605	0.7455
1614	0.7558
1623	0.7539
1632	0.8746
1641	0.8821
1650	0.8777
1659	0.8608
1668	0.8596
1677	0.8558
1686	0.8504
1695	0.8434
1704	0.8347
1713	0.826
1722	0.8095
1731	0.8142
1740	0.8084
1749	0.7955
1758	0.7954
1767	0.7932
1776	0.7835
1785	0.7817
1794	0.7796
1803	0.7715
1812	0.7643
1821	0.7567
1830	0.7534
1839	0.7542
1848	0.7558
1857	0.7499
1866	0.745
1875	0.741
1884	0.7384
1893	0.7365
1902	0.7331
1911	0.7261
1920	0.7162
1929	0.7043
1938	0.7015
1947	0.7108
1956	0.7094
1965	0.701
1974	0.701
1983	0.6974
1992	0.6865
2001	0.6947
2010	0.7058
2019	0.7049
2028	0.7014
2037	0.6978
2046	0.6943
2055	0.6906
2064	0.6875
2073	0.6833
2082	0.6771
2091	0.6708
2100	0.6654
2109	0.6601
2118	0.6544
2127	0.6484
2136	0.6425
2145	0.6367
2154	0.631
2163	0.6259
2172	0.6212
2181	0.6165
2190	0.6116
2199	0.6062
2208	0.601
2217	0.5948
2226	0.5885
2235	0.5822
2244	0.5762
2253	0.5704
2262	0.5645
2271	0.5585
2280	0.5526
2289	0.5466
2298	0.5407
2307	0.5348
2316	0.5299
2325	0.5269
2334	0.526
2343	0.5257
2352	0.5256
2361	0.5248
2370	0.5238
2379	0.522
2388	0.5195
2397	0.5165
2406	0.5143
2415	0.5123
2424	0.5099
2433	0.5074
2442	0.5048
2451	0.5023
2460	0.4997
2469	0.4976
2478	0.4955
2487	0.4933
2496	0.4912
2505	0.489
2514	0.487
2523	0.4849
2532	0.4829
2541	0.4804
2550	0.4774
2559	0.4744
2568	0.4714
2577	0.4684
2586	0.4654
2595	0.4624
2604	0.4597
2613	0.4569
2622	0.454
2631	0.451
2640	0.4481
2649	0.4451
2658	0.4421
2667	0.4389
2676	0.4357
2685	0.4325
2694	0.4295
2703	0.4265
2712	0.4236
2721	0.4206
2730	0.4171
2739	0.4132
2748	0.4095
2757	0.4056
2766	0.4016
2775	0.3975
2784	0.3934
2793	0.3895
2802	0.3862
2811	0.383
2820	0.3798
2829	0.3764
2838	0.373
2847	0.368
2856	0.3622
2865	0.3578
2874	0.3578
2883	0.3582
2892	0.3582
2901	0.3562
2910	0.3516
2919	0.3448
2928	0.3364
2937	0.334
2946	0.3325
2955	0.3312
2964	0.3306
2973	0.3306
2982	0.3307
2991	0.3309
3000	0.3308
3009	0.3299
3018	0.3262
3027	0.32
3036	0.3145
3045	0.3088
3054	0.3016
3063	0.294
3072	0.2865
3081	0.2764
3090	0.2678
3099	0.2833
3108	0.2957
3117	0.2998
3126	0.3026
3135	0.304
3144	0.3032
3153	0.2991
3162	0.294
3171	0.2884
3180	0.2828
3189	0.2762
3198	0.2696
3207	0.2615
3216	0.2522
3225	0.241
3234	0.2269
3243	0.207
3252	0.1765
3261	0.1295
3270	0.1156
3279	0.1444
3288	0.2252
3297	0.2937
3306	0.3198
3315	0.3176
3324	0.3149
3333	0.3123
3342	0.3087
3351	0.3049
3360	0.301
3369	0.2974
3378	0.2953
3387	0.2931
3396	0.2906
3405	0.2877
3414	0.2849
3423	0.282
3432	0.2792
3441	0.277
3450	0.2749
3459	0.2727
3468	0.2706
3477	0.2684
3486	0.2663
3495	0.2641
3504	0.2632
3513	0.2627
3522	0.2628
3531	0.2631
3540	0.2626
3549	0.2609
3558	0.2585
3567	0.2553
3576	0.2514
3585	0.2474
3594	0.2434
3603	0.2416
3612	0.2408
3621	0.2401
3630	0.2394
3639	0.2388
3648	0.2382
3657	0.2374
3666	0.2366
3675	0.2358
3684	0.235
3693	0.2342
3702	0.2334
3711	0.2325
3720	0.2316
3729	0.2305
3738	0.2295
3747	0.2289
3756	0.2287
3765	0.2279
3774	0.2267
3783	0.2241
3792	0.2216
