Infrared Spectrum: 1-ISOPROPENYL-2-BENZIMIDAZOLINONE
Formula: C10 H10 N2 O
CAS: 52099-72-6
State: SOLID (KBr PELLET)
Melting point: 123 C
Class: COBLENTZ
Instrument: Not specified, most likely a prism, grating, or hybrid spectrometer.
Sampling: TRANSMISSION
Resolution: 4
Origin: TENNESSEE EASTMAN COMPANY, RESEARCH LABORATORIES
MICROMETERS	TRANSMITTANCE
2.02	0.507
2.06086	0.502
2.10172	0.497
2.14258	0.494
2.18343	0.49
2.22429	0.488
2.26515	0.488
2.30601	0.488
2.34687	0.488
2.38773	0.487
2.42859	0.485
2.46944	0.487
2.5103	0.487
2.55116	0.488
2.59202	0.49
2.63288	0.492
2.67374	0.495
2.7146	0.5
2.75545	0.456
2.79631	0.429
2.83717	0.388
2.87803	0.369
2.91889	0.362
2.95975	0.369
3.0006	0.407
3.04146	0.412
3.08232	0.391
3.12318	0.318
3.16404	0.27
3.2049	0.257
3.24576	0.272
3.28661	0.284
3.32747	0.328
3.36833	0.379
3.40919	0.388
3.45005	0.454
3.49091	0.451
3.53177	0.483
3.57262	0.55
3.61348	0.538
3.65434	0.611
3.6952	0.606
3.73606	0.614
3.77692	0.667
3.81778	0.678
3.85863	0.695
3.89949	0.703
3.94035	0.708
3.98121	0.72
4.02207	0.734
4.06293	0.742
4.10379	0.749
4.14464	0.758
4.1855	0.761
4.22636	0.759
4.26722	0.761
4.30808	0.768
4.34894	0.798
4.3898	0.804
4.43065	0.81
4.47151	0.814
4.51237	0.817
4.55323	0.822
4.59409	0.833
4.63495	0.838
4.6758	0.844
4.71666	0.85
4.75752	0.851
4.79838	0.858
4.83924	0.865
4.8801	0.867
4.92096	0.873
4.96181	0.875
5.00267	0.889
5.04353	0.889
5.08439	0.892
5.12525	0.894
5.16611	0.872
5.20697	0.899
5.24782	0.901
5.28868	0.901
5.32954	0.89
5.3704	0.897
5.41126	0.892
5.45212	0.889
5.49298	0.899
5.53383	0.899
5.57469	0.897
5.61555	0.863
5.65641	0.839
5.69727	0.807
5.73813	0.761
5.77899	0.672
5.81984	0.4
5.8607	0.073
5.90156	0.028
5.94242	0.274
5.98328	0.536
6.02414	0.497
6.065	0.633
6.10585	0.778
6.14671	0.618
6.18757	0.741
6.22843	0.821
6.26929	0.911
6.31015	0.906
6.351	0.913
6.39186	0.911
6.43272	0.918
6.47358	0.921
6.51444	0.923
6.5553	0.908
6.59616	0.906
6.63701	0.834
6.67787	0.63
6.71873	0.206
6.75959	0.528
6.80045	0.773
6.84131	0.814
6.88217	0.763
6.92302	0.746
6.96388	0.591
7.00474	0.563
7.0456	0.666
7.08646	0.701
7.12732	0.458
7.16818	0.183
7.20903	0.321
7.24989	0.729
7.29075	0.606
7.33161	0.65
7.37247	0.872
7.41333	0.928
7.45419	0.959
7.49504	0.988
7.5359	0.982
7.57676	0.989
7.61762	0.988
7.65848	0.827
7.69934	0.776
7.7402	0.872
7.78105	0.916
7.82191	0.923
7.86277	0.926
7.90363	0.824
7.94449	0.494
7.98535	0.689
8.0262	0.851
8.06706	0.894
8.10792	0.908
8.14878	0.913
8.18964	0.916
8.2305	0.921
8.27136	0.882
8.31221	0.797
8.35307	0.478
8.39393	0.395
8.43479	0.659
8.47565	0.785
8.51651	0.821
8.55737	0.841
8.59822	0.844
8.63908	0.781
8.67994	0.851
8.7208	0.887
8.76166	0.901
8.80252	0.896
8.84338	0.821
8.88423	0.545
8.92509	0.7
8.96595	0.855
9.00681	0.875
9.04767	0.683
9.08853	0.703
9.12939	0.831
9.17024	0.846
9.2111	0.851
9.25196	0.855
9.29282	0.858
9.33368	0.856
9.37454	0.86
9.4154	0.86
9.45625	0.86
9.49711	0.824
9.53797	0.81
9.57883	0.838
9.61969	0.848
9.66055	0.85
9.7014	0.817
9.74226	0.798
9.78312	0.833
9.82398	0.826
9.86484	0.787
9.9057	0.839
9.94656	0.855
9.98741	0.862
10.0283	0.865
10.0691	0.87
10.11	0.875
10.1508	0.877
10.1917	0.882
10.2326	0.873
10.2734	0.846
10.3143	0.862
10.3551	0.88
10.396	0.89
10.4369	0.896
10.4777	0.896
10.5186	0.896
10.5594	0.896
10.6003	0.896
10.6412	0.89
10.682	0.877
10.7229	0.856
10.7637	0.802
10.8046	0.616
10.8454	0.412
10.8863	0.681
10.9272	0.756
10.968	0.591
11.0089	0.521
11.0497	0.724
11.0906	0.793
11.1315	0.821
11.1723	0.824
11.2132	0.672
11.254	0.55
11.2949	0.741
11.3357	0.827
11.3766	0.862
11.4175	0.87
11.4583	0.88
11.4992	0.889
11.54	0.89
11.5809	0.89
11.6218	0.892
11.6626	0.892
11.7035	0.89
11.7443	0.889
11.7852	0.872
11.826	0.846
11.8669	0.802
11.9078	0.804
11.9486	0.826
11.9895	0.872
12.0303	0.884
12.0712	0.882
12.1121	0.882
12.1529	0.88
12.1938	0.873
12.2346	0.862
12.2755	0.86
12.3164	0.848
12.3572	0.843
12.3981	0.829
12.4389	0.814
12.4798	0.797
12.5206	0.78
12.5615	0.754
12.6024	0.73
12.6432	0.706
12.6841	0.695
12.7249	0.671
12.7658	0.654
12.8067	0.637
12.8475	0.62
12.8884	0.613
12.9292	0.604
12.9701	0.594
13.0109	0.546
13.0518	0.405
13.0927	0.379
13.1335	0.582
13.1744	0.671
13.2152	0.662
13.2561	0.517
13.297	0.354
13.3378	0.31
13.3787	0.229
13.4195	0.143
13.4604	0.202
13.5012	0.381
13.5421	0.471
13.583	0.461
13.6238	0.4
13.6647	0.393
13.7055	0.482
13.7464	0.58
13.7873	0.666
13.8281	0.7
13.869	0.689
13.9098	0.643
13.9507	0.686
13.9916	0.746
14.0324	0.802
14.0733	0.829
14.1141	0.846
14.155	0.858
14.1958	0.872
14.2367	0.875
14.2776	0.879
14.3184	0.879
14.3593	0.877
14.4001	0.868
14.441	0.851
14.4819	0.821
14.5227	0.773
14.5636	0.678
14.6044	0.557
14.6453	0.431
14.6861	0.342
14.727	0.32
14.7679	0.357
14.8087	0.482
14.8496	0.599
14.8904	0.678
14.9313	0.73
14.9722	0.77
15.013	0.804
15.0539	0.838
15.0947	0.853
15.1356	0.86
15.1764	0.86
15.2173	0.865
15.2582	0.868
15.299	0.868
15.3399	0.87
15.3807	0.872
15.4216	0.87
15.4625	0.868
15.5033	0.867
15.5442	0.863
15.585	0.843
15.6259	0.822
15.6668	0.797
15.7076	0.78
15.7485	0.768
15.7893	0.764
15.8302	0.764
15.871	0.768
15.9119	0.768
15.9528	0.764
