Infrared Spectrum: 17Beta-HYDROXY-5Alpha-ANDROSTAN-3-ONE
Formula: C19 H30 O2
CAS: 521-18-6
State: SOLID (KBr DISC)
Class: COBLENTZ III
Instrument: BECKMAN IR-7
Sampling: TRANSMISSION
Resolution: 4
Origin: THE WORCESTER FOUNDATION FOR EXPERIMENTAL BIOLOGY, Neal L. McNiven
1/CM	TRANSMITTANCE
600	0.599
608.745	0.556
617.491	0.585
626.236	0.614
634.982	0.663
643.727	0.704
652.473	0.746
661.218	0.79
669.964	0.832
678.709	0.851
687.454	0.846
696.2	0.865
704.945	0.91
713.691	0.92
722.436	0.927
731.182	0.926
739.927	0.912
748.673	0.946
757.418	0.947
766.163	0.923
774.909	0.948
783.654	0.963
792.4	0.96
801.145	0.949
809.891	0.952
818.636	0.905
827.382	0.912
836.127	0.953
844.872	0.956
853.618	0.965
862.363	0.97
871.109	0.926
879.854	0.921
888.6	0.953
897.345	0.918
906.091	0.931
914.836	0.888
923.581	0.926
932.327	0.906
941.072	0.913
949.818	0.794
958.563	0.865
967.309	0.835
976.054	0.86
984.8	0.844
993.545	0.791
1002.29	0.786
1011.04	0.701
1019.78	0.6351
1028.53	0.5549
1037.27	0.631
1046.02	0.431
1054.76	0.558
1063.51	0.523
1072.25	0.5671
1081	0.667
1089.74	0.775
1098.49	0.7091
1107.24	0.744
1115.98	0.678
1124.73	0.672
1133.47	0.593
1142.22	0.749
1150.96	0.757
1159.71	0.778
1168.45	0.775
1177.2	0.828
1185.94	0.78
1194.69	0.844
1203.44	0.802
1212.18	0.801
1220.93	0.769
1229.67	0.74
1238.42	0.792
1247.16	0.775
1255.91	0.789
1264.65	0.781
1273.4	0.583
1282.14	0.796
1290.89	0.7811
1299.64	0.755
1308.38	0.614
1317.13	0.667
1325.87	0.575
1334.62	0.693
1343.36	0.725
1352.11	0.722
1360.85	0.7559
1369.6	0.744
1378.34	0.693
1387.09	0.716
1395.84	0.772
1404.58	0.715
1413.33	0.633
1422.07	0.693
1430.82	0.599
1439.56	0.485
1448.31	0.583
1457.05	0.707
1465.8	0.619
1474.54	0.83
1483.29	0.865
1492.04	0.889
1500.78	0.898
1509.53	0.905
1518.27	0.91
1527.02	0.915
1535.76	0.918
1544.51	0.921
1553.25	0.923
1562	0.923
1570.74	0.922
1579.49	0.916
1588.24	0.91
1596.98	0.906
1605.73	0.901
1614.47	0.892
1623.22	0.881
1631.96	0.858
1640.71	0.842
1649.45	0.806
1658.2	0.771
1666.94	0.749
1675.69	0.66
1684.44	0.3811
1693.18	0.058
1701.93	0.266
1710.67	0.548
1719.42	0.722
1728.16	0.795
1736.91	0.836
1745.65	0.883
1754.4	0.907
1763.14	0.92
1771.89	0.926
1780.64	0.934
1789.38	0.939
1798.13	0.945
1806.87	0.949
1815.62	0.954
1824.36	0.954
1833.11	0.952
1841.85	0.951
1850.6	0.952
1859.34	0.955
1868.09	0.956
1876.83	0.955
1885.58	0.955
1894.33	0.954
1903.07	0.954
1911.82	0.954
1920.56	0.953
1929.31	0.952
1938.05	0.952
1946.8	0.952
1955.54	0.952
1964.29	0.952
1973.03	0.952
1981.78	0.952
1990.53	0.952
1999.27	0.951
2008.02	0.951
2016.76	0.951
2025.51	0.951
2034.25	0.95
2043	0.949
2051.74	0.949
2060.49	0.948
2069.23	0.947
2077.98	0.9462
2086.73	0.9452
2095.47	0.945
2104.22	0.944
2112.96	0.944
2121.71	0.943
2130.45	0.943
2139.2	0.943
2147.94	0.943
2156.69	0.943
2165.43	0.942
2174.18	0.941
2182.93	0.941
2191.67	0.941
2200.42	0.9381
2209.16	0.936
2217.91	0.934
2226.65	0.9311
2235.4	0.9301
2244.14	0.9281
2252.89	0.928
2261.63	0.9261
2270.38	0.9241
2279.13	0.923
2287.87	0.922
2296.62	0.92
2305.36	0.92
2314.11	0.919
2322.85	0.918
2331.6	0.917
2340.34	0.915
2349.09	0.915
2357.83	0.913
2366.58	0.912
2375.33	0.911
2384.07	0.909
2392.82	0.907
2401.56	0.906
2410.31	0.905
2419.05	0.904
2427.8	0.903
2436.54	0.9019
2445.29	0.8999
2454.03	0.899
2462.78	0.898
2471.53	0.897
2480.27	0.897
2489.02	0.8959
2497.76	0.894
2506.51	0.8929
2515.25	0.891
2524	0.8899
2532.74	0.888
2541.49	0.886
2550.23	0.885
2558.98	0.8829
2567.73	0.8776
2576.47	0.873
2585.22	0.8708
2593.96	0.8677
2602.71	0.8598
2611.45	0.857
2620.2	0.8548
2628.94	0.852
2637.69	0.8488
2646.43	0.8427
2655.18	0.833
2663.92	0.8318
2672.67	0.83
2681.42	0.829
2690.16	0.8292
2698.91	0.8312
2707.65	0.833
2716.4	0.8333
2725.14	0.8353
2733.89	0.836
2742.63	0.8357
2751.38	0.8347
2760.12	0.8321
2768.87	0.8228
2777.62	0.8099
2786.36	0.784
2795.11	0.7502
2803.85	0.6925
2812.6	0.6069
2821.34	0.5183
2830.09	0.3485
2838.83	0.283
2847.58	0.2948
2856.32	0.3188
2865.07	0.3372
2873.82	0.359
2882.56	0.3403
2891.31	0.2683
2900.05	0.2194
2908.8	0.137
2917.54	0.1666
2926.29	0.2024
2935.03	0.2398
2943.78	0.292
2952.52	0.265
2961.27	0.4916
2970.02	0.6098
2978.76	0.6779
2987.51	0.7253
2996.25	0.7593
3005	0.7718
3013.74	0.7885
3022.49	0.7915
3031.23	0.794
3039.98	0.798
3048.72	0.8025
3057.47	0.8055
3066.22	0.8075
3074.96	0.807
3083.71	0.807
3092.45	0.8055
3101.2	0.8035
3109.94	0.803
3118.69	0.803
3127.43	0.802
3136.18	0.801
3144.92	0.7994
3153.67	0.7964
3162.42	0.7944
3171.16	0.7924
3179.91	0.791
3188.65	0.7884
3197.4	0.7874
3206.14	0.7854
3214.89	0.7824
3223.63	0.778
3232.38	0.7754
3241.12	0.7707
3249.87	0.7654
3258.62	0.7597
3267.36	0.7544
3276.11	0.7497
3284.85	0.7393
3293.6	0.7337
3302.34	0.7287
3311.09	0.7186
3319.83	0.7056
3328.58	0.6926
3337.32	0.6751
3346.07	0.6475
3354.82	0.6185
3363.56	0.5935
3372.31	0.5386
3381.05	0.4957
3389.8	0.4494
3398.54	0.3873
3407.29	0.3375
3416.03	0.3182
3424.78	0.3142
3433.52	0.3069
3442.27	0.3012
3451.01	0.3045
3459.76	0.3289
3468.51	0.3669
3477.25	0.4169
3486	0.4764
3494.74	0.5424
3503.49	0.5813
3512.23	0.6026
3520.98	0.6412
3529.72	0.6863
3538.47	0.7042
3547.21	0.726
3555.96	0.7413
3564.71	0.7583
3573.45	0.7689
3582.2	0.7739
3590.94	0.7808
3599.69	0.7878
3608.43	0.7919
3617.18	0.7969
3625.92	0.799
3634.67	0.8029
3643.41	0.8039
3652.16	0.804
3660.91	0.806
3669.65	0.8069
3678.4	0.806
3687.14	0.805
3695.89	0.802
3704.63	0.8
3713.38	0.802
3722.12	0.806
3730.87	0.811
3739.61	0.812
3748.36	0.812
3757.11	0.812
3765.85	0.809
3774.6	0.809
3783.34	0.809
3792.09	0.809
3800.83	0.809
3809.58	0.808
3818.32	0.807
3827.07	0.804
3835.81	0.803
3844.56	0.802
3853.31	0.801
3862.05	0.7999
3870.8	0.7959
3879.54	0.794
3888.29	0.792
3897.03	0.791
3905.78	0.791
3914.52	0.791
3923.27	0.7909
3932.01	0.7899
3940.76	0.7877
3949.51	0.7839
3958.25	0.7829
3967	0.7819
3975.74	0.78
3984.49	0.7788
3993.23	0.778
4001.98	0.778
4010.72	0.778
