Infrared Spectrum: 3-AMINOPHTHALHYDRAZIDE
Formula: C8 H7 N3 O2
CAS: 521-31-3
State: SOLID (MINERAL OIL MULL)
Class: COBLENTZ
Instrument: Not specified, most likely a prism, grating, or hybrid spectrometer.
Sampling: TRANSMISSION
Resolution: 4
Origin: DOW CHEMICAL COMPANY
MICROMETERS	TRANSMITTANCE
2.027	0.804
2.06715	0.809
2.10731	0.814
2.14746	0.82
2.18762	0.825
2.22777	0.824
2.26792	0.819
2.30808	0.819
2.34823	0.825
2.38838	0.83
2.42854	0.837
2.46869	0.844
2.50885	0.86
2.549	0.864
2.58915	0.871
2.62931	0.876
2.66946	0.882
2.70961	0.881
2.74977	0.85
2.78992	0.81
2.83008	0.748
2.87023	0.621
2.91038	0.556
2.95054	0.616
2.99069	0.596
3.03084	0.591
3.071	0.603
3.11115	0.557
3.15131	0.502
3.19146	0.485
3.23161	0.47
3.27177	0.437
3.31192	0.396
3.35207	0.299
3.39223	0.078
3.43238	0.078
3.47254	0.152
3.51269	0.346
3.55284	0.581
3.593	0.639
3.63315	0.673
3.6733	0.68
3.71346	0.68
3.75361	0.688
3.79377	0.71
3.83392	0.726
3.87407	0.73
3.91423	0.743
3.95438	0.763
3.99453	0.783
4.03469	0.8
4.07484	0.812
4.115	0.829
4.15515	0.83
4.1953	0.842
4.23546	0.85
4.27561	0.867
4.31576	0.876
4.35592	0.877
4.39607	0.882
4.43623	0.887
4.47638	0.889
4.51653	0.894
4.55669	0.899
4.59684	0.906
4.63699	0.906
4.67715	0.907
4.7173	0.911
4.75746	0.916
4.79761	0.921
4.83776	0.927
4.87792	0.931
4.91807	0.934
4.95822	0.936
4.99838	0.946
5.03853	0.948
5.07869	0.944
5.11884	0.938
5.15899	0.936
5.19915	0.939
5.2393	0.949
5.27945	0.948
5.31961	0.946
5.35976	0.946
5.39992	0.946
5.44007	0.946
5.48022	0.949
5.52038	0.948
5.56053	0.946
5.60068	0.944
5.64084	0.938
5.68099	0.924
5.72115	0.919
5.7613	0.907
5.80145	0.896
5.84161	0.874
5.88176	0.847
5.92191	0.822
5.96207	0.762
6.00222	0.536
6.04238	0.286
6.08253	0.36
6.12268	0.499
6.16284	0.474
6.20299	0.44
6.24314	0.435
6.2833	0.463
6.32345	0.494
6.36361	0.564
6.40376	0.587
6.44391	0.604
6.48407	0.631
6.52422	0.671
6.56437	0.683
6.60453	0.673
6.64468	0.556
6.68484	0.286
6.72499	0.293
6.76514	0.509
6.8053	0.482
6.84545	0.405
6.8856	0.36
6.92576	0.485
6.96591	0.604
7.00607	0.649
7.04622	0.649
7.08637	0.656
7.12653	0.705
7.16668	0.731
7.20683	0.68
7.24699	0.556
7.28714	0.559
7.3273	0.649
7.36745	0.639
7.4076	0.599
7.44776	0.601
7.48791	0.529
7.52806	0.39
7.56822	0.358
7.60837	0.49
7.64853	0.551
7.68868	0.519
7.72883	0.489
7.76899	0.614
7.80914	0.715
7.84929	0.773
7.88945	0.804
7.9296	0.82
7.96976	0.822
8.00991	0.772
8.05006	0.75
8.09022	0.798
8.13037	0.827
8.17052	0.834
8.21068	0.842
8.25083	0.84
8.29099	0.819
8.33114	0.807
8.37129	0.812
8.41145	0.837
8.4516	0.849
8.49175	0.842
8.53191	0.817
8.57206	0.83
8.61222	0.855
8.65237	0.864
8.69252	0.871
8.73268	0.876
8.77283	0.876
8.81298	0.876
8.85314	0.877
8.89329	0.882
8.93345	0.882
8.9736	0.881
9.01375	0.871
9.05391	0.847
9.09406	0.812
9.13422	0.797
9.17437	0.797
9.21452	0.824
9.25468	0.837
9.29483	0.852
9.33498	0.864
9.37514	0.872
9.41529	0.879
9.45545	0.871
9.4956	0.842
9.53575	0.817
9.57591	0.834
9.61606	0.864
9.65621	0.874
9.69637	0.879
9.73652	0.881
9.77668	0.881
9.81683	0.876
9.85698	0.874
9.89714	0.879
9.93729	0.896
9.97744	0.897
10.0176	0.899
10.0578	0.901
10.0979	0.901
10.1381	0.897
10.1782	0.897
10.2184	0.897
10.2585	0.897
10.2987	0.896
10.3388	0.896
10.379	0.891
10.4191	0.879
10.4593	0.852
10.4994	0.812
10.5396	0.787
10.5798	0.798
10.6199	0.83
10.6601	0.847
10.7002	0.855
10.7404	0.857
10.7805	0.857
10.8207	0.855
10.8608	0.857
10.901	0.859
10.9411	0.859
10.9813	0.86
11.0214	0.859
11.0616	0.855
11.1017	0.852
11.1419	0.845
11.1821	0.835
11.2222	0.827
11.2624	0.819
11.3025	0.815
11.3427	0.817
11.3828	0.817
11.423	0.814
11.4631	0.807
11.5033	0.797
11.5434	0.79
11.5836	0.78
11.6237	0.77
11.6639	0.76
11.7041	0.753
11.7442	0.747
11.7844	0.74
11.8245	0.731
11.8647	0.721
11.9048	0.71
11.945	0.701
11.9851	0.691
12.0253	0.678
12.0654	0.663
12.1056	0.641
12.1457	0.616
12.1859	0.577
12.2261	0.534
12.2662	0.519
12.3064	0.507
12.3465	0.492
12.3867	0.524
12.4268	0.591
12.467	0.641
12.5071	0.666
12.5473	0.685
12.5874	0.688
12.6276	0.68
12.6677	0.644
12.7079	0.599
12.7481	0.582
12.7882	0.599
12.8284	0.643
12.8685	0.656
12.9087	0.659
12.9488	0.659
12.989	0.661
13.0291	0.69
13.0693	0.701
13.1094	0.716
13.1496	0.726
13.1897	0.73
13.2299	0.731
13.2701	0.737
13.3102	0.737
13.3504	0.737
13.3905	0.737
13.4307	0.733
13.4708	0.73
13.511	0.725
13.5511	0.72
13.5913	0.716
13.6314	0.713
13.6716	0.706
13.7117	0.701
13.7519	0.696
13.7921	0.691
13.8322	0.688
13.8724	0.683
13.9125	0.681
13.9527	0.681
13.9928	0.68
14.033	0.676
14.0731	0.666
14.1133	0.653
14.1534	0.628
14.1936	0.599
14.2337	0.576
14.2739	0.572
14.314	0.586
14.3542	0.616
14.3944	0.638
14.4345	0.646
14.4747	0.649
14.5148	0.648
14.555	0.644
14.5951	0.639
14.6353	0.631
14.6754	0.624
14.7156	0.619
14.7557	0.611
14.7959	0.604
14.836	0.596
14.8762	0.586
14.9164	0.577
14.9565	0.571
14.9967	0.561
15.0368	0.556
15.077	0.551
15.1171	0.542
15.1573	0.534
15.1974	0.525
15.2376	0.515
15.2777	0.505
15.3179	0.492
15.358	0.477
15.3982	0.46
15.4384	0.448
15.4785	0.438
15.5187	0.433
15.5588	0.427
15.599	0.422
15.6391	0.417
15.6793	0.41
15.7194	0.4
15.7596	0.393
15.7997	0.391
15.8399	0.39
15.88	0.388
15.9202	0.385
