Infrared Spectrum: 5,7-DIBROMO-8-QUINOLINOL
Formula: C9 H5 Br2 N O
CAS: 521-74-4
State: SOLID (MINERAL OIL MULL)
Melting point: 198-200 C
Class: COBLENTZ
Instrument: Not specified, most likely a prism, grating, or hybrid spectrometer.
Sampling: TRANSMISSION
Resolution: 4
Origin: WYANDOTTE CHEMICALS CORP., WYANDOTTE, MICHIGAN, USA
MICROMETERS	TRANSMITTANCE
2.019	0.283
2.05617	0.294
2.09334	0.299
2.1305	0.31
2.16767	0.306
2.20484	0.31
2.24201	0.322
2.27918	0.336
2.31634	0.341
2.35351	0.344
2.39068	0.35
2.42785	0.364
2.46502	0.365
2.50219	0.382
2.53935	0.403
2.57652	0.396
2.61369	0.423
2.65086	0.431
2.68803	0.431
2.72519	0.44
2.76236	0.446
2.79953	0.443
2.8367	0.438
2.87387	0.432
2.91103	0.426
2.9482	0.41
2.98537	0.417
3.02254	0.37
3.05971	0.308
3.09687	0.255
3.13404	0.224
3.17121	0.204
3.20838	0.19
3.24555	0.181
3.28272	0.164
3.31988	0.085
3.35705	0.021
3.39422	0.015
3.43139	0.034
3.46856	0.035
3.50572	0.114
3.54289	0.285
3.58006	0.348
3.61723	0.379
3.6544	0.386
3.69156	0.403
3.72873	0.417
3.7659	0.438
3.80307	0.462
3.84024	0.479
3.8774	0.486
3.91457	0.505
3.95174	0.524
3.98891	0.527
4.02608	0.539
4.06325	0.564
4.10041	0.565
4.13758	0.584
4.17475	0.586
4.21192	0.582
4.24909	0.551
4.28625	0.593
4.32342	0.632
4.36059	0.671
4.39776	0.68
4.43493	0.668
4.47209	0.68
4.50926	0.696
4.54643	0.705
4.5836	0.711
4.62077	0.719
4.65794	0.725
4.6951	0.748
4.73227	0.758
4.76944	0.762
4.80661	0.762
4.84378	0.772
4.88094	0.784
4.91811	0.793
4.95528	0.796
4.99245	0.804
5.02962	0.82
5.06678	0.826
5.10395	0.796
5.14112	0.829
5.17829	0.81
5.21546	0.826
5.25262	0.848
5.28979	0.826
5.32696	0.875
5.36413	0.866
5.4013	0.908
5.43847	0.88
5.47563	0.888
5.5128	0.917
5.54997	0.905
5.58714	0.899
5.62431	0.891
5.66147	0.914
5.69864	0.889
5.73581	0.829
5.77298	0.903
5.81015	0.922
5.84731	0.888
5.88448	0.939
5.92165	0.897
5.95882	0.905
5.99599	0.902
6.03315	0.91
6.07032	0.9
6.10749	0.902
6.14466	0.798
6.18183	0.708
6.219	0.801
6.25616	0.598
6.29333	0.658
6.3305	0.607
6.36767	0.789
6.40484	0.872
6.442	0.86
6.47917	0.885
6.51634	0.865
6.55351	0.934
6.59068	0.803
6.62784	0.468
6.66501	0.19
6.70218	0.362
6.73935	0.387
6.77652	0.168
6.81368	0.094
6.85085	0.198
6.88802	0.331
6.92519	0.412
6.96236	0.534
6.99953	0.528
7.03669	0.48
7.07386	0.355
7.11103	0.207
7.1482	0.136
7.18537	0.201
7.22253	0.164
7.2597	0.158
7.29687	0.108
7.33404	0.337
7.37121	0.387
7.40837	0.308
7.44554	0.206
7.48271	0.133
7.51988	0.193
7.55705	0.306
7.59421	0.429
7.63138	0.527
7.66855	0.586
7.70572	0.637
7.74289	0.649
7.78006	0.539
7.81722	0.31
7.85439	0.235
7.89156	0.443
7.92873	0.578
7.9659	0.603
8.00306	0.564
8.04023	0.609
8.0774	0.631
8.11457	0.675
8.15174	0.555
8.1889	0.491
8.22607	0.446
8.26324	0.384
8.30041	0.13
8.33758	0.231
8.37474	0.389
8.41191	0.472
8.44908	0.527
8.48625	0.539
8.52342	0.565
8.56059	0.618
8.59775	0.657
8.63492	0.654
8.67209	0.646
8.70926	0.573
8.74643	0.403
8.78359	0.417
8.82076	0.629
8.85793	0.694
8.8951	0.711
8.93227	0.714
8.96943	0.719
9.0066	0.72
9.04377	0.73
9.08094	0.736
9.11811	0.722
9.15528	0.663
9.19244	0.696
9.22961	0.716
9.26678	0.734
9.30395	0.756
9.34112	0.767
9.37828	0.778
9.41545	0.793
9.45262	0.796
9.48979	0.747
9.52696	0.528
9.56412	0.634
9.60129	0.75
9.63846	0.79
9.67563	0.813
9.7128	0.815
9.74996	0.807
9.78713	0.827
9.8243	0.854
9.86147	0.882
9.89864	0.886
9.93581	0.903
9.97297	0.919
10.0101	0.931
10.0473	0.922
10.0845	0.868
10.1216	0.894
10.1588	0.917
10.196	0.903
10.2331	0.913
10.2703	0.928
10.3075	0.937
10.3447	0.951
10.3818	0.973
10.419	0.968
10.4562	0.942
10.4933	0.911
10.5305	0.959
10.5677	0.972
10.6048	0.947
10.642	0.826
10.6792	0.517
10.7163	0.249
10.7535	0.317
10.7907	0.513
10.8278	0.668
10.865	0.737
10.9022	0.778
10.9393	0.817
10.9765	0.838
11.0137	0.863
11.0508	0.886
11.088	0.888
11.1252	0.891
11.1624	0.899
11.1995	0.905
11.2367	0.899
11.2739	0.903
11.311	0.9
11.3482	0.893
11.3854	0.865
11.4225	0.693
11.4597	0.375
11.4969	0.331
11.534	0.525
11.5712	0.575
11.6084	0.537
11.6455	0.488
11.6827	0.565
11.7199	0.672
11.757	0.725
11.7942	0.742
11.8314	0.784
11.8685	0.796
11.9057	0.81
11.9429	0.82
11.9801	0.829
12.0172	0.851
12.0544	0.863
12.0916	0.871
12.1287	0.86
12.1659	0.854
12.2031	0.86
12.2402	0.863
12.2774	0.834
12.3146	0.688
12.3517	0.35
12.3889	0.147
12.4261	0.364
12.4632	0.542
12.5004	0.644
12.5376	0.686
12.5747	0.708
12.6119	0.714
12.6491	0.696
12.6862	0.607
12.7234	0.364
12.7606	0.314
12.7977	0.652
12.8349	0.823
12.8721	0.863
12.9093	0.866
12.9464	0.88
12.9836	0.897
13.0208	0.916
13.0579	0.934
13.0951	0.948
13.1323	0.948
13.1694	0.962
13.2066	0.956
13.2438	0.965
13.2809	0.972
13.3181	0.97
13.3553	0.978
13.3924	0.972
13.4296	0.968
13.4668	0.959
13.5039	0.951
13.5411	0.93
13.5783	0.917
13.6154	0.885
13.6526	0.817
13.6898	0.703
13.727	0.57
13.7641	0.454
13.8013	0.395
13.8385	0.334
13.8756	0.395
13.9128	0.542
13.95	0.675
13.9871	0.767
14.0243	0.834
14.0615	0.869
14.0986	0.874
14.1358	0.875
14.173	0.866
14.2101	0.883
14.2473	0.919
14.2845	0.955
14.3216	0.976
14.3588	0.984
14.396	0.987
14.4331	0.986
14.4703	0.973
14.5075	0.95
14.5446	0.897
14.5818	0.813
14.619	0.708
14.6562	0.662
14.6933	0.703
14.7305	0.775
14.7677	0.851
14.8048	0.888
14.842	0.914
14.8792	0.92
14.9163	0.931
14.9535	0.92
14.9907	0.888
15.0278	0.824
15.065	0.786
15.1022	0.817
15.1393	0.848
15.1765	0.851
15.2137	0.829
15.2508	0.773
15.288	0.694
15.3252	0.589
15.3623	0.458
15.3995	0.376
15.4367	0.347
15.4739	0.412
15.511	0.503
15.5482	0.551
15.5854	0.593
15.6225	0.604
15.6597	0.627
15.6969	0.621
15.734	0.615
15.7712	0.593
15.8084	0.595
15.8455	0.596
15.8827	0.578
15.9199	0.57
15.957	0.559
15.9942	0.539
