Infrared Spectrum: 1,4-Dihydro-1,2,3,4,9,9-hexachloro-1,4-methanonaphthalene-5,8-diol
Formula: C11 H4 Cl6 O2
CAS: 5210-87-7
State: SOLID (SPLIT MULL)
Melting point: 185 C
Class: COBLENTZ III
Instrument: BECKMAN IR-9 (GRATING)
Instrument parameters: ORDER CHANGES: 670, 1200, 2000 CM^-^1
Sampling: TRANSMISSION
Resolution: 2
Origin: DOW CHEMICAL COMPANY
1/CM	TRANSMITTANCE
404	0.4568
413	0.4549
422	0.4873
431	0.546
440	0.6015
449	0.6395
458	0.6638
467	0.6821
476	0.6808
485	0.6753
494	0.6403
503	0.5656
512	0.6395
521	0.6182
530	0.6048
539	0.6291
548	0.663
557	0.7076
566	0.7545
575	0.7721
584	0.5017
593	0.6185
602	0.6881
611	0.7434
620	0.7789
629	0.8007
638	0.8105
647	0.8264
656	0.8144
665	0.816
674	0.7767
683	0.6812
692	0.5614
701	0.6116
710	0.2577
719	0.7375
728	0.7131
737	0.5598
746	0.3716
755	0.7189
764	0.723
773	0.7841
782	0.7661
791	0.531
800	0.2011
809	0.2288
818	0.2393
827	0.8121
836	0.861
845	0.8725
854	0.8817
863	0.8937
872	0.8878
881	0.8764
890	0.8603
899	0.8207
908	0.4591
917	0.4833
926	0.7999
935	0.75
944	0.8354
953	0.852
962	0.8475
971	0.8399
980	0.8368
989	0.8412
998	0.8302
1007	0.7918
1016	0.5702
1025	0.6009
1034	0.7508
1043	0.7553
1052	0.7093
1061	0.6757
1070	0.6994
1079	0.7231
1088	0.7162
1097	0.6192
1106	0.6618
1115	0.6331
1124	0.6083
1133	0.531
1142	0.3046
1151	0.1333
1160	0.5495
1169	0.1921
1178	0.4203
1187	0.6238
1196	0.7021
1205	0.7075
1214	0.7242
1223	0.706
1232	0.6299
1241	0.4655
1250	0.4279
1259	0.2318
1268	0.0698
1277	0.4277
1286	0.6112
1295	0.5771
1304	0.5749
1313	0.485
1322	0.354
1331	0.2307
1340	0.0798
1349	0.0667
1358	0.1299
1367	0.3171
1376	0.452
1385	0.5903
1394	0.6393
1403	0.6831
1412	0.7099
1421	0.7138
1430	0.6983
1439	0.7007
1448	0.6314
1457	0.6312
1466	0.6152
1475	0.4909
1484	0.0736
1493	0.0257
1502	0.3839
1511	0.7665
1520	0.771
1529	0.854
1538	0.8693
1547	0.8723
1556	0.8628
1565	0.8525
1574	0.8335
1583	0.8241
1592	0.7368
1601	0.3341
1610	0.7421
1619	0.7572
1628	0.7072
1637	0.7568
1646	0.7894
1655	0.8043
1664	0.8046
1673	0.8057
1682	0.8051
1691	0.8049
1700	0.8043
1709	0.8021
1718	0.7974
1727	0.7951
1736	0.7931
1745	0.7911
1754	0.7893
1763	0.7825
1772	0.7801
1781	0.7769
1790	0.774
1799	0.7708
1808	0.7681
1817	0.7655
1826	0.7633
1835	0.7607
1844	0.7561
1853	0.7485
1862	0.7325
1871	0.7325
1880	0.7499
1889	0.7528
1898	0.7497
1907	0.7468
1916	0.7426
1925	0.741
1934	0.7391
1943	0.7312
1952	0.7317
1961	0.7275
1970	0.7225
1979	0.7182
1988	0.7175
1997	0.7136
2006	0.7164
2015	0.7125
2024	0.7039
2033	0.6937
2042	0.6945
2051	0.6961
2060	0.6968
2069	0.6954
2078	0.6906
2087	0.686
2096	0.6821
2105	0.6781
2114	0.6739
2123	0.6697
2132	0.6655
2141	0.6611
2150	0.6561
2159	0.6511
2168	0.6461
2177	0.6411
2186	0.6368
2195	0.6323
2204	0.6304
2213	0.6294
2222	0.626
2231	0.6191
2240	0.6122
2249	0.605
2258	0.598
2267	0.5925
2276	0.5875
2285	0.5834
2294	0.5793
2303	0.5777
2312	0.5765
2321	0.5762
2330	0.5762
2339	0.5762
2348	0.5756
2357	0.5742
2366	0.572
2375	0.5695
2384	0.5666
2393	0.5632
2402	0.5587
2411	0.5545
2420	0.5505
2429	0.5494
2438	0.5519
2447	0.5569
2456	0.557
2465	0.5556
2474	0.5488
2483	0.5402
2492	0.5295
2501	0.5268
2510	0.5282
2519	0.5293
2528	0.5296
2537	0.5292
2546	0.5281
2555	0.527
2564	0.5258
2573	0.5245
2582	0.5226
2591	0.5204
2600	0.5179
2609	0.5149
2618	0.5119
2627	0.5089
2636	0.506
2645	0.5029
2654	0.4999
2663	0.4968
2672	0.4938
2681	0.4907
2690	0.4876
2699	0.4847
2708	0.4824
2717	0.48
2726	0.4776
2735	0.4752
2744	0.473
2753	0.4706
2762	0.4683
2771	0.4654
2780	0.465
2789	0.4651
2798	0.4651
2807	0.4629
2816	0.4605
2825	0.4573
2834	0.4541
2843	0.449
2852	0.4439
2861	0.4387
2870	0.4335
2879	0.4295
2888	0.427
2897	0.4255
2906	0.4242
2915	0.4226
2924	0.4197
2933	0.4171
2942	0.4145
2951	0.4117
2960	0.4089
2969	0.4062
2978	0.4039
2987	0.4014
2996	0.3991
3005	0.3958
3014	0.3927
3023	0.3894
3032	0.3845
3041	0.3798
3050	0.3754
3059	0.372
3068	0.3692
3077	0.3649
3086	0.3614
3095	0.3598
3104	0.3588
3113	0.358
3122	0.3546
3131	0.3489
3140	0.3428
3149	0.3368
3158	0.3308
3167	0.3242
3176	0.3178
3185	0.3098
3194	0.3016
3203	0.2938
3212	0.2866
3221	0.2794
3230	0.2722
3239	0.2628
3248	0.2511
3257	0.2407
3266	0.2312
3275	0.2216
3284	0.2119
3293	0.2013
3302	0.1907
3311	0.1799
3320	0.1691
3329	0.1577
3338	0.1456
3347	0.1327
3356	0.1195
3365	0.102
3374	0.073
3383	0.0593
3392	0.0481
3401	0.0409
3410	0.0391
3419	0.0402
3428	0.046
3437	0.0604
3446	0.0792
3455	0.1232
3464	0.1594
3473	0.2094
3482	0.2459
3491	0.2716
3500	0.2964
3509	0.3188
3518	0.3327
3527	0.3459
3536	0.3544
3545	0.36
3554	0.3649
3563	0.3658
3572	0.3668
3581	0.367
3590	0.3668
3599	0.3666
3608	0.3654
3617	0.3642
3626	0.3605
3635	0.3566
3644	0.3536
3653	0.3507
3662	0.348
3671	0.3455
3680	0.343
3689	0.341
3698	0.3392
3707	0.3378
3716	0.3368
3725	0.334
3734	0.3304
3743	0.3268
3752	0.3232
3761	0.3209
3770	0.3188
3779	0.3167
3788	0.3147
3797	0.3128
