Infrared Spectrum: PHOSPHONIC ACID, (1-CARBAMOYLETHYL)-, DIETHYL ESTER
Formula: C7 H16 N O4 P
CAS: 52111-19-0
State: SOLID (0.6 mg / 650 mg, KBr DISC)
Class: COBLENTZ III
Instrument: PERKIN-ELMER 21 (GRATING)
Instrument parameters: FILTER CHANGE AT ABOUT 1080 CM^-^1
Sampling: TRANSMISSION
Resolution: 2
Origin: SOUTHERN RESEARCH INSTITUTE
1/CM	TRANSMITTANCE
607.422	0.833
615.798	0.8251
624.174	0.8052
632.55	0.7834
640.926	0.7579
649.302	0.725
657.678	0.7
666.054	0.6726
674.43	0.6607
682.807	0.6361
691.183	0.625
699.559	0.6351
707.935	0.6655
716.311	0.7019
724.687	0.711
733.063	0.7015
741.439	0.6702
749.815	0.5539
758.191	0.5036
766.567	0.6025
774.943	0.6176
783.319	0.5913
791.695	0.5253
800.071	0.4565
808.447	0.5731
816.823	0.581
825.2	0.605
833.576	0.5934
841.952	0.48
850.328	0.5235
858.704	0.6045
867.08	0.609
875.456	0.5829
883.832	0.5621
892.208	0.5279
900.584	0.5168
908.96	0.5892
917.336	0.61
925.712	0.6051
934.088	0.5652
942.464	0.5263
950.84	0.4731
959.217	0.3638
967.593	0.287
975.969	0.2876
984.345	0.2769
992.721	0.442
1001.1	0.4858
1009.47	0.4036
1017.85	0.2551
1026.22	0.153
1034.6	0.1756
1042.98	0.2026
1051.35	0.2213
1059.73	0.2435
1068.11	0.299
1076.48	0.3672
1084.86	0.418
1093.23	0.4679
1101.61	0.4648
1109.99	0.46
1118.36	0.515
1126.74	0.5485
1135.11	0.553
1143.49	0.552
1151.87	0.5363
1160.24	0.4995
1168.62	0.432
1176.99	0.4509
1185.37	0.5162
1193.75	0.5219
1202.12	0.5075
1210.5	0.4698
1218.87	0.4229
1227.25	0.3551
1235.63	0.2512
1244	0.1502
1252.38	0.1741
1260.75	0.2477
1269.13	0.3272
1277.51	0.4152
1285.88	0.4684
1294.26	0.4814
1302.63	0.4856
1311.01	0.5174
1319.39	0.5377
1327.76	0.5595
1336.14	0.567
1344.52	0.5748
1352.89	0.5719
1361.27	0.5611
1369.64	0.4961
1378.02	0.3719
1386.4	0.3468
1394.77	0.4007
1403.15	0.4485
1411.52	0.4661
1419.9	0.4779
1428.28	0.4012
1436.65	0.3956
1445.03	0.4349
1453.4	0.4708
1461.78	0.5188
1470.16	0.5428
1478.53	0.5527
1486.91	0.5339
1495.28	0.5403
1503.66	0.5871
1512.04	0.613
1520.41	0.6285
1528.79	0.631
1537.16	0.633
1545.54	0.633
1553.92	0.633
1562.29	0.63
1570.67	0.6237
1579.04	0.615
1587.42	0.6058
1595.8	0.5831
1604.17	0.5515
1612.55	0.5144
1620.93	0.4727
1629.3	0.437
1637.68	0.4142
1646.05	0.3703
1654.43	0.2684
1662.81	0.1639
1671.18	0.1416
1679.56	0.2
1687.93	0.3022
1696.31	0.3324
1704.69	0.441
1713.06	0.467
1721.44	0.4993
1729.81	0.5211
1738.19	0.5433
1746.57	0.565
1754.94	0.567
1763.32	0.5734
1771.69	0.58
1780.07	0.5835
1788.45	0.5892
1796.82	0.5972
1805.2	0.6054
1813.57	0.6111
1821.95	0.617
1830.33	0.617
1838.7	0.617
1847.08	0.6279
1855.45	0.6309
1863.83	0.634
1872.21	0.6418
1880.58	0.644
1888.96	0.646
1897.34	0.649
1905.71	0.6513
1914.09	0.6536
1922.46	0.655
1930.84	0.655
1939.22	0.655
1947.59	0.66
1955.97	0.66
1964.34	0.661
1972.72	0.662
1981.1	0.663
1989.47	0.663
1997.85	0.666
2006.22	0.6668
2014.6	0.661
2022.98	0.6652
2031.35	0.6668
2039.73	0.669
2048.1	0.669
2056.48	0.669
2064.86	0.673
2073.23	0.671
2081.61	0.673
2089.98	0.672
2098.36	0.669
2106.74	0.675
2115.11	0.6718
2123.49	0.6694
2131.86	0.673
2140.24	0.674
2148.62	0.674
2156.99	0.674
2165.37	0.674
2173.75	0.674
2182.12	0.674
2190.5	0.674
2198.87	0.675
2207.25	0.673
2215.63	0.6722
2224	0.673
2232.38	0.678
2240.75	0.676
2249.13	0.674
2257.51	0.673
2265.88	0.673
2274.26	0.6738
2282.63	0.6722
2291.01	0.6742
2299.39	0.6752
2307.76	0.6824
2316.14	0.6884
2324.51	0.692
2332.89	0.692
2341.27	0.692
2349.64	0.692
2358.02	0.692
2366.39	0.691
2374.77	0.6844
2383.15	0.682
2391.52	0.68
2399.9	0.68
2408.27	0.679
2416.65	0.674
2425.03	0.6742
2433.4	0.676
2441.78	0.674
2450.16	0.6742
2458.53	0.671
2466.91	0.668
2475.28	0.665
2483.66	0.665
2492.04	0.667
2500.41	0.674
2508.79	0.674
2517.16	0.674
2525.54	0.674
2533.92	0.675
2542.29	0.676
2550.67	0.675
2559.04	0.6798
2567.42	0.676
2575.8	0.674
2584.17	0.675
2592.55	0.6748
2600.92	0.6752
2609.3	0.679
2617.68	0.6776
2626.05	0.674
2634.43	0.674
2642.8	0.673
2651.18	0.674
2659.56	0.674
2667.93	0.673
2676.31	0.673
2684.68	0.673
2693.06	0.673
2701.44	0.6742
2709.81	0.676
2718.19	0.676
2726.57	0.6758
2734.94	0.6728
2743.32	0.6668
2751.69	0.659
2760.07	0.6524
2768.45	0.648
2776.82	0.646
2785.2	0.644
2793.57	0.6438
2801.95	0.6396
2810.33	0.638
2818.7	0.637
2827.08	0.6358
2835.45	0.63
2843.83	0.6248
2852.21	0.6168
2860.58	0.61
2868.96	0.6046
2877.33	0.5992
2885.71	0.5894
2894.09	0.5822
2902.46	0.5656
2910.84	0.5384
2919.21	0.5096
2927.59	0.502
2935.97	0.5176
2944.34	0.528
2952.72	0.53
2961.09	0.5256
2969.47	0.4972
2977.85	0.4594
2986.22	0.4124
2994.6	0.418
3002.98	0.4514
3011.35	0.5022
3019.73	0.5334
3028.1	0.5524
3036.48	0.561
3044.86	0.5618
3053.23	0.561
3061.61	0.561
3069.98	0.56
3078.36	0.557
3086.74	0.553
3095.11	0.5504
3103.49	0.545
3111.86	0.5328
3120.24	0.5106
3128.62	0.4956
3136.99	0.4648
3145.37	0.4366
3153.74	0.4172
3162.12	0.3926
3170.5	0.3758
3178.87	0.3684
3187.25	0.364
3195.62	0.368
3204	0.3712
3212.38	0.3872
3220.75	0.3934
3229.13	0.399
3237.5	0.4
3245.88	0.3992
3254.26	0.404
3262.63	0.4028
3271.01	0.3934
3279.39	0.387
3287.76	0.3818
3296.14	0.38
3304.51	0.3736
3312.89	0.3628
3321.27	0.3558
3329.64	0.35
3338.02	0.3448
3346.39	0.3354
3354.77	0.3248
3363.15	0.3164
3371.52	0.3052
3379.9	0.3
3388.27	0.301
3396.65	0.3042
3405.03	0.3146
3413.4	0.3254
3421.78	0.3404
3430.15	0.3538
3438.53	0.3876
3446.91	0.3994
3455.28	0.4148
3463.66	0.4314
3472.03	0.4452
3480.41	0.4584
3488.79	0.4614
3497.16	0.4752
3505.54	0.4852
3513.91	0.4942
3522.29	0.498
3530.67	0.501
3539.04	0.5154
3547.42	0.524
3555.8	0.5322
3564.17	0.5392
3572.55	0.5452
3580.92	0.5542
3589.3	0.5582
3597.68	0.5624
3606.05	0.5684
3614.43	0.5762
3622.8	0.583
3631.18	0.5892
3639.56	0.592
3647.93	0.5992
3656.31	0.6064
3664.68	0.609
3673.06	0.61
3681.44	0.61
3689.81	0.61
3698.19	0.612
3706.56	0.615
3714.94	0.615
3723.32	0.616
3731.69	0.617
3740.07	0.619
3748.44	0.621
3756.82	0.621
3765.2	0.6178
3773.57	0.616
3781.95	0.611
3790.32	0.611
3798.7	0.611
3807.08	0.6136
