Infrared Spectrum: 3,5-Dinitro-4-hydroxybenzaldehyde
Formula: C 7 H 4 N 2 O 6
CAS: 52132-61-3
State: gas
Origin: EPA-IR VAPOR PHASE LIBRARY
1/CM	ABSORBANCE
501.5	0.000498
513.074	0.0010685
524.648	0.0015014
536.222	0.0014657
547.796	0.0018731
559.37	0.0017484
570.944	0.0014697
582.518	0.0018736
594.092	0.0020651
605.666	0.00249
617.24	0.00298
628.814	0.00289
640.388	0.00291
651.962	0.00323
663.536	0.00349
675.11	0.00418
686.684	0.004
698.258	0.00412
709.832	0.00491
721.406	0.00755
732.98	0.00755
744.554	0.00358
756.128	0.00268
767.702	0.00329
779.276	0.0041
790.85	0.00223
802.423	0.0016977
813.997	0.001644
825.571	0.0015058
837.145	0.0013657
848.719	0.0015461
860.293	0.0015149
871.867	0.0015848
883.441	0.0019503
895.015	0.00355
906.589	0.00613
918.163	0.00595
929.737	0.00277
941.311	0.00218
952.885	0.00329
964.459	0.00408
976.033	0.00216
987.607	0.0016986
999.181	0.0019073
1010.76	0.0015576
1022.33	0.0014673
1033.9	0.0014956
1045.48	0.0016446
1057.05	0.0017582
1068.63	0.0020207
1080.2	0.00373
1091.77	0.00759
1103.35	0.00539
1114.92	0.00218
1126.49	0.0014174
1138.07	0.0011995
1149.64	0.0015181
1161.22	0.00297
1172.79	0.00351
1184.36	0.00228
1195.94	0.00348
1207.51	0.00971
1219.09	0.01178
1230.66	0.00632
1242.23	0.00692
1253.81	0.01152
1265.38	0.01704
1276.96	0.01212
1288.53	0.00762
1300.1	0.00906
1311.68	0.01482
1323.25	0.01645
1334.83	0.01355
1346.4	0.01501
1357.97	0.01342
1369.55	0.00845
1381.12	0.00795
1392.7	0.005
1404.27	0.00392
1415.84	0.00447
1427.42	0.00668
1438.99	0.00789
1450.57	0.00557
1462.14	0.00484
1473.71	0.00513
1485.29	0.00444
1496.86	0.00393
1508.44	0.00452
1520.01	0.00566
1531.58	0.00788
1543.16	0.01353
1554.73	0.02469
1566.31	0.02274
1577.88	0.01232
1589.45	0.01088
1601.03	0.00988
1612.6	0.01226
1624.18	0.02006
1635.75	0.02342
1647.32	0.01112
1658.9	0.00453
1670.47	0.00352
1682.05	0.00362
1693.62	0.00344
1705.19	0.00409
1716.77	0.01368
1728.34	0.02331
1739.92	0.00552
1751.49	0.00265
1763.06	0.00241
1774.64	0.0021124
1786.21	0.0017212
1797.79	0.0015617
1809.36	0.0016115
1820.93	0.0014449
1832.51	0.001478
1844.08	0.0013133
1855.66	0.0013087
1867.23	0.0013673
1878.8	0.0012963
1890.38	0.00122437
1901.95	0.00115623
1913.53	0.00119491
1925.1	0.0012252
1936.67	0.00115748
1948.25	0.00121093
1959.82	0.00113815
1971.4	0.00117527
1982.97	0.00116513
1994.54	0.00120035
2006.12	0.00116007
2017.69	0.00116069
2029.27	0.00120655
2040.84	0.00113136
2052.41	0.00114351
2063.99	0.0011073
2075.56	0.00117343
2087.14	0.00112455
2098.71	0.00113036
2110.28	0.00112605
2121.86	0.00113486
2133.43	0.00114228
2145.01	0.00113652
2156.58	0.00119047
2168.15	0.00118597
2179.73	0.00120914
2191.3	0.00120673
2202.88	0.00117835
2214.45	0.00116401
2226.02	0.0012243
2237.6	0.0012747
2249.17	0.00122169
2260.74	0.0012447
2272.32	0.0012854
2283.89	0.0013176
2295.47	0.0012706
2307.04	0.0012957
2318.61	0.0012556
2330.19	0.0011924
2341.76	0.0012476
2353.34	0.00122716
2364.91	0.0012564
2376.48	0.0013098
2388.06	0.0012476
2399.63	0.0012631
2411.21	0.0012918
2422.78	0.0012999
2434.35	0.0013039
2445.93	0.0013443
2457.5	0.0013181
2469.08	0.0013098
2480.65	0.0012329
2492.22	0.0012628
2503.8	0.0013435
2515.37	0.0013796
2526.95	0.0013299
2538.52	0.0013467
2550.09	0.0013921
2561.67	0.0013871
2573.24	0.0014675
2584.82	0.0014322
2596.39	0.0014268
2607.96	0.0013228
2619.54	0.0014564
2631.11	0.0014888
2642.69	0.0015797
2654.26	0.0015302
2665.83	0.0015157
2677.41	0.0016576
2688.98	0.0018157
2700.56	0.0018639
2712.13	0.00226
2723.7	0.00335
2735.28	0.00311
2746.85	0.00224
2758.43	0.0019033
2770	0.0019281
2781.57	0.00221
2793.15	0.00298
2804.72	0.00373
2816.3	0.00455
2827.87	0.00524
2839.44	0.00342
2851.02	0.00227
2862.59	0.00219
2874.17	0.0019809
2885.74	0.002008
2897.31	0.0020367
2908.89	0.0020466
2920.46	0.0019033
2932.04	0.0017798
2943.61	0.0016854
2955.18	0.0015825
2966.76	0.0015861
2978.33	0.0015147
2989.91	0.0016104
3001.48	0.001555
3013.05	0.0016184
3024.63	0.001709
3036.2	0.0017067
3047.78	0.0018427
3059.35	0.001899
3070.92	0.00228
3082.5	0.00282
3094.07	0.00266
3105.65	0.0026
3117.22	0.00248
3128.79	0.00269
3140.37	0.00307
3151.94	0.00326
3163.52	0.00354
3175.09	0.00365
3186.66	0.00369
3198.24	0.00369
3209.81	0.00369
3221.39	0.00362
3232.96	0.00342
3244.53	0.00328
3256.11	0.00324
3267.68	0.00301
3279.26	0.00289
3290.83	0.00279
3302.4	0.00265
3313.98	0.00241
3325.55	0.0023
3337.13	0.00216
3348.7	0.0020328
3360.27	0.0020125
3371.85	0.0017364
3383.42	0.0016013
3395	0.0015008
3406.57	0.0015381
3418.14	0.0015453
3429.72	0.0018639
3441.29	0.0016956
3452.86	0.001281
3464.44	0.0011901
3476.01	0.00121645
3487.59	0.0010557
3499.16	0.0011016
3510.73	0.000985
3522.31	0.000942
3533.88	0.000815
3545.46	0.000828
3557.03	0.000709
3568.6	0.000718
3580.18	0.000815
3591.75	0.000691
3603.33	0.000493
3614.9	0.000496
3626.47	0.000498
3638.05	0.000417
3649.62	0.000322
3661.2	0.00041
3672.77	0.000338
3684.34	0.000441
3695.92	0.000449
3707.49	0.000297
3719.07	0.000287
3730.64	0.000242
3742.21	0.000261
3753.79	0.00028
3765.36	0.000346
3776.94	0.000207
3788.51	0.000489
3800.08	0.000285
3811.66	0.000243
3823.23	0.000213
3834.81	0.000294
3846.38	0.00013
3857.95	0.00011
3869.53	6e-05
3881.1	0.000231
3892.68	0.000328
3904.25	0.000207
3915.82	0.000197
3927.4	0.00013
3938.97	0.000199
3950.55	0.000213
3962.12	0.000287
3973.69	0.000236
3985.27	0.000195
3996.84	3e-05
