Infrared Spectrum: 2,3-Difluorocinnamic acid
Formula: C 9 H 6 F 2 O 2
CAS: 52158-22-2
State: gas
Origin: EPA-IR VAPOR PHASE LIBRARY
1/CM	ABSORBANCE
549.9	0.010054
559.547	0.008244
569.193	0.008074
578.84	0.008024
588.486	0.005964
598.133	0.003444
607.779	0.003004
617.426	0.003724
627.072	0.004914
636.719	0.006114
646.365	0.004134
656.012	0.0018165
665.658	0.0013694
675.305	0.0013048
684.951	0.002094
694.598	0.004304
704.245	0.006154
713.891	0.004624
723.538	0.003304
733.184	0.003374
742.831	0.003714
752.477	0.003384
762.124	0.002834
771.77	0.004784
781.417	0.008514
791.063	0.006564
800.71	0.002694
810.356	0.0016861
820.003	0.002254
829.649	0.003014
839.296	0.002634
848.943	0.001864
858.589	0.001834
868.236	0.002114
877.882	0.002054
887.529	0.002504
897.175	0.002624
906.822	0.001934
916.468	0.0015889
926.115	0.0017923
935.761	0.002344
945.408	0.002134
955.054	0.001864
964.701	0.002994
974.347	0.005974
983.994	0.008124
993.64	0.006044
1003.29	0.004164
1012.93	0.003914
1022.58	0.004564
1032.23	0.004234
1041.87	0.002754
1051.52	0.003024
1061.17	0.004284
1070.81	0.004434
1080.46	0.003944
1090.11	0.004804
1099.75	0.007464
1109.4	0.018704
1119.05	0.038934
1128.69	0.031234
1138.34	0.015544
1147.99	0.016164
1157.63	0.021224
1167.28	0.013524
1176.92	0.005944
1186.57	0.004354
1196.22	0.005014
1205.86	0.008434
1215.51	0.007274
1225.16	0.005654
1234.8	0.006964
1244.45	0.007204
1254.1	0.009174
1263.74	0.013124
1273.39	0.017144
1283.04	0.018014
1292.68	0.016014
1302.33	0.009944
1311.98	0.006624
1321.62	0.006364
1331.27	0.005724
1340.92	0.006004
1350.56	0.008824
1360.21	0.011684
1369.86	0.008554
1379.5	0.004604
1389.15	0.002494
1398.79	0.001854
1408.44	0.0015678
1418.09	0.0014709
1427.73	0.001447
1437.38	0.0016606
1447.03	0.002174
1456.67	0.004214
1466.32	0.010664
1475.97	0.020424
1485.61	0.026034
1495.26	0.018154
1504.91	0.007374
1514.55	0.003434
1524.2	0.002224
1533.85	0.0017805
1543.49	0.0016457
1553.14	0.001773
1562.79	0.002224
1572.43	0.002924
1582.08	0.004784
1591.73	0.007054
1601.37	0.004934
1611.02	0.004204
1620.67	0.005534
1630.31	0.006274
1639.96	0.010284
1649.6	0.010134
1659.25	0.002774
1668.9	0.001914
1678.54	0.001934
1688.19	0.0018245
1697.84	0.001944
1707.48	0.002664
1717.13	0.004304
1726.78	0.006894
1736.42	0.011364
1746.07	0.026484
1755.72	0.048304
1765.36	0.034064
1775.01	0.015634
1784.66	0.010244
1794.3	0.007654
1803.95	0.004124
1813.6	0.002364
1823.24	0.001844
1832.89	0.0016874
1842.54	0.0018038
1852.18	0.0016774
1861.83	0.0012431
1871.47	0.001123
1881.12	0.0010335
1890.77	0.00090737
1900.41	0.0009396
1910.06	0.0010726
1919.71	0.0010597
1929.35	0.00084779
1939	0.0007585
1948.65	0.000713
1958.29	0.0007372
1967.94	0.000686
1977.59	0.000683
1987.23	0.000658
1996.88	0.000646
2006.53	0.000633
2016.17	0.000641
2025.82	0.000699
2035.47	0.0007591
2045.11	0.000818
2054.76	0.00087272
2064.41	0.0007942
2074.05	0.000666
2083.7	0.000587
2093.35	0.000572
2102.99	0.000532
2112.64	0.000481
2122.28	0.000525
2131.93	0.000515
2141.58	0.000554
2151.22	0.000493
2160.87	0.000492
2170.52	0.000508
2180.16	0.000505
2189.81	0.000555
2199.46	0.000575
2209.1	0.000599
2218.75	0.000638
2228.4	0.000661
2238.04	0.000647
2247.69	0.000581
2257.34	0.000562
2266.98	0.000521
2276.63	0.000527
2286.28	0.000541
2295.92	0.000544
2305.57	0.000578
2315.22	0.000605
2324.86	0.000567
2334.51	0.000516
2344.16	0.000465
2353.8	0.000471
2363.45	0.000421
2373.09	0.00047
2382.74	0.000402
2392.39	0.000381
2402.03	0.000408
2411.68	0.000451
2421.33	0.000491
2430.97	0.000471
2440.62	0.000506
2450.27	0.000511
2459.91	0.000552
2469.56	0.000567
2479.21	0.000593
2488.85	0.000498
2498.5	0.000484
2508.15	0.000442
2517.79	0.000391
2527.44	0.000385
2537.09	0.000375
2546.73	0.000418
2556.38	0.000404
2566.03	0.000442
2575.67	0.000489
2585.32	0.000456
2594.96	0.000412
2604.61	0.000368
2614.26	0.000312
2623.9	0.000264
2633.55	0.000319
2643.2	0.000285
2652.84	0.000261
2662.49	0.000207
2672.14	0.00021
2681.78	0.00024
2691.43	0.000232
2701.08	0.00022
2710.72	0.000248
2720.37	0.000214
2730.02	0.000168
2739.66	0.000221
2749.31	0.000304
2758.96	0.000278
2768.6	0.00022
2778.25	0.000163
2787.9	0.000188
2797.54	0.000212
2807.19	9.7e-05
2816.84	0.00015
2826.48	0.00019
2836.13	8.6e-05
2845.77	9.5e-05
2855.42	9.6e-05
2865.07	0.000144
2874.71	0.000204
2884.36	0.000218
2894.01	0.000213
2903.65	0.000118
2913.3	0.000118
2922.95	0.000111
2932.59	0.000165
2942.24	5.6e-05
2951.89	0.000155
2961.53	8.7e-05
2971.18	0.000169
2980.83	0.000117
2990.47	0.000186
3000.12	0.000139
3009.77	0.000208
3019.41	0.000197
3029.06	0.000416
3038.71	0.000528
3048.35	0.0008071
3058	0.00092829
3067.64	0.0011371
3077.29	0.0012623
3086.94	0.0009841
3096.58	0.000663
3106.23	0.000459
3115.88	0.000235
3125.52	0.000102
3135.17	0.000115
3144.82	0.000122
3154.46	0.00012
3164.11	0.00013
3173.76	0.000197
3183.4	0.000113
3193.05	0
3202.7	0.00022
3212.34	0.000223
3221.99	6.5e-05
3231.64	0.000318
3241.28	0.000201
3250.93	0.000252
3260.58	0.000279
3270.22	0.000317
3279.87	0.000223
3289.52	0.000406
3299.16	0.000231
3308.81	0.0003
3318.45	0.000381
3328.1	0.000452
3337.75	0.000383
3347.39	0.000525
3357.04	0.000385
3366.69	0.000476
3376.33	0.000496
3385.98	0.00059
3395.63	0.000434
3405.27	0.000682
3414.92	0.000562
3424.57	0.000554
3434.21	0.000653
3443.86	0.000632
3453.51	0.000601
3463.15	0.000658
3472.8	0.0007469
3482.45	0.000839286
3492.09	0.0010212
3501.74	0.0009946
3511.39	0.00090721
3521.03	0.00092444
3530.68	0.00085219
3540.33	0.00085468
3549.97	0.0010177
3559.62	0.0013485
3569.26	0.004484
3578.91	0.019474
3588.56	0.015024
3598.2	0.002714
3607.85	0.0010924
3617.5	0.0009446
3627.14	0.0007982
3636.79	0.000842756
3646.44	0.00086279
3656.08	0.0009529
3665.73	0.0007764
3675.38	0.00066
3685.02	0.000717
3694.67	0.000775
3704.32	0.0007391
3713.96	0.000724
3723.61	0.0008023
3733.26	0.000694
3742.9	0.000637
3752.55	0.000597
3762.2	0.000702
3771.84	0.000599
3781.49	0.000699
3791.13	0.000683
3800.78	0.000665
3810.43	0.00061
3820.07	0.000609
3829.72	0.000578
3839.37	0.000578
3849.01	0.000575
3858.66	0.000674
3868.31	0.000691
3877.95	0.000686
3887.6	0.0007433
3897.25	0.00072
3906.89	0.000672
3916.54	0.000714
3926.19	0.000658
3935.83	0.000639
3945.48	0.0007
3955.13	0.000573
3964.77	0.00068
3974.42	0.000587
3984.07	0.000587
3993.71	0.000642
