Infrared Spectrum: 4-METHYL-6-OXO-1,3,3a,7-TETRAZAINDENE
Formula: C6 H6 N4 O
CAS: 5217-59-4
State: SOLID (KBr PRESSING)
Melting point: 265 C
Class: COBLENTZ
Instrument: Not specified, most likely a prism, grating, or hybrid spectrometer.
Sampling: TRANSMISSION
Resolution: 4
Origin: EASTMAN KODAK COMPANY, RESEARCH LABORATORIES, ROCHESTER, N.Y.
MICROMETERS	TRANSMITTANCE
2.042	0.624
2.07721	0.622
2.11242	0.624
2.14764	0.627
2.18285	0.631
2.21806	0.636
2.25327	0.639
2.28849	0.65
2.3237	0.659
2.35891	0.666
2.39412	0.673
2.42934	0.681
2.46455	0.685
2.49976	0.687
2.53497	0.688
2.57018	0.695
2.6054	0.704
2.64061	0.708
2.67582	0.713
2.71103	0.723
2.74625	0.72
2.78146	0.694
2.81667	0.669
2.85188	0.653
2.88709	0.632
2.92231	0.634
2.95752	0.653
2.99273	0.683
3.02794	0.701
3.06316	0.69
3.09837	0.685
3.13358	0.681
3.16879	0.634
3.20401	0.599
3.23922	0.484
3.27443	0.393
3.30964	0.361
3.34485	0.44
3.38007	0.332
3.41528	0.326
3.45049	0.333
3.4857	0.34
3.52092	0.342
3.55613	0.309
3.59134	0.344
3.62655	0.363
3.66176	0.305
3.69698	0.353
3.73219	0.403
3.7674	0.416
3.80261	0.458
3.83783	0.494
3.87304	0.534
3.90825	0.545
3.94346	0.554
3.97868	0.599
4.01389	0.638
4.0491	0.662
4.08431	0.685
4.11952	0.704
4.15474	0.708
4.18995	0.706
4.22516	0.711
4.26037	0.709
4.29559	0.723
4.3308	0.753
4.36601	0.763
4.40122	0.769
4.43643	0.779
4.47165	0.795
4.50686	0.793
4.54207	0.795
4.57728	0.8
4.6125	0.811
4.64771	0.819
4.68292	0.814
4.71813	0.826
4.75335	0.833
4.78856	0.835
4.82377	0.844
4.85898	0.856
4.89419	0.856
4.92941	0.86
4.96462	0.872
4.99983	0.881
5.03504	0.877
5.07026	0.867
5.10547	0.872
5.14068	0.874
5.17589	0.877
5.2111	0.846
5.24632	0.865
5.28153	0.893
5.31674	0.914
5.35195	0.916
5.38717	0.912
5.42238	0.863
5.45759	0.867
5.4928	0.879
5.52802	0.847
5.56323	0.818
5.59844	0.797
5.63365	0.77
5.66886	0.715
5.70408	0.716
5.73929	0.69
5.7745	0.601
5.80971	0.493
5.84493	0.444
5.88014	0.41
5.91535	0.344
5.95056	0.11
5.98577	0.082
6.02099	0.062
6.0562	0.085
6.09141	0.153
6.12662	0.22
6.16184	0.319
6.19705	0.363
6.23226	0.351
6.26747	0.283
6.30269	0.209
6.3379	0.169
6.37311	0.222
6.40832	0.33
6.44353	0.414
6.47875	0.506
6.51396	0.571
6.54917	0.597
6.58438	0.529
6.6196	0.174
6.65481	0.25
6.69002	0.372
6.72523	0.43
6.76044	0.533
6.79566	0.424
6.83087	0.44
6.86608	0.541
6.90129	0.601
6.93651	0.632
6.97172	0.548
7.00693	0.251
7.04214	0.171
7.07736	0.202
7.11257	0.347
7.14778	0.433
7.18299	0.493
7.2182	0.576
7.25342	0.477
7.28863	0.5
7.32384	0.543
7.35905	0.634
7.39427	0.708
7.42948	0.66
7.46469	0.368
7.4999	0.209
7.53511	0.358
7.57033	0.473
7.60554	0.548
7.64075	0.562
7.67596	0.592
7.71118	0.622
7.74639	0.564
7.7816	0.524
7.81681	0.596
7.85203	0.643
7.88724	0.669
7.92245	0.671
7.95766	0.611
7.99287	0.489
8.02809	0.445
8.0633	0.442
8.09851	0.519
8.13372	0.589
8.16894	0.636
8.20415	0.674
8.23936	0.687
8.27457	0.59
8.30978	0.451
8.345	0.534
8.38021	0.61
8.41542	0.655
8.45063	0.681
8.48585	0.697
8.52106	0.625
8.55627	0.409
8.59148	0.451
8.6267	0.592
8.66191	0.629
8.69712	0.657
8.73233	0.68
8.76754	0.69
8.80276	0.697
8.83797	0.704
8.87318	0.715
8.90839	0.727
8.94361	0.725
8.97882	0.545
9.01403	0.487
9.04924	0.611
9.08445	0.652
9.11967	0.68
9.15488	0.694
9.19009	0.697
9.2253	0.704
9.26052	0.708
9.29573	0.725
9.33094	0.729
9.36615	0.73
9.40137	0.737
9.43658	0.732
9.47179	0.716
9.507	0.634
9.54221	0.711
9.57743	0.727
9.61264	0.737
9.64785	0.723
9.68306	0.678
9.71828	0.723
9.75349	0.751
9.7887	0.762
9.82391	0.769
9.85912	0.709
9.89434	0.636
9.92955	0.725
9.96476	0.76
9.99997	0.776
10.0352	0.793
10.0704	0.802
10.1056	0.805
10.1408	0.807
10.176	0.809
10.2112	0.818
10.2465	0.819
10.2817	0.818
10.3169	0.783
10.3521	0.715
10.3873	0.701
10.4225	0.643
10.4577	0.55
10.4929	0.4
10.5282	0.33
10.5634	0.437
10.5986	0.538
10.6338	0.61
10.669	0.645
10.7042	0.671
10.7394	0.68
10.7746	0.673
10.8099	0.622
10.8451	0.646
10.8803	0.697
10.9155	0.704
10.9507	0.708
10.9859	0.709
11.0211	0.706
11.0563	0.694
11.0916	0.676
11.1268	0.666
11.162	0.631
11.1972	0.592
11.2324	0.548
11.2676	0.493
11.3028	0.444
11.338	0.41
11.3733	0.396
11.4085	0.393
11.4437	0.41
11.4789	0.433
11.5141	0.472
11.5493	0.534
11.5845	0.583
11.6197	0.659
11.655	0.692
11.6902	0.708
11.7254	0.713
11.7606	0.706
11.7958	0.704
11.831	0.664
11.8662	0.533
11.9014	0.354
11.9366	0.274
11.9719	0.3
12.0071	0.367
12.0423	0.445
12.0775	0.52
12.1127	0.566
12.1479	0.604
12.1831	0.625
12.2183	0.646
12.2536	0.666
12.2888	0.676
12.324	0.69
12.3592	0.704
12.3944	0.704
12.4296	0.708
12.4648	0.725
12.5	0.729
12.5353	0.734
12.5705	0.748
12.6057	0.743
12.6409	0.741
12.6761	0.746
12.7113	0.744
12.7465	0.748
12.7817	0.76
12.817	0.76
12.8522	0.753
12.8874	0.758
12.9226	0.76
12.9578	0.76
12.993	0.762
13.0282	0.77
13.0634	0.774
13.0987	0.77
13.1339	0.77
13.1691	0.77
13.2043	0.755
13.2395	0.66
13.2747	0.494
13.3099	0.512
13.3451	0.597
13.3804	0.695
13.4156	0.743
13.4508	0.76
13.486	0.769
13.5212	0.79
13.5564	0.8
13.5916	0.802
13.6268	0.805
13.6621	0.811
13.6973	0.816
13.7325	0.816
13.7677	0.812
13.8029	0.811
13.8381	0.774
13.8733	0.694
13.9085	0.699
13.9437	0.76
13.979	0.79
14.0142	0.798
14.0494	0.795
14.0846	0.8
14.1198	0.807
14.155	0.811
14.1902	0.805
14.2254	0.793
14.2607	0.786
14.2959	0.784
14.3311	0.777
14.3663	0.77
14.4015	0.767
14.4367	0.791
14.4719	0.812
14.5071	0.826
14.5424	0.833
14.5776	0.842
14.6128	0.847
14.648	0.851
14.6832	0.851
14.7184	0.853
14.7536	0.854
14.7888	0.856
14.8241	0.856
14.8593	0.86
14.8945	0.861
14.9297	0.865
14.9649	0.865
15.0001	0.86
15.0353	0.823
15.0705	0.753
15.1058	0.652
15.141	0.559
15.1762	0.506
15.2114	0.48
15.2466	0.486
15.2818	0.51
15.317	0.55
15.3522	0.606
15.3875	0.648
15.4227	0.676
15.4579	0.676
15.4931	0.653
15.5283	0.632
15.5635	0.646
15.5987	0.68
15.6339	0.711
15.6691	0.725
15.7044	0.732
15.7396	0.739
15.7748	0.746
15.81	0.748
15.8452	0.748
15.8804	0.748
15.9156	0.748
15.9508	0.748
15.9861	0.748
16.0213	0.748
