Infrared Spectrum: 2,4,5-Triethoxybenzophenone
Formula: C 19 H 22 O 4
CAS: 52199-46-9
State: gas
Origin: EPA-IR VAPOR PHASE LIBRARY
1/CM	ABSORBANCE
549.9	0.001838
559.547	0.002098
569.193	0.002168
578.84	0.002568
588.486	0.003178
598.133	0.004018
607.779	0.005148
617.426	0.006118
627.072	0.005708
636.719	0.004348
646.365	0.003338
656.012	0.003498
665.658	0.004918
675.305	0.007318
684.951	0.009468
694.598	0.013478
704.245	0.011728
713.891	0.008888
723.538	0.007698
733.184	0.006698
742.831	0.004638
752.477	0.003598
762.124	0.003778
771.77	0.004648
781.417	0.004948
791.063	0.004458
800.71	0.005758
810.356	0.006878
820.003	0.006498
829.649	0.005178
839.296	0.005118
848.943	0.005798
858.589	0.006278
868.236	0.007758
877.882	0.009828
887.529	0.013108
897.175	0.015668
906.822	0.014618
916.468	0.010698
926.115	0.007568
935.761	0.006398
945.408	0.006338
955.054	0.005218
964.701	0.003818
974.347	0.003128
983.994	0.003378
993.64	0.004658
1003.29	0.007678
1012.93	0.012958
1022.58	0.022508
1032.23	0.035518
1041.87	0.044158
1051.52	0.030978
1061.17	0.017528
1070.81	0.013538
1080.46	0.014628
1090.11	0.020258
1099.75	0.023348
1109.4	0.031058
1119.05	0.020228
1128.69	0.010748
1138.34	0.010728
1147.99	0.016988
1157.63	0.027378
1167.28	0.040158
1176.92	0.058088
1186.57	0.054918
1196.22	0.067158
1205.86	0.067308
1215.51	0.044078
1225.16	0.031488
1234.8	0.034548
1244.45	0.038358
1254.1	0.039558
1263.74	0.033148
1273.39	0.028248
1283.04	0.027738
1292.68	0.030098
1302.33	0.034258
1311.98	0.039438
1321.62	0.031028
1331.27	0.017808
1340.92	0.013718
1350.56	0.016528
1360.21	0.023838
1369.86	0.020718
1379.5	0.027258
1389.15	0.034528
1398.79	0.025688
1408.44	0.023818
1418.09	0.017708
1427.73	0.009628
1437.38	0.009318
1447.03	0.016458
1456.67	0.012938
1466.32	0.017638
1475.97	0.031278
1485.61	0.031588
1495.26	0.046088
1504.91	0.046758
1514.55	0.025288
1524.2	0.012788
1533.85	0.008388
1543.49	0.007308
1553.14	0.008428
1562.79	0.011638
1572.43	0.014288
1582.08	0.014348
1591.73	0.016588
1601.37	0.023768
1611.02	0.016928
1620.67	0.008048
1630.31	0.005498
1639.96	0.005508
1649.6	0.006848
1659.25	0.010368
1668.9	0.019728
1678.54	0.032798
1688.19	0.025208
1697.84	0.013348
1707.48	0.006768
1717.13	0.004128
1726.78	0.002848
1736.42	0.002118
1746.07	0.001848
1755.72	0.001728
1765.36	0.001788
1775.01	0.0016827
1784.66	0.0015533
1794.3	0.0016137
1803.95	0.001828
1813.6	0.001563
1823.24	0.0012863
1832.89	0.0011897
1842.54	0.0011003
1852.18	0.0010755
1861.83	0.0011054
1871.47	0.0011842
1881.12	0.0013264
1890.77	0.001653
1900.41	0.001808
1910.06	0.001818
1919.71	0.0016535
1929.35	0.0014978
1939	0.0015114
1948.65	0.0016859
1958.29	0.001523
1967.94	0.0012396
1977.59	0.0009944
1987.23	0.0008956
1996.88	0.0008665
2006.53	0.00080374
2016.17	0.0008169
2025.82	0.00076627
2035.47	0.00075011
2045.11	0.00079164
2054.76	0.00078285
2064.41	0.00075055
2074.05	0.00073505
2083.7	0.0006939
2093.35	0.0006483
2102.99	0.0006294
2112.64	0.0006257
2122.28	0.0006099
2131.93	0.0006255
2141.58	0.000601
2151.22	0.0006125
2160.87	0.00053
2170.52	0.000503
2180.16	0.000459
2189.81	0.000443
2199.46	0.000548
2209.1	0.000446
2218.75	0.000505
2228.4	0.000526
2238.04	0.000524
2247.69	0.000524
2257.34	0.000563
2266.98	0.000591
2276.63	0.000576
2286.28	0.0006083
2295.92	0.0006205
2305.57	0.000595
2315.22	0.00075137
2324.86	0.000594
2334.51	0.0006402
2344.16	0.0006315
2353.8	0.000557
2363.45	0.000539
2373.09	0.000587
2382.74	0.0006306
2392.39	0.000573
2402.03	0.0006337
2411.68	0.0006455
2421.33	0.0006426
2430.97	0.0006623
2440.62	0.0006734
2450.27	0.0006314
2459.91	0.0006292
2469.56	0.0006197
2479.21	0.0006816
2488.85	0.0006602
2498.5	0.000688
2508.15	0.0006104
2517.79	0.0006427
2527.44	0.000581
2537.09	0.00052
2546.73	0.000575
2556.38	0.000586
2566.03	0.00072464
2575.67	0.00073329
2585.32	0.00079954
2594.96	0.00070494
2604.61	0.0006406
2614.26	0.000526
2623.9	0.000582
2633.55	0.000436
2643.2	0.000393
2652.84	0.000343
2662.49	0.000353
2672.14	0.000396
2681.78	0.000402
2691.43	0.000416
2701.08	0.000492
2710.72	0.000605
2720.37	0.00074288
2730.02	0.00080333
2739.66	0.0008301
2749.31	0.0009856
2758.96	0.0010314
2768.6	0.0010928
2778.25	0.001131
2787.9	0.0012883
2797.54	0.0013497
2807.19	0.0015802
2816.84	0.001918
2826.48	0.002158
2836.13	0.002488
2845.77	0.003118
2855.42	0.004188
2865.07	0.006088
2874.71	0.009888
2884.36	0.013658
2894.01	0.013628
2903.65	0.013208
2913.3	0.013638
2922.95	0.013688
2932.59	0.016638
2942.24	0.020648
2951.89	0.015078
2961.53	0.013598
2971.18	0.018128
2980.83	0.027438
2990.47	0.026978
3000.12	0.014108
3009.77	0.007858
3019.41	0.005808
3029.06	0.005728
3038.71	0.005478
3048.35	0.004348
3058	0.005708
3067.64	0.009508
3077.29	0.006838
3086.94	0.005858
3096.58	0.003098
3106.23	0.001808
3115.88	0.0010386
3125.52	0.00079086
3135.17	0.000425
3144.82	0.000584
3154.46	0.000322
3164.11	0.000406
3173.76	0.000356
3183.4	0.000187
3193.05	0.000243
3202.7	0.000228
3212.34	0.000327
3221.99	0.000287
3231.64	7.1e-05
3241.28	0.000198
3250.93	0.000101
3260.58	0.000154
3270.22	0.0001
3279.87	0.000224
3289.52	0.000188
3299.16	0.00031
3308.81	0.000344
3318.45	0.000276
3328.1	0.000401
3337.75	0.000434
3347.39	0.000554
3357.04	0.000432
3366.69	0.000254
3376.33	0.000446
3385.98	0.000435
3395.63	0.000346
3405.27	0.000493
3414.92	0.000415
3424.57	0.000409
3434.21	0.000292
3443.86	0.000291
3453.51	0.000395
3463.15	0.000154
3472.8	0.000498
3482.45	0.000355
3492.09	0.000374
3501.74	0.000384
3511.39	0.000365
3521.03	0.000364
3530.68	0.000323
3540.33	0.000234
3549.97	0.000365
3559.62	0.000412
3569.26	0.000317
3578.91	0.000386
3588.56	0.000398
3598.2	0.000395
3607.85	0.000379
3617.5	0.000395
3627.14	0.000375
3636.79	0.000429
3646.44	0.000394
3656.08	0.000503
3665.73	0.000367
3675.38	0.000328
3685.02	0.000496
3694.67	0.000406
3704.32	0.000635
3713.96	0.00053
3723.61	0.000468
3733.26	0.000295
3742.9	0.000575
3752.55	0.000486
3762.2	0.000506
3771.84	0.000545
3781.49	0.000354
3791.13	0.000451
3800.78	0.000604
3810.43	0.000429
3820.07	0.000346
3829.72	0.000511
3839.37	0.000457
3849.01	0.000421
3858.66	0.00049
3868.31	0.000511
3877.95	0.000568
3887.6	0.000524
3897.25	0.00043
3906.89	0.000424
3916.54	0.000415
3926.19	0.000468
3935.83	0.000468
3945.48	0.000426
3955.13	0.000347
3964.77	0.00052
3974.42	0.000444
3984.07	0.00043
3993.71	0.000545
