Infrared Spectrum: Alpha-FURIL DIOXIME
Formula: C10 H8 N2 O4
CAS: 522-27-0
State: SOLID (MINERAL OIL MULL)
Class: COBLENTZ
Instrument: Not specified, most likely a prism, grating, or hybrid spectrometer.
Sampling: TRANSMISSION
Resolution: 4
Origin: WYANDOTTE CHEMICALS CORP., WYANDOTTE, MICHIGAN, USA
MICROMETERS	TRANSMITTANCE
2.027	0.332
2.06794	0.334
2.10887	0.344
2.14981	0.353
2.19074	0.353
2.23168	0.36
2.27261	0.377
2.31355	0.395
2.35448	0.412
2.39542	0.423
2.43635	0.436
2.47729	0.465
2.51823	0.477
2.55916	0.5
2.6001	0.511
2.64103	0.54
2.68197	0.569
2.7229	0.585
2.76384	0.605
2.80477	0.612
2.84571	0.604
2.88664	0.575
2.92758	0.518
2.96851	0.409
3.00945	0.264
3.05039	0.156
3.09132	0.139
3.13226	0.129
3.17319	0.131
3.21413	0.136
3.25506	0.134
3.296	0.129
3.33693	0.059
3.37787	0.022
3.4188	0.022
3.45974	0.029
3.50068	0.035
3.54161	0.25
3.58255	0.343
3.62348	0.392
3.66442	0.402
3.70535	0.431
3.74629	0.453
3.78722	0.472
3.82816	0.488
3.86909	0.5
3.91003	0.527
3.95096	0.544
3.9919	0.571
4.03284	0.59
4.07377	0.6
4.11471	0.609
4.15564	0.619
4.19658	0.627
4.23751	0.631
4.27845	0.639
4.31938	0.656
4.36032	0.67
4.40125	0.691
4.44219	0.696
4.48313	0.704
4.52406	0.706
4.565	0.716
4.60593	0.723
4.64687	0.73
4.6878	0.74
4.72874	0.747
4.76967	0.757
4.81061	0.761
4.85154	0.771
4.89248	0.778
4.93341	0.781
4.97435	0.783
5.01529	0.788
5.05622	0.796
5.09716	0.8
5.13809	0.8
5.17903	0.82
5.21996	0.82
5.2609	0.827
5.30183	0.844
5.34277	0.849
5.3837	0.853
5.42464	0.86
5.46558	0.868
5.50651	0.865
5.54745	0.878
5.58838	0.878
5.62932	0.887
5.67025	0.87
5.71119	0.849
5.75212	0.866
5.79306	0.878
5.83399	0.846
5.87493	0.878
5.91586	0.87
5.9568	0.878
5.99774	0.866
6.03867	0.832
6.07961	0.75
6.12054	0.769
6.16148	0.79
6.20241	0.776
6.24335	0.764
6.28428	0.738
6.32522	0.609
6.36615	0.665
6.40709	0.822
6.44803	0.832
6.48896	0.848
6.5299	0.817
6.57083	0.808
6.61177	0.755
6.6527	0.445
6.69364	0.372
6.73457	0.175
6.77551	0.098
6.81644	0.051
6.85738	0.083
6.89831	0.156
6.93925	0.284
6.98019	0.377
7.02112	0.411
7.06206	0.465
7.10299	0.489
7.14393	0.491
7.18486	0.448
7.2258	0.249
7.26673	0.203
7.30767	0.373
7.3486	0.503
7.38954	0.54
7.43048	0.549
7.47141	0.515
7.51235	0.593
7.55328	0.588
7.59422	0.588
7.63515	0.633
7.67609	0.668
7.71702	0.718
7.75796	0.749
7.79889	0.764
7.83983	0.769
7.88076	0.786
7.9217	0.781
7.96264	0.569
8.00357	0.626
8.04451	0.708
8.08544	0.79
8.12638	0.767
8.16731	0.598
8.20825	0.542
8.24918	0.643
8.29012	0.774
8.33105	0.86
8.37199	0.883
8.41293	0.902
8.45386	0.899
8.4948	0.831
8.53573	0.711
8.57667	0.723
8.6176	0.607
8.65854	0.513
8.69947	0.691
8.74041	0.897
8.78134	0.93
8.82228	0.916
8.86321	0.846
8.90415	0.672
8.94509	0.616
8.98602	0.674
9.02696	0.892
9.06789	0.921
9.10883	0.912
9.14976	0.774
9.1907	0.597
9.23163	0.697
9.27257	0.735
9.3135	0.88
9.35444	0.926
9.39538	0.938
9.43631	0.935
9.47725	0.919
9.51818	0.887
9.55912	0.834
9.60005	0.75
9.64099	0.482
9.68192	0.365
9.72286	0.245
9.76379	0.127
9.80473	0.186
9.84566	0.216
9.8866	0.174
9.92754	0.151
9.96847	0.247
10.0094	0.327
10.0503	0.252
10.0913	0.201
10.1322	0.15
10.1731	0.211
10.2141	0.298
10.255	0.36
10.296	0.513
10.3369	0.568
10.3778	0.537
10.4188	0.46
10.4597	0.346
10.5006	0.204
10.5416	0.196
10.5825	0.305
10.6234	0.394
10.6644	0.476
10.7053	0.518
10.7462	0.542
10.7872	0.506
10.8281	0.498
10.8691	0.665
10.91	0.725
10.9509	0.747
10.9919	0.609
11.0328	0.358
11.0737	0.259
11.1147	0.412
11.1556	0.578
11.1965	0.665
11.2375	0.677
11.2784	0.576
11.3193	0.44
11.3603	0.547
11.4012	0.674
11.4421	0.738
11.4831	0.728
11.524	0.67
11.565	0.716
11.6059	0.68
11.6468	0.505
11.6878	0.279
11.7287	0.303
11.7696	0.385
11.8106	0.401
11.8515	0.354
11.8924	0.295
11.9334	0.257
11.9743	0.25
12.0152	0.266
12.0562	0.295
12.0971	0.334
12.138	0.412
12.179	0.506
12.2199	0.58
12.2609	0.604
12.3018	0.576
12.3427	0.598
12.3837	0.658
12.4246	0.68
12.4655	0.689
12.5065	0.689
12.5474	0.692
12.5883	0.692
12.6293	0.687
12.6702	0.682
12.7111	0.67
12.7521	0.65
12.793	0.638
12.834	0.617
12.8749	0.581
12.9158	0.549
12.9568	0.501
12.9977	0.448
13.0386	0.302
13.0796	0.233
13.1205	0.191
13.1614	0.182
13.2024	0.18
13.2433	0.165
13.2842	0.148
13.3252	0.127
13.3661	0.124
13.407	0.156
13.448	0.197
13.4889	0.238
13.5299	0.255
13.5708	0.269
13.6117	0.276
13.6527	0.279
13.6936	0.281
13.7345	0.281
13.7755	0.281
13.8164	0.273
13.8573	0.267
13.8983	0.262
13.9392	0.266
13.9801	0.276
14.0211	0.303
14.062	0.336
14.1029	0.38
14.1439	0.431
14.1848	0.479
14.2258	0.513
14.2667	0.532
14.3076	0.539
14.3486	0.537
14.3895	0.52
14.4304	0.515
14.4714	0.51
14.5123	0.506
14.5532	0.489
14.5942	0.462
14.6351	0.452
14.676	0.462
14.717	0.489
14.7579	0.505
14.7989	0.52
14.8398	0.539
14.8807	0.547
14.9217	0.556
14.9626	0.566
15.0035	0.554
15.0445	0.535
15.0854	0.532
15.1263	0.568
15.1673	0.59
15.2082	0.588
15.2491	0.585
15.2901	0.575
15.331	0.571
15.3719	0.569
15.4129	0.561
15.4538	0.546
15.4948	0.525
15.5357	0.5
15.5766	0.496
15.6176	0.493
15.6585	0.489
15.6994	0.484
15.7404	0.472
15.7813	0.462
15.8222	0.45
15.8632	0.447
15.9041	0.447
15.945	0.445
15.986	0.445
