Infrared Spectrum: Ethopropazine
Formula: C 19 H 24 N 2 S
CAS: 522-00-9
State: gas
Instrument: HP-GC/MS/IRD
Origin: NIST Mass Spectrometry Data Center
1/CM	ABSORBANCE
550	0.0006579
562	0.0006235
574	0.0007912
586	0.0007869
598	0.0006106
610	0.0008686
622	0.000731
634	0.0007482
646	0.0005203
658	0.0001247
670	8.17e-05
682	3.44e-05
694	9.46e-05
706	0.000172
718	0.0001892
730	0.0003225
742	0.0006407
754	0.0012255
766	0.0026359
778	0.0043473
790	0.0020167
802	0.0041968
814	0.0030229
826	0.0029713
838	0.0029627
850	0.0019135
862	0.0010836
874	0.0007482
886	0.0009374
898	0.0009417
910	0.001118
922	0.0019909
934	0.0021113
946	0.0024682
958	0.0020382
970	0.0029498
982	0.003655
994	0.0027305
1006	0.004386
1018	0.0045064
1030	0.0053793
1042	0.007697
1054	0.0062092
1066	0.0031605
1078	0.0030917
1090	0.0021887
1102	0.0017845
1114	0.0014835
1126	0.0013975
1138	0.0023005
1150	0.0039087
1162	0.0056416
1174	0.0099244
1186	0.0042183
1198	0.0036593
1210	0.0049321
1222	0.0077443
1234	0.0137557
1246	0.0200208
1258	0.0144222
1270	0.0090171
1282	0.0080023
1294	0.0081399
1306	0.0065016
1318	0.0051256
1330	0.0041108
1342	0.0053449
1354	0.0112918
1366	0.0101394
1378	0.0087333
1390	0.0092923
1402	0.0054739
1414	0.0077099
1426	0.0111155
1438	0.0129903
1450	0.0096621
1462	0.0096578
1474	0.0112961
1486	0.0182621
1498	0.0343269
1510	0.0429914
1522	0.0160347
1534	0.009675
1546	0.0163873
1558	0.0091074
1570	0.0122679
1582	0.0303924
1594	0.0294507
1606	0.0119454
1618	0.0060243
1630	0.0026316
1642	0.0015652
1654	0.0011524
1666	0.0009159
1678	0.0007568
1690	0.000645
1702	0.0006192
1714	0.0005676
1726	0.0005418
1738	0.000602
1750	0.0006579
1762	0.0005891
1774	0.0003999
1786	0.0003139
1798	0.0002494
1810	0.0002236
1822	0.0001849
1834	0.0002064
1846	0.0002021
1858	0.0002322
1870	0.0002494
1882	0.0002279
1894	0.0001935
1906	0.0001763
1918	0.0001935
1930	0.0002924
1942	0.0004171
1954	0.0001935
1966	0.0001419
1978	0.000172
1990	0.0001978
2002	0.0002193
2014	0.0002064
2026	0.0001935
2038	0.000215
2050	0.0002494
2062	0.000301
2074	0.0002967
2086	0.0002322
2098	0.0001161
2110	5.16e-05
2122	1.72e-05
2134	1.29e-05
2146	4.3e-06
2158	1.72e-05
2170	2.58e-05
2182	2.58e-05
2194	3.01e-05
2206	2.15e-05
2218	7.74e-05
2230	0.0001032
2242	0.0001634
2254	0.0002236
2266	0.0002236
2278	0.0002967
2290	0.000344
2302	0.0003397
2314	0.0001763
2326	0.0001462
2338	0.0001505
2350	0.0002064
2362	0.0002408
2374	0.0002236
2386	0.0001677
2398	0.0001462
2410	0.0001333
2422	0.0001677
2434	0.0001806
2446	0.0001548
2458	0.0001677
2470	0.0002021
2482	0.0002193
2494	0.0002494
2506	0.0002537
2518	0.0002881
2530	0.0002881
2542	0.0002494
2554	0.000258
2566	0.0002537
2578	0.0002451
2590	0.0002279
2602	0.0002666
2614	0.0002752
2626	0.0002666
2638	0.0003096
2650	0.0003784
2662	0.0003999
2674	0.0004386
2686	0.0005633
2698	0.0007568
2710	0.0010234
2722	0.0013373
2734	0.0017501
2746	0.0023779
2758	0.0036507
2770	0.006966
2782	0.0077271
2794	0.0058566
2806	0.0047687
2818	0.0054868
2830	0.0059512
2842	0.0056244
2854	0.0046655
2866	0.0043559
2878	0.0039818
2890	0.0041624
2902	0.0050224
2914	0.0063597
2926	0.007138
2938	0.0089999
2950	0.0105221
2962	0.0084667
2974	0.0081356
2986	0.0063468
2998	0.0055685
3010	0.0050439
3022	0.0038786
3034	0.0053019
3046	0.0032637
3058	0.0020081
3070	0.002021
3082	0.0013975
3094	0.0011395
3106	0.0013244
3118	0.0008213
3130	0.0005633
3142	0.0004343
3154	0.00043
3166	0.0004558
3178	0.0004214
3190	0.0003225
3202	0.0002064
3214	0.0001118
3226	0.0001505
3238	9.03e-05
3250	7.31e-05
3262	7.74e-05
3274	5.16e-05
3286	4.73e-05
3298	4.73e-05
3310	9.03e-05
3322	6.02e-05
3334	4.3e-05
3346	6.88e-05
3358	6.02e-05
3370	5.16e-05
3382	5.59e-05
3394	6.02e-05
3406	4.3e-05
3418	0.0001032
3430	0.0001032
3442	3.44e-05
3454	5.16e-05
3466	5.16e-05
3478	3.44e-05
3490	4.3e-05
3502	6.45e-05
3514	5.16e-05
3526	2.58e-05
3538	5.59e-05
3550	4.3e-05
3562	5.59e-05
3574	8.6e-05
3586	3.01e-05
3598	5.59e-05
3610	3.01e-05
3622	6.88e-05
3634	6.45e-05
3646	0.0001032
3658	0.0001032
3670	6.88e-05
3682	9.46e-05
3694	9.89e-05
3706	8.17e-05
3718	0.0001161
3730	9.46e-05
3742	6.88e-05
3754	0.0001247
3766	0.0001118
3778	0.0001247
3790	0.0001419
3802	0.0001505
3814	0.0001849
3826	0.0001849
3838	0.0002107
