Infrared Spectrum: 6-Benzoyl-2-naphthol
Formula: C 17 H 12 O 2
CAS: 52222-87-4
State: gas
Instrument: HP-GC/MS/IRD
Origin: NIST Mass Spectrometry Data Center
1/CM	ABSORBANCE
550	0.001164
562	0.000484
574	0.000374
586	0.000222
598	5.8e-05
610	6.8e-05
622	0.00023
634	0.001524
646	0.000596
658	0.000456
670	0.001416
682	0.003328
694	0.004
706	0.003916
718	0.005086
730	0.00211
742	0.00133
754	0.001034
766	0.000792
778	0.00106
790	0.001712
802	0.002246
814	0.001604
826	0.000852
838	0.00081
850	0.002284
862	0.002676
874	0.00283
886	0.006526
898	0.008676
910	0.00325
922	0.000928
934	0.000494
946	0.000782
958	0.00067
970	0.001444
982	0.002354
994	0.000814
1006	0.000438
1018	0.000178
1030	0.000492
1042	0.000304
1054	0.000308
1066	0.000534
1078	0.000708
1090	0.000908
1102	0.001352
1114	0.00241
1126	0.004782
1138	0.01016
1150	0.008294
1162	0.008708
1174	0.017512
1186	0.014322
1198	0.01282
1210	0.012844
1222	0.00522
1234	0.002958
1246	0.003796
1258	0.008418
1270	0.014806
1282	0.017612
1294	0.009364
1306	0.004516
1318	0.003174
1330	0.001824
1342	0.003124
1354	0.002418
1366	0.001684
1378	0.003094
1390	0.002744
1402	0.001112
1414	0.001688
1426	0.002514
1438	0.001522
1450	0.001838
1462	0.002372
1474	0.008472
1486	0.006078
1498	0.003292
1510	0.003218
1522	0.00138
1534	0.00083
1546	0.000802
1558	0.00094
1570	0.001608
1582	0.00238
1594	0.002832
1606	0.004216
1618	0.00756
1630	0.013696
1642	0.006472
1654	0.003924
1666	0.007274
1678	0.015866
1690	0.007014
1702	0.002522
1714	0.001624
1726	0.00119
1738	0.0008
1750	0.000694
1762	0.00068
1774	0.000582
1786	0.000462
1798	0.000464
1810	0.00058
1822	0.000388
1834	0.000266
1846	0.000216
1858	0.000224
1870	0.000272
1882	0.000334
1894	0.000428
1906	0.0005
1918	0.000406
1930	0.000318
1942	0.000292
1954	0.000342
1966	0.000264
1978	0.000132
1990	0.000114
2002	0.000104
2014	0.000116
2026	0.000128
2038	0.000102
2050	0.000114
2062	0.000114
2074	0.000144
2086	0.000126
2098	0.000136
2110	0.00012
2122	0.000132
2134	0.000114
2146	0.000116
2158	7.2e-05
2170	0.000104
2182	8e-05
2194	5e-05
2206	5.8e-05
2218	7.2e-05
2230	9.6e-05
2242	5.2e-05
2254	8.6e-05
2266	9e-05
2278	0.000116
2290	0.000128
2302	0.000126
2314	0.00016
2326	0.000168
2338	0.000204
2350	0.000232
2362	0.000184
2374	0.000176
2386	0.000152
2398	0.000182
2410	0.000194
2422	0.000234
2434	0.000142
2446	0.000146
2458	0.000174
2470	0.00018
2482	0.000142
2494	0.000132
2506	9.4e-05
2518	0.000106
2530	0.000106
2542	0.0001
2554	0.000102
2566	0.000158
2578	0.000104
2590	0.000148
2602	0.000128
2614	0.000132
2626	0.000182
2638	0.000122
2650	0.00011
2662	0.000116
2674	5e-05
2686	5.2e-05
2698	7e-05
2710	8.8e-05
2722	7.2e-05
2734	6.6e-05
2746	0.000128
2758	8.8e-05
2770	9.4e-05
2782	8.8e-05
2794	6.2e-05
2806	6.2e-05
2818	0
2830	3.4e-05
2842	4e-05
2854	0.000116
2866	0.000152
2878	0.000178
2890	0.000168
2902	9e-05
2914	0.000108
2926	0.00018
2938	0.000258
2950	0.000226
2962	0.000248
2974	0.000342
2986	0.000416
2998	0.000568
3010	0.00089
3022	0.00166
3034	0.002386
3046	0.002166
3058	0.002872
3070	0.00456
3082	0.0028
3094	0.00158
3106	0.000736
3118	0.000314
3130	0.000218
3142	0.000182
3154	0.00019
3166	0.000162
3178	7.2e-05
3190	9.4e-05
3202	0.000102
3214	0.000126
3226	9.4e-05
3238	7.8e-05
3250	0.000146
3262	0.000106
3274	8.6e-05
3286	0.000146
3298	0.00016
3310	0.000152
3322	0.00018
3334	0.00028
3346	0.000316
3358	0.000278
3370	0.00025
3382	0.000222
3394	0.00018
3406	0.000148
3418	0.000178
3430	0.000204
3442	0.000198
3454	0.000212
3466	0.00013
3478	0.000122
3490	0.000208
3502	0.000178
3514	0.000258
3526	0.000192
3538	0.00021
3550	0.000208
3562	0.000232
3574	0.000298
3586	0.000306
3598	0.000316
3610	0.00037
3622	0.000632
3634	0.002022
3646	0.009482
3658	0.004
3670	0.000658
3682	0.000328
3694	0.000308
3706	0.00027
3718	0.00018
3730	0.000182
3742	0.000146
3754	0.00018
3766	0.000108
3778	0.000204
3790	0.000144
3802	0.000196
3814	0.000174
3826	0.000208
3838	0.00022
