Infrared Spectrum: 4-(4-Methoxyphenyl)-1-butanol
Formula: C 11 H 16 O 2
CAS: 52244-70-9
State: gas
Origin: EPA-IR VAPOR PHASE LIBRARY
1/CM	ABSORBANCE
549.8	0.010236
559.445	0.010456
569.09	0.007806
578.734	0.005156
588.379	0.004066
598.024	0.003206
607.669	0.002756
617.313	0.001786
626.958	0.001706
636.603	0.001906
646.248	0.0010805
655.893	0.0014155
665.537	0.002276
675.182	0.002646
684.827	0.005586
694.472	0.008146
704.116	0.005656
713.761	0.004096
723.406	0.003466
733.051	0.003756
742.695	0.005596
752.34	0.005086
761.985	0.004836
771.63	0.004166
781.275	0.005776
790.919	0.008566
800.564	0.013666
810.209	0.018696
819.854	0.025076
829.498	0.029306
839.143	0.022346
848.788	0.013266
858.433	0.008706
868.078	0.005546
877.722	0.005066
887.367	0.005466
897.012	0.006526
906.657	0.006556
916.301	0.007046
925.946	0.008176
935.591	0.008376
945.236	0.008306
954.88	0.008566
964.525	0.010516
974.17	0.012176
983.815	0.013876
993.46	0.014976
1003.1	0.019426
1012.75	0.029186
1022.39	0.044816
1032.04	0.064246
1041.68	0.071306
1051.33	0.066566
1060.97	0.051316
1070.62	0.035126
1080.26	0.022866
1089.91	0.016596
1099.55	0.015176
1109.2	0.015996
1118.84	0.012286
1128.49	0.010866
1138.13	0.009556
1147.78	0.010536
1157.42	0.014026
1167.07	0.032366
1176.71	0.053146
1186.36	0.026326
1196	0.017986
1205.64	0.019886
1215.29	0.027876
1224.93	0.044466
1234.58	0.091656
1244.22	0.173246
1253.87	0.138416
1263.51	0.070186
1273.16	0.047346
1282.8	0.042066
1292.45	0.041586
1302.09	0.030916
1311.74	0.018766
1321.38	0.015006
1331.03	0.013846
1340.67	0.013666
1350.32	0.012426
1359.96	0.011706
1369.61	0.012226
1379.25	0.013346
1388.9	0.013956
1398.54	0.011656
1408.18	0.009576
1417.83	0.009446
1427.47	0.010696
1437.12	0.016556
1446.76	0.023926
1456.41	0.024806
1466.05	0.027876
1475.7	0.024976
1485.34	0.021266
1494.99	0.034016
1504.63	0.102456
1514.28	0.153776
1523.92	0.041616
1533.57	0.013636
1543.21	0.008096
1552.86	0.006576
1562.5	0.006506
1572.15	0.008096
1581.79	0.011776
1591.44	0.014136
1601.08	0.023166
1610.73	0.031706
1620.37	0.020586
1630.01	0.008906
1639.66	0.005716
1649.3	0.004246
1658.95	0.003216
1668.59	0.002666
1678.24	0.002436
1687.88	0.001966
1697.53	0.001906
1707.17	0.001776
1716.82	0.0015789
1726.46	0.001906
1736.11	0.001936
1745.75	0.002346
1755.4	0.002426
1765.04	0.001996
1774.69	0.0015461
1784.33	0.0014096
1793.98	0.001716
1803.62	0.001592
1813.27	0.001666
1822.91	0.001806
1832.55	0.001836
1842.2	0.002006
1851.84	0.002466
1861.49	0.002816
1871.13	0.003356
1880.78	0.003116
1890.42	0.002576
1900.07	0.001966
1909.71	0.001826
1919.36	0.001666
1929	0.001936
1938.65	0.002046
1948.29	0.002086
1957.94	0.002066
1967.58	0.002156
1977.23	0.002276
1986.87	0.002386
1996.52	0.002426
2006.16	0.002466
2015.81	0.002576
2025.45	0.002386
2035.1	0.002776
2044.74	0.003196
2054.38	0.003536
2064.03	0.003636
2073.67	0.003526
2083.32	0.003306
2092.96	0.002446
2102.61	0.001836
2112.25	0.0013434
2121.9	0.001056
2131.54	0.0011851
2141.19	0.001015
2150.83	0.0011402
2160.48	0.0009226
2170.12	0.0008706
2179.77	0.0010619
2189.41	0.00107
2199.06	0.0012388
2208.7	0.001138
2218.35	0.0010222
2227.99	0.0011794
2237.64	0.0011887
2247.28	0.001289
2256.92	0.0012656
2266.57	0.0014111
2276.21	0.001846
2285.86	0.001836
2295.5	0.00154
2305.15	0.0015964
2314.79	0.0013013
2324.44	0.0015265
2334.08	0.00159
2343.73	0.001666
2353.37	0.0013463
2363.02	0.0012698
2372.66	0.0013291
2382.31	0.0011966
2391.95	0.0011471
2401.6	0.001636
2411.24	0.0015954
2420.89	0.001896
2430.53	0.0015505
2440.18	0.0015956
2449.82	0.001616
2459.47	0.0015351
2469.11	0.001716
2478.75	0.001866
2488.4	0.001976
2498.04	0.002216
2507.69	0.002236
2517.33	0.001926
2526.98	0.001956
2536.62	0.002246
2546.27	0.002006
2555.91	0.001776
2565.56	0.001866
2575.2	0.001716
2584.85	0.001776
2594.49	0.001866
2604.14	0.002216
2613.78	0.0015909
2623.43	0.002026
2633.07	0.002146
2642.72	0.002206
2652.36	0.001946
2662.01	0.001996
2671.65	0.002196
2681.29	0.002466
2690.94	0.002576
2700.58	0.002726
2710.23	0.002936
2719.87	0.002906
2729.52	0.002776
2739.16	0.003236
2748.81	0.003916
2758.45	0.004426
2768.1	0.004366
2777.74	0.005306
2787.39	0.005996
2797.03	0.006766
2806.68	0.008226
2816.32	0.010506
2825.97	0.014136
2835.61	0.024786
2845.26	0.035736
2854.9	0.036816
2864.55	0.044356
2874.19	0.047066
2883.84	0.044176
2893.48	0.041786
2903.12	0.048426
2912.77	0.065486
2922.41	0.083486
2932.06	0.102856
2941.7	0.111096
2951.35	0.086286
2960.99	0.056066
2970.64	0.035346
2980.28	0.024476
2989.93	0.024296
2999.57	0.032036
3009.22	0.033156
3018.86	0.021746
3028.51	0.024156
3038.15	0.022766
3047.8	0.013296
3057.44	0.010386
3067.09	0.011306
3076.73	0.010736
3086.38	0.008386
3096.02	0.007746
3105.67	0.006446
3115.31	0.004626
3124.95	0.003336
3134.6	0.002866
3144.24	0.002676
3153.89	0.0015753
3163.53	0.001966
3173.18	0.0013409
3182.82	0.0011189
3192.47	0.0011728
3202.11	0.0009063
3211.76	0.000816
3221.4	0.0011084
3231.05	0.0009634
3240.69	0.0013515
3250.34	0.001033
3259.98	0.001447
3269.63	0.0007921
3279.27	0.000971
3288.92	0.0006276
3298.56	0.00063005
3308.21	0.0009648
3317.85	0.00070005
3327.49	0.0010574
3337.14	0.0008733
3346.78	0.0010019
3356.43	0.0005457
3366.07	0.0008177
3375.72	0.00067438
3385.36	0.0009076
3395.01	0.0008897
3404.65	0.0007579
3414.3	0.0007645
3423.94	0.00061936
3433.59	0.0011836
3443.23	0.0008734
3452.88	0.0011037
3462.52	0.001269
3472.17	0.0014055
3481.81	0.0013053
3491.46	0.0008889
3501.1	0.0010176
3510.75	0.0008694
3520.39	0.000833
3530.04	0.0011094
3539.68	0.001407
3549.32	0.0010206
3558.97	0.000446
3568.61	0.001328
3578.26	0.0015295
3587.9	0.0014095
3597.55	0.0015602
3607.19	0.002316
3616.84	0.001766
3626.48	0.003446
3636.13	0.003076
3645.77	0.005496
3655.42	0.008286
3665.06	0.011216
3674.71	0.010736
3684.35	0.005816
3694	0.002876
3703.64	0.002536
3713.29	0.001896
3722.93	0.001806
3732.58	0.001586
3742.22	0.0014269
3751.86	0.0011289
3761.51	0.0011306
3771.15	0.0014659
3780.8	0.0013211
3790.44	0.0014129
3800.09	0.0011785
3809.73	0.0011381
3819.38	0.0010928
3829.02	0.0009474
3838.67	0.0007524
3848.31	0.0014379
3857.96	0.0009458
3867.6	0.001646
3877.25	0.0014832
3886.89	0.000963
3896.54	0.0013653
3906.18	0.001223
3915.83	0.00069798
3925.47	0.0009478
3935.12	0.0009838
3944.76	0.0006528
3954.41	0.0008851
3964.05	0.0007516
3973.69	0.0012314
3983.34	0.0011071
3992.98	0.0014325
