Infrared Spectrum: 2-Ethylanthracene
Formula: C 16 H 14
CAS: 52251-71-5
State: gas
Instrument: HP-GC/MS/IRD
Origin: NIST Mass Spectrometry Data Center
1/CM	ABSORBANCE
550	4.5e-05
562	0.0001206
574	0.0005517
586	0.0003852
598	0.0003303
610	0.0006714
622	0.0009972
634	0.0005058
646	0.0005157
658	0.0003267
670	0.0001512
682	0.000126
694	0.000126
706	0.0003087
718	0.0014472
730	0.0062631
742	0.0045072
754	0.0007992
766	0.0002826
778	0.0002664
790	0.0004878
802	0.0006912
814	0.0003663
826	0.0002448
838	0.0003339
850	0.0009873
862	0.0016605
874	0.0039474
886	0.0062343
898	0.00414
910	0.0011664
922	0.0004095
934	0.0008838
946	0.0012627
958	0.0006399
970	0.0002493
982	0.0002799
994	0.0003789
1006	0.0005598
1018	0.0001944
1030	0.0002079
1042	0.0004257
1054	0.0008181
1066	0.0005211
1078	0.0002844
1090	0.0001377
1102	0.0001863
1114	0.0002826
1126	0.0005346
1138	0.000378
1150	0.0005355
1162	0.0006876
1174	0.0003609
1186	0.0001836
1198	0.0001503
1210	0.0002313
1222	0.0001773
1234	0.0001962
1246	0.0002466
1258	0.0003708
1270	0.000639
1282	0.0004599
1294	0.0006228
1306	0.0011295
1318	0.0013293
1330	0.0010206
1342	0.0006237
1354	0.0004284
1366	0.0003393
1378	0.0003987
1390	0.0005643
1402	0.0003852
1414	0.0004302
1426	0.0005292
1438	0.0006795
1450	0.0009018
1462	0.0013257
1474	0.0010341
1486	0.0005535
1498	0.0003078
1510	0.0001611
1522	0.0004284
1534	0.0010305
1546	0.0003537
1558	0.0003357
1570	0.0004203
1582	0.0004779
1594	0.0003924
1606	0.0004014
1618	0.0008505
1630	0.0019305
1642	0.0015795
1654	0.0004914
1666	0.0003438
1678	0.0006588
1690	0.0004968
1702	0.0003483
1714	0.0003618
1726	0.0002871
1738	0.0003132
1750	0.0004608
1762	0.0004248
1774	0.0003852
1786	0.0005418
1798	0.0004914
1810	0.0002016
1822	0.0002115
1834	0.0002196
1846	0.0001881
1858	0.0001161
1870	7.65e-05
1882	0.0001224
1894	0.0003951
1906	0.0005121
1918	0.0003708
1930	0.0004653
1942	0.000171
1954	4.23e-05
1966	4.41e-05
1978	2.79e-05
1990	2.88e-05
2002	3.51e-05
2014	4.32e-05
2026	8.01e-05
2038	5.67e-05
2050	3.42e-05
2062	5.4e-05
2074	3.42e-05
2086	4.5e-05
2098	5.76e-05
2110	3.51e-05
2122	1.71e-05
2134	2.52e-05
2146	2.7e-05
2158	2.16e-05
2170	3.78e-05
2182	2.07e-05
2194	3.06e-05
2206	5.49e-05
2218	4.14e-05
2230	4.14e-05
2242	4.23e-05
2254	4.86e-05
2266	5.22e-05
2278	0.0001044
2290	7.11e-05
2302	6.66e-05
2314	7.74e-05
2326	7.11e-05
2338	5.04e-05
2350	2.52e-05
2362	0
2374	2.34e-05
2386	3.51e-05
2398	4.41e-05
2410	4.59e-05
2422	7.2e-05
2434	6.84e-05
2446	6.48e-05
2458	6.48e-05
2470	3.6e-05
2482	3.96e-05
2494	4.95e-05
2506	3.69e-05
2518	5.94e-05
2530	8.1e-05
2542	7.38e-05
2554	5.4e-05
2566	5.58e-05
2578	5.31e-05
2590	4.5e-05
2602	3.51e-05
2614	5.94e-05
2626	6.93e-05
2638	8.28e-05
2650	7.92e-05
2662	9.45e-05
2674	8.01e-05
2686	9.54e-05
2698	9.81e-05
2710	9.36e-05
2722	9.54e-05
2734	0.000171
2746	0.0001647
2758	0.0001989
2770	0.0001935
2782	0.0001962
2794	0.0002619
2806	0.0003123
2818	0.0003672
2830	0.0004743
2842	0.0006489
2854	0.0010944
2866	0.0019647
2878	0.0024021
2890	0.0027783
2902	0.0026055
2914	0.0026514
2926	0.0030879
2938	0.0044262
2950	0.0044685
2962	0.0045027
2974	0.009
2986	0.004122
2998	0.0029241
3010	0.003384
3022	0.0041076
3034	0.0049896
3046	0.0064944
3058	0.0083106
3070	0.0050616
3082	0.0025641
3094	0.001521
3106	0.0008748
3118	0.0007128
3130	0.000495
3142	0.0003528
3154	0.0003051
3166	0.0002034
3178	0.0001881
3190	0.0002214
3202	0.0002133
3214	0.0001998
3226	0.0001404
3238	0.0001404
3250	0.0001476
3262	0.0001152
3274	0.0001341
3286	9.99e-05
3298	0.0001107
3310	9.72e-05
3322	8.01e-05
3334	0.0001125
3346	9.27e-05
3358	8.64e-05
3370	7.02e-05
3382	0.0001098
3394	6.3e-05
3406	8.73e-05
3418	5.13e-05
3430	8.73e-05
3442	0.0001134
3454	8.55e-05
3466	9.63e-05
3478	0.0001161
3490	9.18e-05
3502	8.55e-05
3514	9.45e-05
3526	5.85e-05
3538	8.46e-05
3550	5.22e-05
3562	8.55e-05
3574	6.12e-05
3586	2.61e-05
3598	0.0001125
3610	6.03e-05
3622	8.73e-05
3634	0.0001197
3646	0.000135
3658	0.0001404
3670	0.0001341
3682	0.0001593
3694	0.0001386
3706	0.0001296
3718	0.0001062
3730	0.000117
3742	9.63e-05
3754	0.0001008
3766	0.000135
3778	0.0001827
3790	0.0001539
3802	0.0001899
3814	0.0001764
3826	0.0001287
3838	0.0001035
