Infrared Spectrum: ANILINE, p-(2-CHLOROETHYL)-, HYDROCHLORIDE
Formula: C8 H11 Cl2 N
CAS: 52273-60-6
State: SOLID (SPLIT MULL), FLUOROLUBE FOR 4000-1330 CM^-^1, NUJOL FOR 1330-460 CM^-^1
Class: COBLENTZ III
Instrument: DOW KBr FOREPRISM-GRATING
Instrument parameters: BLAZED AT 3.5, 12.0, 20.0 MICRON AND CHANGED AT 5.0, 7.5, 14.9 MICRON
Sampling: TRANSMISSION
Resolution: 2
Origin: DOW CHEMICAL COMPANY
1/CM	TRANSMITTANCE
456.767	0.693
465.545	0.643
474.324	0.7351
483.102	0.847
491.88	0.878
500.659	0.894
509.437	0.897
518.216	0.897
526.994	0.89
535.772	0.83
544.551	0.673
553.329	0.6981
562.107	0.873
570.886	0.91
579.664	0.923
588.443	0.927
597.221	0.934
605.999	0.938
614.778	0.941
623.556	0.938
632.334	0.919
641.113	0.827
649.891	0.505
658.669	0.889
667.448	0.952
676.226	0.973
685.005	0.979
693.783	0.978
702.561	0.9229
711.34	0.943
720.118	0.875
728.896	0.924
737.675	0.942
746.453	0.954
755.232	0.961
764.01	0.963
772.788	0.963
781.567	0.963
790.345	0.957
799.123	0.915
807.902	0.698
816.68	0.6871
825.459	0.936
834.237	0.947
843.015	0.952
851.794	0.936
860.572	0.963
869.35	0.96
878.129	0.964
886.907	0.956
895.685	0.912
904.464	0.646
913.242	0.943
922.021	0.961
930.799	0.96
939.577	0.946
948.356	0.842
957.134	0.904
965.912	0.941
974.691	0.924
983.469	0.964
992.248	0.968
1001.03	0.961
1009.8	0.935
1018.58	0.902
1027.36	0.83
1036.14	0.953
1044.92	0.935
1053.7	0.913
1062.47	0.92
1071.25	0.942
1080.03	0.935
1088.81	0.931
1097.59	0.946
1106.37	0.928
1115.14	0.815
1123.92	0.879
1132.7	0.89
1141.48	0.913
1150.26	0.845
1159.04	0.915
1167.81	0.926
1176.59	0.913
1185.37	0.927
1194.15	0.926
1202.93	0.634
1211.71	0.893
1220.49	0.921
1229.26	0.938
1238.04	0.927
1246.82	0.913
1255.6	0.905
1264.38	0.902
1273.16	0.884
1281.93	0.7689
1290.71	0.743
1299.49	0.795
1308.27	0.798
1317.05	0.875
1325.83	0.69
1334.6	0.873
1343.38	0.873
1352.16	0.873
1360.94	0.873
1369.72	0.894
1378.5	0.897
1387.27	0.909
1396.05	0.908
1404.83	0.908
1413.61	0.898
1422.39	0.878
1431.17	0.828
1439.94	0.747
1448.72	0.7942
1457.5	0.904
1466.28	0.898
1475.06	0.873
1483.84	0.838
1492.61	0.761
1501.39	0.6089
1510.17	0.253
1518.95	0.6171
1527.73	0.863
1536.51	0.894
1545.28	0.853
1554.06	0.793
1562.84	0.717
1571.62	0.809
1580.4	0.6641
1589.18	0.964
1597.95	0.995
1606.73	0.964
1615.51	0.8939
1624.29	0.8831
1633.07	1.004
1641.85	1.002
1650.63	0.99
1659.4	0.986
1668.18	0.994
1676.96	0.995
1685.74	0.991
1694.52	0.987
1703.3	0.987
1712.07	0.984
1720.85	0.979
1729.63	0.979
1738.41	0.978
1747.19	0.975
1755.97	0.971
1764.74	0.968
1773.52	0.964
1782.3	0.961
1791.08	0.956
1799.86	0.953
1808.64	0.949
1817.41	0.945
1826.19	0.943
1834.97	0.943
1843.75	0.939
1852.53	0.938
1861.31	0.935
1870.08	0.931
1878.86	0.927
1887.64	0.923
1896.42	0.915
1905.2	0.901
1913.98	0.875
1922.75	0.875
1931.53	0.873
1940.31	0.868
1949.09	0.857
1957.87	0.843
1966.65	0.845
1975.42	0.853
1984.2	0.86
1992.98	0.869
2001.76	0.887
2010.54	0.897
2019.32	0.913
2028.1	0.9199
2036.87	0.927
2045.65	0.932
2054.43	0.935
2063.21	0.935
2071.99	0.932
2080.77	0.932
2089.54	0.936
2098.32	0.936
2107.1	0.935
2115.88	0.931
2124.66	0.9262
2133.44	0.9201
2142.21	0.9151
2150.99	0.909
2159.77	0.8931
2168.55	0.8734
2177.33	0.8817
2186.11	0.884
2194.88	0.8738
2203.66	0.8678
2212.44	0.8682
2221.22	0.8632
2230	0.8522
2238.78	0.8316
2247.55	0.819
2256.33	0.821
2265.11	0.8268
2273.89	0.826
2282.67	0.8215
2291.45	0.8162
2300.22	0.8092
2309	0.8003
2317.78	0.7915
2326.56	0.782
2335.34	0.776
2344.12	0.772
2352.89	0.768
2361.67	0.768
2370.45	0.7656
2379.23	0.7633
2388.01	0.7586
2396.79	0.7507
2405.56	0.7423
2414.34	0.7367
2423.12	0.7327
2431.9	0.7267
2440.68	0.7181
2449.46	0.7108
2458.24	0.7054
2467.01	0.697
2475.79	0.6848
2484.57	0.6768
2493.35	0.6646
2502.13	0.6477
2510.91	0.6333
2519.68	0.6133
2528.46	0.5904
2537.24	0.5682
2546.02	0.5284
2554.8	0.5042
2563.58	0.4616
2572.35	0.3939
2581.13	0.2746
2589.91	0.312
2598.69	0.3125
2607.47	0.3179
2616.25	0.4108
2625.02	0.5174
2633.8	0.5181
2642.58	0.5111
2651.36	0.5031
2660.14	0.4967
2668.92	0.4892
2677.69	0.4826
2686.47	0.4786
2695.25	0.4605
2704.03	0.4466
2712.81	0.4374
2721.59	0.4188
2730.36	0.3931
2739.14	0.3631
2747.92	0.3346
2756.7	0.3206
2765.48	0.3033
2774.26	0.2839
2783.03	0.2576
2791.81	0.2333
2800.59	0.218
2809.37	0.207
2818.15	0.202
2826.93	0.202
2835.71	0.202
2844.48	0.2059
2853.26	0.2136
2862.04	0.2163
2870.82	0.2245
2879.6	0.2395
2888.38	0.249
2897.15	0.247
2905.93	0.25
2914.71	0.2655
2923.49	0.2801
2932.27	0.3125
2941.05	0.3556
2949.82	0.4018
2958.6	0.4316
2967.38	0.467
2976.16	0.521
2984.94	0.5725
2993.72	0.6015
3002.49	0.6212
3011.27	0.6568
3020.05	0.6766
3028.83	0.6994
3037.61	0.7099
3046.39	0.7204
3055.16	0.7366
3063.94	0.7573
3072.72	0.7755
3081.5	0.8069
3090.28	0.8357
3099.06	0.8562
3107.83	0.8681
3116.61	0.872
3125.39	0.8669
3134.17	0.8641
3142.95	0.8691
3151.73	0.8761
3160.5	0.8841
3169.28	0.893
3178.06	0.894
3186.84	0.894
3195.62	0.894
3204.4	0.891
3213.17	0.891
3221.95	0.89
3230.73	0.889
3239.51	0.884
3248.29	0.8781
3257.07	0.875
3265.85	0.871
3274.62	0.8671
3283.4	0.864
3292.18	0.8582
3300.96	0.854
3309.74	0.8491
3318.52	0.8451
3327.29	0.841
3336.07	0.836
3344.85	0.832
3353.63	0.828
3362.41	0.823
3371.19	0.8173
3379.96	0.8133
3388.74	0.8092
3397.52	0.8025
3406.3	0.7983
3415.08	0.794
3423.86	0.791
3432.63	0.7892
3441.41	0.7844
3450.19	0.7804
3458.97	0.775
3467.75	0.7712
3476.53	0.7615
3485.3	0.757
3494.08	0.757
3502.86	0.758
3511.64	0.758
3520.42	0.758
3529.2	0.7607
3537.97	0.763
3546.75	0.761
3555.53	0.7637
3564.31	0.763
3573.09	0.758
3581.87	0.758
3590.64	0.76
3599.42	0.757
3608.2	0.756
3616.98	0.7533
3625.76	0.75
3634.54	0.747
3643.32	0.7437
3652.09	0.742
3660.87	0.7398
3669.65	0.7368
3678.43	0.735
3687.21	0.7314
3695.99	0.73
3704.76	0.727
3713.54	0.727
3722.32	0.724
3731.1	0.721
3739.88	0.7179
3748.66	0.7114
3757.43	0.709
3766.21	0.708
3774.99	0.706
3783.77	0.706
3792.55	0.706
