Infrared Spectrum: 4-Methyl-.beta.-methyl-.beta.-nitrostyrene
Formula: C 10 H 11 N O 2
CAS: 52287-56-6
State: gas
Origin: EPA-IR VAPOR PHASE LIBRARY
1/CM	ABSORBANCE
549.8	0.006201
559.445	0.002761
569.09	0.001241
578.734	0.0009051
588.379	0.0008428
598.024	0.0006119
607.669	0.0007723
617.313	0.0010672
626.958	0.001177
636.603	0.0011781
646.248	0.001601
655.893	0.002201
665.537	0.002901
675.182	0.006481
684.827	0.009851
694.472	0.008221
704.116	0.010631
713.761	0.012241
723.406	0.010641
733.051	0.008231
742.695	0.007371
752.34	0.008441
761.985	0.008981
771.63	0.008001
781.275	0.009141
790.919	0.015241
800.564	0.028561
810.209	0.038911
819.854	0.031311
829.498	0.026321
839.143	0.033071
848.788	0.022501
858.433	0.029551
868.078	0.050651
877.722	0.026821
887.367	0.015741
897.012	0.017021
906.657	0.018091
916.301	0.013541
925.946	0.008681
935.591	0.008041
945.236	0.009841
954.88	0.011611
964.525	0.018131
974.17	0.037621
983.815	0.052541
993.46	0.023481
1003.1	0.010921
1012.75	0.009871
1022.39	0.010221
1032.04	0.006191
1041.68	0.006131
1051.33	0.005881
1060.97	0.004951
1070.62	0.004801
1080.26	0.005031
1089.91	0.005711
1099.55	0.007331
1109.2	0.009731
1118.84	0.010711
1128.49	0.009201
1138.13	0.006321
1147.78	0.005291
1157.42	0.004831
1167.07	0.005351
1176.71	0.010861
1186.36	0.023201
1196	0.012761
1205.64	0.018231
1215.29	0.013371
1224.93	0.008071
1234.58	0.007151
1244.22	0.007741
1253.87	0.008561
1263.51	0.010051
1273.16	0.011861
1282.8	0.014021
1292.45	0.018101
1302.09	0.031401
1311.74	0.056681
1321.38	0.129511
1331.03	0.251721
1340.67	0.181361
1350.32	0.090241
1359.96	0.043591
1369.61	0.031061
1379.25	0.035131
1388.9	0.045681
1398.54	0.042001
1408.18	0.031291
1417.83	0.026241
1427.47	0.023941
1437.12	0.023811
1446.76	0.024201
1456.41	0.021391
1466.05	0.018561
1475.7	0.020051
1485.34	0.026831
1494.99	0.040041
1504.63	0.065471
1514.28	0.097151
1523.92	0.128561
1533.57	0.206091
1543.21	0.236221
1552.86	0.157921
1562.5	0.087381
1572.15	0.057411
1581.79	0.040131
1591.44	0.027081
1601.08	0.021411
1610.73	0.024501
1620.37	0.017491
1630.01	0.011421
1639.66	0.011131
1649.3	0.012211
1658.95	0.018031
1668.59	0.016891
1678.24	0.007111
1687.88	0.004071
1697.53	0.003351
1707.17	0.003101
1716.82	0.002771
1726.46	0.002541
1736.11	0.002551
1745.75	0.002731
1755.4	0.003131
1765.04	0.003111
1774.69	0.003671
1784.33	0.004981
1793.98	0.004961
1803.62	0.003091
1813.27	0.002391
1822.91	0.002031
1832.55	0.001781
1842.2	0.001811
1851.84	0.001991
1861.49	0.002141
1871.13	0.002451
1880.78	0.002941
1890.42	0.004171
1900.07	0.005201
1909.71	0.004581
1919.36	0.002811
1929	0.001711
1938.65	0.001341
1948.29	0.001231
1957.94	0.001231
1967.58	0.001311
1977.23	0.001211
1986.87	0.0011523
1996.52	0.000967
2006.16	0.0010923
2015.81	0.001281
2025.45	0.0011971
2035.1	0.001201
2044.74	0.0010963
2054.38	0.0010021
2064.03	0.0009248
2073.67	0.0010366
2083.32	0.0010216
2092.96	0.0009785
2102.61	0.0009043
2112.25	0.0007322
2121.9	0.0006931
2131.54	0.0007536
2141.19	0.000768
2150.83	0.0007556
2160.48	0.0008481
2170.12	0.000896
2179.77	0.001084
2189.41	0.001321
2199.06	0.001411
2208.7	0.001261
2218.35	0.001231
2227.99	0.001001
2237.64	0.0008403
2247.28	0.0008015
2256.92	0.0008412
2266.57	0.0008886
2276.21	0.000752
2285.86	0.0008215
2295.5	0.0009621
2305.15	0.001211
2314.79	0.001451
2324.44	0.001137
2334.08	0.0011278
2343.73	0.0011167
2353.37	0.001211
2363.02	0.001271
2372.66	0.001271
2382.31	0.001441
2391.95	0.001471
2401.6	0.001611
2411.24	0.001661
2420.89	0.001811
2430.53	0.001961
2440.18	0.001761
2449.82	0.001661
2459.47	0.001301
2469.11	0.001231
2478.75	0.001122
2488.4	0.0010774
2498.04	0.0009135
2507.69	0.0010718
2517.33	0.0011201
2526.98	0.001156
2536.62	0.0010389
2546.27	0.0009943
2555.91	0.0008732
2565.56	0.0010085
2575.2	0.0010534
2584.85	0.001281
2594.49	0.001331
2604.14	0.001291
2613.78	0.0011623
2623.43	0.001311
2633.07	0.001481
2642.72	0.001501
2652.36	0.001731
2662.01	0.001431
2671.65	0.0011435
2681.29	0.0010884
2690.94	0.001014
2700.58	0.0011324
2710.23	0.001251
2719.87	0.001521
2729.52	0.001601
2739.16	0.002501
2748.81	0.002901
2758.45	0.002131
2768.1	0.001951
2777.74	0.002001
2787.39	0.002041
2797.03	0.002511
2806.68	0.003091
2816.32	0.004171
2825.97	0.005481
2835.61	0.006941
2845.26	0.008921
2854.9	0.012101
2864.55	0.016181
2874.19	0.020061
2883.84	0.019651
2893.48	0.016361
2903.12	0.014911
2912.77	0.016801
2922.41	0.024261
2932.06	0.037081
2941.7	0.034511
2951.35	0.022481
2960.99	0.016951
2970.64	0.016241
2980.28	0.017691
2989.93	0.019621
2999.57	0.022091
3009.22	0.024251
3018.86	0.027061
3028.51	0.040321
3038.15	0.033651
3047.8	0.023691
3057.44	0.023041
3067.09	0.019911
3076.73	0.016311
3086.38	0.014031
3096.02	0.011041
3105.67	0.007101
3115.31	0.005341
3124.95	0.004711
3134.6	0.003581
3144.24	0.002131
3153.89	0.001591
3163.53	0.000974
3173.18	0.0008267
3182.82	0.0009156
3192.47	0.0007738
3202.11	0.0007782
3211.76	0.0005949
3221.4	0.0005111
3231.05	0.0004655
3240.69	0.0004644
3250.34	0.0005595
3259.98	0.0004936
3269.63	0.000501
3279.27	0.0006401
3288.92	0.0005129
3298.56	0.0003586
3308.21	0.0007016
3317.85	0.0003926
3327.49	0.0006933
3337.14	0.0005725
3346.78	0.0003589
3356.43	0.0004598
3366.07	0.0006183
3375.72	0.0003835
3385.36	0.0001182
3395.01	0.0004291
3404.65	0.0001853
3414.3	0.0001096
3423.94	0.0003377
3433.59	0.00028118
3443.23	0.000335
3452.88	0.0003596
3462.52	0.0003733
3472.17	0
3481.81	0.0001559
3491.46	0.0003153
3501.1	0.0001352
3510.75	0.00027505
3520.39	0.00029221
3530.04	0.0003279
3539.68	0.000177
3549.32	0.000207085
3558.97	0.0003685
3568.61	0.0003437
3578.26	0.00029192
3587.9	0.0003251
3597.55	0.000423
3607.19	0.0003758
3616.84	0.00029979
3626.48	0.00019318
3636.13	0.00023215
3645.77	0.0003404
3655.42	0.000200026
3665.06	0.0005272
3674.71	0.0004762
3684.35	0.0005448
3694	0.0005072
3703.64	0.0005229
3713.29	0.0004027
3722.93	0.0004178
3732.58	0.0004776
3742.22	0.0003681
3751.86	0.0004426
3761.51	0.000333
3771.15	0.0004294
3780.8	0.0004537
3790.44	0.0004585
3800.09	0.0004229
3809.73	0.0006125
3819.38	0.0003027
3829.02	0.000384
3838.67	0.0005752
3848.31	0.0003195
3857.96	0.0006626
3867.6	0.0004967
3877.25	0.0005073
3886.89	0.0005199
3896.54	0.0004558
3906.18	0.0006243
3915.83	0.0005046
3925.47	0.0007428
3935.12	0.0006178
3944.76	0.0005656
3954.41	0.0006186
3964.05	0.0007394
3973.69	0.0006271
3983.34	0.0007913
3992.98	0.0008027
