Infrared Spectrum: 2-Methyl-5-nitro-2H-indazole
Formula: C 8 H 7 N 3 O 2
CAS: 5228-48-8
State: gas
Origin: EPA-IR VAPOR PHASE LIBRARY
1/CM	ABSORBANCE
549.8	0.0017718
559.445	0.000717
569.09	0.000927
578.734	0.00331
588.379	0.00376
598.024	0.0022495
607.669	0.0021205
617.313	0.00386
626.958	0.00535
636.603	0.00342
646.248	0.0022269
655.893	0.0018266
665.537	0.001869
675.182	0.0016115
684.827	0.001126
694.472	0.0019065
704.116	0.0022428
713.761	0.00316
723.406	0.00452
733.051	0.00629
742.695	0.01411
752.34	0.0155
761.985	0.00782
771.63	0.01012
781.275	0.02042
790.919	0.0149
800.564	0.00753
810.209	0.01016
819.854	0.00559
829.498	0.00337
839.143	0.00443
848.788	0.00412
858.433	0.00296
868.078	0.0019422
877.722	0.0021591
887.367	0.00325
897.012	0.00572
906.657	0.00638
916.301	0.00442
925.946	0.00287
935.591	0.00492
945.236	0.00455
954.88	0.00228
964.525	0.00306
974.17	0.00478
983.815	0.00446
993.46	0.0025
1003.1	0.0020129
1012.75	0.0015814
1022.39	0.00130359
1032.04	0.00238
1041.68	0.00325
1051.33	0.00422
1060.97	0.00991
1070.62	0.01724
1080.26	0.00965
1089.91	0.00287
1099.55	0.00321
1109.2	0.00313
1118.84	0.00248
1128.49	0.00305
1138.13	0.00375
1147.78	0.00563
1157.42	0.00447
1167.07	0.0024
1176.71	0.0021204
1186.36	0.0016287
1196	0.00344
1205.64	0.00419
1215.29	0.00595
1224.93	0.00514
1234.58	0.0018556
1244.22	0.0021785
1253.87	0.0017005
1263.51	0.0033
1273.16	0.00535
1282.8	0.00458
1292.45	0.00454
1302.09	0.0058
1311.74	0.00596
1321.38	0.00981
1331.03	0.02781
1340.67	0.06067
1350.32	0.0641
1359.96	0.03751
1369.61	0.02095
1379.25	0.01087
1388.9	0.0085
1398.54	0.00611
1408.18	0.00865
1417.83	0.00945
1427.47	0.0075
1437.12	0.00719
1446.76	0.00926
1456.41	0.01087
1466.05	0.00817
1475.7	0.00745
1485.34	0.01018
1494.99	0.01835
1504.63	0.01916
1514.28	0.01732
1523.92	0.02335
1533.57	0.0331
1543.21	0.04141
1552.86	0.03325
1562.5	0.01468
1572.15	0.0096
1581.79	0.01268
1591.44	0.01381
1601.08	0.01157
1610.73	0.01534
1620.37	0.01528
1630.01	0.00881
1639.66	0.00593
1649.3	0.00387
1658.95	0.00327
1668.59	0.00321
1678.24	0.00284
1687.88	0.0022386
1697.53	0.001903
1707.17	0.0016464
1716.82	0.0016682
1726.46	0.0016896
1736.11	0.0016891
1745.75	0.0021106
1755.4	0.002203
1765.04	0.0015959
1774.69	0.00128389
1784.33	0.0015246
1793.98	0.0017142
1803.62	0.0019376
1813.27	0.0020375
1822.91	0.0017015
1832.55	0.0014844
1842.2	0.0013985
1851.84	0.0014009
1861.49	0.00130154
1871.13	0.0014357
1880.78	0.0018066
1890.42	0.001907
1900.07	0.001733
1909.71	0.0015586
1919.36	0.0015497
1929	0.0014789
1938.65	0.00151
1948.29	0.0014261
1957.94	0.0014639
1967.58	0.00128802
1977.23	0.001172
1986.87	0.00146
1996.52	0.0015379
2006.16	0.0015691
2015.81	0.0014458
2025.45	0.0014771
2035.1	0.0012448
2044.74	0.00134895
2054.38	0.00136201
2064.03	0.0012159
2073.67	0.0014803
2083.32	0.001449
2092.96	0.00136787
2102.61	0.0014384
2112.25	0.00132649
2121.9	0.0012262
2131.54	0.0014714
2141.19	0.0014735
2150.83	0.00132185
2160.48	0.0012566
2170.12	0.0013378
2179.77	0.0014476
2189.41	0.001167
2199.06	0.0014427
2208.7	0.0015273
2218.35	0.0013929
2227.99	0.001372
2237.64	0.0013758
2247.28	0.0014545
2256.92	0.0014904
2266.57	0.0015165
2276.21	0.0014536
2285.86	0.0015578
2295.5	0.0018309
2305.15	0.0016698
2314.79	0.0013821
2324.44	0.001433
2334.08	0.0017784
2343.73	0.0015581
2353.37	0.0017641
2363.02	0.0017109
2372.66	0.0014131
2382.31	0.001656
2391.95	0.001696
2401.6	0.0017055
2411.24	0.0017326
2420.89	0.0017034
2430.53	0.0016328
2440.18	0.0016322
2449.82	0.001415
2459.47	0.001464
2469.11	0.00135494
2478.75	0.0014662
2488.4	0.0014223
2498.04	0.0015024
2507.69	0.0015723
2517.33	0.0014354
2526.98	0.0015601
2536.62	0.0014297
2546.27	0.0014817
2555.91	0.0017067
2565.56	0.0019218
2575.2	0.0015615
2584.85	0.0019459
2594.49	0.002059
2604.14	0.0017326
2613.78	0.0018766
2623.43	0.0018494
2633.07	0.0016943
2642.72	0.0019557
2652.36	0.0017623
2662.01	0.0018855
2671.65	0.0019138
2681.29	0.0016817
2690.94	0.0017562
2700.58	0.0017449
2710.23	0.001647
2719.87	0.0017411
2729.52	0.0020009
2739.16	0.0020326
2748.81	0.0020901
2758.45	0.001944
2768.1	0.0020051
2777.74	0.0018658
2787.39	0.0020117
2797.03	0.0020769
2806.68	0.0020904
2816.32	0.00237
2825.97	0.00237
2835.61	0.00246
2845.26	0.00261
2854.9	0.00299
2864.55	0.00316
2874.19	0.00335
2883.84	0.00361
2893.48	0.00421
2903.12	0.0042
2912.77	0.00428
2922.41	0.00444
2932.06	0.00543
2941.7	0.00774
2951.35	0.0098
2960.99	0.00836
2970.64	0.00526
2980.28	0.00373
2989.93	0.00283
2999.57	0.00244
3009.22	0.0022059
3018.86	0.0021219
3028.51	0.0022596
3038.15	0.00231
3047.8	0.00251
3057.44	0.00243
3067.09	0.00271
3076.73	0.0031
3086.38	0.00284
3096.02	0.0027
3105.67	0.00252
3115.31	0.00238
3124.95	0.0020757
3134.6	0.0016465
3144.24	0.0014312
3153.89	0.0016081
3163.53	0.0016182
3173.18	0.0015316
3182.82	0.0015411
3192.47	0.0012211
3202.11	0.0014362
3211.76	0.001744
3221.4	0.0013292
3231.05	0.0013731
3240.69	0.0016645
3250.34	0.0013946
3259.98	0.0012466
3269.63	0.00134022
3279.27	0.001591
3288.92	0.001038
3298.56	0.0014555
3308.21	0.00133344
3317.85	0.0018227
3327.49	0.0016725
3337.14	0.0013747
3346.78	0.0014325
3356.43	0.00129322
3366.07	0.0011804
3375.72	0.001542
3385.36	0.00133256
3395.01	0.0015031
3404.65	0.000907
3414.3	0.0013708
3423.94	0.000667
3433.59	0.001011
3443.23	0.0012598
3452.88	0.001072
3462.52	0.0017177
3472.17	0.00128521
3481.81	0.001083
3491.46	0.000854
3501.1	0.001011
3510.75	0.000744
3520.39	0.00127692
3530.04	0.00134685
3539.68	0.00130729
3549.32	0.0015237
3558.97	0.000981
3568.61	0.001082
3578.26	0.001075
3587.9	0.000992
3597.55	0.0014336
3607.19	0.0015924
3616.84	0.0014657
3626.48	0.00109
3636.13	0.00126548
3645.77	0.000992
3655.42	0.0015925
3665.06	0.00130024
3674.71	0.001045
3684.35	0.0012415
3694	0.0014445
3703.64	0.00131298
3713.29	0.0015946
3722.93	0.0014968
3732.58	0.000904
3742.22	0.0014145
3751.86	0.0013727
3761.51	0.00134201
3771.15	0.0012083
3780.8	0.0017295
3790.44	0.000977
3800.09	0.001019
3809.73	0.001028
3819.38	0.00136542
3829.02	0.0012211
3838.67	0.0014236
3848.31	0.00134368
3857.96	0.00134321
3867.6	0.001432
3877.25	0.0016048
3886.89	0.00126744
3896.54	0.0015456
3906.18	0.00134894
3915.83	0.001132
3925.47	0.0011842
3935.12	0.001074
3944.76	0.00134367
3954.41	0.0011795
3964.05	0.001126
3973.69	0.0012877
3983.34	0.0015511
3992.98	0.0014952
