Infrared Spectrum: 3,4-Ethylenedioxybromobenzene
Formula: C 8 H 7 Br O 2
CAS: 52287-51-1
State: gas
Origin: EPA-IR VAPOR PHASE LIBRARY
1/CM	ABSORBANCE
549.9	0.0031893
559.547	0.0046
569.193	0.00886
578.84	0.01122
588.486	0.01083
598.133	0.01787
607.779	0.00765
617.426	0.0030303
627.072	0.0036064
636.719	0.0035047
646.365	0.0033639
656.012	0.0043
665.658	0.00891
675.305	0.01862
684.951	0.01285
694.598	0.00497
704.245	0.003591
713.891	0.002438
723.538	0.002265
733.184	0.00452
742.831	0.01809
752.477	0.01104
762.124	0.0035223
771.77	0.00416
781.417	0.00945
791.063	0.02582
800.71	0.0455
810.356	0.03106
820.003	0.01206
829.649	0.00609
839.296	0.01
848.943	0.03168
858.589	0.05742
868.236	0.0343
877.882	0.02219
887.529	0.07545
897.175	0.09144
906.822	0.0229
916.468	0.01662
926.115	0.02757
935.761	0.03122
945.408	0.01415
955.054	0.00475
964.701	0.002595
974.347	0.002574
983.994	0.0029222
993.64	0.0032714
1003.29	0.0030509
1012.93	0.0030514
1022.58	0.00414
1032.23	0.0071
1041.87	0.01683
1051.52	0.05374
1061.17	0.14572
1070.81	0.17506
1080.46	0.06891
1090.11	0.01642
1099.75	0.01295
1109.4	0.02138
1119.05	0.02877
1128.69	0.02368
1138.34	0.00963
1147.99	0.00595
1157.63	0.00552
1167.28	0.00635
1176.92	0.01431
1186.57	0.03998
1196.22	0.04685
1205.86	0.01704
1215.51	0.01083
1225.16	0.02325
1234.8	0.06044
1244.45	0.16473
1254.1	0.1547
1263.74	0.0625
1273.39	0.13392
1283.04	0.26005
1292.68	0.2624
1302.33	0.11585
1311.98	0.02402
1321.62	0.01654
1331.27	0.01536
1340.92	0.01517
1350.56	0.01308
1360.21	0.01802
1369.86	0.02239
1379.5	0.03062
1389.15	0.01631
1398.79	0.01434
1408.44	0.02305
1418.09	0.02705
1427.73	0.03289
1437.38	0.0318
1447.03	0.0224
1456.67	0.04697
1466.32	0.07207
1475.97	0.11979
1485.61	0.36133
1495.26	0.29926
1504.91	0.07119
1514.55	0.02244
1524.2	0.01172
1533.85	0.0137
1543.49	0.01108
1553.14	0.00833
1562.79	0.01194
1572.43	0.02681
1582.08	0.05582
1591.73	0.06006
1601.37	0.03227
1611.02	0.01383
1620.67	0.00531
1630.31	0.00429
1639.96	0.00397
1649.6	0.0034415
1659.25	0.00397
1668.9	0.00417
1678.54	0.0033068
1688.19	0.003073
1697.84	0.00445
1707.48	0.00664
1717.13	0.0071
1726.78	0.00505
1736.42	0.0029459
1746.07	0.002452
1755.72	0.002474
1765.36	0.002559
1775.01	0.00280849
1784.66	0.0032792
1794.3	0.0033482
1803.95	0.00274537
1813.6	0.00248
1823.24	0.002526
1832.89	0.0034
1842.54	0.00534
1852.18	0.00644
1861.83	0.00542
1871.47	0.00423
1881.12	0.0032592
1890.77	0.0026697
1900.41	0.002306
1910.06	0.002219
1919.71	0.0026454
1929.35	0.0030028
1939	0.0031637
1948.65	0.0034628
1958.29	0.00394
1967.94	0.00413
1977.59	0.0047
1987.23	0.00581
1996.88	0.00533
2006.53	0.0035921
2016.17	0.0032878
2025.82	0.00375
2035.47	0.00447
2045.11	0.00507
2054.76	0.00446
2064.41	0.00273088
2074.05	0.002161
2083.7	0.002498
2093.35	0.0029466
2102.99	0.0028568
2112.64	0.002958
2122.28	0.0032177
2131.93	0.0029228
2141.58	0.002463
2151.22	0.002147
2160.87	0.002005
2170.52	0.002141
2180.16	0.002147
2189.81	0.001958
2199.46	0.001917
2209.1	0.002175
2218.75	0.0026727
2228.4	0.0035708
2238.04	0.0035856
2247.69	0.0029048
2257.34	0.002609
2266.98	0.00281193
2276.63	0.00277614
2286.28	0.002298
2295.92	0.002149
2305.57	0.002565
2315.22	0.00304
2324.86	0.0031212
2334.51	0.0028512
2344.16	0.00271508
2353.8	0.0029251
2363.45	0.0027664
2373.09	0.0028249
2382.74	0.0030238
2392.39	0.00237
2402.03	0.001911
2411.68	0.002013
2421.33	0.002547
2430.97	0.0029373
2440.62	0.0028596
2450.27	0.0029007
2459.91	0.002847
2469.56	0.00280543
2479.21	0.002473
2488.85	0.002263
2498.5	0.002211
2508.15	0.002384
2517.79	0.0029149
2527.44	0.0037044
2537.09	0.0036886
2546.73	0.002868
2556.38	0.002463
2566.03	0.0028632
2575.67	0.0032639
2585.32	0.002567
2594.96	0.001819
2604.61	0.00169
2614.26	0.00172
2623.9	0.00162
2633.55	0.00166
2643.2	0.00172
2652.84	0.001996
2662.49	0.00206
2672.14	0.001897
2681.78	0.001885
2691.43	0.002088
2701.08	0.002926
2710.72	0.00464
2720.37	0.00506
2730.02	0.00386
2739.66	0.0034993
2749.31	0.0031532
2758.96	0.0026513
2768.6	0.0027039
2778.25	0.0029349
2787.9	0.0029691
2797.54	0.00279265
2807.19	0.0029567
2816.84	0.0032563
2826.48	0.0037037
2836.13	0.0048
2845.77	0.00548
2855.42	0.0069
2865.07	0.01161
2874.71	0.02554
2884.36	0.05811
2894.01	0.04725
2903.65	0.0228
2913.3	0.01576
2922.95	0.01948
2932.59	0.03161
2942.24	0.03239
2951.89	0.02178
2961.53	0.01626
2971.18	0.02586
2980.83	0.08463
2990.47	0.08195
3000.12	0.01248
3009.77	0.0037187
3019.41	0.002458
3029.06	0.002015
3038.71	0.002232
3048.35	0.0033679
3058	0.00407
3067.64	0.00446
3077.29	0.00423
3086.94	0.0029959
3096.58	0.002041
3106.23	0.00108
3115.88	0.00056
3125.52	0.00022
3135.17	5e-05
3144.82	2e-05
3154.46	7e-05
3164.11	0.00011
3173.76	0.0001
3183.4	0.00015
3193.05	0.00018
3202.7	0.00022
3212.34	0.00023
3221.99	0.00013
3231.64	0.00022
3241.28	0.00018
3250.93	0.00045
3260.58	9e-05
3270.22	6e-05
3279.87	0.00021
3289.52	0.00031
3299.16	0.00024
3308.81	0.00037
3318.45	0.00035
3328.1	0.00025
3337.75	0.00022
3347.39	0.00019
3357.04	0.00033
3366.69	0.00025
3376.33	0.00038
3385.98	0.0004
3395.63	0.00041
3405.27	0.00055
3414.92	0.00039
3424.57	0.00028
3434.21	0.00036
3443.86	0.00053
3453.51	0.00061
3463.15	0.00058
3472.8	0.00073
3482.45	0.00078
3492.09	0.00072
3501.74	0.00071
3511.39	0.00082
3521.03	0.00077
3530.68	0.00071
3540.33	0.00088
3549.97	0.00082
3559.62	0.00084
3569.26	0.00102
3578.91	0.00097
3588.56	0.00098
3598.2	0.001
3607.85	0.00115
3617.5	0.00104
3627.14	0.00105
3636.79	0.00114
3646.44	0.00122
3656.08	0.00117
3665.73	0.00115
3675.38	0.0012
3685.02	0.00125
3694.67	0.00114
3704.32	0.00124
3713.96	0.00113
3723.61	0.00117
3733.26	0.00123
3742.9	0.00135
3752.55	0.00127
3762.2	0.00125
3771.84	0.00139
3781.49	0.00146
3791.13	0.00134
3800.78	0.00148
3810.43	0.00141
3820.07	0.00142
3829.72	0.00142
3839.37	0.00135
3849.01	0.00142
3858.66	0.00148
3868.31	0.00152
3877.95	0.00164
3887.6	0.00147
3897.25	0.00143
3906.89	0.00155
3916.54	0.00155
3926.19	0.00178
3935.83	0.001977
3945.48	0.002093
3955.13	0.00191
3964.77	0.00167
3974.42	0.00157
3984.07	0.00162
3993.71	0.00166
