Infrared Spectrum: 9,10-Dibromoanthracene
Formula: C 14 H 8 Br 2
CAS: 523-27-3
State: gas
Instrument: HP-GC/MS/IRD
Origin: NIST Mass Spectrometry Data Center
1/CM	ABSORBANCE
550	0.0001848
562	0.0002052
574	0.0007356
586	0.0016632
598	0.0006816
610	0.000552
622	0.0001476
634	0.000114
646	0.0001536
658	0.0001884
670	0.0005316
682	0.0004152
694	0.0002592
706	0.0001812
718	0.0002604
730	0.0005736
742	0.0042324
754	0.0093876
766	0.0006312
778	0.0002748
790	0.0002052
802	0.000156
814	0.0001572
826	9.36e-05
838	0.000198
850	0.0003948
862	0.0003936
874	0.0002796
886	0.0003048
898	0.0003912
910	0.0010344
922	0.0052668
934	0.006408
946	0.0006012
958	0.0002796
970	0.0001476
982	9.36e-05
994	2.76e-05
1006	7.92e-05
1018	0.0006048
1030	0.0009804
1042	0.0001092
1054	8.04e-05
1066	8.28e-05
1078	5.04e-05
1090	4.44e-05
1102	1.8e-05
1114	5.4e-05
1126	2.64e-05
1138	0.0001512
1150	0.00036
1162	0.001548
1174	0.0003216
1186	0.000198
1198	0.0002064
1210	0.0002136
1222	0.0002004
1234	0.0004536
1246	0.0014064
1258	0.005886
1270	0.00159
1282	0.0008052
1294	0.0013764
1306	0.0046572
1318	0.000606
1330	0.000708
1342	0.0002808
1354	0.0002172
1366	7.32e-05
1378	6e-05
1390	4.68e-05
1402	6.12e-05
1414	0.0001416
1426	0.0004272
1438	0.0014592
1450	0.0005652
1462	9.6e-05
1474	7.44e-05
1486	0.0001488
1498	0.0002724
1510	0.0002484
1522	0.0006672
1534	0.0002568
1546	8.28e-05
1558	3.12e-05
1570	3.72e-05
1582	0.0001296
1594	0.0001872
1606	0.0001332
1618	0.0002436
1630	0.0001908
1642	6.24e-05
1654	3.6e-05
1666	6.36e-05
1678	9.6e-05
1690	0.0003084
1702	0.0005568
1714	0.0001716
1726	0.0001344
1738	0.000132
1750	7.92e-05
1762	4.8e-05
1774	5.16e-05
1786	0.0001776
1798	0.0003504
1810	0.00042
1822	0.0002364
1834	7.08e-05
1846	4.44e-05
1858	2.28e-05
1870	4.8e-06
1882	4.44e-05
1894	9.12e-05
1906	0.000204
1918	0.0002088
1930	0.000228
1942	0.0003732
1954	0.0001416
1966	3.96e-05
1978	4.08e-05
1990	1.92e-05
2002	4.32e-05
2014	1.92e-05
2026	2.88e-05
2038	3.36e-05
2050	4.92e-05
2062	3.84e-05
2074	3.12e-05
2086	3.72e-05
2098	2.4e-05
2110	2.76e-05
2122	4.44e-05
2134	3.48e-05
2146	8.4e-06
2158	1.44e-05
2170	2.76e-05
2182	3.12e-05
2194	3.84e-05
2206	2.64e-05
2218	4.2e-05
2230	6.36e-05
2242	3.72e-05
2254	2.52e-05
2266	3.24e-05
2278	3.48e-05
2290	4.92e-05
2302	3.6e-05
2314	4.32e-05
2326	7.68e-05
2338	5.28e-05
2350	3.96e-05
2362	3.24e-05
2374	4.2e-05
2386	3.72e-05
2398	1.32e-05
2410	3.24e-05
2422	2.76e-05
2434	4.56e-05
2446	2.4e-05
2458	3.96e-05
2470	6.12e-05
2482	4.56e-05
2494	3.84e-05
2506	2.52e-05
2518	2.4e-05
2530	5.28e-05
2542	3.12e-05
2554	4.08e-05
2566	1.8e-05
2578	1.32e-05
2590	2.76e-05
2602	3.12e-05
2614	2.04e-05
2626	3.84e-05
2638	1.68e-05
2650	1.68e-05
2662	3.96e-05
2674	4.44e-05
2686	4.68e-05
2698	2.88e-05
2710	3.96e-05
2722	8.4e-06
2734	2.88e-05
2746	2.52e-05
2758	9.6e-06
2770	2.28e-05
2782	3.12e-05
2794	2.52e-05
2806	4.56e-05
2818	3.84e-05
2830	1.56e-05
2842	1.2e-05
2854	2.88e-05
2866	3.84e-05
2878	3.12e-05
2890	2.16e-05
2902	2.64e-05
2914	8.16e-05
2926	3.72e-05
2938	5.76e-05
2950	4.56e-05
2962	8.52e-05
2974	0.0001368
2986	0.0001824
2998	0.0001416
3010	0.0001164
3022	0.0002412
3034	0.0007044
3046	0.0010788
3058	0.0007404
3070	0.0008712
3082	0.0028524
3094	0.001818
3106	0.0002616
3118	9.48e-05
3130	8.52e-05
3142	9e-05
3154	0.0001044
3166	7.08e-05
3178	8.16e-05
3190	2.64e-05
3202	4.44e-05
3214	1.56e-05
3226	5.28e-05
3238	5.88e-05
3250	1.44e-05
3262	3.96e-05
3274	1.44e-05
3286	1.08e-05
3298	5.28e-05
3310	9.6e-06
3322	3e-05
3334	4.2e-05
3346	2.52e-05
3358	5.64e-05
3370	3.72e-05
3382	5.16e-05
3394	1.8e-05
3406	6.72e-05
3418	1.2e-05
3430	3.12e-05
3442	2.64e-05
3454	3.36e-05
3466	4.8e-05
3478	7.32e-05
3490	5.88e-05
3502	6.6e-05
3514	5.76e-05
3526	5.76e-05
3538	7.92e-05
3550	2.28e-05
3562	3.12e-05
3574	2.4e-05
3586	6.96e-05
3598	5.52e-05
3610	5.64e-05
3622	6.36e-05
3634	5.16e-05
3646	8.04e-05
3658	8.16e-05
3670	5.88e-05
3682	9.36e-05
3694	8.88e-05
3706	6.96e-05
3718	6.48e-05
3730	8.4e-05
3742	0.0001032
3754	5.64e-05
3766	9.6e-05
3778	9.12e-05
3790	9e-05
3802	3.48e-05
3814	6e-05
3826	4.92e-05
3838	2.52e-05
