Infrared Spectrum: DIBENZYL PHTHALATE
Formula: C22 H18 O4
CAS: 523-31-9
State: SOLUTION (10% CCl4 FOR 2.5-7.5, 10% CS2 FOR 7.5-16 MICRON)
Class: COBLENTZ
Instrument: Not specified, most likely a prism, grating, or hybrid spectrometer.
Sampling: TRANSMISSION
Path length: 0.01 CM, 0.01 CM
Resolution: 4
Origin: DOW CHEMICAL COMPANY
MICROMETERS	TRANSMITTANCE
2.032	0.859
2.07096	0.861
2.10993	0.857
2.14889	0.859
2.18785	0.864
2.22682	0.862
2.26578	0.861
2.30474	0.864
2.34371	0.867
2.38267	0.865
2.42164	0.859
2.4606	0.862
2.49956	0.872
2.53853	0.87
2.57749	0.869
2.61645	0.869
2.65542	0.872
2.69438	0.867
2.73334	0.869
2.77231	0.865
2.81127	0.865
2.85023	0.856
2.8892	0.835
2.92816	0.859
2.96712	0.865
3.00609	0.869
3.04505	0.869
3.08401	0.869
3.12298	0.864
3.16194	0.851
3.20091	0.798
3.23987	0.673
3.27883	0.617
3.3178	0.777
3.35676	0.699
3.39572	0.785
3.43469	0.783
3.47365	0.849
3.51261	0.867
3.55158	0.877
3.59054	0.878
3.6295	0.88
3.66847	0.88
3.70743	0.882
3.74639	0.882
3.78536	0.882
3.82432	0.88
3.86329	0.882
3.90225	0.882
3.94121	0.882
3.98018	0.885
4.01914	0.89
4.0581	0.883
4.09707	0.882
4.13603	0.882
4.17499	0.88
4.21396	0.862
4.25292	0.854
4.29188	0.865
4.33085	0.872
4.36981	0.877
4.40877	0.877
4.44774	0.883
4.4867	0.886
4.52567	0.886
4.56463	0.89
4.60359	0.893
4.64256	0.89
4.68152	0.888
4.72048	0.89
4.75945	0.882
4.79841	0.882
4.83737	0.882
4.87634	0.886
4.9153	0.878
4.95426	0.878
4.99323	0.872
5.03219	0.856
5.07115	0.828
5.11012	0.81
5.14908	0.864
5.18804	0.87
5.22701	0.862
5.26597	0.838
5.30494	0.822
5.3439	0.83
5.38286	0.838
5.42183	0.823
5.46079	0.809
5.49975	0.775
5.53872	0.777
5.57768	0.735
5.61664	0.63
5.65561	0.441
5.69457	0.234
5.73353	0.03
5.7725	0.033
5.81146	0.234
5.85042	0.521
5.88939	0.647
5.92835	0.744
5.96732	0.781
6.00628	0.799
6.04524	0.809
6.08421	0.799
6.12317	0.767
6.16213	0.652
6.2011	0.534
6.24006	0.526
6.27902	0.449
6.31799	0.507
6.35695	0.499
6.39591	0.436
6.43488	0.434
6.47384	0.523
6.5128	0.568
6.55177	0.6
6.59073	0.604
6.6297	0.486
6.66866	0.6
6.70762	0.738
6.74659	0.697
6.78555	0.589
6.82451	0.436
6.86348	0.567
6.90244	0.746
6.9414	0.804
6.98037	0.82
7.01933	0.823
7.05829	0.819
7.09726	0.799
7.13622	0.747
7.17518	0.604
7.21415	0.397
7.25311	0.523
7.29207	0.735
7.33104	0.762
7.37	0.756
7.40897	0.709
7.44793	0.649
7.48689	0.62
7.52586	0.554
7.56482	0.452
7.60378	0.336
7.64275	0.2
7.68171	0.051
7.72067	0.014
7.75964	0.012
7.7986	0.012
7.83756	0.012
7.87653	0.012
7.91549	0.032
7.95445	0.075
7.99342	0.135
8.03238	0.263
8.07135	0.395
8.11031	0.458
8.14927	0.457
8.18824	0.429
8.2272	0.499
8.26616	0.583
8.30513	0.594
8.34409	0.6
8.38305	0.6
8.42202	0.592
8.46098	0.589
8.49994	0.578
8.53891	0.542
8.57787	0.534
8.61683	0.531
8.6558	0.497
8.69476	0.387
8.73372	0.214
8.77269	0.085
8.81165	0.038
8.85062	0.022
8.88958	0.019
8.92854	0.03
8.96751	0.108
9.00647	0.205
9.04543	0.4
9.0844	0.484
9.12336	0.518
9.16232	0.491
9.20129	0.4
9.24025	0.255
9.27921	0.147
9.31818	0.067
9.35714	0.064
9.3961	0.216
9.43507	0.426
9.47403	0.518
9.513	0.525
9.55196	0.405
9.59092	0.347
9.62989	0.441
9.66885	0.387
9.70781	0.468
9.74678	0.57
9.78574	0.588
9.8247	0.596
9.86367	0.596
9.90263	0.584
9.94159	0.571
9.98056	0.588
10.0195	0.583
10.0585	0.563
10.0974	0.541
10.1364	0.525
10.1754	0.516
10.2143	0.507
10.2533	0.491
10.2923	0.46
10.3312	0.429
10.3702	0.405
10.4092	0.397
10.4481	0.423
10.4871	0.449
10.526	0.47
10.565	0.486
10.604	0.525
10.6429	0.563
10.6819	0.596
10.7209	0.609
10.7598	0.615
10.7988	0.612
10.8378	0.584
10.8767	0.537
10.9157	0.453
10.9546	0.411
10.9936	0.458
11.0326	0.521
11.0715	0.547
11.1105	0.554
11.1495	0.547
11.1884	0.536
11.2274	0.515
11.2664	0.502
11.3053	0.502
11.3443	0.512
11.3832	0.525
11.4222	0.531
11.4612	0.531
11.5001	0.531
11.5391	0.523
11.5781	0.516
11.617	0.51
11.656	0.505
11.695	0.507
11.7339	0.515
11.7729	0.528
11.8118	0.544
11.8508	0.552
11.8898	0.557
11.9287	0.567
11.9677	0.567
12.0067	0.558
12.0456	0.552
12.0846	0.547
12.1236	0.542
12.1625	0.544
12.2015	0.55
12.2404	0.552
12.2794	0.552
12.3184	0.55
12.3573	0.542
12.3963	0.531
12.4353	0.513
12.4742	0.497
12.5132	0.455
12.5521	0.424
12.5911	0.423
12.6301	0.432
12.669	0.444
12.708	0.45
12.747	0.452
12.7859	0.462
12.8249	0.463
12.8639	0.462
12.9028	0.458
12.9418	0.455
12.9807	0.45
13.0197	0.434
13.0587	0.413
13.0976	0.389
13.1366	0.34
13.1756	0.279
13.2145	0.203
13.2535	0.132
13.2925	0.08
13.3314	0.053
13.3704	0.04
13.4093	0.03
13.4483	0.025
13.4873	0.021
13.5262	0.027
13.5652	0.045
13.6042	0.071
13.6431	0.1
13.6821	0.134
13.7211	0.19
13.76	0.252
13.799	0.303
13.8379	0.352
13.8769	0.376
13.9159	0.389
13.9548	0.384
13.9938	0.36
14.0328	0.332
14.0717	0.279
14.1107	0.218
14.1497	0.163
14.1886	0.114
14.2276	0.082
14.2665	0.051
14.3055	0.029
14.3445	0.021
14.3834	0.038
14.4224	0.117
14.4614	0.192
14.5003	0.274
14.5393	0.326
14.5783	0.373
14.6172	0.386
14.6562	0.392
14.6951	0.392
14.7341	0.392
14.7731	0.395
14.812	0.402
14.851	0.403
14.89	0.4
14.9289	0.399
14.9679	0.403
15.0069	0.405
15.0458	0.395
15.0848	0.389
15.1237	0.379
15.1627	0.363
15.2017	0.347
15.2406	0.334
15.2796	0.324
15.3186	0.313
15.3575	0.308
15.3965	0.305
15.4354	0.303
15.4744	0.303
15.5134	0.306
15.5523	0.305
15.5913	0.303
15.6303	0.302
15.6692	0.294
15.7082	0.289
15.7472	0.287
15.7861	0.284
15.8251	0.277
15.864	0.279
15.903	0.287
