Infrared Spectrum: 2,3,5,6-Tetrafluorotoluene
Formula: C 7 H 4 F 4
CAS: 5230-78-4
State: gas
Origin: EPA-IR VAPOR PHASE LIBRARY
1/CM	ABSORBANCE
549.8	0.002298
559.445	0.004538
569.09	0.009028
578.734	0.009268
588.379	0.002528
598.024	0.002208
607.669	0.0017874
617.313	0.001998
626.958	0.0017738
636.603	0.002248
646.248	0.002338
655.893	0.002348
665.537	0.004548
675.182	0.004818
684.827	0.003568
694.472	0.007248
704.116	0.030128
713.761	0.033788
723.406	0.022418
733.051	0.003938
742.695	0.002768
752.34	0.0017271
761.985	0.0013986
771.63	0.001968
781.275	0.0015355
790.919	0.0016958
800.564	0.002688
810.209	0.003058
819.854	0.007548
829.498	0.024368
839.143	0.061198
848.788	0.035768
858.433	0.070028
868.078	0.112478
877.722	0.071618
887.367	0.014488
897.012	0.006088
906.657	0.003658
916.301	0.004138
925.946	0.006568
935.591	0.006238
945.236	0.003538
954.88	0.003788
964.525	0.004108
974.17	0.005168
983.815	0.009658
993.46	0.019928
1003.1	0.040978
1012.75	0.060008
1022.39	0.051298
1032.04	0.028688
1041.68	0.016778
1051.33	0.018028
1060.97	0.045838
1070.62	0.067718
1080.26	0.052298
1089.91	0.033788
1099.55	0.019318
1109.2	0.009098
1118.84	0.005838
1128.49	0.005218
1138.13	0.007548
1147.78	0.011478
1157.42	0.025348
1167.07	0.096248
1176.71	0.098328
1186.36	0.026028
1196	0.009068
1205.64	0.005648
1215.29	0.008138
1224.93	0.011608
1234.58	0.020518
1244.22	0.055748
1253.87	0.125068
1263.51	0.128198
1273.16	0.045808
1282.8	0.017158
1292.45	0.011528
1302.09	0.009128
1311.74	0.006288
1321.38	0.004648
1331.03	0.004128
1340.67	0.004628
1350.32	0.004868
1359.96	0.008178
1369.61	0.013128
1379.25	0.016188
1388.9	0.020998
1398.54	0.019218
1408.18	0.010788
1417.83	0.006668
1427.47	0.009748
1437.12	0.017768
1446.76	0.035398
1456.41	0.044268
1466.05	0.038808
1475.7	0.049168
1485.34	0.127798
1494.99	0.256018
1504.63	0.321078
1514.28	0.314588
1523.92	0.221708
1533.57	0.092238
1543.21	0.049188
1552.86	0.034998
1562.5	0.026868
1572.15	0.019448
1581.79	0.013748
1591.44	0.012518
1601.08	0.010848
1610.73	0.008428
1620.37	0.008308
1630.01	0.012808
1639.66	0.019708
1649.3	0.016978
1658.95	0.008898
1668.59	0.008168
1678.24	0.008408
1687.88	0.007108
1697.53	0.006388
1707.17	0.005208
1716.82	0.003718
1726.46	0.003258
1736.11	0.003018
1745.75	0.002848
1755.4	0.002168
1765.04	0.001958
1774.69	0.0016714
1784.33	0.0017956
1793.98	0.0016922
1803.62	0.0015838
1813.27	0.0014048
1822.91	0.001938
1832.55	0.002518
1842.2	0.003368
1851.84	0.002738
1861.49	0.0018625
1871.13	0.0013164
1880.78	0.0016078
1890.42	0.0017653
1900.07	0.0017255
1909.71	0.0014988
1919.36	0.0016672
1929	0.0015472
1938.65	0.0012029
1948.29	0.0011739
1957.94	0.0014492
1967.58	0.0018855
1977.23	0.001592
1986.87	0.0016002
1996.52	0.0014381
2006.16	0.0012804
2015.81	0.0012853
2025.45	0.0011701
2035.1	0.0011093
2044.74	0.00100625
2054.38	0.0014126
2064.03	0.0016599
2073.67	0.0018176
2083.32	0.0017143
2092.96	0.0016215
2102.61	0.0017013
2112.25	0.0015029
2121.9	0.0017907
2131.54	0.002078
2141.19	0.001958
2150.83	0.001794
2160.48	0.0015902
2170.12	0.0014799
2179.77	0.0012215
2189.41	0.0016324
2199.06	0.0016794
2208.7	0.002328
2218.35	0.002298
2227.99	0.002088
2237.64	0.0016986
2247.28	0.002198
2256.92	0.002888
2266.57	0.002748
2276.21	0.0017284
2285.86	0.0013771
2295.5	0.0013943
2305.15	0.001302
2314.79	0.0016435
2324.44	0.00167
2334.08	0.0018885
2343.73	0.001968
2353.37	0.002198
2363.02	0.002098
2372.66	0.002398
2382.31	0.003428
2391.95	0.003538
2401.6	0.002868
2411.24	0.001889
2420.89	0.0016393
2430.53	0.0016104
2440.18	0.0013846
2449.82	0.0015663
2459.47	0.0018491
2469.11	0.0016516
2478.75	0.0014947
2488.4	0.0017726
2498.04	0.0018659
2507.69	0.002648
2517.33	0.002568
2526.98	0.002398
2536.62	0.001806
2546.27	0.0018343
2555.91	0.001809
2565.56	0.002078
2575.2	0.002248
2584.85	0.002358
2594.49	0.002338
2604.14	0.001948
2613.78	0.0016682
2623.43	0.00188
2633.07	0.002378
2642.72	0.002418
2652.36	0.002128
2662.01	0.002038
2671.65	0.0013076
2681.29	0.0014186
2690.94	0.00090069
2700.58	0.0012687
2710.23	0.0011217
2719.87	0.001217
2729.52	0.0010198
2739.16	0.0013645
2748.81	0.0016768
2758.45	0.0014392
2768.1	0.0014779
2777.74	0.0014327
2787.39	0.0011944
2797.03	0.0013145
2806.68	0.001455
2816.32	0.0016049
2825.97	0.0016442
2835.61	0.0018911
2845.26	0.001918
2854.9	0.002548
2864.55	0.003478
2874.19	0.004468
2883.84	0.005068
2893.48	0.004578
2903.12	0.004158
2912.77	0.004018
2922.41	0.004888
2932.06	0.006398
2941.7	0.009998
2951.35	0.011828
2960.99	0.008998
2970.64	0.006518
2980.28	0.005028
2989.93	0.003318
2999.57	0.002488
3009.22	0.001958
3018.86	0.002338
3028.51	0.003318
3038.15	0.003148
3047.8	0.002718
3057.44	0.002958
3067.09	0.003338
3076.73	0.004028
3086.38	0.004098
3096.02	0.003828
3105.67	0.002768
3115.31	0.001988
3124.95	0.0017337
3134.6	0.0016527
3144.24	0.0012833
3153.89	0.0012083
3163.53	0.0011349
3173.18	0.0008369
3182.82	0.00100017
3192.47	0.000529
3202.11	0.000518
3211.76	0.000613
3221.4	0.000782
3231.05	0.0010253
3240.69	0.0010093
3250.34	0.0008154
3259.98	0.00090491
3269.63	0.0008799
3279.27	0.00098061
3288.92	0.000651
3298.56	0.0011734
3308.21	0.000477
3317.85	0.000539
3327.49	0.000665
3337.14	0.00092215
3346.78	0.000698
3356.43	0.000653
3366.07	0.000912218
3375.72	0.000422
3385.36	0.000743
3395.01	0.0008158
3404.65	0.000711
3414.3	0.000439
3423.94	0.0012479
3433.59	0
3443.23	0.0008814
3452.88	0.0010644
3462.52	0.0010568
3472.17	0.00069
3481.81	0.000644
3491.46	0.0010498
3501.1	0.00098207
3510.75	0.000578
3520.39	0.0010305
3530.04	0.00092293
3539.68	0.000651
3549.32	0.0010902
3558.97	0.00090007
3568.61	0.000802
3578.26	0.00099881
3587.9	0.000739
3597.55	0.0008196
3607.19	0.0008136
3616.84	0.00095513
3626.48	0.000388
3636.13	0.000354
3645.77	0.000785
3655.42	0.000577
3665.06	0.000424
3674.71	0.000734
3684.35	0.0008152
3694	0.000706
3703.64	0.000763
3713.29	0.000462
3722.93	0.000587
3732.58	0.000653
3742.22	0.000489
3751.86	0.0012763
3761.51	0.000529
3771.15	0.000677
3780.8	0.0008149
3790.44	0.0008407
3800.09	0.000671
3809.73	0.00095526
3819.38	0.00094854
3829.02	0.000541
3838.67	0.000612
3848.31	0.000718
3857.96	0.0008658
3867.6	0.000557
3877.25	0.00071
3886.89	0.000717
3896.54	0.0010798
3906.18	0.000401
3915.83	0.0012075
3925.47	0.000588
3935.12	0.000749
3944.76	0.000803
3954.41	7e-05
3964.05	0.00053
3973.69	0.00090675
3983.34	0.000662
3992.98	0.000692
