Infrared Spectrum: Ethyl 2-cyano-3,3-diphenylacrylate
Formula: C 18 H 15 N O 2
CAS: 5232-99-5
State: gas
Origin: EPA-IR VAPOR PHASE LIBRARY
1/CM	ABSORBANCE
549.9	0.0038
559.547	0.00466
569.193	0.00493
578.84	0.00501
588.486	0.00552
598.133	0.00959
607.779	0.02342
617.426	0.01172
627.072	0.0066
636.719	0.00585
646.365	0.00933
656.012	0.02155
665.658	0.02062
675.305	0.02173
684.951	0.03743
694.598	0.11188
704.245	0.0687
713.891	0.02483
723.538	0.0197
733.184	0.03217
742.831	0.0425
752.477	0.03945
762.124	0.04325
771.77	0.02363
781.417	0.01398
791.063	0.01137
800.71	0.00955
810.356	0.00793
820.003	0.00716
829.649	0.0072
839.296	0.00826
848.943	0.01015
858.589	0.01437
868.236	0.01142
877.882	0.00738
887.529	0.00747
897.175	0.01157
906.822	0.00971
916.468	0.00676
926.115	0.00637
935.761	0.00471
945.408	0.00417
955.054	0.00464
964.701	0.00616
974.347	0.00618
983.994	0.00828
993.64	0.01417
1003.29	0.02647
1012.93	0.03784
1022.58	0.04048
1032.23	0.02714
1041.87	0.01498
1051.52	0.01232
1061.17	0.0159
1070.81	0.02581
1080.46	0.03279
1090.11	0.05949
1099.75	0.14531
1109.4	0.20411
1119.05	0.12119
1128.69	0.06376
1138.34	0.03883
1147.99	0.02873
1157.63	0.0257
1167.28	0.02661
1176.92	0.03403
1186.57	0.03301
1196.22	0.02937
1205.86	0.04342
1215.51	0.07873
1225.16	0.15451
1234.8	0.26424
1244.45	0.29485
1254.1	0.17703
1263.74	0.08887
1273.39	0.05536
1283.04	0.05022
1292.68	0.06497
1302.33	0.06949
1311.98	0.06755
1321.62	0.05617
1331.27	0.03324
1340.92	0.01799
1350.56	0.01241
1360.21	0.01646
1369.86	0.02887
1379.5	0.01632
1389.15	0.01221
1398.79	0.01161
1408.44	0.01076
1418.09	0.01002
1427.73	0.01116
1437.38	0.0193
1447.03	0.03187
1456.67	0.01759
1466.32	0.01737
1475.97	0.01916
1485.61	0.02394
1495.26	0.02517
1504.91	0.01197
1514.55	0.00849
1524.2	0.00915
1533.85	0.01118
1543.49	0.01336
1553.14	0.01776
1562.79	0.0271
1572.43	0.03818
1582.08	0.04246
1591.73	0.03196
1601.37	0.01574
1611.02	0.00979
1620.67	0.00724
1630.31	0.00593
1639.96	0.0055
1649.6	0.00561
1659.25	0.00629
1668.9	0.00706
1678.54	0.00841
1688.19	0.0106
1697.84	0.01395
1707.48	0.01921
1717.13	0.02709
1726.78	0.04866
1736.42	0.10958
1746.07	0.21802
1755.72	0.14999
1765.36	0.0602
1775.01	0.02936
1784.66	0.01851
1794.3	0.01609
1803.95	0.01214
1813.6	0.00775
1823.24	0.00605
1832.89	0.00473
1842.54	0.00426
1852.18	0.00446
1861.83	0.00498
1871.47	0.00528
1881.12	0.00591
1890.77	0.00568
1900.41	0.00507
1910.06	0.00432
1919.71	0.00348
1929.35	0.00389
1939	0.00619
1948.65	0.00731
1958.29	0.0069
1967.94	0.0056
1977.59	0.00318
1987.23	0.0026482
1996.88	0.0022817
2006.53	0.0021369
2016.17	0.0020543
2025.82	0.0019769
2035.47	0.001907
2045.11	0.001942
2054.76	0.0019821
2064.41	0.0020394
2074.05	0.0021952
2083.7	0.0023477
2093.35	0.0024453
2102.99	0.0023794
2112.64	0.00212175
2122.28	0.0019922
2131.93	0.0019
2141.58	0.001853
2151.22	0.001751
2160.87	0.001759
2170.52	0.001833
2180.16	0.001793
2189.81	0.0019785
2199.46	0.0022806
2209.1	0.00372
2218.75	0.00637
2228.4	0.00479
2238.04	0.0023804
2247.69	0.001903
2257.34	0.001881
2266.98	0.001835
2276.63	0.001842
2286.28	0.00188
2295.92	0.001769
2305.57	0.001821
2315.22	0.0027216
2324.86	0.0025584
2334.51	0.0024853
2344.16	0.0029545
2353.8	0.00258
2363.45	0.0022967
2373.09	0.0020544
2382.74	0.001865
2392.39	0.00179
2402.03	0.001779
2411.68	0.00175
2421.33	0.001668
2430.97	0.001542
2440.62	0.001494
2450.27	0.001378
2459.91	0.001448
2469.56	0.001461
2479.21	0.001481
2488.85	0.001448
2498.5	0.001413
2508.15	0.001359
2517.79	0.001272
2527.44	0.001227
2537.09	0.00118
2546.73	0.001208
2556.38	0.001143
2566.03	0.001163
2575.67	0.001231
2585.32	0.001328
2594.96	0.001519
2604.61	0.001459
2614.26	0.001342
2623.9	0.001333
2633.55	0.001141
2643.2	0.00098
2652.84	0.00089
2662.49	0.00095
2672.14	0.00101
2681.78	0.00094
2691.43	0.00088
2701.08	0.00093
2710.72	0.001
2720.37	0.00098
2730.02	0.001104
2739.66	0.0011
2749.31	0.00123
2758.96	0.001382
2768.6	0.001688
2778.25	0.001813
2787.9	0.001615
2797.54	0.001526
2807.19	0.001546
2816.84	0.001788
2826.48	0.00211593
2836.13	0.0023996
2845.77	0.00274
2855.42	0.0032
2865.07	0.00398
2874.71	0.00558
2884.36	0.00816
2894.01	0.00804
2903.65	0.00901
2913.3	0.01067
2922.95	0.01004
2932.59	0.01258
2942.24	0.02047
2951.89	0.01835
2961.53	0.01543
2971.18	0.02127
2980.83	0.03462
2990.47	0.04141
3000.12	0.02499
3009.77	0.01972
3019.41	0.01929
3029.06	0.02366
3038.71	0.02462
3048.35	0.01897
3058	0.02954
3067.64	0.05716
3077.29	0.04215
3086.94	0.03488
3096.58	0.0216
3106.23	0.01306
3115.88	0.00683
3125.52	0.00359
3135.17	0.0026625
3144.82	0.0025077
3154.46	0.0022733
3164.11	0.001599
3173.76	0.001079
3183.4	0.00091
3193.05	0.00052
3202.7	0.00057
3212.34	0.00042
3221.99	0.00034
3231.64	0.00026
3241.28	0.00018
3250.93	0.00016
3260.58	0.00022
3270.22	6e-05
3279.87	0.00027
3289.52	0.00023
3299.16	0.00023
3308.81	0.00031
3318.45	0.00033
3328.1	0.00036
3337.75	0.00039
3347.39	0.00046
3357.04	0.00019
3366.69	0.00037
3376.33	0.00041
3385.98	0.00052
3395.63	0.00056
3405.27	0.00076
3414.92	0.00063
3424.57	0.00081
3434.21	0.00088
3443.86	0.001071
3453.51	0.001265
3463.15	0.00177
3472.8	0.0024253
3482.45	0.0023106
3492.09	0.001617
3501.74	0.00107
3511.39	0.001
3521.03	0.00094
3530.68	0.00083
3540.33	0.00083
3549.97	0.00068
3559.62	0.00078
3569.26	0.00063
3578.91	0.00077
3588.56	0.00074
3598.2	0.00076
3607.85	0.0007
3617.5	0.00082
3627.14	0.001072
3636.79	0.00105
3646.44	0.001148
3656.08	0.001196
3665.73	0.001126
3675.38	0.00113
3685.02	0.001305
3694.67	0.001258
3704.32	0.001418
3713.96	0.00136
3723.61	0.001205
3733.26	0.001144
3742.9	0.001191
3752.55	0.001127
3762.2	0.001086
3771.84	0.001095
3781.49	0.001142
3791.13	0.001212
3800.78	0.001155
3810.43	0.001293
3820.07	0.001176
3829.72	0.001103
3839.37	0.001124
3849.01	0.00107
3858.66	0.001182
3868.31	0.001128
3877.95	0.001102
3887.6	0.00101
3897.25	0.001092
3906.89	0.001114
3916.54	0.001099
3926.19	0.00118
3935.83	0.001192
3945.48	0.001148
3955.13	0.001279
3964.77	0.001437
3974.42	0.001375
3984.07	0.001382
3993.71	0.001528
