Infrared Spectrum: 5,6-DICHLORO-7-SULFAMYL-3,4-DIHYDRO-1,2,4-BENZOTHIADIAZINE-1,1-DIOXIDE
Formula: C7 H7 Cl2 N3 O4 S2
CAS: 5233-42-1
State: SOLID (NUJOL MULL)
Class: COBLENTZ
Instrument: PERKIN-ELMER
Sampling: TRANSMISSION
Resolution: 4
Origin: ABBOTT LABORATORIES - WASHBURN
MICROMETERS	TRANSMITTANCE
2.015	0.426
2.04915	0.432
2.08331	0.4431
2.11746	0.4531
2.15162	0.4599
2.18577	0.4699
2.21993	0.484
2.25408	0.489
2.28824	0.501
2.32239	0.501
2.35655	0.503
2.3907	0.5148
2.42486	0.5289
2.45901	0.5388
2.49317	0.5441
2.52732	0.554
2.56148	0.5601
2.59563	0.5701
2.62979	0.5749
2.66394	0.585
2.6981	0.5941
2.73225	0.604
2.76641	0.6151
2.80056	0.62
2.83472	0.6279
2.86887	0.6468
2.90303	0.668
2.93718	0.6183
2.97134	0.401
3.00549	0.4393
3.03965	0.4958
3.0738	0.2973
3.10796	0.4289
3.14211	0.5178
3.17627	0.5542
3.21042	0.5771
3.24458	0.582
3.27873	0.582
3.31289	0.5531
3.34704	0.5243
3.3812	0.2247
3.41535	0.0576
3.44951	0.0413
3.48366	0.1393
3.51782	0.154
3.55197	0.5127
3.58613	0.6541
3.62028	0.692
3.65444	0.7061
3.68859	0.709
3.72275	0.711
3.7569	0.7139
3.79106	0.716
3.82521	0.719
3.85937	0.723
3.89352	0.728
3.92768	0.7329
3.96183	0.7419
3.99599	0.745
4.03014	0.752
4.0643	0.756
4.09845	0.7591
4.13261	0.761
4.16676	0.761
4.20092	0.768
4.23507	0.769
4.26923	0.769
4.30338	0.768
4.33754	0.7692
4.37169	0.7731
4.40585	0.7829
4.44	0.786
4.47416	0.79
4.50831	0.795
4.54247	0.798
4.57662	0.798
4.61078	0.798
4.64493	0.802
4.67909	0.807
4.71324	0.809
4.7474	0.8091
4.78155	0.8101
4.81571	0.812
4.84986	0.8159
4.88402	0.819
4.91817	0.823
4.95233	0.826
4.98648	0.826
5.02064	0.826
5.05479	0.824
5.08895	0.828
5.1231	0.833
5.15726	0.836
5.19141	0.836
5.22557	0.836
5.25972	0.836
5.29388	0.8371
5.32803	0.838
5.36219	0.838
5.39634	0.843
5.4305	0.843
5.46465	0.8401
5.49881	0.836
5.53296	0.8408
5.56712	0.848
5.60127	0.8475
5.63543	0.85
5.66958	0.85
5.70374	0.8527
5.73789	0.8553
5.77205	0.857
5.8062	0.8599
5.84036	0.859
5.87451	0.859
5.90867	0.862
5.94282	0.86
5.97698	0.857
6.01113	0.853
6.04529	0.8525
6.07944	0.8512
6.1136	0.8445
6.14775	0.8377
6.18191	0.8083
6.21606	0.756
6.25022	0.762
6.28437	0.5995
6.31853	0.1956
6.35268	0.3455
6.38684	0.53
6.42099	0.6382
6.45515	0.642
6.4893	0.6334
6.52345	0.556
6.55761	0.5041
6.59176	0.5913
6.62592	0.5914
6.66007	0.4862
6.69423	0.5528
6.72838	0.6312
6.76254	0.6687
6.79669	0.6681
6.83085	0.5595
6.865	0.3972
6.89916	0.377
6.93331	0.4466
6.96747	0.5574
7.00162	0.654
7.03578	0.7249
7.06993	0.7558
7.10409	0.7563
7.13824	0.6549
7.1724	0.5903
7.20655	0.6668
7.24071	0.699
7.27486	0.6198
7.30902	0.462
7.34317	0.4207
7.37733	0.479
7.41148	0.4002
7.44564	0.427
7.47979	0.2553
7.51395	0.2132
7.5481	0.2356
7.58226	0.1624
7.61641	0.1941
7.65057	0.3885
7.68472	0.5126
7.71888	0.5909
7.75303	0.5962
7.78719	0.6474
7.82134	0.6947
7.8555	0.7107
7.88965	0.713
7.92381	0.694
7.95796	0.729
7.99212	0.7496
8.02627	0.7164
8.06043	0.7189
8.09458	0.7618
8.12874	0.7785
8.16289	0.7833
8.19705	0.792
8.2312	0.795
8.26536	0.795
8.29951	0.793
8.33367	0.7739
8.36782	0.7511
8.40198	0.7314
8.43613	0.628
8.47029	0.4657
8.50444	0.2432
8.5386	0.1376
8.57275	0.1106
8.60691	0.1061
8.64106	0.2161
8.67522	0.2937
8.70937	0.3997
8.74353	0.391
8.77768	0.333
8.81184	0.4115
8.84599	0.5415
8.88015	0.6263
8.9143	0.6686
8.94846	0.678
8.98261	0.662
9.01677	0.6561
9.05092	0.6942
9.08508	0.7206
9.11923	0.7411
9.15339	0.747
9.18754	0.753
9.2217	0.754
9.25585	0.7512
9.29001	0.6959
9.32416	0.6444
9.35832	0.6794
9.39247	0.7224
9.42663	0.6701
9.46078	0.5658
9.49494	0.4387
9.52909	0.4287
9.56325	0.5472
9.5974	0.6455
9.63156	0.701
9.66571	0.7218
9.69987	0.7359
9.73402	0.7417
9.76818	0.738
9.80233	0.6756
9.83649	0.5992
9.87064	0.6322
9.9048	0.6976
9.93895	0.7394
9.97311	0.7566
10.0073	0.7659
10.0414	0.781
10.0756	0.7869
10.1097	0.7936
10.1439	0.798
10.178	0.7982
10.2122	0.8051
10.2463	0.807
10.2805	0.8086
10.3147	0.809
10.3488	0.809
10.383	0.809
10.4171	0.808
10.4513	0.805
10.4854	0.7964
10.5196	0.793
10.5537	0.7928
10.5879	0.788
10.6221	0.7832
10.6562	0.7762
10.6904	0.7432
10.7245	0.6825
10.7587	0.6204
10.7928	0.5684
10.827	0.563
10.8611	0.6023
10.8953	0.6457
10.9294	0.6685
10.9636	0.679
10.9978	0.707
11.0319	0.7296
11.0661	0.7379
11.1002	0.743
11.1344	0.7437
11.1685	0.743
11.2027	0.742
11.2368	0.7184
11.271	0.6891
11.3051	0.6796
11.3393	0.6734
11.3735	0.6896
11.4076	0.707
11.4418	0.716
11.4759	0.7143
11.5101	0.7117
11.5442	0.706
11.5784	0.7029
11.6125	0.7065
11.6467	0.7173
11.6809	0.7265
11.715	0.7406
11.7492	0.743
11.7833	0.7522
11.8175	0.7559
11.8516	0.7568
11.8858	0.757
11.9199	0.759
11.9541	0.757
11.9882	0.757
12.0224	0.7565
12.0566	0.7482
12.0907	0.7243
12.1249	0.6814
12.159	0.654
12.1932	0.6591
12.2273	0.6842
12.2615	0.7081
12.2956	0.7276
12.3298	0.7416
12.364	0.7496
12.3981	0.756
12.4323	0.752
12.4664	0.756
12.5006	0.754
12.5347	0.756
12.5689	0.7541
12.603	0.7539
12.6372	0.752
12.6713	0.75
12.7055	0.7423
12.7397	0.738
12.7738	0.7334
12.808	0.7103
12.8421	0.6978
12.8763	0.6695
12.9104	0.6507
12.9446	0.6204
12.9787	0.5839
13.0129	0.5409
13.0471	0.482
13.0812	0.4314
13.1154	0.3906
13.1495	0.346
13.1837	0.3195
13.2178	0.3032
13.252	0.295
13.2861	0.295
13.3203	0.295
13.3544	0.297
13.3886	0.31
13.4228	0.3448
13.4569	0.3772
13.4911	0.3972
13.5252	0.4245
13.5594	0.4443
13.5935	0.458
13.6277	0.4638
13.6618	0.4693
13.696	0.4796
13.7302	0.4944
13.7643	0.503
13.7985	0.4981
13.8326	0.498
13.8668	0.5009
13.9009	0.5114
13.9351	0.5301
13.9692	0.5491
14.0034	0.5767
14.0375	0.6071
14.0717	0.6208
14.1059	0.6375
14.14	0.6474
14.1742	0.654
14.2083	0.6629
14.2425	0.664
14.2766	0.6643
14.3108	0.6651
14.3449	0.664
14.3791	0.6619
14.4133	0.6515
14.4474	0.6482
14.4816	0.6397
14.5157	0.6278
14.5499	0.6233
14.584	0.6209
14.6182	0.6132
14.6523	0.606
14.6865	0.5994
14.7206	0.596
14.7548	0.5923
14.789	0.5845
14.8231	0.577
14.8573	0.5726
14.8914	0.567
14.9256	0.5645
14.9597	0.556
14.9939	0.558
15.028	0.5562
15.0622	0.535
15.0964	0.524
15.1305	0.525
15.1647	0.525
15.1988	0.525
15.233	0.522
15.2671	0.5119
15.3013	0.506
15.3354	0.4978
15.3696	0.4908
15.4037	0.482
15.4379	0.477
