Infrared Spectrum: Carboxin
Formula: C 12 H 13 N O 2 S
CAS: 5234-68-4
State: gas
Instrument: HP-GC/MS/IRD
Origin: NIST Mass Spectrometry Data Center
1/CM	ABSORBANCE
550	0.003726
562	0.0027297
574	0.0033129
586	0.0035559
598	0.0056133
610	0.0029403
622	0.0011016
634	0.0001458
646	4.05e-05
658	0.000405
670	0.0019845
682	0.0055485
694	0.0062532
706	0.0033939
718	0.0028269
730	0.0047385
742	0.0117612
754	0.012312
766	0.0043659
778	0.003807
790	0.0114534
802	0.0045198
814	0.0019359
826	0.0005994
838	0.0011745
850	0.0035559
862	0.0048843
874	0.0029484
886	0.0031509
898	0.0021789
910	0.0008343
922	0.000324
934	0.0003564
946	0.0006885
958	0.0021141
970	0.0039852
982	0.0022599
994	0.0027216
1006	0.0035397
1018	0.0041796
1030	0.0063666
1042	0.0065286
1054	0.0110646
1066	0.0151065
1078	0.0221373
1090	0.0234333
1102	0.008505
1114	0.0033048
1126	0.0021141
1138	0.0018873
1150	0.0017901
1162	0.002187
1174	0.003807
1186	0.005508
1198	0.0098253
1210	0.0215622
1222	0.0484704
1234	0.0420633
1246	0.0206226
1258	0.0096066
1270	0.0090315
1282	0.0181845
1294	0.0381672
1306	0.0263331
1318	0.0165969
1330	0.0075573
1342	0.0041958
1354	0.0031104
1366	0.0032319
1378	0.0054675
1390	0.0049977
1402	0.0041877
1414	0.0082134
1426	0.0199827
1438	0.0422415
1450	0.0179091
1462	0.0114129
1474	0.0146772
1486	0.0193833
1498	0.0518724
1510	0.0759375
1522	0.0725598
1534	0.0296703
1546	0.0156492
1558	0.0129924
1570	0.0151875
1582	0.0259605
1594	0.0522207
1606	0.051435
1618	0.0223641
1630	0.0117531
1642	0.0072414
1654	0.0057024
1666	0.006318
1678	0.0108621
1690	0.0324162
1702	0.0473769
1714	0.0178524
1726	0.0068283
1738	0.0036369
1750	0.0022194
1762	0.0014904
1774	0.0014661
1786	0.0009963
1798	0.000648
1810	0.0004374
1822	0.000324
1834	0.0003645
1846	0.0004698
1858	0.0005346
1870	0.0004941
1882	0.0003645
1894	0.0002592
1906	0.0003564
1918	0.0004293
1930	0.0006561
1942	0.000648
1954	0.0004374
1966	0.0001134
1978	7.29e-05
1990	3.24e-05
2002	0
2014	4.86e-05
2026	0.0001053
2038	9.72e-05
2050	3.24e-05
2062	9.72e-05
2074	0.0002187
2086	0.0003321
2098	0.0002754
2110	0.000162
2122	8.1e-05
2134	3.24e-05
2146	8.91e-05
2158	0.0001539
2170	0.0001863
2182	0.0002592
2194	0.0002835
2206	0.000243
2218	0.0001458
2230	0.0001377
2242	0.0001215
2254	0.000162
2266	0.0001863
2278	0.0002106
2290	0.0002268
2302	0.0002511
2314	0.0002754
2326	0.0002025
2338	0.0001863
2350	0.0002349
2362	0.0002997
2374	0.0002916
2386	0.0002592
2398	0.0002268
2410	0.0001377
2422	0.0001377
2434	0.0002025
2446	0.0002916
2458	0.0002106
2470	0.0001296
2482	9.72e-05
2494	0.0001215
2506	0.0001701
2518	0.0002025
2530	0.0002106
2542	0.0002025
2554	0.0001701
2566	0.0001215
2578	8.91e-05
2590	5.67e-05
2602	6.48e-05
2614	4.86e-05
2626	4.05e-05
2638	5.67e-05
2650	4.86e-05
2662	9.72e-05
2674	0.0001134
2686	0.0001134
2698	3.24e-05
2710	0.0001215
2722	0.0003078
2734	0.0006237
2746	0.0004536
2758	0.0002511
2770	0.0002511
2782	0.0002106
2794	0.0003402
2806	0.000486
2818	0.0007695
2830	0.0010692
2842	0.0010773
2854	0.0012717
2866	0.0015066
2878	0.0027297
2890	0.006804
2902	0.0048924
2914	0.0033129
2926	0.0061398
2938	0.0123525
2950	0.008991
2962	0.0102465
2974	0.0107244
2986	0.00405
2998	0.0020007
3010	0.0021951
3022	0.0036612
3034	0.0052164
3046	0.0039042
3058	0.0056457
3070	0.0077679
3082	0.004374
3094	0.0033048
3106	0.0025029
3118	0.0013527
3130	0.0007128
3142	0.0004212
3154	0.0003159
3166	0.0002754
3178	0.0002349
3190	0.0001782
3202	0.0002349
3214	0.0002187
3226	0.0001296
3238	0.0001863
3250	0.0001539
3262	0.0001296
3274	0.000162
3286	0.0002025
3298	0.0002754
3310	0.0002673
3322	0.0002592
3334	0.0002997
3346	0.0005913
3358	0.0007938
3370	0.0011016
3382	0.0016686
3394	0.0029079
3406	0.0070389
3418	0.0072495
3430	0.0027297
3442	0.0010935
3454	0.0008505
3466	0.0006804
3478	0.0003159
3490	0.0002592
3502	0.0001458
3514	0.0002025
3526	0.0001296
3538	6.48e-05
3550	4.86e-05
3562	8.91e-05
3574	0.0001134
3586	8.1e-05
3598	4.86e-05
3610	9.72e-05
3622	0.0001458
3634	0.0001458
3646	9.72e-05
3658	0.0001701
3670	0.0001458
3682	0.0001863
3694	0.0001539
3706	0.0001458
3718	9.72e-05
3730	0.0001458
3742	0.0001134
3754	0.000162
3766	0.0001539
3778	0.000162
3790	8.1e-05
3802	0.0001458
3814	8.91e-05
3826	0.000243
3838	0.0001863
