Infrared Spectrum: 5-ETHYL-5-METHOXAZOLIDINE-2,4-DIONE
Formula: C6 H9 N O3
CAS: 52387-52-7
State: LIQUID (UNDILUTED)
Class: COBLENTZ
Instrument: Not specified, most likely a grating spectrometer.
Sampling: TRANSMISSION
Path length: 0.00125 CM
Resolution: 4
Origin: ABBOTT LABORATORIES
MICROMETERS	TRANSMITTANCE
2.034	0.882
2.06798	0.885
2.10195	0.89
2.13593	0.884
2.16991	0.879
2.20389	0.877
2.23786	0.877
2.27184	0.876
2.30582	0.851
2.3398	0.846
2.37377	0.861
2.40775	0.866
2.44173	0.866
2.4757	0.859
2.50968	0.851
2.54366	0.851
2.57764	0.862
2.61161	0.874
2.64559	0.877
2.67957	0.874
2.71355	0.867
2.74752	0.733
2.7815	0.628
2.81548	0.507
2.84945	0.386
2.88343	0.269
2.91741	0.216
2.95139	0.244
2.98536	0.183
3.01934	0.115
3.05332	0.044
3.0873	0.016
3.12127	0.018
3.15525	0.018
3.18923	0.029
3.2232	0.076
3.25718	0.082
3.29116	0.102
3.32514	0.132
3.35911	0.099
3.39309	0.072
3.42707	0.097
3.46104	0.2
3.49502	0.219
3.529	0.34
3.56298	0.411
3.59695	0.403
3.63093	0.35
3.66491	0.285
3.69889	0.284
3.73286	0.381
3.76684	0.499
3.80082	0.542
3.83479	0.581
3.86877	0.606
3.90275	0.624
3.93673	0.634
3.9707	0.634
4.00468	0.639
4.03866	0.646
4.07264	0.647
4.10661	0.664
4.14059	0.677
4.17457	0.689
4.20854	0.694
4.24252	0.69
4.2765	0.7
4.31048	0.71
4.34445	0.737
4.37843	0.757
4.41241	0.763
4.44639	0.771
4.48036	0.783
4.51434	0.785
4.54832	0.796
4.58229	0.801
4.61627	0.804
4.65025	0.803
4.68423	0.798
4.7182	0.796
4.75218	0.795
4.78616	0.79
4.82014	0.796
4.85411	0.798
4.88809	0.788
4.92207	0.771
4.95604	0.748
4.99002	0.715
5.024	0.672
5.05798	0.631
5.09195	0.621
5.12593	0.634
5.15991	0.656
5.19389	0.657
5.22786	0.628
5.26184	0.55
5.29582	0.512
5.32979	0.525
5.36377	0.555
5.39775	0.499
5.43173	0.323
5.4657	0.249
5.49968	0.013
5.53366	0.013
5.56764	0.019
5.60161	0.023
5.63559	0.018
5.66957	0.009
5.70354	0.006
5.73752	0.006
5.7715	0.006
5.80548	0.008
5.83945	0.009
5.87343	0.023
5.90741	0.072
5.94139	0.15
5.97536	0.145
6.00934	0.123
6.04332	0.082
6.07729	0.079
6.11127	0.127
6.14525	0.204
6.17923	0.279
6.2132	0.358
6.24718	0.39
6.28116	0.391
6.31513	0.365
6.34911	0.342
6.38309	0.34
6.41707	0.352
6.45104	0.375
6.48502	0.385
6.519	0.395
6.55298	0.449
6.58695	0.479
6.62093	0.485
6.65491	0.507
6.68888	0.519
6.72286	0.507
6.75684	0.476
6.79082	0.404
6.82479	0.246
6.85877	0.117
6.89275	0.076
6.92673	0.08
6.9607	0.137
6.99468	0.238
7.02866	0.256
7.06263	0.279
7.09661	0.259
7.13059	0.183
7.16457	0.132
7.19854	0.049
7.23252	0.011
7.2665	0.009
7.30048	0.008
7.33445	0.008
7.36843	0.008
7.40241	0.009
7.43638	0.016
7.47036	0.019
7.50434	0.013
7.53832	0.009
7.57229	0.018
7.60627	0.029
7.64025	0.028
7.67423	0.018
7.7082	0.105
7.74218	0.201
7.77616	0.214
7.81013	0.223
7.84411	0.271
7.87809	0.3
7.91207	0.269
7.94604	0.195
7.98002	0.137
8.014	0.123
8.04798	0.128
8.08195	0.107
8.11593	0.072
8.14991	0.097
8.18388	0.208
8.21786	0.332
8.25184	0.361
8.28582	0.366
8.31979	0.282
8.35377	0.15
8.38775	0.044
8.42173	0.009
8.4557	0.011
8.48968	0.026
8.52366	0.046
8.55763	0.021
8.59161	0.016
8.62559	0.019
8.65957	0.021
8.69354	0.024
8.72752	0.034
8.7615	0.104
8.79547	0.214
8.82945	0.277
8.86343	0.307
8.89741	0.31
8.93138	0.29
8.96536	0.221
8.99934	0.145
9.03332	0.109
9.06729	0.105
9.10127	0.155
9.13525	0.252
9.16922	0.38
9.2032	0.479
9.23718	0.517
9.27116	0.538
9.30513	0.55
9.33911	0.487
9.37309	0.542
9.40707	0.53
9.44104	0.489
9.47502	0.419
9.509	0.267
9.54297	0.142
9.57695	0.14
9.61093	0.168
9.64491	0.145
9.67888	0.117
9.71286	0.112
9.74684	0.133
9.78082	0.138
9.81479	0.122
9.84877	0.119
9.88275	0.125
9.91672	0.115
9.9507	0.061
9.98468	0.026
10.0187	0.019
10.0526	0.016
10.0866	0.018
10.1206	0.016
10.1546	0.019
10.1885	0.066
10.2225	0.214
10.2565	0.348
10.2905	0.469
10.3245	0.512
10.3584	0.552
10.3924	0.57
10.4264	0.59
10.4604	0.6
10.4943	0.601
10.5283	0.603
10.5623	0.596
10.5963	0.583
10.6302	0.566
10.6642	0.537
10.6982	0.499
10.7322	0.467
10.7662	0.441
10.8001	0.429
10.8341	0.429
10.8681	0.411
10.9021	0.348
10.936	0.256
10.97	0.196
11.004	0.181
11.038	0.201
11.072	0.249
11.1059	0.338
11.1399	0.404
11.1739	0.471
11.2079	0.499
11.2418	0.514
11.2758	0.517
11.3098	0.52
11.3438	0.52
11.3777	0.52
11.4117	0.525
11.4457	0.53
11.4797	0.532
11.5137	0.532
11.5476	0.53
11.5816	0.53
11.6156	0.522
11.6496	0.517
11.6835	0.517
11.7175	0.512
11.7515	0.51
11.7855	0.505
11.8195	0.5
11.8534	0.497
11.8874	0.49
11.9214	0.484
11.9554	0.477
11.9893	0.474
12.0233	0.467
12.0573	0.457
12.0913	0.446
12.1252	0.441
12.1592	0.433
12.1932	0.421
12.2272	0.404
12.2612	0.398
12.2951	0.385
12.3291	0.375
12.3631	0.347
12.3971	0.319
12.431	0.289
12.465	0.269
12.499	0.249
12.533	0.223
12.567	0.219
12.6009	0.218
12.6349	0.214
12.6689	0.211
12.7029	0.213
12.7368	0.211
12.7708	0.188
12.8048	0.148
12.8388	0.122
12.8727	0.079
12.9067	0.047
12.9407	0.016
12.9747	0.014
13.0087	0.014
13.0426	0.029
13.0766	0.074
13.1106	0.097
13.1446	0.11
13.1785	0.119
13.2125	0.122
13.2465	0.122
13.2805	0.117
13.3145	0.102
13.3484	0.089
13.3824	0.082
13.4164	0.082
13.4504	0.087
13.4843	0.094
13.5183	0.104
13.5523	0.117
13.5863	0.13
13.6202	0.14
13.6542	0.158
13.6882	0.176
13.7222	0.191
13.7562	0.204
13.7901	0.211
13.8241	0.219
13.8581	0.221
13.8921	0.229
13.926	0.231
13.96	0.238
13.994	0.239
14.028	0.238
14.062	0.242
14.0959	0.246
14.1299	0.249
14.1639	0.249
14.1979	0.252
14.2318	0.256
14.2658	0.262
14.2998	0.266
14.3338	0.267
14.3677	0.271
14.4017	0.277
14.4357	0.279
14.4697	0.277
14.5037	0.282
14.5376	0.282
14.5716	0.284
14.6056	0.285
14.6396	0.285
14.6735	0.284
14.7075	0.285
14.7415	0.28
14.7755	0.282
14.8095	0.28
14.8434	0.285
14.8774	0.284
14.9114	0.284
14.9454	0.292
14.9793	0.294
15.0133	0.29
15.0473	0.284
15.0813	0.277
15.1152	0.271
15.1492	0.262
15.1832	0.251
15.2172	0.228
15.2512	0.2
15.2851	0.173
15.3191	0.145
15.3531	0.127
15.3871	0.11
15.421	0.102
15.455	0.085
