Infrared Spectrum: 2-Methylvaleroyl chloride
Formula: C 6 H 11 Cl O
CAS: 5238-27-7
State: gas
Origin: EPA-IR VAPOR PHASE LIBRARY
1/CM	ABSORBANCE
549.8	0.00495
559.445	0.0066
569.09	0.00691
578.734	0.00668
588.379	0.00592
598.024	0.00551
607.669	0.00381
617.313	0.00341
626.958	0.00295
636.603	0.00342
646.248	0.00531
655.893	0.00618
665.537	0.00645
675.182	0.00834
684.827	0.01052
694.472	0.01256
704.116	0.01585
713.761	0.01504
723.406	0.00947
733.051	0.00677
742.695	0.00768
752.34	0.0092
761.985	0.00794
771.63	0.00528
781.275	0.00335
790.919	0.00316
800.564	0.00386
810.209	0.0051
819.854	0.00727
829.498	0.00983
839.143	0.01347
848.788	0.01671
858.433	0.01712
868.078	0.01617
877.722	0.01641
887.367	0.01991
897.012	0.02317
906.657	0.02279
916.301	0.01956
925.946	0.0245
935.591	0.04043
945.236	0.0491
954.88	0.03458
964.525	0.01555
974.17	0.00741
983.815	0.00485
993.46	0.00427
1003.1	0.0058
1012.75	0.00657
1022.39	0.00677
1032.04	0.00623
1041.68	0.00428
1051.33	0.00423
1060.97	0.00347
1070.62	0.00287
1080.26	0.0039
1089.91	0.00296
1099.55	0.00438
1109.2	0.00425
1118.84	0.00534
1128.49	0.0056
1138.13	0.00629
1147.78	0.00519
1157.42	0.0049
1167.07	0.00384
1176.71	0.00177
1186.36	0.0012613
1196	0.0013903
1205.64	0.000758
1215.29	0.00203
1224.93	0.00202
1234.58	0.00222
1244.22	0.00189
1253.87	0.00183
1263.51	0.00188
1273.16	0.00221
1282.8	0.00164
1292.45	0.00202
1302.09	0.00246
1311.74	0.00283
1321.38	0.00315
1331.03	0.00345
1340.67	0.00336
1350.32	0.00323
1359.96	0.00314
1369.61	0.00387
1379.25	0.00588
1388.9	0.0067
1398.54	0.00479
1408.18	0.00288
1417.83	0.00245
1427.47	0.00288
1437.12	0.00437
1446.76	0.00794
1456.41	0.01183
1466.05	0.01237
1475.7	0.00898
1485.34	0.00493
1494.99	0.00276
1504.63	0.00216
1514.28	0.00184
1523.92	0.00174
1533.57	0.00166
1543.21	0.0013996
1552.86	0.0013075
1562.5	0.0012055
1572.15	0.0012261
1581.79	0.0012125
1591.44	0.0010384
1601.08	0.001035
1610.73	0.001038
1620.37	0.000897
1630.01	0.0011201
1639.66	0.000933
1649.3	0.0009797
1658.95	0.001022
1668.59	0.0009392
1678.24	0.0010416
1687.88	0.0011456
1697.53	0.0015195
1707.17	0.00167
1716.82	0.00207
1726.46	0.00291
1736.11	0.00434
1745.75	0.00649
1755.4	0.01039
1765.04	0.01646
1774.69	0.02692
1784.33	0.04389
1793.98	0.06514
1803.62	0.07608
1813.27	0.06677
1822.91	0.04509
1832.55	0.02714
1842.2	0.01742
1851.84	0.01206
1861.49	0.00848
1871.13	0.0062
1880.78	0.00476
1890.42	0.00374
1900.07	0.00287
1909.71	0.00212
1919.36	0.0015076
1929	0.0013012
1938.65	0.0012181
1948.29	0.0011467
1957.94	0.0009818
1967.58	0.0009603
1977.23	0.0008129
1986.87	0.0007913
1996.52	0.0007786
2006.16	0.0007037
2015.81	0.0007002
2025.45	0.0008157
2035.1	0.00089
2044.74	0.0009318
2054.38	0.0010973
2064.03	0.0012039
2073.67	0.0015552
2083.32	0.0024
2092.96	0.00417
2102.61	0.00658
2112.25	0.00828
2121.9	0.00755
2131.54	0.00458
2141.19	0.00194
2150.83	0.0011605
2160.48	0.0009803
2170.12	0.0007826
2179.77	0.0008089
2189.41	0.0007797
2199.06	0.0007369
2208.7	0.0007405
2218.35	0.0007474
2227.99	0.0006951
2237.64	0.0009005
2247.28	0.0007513
2256.92	0.0007845
2266.57	0.0005761
2276.21	0.00061759
2285.86	0.0006965
2295.5	0.0005681
2305.15	0.00060972
2314.79	0.0005689
2324.44	0.0007598
2334.08	0.00066853
2343.73	0.00064897
2353.37	0.00062025
2363.02	0.0007184
2372.66	0.000594026
2382.31	0.0007077
2391.95	0.0005722
2401.6	0.0005178
2411.24	0.00060389
2420.89	0.000590819
2430.53	0.0005234
2440.18	0.00059805
2449.82	0.0005119
2459.47	0.00062456
2469.11	0.0005656
2478.75	0.0005098
2488.4	0.0005013
2498.04	0.00063506
2507.69	0.000556
2517.33	0.000369
2526.98	0.00045
2536.62	0.000429
2546.27	0.0005453
2555.91	0.000590895
2565.56	0.00060074
2575.2	0.0007145
2584.85	0.00047
2594.49	0.000591855
2604.14	0.000605
2613.78	0.00065203
2623.43	0.0006678
2633.07	0.0005412
2642.72	0.0005125
2652.36	0.0008027
2662.01	0.000773
2671.65	0.0008537
2681.29	0.0007048
2690.94	0.0008358
2700.58	0.0007605
2710.23	0.0008702
2719.87	0.00061725
2729.52	0.000807
2739.16	0.0009936
2748.81	0.0012521
2758.45	0.0013456
2768.1	0.0011913
2777.74	0.0013066
2787.39	0.0012883
2797.03	0.0014813
2806.68	0.00179
2816.32	0.00204
2825.97	0.00249
2835.61	0.00306
2845.26	0.00405
2854.9	0.00632
2864.55	0.00952
2874.19	0.0147
2883.84	0.01875
2893.48	0.01785
2903.12	0.01473
2912.77	0.01586
2922.41	0.02031
2932.06	0.02826
2941.7	0.03687
2951.35	0.03767
2960.99	0.0374
2970.64	0.04219
2980.28	0.03948
2989.93	0.0279
2999.57	0.01551
3009.22	0.00721
3018.86	0.0043
3028.51	0.00339
3038.15	0.00266
3047.8	0.00231
3057.44	0.00199
3067.09	0.00166
3076.73	0.0015232
3086.38	0.0012888
3096.02	0.0013078
3105.67	0.0013573
3115.31	0.0012452
3124.95	0.0009794
3134.6	0.0011503
3144.24	0.0009523
3153.89	0.001085
3163.53	0.0010195
3173.18	0.0008689
3182.82	0.0010873
3192.47	0.0008822
3202.11	0.0005794
3211.76	0.0009096
3221.4	0.0008659
3231.05	0.00064456
3240.69	0.000379
3250.34	0.000359
3259.98	0.000399
3269.63	0.000334
3279.27	0.000267
3288.92	0.000416
3298.56	0.000157
3308.21	0.00041
3317.85	0.000348
3327.49	0.000349
3337.14	0.0005025
3346.78	0.000497
3356.43	0.000353
3366.07	0.000388
3375.72	0.000372
3385.36	0.0005023
3395.01	0.000385
3404.65	0.000156
3414.3	0.00026
3423.94	0.000198
3433.59	0.000431
3443.23	0.000485
3452.88	0.000414
3462.52	0.000396
3472.17	0.0005499
3481.81	0.00062609
3491.46	0.0005712
3501.1	0.0005076
3510.75	0.00066412
3520.39	0.00060964
3530.04	0.00058272
3539.68	0.0005515
3549.32	0.0009411
3558.97	0.0011495
3568.61	0.00161
3578.26	0.00178
3587.9	0.0018
3597.55	0.0014654
3607.19	0.0012617
3616.84	0.0008235
3626.48	0.0007397
3636.13	0.0009322
3645.77	0.0009002
3655.42	0.00068394
3665.06	0.0005093
3674.71	0.00063989
3684.35	0.000511
3694	0.000437
3703.64	0.00064547
3713.29	0.0006263
3722.93	0.000419
3732.58	0.0005496
3742.22	0.000473
3751.86	0.000597629
3761.51	0.0005698
3771.15	0.000349
3780.8	0.0005146
3790.44	0.00067763
3800.09	0.00063088
3809.73	0.0008136
3819.38	0.0005672
3829.02	0.000498
3838.67	0.0005306
3848.31	0.000347
3857.96	0.0007358
3867.6	0.000448
3877.25	0.00061287
3886.89	0.000344
3896.54	0.000345
3906.18	0.00066061
3915.83	0.0005007
3925.47	0.000243
3935.12	0.000464
3944.76	0.00063067
3954.41	0.000455
3964.05	0.0007942
3973.69	0.00061796
3983.34	0.000451
3992.98	0.0005418
