Infrared Spectrum: Cyclohexanemethyl isothiocyanate
Formula: C 8 H 13 N S
CAS: 52395-66-1
State: gas
Origin: EPA-IR VAPOR PHASE LIBRARY
1/CM	ABSORBANCE
549.8	0.004795
559.445	0.004845
569.09	0.004715
578.734	0.004925
588.379	0.004975
598.024	0.004115
607.669	0.003425
617.313	0.002585
626.958	0.001705
636.603	0.001615
646.248	0.001875
655.893	0.002415
665.537	0.002885
675.182	0.004025
684.827	0.005565
694.472	0.007015
704.116	0.007155
713.761	0.006695
723.406	0.004915
733.051	0.002225
742.695	0.0009294
752.34	0.0008624
761.985	0.0007105
771.63	0.001064
781.275	0.001355
790.919	0.0008235
800.564	0.0004569
810.209	0.00040972
819.854	0.0006169
829.498	0.0007158
839.143	0.0011483
848.788	0.0011406
858.433	0.0011558
868.078	0.0012669
877.722	0.001755
887.367	0.001875
897.012	0.001635
906.657	0.001945
916.301	0.002745
925.946	0.002265
935.591	0.001925
945.236	0.002655
954.88	0.004605
964.525	0.003395
974.17	0.001465
983.815	0.0012964
993.46	0.0011025
1003.1	0.0009295
1012.75	0.001455
1022.39	0.001785
1032.04	0.002035
1041.68	0.001855
1051.33	0.001525
1060.97	0.002305
1070.62	0.002315
1080.26	0.002375
1089.91	0.002025
1099.55	0.002555
1109.2	0.002145
1118.84	0.002665
1128.49	0.002285
1138.13	0.002195
1147.78	0.002005
1157.42	0.001455
1167.07	0.001595
1176.71	0.002155
1186.36	0.002095
1196	0.002025
1205.64	0.002285
1215.29	0.002325
1224.93	0.003025
1234.58	0.002245
1244.22	0.002935
1253.87	0.003465
1263.51	0.004315
1273.16	0.005055
1282.8	0.007885
1292.45	0.009195
1302.09	0.006035
1311.74	0.006795
1321.38	0.011375
1331.03	0.018695
1340.67	0.025135
1350.32	0.030425
1359.96	0.023055
1369.61	0.013375
1379.25	0.009175
1388.9	0.004275
1398.54	0.002635
1408.18	0.002275
1417.83	0.002705
1427.47	0.003555
1437.12	0.006895
1446.76	0.018325
1456.41	0.030755
1466.05	0.017435
1475.7	0.005205
1485.34	0.002655
1494.99	0.001575
1504.63	0.0010475
1514.28	0.0008021
1523.92	0.0007116
1533.57	0.0006388
1543.21	0.0005911
1552.86	0.0007141
1562.5	0.0008052
1572.15	0.0007402
1581.79	0.0007017
1591.44	0.0006412
1601.08	0.0006651
1610.73	0.0005297
1620.37	0.0004921
1630.01	0.0005441
1639.66	0.0005475
1649.3	0.0005432
1658.95	0.0005694
1668.59	0.0006634
1678.24	0.0006844
1687.88	0.0006436
1697.53	0.0006135
1707.17	0.0006757
1716.82	0.0007938
1726.46	0.0007197
1736.11	0.0007355
1745.75	0.0007201
1755.4	0.0007681
1765.04	0.0007862
1774.69	0.0008122
1784.33	0.0008727
1793.98	0.0010192
1803.62	0.0009806
1813.27	0.000891
1822.91	0.000907
1832.55	0.0009061
1842.2	0.0009604
1851.84	0.0011454
1861.49	0.001352
1871.13	0.001665
1880.78	0.002035
1890.42	0.002665
1900.07	0.003305
1909.71	0.004045
1919.36	0.004975
1929	0.006145
1938.65	0.007765
1948.29	0.009845
1957.94	0.012855
1967.58	0.017145
1977.23	0.023195
1986.87	0.030865
1996.52	0.040995
2006.16	0.055255
2015.81	0.075575
2025.45	0.105015
2035.1	0.143625
2044.74	0.183305
2054.38	0.211885
2064.03	0.224205
2073.67	0.218385
2083.32	0.188225
2092.96	0.135925
2102.61	0.092835
2112.25	0.073435
2121.9	0.066395
2131.54	0.060665
2141.19	0.054075
2150.83	0.046115
2160.48	0.039695
2170.12	0.037115
2179.77	0.035055
2189.41	0.032405
2199.06	0.029945
2208.7	0.026835
2218.35	0.022275
2227.99	0.017045
2237.64	0.012585
2247.28	0.009535
2256.92	0.007265
2266.57	0.005615
2276.21	0.004465
2285.86	0.003565
2295.5	0.003065
2305.15	0.002625
2314.79	0.002265
2324.44	0.001905
2334.08	0.001685
2343.73	0.001685
2353.37	0.001635
2363.02	0.001555
2372.66	0.001435
2382.31	0.001375
2391.95	0.001415
2401.6	0.0013317
2411.24	0.0013397
2420.89	0.001116
2430.53	0.0010374
2440.18	0.0009558
2449.82	0.000858
2459.47	0.0008882
2469.11	0.0009859
2478.75	0.001172
2488.4	0.0011312
2498.04	0.0011802
2507.69	0.0010945
2517.33	0.001171
2526.98	0.0013171
2536.62	0.001485
2546.27	0.001405
2555.91	0.001475
2565.56	0.001615
2575.2	0.001845
2584.85	0.001875
2594.49	0.001705
2604.14	0.001545
2613.78	0.001445
2623.43	0.001455
2633.07	0.001635
2642.72	0.001705
2652.36	0.002155
2662.01	0.002535
2671.65	0.002735
2681.29	0.002505
2690.94	0.002255
2700.58	0.002265
2710.23	0.002305
2719.87	0.002215
2729.52	0.002405
2739.16	0.002645
2748.81	0.003125
2758.45	0.003635
2768.1	0.003955
2777.74	0.004155
2787.39	0.004435
2797.03	0.004495
2806.68	0.004255
2816.32	0.004325
2825.97	0.005045
2835.61	0.007055
2845.26	0.013525
2854.9	0.031915
2864.55	0.050995
2874.19	0.041095
2883.84	0.026225
2893.48	0.022755
2903.12	0.030015
2912.77	0.045635
2922.41	0.076665
2932.06	0.132315
2941.7	0.157005
2951.35	0.091515
2960.99	0.027735
2970.64	0.011385
2980.28	0.005815
2989.93	0.002965
2999.57	0.001785
3009.22	0.001515
3018.86	0.0013125
3028.51	0.0012102
3038.15	0.001259
3047.8	0.0011331
3057.44	0.0012642
3067.09	0.0010851
3076.73	0.0007741
3086.38	0.0009547
3096.02	0.0007939
3105.67	0.0006457
3115.31	0.0006144
3124.95	0.0005528
3134.6	0.0006409
3144.24	0.0007925
3153.89	0.0006625
3163.53	0.0007178
3173.18	0.000594
3182.82	0.00044511
3192.47	0.0004444
3202.11	0.0004584
3211.76	0.0002791
3221.4	0.000274
3231.05	0.00037979
3240.69	0.0004604
3250.34	0.0005069
3259.98	0.0004684
3269.63	0.0004101
3279.27	0.0003376
3288.92	0.0003014
3298.56	0.000231
3308.21	7.5e-05
3317.85	0.000244
3327.49	0.000298
3337.14	0.000355468
3346.78	0.00040274
3356.43	0.0004829
3366.07	0.00036555
3375.72	0.0004833
3385.36	0.0006245
3395.01	0.000511
3404.65	0.0004982
3414.3	0.00042122
3423.94	0.0005815
3433.59	0.00042419
3443.23	0.0005559
3452.88	0.00041637
3462.52	0.0004758
3472.17	0.00045177
3481.81	0.0005831
3491.46	0.0005045
3501.1	0.00044891
3510.75	0.000175
3520.39	0.000362078
3530.04	0.0004586
3539.68	0.0003033
3549.32	0.0003053
3558.97	0.0003337
3568.61	0.000244
3578.26	0.0002827
3587.9	0.0003009
3597.55	0.000251
3607.19	0.0003359
3616.84	0.0003329
3626.48	0.00039557
3636.13	0.00039415
3645.77	0.0003841
3655.42	0.00045003
3665.06	0.0005561
3674.71	0.00042824
3684.35	0.00040589
3694	0.0005066
3703.64	0.000536
3713.29	0.00044031
3722.93	0.0005416
3732.58	0.0005596
3742.22	0.0005141
3751.86	0.0004557
3761.51	0.0007137
3771.15	0.0005673
3780.8	0.000694
3790.44	0.0005092
3800.09	0.00043552
3809.73	0.0006262
3819.38	0.0006352
3829.02	0.0006548
3838.67	0.000556
3848.31	0.0005202
3857.96	0.0007242
3867.6	0.0004645
3877.25	0.0006305
3886.89	0.0007153
3896.54	0.0008449
3906.18	0.0008352
3915.83	0.0007214
3925.47	0.0006246
3935.12	0.0007234
3944.76	0.0008582
3954.41	0.0010148
3964.05	0.0008214
3973.69	0.0010897
3983.34	0.0008483
3992.98	0.0010992
