Infrared Spectrum: 1,2-Naphthoquinone
Formula: C 10 H 6 O 2
CAS: 524-42-5
State: gas
Instrument: HP-GC/MS/IRD
Origin: NIST Mass Spectrometry Data Center
1/CM	ABSORBANCE
550	0.0002409
562	0.0002235
574	0.0001293
586	0.000144
598	7.29e-05
610	0.0001914
622	0.0001287
634	5.1e-05
646	0.0001143
658	8.76e-05
670	0.0001629
682	0.0001995
694	9.54e-05
706	8.43e-05
718	4.08e-05
730	0.0001413
742	0.0003633
754	0.0005226
766	0.0002535
778	0.0002415
790	0.000528
802	0.0003438
814	8.79e-05
826	0.0001863
838	0.0004203
850	0.0003591
862	0.0001617
874	9.78e-05
886	2.61e-05
898	3.39e-05
910	6.12e-05
922	7.65e-05
934	0.0001305
946	0.0004287
958	0.0004458
970	0.0001497
982	7.41e-05
994	2.85e-05
1006	2.28e-05
1018	4.26e-05
1030	6.18e-05
1042	5.37e-05
1054	1.83e-05
1066	8.64e-05
1078	9.3e-05
1090	0.0001542
1102	0.0001488
1114	0.0001836
1126	0.0002166
1138	0.0001698
1150	9.15e-05
1162	8.52e-05
1174	0.0002064
1186	0.0003717
1198	0.0003546
1210	0.0003957
1222	0.0004581
1234	0.0007542
1246	0.0006099
1258	0.0003105
1270	0.0006426
1282	0.0012066
1294	0.0007518
1306	0.0004473
1318	0.0002901
1330	0.0001383
1342	8.79e-05
1354	7.47e-05
1366	8.22e-05
1378	0.0001248
1390	0.0001656
1402	0.0001203
1414	6.75e-05
1426	5.4e-05
1438	8.07e-05
1450	0.0002268
1462	0.0001515
1474	4.86e-05
1486	5.82e-05
1498	5.61e-05
1510	8.4e-06
1522	2.4e-05
1534	5.43e-05
1546	7.74e-05
1558	0.0001347
1570	0.0002025
1582	0.000288
1594	0.0004899
1606	0.0003804
1618	0.0001677
1630	0.0002343
1642	0.0002745
1654	0.0003573
1666	0.0007449
1678	0.0018102
1690	0.003
1702	0.0024753
1714	0.0011616
1726	0.0005244
1738	0.0001788
1750	0.0001386
1762	0.0001707
1774	0.0001338
1786	7.95e-05
1798	6.81e-05
1810	8.85e-05
1822	9.54e-05
1834	7.62e-05
1846	5.22e-05
1858	6.33e-05
1870	5.79e-05
1882	4.47e-05
1894	5.46e-05
1906	6.57e-05
1918	5.97e-05
1930	8.22e-05
1942	8.76e-05
1954	9.21e-05
1966	9.06e-05
1978	7.32e-05
1990	5.19e-05
2002	4.8e-05
2014	8.16e-05
2026	4.65e-05
2038	6.54e-05
2050	6.45e-05
2062	5.55e-05
2074	5.01e-05
2086	4.65e-05
2098	4.5e-05
2110	4.56e-05
2122	4.23e-05
2134	4.11e-05
2146	3.87e-05
2158	5.43e-05
2170	3.72e-05
2182	3.99e-05
2194	4.62e-05
2206	6.21e-05
2218	6.39e-05
2230	4.86e-05
2242	6.09e-05
2254	4.2e-05
2266	4.8e-05
2278	2.88e-05
2290	6.81e-05
2302	5.01e-05
2314	6.66e-05
2326	4.14e-05
2338	5.28e-05
2350	5.07e-05
2362	3.96e-05
2374	4.23e-05
2386	2.16e-05
2398	6.66e-05
2410	6.42e-05
2422	6.33e-05
2434	7.08e-05
2446	5.04e-05
2458	4.62e-05
2470	3.87e-05
2482	6.24e-05
2494	7.5e-05
2506	5.49e-05
2518	3.99e-05
2530	4.08e-05
2542	3.42e-05
2554	3.96e-05
2566	6e-05
2578	3.6e-05
2590	3.48e-05
2602	5.43e-05
2614	4.65e-05
2626	5.52e-05
2638	5.43e-05
2650	4.35e-05
2662	4.23e-05
2674	7.11e-05
2686	7.38e-05
2698	4.86e-05
2710	4.05e-05
2722	3.6e-05
2734	5.52e-05
2746	5.01e-05
2758	1.89e-05
2770	3.72e-05
2782	3.27e-05
2794	4.59e-05
2806	5.43e-05
2818	3.63e-05
2830	6.66e-05
2842	4.35e-05
2854	1.71e-05
2866	1.47e-05
2878	4.47e-05
2890	2.28e-05
2902	3.51e-05
2914	6.3e-05
2926	4.74e-05
2938	4.38e-05
2950	3.63e-05
2962	4.62e-05
2974	5.79e-05
2986	5.91e-05
2998	5.37e-05
3010	6.96e-05
3022	0.0001338
3034	0.0002058
3046	0.000318
3058	0.0003342
3070	0.0003384
3082	0.0003423
3094	0.0001671
3106	0.0001059
3118	4.08e-05
3130	6.12e-05
3142	7.35e-05
3154	4.98e-05
3166	4.65e-05
3178	5.64e-05
3190	5.31e-05
3202	6.6e-05
3214	6.12e-05
3226	2.7e-05
3238	0
3250	3.93e-05
3262	4.68e-05
3274	2.94e-05
3286	4.89e-05
3298	3.57e-05
3310	5.52e-05
3322	9.03e-05
3334	6.54e-05
3346	0.0001212
3358	0.0001209
3370	0.0001506
3382	0.0001587
3394	9.51e-05
3406	0.0001182
3418	8.79e-05
3430	6e-05
3442	7.02e-05
3454	0.0001083
3466	4.23e-05
3478	9.36e-05
3490	4.89e-05
3502	2.43e-05
3514	6.57e-05
3526	9.78e-05
3538	6.96e-05
3550	3.9e-05
3562	8.55e-05
3574	6.51e-05
3586	3.87e-05
3598	0.0001185
3610	5.22e-05
3622	2.88e-05
3634	8.88e-05
3646	9.3e-06
3658	7.14e-05
3670	8.49e-05
3682	3.81e-05
3694	6.03e-05
3706	7.71e-05
3718	0.0001002
3730	7.44e-05
3742	5.97e-05
3754	3.3e-06
3766	8.01e-05
3778	0.0001212
3790	8.25e-05
3802	8.79e-05
3814	0.0001242
3826	8.07e-05
3838	2.4e-05
