Infrared Spectrum: 2,5-DIHYDROXY BENZAMIDE
Formula: C7 H7 N O3
CAS: 52405-73-9
State: SOLID (MINERAL OIL MULL)
Class: COBLENTZ
Instrument: Not specified, most likely a prism, grating, or hybrid spectrometer.
Sampling: TRANSMISSION
Resolution: 4
Origin: DOW CHEMICAL COMPANY
MICROMETERS	TRANSMITTANCE
2.027	0.769
2.06804	0.771
2.10907	0.784
2.15011	0.786
2.19115	0.788
2.23218	0.791
2.27322	0.793
2.31426	0.796
2.35529	0.803
2.39633	0.81
2.43737	0.819
2.4784	0.824
2.51944	0.831
2.56047	0.834
2.60151	0.843
2.64255	0.849
2.68358	0.854
2.72462	0.858
2.76566	0.86
2.80669	0.86
2.84773	0.79
2.88877	0.551
2.9298	0.481
2.97084	0.322
3.01188	0.237
3.05291	0.24
3.09395	0.298
3.13499	0.38
3.17602	0.493
3.21706	0.556
3.2581	0.575
3.29913	0.578
3.34017	0.452
3.38121	0.112
3.42224	0.105
3.46328	0.206
3.50431	0.412
3.54535	0.638
3.58639	0.672
3.62742	0.672
3.66846	0.684
3.7095	0.709
3.75053	0.757
3.79157	0.766
3.83261	0.762
3.87364	0.786
3.91468	0.802
3.95572	0.81
3.99675	0.817
4.03779	0.837
4.07883	0.849
4.11986	0.853
4.1609	0.854
4.20194	0.86
4.24297	0.866
4.28401	0.873
4.32505	0.875
4.36608	0.877
4.40712	0.88
4.44815	0.88
4.48919	0.88
4.53023	0.878
4.57126	0.878
4.6123	0.88
4.65334	0.882
4.69437	0.885
4.73541	0.887
4.77645	0.889
4.81748	0.89
4.85852	0.887
4.89956	0.883
4.94059	0.885
4.98163	0.892
5.02267	0.897
5.0637	0.899
5.10474	0.901
5.14578	0.901
5.18681	0.901
5.22785	0.901
5.26889	0.894
5.30992	0.88
5.35096	0.883
5.39199	0.892
5.43303	0.894
5.47407	0.899
5.5151	0.892
5.55614	0.89
5.59718	0.892
5.63821	0.89
5.67925	0.88
5.72029	0.868
5.76132	0.863
5.80236	0.854
5.8434	0.829
5.88443	0.776
5.92547	0.656
5.96651	0.313
6.00754	0.201
6.04858	0.264
6.08962	0.418
6.13065	0.631
6.17169	0.662
6.21273	0.605
6.25376	0.552
6.2948	0.378
6.33584	0.283
6.37687	0.443
6.41791	0.6
6.45894	0.631
6.49998	0.641
6.54102	0.614
6.58205	0.554
6.62309	0.409
6.66413	0.189
6.70516	0.167
6.7462	0.382
6.78724	0.387
6.82827	0.348
6.86931	0.383
6.91035	0.416
6.95138	0.401
6.99242	0.365
7.03346	0.395
7.07449	0.486
7.11553	0.581
7.15657	0.617
7.1976	0.559
7.23864	0.418
7.27968	0.363
7.32071	0.38
7.36175	0.358
7.40278	0.341
7.44382	0.428
7.48486	0.476
7.52589	0.54
7.56693	0.612
7.60797	0.653
7.649	0.668
7.69004	0.689
7.73108	0.65
7.77211	0.551
7.81315	0.349
7.85419	0.254
7.89522	0.296
7.93626	0.436
7.9773	0.433
8.01833	0.293
8.05937	0.228
8.10041	0.264
8.14144	0.29
8.18248	0.344
8.22352	0.472
8.26455	0.563
8.30559	0.624
8.34662	0.67
8.38766	0.701
8.4287	0.721
8.46973	0.74
8.51077	0.745
8.55181	0.754
8.59284	0.759
8.63388	0.761
8.67492	0.742
8.71595	0.677
8.75699	0.607
8.79803	0.602
8.83906	0.716
8.8801	0.752
8.92114	0.755
8.96217	0.74
9.00321	0.732
9.04425	0.728
9.08528	0.737
9.12632	0.742
9.16736	0.742
9.20839	0.742
9.24943	0.732
9.29046	0.677
9.3315	0.592
9.37254	0.559
9.41357	0.662
9.45461	0.774
9.49565	0.813
9.53668	0.831
9.57772	0.844
9.61876	0.853
9.65979	0.854
9.70083	0.854
9.74187	0.856
9.7829	0.86
9.82394	0.861
9.86498	0.863
9.90601	0.863
9.94705	0.866
9.98809	0.87
10.0291	0.88
10.0702	0.877
10.1112	0.878
10.1522	0.873
10.1933	0.875
10.2343	0.873
10.2753	0.87
10.3164	0.87
10.3574	0.87
10.3985	0.87
10.4395	0.866
10.4805	0.87
10.5216	0.87
10.5626	0.851
10.6036	0.807
10.6447	0.752
10.6857	0.703
10.7267	0.663
10.7678	0.754
10.8088	0.825
10.8499	0.844
10.8909	0.86
10.9319	0.865
10.973	0.865
11.014	0.87
11.055	0.87
11.0961	0.872
11.1371	0.875
11.1781	0.875
11.2192	0.875
11.2602	0.875
11.3013	0.875
11.3423	0.873
11.3833	0.872
11.4244	0.854
11.4654	0.837
11.5064	0.846
11.5475	0.86
11.5885	0.849
11.6295	0.807
11.6706	0.796
11.7116	0.82
11.7527	0.839
11.7937	0.839
11.8347	0.827
11.8758	0.82
11.9168	0.805
11.9578	0.764
11.9989	0.701
12.0399	0.6
12.0809	0.506
12.122	0.43
12.163	0.44
12.2041	0.592
12.2451	0.672
12.2861	0.692
12.3272	0.686
12.3682	0.646
12.4092	0.592
12.4503	0.522
12.4913	0.469
12.5324	0.426
12.5734	0.377
12.6144	0.291
12.6555	0.211
12.6965	0.199
12.7375	0.375
12.7786	0.532
12.8196	0.617
12.8606	0.663
12.9017	0.68
12.9427	0.687
12.9838	0.691
13.0248	0.697
13.0658	0.699
13.1069	0.704
13.1479	0.704
13.1889	0.701
13.23	0.699
13.271	0.689
13.312	0.679
13.3531	0.672
13.3941	0.658
13.4352	0.645
13.4762	0.627
13.5172	0.6
13.5583	0.575
13.5993	0.559
13.6403	0.539
13.6814	0.523
13.7224	0.496
13.7634	0.491
13.8045	0.534
13.8455	0.566
13.8866	0.573
13.9276	0.573
13.9686	0.563
14.0097	0.554
14.0507	0.558
14.0917	0.551
14.1328	0.546
14.1738	0.535
14.2148	0.529
14.2559	0.52
14.2969	0.513
14.338	0.513
14.379	0.51
14.42	0.506
14.4611	0.503
14.5021	0.496
14.5431	0.488
14.5842	0.479
14.6252	0.459
14.6662	0.433
14.7073	0.412
14.7483	0.383
14.7894	0.356
14.8304	0.32
14.8714	0.293
14.9125	0.271
14.9535	0.257
14.9945	0.252
15.0356	0.264
15.0766	0.281
15.1177	0.298
15.1587	0.308
15.1997	0.325
15.2408	0.331
15.2818	0.332
15.3228	0.332
15.3639	0.329
15.4049	0.322
15.4459	0.305
15.487	0.293
15.528	0.284
15.5691	0.278
15.6101	0.271
15.6511	0.266
15.6922	0.264
15.7332	0.257
15.7742	0.25
15.8153	0.247
15.8563	0.244
15.8973	0.238
15.9384	0.237
