Infrared Spectrum: Bicyclo[2.2.1]-heptane-2-methanol
Formula: C 8 H 14 O
CAS: 5240-72-2
State: gas
Instrument: HP-GC/MS/IRD
Origin: NIST Mass Spectrometry Data Center
1/CM	ABSORBANCE
550	0.000506
562	0.000253
574	0.0002392
586	0.0001012
598	0.0001104
610	9.2e-05
622	5.06e-05
634	0.0001196
646	3.22e-05
658	3.22e-05
670	5.52e-05
682	4.6e-05
694	5.52e-05
706	0.0001012
718	0.0001702
730	0.000184
742	0.000161
754	0.0002254
766	0.0002346
778	0.000161
790	0.0002346
802	0.0002116
814	0.000276
826	0.0003496
838	0.0002714
850	0.0002208
862	0.000276
874	0.000368
886	0.0004508
898	0.0005152
910	0.0006992
922	0.0009844
934	0.0011086
946	0.001196
958	0.001472
970	0.0017848
982	0.0027324
994	0.004531
1006	0.0066424
1018	0.0070334
1030	0.0060168
1042	0.0070656
1054	0.0077924
1066	0.004991
1078	0.0022586
1090	0.0016146
1102	0.0013478
1114	0.00115
1126	0.0011776
1138	0.0013156
1150	0.0013892
1162	0.0014352
1174	0.0014536
1186	0.0014628
1198	0.001403
1210	0.0015778
1222	0.0018032
1234	0.001863
1246	0.0016514
1258	0.0015318
1270	0.0013708
1282	0.0012972
1294	0.0014306
1306	0.001495
1318	0.0012604
1330	0.0011316
1342	0.0013478
1354	0.0015272
1366	0.0016008
1378	0.0019734
1390	0.0020056
1402	0.0013708
1414	0.0009016
1426	0.000713
1438	0.0010764
1450	0.0019918
1462	0.0025438
1474	0.0021436
1486	0.0013386
1498	0.0006118
1510	0.0002576
1522	0.0001656
1534	0.0001334
1546	0.0001012
1558	0.0001012
1570	9.66e-05
1582	7.36e-05
1594	6.9e-05
1606	7.82e-05
1618	3.68e-05
1630	5.06e-05
1642	4.6e-05
1654	9.2e-06
1666	3.68e-05
1678	3.22e-05
1690	5.98e-05
1702	2.76e-05
1714	2.3e-05
1726	4.6e-05
1738	2.76e-05
1750	3.22e-05
1762	2.3e-05
1774	4.6e-05
1786	1.38e-05
1798	1.38e-05
1810	9.2e-06
1822	2.76e-05
1834	1.38e-05
1846	9.2e-06
1858	4.6e-06
1870	3.22e-05
1882	1.38e-05
1894	1.38e-05
1906	9.2e-06
1918	9.2e-06
1930	2.76e-05
1942	1.84e-05
1954	4.6e-05
1966	4.6e-05
1978	5.06e-05
1990	4.6e-05
2002	5.98e-05
2014	7.82e-05
2026	0.0001012
2038	0.0001196
2050	0.0001058
2062	0.0001104
2074	0.000115
2086	7.82e-05
2098	8.74e-05
2110	5.98e-05
2122	1.84e-05
2134	5.52e-05
2146	5.52e-05
2158	4.6e-05
2170	5.98e-05
2182	9.66e-05
2194	9.2e-05
2206	8.28e-05
2218	7.36e-05
2230	5.52e-05
2242	6.9e-05
2254	5.98e-05
2266	7.36e-05
2278	5.06e-05
2290	5.06e-05
2302	2.76e-05
2314	0
2326	0
2338	0
2350	0
2362	0
2374	9.2e-06
2386	4.14e-05
2398	5.98e-05
2410	6.44e-05
2422	7.36e-05
2434	5.98e-05
2446	4.14e-05
2458	5.06e-05
2470	2.76e-05
2482	4.6e-05
2494	4.14e-05
2506	3.22e-05
2518	1.38e-05
2530	2.3e-05
2542	5.06e-05
2554	7.36e-05
2566	8.74e-05
2578	0.0001196
2590	0.0001196
2602	0.0001242
2614	0.0001334
2626	0.000115
2638	0.0001426
2650	0.0001334
2662	0.0001426
2674	0.0001702
2686	0.0001886
2698	0.00023
2710	0.000276
2722	0.0002898
2734	0.0003542
2746	0.0004462
2758	0.0005336
2770	0.0005796
2782	0.0006716
2794	0.0007038
2806	0.0007452
2818	0.000874
2830	0.0012098
2842	0.001978
2854	0.0043148
2866	0.0105064
2878	0.0166704
2890	0.0150558
2902	0.0113988
2914	0.0121578
2926	0.0152904
2938	0.022816
2950	0.0389942
2962	0.0445924
2974	0.025622
2986	0.0073278
2998	0.0022264
3010	0.0010166
3022	0.000667
3034	0.0004968
3046	0.000437
3058	0.000345
3070	0.000276
3082	0.00023
3094	0.0001748
3106	0.0001104
3118	7.36e-05
3130	5.98e-05
3142	6.9e-05
3154	5.06e-05
3166	6.9e-05
3178	4.14e-05
3190	4.6e-05
3202	3.68e-05
3214	2.3e-05
3226	5.98e-05
3238	5.98e-05
3250	2.76e-05
3262	3.68e-05
3274	1.84e-05
3286	2.3e-05
3298	1.84e-05
3310	0
3322	1.84e-05
3334	5.98e-05
3346	8.28e-05
3358	2.3e-05
3370	5.98e-05
3382	5.98e-05
3394	4.14e-05
3406	9.66e-05
3418	9.66e-05
3430	0.0001012
3442	9.66e-05
3454	0.0001012
3466	9.2e-05
3478	0.0001196
3490	0.0001104
3502	0.0001012
3514	7.36e-05
3526	7.36e-05
3538	5.06e-05
3550	2.3e-05
3562	8.74e-05
3574	0.0001012
3586	2.76e-05
3598	7.36e-05
3610	0.0001012
3622	0.0001978
3634	0.0004186
3646	0.0010442
3658	0.0019918
3670	0.002093
3682	0.0011822
3694	0.0004324
3706	0.0002208
3718	0.0002024
3730	0.000138
3742	0.000138
3754	0.0001426
3766	0.000161
3778	0.0001288
3790	0.000115
3802	0.0001196
3814	0.0001242
3826	0.000138
3838	0.0001794
