Infrared Spectrum: GLYCINONITRILE, 2,2-DIPHENYL-
Formula: C14 H12 N2
CAS: 52460-99-8
State: SOLID (OIL MULL)
Class: COBLENTZ III
Instrument: BAIRD (GRATING)
Instrument parameters: NaCl PRISM
Resolution: 2
Origin: WYANDOTTE CHEMICALS CORP.
1/CM	TRANSMITTANCE
626	0.571
635	0.6408
644	0.4856
653	0.7399
662	0.7728
671	0.7606
680	0.7378
689	0.3811
698	0.0576
707	0.3965
716	0.747
725	0.7892
734	0.7881
743	0.6887
752	0.0951
761	0.5816
770	0.1964
779	0.7496
788	0.8052
797	0.8022
806	0.8027
815	0.7919
824	0.7744
833	0.7273
842	0.5902
851	0.3669
860	0.3562
869	0.4051
878	0.2112
887	0.4907
896	0.7511
905	0.8236
914	0.4862
923	0.5368
932	0.7704
941	0.8661
950	0.8861
959	0.8695
968	0.8418
977	0.7488
986	0.6533
995	0.418
1004	0.5911
1013	0.3784
1022	0.7931
1031	0.7741
1040	0.4939
1049	0.8617
1058	0.9066
1067	0.8562
1076	0.6843
1085	0.8888
1094	0.9289
1103	0.9102
1112	0.8625
1121	0.8565
1130	0.9201
1139	0.9224
1148	0.7166
1157	0.8829
1166	0.778
1175	0.8666
1184	0.8666
1193	0.7609
1202	0.714
1211	0.2775
1220	0.5418
1229	0.7983
1238	0.8353
1247	0.833
1256	0.8149
1265	0.7725
1274	0.7201
1283	0.6775
1292	0.7898
1301	0.7812
1310	0.7734
1319	0.8045
1328	0.6722
1337	0.6736
1346	0.7214
1355	0.7856
1364	0.7879
1373	0.6494
1382	0.488
1391	0.4971
1400	0.6808
1409	0.7831
1418	0.793
1427	0.7859
1436	0.7554
1445	0.6685
1454	0.2404
1463	0.1456
1472	0.2331
1481	0.2926
1490	0.4826
1499	0.379
1508	0.3182
1517	0.7497
1526	0.8405
1535	0.8316
1544	0.8335
1553	0.7965
1562	0.7761
1571	0.7465
1580	0.7038
1589	0.6644
1598	0.5194
1607	0.4431
1616	0.3132
1625	0.4855
1634	0.6594
1643	0.7044
1652	0.7627
1661	0.781
1670	0.793
1679	0.7974
1688	0.8088
1697	0.7962
1706	0.8002
1715	0.7991
1724	0.8103
1733	0.7939
1742	0.8045
1751	0.8153
1760	0.8134
1769	0.832
1778	0.8059
1787	0.846
1796	0.8539
1805	0.8302
1814	0.8259
1823	0.8059
1832	0.8223
1841	0.8399
1850	0.8412
1859	0.8473
1868	0.838
1877	0.8139
1886	0.8079
1895	0.782
1904	0.8016
1913	0.8172
1922	0.8215
1931	0.8094
1940	0.7713
1949	0.7539
1958	0.7653
1967	0.7877
1976	0.8043
1985	0.813
1994	0.8181
2003	0.8211
2012	0.8214
2021	0.8187
2030	0.8167
2039	0.814
2048	0.8111
2057	0.8097
2066	0.8098
2075	0.8099
2084	0.8089
2093	0.8067
2102	0.8035
2111	0.7997
2120	0.7956
2129	0.7912
2138	0.7866
2147	0.7814
2156	0.776
2165	0.7721
2174	0.7685
2183	0.7661
2192	0.6425
2201	0.6566
2210	0.7356
2219	0.7693
2228	0.7677
2237	0.7609
2246	0.7576
2255	0.7566
2264	0.7569
2273	0.7599
2282	0.7611
2291	0.7583
2300	0.749
2309	0.7318
2318	0.7213
2327	0.715
2336	0.7102
2345	0.7058
2354	0.7046
2363	0.7092
2372	0.7204
2381	0.7306
2390	0.7308
2399	0.7271
2408	0.7209
2417	0.719
2426	0.7184
2435	0.7169
2444	0.7153
2453	0.7137
2462	0.7122
2471	0.7105
2480	0.7086
2489	0.7068
2498	0.7049
2507	0.7026
2516	0.7002
2525	0.6972
2534	0.6934
2543	0.6896
2552	0.6839
2561	0.6782
2570	0.6734
2579	0.669
2588	0.6677
2597	0.6668
2606	0.6647
2615	0.6596
2624	0.6556
2633	0.6539
2642	0.6525
2651	0.6514
2660	0.6505
2669	0.6497
2678	0.649
2687	0.6481
2696	0.6468
2705	0.6414
2714	0.6314
2723	0.6327
2732	0.6406
2741	0.6496
2750	0.6561
2759	0.6576
2768	0.6556
2777	0.6495
2786	0.6402
2795	0.6265
2804	0.6091
2813	0.5883
2822	0.5396
2831	0.3429
2840	0.1132
2849	0.0735
2858	0.0692
2867	0.0754
2876	0.083
2885	0.0816
2894	0.06
2903	0.0496
2912	0.0412
2921	0.035
2930	0.0318
2939	0.0297
2948	0.0291
2957	0.0297
2966	0.0316
2975	0.0452
2984	0.0971
2993	0.1503
3002	0.2032
3011	0.2557
3020	0.2938
3029	0.3015
3038	0.3169
3047	0.3339
3056	0.3368
3065	0.3324
3074	0.3284
3083	0.3533
3092	0.4093
3101	0.4374
3110	0.4465
3119	0.4475
3128	0.4452
3137	0.4415
3146	0.434
3155	0.4259
3164	0.4176
3173	0.4106
3182	0.4107
3191	0.4124
3200	0.4166
3209	0.4181
3218	0.418
3227	0.4167
3236	0.4144
3245	0.4088
3254	0.4006
3263	0.3901
3272	0.2754
3281	0.2037
3290	0.2585
3299	0.3245
3308	0.3837
3317	0.3825
3326	0.3416
3335	0.3046
3344	0.3126
3353	0.3726
3362	0.4324
3371	0.4729
3380	0.4724
3389	0.4718
3398	0.4711
3407	0.4704
3416	0.4702
3425	0.4703
3434	0.4706
3443	0.471
3452	0.4713
3461	0.4713
3470	0.471
3479	0.4705
3488	0.4701
3497	0.4696
3506	0.4691
3515	0.4683
3524	0.4677
3533	0.4668
3542	0.4658
3551	0.4648
3560	0.4637
3569	0.4626
3578	0.4616
3587	0.4601
3596	0.4586
3605	0.4571
3614	0.4556
3623	0.454
3632	0.4521
3641	0.4502
3650	0.4483
3659	0.4473
3668	0.4464
3677	0.4457
3686	0.4449
3695	0.4437
3704	0.4413
3713	0.4394
3722	0.4383
3731	0.4383
3740	0.439
3749	0.4389
3758	0.4383
3767	0.437
3776	0.4357
3785	0.4343
3794	0.4328
3803	0.4312
3812	0.4298
3821	0.4292
3830	0.4293
3839	0.4294
3848	0.4296
3857	0.4301
3866	0.4302
3875	0.4301
3884	0.4297
3893	0.4287
3902	0.4274
3911	0.4255
3920	0.4234
3929	0.4212
3938	0.4187
3947	0.416
3956	0.4134
3965	0.4109
3974	0.4093
3983	0.4082
3992	0.4071
