Infrared Spectrum: KETONE, 5-AMINO-4-NITRO-2-THIENYL ISOBUTYL
Formula: C8 H10 N2 O3 S
CAS: 52499-06-6
State: SOLID (KBr PELLET)
Class: COBLENTZ
Instrument: Not specified, most likely a prism, grating, or hybrid spectrometer.
Sampling: TRANSMISSION
Resolution: 4
Origin: TENNESSEE EASTMAN COMPANY, RESEARCH LABORATORIES
MICROMETERS	TRANSMITTANCE
1.993	0.751
2.03395	0.756
2.07489	0.77
2.11584	0.785
2.15679	0.794
2.19773	0.797
2.23868	0.803
2.27962	0.813
2.32057	0.816
2.36152	0.821
2.40246	0.827
2.44341	0.828
2.48436	0.833
2.5253	0.835
2.56625	0.839
2.6072	0.839
2.64814	0.839
2.68909	0.835
2.73003	0.832
2.77098	0.77
2.81193	0.705
2.85287	0.65
2.89382	0.594
2.93477	0.428
2.97571	0.472
3.01666	0.549
3.0576	0.386
3.09855	0.27
3.1395	0.529
3.18044	0.554
3.22139	0.583
3.26234	0.683
3.30328	0.777
3.34423	0.792
3.38518	0.727
3.42612	0.756
3.46707	0.792
3.50801	0.84
3.54896	0.868
3.58991	0.881
3.63085	0.885
3.6718	0.89
3.71275	0.895
3.75369	0.898
3.79464	0.91
3.83559	0.919
3.87653	0.922
3.91748	0.924
3.95842	0.928
3.99937	0.929
4.04032	0.929
4.08126	0.928
4.12221	0.931
4.16316	0.931
4.2041	0.933
4.24505	0.922
4.286	0.871
4.32694	0.849
4.36789	0.905
4.40883	0.936
4.44978	0.943
4.49073	0.95
4.53167	0.952
4.57262	0.953
4.61357	0.953
4.65451	0.953
4.69546	0.953
4.7364	0.953
4.77735	0.957
4.8183	0.957
4.85924	0.96
4.90019	0.96
4.94114	0.96
4.98208	0.964
5.02303	0.967
5.06398	0.967
5.10492	0.967
5.14587	0.967
5.18681	0.97
5.22776	0.967
5.26871	0.97
5.30965	0.97
5.3506	0.97
5.39155	0.969
5.43249	0.967
5.47344	0.969
5.51439	0.965
5.55533	0.96
5.59628	0.948
5.63722	0.948
5.67817	0.936
5.71912	0.916
5.76006	0.912
5.80101	0.919
5.84196	0.914
5.8829	0.905
5.92385	0.881
5.9648	0.832
6.00574	0.751
6.04669	0.595
6.08763	0.385
6.12858	0.243
6.16953	0.176
6.21047	0.386
6.25142	0.268
6.29237	0.133
6.33331	0.613
6.37426	0.722
6.4152	0.587
6.45615	0.186
6.4971	0.142
6.53804	0.09
6.57899	0.051
6.61994	0.359
6.66088	0.589
6.70183	0.714
6.74278	0.753
6.78372	0.65
6.82467	0.595
6.86561	0.371
6.90656	0.517
6.94751	0.69
6.98845	0.743
7.0294	0.78
7.07035	0.732
7.11129	0.529
7.15224	0.191
7.19319	0.087
7.23413	0.089
7.27508	0.327
7.31602	0.541
7.35697	0.626
7.39792	0.698
7.43886	0.662
7.47981	0.482
7.52076	0.642
7.5617	0.72
7.60265	0.743
7.6436	0.736
7.68454	0.678
7.72549	0.59
7.76643	0.421
7.80738	0.282
7.84833	0.169
7.88927	0.147
7.93022	0.236
7.97117	0.297
8.01211	0.253
8.05306	0.119
8.094	0.071
8.13495	0.075
8.1759	0.267
8.21684	0.452
8.25779	0.607
8.29874	0.69
8.33968	0.702
8.38063	0.717
8.42158	0.731
8.46252	0.743
8.50347	0.748
8.54441	0.729
8.58536	0.715
8.62631	0.72
8.66725	0.722
8.7082	0.731
8.74915	0.731
8.79009	0.729
8.83104	0.707
8.87199	0.667
8.91293	0.599
8.95388	0.534
8.99482	0.491
9.03577	0.481
9.07672	0.465
9.11766	0.354
9.15861	0.4
9.19956	0.541
9.2405	0.652
9.28145	0.717
9.3224	0.755
9.36334	0.777
9.40429	0.801
9.44523	0.811
9.48618	0.818
9.52713	0.82
9.56807	0.821
9.60902	0.821
9.64997	0.823
9.69091	0.825
9.73186	0.828
9.7728	0.832
9.81375	0.839
9.8547	0.84
9.89564	0.84
9.93659	0.842
9.97754	0.844
10.0185	0.844
10.0594	0.847
10.1004	0.854
10.1413	0.856
10.1823	0.861
10.2232	0.868
10.2642	0.869
10.3051	0.871
10.3461	0.873
10.387	0.881
10.4279	0.886
10.4689	0.888
10.5098	0.89
10.5508	0.893
10.5917	0.888
10.6327	0.873
10.6736	0.837
10.7146	0.77
10.7555	0.714
10.7965	0.755
10.8374	0.801
10.8784	0.852
10.9193	0.881
10.9602	0.895
11.0012	0.905
11.0421	0.907
11.0831	0.89
11.124	0.837
11.165	0.828
11.2059	0.857
11.2469	0.871
11.2878	0.875
11.3288	0.866
11.3697	0.787
11.4107	0.784
11.4516	0.861
11.4926	0.885
11.5335	0.893
11.5744	0.895
11.6154	0.895
11.6563	0.895
11.6973	0.897
11.7382	0.904
11.7792	0.904
11.8201	0.845
11.8611	0.76
11.902	0.796
11.943	0.864
11.9839	0.895
12.0249	0.91
12.0658	0.914
12.1067	0.919
12.1477	0.928
12.1886	0.929
12.2296	0.928
12.2705	0.928
12.3115	0.926
12.3524	0.928
12.3934	0.929
12.4343	0.926
12.4753	0.922
12.5162	0.922
12.5572	0.922
12.5981	0.924
12.639	0.924
12.68	0.916
12.7209	0.916
12.7619	0.916
12.8028	0.919
12.8438	0.916
12.8847	0.904
12.9257	0.9
12.9666	0.904
13.0076	0.886
13.0485	0.803
13.0895	0.753
13.1304	0.801
13.1714	0.815
13.2123	0.811
13.2532	0.809
13.2942	0.784
13.3351	0.708
13.3761	0.652
13.417	0.66
13.458	0.72
13.4989	0.775
13.5399	0.806
13.5808	0.825
13.6218	0.835
13.6627	0.839
13.7037	0.842
13.7446	0.845
13.7855	0.849
13.8265	0.852
13.8674	0.856
13.9084	0.859
13.9493	0.863
13.9903	0.866
14.0312	0.868
14.0722	0.869
14.1131	0.871
14.1541	0.869
14.195	0.864
14.236	0.856
14.2769	0.849
14.3178	0.847
14.3588	0.847
14.3997	0.845
14.4407	0.833
14.4816	0.821
14.5226	0.811
14.5635	0.803
14.6045	0.791
14.6454	0.787
14.6864	0.78
14.7273	0.772
14.7683	0.76
14.8092	0.75
14.8502	0.743
14.8911	0.724
14.932	0.703
14.973	0.669
15.0139	0.654
15.0549	0.66
15.0958	0.669
15.1368	0.669
15.1777	0.643
15.2187	0.621
15.2596	0.589
15.3006	0.559
15.3415	0.541
15.3825	0.53
15.4234	0.525
15.4643	0.525
15.5053	0.525
15.5462	0.525
15.5872	0.52
15.6281	0.518
15.6691	0.515
15.71	0.508
15.751	0.493
15.7919	0.491
15.8329	0.481
15.8738	0.472
15.9148	0.465
15.9557	0.464
