Infrared Spectrum: PYROGALLOL, TRIACETATE
Formula: C12 H12 O6
CAS: 525-52-0
State: SOLID (MINERAL OIL MULL)
Melting point: 164-165 C
Class: COBLENTZ
Instrument: Not specified, most likely a prism, grating, or hybrid spectrometer.
Sampling: TRANSMISSION
Resolution: 4
Origin: WYANDOTTE CHEMICALS CORP., WYANDOTTE, MICHIGAN, USA
MICROMETERS	TRANSMITTANCE
2.013	0.918
2.05277	0.93
2.09255	0.933
2.13232	0.923
2.17209	0.925
2.21187	0.905
2.25164	0.89
2.29141	0.89
2.33119	0.89
2.37096	0.898
2.41073	0.905
2.45051	0.905
2.49028	0.906
2.53005	0.91
2.56983	0.911
2.6096	0.928
2.64938	0.931
2.68915	0.926
2.72892	0.921
2.7687	0.915
2.80847	0.903
2.84824	0.878
2.88802	0.866
2.92779	0.861
2.96756	0.851
3.00734	0.846
3.04711	0.846
3.08688	0.84
3.12666	0.82
3.16643	0.816
3.2062	0.808
3.24598	0.772
3.28575	0.753
3.32552	0.638
3.3653	0.186
3.40507	0.104
3.44484	0.154
3.48462	0.181
3.52439	0.269
3.56416	0.713
3.60394	0.806
3.64371	0.85
3.68349	0.846
3.72326	0.861
3.76303	0.856
3.80281	0.866
3.84258	0.881
3.88235	0.888
3.92213	0.893
3.9619	0.901
4.00167	0.903
4.04145	0.903
4.08122	0.903
4.12099	0.906
4.16077	0.895
4.20054	0.896
4.24031	0.896
4.28009	0.91
4.31986	0.936
4.35963	0.968
4.39941	0.943
4.43918	0.918
4.47895	0.921
4.51873	0.935
4.5585	0.928
4.59827	0.928
4.63805	0.938
4.67782	0.94
4.7176	0.94
4.75737	0.935
4.79714	0.933
4.83692	0.93
4.87669	0.918
4.91646	0.921
4.95624	0.906
4.99601	0.928
5.03578	0.93
5.07556	0.925
5.11533	0.918
5.1551	0.906
5.19488	0.923
5.23465	0.913
5.27442	0.905
5.3142	0.871
5.35397	0.871
5.39374	0.861
5.43352	0.825
5.47329	0.768
5.51306	0.685
5.55284	0.597
5.59261	0.517
5.63238	0.178
5.67216	0.106
5.71193	0.276
5.75171	0.492
5.79148	0.594
5.83125	0.7
5.87103	0.763
5.9108	0.805
5.95057	0.815
5.99035	0.826
6.03012	0.826
6.06989	0.816
6.10967	0.821
6.14944	0.748
6.18921	0.597
6.22899	0.748
6.26876	0.792
6.30853	0.83
6.34831	0.841
6.38808	0.845
6.42785	0.84
6.46763	0.823
6.5074	0.808
6.54717	0.801
6.58695	0.785
6.62672	0.742
6.66649	0.602
6.70627	0.222
6.74604	0.226
6.78582	0.279
6.82559	0.336
6.86536	0.367
6.90514	0.397
6.94491	0.437
6.98468	0.519
7.02446	0.647
7.06423	0.703
7.104	0.723
7.14378	0.712
7.18355	0.602
7.22332	0.237
7.2631	0.173
7.30287	0.264
7.34264	0.554
7.38242	0.678
7.42219	0.722
7.46196	0.752
7.50174	0.765
7.54151	0.768
7.58128	0.765
7.62106	0.748
7.66083	0.737
7.7006	0.682
7.74038	0.64
7.78015	0.562
7.81993	0.312
7.8597	0.307
7.89947	0.492
7.93925	0.615
7.97902	0.597
8.01879	0.482
8.05857	0.366
8.09834	0.264
8.13811	0.108
8.17789	0.098
8.21766	0.106
8.25743	0.134
8.29721	0.136
8.33698	0.091
8.37675	0.088
8.41653	0.113
8.4563	0.121
8.49607	0.093
8.53585	0.128
8.57562	0.186
8.61539	0.166
8.65517	0.332
8.69494	0.472
8.73471	0.557
8.77449	0.612
8.81426	0.652
8.85404	0.677
8.89381	0.692
8.93358	0.712
8.97336	0.72
9.01313	0.738
9.0529	0.747
9.09268	0.747
9.13245	0.732
9.17222	0.72
9.212	0.708
9.25177	0.662
9.29154	0.545
9.33132	0.534
9.37109	0.592
9.41086	0.562
9.45064	0.5
9.49041	0.347
9.53018	0.251
9.56996	0.161
9.60973	0.148
9.6495	0.183
9.68928	0.266
9.72905	0.359
9.76882	0.386
9.8086	0.339
9.84837	0.271
9.88815	0.364
9.92792	0.502
9.96769	0.579
10.0075	0.607
10.0472	0.62
10.087	0.675
10.1268	0.678
10.1666	0.647
10.2063	0.718
10.2461	0.732
10.2859	0.743
10.3257	0.742
10.3654	0.75
10.4052	0.76
10.445	0.768
10.4847	0.768
10.5245	0.772
10.5643	0.777
10.6041	0.782
10.6438	0.785
10.6836	0.793
10.7234	0.793
10.7632	0.785
10.8029	0.775
10.8427	0.748
10.8825	0.685
10.9223	0.565
10.962	0.425
11.0018	0.306
11.0416	0.319
11.0813	0.361
11.1211	0.524
11.1609	0.648
11.2007	0.693
11.2404	0.727
11.2802	0.763
11.32	0.8
11.3598	0.81
11.3995	0.825
11.4393	0.833
11.4791	0.84
11.5189	0.845
11.5586	0.845
11.5984	0.84
11.6382	0.806
11.678	0.717
11.7177	0.717
11.7575	0.785
11.7973	0.816
11.837	0.831
11.8768	0.836
11.9166	0.838
11.9564	0.825
11.9961	0.818
12.0359	0.782
12.0757	0.735
12.1155	0.627
12.1552	0.432
12.195	0.346
12.2348	0.482
12.2746	0.505
12.3143	0.347
12.3541	0.43
12.3939	0.617
12.4336	0.75
12.4734	0.8
12.5132	0.83
12.553	0.845
12.5927	0.851
12.6325	0.861
12.6723	0.868
12.7121	0.871
12.7518	0.87
12.7916	0.873
12.8314	0.868
12.8712	0.863
12.9109	0.853
12.9507	0.836
12.9905	0.793
13.0302	0.657
13.07	0.567
13.1098	0.685
13.1496	0.783
13.1893	0.82
13.2291	0.841
13.2689	0.845
13.3087	0.853
13.3484	0.858
13.3882	0.858
13.428	0.853
13.4678	0.851
13.5075	0.851
13.5473	0.85
13.5871	0.848
13.6269	0.848
13.6666	0.848
13.7064	0.846
13.7462	0.843
13.7859	0.843
13.8257	0.843
13.8655	0.84
13.9053	0.838
13.945	0.841
13.9848	0.856
14.0246	0.856
14.0644	0.845
14.1041	0.82
14.1439	0.785
14.1837	0.747
14.2235	0.772
14.2632	0.797
14.303	0.816
14.3428	0.823
14.3825	0.813
14.4223	0.782
14.4621	0.73
14.5019	0.72
14.5416	0.745
14.5814	0.787
14.6212	0.816
14.661	0.828
14.7007	0.836
14.7405	0.831
14.7803	0.813
14.8201	0.801
14.8598	0.78
14.8996	0.773
14.9394	0.788
14.9791	0.81
15.0189	0.801
15.0587	0.77
15.0985	0.75
15.1382	0.748
15.178	0.782
15.2178	0.815
15.2576	0.823
15.2973	0.831
15.3371	0.835
15.3769	0.821
15.4167	0.835
15.4564	0.83
15.4962	0.826
15.536	0.823
15.5757	0.82
15.6155	0.823
15.6553	0.816
15.6951	0.801
15.7348	0.8
15.7746	0.793
15.8144	0.788
15.8542	0.782
15.8939	0.778
15.9337	0.775
15.9735	0.772
