Infrared Spectrum: 2,4-Dichlorophenethylamine
Formula: C 8 H 9 Cl 2 N
CAS: 52516-13-9
State: gas
Origin: EPA-IR VAPOR PHASE LIBRARY
1/CM	ABSORBANCE
549.8	0.006316
559.445	0.010546
569.09	0.012266
578.734	0.008316
588.379	0.005416
598.024	0.005596
607.669	0.005666
617.313	0.005976
626.958	0.007176
636.603	0.010976
646.248	0.013676
655.893	0.010386
665.537	0.009346
675.182	0.010096
684.827	0.016366
694.472	0.021706
704.116	0.019536
713.761	0.019086
723.406	0.022666
733.051	0.030306
742.695	0.042066
752.34	0.046286
761.985	0.045666
771.63	0.039526
781.275	0.032946
790.919	0.030856
800.564	0.039256
810.209	0.059916
819.854	0.065466
829.498	0.043346
839.143	0.027676
848.788	0.030026
858.433	0.028396
868.078	0.035226
877.722	0.020506
887.367	0.009956
897.012	0.007616
906.657	0.006656
916.301	0.005526
925.946	0.004706
935.591	0.004116
945.236	0.004166
954.88	0.004686
964.525	0.005366
974.17	0.006366
983.815	0.007136
993.46	0.007436
1003.1	0.007486
1012.75	0.007046
1022.39	0.007336
1032.04	0.010166
1041.68	0.023006
1051.33	0.037896
1060.97	0.037486
1070.62	0.032406
1080.26	0.024036
1089.91	0.023506
1099.55	0.039046
1109.2	0.036816
1118.84	0.019646
1128.49	0.013736
1138.13	0.009836
1147.78	0.007206
1157.42	0.004826
1167.07	0.004276
1176.71	0.004266
1186.36	0.005026
1196	0.004716
1205.64	0.003736
1215.29	0.003526
1224.93	0.003806
1234.58	0.003686
1244.22	0.005216
1253.87	0.006446
1263.51	0.005466
1273.16	0.004316
1282.8	0.003936
1292.45	0.003886
1302.09	0.003906
1311.74	0.003756
1321.38	0.004026
1331.03	0.004866
1340.67	0.006286
1350.32	0.009096
1359.96	0.012876
1369.61	0.019066
1379.25	0.024816
1388.9	0.021276
1398.54	0.011096
1408.18	0.006766
1417.83	0.008516
1427.47	0.014626
1437.12	0.017456
1446.76	0.018726
1456.41	0.025846
1466.05	0.069576
1475.7	0.096726
1485.34	0.037646
1494.99	0.014786
1504.63	0.011836
1514.28	0.009206
1523.92	0.006366
1533.57	0.006206
1543.21	0.009786
1552.86	0.017506
1562.5	0.020646
1572.15	0.019316
1581.79	0.029276
1591.44	0.036196
1601.08	0.021886
1610.73	0.013246
1620.37	0.015186
1630.01	0.013666
1639.66	0.008586
1649.3	0.005256
1658.95	0.003476
1668.59	0.002796
1678.24	0.002376
1687.88	0.001896
1697.53	0.001866
1707.17	0.001826
1716.82	0.002396
1726.46	0.003946
1736.11	0.004306
1745.75	0.003246
1755.4	0.002486
1765.04	0.001666
1774.69	0.001446
1784.33	0.001396
1793.98	0.001436
1803.62	0.001576
1813.27	0.001596
1822.91	0.001446
1832.55	0.001286
1842.2	0.0011165
1851.84	0.0010453
1861.49	0.001206
1871.13	0.001776
1880.78	0.002456
1890.42	0.002376
1900.07	0.001376
1909.71	0.0008212
1919.36	0.0006836
1929	0.0005025
1938.65	0.0005015
1948.29	0.0003959
1957.94	0.0003896
1967.58	0.000358
1977.23	0.000405
1986.87	0.0004421
1996.52	0.0003834
2006.16	0.0002774
2015.81	0.0003065
2025.45	0.0003509
2035.1	0.000375
2044.74	0.0003379
2054.38	0.0003425
2064.03	0.0003796
2073.67	0.0003732
2083.32	0.0003857
2092.96	0.0003507
2102.61	0.0003354
2112.25	0.0003321
2121.9	0.0003131
2131.54	0.0003473
2141.19	0.0002749
2150.83	0.00023344
2160.48	0.0003367
2170.12	0.0003838
2179.77	0.00023496
2189.41	0.0003306
2199.06	0.00025148
2208.7	0.00026261
2218.35	0.0003559
2227.99	0.00019898
2237.64	0.0002823
2247.28	0.00020985
2256.92	0.00024244
2266.57	0.00024803
2276.21	0.0003976
2285.86	0.00023374
2295.5	0.0004536
2305.15	0.000439
2314.79	0.0003848
2324.44	0.0003652
2334.08	0.0002949
2343.73	0.0003495
2353.37	0.0003174
2363.02	0.0003901
2372.66	0.00023065
2382.31	0.0003244
2391.95	0.0003265
2401.6	0.0002684
2411.24	0.0003807
2420.89	0.0004286
2430.53	0.0003392
2440.18	0.0003584
2449.82	0.0003322
2459.47	0.0002789
2469.11	0.00023795
2478.75	0.0003474
2488.4	0.0004001
2498.04	0.0003939
2507.69	0.000451
2517.33	0.0002892
2526.98	0.000466
2536.62	0.0004638
2546.27	0.0004739
2555.91	0.0003854
2565.56	0.0004292
2575.2	0.0005348
2584.85	0.0006086
2594.49	0.0006437
2604.14	0.0006683
2613.78	0.0007264
2623.43	0.0008114
2633.07	0.0009828
2642.72	0.0011339
2652.36	0.0011405
2662.01	0.0011227
2671.65	0.001366
2681.29	0.001496
2690.94	0.001656
2700.58	0.001636
2710.23	0.001656
2719.87	0.001886
2729.52	0.001946
2739.16	0.002296
2748.81	0.002306
2758.45	0.002156
2768.1	0.002066
2777.74	0.002336
2787.39	0.002366
2797.03	0.002496
2806.68	0.002996
2816.32	0.003696
2825.97	0.004686
2835.61	0.006656
2845.26	0.010216
2854.9	0.016106
2864.55	0.022166
2874.19	0.024886
2883.84	0.021556
2893.48	0.015996
2903.12	0.014486
2912.77	0.018666
2922.41	0.026136
2932.06	0.032986
2941.7	0.035986
2951.35	0.031856
2960.99	0.026136
2970.64	0.016386
2980.28	0.008466
2989.93	0.005266
2999.57	0.003956
3009.22	0.003886
3018.86	0.004506
3028.51	0.004446
3038.15	0.003706
3047.8	0.003246
3057.44	0.004706
3067.09	0.005406
3076.73	0.004786
3086.38	0.003216
3096.02	0.001466
3105.67	0.0010385
3115.31	0.0006678
3124.95	0.0005396
3134.6	0.000415
3144.24	0.0004238
3153.89	0.0004696
3163.53	0.0004242
3173.18	0.000444
3182.82	0.000556
3192.47	0.0004023
3202.11	0.0005324
3211.76	0.0003008
3221.4	0.0003019
3231.05	0.0002763
3240.69	0.0002935
3250.34	0.0004005
3259.98	0.00020527
3269.63	0.0002842
3279.27	0.0003811
3288.92	0.000278
3298.56	0.0003465
3308.21	0.0003781
3317.85	0.0002579
3327.49	0.0005045
3337.14	0.0007146
3346.78	0.0009047
3356.43	0.0007352
3366.07	0.0006368
3375.72	0.000359
3385.36	0.0003255
3395.01	0.0004684
3404.65	0.0007406
3414.3	0.0010853
3423.94	0.0010276
3433.59	0.0004467
3443.23	0.00026203
3452.88	0.0004831
3462.52	0.00019839
3472.17	0.00025795
3481.81	0.0001463
3491.46	0.0001262
3501.1	0.00019464
3510.75	0.00021927
3520.39	0.00019259
3530.04	0.00020496
3539.68	0.0001832
3549.32	9.42e-05
3558.97	0.0002767
3568.61	0.00024984
3578.26	0.00019237
3587.9	0.0003405
3597.55	0.0001245
3607.19	0.0003708
3616.84	0.0003715
3626.48	0.00026438
3636.13	0.00019314
3645.77	0.0003802
3655.42	0.0003892
3665.06	0.0003443
3674.71	0.0003905
3684.35	0.0003771
3694	0.0001367
3703.64	0.0002662
3713.29	0.0004179
3722.93	0.0002893
3732.58	0.0003431
3742.22	0.0003409
3751.86	0.0004243
3761.51	0.0003411
3771.15	0.0003067
3780.8	0.0004746
3790.44	0.0003097
3800.09	0.000385
3809.73	0.0003429
3819.38	0.0002721
3829.02	0.0002924
3838.67	0.00023793
3848.31	0.0001464
3857.96	0.0001433
3867.6	0.0003041
3877.25	0
3886.89	0.0003607
3896.54	0.0003283
3906.18	0.00025944
3915.83	0.0004363
3925.47	0.0005316
3935.12	0.0004529
3944.76	0.00018887
3954.41	0.00021086
3964.05	0.0003612
3973.69	0.0003859
3983.34	0.0003282
3992.98	0.0002054
