Infrared Spectrum: 2-Iodo-5-methylbenzoic acid
Formula: C 8 H 7 I O 2
CAS: 52548-14-8
State: gas
Origin: EPA-IR VAPOR PHASE LIBRARY
1/CM	ABSORBANCE
549.8	0.009159
559.445	0.010289
569.09	0.012899
578.734	0.018969
588.379	0.025509
598.024	0.018829
607.669	0.008299
617.313	0.005099
626.958	0.007539
636.603	0.020329
646.248	0.017679
655.893	0.004879
665.537	0.002419
675.182	0.001969
684.827	0.002219
694.472	0.002879
704.116	0.003789
713.761	0.007979
723.406	0.007679
733.051	0.002959
742.695	0.002719
752.34	0.003239
761.985	0.004759
771.63	0.008439
781.275	0.009799
790.919	0.006959
800.564	0.008159
810.209	0.012549
819.854	0.009109
829.498	0.002949
839.143	0.001469
848.788	0.001359
858.433	0.001369
868.078	0.001489
877.722	0.002359
887.367	0.004539
897.012	0.004029
906.657	0.001989
916.301	0.001519
925.946	0.001249
935.591	0.001279
945.236	0.001469
954.88	0.001659
964.525	0.001709
974.17	0.002149
983.815	0.002359
993.46	0.003709
1003.1	0.009289
1012.75	0.027579
1022.39	0.021379
1032.04	0.005739
1041.68	0.004989
1051.33	0.006609
1060.97	0.010369
1070.62	0.019559
1080.26	0.033149
1089.91	0.031669
1099.55	0.027459
1109.2	0.028159
1118.84	0.020069
1128.49	0.018589
1138.13	0.021099
1147.78	0.022769
1157.42	0.036909
1167.07	0.053619
1176.71	0.039249
1186.36	0.017859
1196	0.010469
1205.64	0.008149
1215.29	0.009349
1224.93	0.009699
1234.58	0.007179
1244.22	0.006909
1253.87	0.007929
1263.51	0.009209
1273.16	0.009179
1282.8	0.009639
1292.45	0.011589
1302.09	0.015479
1311.74	0.018229
1321.38	0.018779
1331.03	0.020569
1340.67	0.016339
1350.32	0.009829
1359.96	0.007859
1369.61	0.007759
1379.25	0.007959
1388.9	0.010109
1398.54	0.012069
1408.18	0.010009
1417.83	0.006799
1427.47	0.005009
1437.12	0.004379
1446.76	0.005759
1456.41	0.011779
1466.05	0.015679
1475.7	0.010349
1485.34	0.005209
1494.99	0.002999
1504.63	0.002259
1514.28	0.002069
1523.92	0.001909
1533.57	0.001949
1543.21	0.002209
1552.86	0.003169
1562.5	0.004509
1572.15	0.003909
1581.79	0.002679
1591.44	0.002659
1601.08	0.002339
1610.73	0.002029
1620.37	0.002109
1630.01	0.002119
1639.66	0.001489
1649.3	0.001299
1658.95	0.001339
1668.59	0.001559
1678.24	0.001789
1687.88	0.002009
1697.53	0.002729
1707.17	0.004369
1716.82	0.008039
1726.46	0.015219
1736.11	0.024059
1745.75	0.037679
1755.4	0.064409
1765.04	0.095639
1774.69	0.061159
1784.33	0.034349
1793.98	0.024049
1803.62	0.011389
1813.27	0.005529
1822.91	0.002989
1832.55	0.002049
1842.2	0.001699
1851.84	0.001549
1861.49	0.001259
1871.13	0.001169
1880.78	0.001259
1890.42	0.001389
1900.07	0.001549
1909.71	0.001569
1919.36	0.0010758
1929	0.0007117
1938.65	0.0007207
1948.29	0.0006855
1957.94	0.0006766
1967.58	0.0006848
1977.23	0.000703
1986.87	0.0006519
1996.52	0.0006666
2006.16	0.0005623
2015.81	0.0005701
2025.45	0.0005709
2035.1	0.000637
2044.74	0.0005932
2054.38	0.0006131
2064.03	0.000533
2073.67	0.0004766
2083.32	0.0004513
2092.96	0.0004428
2102.61	0.0005185
2112.25	0.0005853
2121.9	0.0005064
2131.54	0.0004741
2141.19	0.0005592
2150.83	0.0006406
2160.48	0.0006337
2170.12	0.0005947
2179.77	0.0005116
2189.41	0.0005084
2199.06	0.0004403
2208.7	0.000523
2218.35	0.0005119
2227.99	0.0005017
2237.64	0.0005551
2247.28	0.0005001
2256.92	0.0004925
2266.57	0.0005158
2276.21	0.0005718
2285.86	0.0005628
2295.5	0.0006271
2305.15	0.0004868
2314.79	0.0004739
2324.44	0.0004677
2334.08	0.0005309
2343.73	0.0004261
2353.37	0.0004477
2363.02	0.0005109
2372.66	0.0005646
2382.31	0.0005687
2391.95	0.0005765
2401.6	0.0005457
2411.24	0.0006886
2420.89	0.0006754
2430.53	0.0006703
2440.18	0.0006394
2449.82	0.0006477
2459.47	0.0006431
2469.11	0.0005494
2478.75	0.0006225
2488.4	0.0006252
2498.04	0.0003838
2507.69	0.0004827
2517.33	0.0003896
2526.98	0.0004839
2536.62	0.0005187
2546.27	0.0004518
2555.91	0.0004238
2565.56	0.0004242
2575.2	0.0004519
2584.85	0.0004173
2594.49	0.0005631
2604.14	0.0006151
2613.78	0.0005978
2623.43	0.0004156
2633.07	0.0004081
2642.72	0.0004365
2652.36	0.000364
2662.01	0.00024719
2671.65	0.0003229
2681.29	0.0003189
2690.94	0.0003087
2700.58	0.0003636
2710.23	0.0003383
2719.87	0.0005067
2729.52	0.0004874
2739.16	0.0006125
2748.81	0.0007527
2758.45	0.0006208
2768.1	0.0004142
2777.74	0.0004996
2787.39	0.000481
2797.03	0.0004792
2806.68	0.0005243
2816.32	0.0004803
2825.97	0.0008222
2835.61	0.0009393
2845.26	0.001219
2854.9	0.001769
2864.55	0.002829
2874.19	0.003669
2883.84	0.003759
2893.48	0.003619
2903.12	0.003419
2912.77	0.003669
2922.41	0.005389
2932.06	0.008909
2941.7	0.008169
2951.35	0.004619
2960.99	0.003209
2970.64	0.002449
2980.28	0.002169
2989.93	0.002549
2999.57	0.003309
3009.22	0.003739
3018.86	0.003989
3028.51	0.004889
3038.15	0.005719
3047.8	0.005609
3057.44	0.004759
3067.09	0.003249
3076.73	0.002219
3086.38	0.002059
3096.02	0.001379
3105.67	0.0009054
3115.31	0.0005904
3124.95	0.0005671
3134.6	0.0004712
3144.24	0.0006301
3153.89	0.0005736
3163.53	0.0006797
3173.18	0.000602
3182.82	0.0003024
3192.47	0.00021852
3202.11	0.00019135
3211.76	0.0004077
3221.4	0.000269
3231.05	0.0003773
3240.69	0.000311
3250.34	0.0002505
3259.98	0.00022664
3269.63	0.000178418
3279.27	0.0004494
3288.92	0.0003402
3298.56	0.00021657
3308.21	0.00026314
3317.85	0.0002996
3327.49	0.0003016
3337.14	0.0002796
3346.78	0.0003533
3356.43	0.0002807
3366.07	0.0003818
3375.72	0.0003621
3385.36	0.00020752
3395.01	0.0003915
3404.65	0.0003591
3414.3	0.0003978
3423.94	0.0006778
3433.59	0.000568
3443.23	0.0006162
3452.88	0.0005043
3462.52	0.0008531
3472.17	0.0008031
3481.81	0.0011392
3491.46	0.001179
3501.1	0.001419
3510.75	0.001579
3520.39	0.001479
3530.04	0.001759
3539.68	0.002149
3549.32	0.003719
3558.97	0.016229
3568.61	0.036009
3578.26	0.028839
3587.9	0.011309
3597.55	0.002839
3607.19	0.001689
3616.84	0.001259
3626.48	0.0008221
3636.13	0.0004398
3645.77	0.0006045
3655.42	0.0004632
3665.06	0.0003726
3674.71	0.000277
3684.35	0.0002062
3694	0.0004914
3703.64	0.0004735
3713.29	0.0003096
3722.93	0.0004574
3732.58	0.0003718
3742.22	6.93e-05
3751.86	0.0004522
3761.51	0.0003762
3771.15	0.0002911
3780.8	0.0003718
3790.44	0.0003156
3800.09	0.00025821
3809.73	0.000354
3819.38	0
3829.02	0.0002915
3838.67	0.0001315
3848.31	0.00016835
3857.96	0.0004191
3867.6	0.0003252
3877.25	0.0004022
3886.89	5.8e-05
3896.54	0.0002972
3906.18	0.00019573
3915.83	0.0003617
3925.47	0.0002941
3935.12	0.000454
3944.76	0.0001514
3954.41	0.0003219
3964.05	0.00022705
3973.69	0.00022817
3983.34	0.0003282
3992.98	0.0003516
