Infrared Spectrum: 3-CARBOXALDEHYDE, 5-METHYLINDOLE-
Formula: C10 H9 N O
CAS: 52562-50-2
State: SOLUTION (10% CCl4 FOR 3800-1340, 10% CS2 FOR 1340-450 CM^-^1)
Melting point: 148 C
Class: COBLENTZ III
Instrument: DOW KBr FOREPRISM-GRATING
Instrument parameters: BLAZED AT 3.5, 12.0, 20.0 MICRON AND CHANGED AT 5.0, 7.5, 14.9 MICRON
Sampling: TRANSMISSION
Path length: 0.011 CM, 0.011 CM
Resolution: 2
Origin: DOW CHEMICAL COMPANY
1/CM	TRANSMITTANCE
451	0.8784
460	0.8894
469	0.8982
478	0.9005
487	0.8975
496	0.9123
505	0.8878
514	0.9137
523	0.9349
532	0.9364
541	0.9308
550	0.8703
559	0.6947
568	0.941
577	0.9015
586	0.9293
595	0.9127
604	0.5586
613	0.3871
622	0.9106
631	0.9346
640	0.9048
649	0.8795
658	0.8971
667	0.8813
676	0.1713
685	0.8225
694	0.827
703	0.4789
712	0.1199
721	0.6481
730	0.7007
739	0.1028
748	0.0526
757	0.451
766	0.1935
775	0.8474
784	0.9044
793	0.9267
802	0.9271
811	0.9275
820	0.9338
829	0.9208
838	0.8278
847	0.7271
856	0.6857
865	0.7385
874	0.5757
883	0.8692
892	0.8735
901	0.8903
910	0.8657
919	0.6756
928	0.019
937	0.5633
946	0.8546
955	0.8801
964	0.8553
973	0.855
982	0.8918
991	0.8724
1000	0.8341
1009	0.651
1018	0.6135
1027	0.398
1036	0.795
1045	0.8601
1054	0.8777
1063	0.8613
1072	0.8064
1081	0.3392
1090	0.7568
1099	0.8615
1108	0.8442
1117	0.7675
1126	0.8537
1135	0.8416
1144	0.3038
1153	0.8282
1162	0.7311
1171	0.735
1180	0.7189
1189	0.6415
1198	0.5622
1207	0.0147
1216	0.4365
1225	0.581
1234	0.0721
1243	0.4494
1252	0.7876
1261	0.7894
1270	0.6717
1279	0.701
1288	0.6451
1297	0.2438
1306	0.3966
1315	0.0471
1324	0.0096
1333	0.0144
1342	0.2216
1351	0.4235
1360	0.213
1369	0.0057
1378	0.0766
1387	0.0427
1396	0.2311
1405	0.5567
1414	0.583
1423	0.5726
1432	0.2504
1441	0.0688
1450	0.0001
1459	0.321
1468	0.5132
1477	0.5603
1486	0.669
1495	0.7051
1504	0.6738
1513	0.6208
1522	0.5308
1531	0.1979
1540	0.0993
1549	0.3882
1558	0.4256
1567	0.415
1576	0.4191
1585	0.3908
1594	0.58
1603	0.5496
1612	0.6926
1621	0.7308
1630	0.7451
1639	0.7561
1648	0.7455
1657	0.761
1666	0.681
1675	0.6005
1684	0.4524
1693	0.1567
1702	0.0358
1711	0
1720	0.0091
1729	0.1576
1738	0.612
1747	0.7468
1756	0.8202
1765	0.8374
1774	0.865
1783	0.8367
1792	0.758
1801	0.8241
1810	0.8711
1819	0.886
1828	0.8735
1837	0.8925
1846	0.9135
1855	0.9086
1864	0.9
1873	0.8824
1882	0.8565
1891	0.8849
1900	0.855
1909	0.8661
1918	0.9127
1927	0.9092
1936	0.8751
1945	0.9118
1954	0.941
1963	0.942
1972	0.9377
1981	0.9382
1990	0.917
1999	0.9048
2008	0.9121
2017	0.9492
2026	0.9627
2035	0.9612
2044	0.9516
2053	0.9413
2062	0.9383
2071	0.9528
2080	0.9586
2089	0.9495
2098	0.9516
2107	0.9651
2116	0.9635
2125	0.9642
2134	0.9635
2143	0.9649
2152	0.9638
2161	0.9574
2170	0.9612
2179	0.969
2188	0.9651
2197	0.9586
2206	0.9545
2215	0.9531
2224	0.9539
2233	0.9548
2242	0.9554
2251	0.954
2260	0.9506
2269	0.9444
2278	0.9361
2287	0.9238
2296	0.9204
2305	0.9248
2314	0.9327
2323	0.9417
2332	0.949
2341	0.9452
2350	0.9468
2359	0.9515
2368	0.9547
2377	0.9543
2386	0.9495
2395	0.948
2404	0.9496
2413	0.9475
2422	0.9616
2431	0.9667
2440	0.9656
2449	0.9632
2458	0.9557
2467	0.9558
2476	0.9525
2485	0.9512
2494	0.9525
2503	0.9547
2512	0.9546
2521	0.9434
2530	0.9287
2539	0.9434
2548	0.941
2557	0.9331
2566	0.9406
2575	0.9508
2584	0.9503
2593	0.9484
2602	0.9415
2611	0.9296
2620	0.9288
2629	0.9375
2638	0.936
2647	0.9256
2656	0.9227
2665	0.9486
2674	0.9438
2683	0.9385
2692	0.9342
2701	0.9273
2710	0.9304
2719	0.9412
2728	0.9371
2737	0.9332
2746	0.9331
2755	0.9347
2764	0.9368
2773	0.9415
2782	0.9453
2791	0.9457
2800	0.9438
2809	0.9393
2818	0.9334
2827	0.9289
2836	0.9258
2845	0.925
2854	0.9278
2863	0.9306
2872	0.9321
2881	0.9286
2890	0.9225
2899	0.9142
2908	0.9017
2917	0.8866
2926	0.8684
2935	0.8646
2944	0.905
2953	0.9037
2962	0.8943
2971	0.8744
2980	0.8728
2989	0.8868
2998	0.8693
3007	0.8256
3016	0.7832
3025	0.7512
3034	0.6865
3043	0.7371
3052	0.5893
3061	0.6751
3070	0.6299
3079	0.7664
3088	0.8723
3097	0.863
3106	0.8223
3115	0.8125
3124	0.8671
3133	0.8795
3142	0.8578
3151	0.8521
3160	0.8846
3169	0.9035
3178	0.9158
3187	0.9208
3196	0.9218
3205	0.9221
3214	0.9281
3223	0.9323
3232	0.9336
3241	0.933
3250	0.9321
3259	0.9305
3268	0.9287
3277	0.9262
3286	0.922
3295	0.9177
3304	0.9127
3313	0.9066
3322	0.9006
3331	0.8943
3340	0.887
3349	0.8797
3358	0.8715
3367	0.8601
3376	0.8487
3385	0.8371
3394	0.8278
3403	0.8275
3412	0.8392
3421	0.8562
3430	0.8758
3439	0.8905
3448	0.9005
3457	0.9033
3466	0.8921
3475	0.8624
3484	0.8356
3493	0.9355
3502	0.9504
3511	0.9545
3520	0.9563
3529	0.9568
3538	0.9575
3547	0.9586
3556	0.9589
3565	0.9528
3574	0.9538
3583	0.9663
3592	0.9602
3601	0.9677
3610	0.9708
3619	0.9723
3628	0.9741
3637	0.9753
3646	0.9745
3655	0.9728
3664	0.9706
3673	0.9675
3682	0.9651
3691	0.9727
3700	0.9787
3709	0.9808
3718	0.9818
3727	0.9823
3736	0.9825
3745	0.9823
3754	0.9817
3763	0.981
3772	0.9806
3781	0.9806
3790	0.9808
3799	0.981
