Infrared Spectrum: Silsesquioxane, phenyl-, cubical octamer
Formula: C48 H40 O12 Si8
CAS: 5256-79-1
State: SOLID (SPLIT MULL)
Class: COBLENTZ III
Instrument: PERKIN-ELMER 521 (GRATING)
Instrument parameters: FILTERS AT 3150, 2500, 2000, 1150, 700, 410. GRATING CHANGES: 2000, 630
Resolution: 2
Origin: DOW CORNING CORP.
1/CM	TRANSMITTANCE
233	0.7321
242	0.7421
251	0.7524
260	0.7615
269	0.7678
278	0.7715
287	0.7736
296	0.7836
305	0.7871
314	0.7865
323	0.7889
332	0.7917
341	0.796
350	0.7994
359	0.8006
368	0.8004
377	0.7987
386	0.7955
395	0.7886
404	0.7697
413	0.7317
422	0.5671
431	0.5402
440	0.7394
449	0.7455
458	0.7256
467	0.715
476	0.6918
485	0.6171
494	0.4371
503	0.2402
512	0.3449
521	0.6549
530	0.7329
539	0.7552
548	0.7716
557	0.7845
566	0.792
575	0.7967
584	0.7962
593	0.7763
602	0.6736
611	0.7653
620	0.7821
629	0.7869
638	0.7568
647	0.7625
656	0.7644
665	0.7674
674	0.7723
683	0.7692
692	0.4826
701	0.6563
710	0.7768
719	0.7437
728	0.6925
737	0.5962
746	0.54
755	0.8319
764	0.8398
773	0.8428
782	0.8448
791	0.847
800	0.849
809	0.8504
818	0.8522
827	0.8523
836	0.8515
845	0.8505
854	0.8507
863	0.8514
872	0.8522
881	0.8528
890	0.8528
899	0.8528
908	0.841
917	0.8406
926	0.842
935	0.8426
944	0.8377
953	0.8321
962	0.8259
971	0.8193
980	0.8117
989	0.7893
998	0.7982
1007	0.784
1016	0.7611
1025	0.6601
1034	0.7653
1043	0.7515
1052	0.725
1061	0.6346
1070	0.609
1079	0.5246
1088	0.3227
1097	0.1944
1106	0.1195
1115	0.1206
1124	0.1223
1133	0.0847
1142	0.1671
1151	0.3178
1160	0.4092
1169	0.6212
1178	0.6573
1187	0.6599
1196	0.7134
1205	0.7279
1214	0.7287
1223	0.7321
1232	0.7363
1241	0.7416
1250	0.7475
1259	0.7539
1268	0.7671
1277	0.7707
1286	0.7776
1295	0.7933
1304	0.6373
1313	0.6806
1322	0.7078
1331	0.7389
1340	0.7738
1349	0.8089
1358	0.813
1367	0.7935
1376	0.7335
1385	0.8202
1394	0.8273
1403	0.8122
1412	0.7688
1421	0.5084
1430	0.349
1439	0.8459
1448	0.8553
1457	0.8453
1466	0.8374
1475	0.8361
1484	0.614
1493	0.9312
1502	0.9335
1511	0.9223
1520	0.9165
1529	0.9004
1538	0.8784
1547	0.8406
1556	0.8389
1565	0.6825
1574	0.767
1583	0.4713
1592	0.1322
1601	0.7884
1610	0.7661
1619	0.7804
1628	0.8486
1637	0.8449
1646	0.8154
1655	0.7905
1664	0.769
1673	0.7985
1682	0.831
1691	0.8735
1700	0.9094
1709	0.8949
1718	0.8869
1727	0.8771
1736	0.8355
1745	0.784
1754	0.7791
1763	0.7612
1772	0.721
1781	0.795
1790	0.8144
1799	0.8394
1808	0.8414
1817	0.7293
1826	0.7361
1835	0.806
1844	0.8126
1853	0.8376
1862	0.8268
1871	0.8024
1880	0.7596
1889	0.6445
1898	0.7399
1907	0.7491
1916	0.7882
1925	0.8927
1934	0.8986
1943	0.8915
1952	0.8577
1961	0.7562
1970	0.7932
1979	0.835
1988	0.8205
1997	0.9098
2006	0.9298
2015	0.9285
2024	0.9241
2033	0.9195
2042	0.9147
2051	0.9083
2060	0.9015
2069	0.8947
2078	0.8872
2087	0.8813
2096	0.8761
2105	0.8716
2114	0.8674
2123	0.8642
2132	0.8619
2141	0.8595
2150	0.851
2159	0.8418
2168	0.8367
2177	0.8322
2186	0.829
2195	0.8237
2204	0.8166
2213	0.8111
2222	0.8069
2231	0.8024
2240	0.7901
2249	0.7745
2258	0.768
2267	0.7665
2276	0.7678
2285	0.7673
2294	0.7621
2303	0.7558
2312	0.751
2321	0.749
2330	0.7683
2339	0.7815
2348	0.7822
2357	0.7814
2366	0.7806
2375	0.7799
2384	0.7798
2393	0.7793
2402	0.7786
2411	0.7779
2420	0.778
2429	0.7781
2438	0.7783
2447	0.7773
2456	0.7754
2465	0.7713
2474	0.7671
2483	0.7636
2492	0.7609
2501	0.7588
2510	0.7572
2519	0.7556
2528	0.7539
2537	0.7529
2546	0.7526
2555	0.7521
2564	0.7501
2573	0.7425
2582	0.7324
2591	0.7308
2600	0.7281
2609	0.7197
2618	0.714
2627	0.7227
2636	0.7298
2645	0.7282
2654	0.7256
2663	0.7206
2672	0.7105
2681	0.7021
2690	0.6954
2699	0.6905
2708	0.6866
2717	0.6836
2726	0.6835
2735	0.6896
2744	0.6978
2753	0.6963
2762	0.6922
2771	0.6877
2780	0.6832
2789	0.6782
2798	0.6716
2807	0.6624
2816	0.6532
2825	0.6464
2834	0.6401
2843	0.634
2852	0.6313
2861	0.6344
2870	0.6361
2879	0.6286
2888	0.6161
2897	0.6034
2906	0.5846
2915	0.5684
2924	0.568
2933	0.5742
2942	0.5757
2951	0.5731
2960	0.559
2969	0.5508
2978	0.5485
2987	0.5288
2996	0.5232
3005	0.4757
3014	0.3186
3023	0.3003
3032	0.1921
3041	0.3571
3050	0.392
3059	0.2988
3068	0.3795
3077	0.2662
3086	0.1914
3095	0.5059
3104	0.545
3113	0.5924
3122	0.5933
3131	0.593
3140	0.592
3149	0.6023
3158	0.6038
3167	0.6031
3176	0.6014
3185	0.5995
3194	0.5978
3203	0.596
3212	0.5939
3221	0.5917
3230	0.5893
3239	0.5868
3248	0.5838
3257	0.5805
3266	0.5782
3275	0.5779
3284	0.5776
3293	0.5775
3302	0.5746
3311	0.5712
3320	0.5685
3329	0.5662
3338	0.5648
3347	0.5632
3356	0.5613
3365	0.5589
3374	0.5566
3383	0.5541
3392	0.5511
3401	0.548
3410	0.5453
3419	0.5429
3428	0.5406
3437	0.5383
3446	0.536
3455	0.5343
3464	0.5325
3473	0.5306
3482	0.5286
3491	0.5268
3500	0.5251
3509	0.5235
3518	0.522
3527	0.5206
3536	0.5198
3545	0.5189
3554	0.5182
3563	0.5184
3572	0.5185
3581	0.5111
3590	0.4987
3599	0.4964
3608	0.4943
3617	0.4924
3626	0.4908
3635	0.4892
3644	0.4877
3653	0.4856
3662	0.4833
3671	0.4809
3680	0.4794
3689	0.4785
3698	0.4776
3707	0.4768
3716	0.4764
3725	0.476
3734	0.4745
3743	0.4727
3752	0.4708
3761	0.4686
3770	0.4665
3779	0.464
3788	0.4615
3797	0.46
3806	0.4588
3815	0.4582
3824	0.4577
