Infrared Spectrum: 7-OXY-6, 8-DIOXABICYCLO-(3,2,1) - OCTANE
Formula: C6 H8 O3
CAS: 5257-20-5
State: LIQUID
Class: COBLENTZ
Instrument: Not specified, most likely a grating spectrometer.
Sampling: TRANSMISSION
Path length: SMEAR
Resolution: 4
Origin: STANDARD OIL OF OHIO
1/CM	TRANSMITTANCE
229.752	0.918
239.219	0.913
248.685	0.903
258.152	0.913
267.618	0.925
277.085	0.918
286.552	0.911
296.018	0.904
305.485	0.903
314.951	0.901
324.418	0.887
333.885	0.869
343.351	0.846
352.818	0.775
362.285	0.5726
371.751	0.811
381.218	0.829
390.684	0.828
400.151	0.816
409.618	0.794
419.084	0.719
428.551	0.5219
438.017	0.734
447.484	0.76
456.951	0.6222
466.417	0.6698
475.884	0.778
485.35	0.7321
494.817	0.5149
504.284	0.751
513.75	0.78
523.217	0.795
532.683	0.799
542.15	0.802
551.617	0.797
561.083	0.818
570.55	0.819
580.016	0.812
589.483	0.784
598.95	0.2941
608.416	0.6421
617.883	0.77
627.35	0.768
636.816	0.753
646.283	0.6801
655.749	0.431
665.216	0.77
674.683	0.794
684.149	0.79
693.616	0.768
703.082	0.697
712.549	0.321
722.016	0.687
731.482	0.768
740.949	0.775
750.415	0.75
759.882	0.5909
769.349	0.6295
778.815	0.78
788.282	0.773
797.748	0.753
807.215	0.712
816.682	0.693
826.148	0.3411
835.615	0.517
845.081	0.442
854.548	0.209
864.015	0.2769
873.481	0.149
882.948	0.198
892.415	0.2529
901.881	0.0781
911.348	0.161
920.814	0.423
930.281	0.474
939.748	0.542
949.214	0.518
958.681	0.505
968.147	0.482
977.614	0.331
987.081	0.3822
996.547	0.503
1006.01	0.363
1015.48	0.1539
1024.95	0.1469
1034.41	0.217
1043.88	0.391
1053.35	0.1661
1062.81	0.2479
1072.28	0.335
1081.75	0.132
1091.21	0.287
1100.68	0.358
1110.15	0.2939
1119.61	0.096
1129.08	0.253
1138.55	0.331
1148.01	0.289
1157.48	0.17
1166.95	0.1541
1176.41	0.263
1185.88	0.1101
1195.35	0.09
1204.81	0.2871
1214.28	0.414
1223.75	0.43
1233.21	0.503
1242.68	0.522
1252.15	0.515
1261.61	0.306
1271.08	0.409
1280.55	0.297
1290.01	0.409
1299.48	0.3719
1308.95	0.197
1318.41	0.306
1327.88	0.333
1337.35	0.2781
1346.81	0.212
1356.28	0.3691
1365.74	0.493
1375.21	0.528
1384.68	0.591
1394.14	0.59
1403.61	0.571
1413.08	0.447
1422.54	0.384
1432.01	0.4719
1441.48	0.527
1450.94	0.426
1460.41	0.6612
1469.88	0.787
1479.34	0.829
1488.81	0.829
1498.28	0.86
1507.74	0.867
1517.21	0.852
1526.68	0.841
1536.14	0.84
1545.61	0.848
1555.08	0.855
1564.54	0.84
1574.01	0.835
1583.48	0.835
1592.94	0.824
1602.41	0.811
1611.88	0.801
1621.34	0.789
1630.81	0.775
1640.28	0.782
1649.74	0.792
1659.21	0.787
1668.68	0.761
1678.14	0.7259
1687.61	0.613
1697.08	0.528
1706.54	0.4209
1716.01	0.333
1725.48	0.272
1734.94	0.227
1744.41	0.198
1753.88	0.205
1763.34	0.178
1772.81	0.073
1782.28	0.049
1791.74	0.061
1801.21	0.1361
1810.68	0.204
1820.14	0.311
1829.61	0.42
1839.08	0.5272
1848.54	0.685
1858.01	0.668
1867.48	0.775
1876.94	0.85
1886.41	0.862
1895.87	0.841
1905.34	0.838
1914.81	0.84
1924.27	0.843
1933.74	0.824
1943.21	0.794
1952.67	0.814
1962.14	0.852
1971.61	0.867
1981.07	0.891
1990.54	0.891
2000.01	0.889
2009.47	0.8915
2018.94	0.896
2028.41	0.895
2037.87	0.8741
2047.34	0.8525
2056.81	0.8858
2066.27	0.8856
2075.74	0.879
2085.21	0.866
2094.67	0.8787
2104.14	0.8987
2113.61	0.8792
2123.07	0.8937
2132.54	0.9109
2142.01	0.914
2151.47	0.9111
2160.94	0.8992
2170.41	0.897
2179.87	0.891
2189.34	0.889
2198.81	0.887
2208.27	0.887
2217.74	0.889
2227.21	0.8919
2236.67	0.889
2246.14	0.889
2255.61	0.891
2265.07	0.889
2274.54	0.8991
2284.01	0.906
2293.47	0.904
2302.94	0.8991
2312.41	0.901
2321.87	0.8972
2331.34	0.8964
2340.81	0.901
2350.27	0.903
2359.74	0.901
2369.21	0.901
2378.67	0.8972
2388.14	0.8932
2397.61	0.8911
2407.07	0.891
2416.54	0.8892
2426	0.882
2435.47	0.8772
2444.94	0.861
2454.4	0.855
2463.87	0.852
2473.34	0.8529
2482.8	0.855
2492.27	0.858
2501.74	0.8592
2511.2	0.8532
2520.67	0.853
2530.14	0.855
2539.6	0.857
2549.07	0.855
2558.54	0.855
2568	0.855
2577.47	0.8543
2586.94	0.853
2596.4	0.853
2605.87	0.852
2615.34	0.8493
2624.8	0.8413
2634.27	0.84
2643.74	0.838
2653.2	0.836
2662.67	0.836
2672.14	0.836
2681.6	0.836
2691.07	0.836
2700.54	0.836
2710	0.836
2719.47	0.8377
2728.94	0.838
2738.4	0.8363
2747.87	0.8357
2757.34	0.8313
2766.8	0.8273
2776.27	0.8147
2785.74	0.8033
2795.2	0.799
2804.67	0.7834
2814.14	0.7704
2823.6	0.7465
2833.07	0.6826
2842.54	0.5447
2852	0.5207
2861.47	0.5033
2870.94	0.4149
2880.4	0.4489
2889.87	0.4898
2899.34	0.4625
2908.8	0.4085
2918.27	0.3061
2927.74	0.2614
2937.2	0.2644
2946.67	0.2445
2956.13	0.2424
2965.6	0.2981
2975.07	0.3933
2984.53	0.4323
2994	0.4539
3003.47	0.4965
3012.93	0.5318
3022.4	0.5936
3031.87	0.6417
3041.33	0.6684
3050.8	0.683
3060.27	0.6893
3069.73	0.6923
3079.2	0.693
3088.67	0.695
3098.13	0.695
3107.6	0.693
3117.07	0.693
3126.53	0.692
3136	0.6905
3145.47	0.6845
3154.93	0.677
3164.4	0.67
3173.87	0.668
3183.33	0.6625
3192.8	0.658
3202.27	0.6538
3211.73	0.651
3221.2	0.651
3230.67	0.651
3240.13	0.6506
3249.6	0.6505
3259.07	0.653
3268.53	0.654
3278	0.6564
3287.47	0.658
3296.93	0.6594
3306.4	0.6624
3315.87	0.6632
3325.33	0.6654
3334.8	0.67
3344.27	0.6751
3353.73	0.681
3363.2	0.6844
3372.67	0.692
3382.13	0.6994
3391.6	0.7046
3401.07	0.7141
3410.53	0.7224
3420	0.7281
3429.47	0.7347
3438.93	0.744
3448.4	0.7514
3457.87	0.7593
3467.33	0.7672
3476.8	0.7727
3486.26	0.775
3495.73	0.7777
3505.2	0.778
3514.66	0.778
3524.13	0.775
3533.6	0.7707
3543.06	0.7642
3552.53	0.7524
3562	0.748
3571.46	0.7493
3580.93	0.7754
3590.4	0.7965
3599.86	0.8167
3609.33	0.8343
3618.8	0.8413
3628.26	0.8482
3637.73	0.8573
3647.2	0.8746
3656.66	0.8886
3666.13	0.9241
3675.6	0.9386
3685.06	0.9533
3694.53	0.9602
3704	0.962
3713.46	0.962
3722.93	0.962
3732.4	0.96
3741.86	0.96
3751.33	0.96
3760.8	0.959
3770.26	0.957
3779.73	0.957
3789.2	0.957
3798.66	0.957
3808.13	0.957
3817.6	0.957
3827.06	0.957
3836.53	0.957
3846	0.955
3855.46	0.955
3864.93	0.954
3874.4	0.952
