Infrared Spectrum: GALACTARIC ACID
Formula: C6 H10 O8
CAS: 526-99-8
State: SOLID (OIL MULL)
Class: COBLENTZ III
Instrument: BAIRD (PRISM)
Instrument parameters: NaCl PRISM
Sampling: TRANSMISSION
Resolution: 2
Origin: WYANDOTTE CHEMICALS CORP.
MICROMETERS	TRANSMITTANCE
1.994	0.755
2.03306	0.76
2.07211	0.771
2.11117	0.788
2.15023	0.805
2.18929	0.814
2.22834	0.813
2.2674	0.822
2.30646	0.841
2.34551	0.854
2.38457	0.867
2.42363	0.872
2.46269	0.883
2.50174	0.9
2.5408	0.91
2.57986	0.926
2.61892	0.924
2.65797	0.937
2.69703	0.939
2.73609	0.924
2.77514	0.883
2.8142	0.798
2.85326	0.694
2.89232	0.565
2.93137	0.45
2.97043	0.291
3.00949	0.162
3.04854	0.068
3.0876	0.071
3.12666	0.156
3.16572	0.234
3.20477	0.268
3.24383	0.281
3.28289	0.259
3.32195	0.226
3.361	0.063
3.40006	0.022
3.43912	0.031
3.47817	0.057
3.51723	0.061
3.55629	0.257
3.59535	0.313
3.6344	0.351
3.67346	0.359
3.71252	0.36
3.75157	0.359
3.79063	0.345
3.82969	0.354
3.86875	0.375
3.9078	0.393
3.94686	0.394
3.98592	0.398
4.02498	0.409
4.06403	0.43
4.10309	0.471
4.14215	0.505
4.1812	0.522
4.22026	0.562
4.25932	0.562
4.29838	0.578
4.33743	0.603
4.37649	0.648
4.41555	0.672
4.4546	0.688
4.49366	0.706
4.53272	0.723
4.57178	0.733
4.61083	0.753
4.64989	0.756
4.68895	0.762
4.728	0.769
4.76706	0.781
4.80612	0.805
4.84518	0.811
4.88423	0.821
4.92329	0.831
4.96235	0.843
5.00141	0.848
5.04046	0.853
5.07952	0.857
5.11858	0.864
5.15763	0.865
5.19669	0.865
5.23575	0.864
5.27481	0.859
5.31386	0.846
5.35292	0.843
5.39198	0.841
5.43103	0.824
5.47009	0.803
5.50915	0.769
5.54821	0.734
5.58726	0.675
5.62632	0.586
5.66538	0.488
5.70444	0.345
5.74349	0.164
5.78255	0.094
5.82161	0.097
5.86066	0.153
5.89972	0.273
5.93878	0.362
5.97784	0.44
6.01689	0.484
6.05595	0.56
6.09501	0.583
6.13406	0.584
6.17312	0.608
6.21218	0.655
6.25124	0.685
6.29029	0.704
6.32935	0.725
6.36841	0.734
6.40747	0.761
6.44652	0.752
6.48558	0.772
6.52464	0.767
6.56369	0.765
6.60275	0.75
6.64181	0.729
6.68087	0.697
6.71992	0.602
6.75898	0.4
6.79804	0.206
6.83709	0.19
6.87615	0.247
6.91521	0.337
6.95427	0.429
6.99332	0.396
7.03238	0.372
7.07144	0.405
7.11049	0.445
7.14955	0.468
7.18861	0.452
7.22767	0.375
7.26672	0.339
7.30578	0.455
7.34484	0.531
7.3839	0.552
7.42295	0.53
7.46201	0.482
7.50107	0.434
7.54012	0.367
7.57918	0.291
7.61824	0.273
7.6573	0.253
7.69635	0.21
7.73541	0.198
7.77447	0.23
7.81352	0.264
7.85258	0.292
7.89164	0.33
7.9307	0.377
7.96975	0.375
8.00881	0.282
8.04787	0.247
8.08693	0.249
8.12598	0.303
8.16504	0.34
8.2041	0.37
8.24315	0.356
8.28221	0.357
8.32127	0.451
8.36033	0.547
8.39938	0.622
8.43844	0.662
8.4775	0.69
8.51655	0.71
8.55561	0.72
8.59467	0.72
8.63373	0.706
8.67278	0.642
8.71184	0.571
8.7509	0.503
8.78996	0.421
8.82901	0.287
8.86807	0.19
8.90713	0.146
8.94618	0.143
8.98524	0.19
9.0243	0.261
9.06336	0.307
9.10241	0.333
9.14147	0.361
9.18053	0.386
9.21958	0.391
9.25864	0.37
9.2977	0.314
9.33676	0.243
9.37581	0.156
9.41487	0.12
9.45393	0.162
9.49298	0.271
9.53204	0.355
9.5711	0.421
9.61016	0.474
9.64921	0.505
9.68827	0.552
9.72733	0.585
9.76639	0.605
9.80544	0.626
9.8445	0.642
9.88356	0.658
9.92261	0.675
9.96167	0.692
10.0007	0.702
10.0398	0.712
10.0788	0.713
10.1179	0.713
10.157	0.712
10.196	0.702
10.2351	0.691
10.2741	0.661
10.3132	0.619
10.3522	0.583
10.3913	0.571
10.4304	0.587
10.4694	0.612
10.5085	0.63
10.5475	0.639
10.5866	0.629
10.6256	0.603
10.6647	0.579
10.7038	0.538
10.7428	0.482
10.7819	0.419
10.8209	0.362
10.86	0.322
10.899	0.312
10.9381	0.314
10.9772	0.34
11.0162	0.384
11.0553	0.426
11.0943	0.483
11.1334	0.538
11.1724	0.597
11.2115	0.64
11.2506	0.667
11.2896	0.683
11.3287	0.688
11.3677	0.694
11.4068	0.714
11.4458	0.731
11.4849	0.73
11.524	0.685
11.563	0.581
11.6021	0.496
11.6411	0.461
11.6802	0.485
11.7192	0.568
11.7583	0.645
11.7974	0.683
11.8364	0.73
11.8755	0.756
11.9145	0.776
11.9536	0.8
11.9926	0.809
12.0317	0.8
12.0708	0.782
12.1098	0.779
12.1489	0.803
12.1879	0.815
12.227	0.821
12.266	0.824
12.3051	0.822
12.3442	0.81
12.3832	0.798
12.4223	0.745
12.4613	0.666
12.5004	0.539
12.5394	0.494
12.5785	0.52
12.6176	0.607
12.6566	0.66
12.6957	0.699
12.7347	0.719
12.7738	0.734
12.8128	0.739
12.8519	0.739
12.891	0.739
12.93	0.736
12.9691	0.734
13.0081	0.729
13.0472	0.723
13.0862	0.717
13.1253	0.708
13.1644	0.699
13.2034	0.69
13.2425	0.674
13.2815	0.656
13.3206	0.649
13.3596	0.629
13.3987	0.611
13.4378	0.591
13.4768	0.571
13.5159	0.554
13.5549	0.537
13.594	0.514
13.633	0.489
13.6721	0.466
13.7112	0.447
13.7502	0.431
13.7893	0.403
13.8283	0.389
13.8674	0.378
13.9064	0.37
13.9455	0.367
13.9846	0.366
14.0236	0.364
14.0627	0.366
14.1017	0.36
14.1408	0.354
14.1799	0.351
14.2189	0.348
14.258	0.341
14.297	0.339
14.3361	0.34
14.3751	0.337
14.4142	0.337
14.4533	0.341
14.4923	0.345
14.5314	0.35
14.5704	0.356
14.6095	0.365
14.6485	0.371
14.6876	0.37
14.7267	0.375
14.7657	0.371
14.8048	0.366
14.8438	0.357
14.8829	0.348
14.9219	0.335
14.961	0.322
15.0001	0.313
15.0391	0.317
15.0782	0.319
15.1172	0.309
15.1563	0.307
15.1953	0.319
15.2344	0.345
15.2735	0.394
15.3125	0.428
15.3516	0.447
15.3906	0.467
15.4297	0.487
15.4687	0.498
15.5078	0.506
15.5469	0.516
15.5859	0.523
15.625	0.523
15.664	0.519
15.7031	0.509
15.7421	0.492
15.7812	0.48
15.8203	0.471
15.8593	0.464
15.8984	0.467
15.9374	0.468
