Infrared Spectrum: Xylometazoline
Formula: C 16 H 24 N 2
CAS: 526-36-3
State: gas
Instrument: HP-GC/MS/IRD
Origin: NIST Mass Spectrometry Data Center
1/CM	ABSORBANCE
550	0.0007648
562	0.0005728
574	0.0003248
586	0.0002736
598	0.0002576
610	0.0001472
622	0.0003408
634	0.0001472
646	0.0001376
658	0.0001424
670	0.0001472
682	0.000552
694	0.000808
706	0.0004768
718	0.0003392
730	0.0002896
742	0.0001968
754	0.0002192
766	0.0001984
778	0.0003376
790	0.0001568
802	8.32e-05
814	1.6e-05
826	4.48e-05
838	4.32e-05
850	7.04e-05
862	0.0008672
874	0.0008944
886	0.0002
898	0.0002304
910	0.0005184
922	0.00076
934	0.0006288
946	0.0003664
958	0.0005792
970	0.0009536
982	0.001304
994	0.001784
1006	0.0015088
1018	0.0010992
1030	0.0010928
1042	0.000712
1054	0.0002912
1066	0.0001488
1078	0.0001888
1090	0.000184
1102	0.0001248
1114	0.00016
1126	0.000192
1138	0.0003584
1150	0.0005616
1162	0.0010624
1174	0.0013696
1186	0.0019184
1198	0.0013168
1210	0.0007888
1222	0.0010592
1234	0.0018944
1246	0.0009712
1258	0.0007664
1270	0.0011456
1282	0.0023872
1294	0.0029392
1306	0.0015376
1318	0.001064
1330	0.000688
1342	0.0006416
1354	0.0010576
1366	0.001776
1378	0.0016528
1390	0.0019728
1402	0.0031632
1414	0.0050176
1426	0.0045456
1438	0.0027024
1450	0.0024224
1462	0.0023504
1474	0.0024576
1486	0.0030912
1498	0.0014032
1510	0.0007056
1522	0.0005056
1534	0.0004928
1546	0.0005552
1558	0.0007248
1570	0.0009552
1582	0.0010112
1594	0.0013808
1606	0.002072
1618	0.0022848
1630	0.0057024
1642	0.0081072
1654	0.0028272
1666	0.0011552
1678	0.0005824
1690	0.0003184
1702	0.0001536
1714	0.0001056
1726	0.0001712
1738	0.0002288
1750	0.0002192
1762	9.28e-05
1774	9.6e-06
1786	3.2e-06
1798	1.6e-05
1810	8e-06
1822	3.68e-05
1834	1.92e-05
1846	1.28e-05
1858	0
1870	3.04e-05
1882	3.84e-05
1894	2.88e-05
1906	6.72e-05
1918	5.28e-05
1930	3.36e-05
1942	6.24e-05
1954	7.52e-05
1966	4.16e-05
1978	3.52e-05
1990	3.2e-05
2002	1.92e-05
2014	5.76e-05
2026	6.24e-05
2038	2.4e-05
2050	6.08e-05
2062	1.92e-05
2074	2.08e-05
2086	2.24e-05
2098	3.36e-05
2110	4.96e-05
2122	1.6e-05
2134	3.52e-05
2146	4.16e-05
2158	1.12e-05
2170	6.08e-05
2182	5.92e-05
2194	3.52e-05
2206	6.08e-05
2218	3.36e-05
2230	5.76e-05
2242	4.32e-05
2254	6.56e-05
2266	6.08e-05
2278	3.52e-05
2290	3.36e-05
2302	3.04e-05
2314	5.44e-05
2326	4.64e-05
2338	4.96e-05
2350	5.92e-05
2362	5.6e-05
2374	9.76e-05
2386	8.8e-05
2398	7.04e-05
2410	5.76e-05
2422	6.4e-05
2434	6.4e-05
2446	4.16e-05
2458	2.88e-05
2470	3.52e-05
2482	9.6e-06
2494	4.64e-05
2506	7.04e-05
2518	5.28e-05
2530	6.08e-05
2542	7.36e-05
2554	0.0001136
2566	0.0001072
2578	7.52e-05
2590	0.0001008
2602	0.0001168
2614	9.76e-05
2626	0.000104
2638	0.0001552
2650	0.0001216
2662	0.0001424
2674	0.0001712
2686	0.0001728
2698	0.0001728
2710	0.0002416
2722	0.0002864
2734	0.0003504
2746	0.0004016
2758	0.0003248
2770	0.0003696
2782	0.0004048
2794	0.0004944
2806	0.0006064
2818	0.000808
2830	0.0010784
2842	0.0015856
2854	0.0025712
2866	0.0052864
2878	0.008024
2890	0.006248
2902	0.005576
2914	0.006424
2926	0.007328
2938	0.0089152
2950	0.0113312
2962	0.0153408
2974	0.0134304
2986	0.0060592
2998	0.002736
3010	0.001632
3022	0.001344
3034	0.0014256
3046	0.0015184
3058	0.0016
3070	0.0011888
3082	0.0007104
3094	0.0005488
3106	0.0003552
3118	0.0003488
3130	0.0002816
3142	0.0003008
3154	0.0002416
3166	0.0001792
3178	0.0002112
3190	0.0002064
3202	0.0001968
3214	0.0002272
3226	0.0002048
3238	0.0002032
3250	0.000184
3262	0.0002064
3274	0.0001968
3286	0.000176
3298	0.0001088
3310	0.0001056
3322	0.0001056
3334	8.96e-05
3346	6.56e-05
3358	0.0001008
3370	0.0001312
3382	0.000176
3394	0.0002288
3406	0.0003648
3418	0.0009168
3430	0.0008976
3442	0.000472
3454	0.000272
3466	0.0002128
3478	0.000112
3490	0.0001088
3502	8.48e-05
3514	7.84e-05
3526	7.2e-05
3538	6.4e-05
3550	5.92e-05
3562	2.72e-05
3574	5.12e-05
3586	2.08e-05
3598	1.76e-05
3610	3.2e-05
3622	4.32e-05
3634	6.88e-05
3646	5.76e-05
3658	4.48e-05
3670	2.72e-05
3682	8.32e-05
3694	6.24e-05
3706	9.76e-05
3718	3.2e-06
3730	6.08e-05
3742	5.28e-05
3754	9.6e-05
3766	6.4e-05
3778	4.64e-05
3790	6.08e-05
3802	0.0001008
3814	0.0001184
3826	0.0001312
3838	0.0001152
