Infrared Spectrum: Gluconic acid
Formula: C6 H12 O7
CAS: 526-95-4
State: LIQUID (NEAT)
Class: COBLENTZ III
Instrument: DOW KBr FOREPRISM-GRATING
Instrument parameters: BLAZED AT 3.5, 12.0, 20.0 MICRON AND CHANGED AT 5.0, 7.5, 14.9 MICRON
Sampling: TRANSMISSION
Path length: CAPILLARY
Resolution: 2
Origin: DOW CHEMICAL COMPANY
1/CM	TRANSMITTANCE
450	0.5119
459	0.5069
468	0.497
477	0.4862
486	0.4755
495	0.465
504	0.4554
513	0.4498
522	0.4558
531	0.4554
540	0.4519
549	0.4485
558	0.4509
567	0.4507
576	0.4574
585	0.4758
594	0.4833
603	0.4871
612	0.491
621	0.4841
630	0.4847
639	0.497
648	0.5033
657	0.5073
666	0.5168
675	0.5463
684	0.5647
693	0.5771
702	0.5864
711	0.6073
720	0.6302
729	0.6284
738	0.6592
747	0.6738
756	0.6794
765	0.6856
774	0.6919
783	0.6989
792	0.6886
801	0.7071
810	0.7472
819	0.7801
828	0.7908
837	0.7839
846	0.7389
855	0.6844
864	0.6297
873	0.582
882	0.6098
891	0.6389
900	0.6427
909	0.6589
918	0.6879
927	0.6959
936	0.6763
945	0.6622
954	0.6482
963	0.6284
972	0.568
981	0.4445
990	0.3956
999	0.3525
1008	0.271
1017	0.2261
1026	0.1902
1035	0.1788
1044	0.1833
1053	0.1949
1062	0.1958
1071	0.1796
1080	0.1727
1089	0.175
1098	0.1696
1107	0.1833
1116	0.2044
1125	0.1936
1134	0.2172
1143	0.2699
1152	0.4006
1161	0.5411
1170	0.502
1179	0.3653
1188	0.2781
1197	0.2613
1206	0.2504
1215	0.2444
1224	0.2477
1233	0.2612
1242	0.2774
1251	0.2967
1260	0.313
1269	0.325
1278	0.3338
1287	0.3454
1296	0.3656
1305	0.3814
1314	0.387
1323	0.3861
1332	0.3835
1341	0.3851
1350	0.3994
1359	0.4211
1368	0.422
1377	0.409
1386	0.394
1395	0.3785
1404	0.3705
1413	0.3736
1422	0.3908
1431	0.4188
1440	0.4537
1449	0.5017
1458	0.5544
1467	0.6339
1476	0.7243
1485	0.769
1494	0.8276
1503	0.8626
1512	0.8718
1521	0.8846
1530	0.8802
1539	0.8881
1548	0.8784
1557	0.8803
1566	0.856
1575	0.8383
1584	0.8118
1593	0.7832
1602	0.7414
1611	0.7128
1620	0.6833
1629	0.6632
1638	0.6696
1647	0.6881
1656	0.7068
1665	0.719
1674	0.7137
1683	0.6741
1692	0.5938
1701	0.4532
1710	0.3035
1719	0.1815
1728	0.1306
1737	0.1204
1746	0.1373
1755	0.2088
1764	0.2856
1773	0.3032
1782	0.3443
1791	0.4321
1800	0.6322
1809	0.7233
1818	0.8195
1827	0.858
1836	0.878
1845	0.8923
1854	0.8956
1863	0.8975
1872	0.8977
1881	0.8947
1890	0.8966
1899	0.8947
1908	0.8929
1917	0.8913
1926	0.8906
1935	0.8922
1944	0.8931
1953	0.8937
1962	0.8907
1971	0.8878
1980	0.8862
1989	0.8852
1998	0.8815
2007	0.874
2016	0.872
2025	0.8708
2034	0.8697
2043	0.868
2052	0.867
2061	0.8661
2070	0.8655
2079	0.8649
2088	0.8643
2097	0.8632
2106	0.8625
2115	0.8618
2124	0.8613
2133	0.8611
2142	0.8609
2151	0.8607
2160	0.8605
2169	0.8603
2178	0.8602
2187	0.8598
2196	0.859
2205	0.8581
2214	0.8573
2223	0.8554
2232	0.8535
2241	0.8515
2250	0.8496
2259	0.8472
2268	0.8447
2277	0.8422
2286	0.8395
2295	0.8368
2304	0.8336
2313	0.8295
2322	0.8256
2331	0.8215
2340	0.8167
2349	0.8119
2358	0.807
2367	0.8013
2376	0.7956
2385	0.7898
2394	0.7834
2403	0.7763
2412	0.7692
2421	0.7615
2430	0.7539
2439	0.7458
2448	0.7372
2457	0.7279
2466	0.7182
2475	0.7095
2484	0.7009
2493	0.6936
2502	0.6873
2511	0.6807
2520	0.6742
2529	0.6683
2538	0.6628
2547	0.6573
2556	0.6516
2565	0.6457
2574	0.6407
2583	0.6359
2592	0.6304
2601	0.6249
2610	0.6193
2619	0.6139
2628	0.6089
2637	0.6053
2646	0.603
2655	0.6014
2664	0.5994
2673	0.5966
2682	0.5931
2691	0.5891
2700	0.5841
2709	0.579
2718	0.573
2727	0.5665
2736	0.5601
2745	0.5532
2754	0.5463
2763	0.5394
2772	0.5308
2781	0.5215
2790	0.5123
2799	0.5029
2808	0.4937
2817	0.483
2826	0.4721
2835	0.4586
2844	0.444
2853	0.4287
2862	0.4128
2871	0.3901
2880	0.3738
2889	0.3615
2898	0.3538
2907	0.3466
2916	0.3362
2925	0.3244
2934	0.3252
2943	0.335
2952	0.3472
2961	0.3667
2970	0.3849
2979	0.3997
2988	0.4089
2997	0.4101
3006	0.4056
3015	0.3992
3024	0.3915
3033	0.3798
3042	0.3698
3051	0.3596
3060	0.3457
3069	0.3262
3078	0.3067
3087	0.2893
3096	0.2734
3105	0.2577
3114	0.2421
3123	0.2257
3132	0.2091
3141	0.1953
3150	0.1824
3159	0.1684
3168	0.154
3177	0.1425
3186	0.1312
3195	0.1207
3204	0.1106
3213	0.1026
3222	0.0946
3231	0.0868
3240	0.0796
3249	0.0731
3258	0.0674
3267	0.0621
3276	0.0526
3285	0.0529
3294	0.0522
3303	0.0484
3312	0.046
3321	0.0451
3330	0.0443
3339	0.0441
3348	0.0445
3357	0.0449
3366	0.0453
3375	0.0462
3384	0.0474
3393	0.0489
3402	0.0511
3411	0.0535
3420	0.056
3429	0.0597
3438	0.0636
3447	0.0682
3456	0.0727
3465	0.0787
3474	0.0865
3483	0.0978
3492	0.1103
3501	0.1239
3510	0.1389
3519	0.1563
3528	0.1867
3537	0.2157
3546	0.2429
3555	0.2692
3564	0.3104
3573	0.3564
3582	0.3827
3591	0.4121
3600	0.4534
3609	0.5051
3618	0.5662
3627	0.6072
3636	0.6415
3645	0.6676
3654	0.6945
3663	0.7305
3672	0.7385
3681	0.7453
3690	0.7495
3699	0.7598
3708	0.7623
3717	0.7674
3726	0.7719
3735	0.7733
3744	0.7683
3753	0.7622
3762	0.7596
3771	0.7591
3780	0.764
3789	0.7695
3798	0.7633
