Infrared Spectrum: PYRAZOLE, 1-PHENYL-5-SULFANILAMIDO-
Formula: C15 H14 N4 O2 S
CAS: 526-08-9
State: SOLID (KBR DISC)
Melting point: 179-183 C
Class: COBLENTZ III
Instrument: PERKIN-ELMER 21 (GRATING)
Instrument parameters: FILTER AT ABOUT 10 MICRONS
Sampling: TRANSMISSION
Resolution: 2
1/CM	TRANSMITTANCE
4000	0.9041
3991	0.9049
3982	0.9055
3973	0.9061
3964	0.9068
3955	0.9073
3946	0.9075
3937	0.908
3928	0.9083
3919	0.9086
3910	0.909
3901	0.9093
3892	0.9099
3883	0.9106
3874	0.9113
3865	0.912
3856	0.9125
3847	0.9133
3838	0.9137
3829	0.9141
3820	0.9145
3811	0.9148
3802	0.9153
3793	0.9154
3784	0.9153
3775	0.9153
3766	0.9153
3757	0.915
3748	0.9147
3739	0.9145
3730	0.9142
3721	0.914
3712	0.9135
3703	0.9124
3694	0.9113
3685	0.9102
3676	0.9085
3667	0.9065
3658	0.9044
3649	0.9017
3640	0.8982
3631	0.8947
3622	0.8911
3613	0.8875
3604	0.8818
3595	0.8753
3586	0.8685
3577	0.8614
3568	0.8549
3559	0.8487
3550	0.8418
3541	0.8336
3532	0.7934
3523	0.7468
3514	0.7001
3505	0.6754
3496	0.675
3487	0.6826
3478	0.6974
3469	0.7121
3460	0.7245
3451	0.7094
3442	0.6525
3433	0.5955
3424	0.538
3415	0.4819
3406	0.4775
3397	0.5512
3388	0.6362
3379	0.7218
3370	0.7562
3361	0.7658
3352	0.773
3343	0.7768
3334	0.7799
3325	0.7788
3316	0.7688
3307	0.7533
3298	0.7376
3289	0.7221
3280	0.7074
3271	0.7046
3262	0.7101
3253	0.7192
3244	0.7282
3235	0.7372
3226	0.7464
3217	0.745
3208	0.7401
3199	0.7301
3190	0.7133
3181	0.7007
3172	0.6892
3163	0.68
3154	0.67
3145	0.6587
3136	0.626
3127	0.6031
3118	0.5867
3109	0.5707
3100	0.5589
3091	0.5554
3082	0.5552
3073	0.5642
3064	0.576
3055	0.588
3046	0.6
3037	0.6121
3028	0.6242
3019	0.6364
3010	0.6487
3001	0.661
2992	0.6735
2983	0.686
2974	0.6985
2965	0.7111
2956	0.724
2947	0.7368
2938	0.7497
2929	0.7625
2920	0.7653
2911	0.7639
2902	0.7495
2893	0.7278
2884	0.7062
2875	0.6845
2866	0.6625
2857	0.6405
2848	0.6192
2839	0.6147
2830	0.6124
2821	0.6175
2812	0.6257
2803	0.6333
2794	0.6343
2785	0.6354
2776	0.6369
2767	0.6454
2758	0.6592
2749	0.676
2740	0.6895
2731	0.7025
2722	0.7147
2713	0.7261
2704	0.7356
2695	0.7451
2686	0.7545
2677	0.7636
2668	0.7726
2659	0.7825
2650	0.7925
2641	0.8024
2632	0.8111
2623	0.8188
2614	0.8266
2605	0.8328
2596	0.8388
2587	0.8448
2578	0.8508
2569	0.8555
2560	0.8603
2551	0.8651
2542	0.8698
2533	0.874
2524	0.878
2515	0.8818
2506	0.8853
2497	0.8886
2488	0.8918
2479	0.8953
2470	0.8985
2461	0.9016
2452	0.9048
2443	0.9077
2434	0.9104
2425	0.913
2416	0.9147
2407	0.9147
2398	0.9121
2389	0.9098
2380	0.9087
2371	0.9085
2362	0.91
2353	0.9121
2344	0.9146
2335	0.9178
2326	0.9223
2317	0.9266
2308	0.9303
2299	0.9331
2290	0.934
2281	0.9331
2272	0.9304
2263	0.9304
2254	0.9321
2245	0.9335
2236	0.9349
2227	0.9358
2218	0.9367
2209	0.9374
2200	0.9378
2191	0.9384
2182	0.9387
2173	0.939
2164	0.9391
2155	0.9391
2146	0.9392
2137	0.9398
2128	0.9406
2119	0.9413
2110	0.9421
2101	0.9435
2092	0.9448
2083	0.946
2074	0.9471
2065	0.948
2056	0.9486
2047	0.9487
2038	0.9478
2029	0.9471
2020	0.946
2011	0.9445
2002	0.9418
1993	0.9398
1984	0.9398
1975	0.942
1966	0.9448
1957	0.9471
1948	0.948
1939	0.9467
1930	0.9404
1921	0.9332
1912	0.9297
1903	0.9352
1894	0.9398
1885	0.9436
1876	0.9463
1867	0.947
1858	0.9468
1849	0.9461
1840	0.9461
1831	0.9461
1822	0.9462
1813	0.9446
1804	0.9375
1795	0.9303
1786	0.9261
1777	0.9264
1768	0.9264
1759	0.92
1750	0.915
1741	0.9123
1732	0.9114
1723	0.9128
1714	0.9145
1705	0.9141
1696	0.9073
1687	0.8889
1678	0.8627
1669	0.8247
1660	0.7485
1651	0.5546
1642	0.3027
1633	0.4664
1624	0.6488
1615	0.4957
1606	0.2521
1597	0.4389
1588	0.7247
1579	0.7905
1570	0.8118
1561	0.6778
1552	0.5757
1543	0.7232
1534	0.8099
1525	0.753
1516	0.2456
1507	0.3668
1498	0.7026
1489	0.7908
1480	0.7575
1471	0.6441
1462	0.5294
1453	0.5379
1444	0.6478
1435	0.7591
1426	0.8061
1417	0.7751
1408	0.5767
1399	0.5652
1390	0.6955
1381	0.7674
1372	0.8062
1363	0.8085
1354	0.6546
1345	0.4332
1336	0.4345
1327	0.3341
1318	0.2273
1309	0.4929
1300	0.5884
1291	0.7275
1282	0.8082
1273	0.8275
1264	0.851
1255	0.8678
1246	0.8763
1237	0.8767
1228	0.8418
1219	0.7865
1210	0.8478
1201	0.8618
1192	0.7408
1183	0.8054
1174	0.6968
1165	0.218
1156	0.0776
1147	0.365
1138	0.5006
1129	0.5135
1120	0.6571
1111	0.7555
1102	0.5485
1093	0.3897
1084	0.7222
1075	0.73
1066	0.8157
1057	0.8058
1048	0.6461
1039	0.8107
1030	0.8417
1021	0.7675
1012	0.8221
1003	0.8401
994	0.8639
985	0.8711
976	0.8714
967	0.8571
958	0.8671
949	0.857
940	0.8281
931	0.7037
922	0.6786
913	0.63
904	0.548
895	0.5203
886	0.5505
877	0.6191
868	0.7208
859	0.7634
850	0.7612
841	0.6634
832	0.467
823	0.6834
814	0.771
805	0.7443
796	0.7232
787	0.6657
778	0.605
769	0.4589
760	0.5121
751	0.7439
742	0.7576
733	0.7318
724	0.6843
715	0.6512
706	0.6654
697	0.4337
688	0.4086
679	0.3427
670	0.6212
661	0.6969
