Infrared Spectrum: 2-Phthalimidoglutaranilic acid
Formula: C 19 H 16 N 2 O 5
CAS: 52604-91-8
State: gas
Origin: EPA-IR VAPOR PHASE LIBRARY
1/CM	ABSORBANCE
549.8	0.0009128
559.445	0.00038238
569.09	0.0006856
578.734	0.000946
588.379	0.0008347
598.024	0.0007635
607.669	0.0009019
617.313	0.00214
626.958	0.0009315
636.603	0.00040425
646.248	0.0002751
655.893	0.0004668
665.537	0.0006044
675.182	0.0006095
684.827	0.0012792
694.472	0.00151
704.116	0.0011528
713.761	0.00274
723.406	0.00224
733.051	0.0006992
742.695	0.0008638
752.34	0.0006341
761.985	0.00039011
771.63	0.00036756
781.275	0.0004537
790.919	0.0005286
800.564	0.0004589
810.209	0.0004608
819.854	0.000626
829.498	0.0005844
839.143	0.0005264
848.788	0.00033273
858.433	0.0004126
868.078	0.0005067
877.722	0.0008804
887.367	0.0009455
897.012	0.0008085
906.657	0.0006507
916.301	0.00039177
925.946	0.0004424
935.591	0.0004577
945.236	0.000209
954.88	0.0004339
964.525	0.0006963
974.17	0.00142
983.815	0.0010579
993.46	0.0011177
1003.1	0.0012521
1012.75	0.0010406
1022.39	0.0009452
1032.04	0.0008825
1041.68	0.0006935
1051.33	0.0009467
1060.97	0.0005054
1070.62	0.00034005
1080.26	0.0004959
1089.91	0.00152
1099.55	0.00168
1109.2	0.00151
1118.84	0.00171
1128.49	0.00058
1138.13	0.0012565
1147.78	0.00156
1157.42	0.00215
1167.07	0.00393
1176.71	0.00447
1186.36	0.00346
1196	0.00156
1205.64	0.0009345
1215.29	0.0004715
1224.93	0.0001
1234.58	0.0007466
1244.22	0.00241
1253.87	0.00341
1263.51	0.0014
1273.16	0.000543
1282.8	0.0010326
1292.45	0.0013328
1302.09	0.00216
1311.74	0.00255
1321.38	0.00375
1331.03	0.00281
1340.67	0.00436
1350.32	0.00624
1359.96	0.00491
1369.61	0.00556
1379.25	0.00897
1388.9	0.00623
1398.54	0.00235
1408.18	0.00146
1417.83	0.0013217
1427.47	0.0012023
1437.12	0.0009662
1446.76	0.0008627
1456.41	0.0009893
1466.05	0.0011771
1475.7	0.0010156
1485.34	0.001062
1494.99	0.00158
1504.63	0.001244
1514.28	0.0007185
1523.92	0.0006324
1533.57	0.000504
1543.21	0.0005854
1552.86	0.0005513
1562.5	0.0006455
1572.15	0.0004695
1581.79	0.0006349
1591.44	0.0008873
1601.08	0.0008957
1610.73	0.0008155
1620.37	0.000594
1630.01	0.0005616
1639.66	0.0005717
1649.3	0.000645
1658.95	0.0007235
1668.59	0.000771
1678.24	0.0009509
1687.88	0.0015
1697.53	0.0026
1707.17	0.0051
1716.82	0.01162
1726.46	0.01276
1736.11	0.01534
1745.75	0.00767
1755.4	0.00456
1765.04	0.00296
1774.69	0.00201
1784.33	0.0021
1793.98	0.00234
1803.62	0.0011411
1813.27	0.0007426
1822.91	0.0007323
1832.55	0.0006436
1842.2	0.0005711
1851.84	0.0005806
1861.49	0.0005913
1871.13	0.0005438
1880.78	0.0005068
1890.42	0.0004765
1900.07	0.00043878
1909.71	0.0005063
1919.36	0.0004544
1929	0.0004897
1938.65	0.0004886
1948.29	0.00039889
1957.94	0.0004441
1967.58	0.00041505
1977.23	0.00036846
1986.87	0.00039597
1996.52	0.00043511
2006.16	0.00043648
2015.81	0.000349684
2025.45	0.0004696
2035.1	0.00040031
2044.74	0.00039841
2054.38	0.0004426
2064.03	0.00037119
2073.67	0.00042494
2083.32	0.00040726
2092.96	0.00033113
2102.61	0.00039313
2112.25	0.00041833
2121.9	0.00041533
2131.54	0.00039347
2141.19	0.0004457
2150.83	0.00036187
2160.48	0.00040571
2170.12	0.0004298
2179.77	0.0003534
2189.41	0.00041763
2199.06	0.0004615
2208.7	0.00042835
2218.35	0.0004523
2227.99	0.0002902
2237.64	0.00035242
2247.28	0.00038134
2256.92	0.00037964
2266.57	0.00042831
2276.21	0.00043734
2285.86	0.00041229
2295.5	0.0004613
2305.15	0.00039165
2314.79	0.0005074
2324.44	0.00043465
2334.08	0.000339137
2343.73	0.0004752
2353.37	0.00036605
2363.02	0.00037858
2372.66	0.0004977
2382.31	0.000466
2391.95	0.0004759
2401.6	0.00039659
2411.24	0.00041632
2420.89	0.0005066
2430.53	0.00040985
2440.18	0.000349734
2449.82	0.00042745
2459.47	0.00042286
2469.11	0.0004837
2478.75	0.0004414
2488.4	0.0005905
2498.04	0.00039481
2507.69	0.00043676
2517.33	0.00038029
2526.98	0.0004047
2536.62	0.00036455
2546.27	0.00039347
2555.91	0.00040487
2565.56	0.0004648
2575.2	0.0004624
2584.85	0.0004881
2594.49	0.00039513
2604.14	0.000348111
2613.78	0.0003252
2623.43	0.00043462
2633.07	0.00042079
2642.72	0.0003072
2652.36	0.00036379
2662.01	0.00038735
2671.65	0.0004476
2681.29	0.00042332
2690.94	0.00038615
2700.58	0.0002852
2710.23	0.00037685
2719.87	0.0004666
2729.52	0.00036811
2739.16	0.0004597
2748.81	0.00037115
2758.45	0.0003971
2768.1	0.0003073
2777.74	0.0004823
2787.39	0.00040837
2797.03	0.0004594
2806.68	0.0004933
2816.32	0.00041152
2825.97	0.0004988
2835.61	0.00039497
2845.26	0.00035002
2854.9	0.0005261
2864.55	0.0004445
2874.19	0.0005377
2883.84	0.0004828
2893.48	0.0005503
2903.12	0.0006532
2912.77	0.0009088
2922.41	0.0006896
2932.06	0.0005455
2941.7	0.00039884
2951.35	0.0005815
2960.99	0.0006993
2970.64	0.0007131
2980.28	0.000554
2989.93	0.0006179
2999.57	0.0005058
3009.22	0.00043143
3018.86	0.0005682
3028.51	0.0006028
3038.15	0.0006885
3047.8	0.0009247
3057.44	0.0009154
3067.09	0.0008134
3076.73	0.001126
3086.38	0.0009198
3096.02	0.0008176
3105.67	0.000643
3115.31	0.000451
3124.95	0.00038871
3134.6	0.0003257
3144.24	0.00038475
3153.89	0.00040401
3163.53	0.00037946
3173.18	0.0003198
3182.82	0.0005193
3192.47	0.0003161
3202.11	0.000211
3211.76	0.000347475
3221.4	0.000226
3231.05	0.0002667
3240.69	0.0002465
3250.34	0.0004614
3259.98	0.00041487
3269.63	0.000532
3279.27	0.0002403
3288.92	0.0002
3298.56	0.0003002
3308.21	0.0003254
3317.85	0.00033572
3327.49	0.00035729
3337.14	0.0004165
3346.78	0.0002855
3356.43	0.00036058
3366.07	0.00042337
3375.72	0.00039393
3385.36	0.000222
3395.01	0.0004318
3404.65	0.0004743
3414.3	0.00041879
3423.94	0.00041048
3433.59	0.0004949
3443.23	0.0003592
3452.88	0.000518
3462.52	0.000343422
3472.17	0.0005748
3481.81	0.0003812
3491.46	0.0004963
3501.1	0.00041263
3510.75	0.0004868
3520.39	0.0005283
3530.04	0.0003014
3539.68	0.0003263
3549.32	0.0004521
3558.97	0.000348178
3568.61	0.0003188
3578.26	0.000197
3587.9	0.000314
3597.55	0.0003728
3607.19	0.0003087
3616.84	0.0004561
3626.48	0.00036173
3636.13	0.00033664
3645.77	0.00038495
3655.42	0.000233
3665.06	0.00035532
3674.71	0.000306
3684.35	0.00041835
3694	0.000213
3703.64	0.000152
3713.29	0.00035406
3722.93	0.000202
3732.58	0.000222
3742.22	0
3751.86	0.000178
3761.51	0.000344245
3771.15	0.00039264
3780.8	0.0004676
3790.44	0.0003669
3800.09	0.00033624
3809.73	0.0003094
3819.38	0.00035522
3829.02	0.0002894
3838.67	0.00036633
3848.31	0.00038257
3857.96	0.00036034
3867.6	0.000464
3877.25	0.000216
3886.89	0.0002459
3896.54	0.000234
3906.18	0.00040733
3915.83	0.0004485
3925.47	0.00040944
3935.12	0.00041093
3944.76	0.000339401
3954.41	0.000416
3964.05	0.0002653
3973.69	0.0003159
3983.34	0.0004574
3992.98	0.0003065
