Infrared Spectrum: Pyrimidine, 5-amino-6-chloro-4-(methylamino)-
Formula: C5 H7 N4 Cl
CAS: 52602-68-3
State: SOLID (0.6 mg / 650 mg KBr DISC)
Class: COBLENTZ III
Instrument: PERKIN-ELMER 21 (GRATING)
Instrument parameters: FILTER CHANGE ABOUT 1075 CM^-^1
Sampling: TRANSMISSION
Resolution: 2
Origin: SOUTHERN RESEARCH INSTITUTE
1/CM	TRANSMITTANCE
602	0.6668
611	0.6611
620	0.6543
629	0.649
638	0.6439
647	0.6441
656	0.649
665	0.6579
674	0.6755
683	0.6856
692	0.6858
701	0.6781
710	0.6251
719	0.5779
728	0.6374
737	0.6875
746	0.6865
755	0.6802
764	0.6511
773	0.6431
782	0.6775
791	0.6724
800	0.6627
809	0.6564
818	0.6205
827	0.5057
836	0.569
845	0.6395
854	0.6465
863	0.6317
872	0.6014
881	0.5567
890	0.5058
899	0.5545
908	0.6466
917	0.669
926	0.6585
935	0.6374
944	0.6301
953	0.6639
962	0.6592
971	0.6562
980	0.6529
989	0.6427
998	0.6282
1007	0.6206
1016	0.6117
1025	0.6034
1034	0.5948
1043	0.5847
1052	0.5735
1061	0.54
1070	0.4583
1079	0.4261
1088	0.5242
1097	0.5292
1106	0.5033
1115	0.4757
1124	0.471
1133	0.5242
1142	0.5333
1151	0.5584
1160	0.5846
1169	0.5793
1178	0.5677
1187	0.5453
1196	0.5262
1205	0.625
1214	0.6216
1223	0.5903
1232	0.5471
1241	0.5723
1250	0.6226
1259	0.6181
1268	0.6051
1277	0.5862
1286	0.5483
1295	0.4925
1304	0.4588
1313	0.6078
1322	0.6038
1331	0.5639
1340	0.4665
1349	0.4837
1358	0.6351
1367	0.6125
1376	0.5832
1385	0.5448
1394	0.448
1403	0.3057
1412	0.3147
1421	0.4472
1430	0.3841
1439	0.5849
1448	0.6116
1457	0.6125
1466	0.579
1475	0.5337
1484	0.5525
1493	0.5867
1502	0.5804
1511	0.5177
1520	0.5181
1529	0.5191
1538	0.4899
1547	0.4576
1556	0.3378
1565	0.307
1574	0.2335
1583	0.1427
1592	0.1852
1601	0.2699
1610	0.2962
1619	0.3298
1628	0.3921
1637	0.436
1646	0.4844
1655	0.5224
1664	0.5607
1673	0.6659
1682	0.6959
1691	0.7258
1700	0.7538
1709	0.769
1718	0.7801
1727	0.781
1736	0.7831
1745	0.7897
1754	0.7952
1763	0.7829
1772	0.7811
1781	0.7864
1790	0.7845
1799	0.7816
1808	0.7789
1817	0.7764
1826	0.776
1835	0.7755
1844	0.7728
1853	0.7667
1862	0.7553
1871	0.7504
1880	0.7578
1889	0.7657
1898	0.7713
1907	0.7687
1916	0.7645
1925	0.7603
1934	0.7564
1943	0.7546
1952	0.7536
1961	0.7528
1970	0.7516
1979	0.75
1988	0.7482
1997	0.743
2006	0.741
2015	0.7406
2024	0.7404
2033	0.7403
2042	0.7393
2051	0.7381
2060	0.7362
2069	0.733
2078	0.7295
2087	0.7264
2096	0.7246
2105	0.7226
2114	0.7208
2123	0.7199
2132	0.7191
2141	0.7178
2150	0.7165
2159	0.7149
2168	0.7131
2177	0.7113
2186	0.7098
2195	0.7094
2204	0.709
2213	0.7085
2222	0.7084
2231	0.7091
2240	0.7097
2249	0.7096
2258	0.7094
2267	0.7092
2276	0.7085
2285	0.7079
2294	0.7071
2303	0.7055
2312	0.7039
2321	0.7028
2330	0.7016
2339	0.7004
2348	0.698
2357	0.6956
2366	0.6939
2375	0.6925
2384	0.6913
2393	0.6903
2402	0.6895
2411	0.6882
2420	0.6874
2429	0.6865
2438	0.6835
2447	0.6808
2456	0.6816
2465	0.6822
2474	0.6811
2483	0.6799
2492	0.6784
2501	0.6755
2510	0.6735
2519	0.6725
2528	0.673
2537	0.6729
2546	0.6727
2555	0.6722
2564	0.6701
2573	0.6678
2582	0.6661
2591	0.6681
2600	0.6692
2609	0.6675
2618	0.6648
2627	0.6627
2636	0.6613
2645	0.6597
2654	0.6577
2663	0.6545
2672	0.6529
2681	0.6515
2690	0.6505
2699	0.6509
2708	0.6508
2717	0.6504
2726	0.6499
2735	0.6441
2744	0.6426
2753	0.6409
2762	0.6315
2771	0.6298
2780	0.6287
2789	0.6256
2798	0.6186
2807	0.6098
2816	0.6005
2825	0.5922
2834	0.5854
2843	0.5787
2852	0.5736
2861	0.5705
2870	0.5684
2879	0.5619
2888	0.553
2897	0.5449
2906	0.5393
2915	0.5359
2924	0.5332
2933	0.5351
2942	0.5364
2951	0.5383
2960	0.5429
2969	0.5411
2978	0.5366
2987	0.5319
2996	0.5276
3005	0.5248
3014	0.5263
3023	0.5253
3032	0.5254
3041	0.5286
3050	0.5336
3059	0.5391
3068	0.542
3077	0.5392
3086	0.5333
3095	0.5244
3104	0.5136
3113	0.5018
3122	0.4922
3131	0.4842
3140	0.4792
3149	0.4738
3158	0.4654
3167	0.4522
3176	0.4386
3185	0.4282
3194	0.4221
3203	0.4148
3212	0.4021
3221	0.3912
3230	0.3841
3239	0.3862
3248	0.3885
3257	0.3963
3266	0.4052
3275	0.4075
3284	0.4177
3293	0.4218
3302	0.42
3311	0.4128
3320	0.3956
3329	0.3776
3338	0.3708
3347	0.3756
3356	0.3819
3365	0.3922
3374	0.3915
3383	0.3879
3392	0.3671
3401	0.3605
3410	0.3801
3419	0.3975
3428	0.4135
3437	0.4268
3446	0.4398
3455	0.4534
3464	0.4679
3473	0.4828
3482	0.4906
3491	0.5021
3500	0.5102
3509	0.5184
3518	0.5265
3527	0.5345
3536	0.5487
3545	0.5567
3554	0.5646
3563	0.5744
3572	0.5872
3581	0.5997
3590	0.6121
3599	0.6217
3608	0.6285
3617	0.6406
3626	0.648
3635	0.654
3644	0.6594
3653	0.6631
3662	0.6649
3671	0.6657
3680	0.6659
3689	0.6657
3698	0.6656
3707	0.666
3716	0.6668
3725	0.666
3734	0.6632
3743	0.6632
3752	0.6638
3761	0.6648
3770	0.6659
3779	0.669
3788	0.6727
3797	0.6729
3806	0.6641
3815	0.6642
3824	0.6641
3833	0.663
3842	0.664
3851	0.6651
3860	0.6649
3869	0.6644
3878	0.6644
3887	0.6643
3896	0.6641
3905	0.6639
3914	0.6638
3923	0.6629
3932	0.6613
3941	0.655
3950	0.6534
3959	0.6538
3968	0.6544
3977	0.6549
3986	0.6547
3995	0.6544
