Infrared Spectrum: 1-Chloromethyl-4-methylnaphthalene
Formula: C 12 H 11 Cl
CAS: 5261-50-7
State: gas
Origin: EPA-IR VAPOR PHASE LIBRARY
1/CM	ABSORBANCE
549.8	0.00638
559.445	0.01002
569.09	0.02785
578.734	0.05593
588.379	0.0262
598.024	0.00824
607.669	0.0096
617.313	0.02708
626.958	0.0251
636.603	0.00894
646.248	0.00626
655.893	0.00499
665.537	0.00488
675.182	0.00899
684.827	0.02395
694.472	0.05357
704.116	0.08596
713.761	0.04793
723.406	0.02072
733.051	0.0479
742.695	0.20458
752.34	0.40251
761.985	0.23222
771.63	0.09381
781.275	0.07578
790.919	0.0464
800.564	0.03423
810.209	0.03308
819.854	0.08373
829.498	0.09606
839.143	0.03186
848.788	0.0086
858.433	0.00601
868.078	0.00467
877.722	0.00451
887.367	0.00564
897.012	0.00915
906.657	0.00874
916.301	0.00534
925.946	0.00452
935.591	0.00487
945.236	0.00761
954.88	0.00991
964.525	0.01513
974.17	0.0129
983.815	0.00651
993.46	0.00518
1003.1	0.00663
1012.75	0.01622
1022.39	0.02519
1032.04	0.01726
1041.68	0.01232
1051.33	0.01018
1060.97	0.0039
1070.62	0.0022
1080.26	0.00286
1089.91	0.00372
1099.55	0.00334
1109.2	0.00364
1118.84	0.00316
1128.49	0.00475
1138.13	0.00974
1147.78	0.02146
1157.42	0.02126
1167.07	0.02153
1176.71	0.01327
1186.36	0.00683
1196	0.00774
1205.64	0.01255
1215.29	0.02477
1224.93	0.02423
1234.58	0.02255
1244.22	0.05322
1253.87	0.10693
1263.51	0.08748
1273.16	0.05224
1282.8	0.04442
1292.45	0.02022
1302.09	0.00958
1311.74	0.0091
1321.38	0.01228
1331.03	0.0153
1340.67	0.01186
1350.32	0.01077
1359.96	0.01293
1369.61	0.01454
1379.25	0.02457
1388.9	0.04827
1398.54	0.04282
1408.18	0.02021
1417.83	0.0225
1427.47	0.02777
1437.12	0.02987
1446.76	0.04632
1456.41	0.06265
1466.05	0.04358
1475.7	0.02089
1485.34	0.0129
1494.99	0.01371
1504.63	0.02757
1514.28	0.04486
1523.92	0.03134
1533.57	0.01328
1543.21	0.00782
1552.86	0.00765
1562.5	0.00846
1572.15	0.01283
1581.79	0.02785
1591.44	0.04419
1601.08	0.03747
1610.73	0.01941
1620.37	0.01074
1630.01	0.00776
1639.66	0.00957
1649.3	0.01214
1658.95	0.00933
1668.59	0.00517
1678.24	0.00544
1687.88	0.0078
1697.53	0.0104
1707.17	0.00821
1716.82	0.00518
1726.46	0.00512
1736.11	0.00483
1745.75	0.0063
1755.4	0.00593
1765.04	0.00407
1774.69	0.00402
1784.33	0.00516
1793.98	0.00807
1803.62	0.00875
1813.27	0.00679
1822.91	0.0076
1832.55	0.00678
1842.2	0.00588
1851.84	0.0115
1861.49	0.01696
1871.13	0.01061
1880.78	0.00585
1890.42	0.00665
1900.07	0.00628
1909.71	0.00782
1919.36	0.00854
1929	0.00628
1938.65	0.0089
1948.29	0.00798
1957.94	0.00325
1967.58	0.00163
1977.23	0.00114
1986.87	0.0012
1996.52	0.00114
2006.16	0.00113
2015.81	0.00115
2025.45	0.00134
2035.1	0.00156
2044.74	0.00183
2054.38	0.00164
2064.03	0.0017
2073.67	0.0018
2083.32	0.00148
2092.96	0.00127
2102.61	0.0012
2112.25	0.00131
2121.9	0.00123
2131.54	0.00126
2141.19	0.00104
2150.83	0.0007969
2160.48	0.0008703
2170.12	0.0009234
2179.77	0.0009662
2189.41	0.00101
2199.06	0.00118
2208.7	0.0011
2218.35	0.00102
2227.99	0.0008316
2237.64	0.0008141
2247.28	0.00105
2256.92	0.00117
2266.57	0.000893
2276.21	0.0009184
2285.86	0.00127
2295.5	0.00163
2305.15	0.00196
2314.79	0.00242
2324.44	0.00265
2334.08	0.00279
2343.73	0.00247
2353.37	0.00172
2363.02	0.00138
2372.66	0.00128
2382.31	0.00159
2391.95	0.00186
2401.6	0.00207
2411.24	0.00226
2420.89	0.00183
2430.53	0.00137
2440.18	0.00129
2449.82	0.00111
2459.47	0.00108
2469.11	0.00136
2478.75	0.0018
2488.4	0.00171
2498.04	0.00151
2507.69	0.00156
2517.33	0.00178
2526.98	0.00201
2536.62	0.00185
2546.27	0.00147
2555.91	0.00137
2565.56	0.00123
2575.2	0.00109
2584.85	0.00122
2594.49	0.00141
2604.14	0.00164
2613.78	0.0016
2623.43	0.00144
2633.07	0.0015
2642.72	0.00136
2652.36	0.00133
2662.01	0.00128
2671.65	0.00134
2681.29	0.00137
2690.94	0.00165
2700.58	0.00234
2710.23	0.00276
2719.87	0.00272
2729.52	0.00308
2739.16	0.00456
2748.81	0.00488
2758.45	0.00316
2768.1	0.00222
2777.74	0.00236
2787.39	0.00274
2797.03	0.00349
2806.68	0.00443
2816.32	0.00524
2825.97	0.00618
2835.61	0.00741
2845.26	0.00931
2854.9	0.01301
2864.55	0.02197
2874.19	0.03572
2883.84	0.03564
2893.48	0.03105
2903.12	0.03472
2912.77	0.04171
2922.41	0.04835
2932.06	0.06496
2941.7	0.07127
2951.35	0.06561
2960.99	0.07063
2970.64	0.08627
2980.28	0.10158
2989.93	0.0681
2999.57	0.04878
3009.22	0.0628
3018.86	0.06722
3028.51	0.07089
3038.15	0.09946
3047.8	0.0961
3057.44	0.0688
3067.09	0.07827
3076.73	0.12176
3086.38	0.12901
3096.02	0.06881
3105.67	0.03439
3115.31	0.02026
3124.95	0.01048
3134.6	0.00666
3144.24	0.00508
3153.89	0.00386
3163.53	0.00326
3173.18	0.00313
3182.82	0.00309
3192.47	0.00272
3202.11	0.00249
3211.76	0.00233
3221.4	0.00164
3231.05	0.00113
3240.69	0.000939
3250.34	0.0006522
3259.98	0.0006758
3269.63	0.0006352
3279.27	0.0005864
3288.92	0.0005609
3298.56	0.0005308
3308.21	0.0007176
3317.85	0.0004383
3327.49	0.0002961
3337.14	0.0002224
3346.78	0.0002558
3356.43	0.0003299
3366.07	0.0002848
3375.72	0.0001882
3385.36	0.0002219
3395.01	0.0002156
3404.65	0.0002113
3414.3	0.0003113
3423.94	0.0002399
3433.59	0.0003471
3443.23	8.119e-05
3452.88	0.0002726
3462.52	0.0002888
3472.17	0.0003273
3481.81	0.0004172
3491.46	0.0003302
3501.1	0.0004625
3510.75	0.0005611
3520.39	0.0005206
3530.04	0.0006419
3539.68	0.0003688
3549.32	0.0005953
3558.97	0.0005163
3568.61	0.0005679
3578.26	0.0005083
3587.9	0.0006399
3597.55	0.0003956
3607.19	0.0005092
3616.84	0.0005506
3626.48	0.0003872
3636.13	0.0001992
3645.77	0.000421
3655.42	0.0001903
3665.06	0.0004638
3674.71	0.0004168
3684.35	0.0005671
3694	0.0004791
3703.64	0.0005844
3713.29	0.0007311
3722.93	0.0005575
3732.58	0.0007718
3742.22	0.00065
3751.86	0.0008961
3761.51	0.00113
3771.15	0.00142
3780.8	0.00153
3790.44	0.00168
3800.09	0.00175
3809.73	0.00177
3819.38	0.00165
3829.02	0.00165
3838.67	0.00199
3848.31	0.00222
3857.96	0.00192
3867.6	0.00143
3877.25	0.00136
3886.89	0.0011
3896.54	0.0009643
3906.18	0.0008847
3915.83	0.0009489
3925.47	0.0007917
3935.12	0.00094
3944.76	0.0007997
3954.41	0.0009937
3964.05	0.0007999
3973.69	0.000854
3983.34	0.0007008
3992.98	0.0007228
