Infrared Spectrum: ETHYL Alpha-ISOCYANATO Gamma-THIOMETHYL BUTYRATE
Formula: C8 H13 N O3 S
CAS: 52632-06-1
State: LIQUID
Boiling point: 98 C AT 1 mmHg
Class: COBLENTZ
Instrument: Not specified, most likely a prism, grating, or hybrid spectrometer.
Sampling: TRANSMISSION
Path length: CAPILLARY CELL
Resolution: 4
Origin: EASTMAN KODAK COMPANY, RESEARCH LABORATORIES, ROCHESTER, N.Y.
MICROMETERS	TRANSMITTANCE
2.021	0.923
2.05611	0.919
2.09121	0.917
2.12632	0.919
2.16142	0.923
2.19653	0.917
2.23163	0.907
2.26674	0.905
2.30184	0.902
2.33695	0.902
2.37206	0.905
2.40716	0.912
2.44227	0.907
2.47737	0.905
2.51248	0.914
2.54758	0.919
2.58269	0.921
2.61779	0.919
2.6529	0.926
2.68801	0.931
2.72311	0.916
2.75822	0.882
2.79332	0.881
2.82843	0.893
2.86353	0.893
2.89864	0.889
2.93374	0.882
2.96885	0.888
3.00395	0.875
3.03906	0.877
3.07417	0.881
3.10927	0.882
3.14438	0.884
3.17948	0.884
3.21459	0.881
3.24969	0.87
3.2848	0.863
3.3199	0.847
3.35501	0.652
3.39012	0.517
3.42522	0.54
3.46033	0.666
3.49543	0.77
3.53054	0.795
3.56564	0.847
3.60075	0.889
3.63585	0.895
3.67096	0.9
3.70607	0.902
3.74117	0.907
3.77628	0.907
3.81138	0.909
3.84649	0.909
3.88159	0.91
3.9167	0.912
3.9518	0.914
3.98691	0.917
4.02202	0.914
4.05712	0.905
4.09223	0.903
4.12733	0.884
4.16244	0.854
4.19754	0.826
4.23265	0.821
4.26775	0.802
4.30286	0.685
4.33796	0.183
4.37307	0.082
4.40818	0.048
4.44328	0.08
4.47839	0.267
4.51349	0.466
4.5486	0.599
4.5837	0.708
4.61881	0.798
4.65391	0.839
4.68902	0.851
4.72413	0.854
4.75923	0.854
4.79434	0.868
4.82944	0.889
4.86455	0.912
4.89965	0.93
4.93476	0.935
4.96986	0.942
5.00497	0.952
5.04008	0.949
5.07518	0.952
5.11029	0.954
5.14539	0.952
5.1805	0.949
5.2156	0.961
5.25071	0.954
5.28581	0.951
5.32092	0.949
5.35603	0.942
5.39113	0.949
5.42624	0.944
5.46134	0.942
5.49645	0.924
5.53155	0.919
5.56666	0.902
5.60176	0.877
5.63687	0.833
5.67197	0.657
5.70708	0.33
5.74219	0.16
5.77729	0.41
5.8124	0.655
5.8475	0.776
5.88261	0.812
5.91771	0.849
5.95282	0.879
5.98792	0.896
6.02303	0.9
6.05814	0.903
6.09324	0.914
6.12835	0.923
6.16345	0.917
6.19856	0.923
6.23366	0.923
6.26877	0.924
6.30387	0.924
6.33898	0.921
6.37409	0.924
6.40919	0.923
6.4443	0.924
6.4794	0.923
6.51451	0.916
6.54961	0.914
6.58472	0.914
6.61982	0.91
6.65493	0.907
6.69004	0.896
6.72514	0.851
6.76025	0.77
6.79535	0.73
6.83046	0.718
6.86556	0.692
6.90067	0.594
6.93577	0.512
6.97088	0.526
7.00598	0.587
7.04109	0.652
7.0762	0.751
7.1113	0.797
7.14641	0.777
7.18151	0.75
7.21662	0.746
7.25172	0.716
7.28683	0.61
7.32193	0.575
7.35704	0.699
7.39215	0.748
7.42725	0.704
7.46236	0.685
7.49746	0.687
7.53257	0.704
7.56767	0.713
7.60278	0.708
7.63788	0.687
7.67299	0.557
7.7081	0.37
7.7432	0.426
7.77831	0.533
7.81341	0.512
7.84852	0.412
7.88362	0.421
7.91873	0.517
7.95383	0.545
7.98894	0.54
8.02405	0.517
8.05915	0.433
8.09426	0.311
8.12936	0.236
8.16447	0.202
8.19957	0.187
8.23468	0.18
8.26978	0.211
8.30489	0.283
8.33999	0.37
8.3751	0.461
8.41021	0.543
8.44531	0.568
8.48042	0.503
8.51552	0.463
8.55063	0.48
8.58573	0.513
8.62084	0.54
8.65594	0.599
8.69105	0.692
8.72616	0.765
8.76126	0.814
8.79637	0.851
8.83147	0.868
8.86658	0.881
8.90168	0.865
8.93679	0.854
8.97189	0.832
9.007	0.825
9.04211	0.821
9.07721	0.774
9.11232	0.732
9.14742	0.741
9.18253	0.777
9.21763	0.774
9.25274	0.777
9.28784	0.779
9.32295	0.774
9.35806	0.774
9.39316	0.769
9.42827	0.743
9.46337	0.704
9.49848	0.632
9.53358	0.538
9.56869	0.459
9.60379	0.4
9.6389	0.393
9.67401	0.395
9.70911	0.409
9.74422	0.43
9.77932	0.459
9.81443	0.506
9.84953	0.566
9.88464	0.634
9.91974	0.708
9.95485	0.753
9.98995	0.804
10.0251	0.818
10.0602	0.826
10.0953	0.832
10.1304	0.839
10.1655	0.844
10.2006	0.846
10.2357	0.835
10.2708	0.816
10.3059	0.784
10.341	0.746
10.3761	0.715
10.4112	0.683
10.4463	0.657
10.4814	0.652
10.5165	0.667
10.5516	0.718
10.5867	0.767
10.6219	0.795
10.657	0.821
10.6921	0.854
10.7272	0.882
10.7623	0.907
10.7974	0.931
10.8325	0.942
10.8676	0.944
10.9027	0.945
10.9378	0.952
10.9729	0.958
11.008	0.951
11.0431	0.945
11.0782	0.947
11.1133	0.947
11.1484	0.945
11.1835	0.938
11.2186	0.935
11.2538	0.935
11.2889	0.926
11.324	0.91
11.3591	0.888
11.3942	0.87
11.4293	0.858
11.4644	0.844
11.4995	0.84
11.5346	0.833
11.5697	0.83
11.6048	0.837
11.6399	0.832
11.675	0.83
11.7101	0.825
11.7452	0.826
11.7803	0.835
11.8154	0.847
11.8505	0.86
11.8857	0.86
11.9208	0.86
11.9559	0.874
11.991	0.889
12.0261	0.895
12.0612	0.893
12.0963	0.888
12.1314	0.886
12.1665	0.879
12.2016	0.874
12.2367	0.879
12.2718	0.881
12.3069	0.886
12.342	0.879
12.3771	0.874
12.4122	0.875
12.4473	0.868
12.4824	0.86
12.5176	0.854
12.5527	0.856
12.5878	0.858
12.6229	0.856
12.658	0.86
12.6931	0.86
12.7282	0.858
12.7633	0.856
12.7984	0.849
12.8335	0.842
12.8686	0.837
12.9037	0.833
12.9388	0.828
12.9739	0.828
13.009	0.83
13.0441	0.83
13.0792	0.826
13.1143	0.825
13.1495	0.826
13.1846	0.828
13.2197	0.839
13.2548	0.839
13.2899	0.844
13.325	0.851
13.3601	0.856
13.3952	0.858
13.4303	0.858
13.4654	0.86
13.5005	0.868
13.5356	0.858
13.5707	0.854
13.6058	0.858
13.6409	0.856
13.676	0.858
13.7111	0.858
13.7462	0.853
13.7814	0.847
13.8165	0.842
13.8516	0.846
13.8867	0.837
13.9218	0.835
13.9569	0.839
13.992	0.84
14.0271	0.839
14.0622	0.837
14.0973	0.832
14.1324	0.825
14.1675	0.818
14.2026	0.809
14.2377	0.804
14.2728	0.797
14.3079	0.786
14.343	0.779
14.3781	0.77
14.4133	0.769
14.4484	0.758
14.4835	0.751
14.5186	0.741
14.5537	0.739
14.5888	0.736
14.6239	0.732
14.659	0.723
14.6941	0.711
14.7292	0.706
14.7643	0.694
14.7994	0.688
14.8345	0.681
14.8696	0.678
14.9047	0.673
14.9398	0.66
14.9749	0.664
15.01	0.666
15.0452	0.669
15.0803	0.653
15.1154	0.645
15.1505	0.641
15.1856	0.636
15.2207	0.622
15.2558	0.615
15.2909	0.611
15.326	0.611
15.3611	0.606
15.3962	0.603
15.4313	0.599
15.4664	0.589
15.5015	0.576
15.5366	0.569
15.5717	0.568
15.6068	0.566
15.6419	0.568
15.6771	0.568
15.7122	0.568
15.7473	0.569
15.7824	0.569
15.8175	0.569
15.8526	0.571
15.8877	0.569
15.9228	0.566
15.9579	0.564
15.993	0.562
