Infrared Spectrum: 4-Chloro-3,5-dinitrotoluene
Formula: C 7 H 5 Cl N 2 O 4
CAS: 5264-65-3
State: gas
Origin: EPA-IR VAPOR PHASE LIBRARY
1/CM	ABSORBANCE
549.8	0.001615
559.445	0.001935
569.09	0.002675
578.734	0.002115
588.379	0.001555
598.024	0.001145
607.669	0.000903
617.313	0.000688
626.958	0.001345
636.603	0.002005
646.248	0.002395
655.893	0.002665
665.537	0.002905
675.182	0.003215
684.827	0.002435
694.472	0.002795
704.116	0.005605
713.761	0.025185
723.406	0.047485
733.051	0.017285
742.695	0.007485
752.34	0.006505
761.985	0.006205
771.63	0.004405
781.275	0.003155
790.919	0.005515
800.564	0.008605
810.209	0.003035
819.854	0.001375
829.498	0.001195
839.143	0.001445
848.788	0.002305
858.433	0.006735
868.078	0.013895
877.722	0.008225
887.367	0.003945
897.012	0.005075
906.657	0.010685
916.301	0.014425
925.946	0.005495
935.591	0.001565
945.236	0.0010884
954.88	0.0008813
964.525	0.0006551
974.17	0.0009216
983.815	0.0009102
993.46	0.001325
1003.1	0.001175
1012.75	0.0009536
1022.39	0.0010097
1032.04	0.001135
1041.68	0.002905
1051.33	0.005415
1060.97	0.012495
1070.62	0.015615
1080.26	0.006955
1089.91	0.002655
1099.55	0.001395
1109.2	0.001905
1118.84	0.001705
1128.49	0.001945
1138.13	0.002005
1147.78	0.002985
1157.42	0.004755
1167.07	0.003805
1176.71	0.002375
1186.36	0.002325
1196	0.003185
1205.64	0.003195
1215.29	0.002655
1224.93	0.003035
1234.58	0.002525
1244.22	0.003225
1253.87	0.003855
1263.51	0.006705
1273.16	0.009365
1282.8	0.006695
1292.45	0.006305
1302.09	0.009355
1311.74	0.015855
1321.38	0.027675
1331.03	0.042105
1340.67	0.065185
1350.32	0.088685
1359.96	0.072275
1369.61	0.037435
1379.25	0.020925
1388.9	0.015145
1398.54	0.013265
1408.18	0.011115
1417.83	0.008335
1427.47	0.007645
1437.12	0.008765
1446.76	0.011095
1456.41	0.015315
1466.05	0.015635
1475.7	0.010745
1485.34	0.010085
1494.99	0.013215
1504.63	0.017605
1514.28	0.025495
1523.92	0.040545
1533.57	0.061255
1543.21	0.088005
1552.86	0.156935
1562.5	0.216985
1572.15	0.133875
1581.79	0.076075
1591.44	0.049485
1601.08	0.025005
1610.73	0.013825
1620.37	0.008485
1630.01	0.005315
1639.66	0.003345
1649.3	0.002305
1658.95	0.001915
1668.59	0.001745
1678.24	0.001695
1687.88	0.001625
1697.53	0.001365
1707.17	0.001165
1716.82	0.001265
1726.46	0.001145
1736.11	0.000986
1745.75	0.0010507
1755.4	0.001435
1765.04	0.002215
1774.69	0.002295
1784.33	0.001455
1793.98	0.0011033
1803.62	0.0009069
1813.27	0.0008837
1822.91	0.0006859
1832.55	0.0005886
1842.2	0.0005577
1851.84	0.0005485
1861.49	0.0005514
1871.13	0.0005547
1880.78	0.0004418
1890.42	0.0004453
1900.07	0.0005444
1909.71	0.0005172
1919.36	0.0005255
1929	0.0004746
1938.65	0.0004149
1948.29	0.0005454
1957.94	0.0004597
1967.58	0.0003472
1977.23	0.0003677
1986.87	0.0004241
1996.52	0.0003357
2006.16	0.0002999
2015.81	0.0003225
2025.45	0.0002716
2035.1	0.0002791
2044.74	0.0003178
2054.38	0.0002834
2064.03	0.0003264
2073.67	0.0002406
2083.32	0.0002634
2092.96	0.0002847
2102.61	0.0003329
2112.25	0.0003186
2121.9	0.0002707
2131.54	0.000238
2141.19	0.0002563
2150.83	0.000266
2160.48	0.0002432
2170.12	0.0003424
2179.77	0.0003042
2189.41	0.0002913
2199.06	0.0003305
2208.7	0.0002371
2218.35	0.0002565
2227.99	0.0002614
2237.64	0.0002535
2247.28	0.0002988
2256.92	0.0002649
2266.57	0.0004034
2276.21	0.0004161
2285.86	0.0004094
2295.5	0.0003594
2305.15	0.000308
2314.79	0.0003941
2324.44	0.0003777
2334.08	0.0005563
2343.73	0.0005364
2353.37	0.0007594
2363.02	0.0005905
2372.66	0.0005128
2382.31	0.0004359
2391.95	0.0004132
2401.6	0.0003995
2411.24	0.0003141
2420.89	0.0004809
2430.53	0.0004683
2440.18	0.0003857
2449.82	0.0004383
2459.47	0.0005125
2469.11	0.0005809
2478.75	0.0005764
2488.4	0.0004848
2498.04	0.000415
2507.69	0.0004401
2517.33	0.0004584
2526.98	0.0004345
2536.62	0.0003361
2546.27	0.0003055
2555.91	0.0004203
2565.56	0.0003559
2575.2	0.0005202
2584.85	0.0005038
2594.49	0.0007044
2604.14	0.0005923
2613.78	0.0007189
2623.43	0.0007741
2633.07	0.0007662
2642.72	0.0008043
2652.36	0.0009275
2662.01	0.0008019
2671.65	0.0009537
2681.29	0.0010913
2690.94	0.001335
2700.58	0.001325
2710.23	0.001235
2719.87	0.001125
2729.52	0.0009116
2739.16	0.0009921
2748.81	0.000982
2758.45	0.0009802
2768.1	0.0009141
2777.74	0.0008017
2787.39	0.0010154
2797.03	0.0010184
2806.68	0.001195
2816.32	0.001235
2825.97	0.001375
2835.61	0.001635
2845.26	0.001895
2854.9	0.002575
2864.55	0.003235
2874.19	0.004255
2883.84	0.004505
2893.48	0.004685
2903.12	0.005105
2912.77	0.005155
2922.41	0.005055
2932.06	0.006715
2941.7	0.007835
2951.35	0.005275
2960.99	0.003365
2970.64	0.002565
2980.28	0.001805
2989.93	0.001705
2999.57	0.002215
3009.22	0.002585
3018.86	0.002725
3028.51	0.002335
3038.15	0.001785
3047.8	0.001795
3057.44	0.001745
3067.09	0.001945
3076.73	0.001685
3086.38	0.001185
3096.02	0.0009114
3105.67	0.0009133
3115.31	0.0006084
3124.95	0.0006489
3134.6	0.0006284
3144.24	0.0002958
3153.89	0.00020433
3163.53	0.0003667
3173.18	0.0003619
3182.82	0.0004682
3192.47	0.00025
3202.11	0.0003312
3211.76	0.000302
3221.4	0.0003486
3231.05	0.00010868
3240.69	0.0002405
3250.34	0.000253
3259.98	0.0002478
3269.63	0.0002995
3279.27	0.0002821
3288.92	5.08e-05
3298.56	0.00015927
3308.21	0.0002238
3317.85	0.00019786
3327.49	0.0003021
3337.14	0.0002678
3346.78	0.0003131
3356.43	0.00020939
3366.07	0.0003054
3375.72	0.0003357
3385.36	0.000118061
3395.01	0.0001816
3404.65	0.00014209
3414.3	0.0003768
3423.94	0.0002814
3433.59	0.000315
3443.23	0.00017958
3452.88	0.000328
3462.52	0.0002516
3472.17	0.0002303
3481.81	0.0004544
3491.46	0.0004742
3501.1	0.0003304
3510.75	0.00017765
3520.39	0.0004067
3530.04	0.000413
3539.68	0.00019742
3549.32	0.000315
3558.97	0.0003978
3568.61	0.0002658
3578.26	0.00016978
3587.9	0.0002464
3597.55	0.0005441
3607.19	0.00021388
3616.84	0.0002979
3626.48	0.000247
3636.13	0.0003724
3645.77	0.0002832
3655.42	0.0003746
3665.06	0.0003094
3674.71	0.0002936
3684.35	0.0002641
3694	0.0003099
3703.64	0.0003098
3713.29	0.0004263
3722.93	0.0004114
3732.58	0.00021199
3742.22	0.0003057
3751.86	0.0003071
3761.51	0.0002774
3771.15	7.14e-05
3780.8	0.0005025
3790.44	9.66e-05
3800.09	0.0003599
3809.73	0.00014355
3819.38	0.00017251
3829.02	0.00015042
3838.67	0.0003226
3848.31	0.0004568
3857.96	0.0003445
3867.6	0.0003383
3877.25	0.0003029
3886.89	0.0002706
3896.54	0.0002509
3906.18	0.0001717
3915.83	0.0006153
3925.47	0.0003461
3935.12	0.0004366
3944.76	0.0003382
3954.41	0.0005411
3964.05	0.000357
3973.69	0.00020528
3983.34	0.0003233
3992.98	0.0002837
