Infrared Spectrum: 1-Bromo-6-methylheptane
Formula: C 8 H 17 Br
CAS: 52648-04-1
State: gas
Instrument: HP-GC/MS/IRD
Origin: NIST Mass Spectrometry Data Center
1/CM	ABSORBANCE
550	0.0007392
562	0.0009504
574	0.0012639
586	0.0003894
598	7.92e-05
610	0.0002376
622	0.000429
634	0.0008415
646	0.0017523
658	0.0015543
670	0.0003465
682	0.0002376
694	0.0003366
706	0.0004818
718	0.000792
730	0.0009801
742	0.000759
754	0.000561
766	0.0006402
778	0.0005907
790	0.0004257
802	0.0003762
814	0.0004257
826	0.0004422
838	0.000429
850	0.000396
862	0.0003234
874	0.0003168
886	0.0004719
898	0.0005313
910	0.0004719
922	0.0004818
934	0.0004356
946	0.0004554
958	0.0004752
970	0.0005181
982	0.0004257
994	0.0004356
1006	0.0003993
1018	0.0003564
1030	0.0003696
1042	0.0003168
1054	0.0002673
1066	0.0002607
1078	0.0002376
1090	0.000297
1102	0.0002904
1114	0.0003267
1126	0.0002772
1138	0.0003432
1150	0.0004851
1162	0.0009702
1174	0.0010725
1186	0.0008415
1198	0.0012276
1210	0.0016401
1222	0.0025377
1234	0.0033099
1246	0.0037356
1258	0.0036102
1270	0.003531
1282	0.0029535
1294	0.0021384
1306	0.0016632
1318	0.0012738
1330	0.0013431
1342	0.0015873
1354	0.0020064
1366	0.0025674
1378	0.0027093
1390	0.0026466
1402	0.0012045
1414	0.000891
1426	0.0013926
1438	0.0027918
1450	0.003861
1462	0.0045837
1474	0.0037224
1486	0.0017787
1498	0.0008316
1510	0.0004455
1522	0.000297
1534	0.0002079
1546	0.0001749
1558	0.0001419
1570	0.0001188
1582	9.57e-05
1594	9.57e-05
1606	9.57e-05
1618	9.9e-05
1630	0.0001122
1642	8.58e-05
1654	8.91e-05
1666	9.24e-05
1678	7.59e-05
1690	7.92e-05
1702	7.26e-05
1714	6.93e-05
1726	6.6e-05
1738	4.95e-05
1750	3.96e-05
1762	7.26e-05
1774	2.64e-05
1786	2.64e-05
1798	3.63e-05
1810	2.31e-05
1822	2.97e-05
1834	3.63e-05
1846	2.31e-05
1858	2.31e-05
1870	9.9e-06
1882	4.29e-05
1894	4.29e-05
1906	3.96e-05
1918	3.63e-05
1930	3.3e-05
1942	3.3e-05
1954	3.96e-05
1966	3.63e-05
1978	4.62e-05
1990	3.63e-05
2002	5.94e-05
2014	4.95e-05
2026	8.25e-05
2038	6.6e-05
2050	8.25e-05
2062	8.25e-05
2074	5.94e-05
2086	5.61e-05
2098	6.93e-05
2110	7.59e-05
2122	6.6e-05
2134	9.24e-05
2146	8.25e-05
2158	0.0001023
2170	8.25e-05
2182	0.0001188
2194	0.000132
2206	9.24e-05
2218	0.0001023
2230	9.24e-05
2242	0.0001122
2254	8.91e-05
2266	0.0001056
2278	0.0001155
2290	0.000132
2302	0.0001254
2314	0.0001188
2326	0.0001089
2338	0.0001287
2350	0.0001221
2362	0.0001188
2374	0.000132
2386	0.000165
2398	0.0001617
2410	0.0001683
2422	0.000165
2434	0.000165
2446	0.0001617
2458	0.0001683
2470	0.0001683
2482	0.0001683
2494	0.0001815
2506	0.0002112
2518	0.0001947
2530	0.000198
2542	0.0002442
2554	0.0002409
2566	0.0002871
2578	0.0002871
2590	0.0003234
2602	0.0003729
2614	0.0003927
2626	0.0004422
2638	0.0004785
2650	0.0004917
2662	0.0005049
2674	0.0005049
2686	0.0005346
2698	0.0005907
2710	0.0006006
2722	0.0006831
2734	0.0007689
2746	0.0007425
2758	0.0007788
2770	0.000858
2782	0.000957
2794	0.0011517
2806	0.0014388
2818	0.0018348
2830	0.0026697
2842	0.0046761
2854	0.0084447
2866	0.0117447
2878	0.0137775
2890	0.0134838
2902	0.0152361
2914	0.0198
2926	0.0253275
2938	0.0306603
2950	0.0281424
2962	0.0324885
2974	0.0234036
2986	0.0083127
2998	0.0041877
3010	0.0035475
3022	0.0025179
3034	0.0014157
3046	0.0010626
3058	0.0008844
3070	0.0008118
3082	0.0007326
3094	0.0006798
3106	0.0006336
3118	0.0005907
3130	0.0005511
3142	0.0005148
3154	0.0005181
3166	0.0005247
3178	0.0005775
3190	0.0005115
3202	0.0004422
3214	0.0003696
3226	0.0002937
3238	0.0002706
3250	0.0002277
3262	0.0002343
3274	0.0002145
3286	0.0002244
3298	0.0002277
3310	0.0002409
3322	0.0002112
3334	0.000231
3346	0.000231
3358	0.0002541
3370	0.000231
3382	0.0001683
3394	0.0001617
3406	0.0001848
3418	0.0001518
3430	0.0001848
3442	0.0001914
3454	0.0001551
3466	0.0001881
3478	0.0001089
3490	0.0001419
3502	0.0001518
3514	0.0001089
3526	0.0001188
3538	0.0001122
3550	0.0001122
3562	0.0001188
3574	0.0001089
3586	0.0001155
3598	9.57e-05
3610	0.0001353
3622	0.0001584
3634	0.0001617
3646	0.0001518
3658	0.0001749
3670	0.0001452
3682	0.0001815
3694	0.000165
3706	0.0001122
3718	0.0002079
3730	0.0001716
3742	0.000165
3754	0.0001683
3766	0.0001056
3778	0.0001815
3790	0.0002706
3802	0.0001782
3814	0.0003069
3826	0.0002409
3838	0.0001815
