Infrared Spectrum: cis-Permethrin
Formula: C 21 H 20 Cl 2 O 3
CAS: 52645-53-1
State: gas
Instrument: HP-GC/MS/IRD
Origin: NIST Mass Spectrometry Data Center
1/CM	ABSORBANCE
550	0.0013065
562	0.0002814
574	0.0002144
586	0.0003752
598	0.0001005
610	1.34e-05
622	0.0003685
634	0.0015008
646	0.0026197
658	0.0021976
670	0.0020837
682	0.0060099
694	0.0126831
706	0.0040937
718	0.0027403
730	0.0043081
742	0.006164
754	0.0084554
766	0.0105927
778	0.0123414
790	0.0113498
802	0.0091723
814	0.0099361
826	0.0091455
838	0.0094671
850	0.0100366
862	0.0089713
874	0.0091321
886	0.0084219
898	0.0092661
910	0.0121605
922	0.0162274
934	0.0154033
946	0.0117585
958	0.0083884
970	0.0064655
982	0.0075174
994	0.009715
1006	0.0077184
1018	0.0062913
1030	0.0052796
1042	0.0061841
1054	0.0087167
1066	0.0142308
1078	0.0221435
1090	0.0158053
1102	0.0114905
1114	0.0195573
1126	0.0463707
1138	0.0564877
1150	0.0371515
1162	0.0438515
1174	0.0522734
1186	0.0315369
1198	0.0262774
1210	0.0390744
1222	0.0365753
1234	0.0326424
1246	0.0504912
1258	0.067
1270	0.0402737
1282	0.0220363
1294	0.0145926
1306	0.0119595
1318	0.0093331
1330	0.0088976
1342	0.0125022
1354	0.0155641
1366	0.0106128
1378	0.0131253
1390	0.0146931
1402	0.0137015
1414	0.0160331
1426	0.0105927
1438	0.0144519
1450	0.0217013
1462	0.0159594
1474	0.0178689
1486	0.0454126
1498	0.0218554
1510	0.0060166
1522	0.0035309
1534	0.0029614
1546	0.0035242
1558	0.0063717
1570	0.0155172
1582	0.0324213
1594	0.0272824
1606	0.0168036
1618	0.0101371
1630	0.0038056
1642	0.002144
1654	0.0016616
1666	0.0015611
1678	0.0017889
1690	0.0024723
1702	0.0037587
1714	0.0059563
1726	0.0135139
1738	0.0390007
1750	0.0273092
1762	0.0086832
1774	0.00469
1786	0.0026532
1798	0.0016683
1810	0.001206
1822	0.0009112
1834	0.0008308
1846	0.0009715
1858	0.001072
1870	0.0008509
1882	0.0005829
1894	0.000469
1906	0.0005427
1918	0.0009715
1930	0.0012931
1942	0.0008576
1954	0.000603
1966	0.0005159
1978	0.0005762
1990	0.0006365
2002	0.0005829
2014	0.0005427
2026	0.0006231
2038	0.0007102
2050	0.0006164
2062	0.0004824
2074	0.0004489
2086	0.0004154
2098	0.0003417
2110	0.0002077
2122	0.0001608
2134	8.71e-05
2146	7.37e-05
2158	0
2170	4.02e-05
2182	6.03e-05
2194	6.7e-05
2206	0.0001072
2218	0.0001273
2230	6.7e-05
2242	6.7e-05
2254	8.04e-05
2266	7.37e-05
2278	0.0001474
2290	0.0001943
2302	0.0002546
2314	0.000335
2326	0.0002747
2338	0.0001675
2350	0.0001541
2362	0.0001876
2374	0.0003082
2386	0.0004087
2398	0.0005427
2410	0.0005427
2422	0.0005628
2434	0.000469
2446	0.0003417
2458	0.0002814
2470	0.000201
2482	0.0001809
2494	0.0001742
2506	0.0001742
2518	0.000201
2530	0.0001876
2542	0.0001675
2554	0.0001809
2566	0.0001943
2578	0.0001541
2590	0.0001139
2602	0.000134
2614	0.0001139
2626	8.71e-05
2638	4.02e-05
2650	4.69e-05
2662	0
2674	3.35e-05
2686	8.04e-05
2698	0.0001005
2710	0.0001139
2722	0.0001474
2734	0.0002814
2746	0.0005963
2758	0.0004355
2770	0.000268
2782	0.0002948
2794	0.0002479
2806	0.0002948
2818	0.0004489
2830	0.0006231
2842	0.0008107
2854	0.0012931
2866	0.0025929
2878	0.0048709
2890	0.0052729
2902	0.0050585
2914	0.0052461
2926	0.0074102
2938	0.0095274
2950	0.0100098
2962	0.0180364
2974	0.0106999
2986	0.0039798
2998	0.0029145
3010	0.0028609
3022	0.0034237
3034	0.0052997
3046	0.0076112
3058	0.0072092
3070	0.0090852
3082	0.0090048
3094	0.0047972
3106	0.0026666
3118	0.0012194
3130	0.0007102
3142	0.0005494
3154	0.0004623
3166	0.0003752
3178	0.0003283
3190	0.0003819
3202	0.000469
3214	0.0003685
3226	0.0002479
3238	0.000134
3250	9.38e-05
3262	6.03e-05
3274	6.03e-05
3286	1.34e-05
3298	1.34e-05
3310	6.7e-06
3322	3.35e-05
3334	2.68e-05
3346	1.34e-05
3358	5.36e-05
3370	4.02e-05
3382	2.01e-05
3394	9.38e-05
3406	8.04e-05
3418	0.0001072
3430	0.0001407
3442	0.0001675
3454	0.0003685
3466	0.0004355
3478	0.0003618
3490	0.0002881
3502	0.0001541
3514	0.0001474
3526	0.0001206
3538	0.0001407
3550	7.37e-05
3562	9.38e-05
3574	0.0001407
3586	0.0001139
3598	0.0001608
3610	0.0001206
3622	0.000134
3634	0.0001809
3646	0.0001474
3658	0.0001675
3670	0.0002144
3682	0.0001072
3694	0.000134
3706	0.000201
3718	0.0001541
3730	7.37e-05
3742	0.0001474
3754	0.0001139
3766	0.0001072
3778	9.38e-05
3790	7.37e-05
3802	0.0001139
3814	0.0001072
3826	6.7e-05
3838	0.0001541
