Infrared Spectrum: 1-Methyl-2-isopropylbenzene
Formula: C 10 H 14
CAS: 527-84-4
State: gas
Instrument: HP-GC/MS/IRD
Origin: NIST Mass Spectrometry Data Center
1/CM	ABSORBANCE
550	0.0006948
562	0.0005328
574	0.0001404
586	0.0001152
598	9.36e-05
610	4.68e-05
622	5.04e-05
634	5.04e-05
646	6.48e-05
658	9e-05
670	9.36e-05
682	0.0001512
694	0.0002484
706	0.001728
718	0.0055188
730	0.0081972
742	0.00846
754	0.0125604
766	0.0060192
778	0.001206
790	0.0004392
802	0.0001944
814	0.0001908
826	5.04e-05
838	0.0001368
850	0.0001476
862	0.0003636
874	0.0003492
886	0.0002232
898	0.0001872
910	0.0002088
922	0.000414
934	0.0005724
946	0.0003492
958	0.0002628
970	0.000306
982	0.0004356
994	0.0004824
1006	0.0004356
1018	0.0008748
1030	0.0029016
1042	0.003222
1054	0.0015876
1066	0.0014436
1078	0.002178
1090	0.0026064
1102	0.001674
1114	0.0007164
1126	0.0003492
1138	0.0002268
1150	0.0002952
1162	0.0003744
1174	0.0003492
1186	0.0002988
1198	0.0002592
1210	0.000378
1222	0.000576
1234	0.0003924
1246	0.0003168
1258	0.000576
1270	0.0011124
1282	0.0014508
1294	0.001062
1306	0.00072
1318	0.0006804
1330	0.0008676
1342	0.0012456
1354	0.0018792
1366	0.0028836
1378	0.0030852
1390	0.0027756
1402	0.0016956
1414	0.0014796
1426	0.0018504
1438	0.0028044
1450	0.0051372
1462	0.0067104
1474	0.0068796
1486	0.007416
1498	0.0052848
1510	0.0020988
1522	0.0010512
1534	0.0006192
1546	0.0004428
1558	0.0004356
1570	0.000594
1582	0.0008892
1594	0.0013392
1606	0.0015624
1618	0.0008352
1630	0.0002952
1642	0.0002232
1654	0.0002412
1666	0.0002844
1678	0.0003384
1690	0.0004212
1702	0.0003492
1714	0.000288
1726	0.000198
1738	0.0001548
1750	0.000108
1762	0.0001764
1774	0.0003024
1786	0.0005112
1798	0.0004068
1810	0.0002628
1822	0.0003996
1834	0.0002808
1846	0.0001404
1858	0.000216
1870	0.0003132
1882	0.0003636
1894	0.0006156
1906	0.0007056
1918	0.0003816
1930	0.0004248
1942	0.0004716
1954	0.0002088
1966	6.12e-05
1978	7.56e-05
1990	4.68e-05
2002	2.16e-05
2014	2.16e-05
2026	2.52e-05
2038	1.44e-05
2050	2.88e-05
2062	2.88e-05
2074	2.52e-05
2086	3.24e-05
2098	4.68e-05
2110	7.2e-06
2122	3.6e-06
2134	1.08e-05
2146	1.44e-05
2158	0
2170	1.08e-05
2182	1.8e-05
2194	2.16e-05
2206	2.16e-05
2218	2.52e-05
2230	3.24e-05
2242	5.4e-05
2254	7.2e-05
2266	6.48e-05
2278	6.12e-05
2290	3.96e-05
2302	2.16e-05
2314	7.92e-05
2326	0.0001296
2338	9e-05
2350	5.4e-05
2362	5.76e-05
2374	6.48e-05
2386	8.64e-05
2398	0.0001044
2410	7.56e-05
2422	7.56e-05
2434	8.64e-05
2446	7.92e-05
2458	7.2e-05
2470	9e-05
2482	9.72e-05
2494	0.000108
2506	7.2e-05
2518	6.48e-05
2530	8.28e-05
2542	0.0001152
2554	0.0001332
2566	0.0001872
2578	0.0002052
2590	0.0002088
2602	0.0001908
2614	0.0001548
2626	0.000144
2638	0.0001404
2650	0.0001548
2662	0.00018
2674	0.0002268
2686	0.000252
2698	0.0002844
2710	0.0003528
2722	0.0004968
2734	0.000612
2746	0.00063
2758	0.0006192
2770	0.0006084
2782	0.0006048
2794	0.0006624
2806	0.0008964
2818	0.0010836
2830	0.0014328
2842	0.0020052
2854	0.003186
2866	0.006102
2878	0.0100944
2890	0.0104508
2902	0.0094176
2914	0.0105732
2926	0.014328
2938	0.0179712
2950	0.0188676
2962	0.0305136
2974	0.0341712
2986	0.0160128
2998	0.0073548
3010	0.0070416
3022	0.0095004
3034	0.0085356
3046	0.0064764
3058	0.0082476
3070	0.0101124
3082	0.0071964
3094	0.0037836
3106	0.0026028
3118	0.0016344
3130	0.0010692
3142	0.0009432
3154	0.0008748
3166	0.0007056
3178	0.0005832
3190	0.0004788
3202	0.000378
3214	0.0003636
3226	0.0003348
3238	0.0002664
3250	0.0001872
3262	0.0001908
3274	0.0001512
3286	0.0001476
3298	0.000126
3310	0.0001044
3322	9.36e-05
3334	9e-05
3346	8.28e-05
3358	0.0001224
3370	0.000126
3382	8.64e-05
3394	5.76e-05
3406	6.48e-05
3418	5.4e-05
3430	6.84e-05
3442	7.92e-05
3454	9e-05
3466	7.92e-05
3478	7.2e-05
3490	6.48e-05
3502	5.76e-05
3514	3.96e-05
3526	2.52e-05
3538	7.56e-05
3550	2.88e-05
3562	5.76e-05
3574	1.08e-05
3586	3.6e-05
3598	7.2e-05
3610	7.2e-05
3622	6.12e-05
3634	2.52e-05
3646	2.88e-05
3658	4.32e-05
3670	2.16e-05
3682	8.28e-05
3694	4.32e-05
3706	4.68e-05
3718	5.76e-05
3730	7.56e-05
3742	6.12e-05
3754	9e-05
3766	6.48e-05
3778	0.000108
3790	8.28e-05
3802	0.0001116
3814	0.000126
3826	0.0001476
3838	0.000162
