Infrared Spectrum: Tetrafluoro-1,4-benzoquinone
Formula: C 6 F 4 O 2
CAS: 527-21-9
State: gas
Instrument: HP-GC/MS/IRD
Origin: NIST Mass Spectrometry Data Center
1/CM	ABSORBANCE
550	0.0001682
562	8.7e-05
574	0.0002552
586	5.8e-05
598	0.000116
610	0.0002146
622	0.000725
634	0.0008236
646	0.0003509
658	0.0001595
670	0.0001421
682	1.16e-05
694	0.0001102
706	0.0001537
718	0.0001131
730	0.0004205
742	0.0003799
754	0.0001711
766	8.7e-05
778	9.86e-05
790	7.54e-05
802	0.0001421
814	2.03e-05
826	8.12e-05
838	6.67e-05
850	0.0001856
862	0.0002784
874	0.0001769
886	0.0002407
898	0.0003074
910	0.0002378
922	0.0003074
934	0.0004089
946	0.0004785
958	0.0007047
970	0.0019923
982	0.0130906
994	0.029
1006	0.0108054
1018	0.0016791
1030	0.0016878
1042	0.0017893
1054	0.0008932
1066	0.0007888
1078	0.001131
1090	0.0007743
1102	0.0003161
1114	0.0002407
1126	0.0001827
1138	0.000174
1150	0.0001334
1162	0.0001856
1174	0.0001421
1186	0.0001479
1198	0.0002378
1210	0.0003364
1222	0.0003596
1234	0.0002552
1246	0.0002291
1258	0.0003248
1270	0.0006061
1282	0.0009947
1294	0.001334
1306	0.0041934
1318	0.0164749
1330	0.0282953
1342	0.0091263
1354	0.0011136
1366	0.0005742
1378	0.0006061
1390	0.0007482
1402	0.0005365
1414	0.0002291
1426	0.0001653
1438	0.0001537
1450	0.0002088
1462	0.000174
1474	0.0001334
1486	0.0001624
1498	0.0001856
1510	0.0002349
1522	0.0002523
1534	0.0001798
1546	0.0001334
1558	0.0001537
1570	0.0001972
1582	0.0002581
1594	0.0004408
1606	0.0006728
1618	0.00087
1630	0.001102
1642	0.0029783
1654	0.0124381
1666	0.0201869
1678	0.0080098
1690	0.0049532
1702	0.0155701
1714	0.0208916
1726	0.0093873
1738	0.0042166
1750	0.0014065
1762	0.0005046
1774	0.000319
1786	0.0003857
1798	0.0003538
1810	0.0002291
1822	0.0001392
1834	0.0001566
1846	0.0001798
1858	0.0002581
1870	0.000232
1882	0.0001102
1894	8.12e-05
1906	8.12e-05
1918	9.28e-05
1930	8.41e-05
1942	7.83e-05
1954	6.38e-05
1966	4.93e-05
1978	5.22e-05
1990	4.64e-05
2002	8.99e-05
2014	8.99e-05
2026	5.8e-05
2038	4.64e-05
2050	4.93e-05
2062	5.8e-05
2074	7.25e-05
2086	6.96e-05
2098	7.83e-05
2110	4.64e-05
2122	8.7e-05
2134	0.0001044
2146	6.67e-05
2158	6.96e-05
2170	6.67e-05
2182	9.28e-05
2194	0.0001566
2206	0.0001334
2218	8.12e-05
2230	9.28e-05
2242	0.0001015
2254	7.54e-05
2266	0.0001102
2278	9.57e-05
2290	7.54e-05
2302	6.38e-05
2314	5.51e-05
2326	6.09e-05
2338	6.67e-05
2350	8.99e-05
2362	0.0001305
2374	9.28e-05
2386	4.35e-05
2398	8.99e-05
2410	0.0001218
2422	0.0001827
2434	0.0001508
2446	0.0001073
2458	5.8e-05
2470	4.93e-05
2482	1.74e-05
2494	4.35e-05
2506	2.61e-05
2518	5.51e-05
2530	7.25e-05
2542	6.96e-05
2554	8.99e-05
2566	6.96e-05
2578	6.67e-05
2590	5.22e-05
2602	2.61e-05
2614	2.9e-05
2626	2.9e-06
2638	1.45e-05
2650	2.9e-06
2662	4.93e-05
2674	6.96e-05
2686	0.0001711
2698	0.0002407
2710	0.0001972
2722	7.83e-05
2734	3.48e-05
2746	4.93e-05
2758	5.22e-05
2770	6.09e-05
2782	2.9e-05
2794	3.19e-05
2806	4.06e-05
2818	8.7e-06
2830	1.45e-05
2842	1.74e-05
2854	1.45e-05
2866	3.48e-05
2878	5.8e-05
2890	8.99e-05
2902	0.0001015
2914	0.0001218
2926	9.28e-05
2938	6.38e-05
2950	6.09e-05
2962	5.51e-05
2974	7.83e-05
2986	0.0001044
2998	0.0001015
3010	0.0001566
3022	0.0002523
3034	0.0003306
3046	0.0002697
3058	9.86e-05
3070	8.99e-05
3082	4.06e-05
3094	3.48e-05
3106	3.77e-05
3118	4.35e-05
3130	3.19e-05
3142	3.48e-05
3154	2.61e-05
3166	5.8e-06
3178	5.8e-06
3190	4.35e-05
3202	2.9e-05
3214	2.03e-05
3226	1.45e-05
3238	5.22e-05
3250	1.16e-05
3262	2.9e-05
3274	1.74e-05
3286	3.48e-05
3298	6.09e-05
3310	0.0001102
3322	0.0001073
3334	0.000116
3346	9.86e-05
3358	0.0001392
3370	0.000203
3382	0.0004524
3394	0.0007859
3406	0.000696
3418	0.0003277
3430	0.0001914
3442	0.0001305
3454	0.0001102
3466	9.57e-05
3478	5.51e-05
3490	9.57e-05
3502	8.12e-05
3514	7.25e-05
3526	3.77e-05
3538	3.48e-05
3550	6.96e-05
3562	4.93e-05
3574	4.35e-05
3586	5.22e-05
3598	6.09e-05
3610	4.35e-05
3622	3.48e-05
3634	5.22e-05
3646	7.25e-05
3658	4.35e-05
3670	8.12e-05
3682	6.67e-05
3694	7.54e-05
3706	2.61e-05
3718	5.51e-05
3730	3.48e-05
3742	5.8e-05
3754	2.61e-05
3766	4.93e-05
3778	8.7e-05
3790	6.09e-05
3802	5.51e-05
3814	7.83e-05
3826	4.06e-05
3838	6.38e-05
