Infrared Spectrum: 3,4,5-Trimethylphenol
Formula: C 9 H 12 O
CAS: 527-54-8
State: gas
Origin: EPA-IR VAPOR PHASE LIBRARY
1/CM	ABSORBANCE
549.8	0.00774
559.445	0.00967
569.09	0.01034
578.734	0.01004
588.379	0.00718
598.024	0.00259
607.669	0.00102
617.313	0.0008266
626.958	0.000382
636.603	0.000355
646.248	0.0002521
655.893	0.0005194
665.537	0.0004778
675.182	0.00133
684.827	0.00466
694.472	0.0093
704.116	0.00555
713.761	0.0031
723.406	0.0035
733.051	0.00566
742.695	0.00516
752.34	0.00207
761.985	0.0009825
771.63	0.0009917
781.275	0.00115
790.919	0.00157
800.564	0.00266
810.209	0.00552
819.854	0.0122
829.498	0.02724
839.143	0.02248
848.788	0.02537
858.433	0.02797
868.078	0.01427
877.722	0.00699
887.367	0.00531
897.012	0.00479
906.657	0.00458
916.301	0.00355
925.946	0.0023
935.591	0.0019
945.236	0.00225
954.88	0.00451
964.525	0.01003
974.17	0.01413
983.815	0.01562
993.46	0.01698
1003.1	0.02085
1012.75	0.03419
1022.39	0.04374
1032.04	0.0349
1041.68	0.0178
1051.33	0.00943
1060.97	0.00702
1070.62	0.00773
1080.26	0.00828
1089.91	0.00777
1099.55	0.00915
1109.2	0.01349
1118.84	0.0357
1128.49	0.08305
1138.13	0.09052
1147.78	0.04792
1157.42	0.02089
1167.07	0.02818
1176.71	0.06299
1186.36	0.09545
1196	0.0816
1205.64	0.04481
1215.29	0.02494
1224.93	0.02069
1234.58	0.03949
1244.22	0.06149
1253.87	0.05436
1263.51	0.02628
1273.16	0.0286
1282.8	0.0313
1292.45	0.03339
1302.09	0.04473
1311.74	0.0545
1321.38	0.04013
1331.03	0.01503
1340.67	0.00702
1350.32	0.00632
1359.96	0.00666
1369.61	0.0097
1379.25	0.01222
1388.9	0.01176
1398.54	0.00928
1408.18	0.0112
1417.83	0.01733
1427.47	0.02873
1437.12	0.03916
1446.76	0.04256
1456.41	0.04335
1466.05	0.04955
1475.7	0.06658
1485.34	0.07637
1494.99	0.05788
1504.63	0.02745
1514.28	0.01644
1523.92	0.0137
1533.57	0.01309
1543.21	0.014
1552.86	0.01698
1562.5	0.02357
1572.15	0.03625
1581.79	0.05264
1591.44	0.06683
1601.08	0.07744
1610.73	0.08674
1620.37	0.07476
1630.01	0.04269
1639.66	0.01796
1649.3	0.00925
1658.95	0.00576
1668.59	0.0039
1678.24	0.00339
1687.88	0.00389
1697.53	0.00538
1707.17	0.00605
1716.82	0.00469
1726.46	0.00272
1736.11	0.00197
1745.75	0.00182
1755.4	0.00168
1765.04	0.00147
1774.69	0.00122
1784.33	0.0009283
1793.98	0.0008301
1803.62	0.000713
1813.27	0.000706
1822.91	0.0007884
1832.55	0.0008304
1842.2	0.0007827
1851.84	0.000857
1861.49	0.00122
1871.13	0.00141
1880.78	0.00124
1890.42	0.0009403
1900.07	0.0005773
1909.71	0.0003934
1919.36	0.0001913
1929	0.0001623
1938.65	0.0003273
1948.29	0.0003328
1957.94	0.0003892
1967.58	0.0003099
1977.23	0.0002734
1986.87	0.0002626
1996.52	0.0002927
2006.16	0.0002935
2015.81	0.0003525
2025.45	0.0003625
2035.1	0.000547
2044.74	0.0006436
2054.38	0.0006391
2064.03	0.0003947
2073.67	0.0004469
2083.32	0.0003638
2092.96	0.000567
2102.61	0.000929
2112.25	0.00101
2121.9	0.0006901
2131.54	0.0006642
2141.19	0.0008357
2150.83	0.00102
2160.48	0.00126
2170.12	0.00108
2179.77	0.0009081
2189.41	0.0008354
2199.06	0.0007099
2208.7	0.0005519
2218.35	0.000419
2227.99	0.0003733
2237.64	0.0002922
2247.28	0.0004626
2256.92	0.000561
2266.57	0.0009488
2276.21	0.0009022
2285.86	0.0008214
2295.5	0.0007161
2305.15	0.0007497
2314.79	0.0007773
2324.44	0.00112
2334.08	0.00105
2343.73	0.00109
2353.37	0.00103
2363.02	0.00131
2372.66	0.00154
2382.31	0.00138
2391.95	0.0012
2401.6	0.00106
2411.24	0.00113
2420.89	0.00148
2430.53	0.00187
2440.18	0.00224
2449.82	0.0022
2459.47	0.00186
2469.11	0.00146
2478.75	0.00131
2488.4	0.00133
2498.04	0.00119
2507.69	0.00112
2517.33	0.0009257
2526.98	0.0006863
2536.62	0.0005687
2546.27	0.0005574
2555.91	0.0005537
2565.56	0.0007078
2575.2	0.0006058
2584.85	0.0006524
2594.49	0.0007782
2604.14	0.0007827
2613.78	0.0008792
2623.43	0.0009429
2633.07	0.0007608
2642.72	0.0007469
2652.36	0.0006289
2662.01	0.0007014
2671.65	0.0006807
2681.29	0.0008873
2690.94	0.0007284
2700.58	0.00106
2710.23	0.00131
2719.87	0.00187
2729.52	0.00317
2739.16	0.0043
2748.81	0.0041
2758.45	0.00302
2768.1	0.00287
2777.74	0.0028
2787.39	0.00286
2797.03	0.00294
2806.68	0.00345
2816.32	0.00446
2825.97	0.00581
2835.61	0.00818
2845.26	0.01195
2854.9	0.01884
2864.55	0.03012
2874.19	0.04003
2883.84	0.04095
2893.48	0.0365
2903.12	0.03637
2912.77	0.04623
2922.41	0.06452
2932.06	0.07789
2941.7	0.07365
2951.35	0.06021
2960.99	0.04981
2970.64	0.04735
2980.28	0.04428
2989.93	0.03704
2999.57	0.03405
3009.22	0.03903
3018.86	0.03932
3028.51	0.03171
3038.15	0.02652
3047.8	0.02316
3057.44	0.01966
3067.09	0.01602
3076.73	0.01235
3086.38	0.00928
3096.02	0.00695
3105.67	0.00519
3115.31	0.00383
3124.95	0.00298
3134.6	0.00225
3144.24	0.00189
3153.89	0.00149
3163.53	0.00146
3173.18	0.00112
3182.82	0.0009618
3192.47	0.00101
3202.11	0.0007891
3211.76	0.0006825
3221.4	0.0004865
3231.05	0.0004894
3240.69	0.0004349
3250.34	0.0002367
3259.98	0.000223
3269.63	0.0002988
3279.27	0.0001746
3288.92	0.0001651
3298.56	0.0004212
3308.21	0.0003181
3317.85	0.0001102
3327.49	0.0002792
3337.14	0.0005769
3346.78	0.0008751
3356.43	0.00163
3366.07	0.00116
3375.72	0.0009355
3385.36	0.00117
3395.01	0.0012
3404.65	0.0009251
3414.3	0.0009268
3423.94	0.00072
3433.59	0.0005129
3443.23	0.0007608
3452.88	0.0002779
3462.52	0.0003673
3472.17	0.0006483
3481.81	0.0004199
3491.46	0.0003282
3501.1	0.0002953
3510.75	0.0003148
3520.39	0.0003173
3530.04	0.0002516
3539.68	0.0004584
3549.32	0.000133
3558.97	0.0005148
3568.61	0.0004228
3578.26	0.0002851
3587.9	0.0003813
3597.55	0.0004566
3607.19	0.00107
3616.84	0.00224
3626.48	0.00559
3636.13	0.02157
3645.77	0.06914
3655.42	0.07084
3665.06	0.02754
3674.71	0.00373
3684.35	0.00114
3694	0.0007185
3703.64	0.0005958
3713.29	4.265e-05
3722.93	0.0001604
3732.58	8.215e-05
3742.22	0.000264
3751.86	0.0003597
3761.51	0.0004236
3771.15	0.0004334
3780.8	0.0003561
3790.44	0.0005832
3800.09	0.0003215
3809.73	0.0004453
3819.38	0.0003686
3829.02	0.0003788
3838.67	0.0008056
3848.31	0.0008809
3857.96	0.0007804
3867.6	0.0008743
3877.25	0.0009273
3886.89	0.000825
3896.54	0.00107
3906.18	0.0009861
3915.83	0.0009303
3925.47	0.0007778
3935.12	0.00104
3944.76	0.0013
3954.41	0.00106
3964.05	0.0006814
3973.69	0.0005311
3983.34	0.0005216
3992.98	0.0004146
