Infrared Spectrum: o-Toluamide
Formula: C 8 H 9 N O
CAS: 527-85-5
State: gas
Origin: EPA-IR VAPOR PHASE LIBRARY
1/CM	ABSORBANCE
549.8	0.002318
559.445	0.001548
569.09	0.0011167
578.734	0.001178
588.379	0.000932
598.024	0.001418
607.669	0.004628
617.313	0.007738
626.958	0.006448
636.603	0.002588
646.248	0.002598
655.893	0.003418
665.537	0.003808
675.182	0.003698
684.827	0.003058
694.472	0.003158
704.116	0.003398
713.761	0.005308
723.406	0.010658
733.051	0.017928
742.695	0.015848
752.34	0.010488
761.985	0.006728
771.63	0.005828
781.275	0.005388
790.919	0.004828
800.564	0.004328
810.209	0.004008
819.854	0.004048
829.498	0.004178
839.143	0.003628
848.788	0.003348
858.433	0.003188
868.078	0.002898
877.722	0.003018
887.367	0.002728
897.012	0.002918
906.657	0.002858
916.301	0.002558
925.946	0.002518
935.591	0.002568
945.236	0.002508
954.88	0.002428
964.525	0.002178
974.17	0.001908
983.815	0.001568
993.46	0.001508
1003.1	0.001528
1012.75	0.002018
1022.39	0.001868
1032.04	0.002428
1041.68	0.003418
1051.33	0.004438
1060.97	0.004978
1070.62	0.005948
1080.26	0.004408
1089.91	0.002918
1099.55	0.002448
1109.2	0.001448
1118.84	0.001548
1128.49	0.001728
1138.13	0.001648
1147.78	0.002208
1157.42	0.001818
1167.07	0.001428
1176.71	0.001388
1186.36	0.001198
1196	0.001148
1205.64	0.0011338
1215.29	0.0010663
1224.93	0.001228
1234.58	0.001418
1244.22	0.002168
1253.87	0.002358
1263.51	0.003178
1273.16	0.004788
1282.8	0.005888
1292.45	0.006678
1302.09	0.008208
1311.74	0.012318
1321.38	0.020428
1331.03	0.031658
1340.67	0.035248
1350.32	0.024418
1359.96	0.010558
1369.61	0.005388
1379.25	0.003848
1388.9	0.003138
1398.54	0.002608
1408.18	0.002078
1417.83	0.002298
1427.47	0.002798
1437.12	0.003418
1446.76	0.003948
1456.41	0.004158
1466.05	0.004028
1475.7	0.003868
1485.34	0.003958
1494.99	0.003368
1504.63	0.002368
1514.28	0.001848
1523.92	0.001838
1533.57	0.002168
1543.21	0.002688
1552.86	0.004268
1562.5	0.008768
1572.15	0.018318
1581.79	0.025948
1591.44	0.022508
1601.08	0.013468
1610.73	0.007488
1620.37	0.004148
1630.01	0.002978
1639.66	0.002638
1649.3	0.002718
1658.95	0.003548
1668.59	0.005418
1678.24	0.008568
1687.88	0.012338
1697.53	0.020138
1707.17	0.044048
1716.82	0.072118
1726.46	0.061898
1736.11	0.027598
1745.75	0.010978
1755.4	0.006238
1765.04	0.003908
1774.69	0.002758
1784.33	0.001748
1793.98	0.001498
1803.62	0.001358
1813.27	0.0010824
1822.91	0.001046
1832.55	0.001141
1842.2	0.0010842
1851.84	0.0007489
1861.49	0.0006078
1871.13	0.0006918
1880.78	0.0007747
1890.42	0.0007079
1900.07	0.0007782
1909.71	0.0009966
1919.36	0.0009403
1929	0.0007695
1938.65	0.0007004
1948.29	0.0008744
1957.94	0.0006872
1967.58	0.0004431
1977.23	0.0003147
1986.87	0.0003141
1996.52	0.0002847
2006.16	0.0002605
2015.81	0.0003402
2025.45	0.0003396
2035.1	0.00022082
2044.74	0.000263
2054.38	0.0003036
2064.03	0.0002843
2073.67	0.00024731
2083.32	0.0002573
2092.96	0.0002145
2102.61	0.00023588
2112.25	0.0002578
2121.9	0.00024335
2131.54	0.00023823
2141.19	0.0002811
2150.83	0.00021763
2160.48	0.0002662
2170.12	0.00024406
2179.77	0.0002959
2189.41	0.0003372
2199.06	0.0003228
2208.7	0.000309
2218.35	0.00022029
2227.99	0.00015433
2237.64	0.0001131
2247.28	0.00021773
2256.92	0.000156289
2266.57	0.00022178
2276.21	0.00013948
2285.86	0.00019946
2295.5	0.0002903
2305.15	0.00021743
2314.79	0.00020721
2324.44	0.0003566
2334.08	0.0002823
2343.73	0.00024262
2353.37	0.0002553
2363.02	0.00019813
2372.66	0.000271
2382.31	0.0002588
2391.95	0.000394
2401.6	0.0003074
2411.24	0.0003348
2420.89	0.0003715
2430.53	0.0002969
2440.18	0.0003008
2449.82	0.00021764
2459.47	0.00023219
2469.11	0.0002591
2478.75	0.00021355
2488.4	0.0001275
2498.04	0.0001314
2507.69	0.00017164
2517.33	0.00016492
2526.98	0.00019565
2536.62	0
2546.27	0.00021999
2555.91	0.00019096
2565.56	0.00017792
2575.2	0.0003384
2584.85	0.00019869
2594.49	0.0002493
2604.14	0.00021446
2613.78	0.00019539
2623.43	0.0002656
2633.07	0.00024294
2642.72	0.0003941
2652.36	0.0003645
2662.01	0.0003161
2671.65	0.0003238
2681.29	0.0003321
2690.94	0.0002812
2700.58	0.0002317
2710.23	0.00020713
2719.87	0.0002593
2729.52	0.0002497
2739.16	0.00019604
2748.81	0.0004382
2758.45	0.0005361
2768.1	0.0004138
2777.74	0.0004741
2787.39	0.0005076
2797.03	0.000433
2806.68	0.0005081
2816.32	0.0004247
2825.97	0.0005591
2835.61	0.0006642
2845.26	0.000819
2854.9	0.0009773
2864.55	0.001338
2874.19	0.001768
2883.84	0.001888
2893.48	0.001738
2903.12	0.001898
2912.77	0.002218
2922.41	0.003018
2932.06	0.004018
2941.7	0.004228
2951.35	0.003558
2960.99	0.002798
2970.64	0.002718
2980.28	0.002828
2989.93	0.002488
2999.57	0.002268
3009.22	0.002588
3018.86	0.004078
3028.51	0.005048
3038.15	0.004518
3047.8	0.003728
3057.44	0.004968
3067.09	0.006988
3076.73	0.007048
3086.38	0.004578
3096.02	0.002368
3105.67	0.001708
3115.31	0.0011426
3124.95	0.0008293
3134.6	0.000789
3144.24	0.0007052
3153.89	0.0006304
3163.53	0.0004559
3173.18	0.0003183
3182.82	0.0003327
3192.47	0.0003381
3202.11	0.00024619
3211.76	0.0002958
3221.4	0.000155443
3231.05	0.0003538
3240.69	0.0002869
3250.34	0.00020641
3259.98	0.00022153
3269.63	0.0002635
3279.27	0.0004227
3288.92	0.0003582
3298.56	0.0005529
3308.21	0.0003146
3317.85	0.0001326
3327.49	0.0003229
3337.14	0.0002755
3346.78	0.00023509
3356.43	0.0003731
3366.07	0.0006525
3375.72	0.0005752
3385.36	0.001178
3395.01	0.001628
3404.65	0.002898
3414.3	0.005018
3423.94	0.007228
3433.59	0.007128
3443.23	0.004158
3452.88	0.001748
3462.52	0.0009495
3472.17	0.0008148
3481.81	0.0006819
3491.46	0.0008061
3501.1	0.001218
3510.75	0.001568
3520.39	0.002428
3530.04	0.003288
3539.68	0.004628
3549.32	0.005668
3558.97	0.004798
3568.61	0.002328
3578.26	0.0007303
3587.9	0.0005434
3597.55	0.0002579
3607.19	0.0003593
3616.84	0.0002966
3626.48	0.000392
3636.13	0.0003521
3645.77	0.0003615
3655.42	0.00020272
3665.06	0.00016631
3674.71	0.0002504
3684.35	0.0002923
3694	0.0003394
3703.64	0.00017362
3713.29	0.000346
3722.93	0.00021308
3732.58	0.00014374
3742.22	0.0003624
3751.86	0.0002537
3761.51	0.0003265
3771.15	0.00023438
3780.8	0.000324
3790.44	4.88e-05
3800.09	0.0003031
3809.73	0.00022544
3819.38	0.000251
3829.02	0.00035
3838.67	0.0002984
3848.31	0.0003496
3857.96	0.0005112
3867.6	0.0004398
3877.25	0.0004686
3886.89	0.0004491
3896.54	0.0002988
3906.18	0.0003172
3915.83	0.0002936
3925.47	0.0002963
3935.12	0.0002966
3944.76	0.0002685
3954.41	0.0001152
3964.05	0.00021105
3973.69	6.31e-05
3983.34	0.00014108
3992.98	0.0002922
