Infrared Spectrum: Duroquinone
Formula: C 10 H 12 O 2
CAS: 527-17-3
State: gas
Instrument: HP-GC/MS/IRD
Origin: NIST Mass Spectrometry Data Center
1/CM	ABSORBANCE
550	0.000286
562	7.15e-05
574	0.0002574
586	0.0007865
598	0.0013728
610	0.0021736
622	0.0024739
634	0.0011011
646	0.0006435
658	0.0005434
670	0.0008151
682	0.0020878
694	0.0067782
706	0.0094952
718	0.004147
730	0.0019448
742	0.0012298
754	0.0008008
766	0.000858
778	0.0009724
790	0.001716
802	0.0039325
814	0.0055341
826	0.0035893
838	0.0030459
850	0.0066209
862	0.0075361
874	0.0025311
886	0.0010296
898	0.0009009
910	0.0010296
922	0.0012584
934	0.0014586
946	0.0016159
958	0.0019305
970	0.0030316
982	0.0048906
994	0.0071357
1006	0.008723
1018	0.0091091
1030	0.0092378
1042	0.0103389
1054	0.0138281
1066	0.0138996
1078	0.0080795
1090	0.0044616
1102	0.0044044
1114	0.0066495
1126	0.0090948
1138	0.005005
1150	0.0023452
1162	0.002002
1174	0.0020163
1186	0.0023452
1198	0.0031889
1210	0.0043472
1222	0.0061347
1234	0.010439
1246	0.022451
1258	0.0355212
1270	0.029458
1282	0.0322465
1294	0.0468182
1306	0.040469
1318	0.0221221
1330	0.0109109
1342	0.0066066
1354	0.0068497
1366	0.0161876
1378	0.0347347
1390	0.0244387
1402	0.0100815
1414	0.0078793
1426	0.0072787
1438	0.0068497
1450	0.0064779
1462	0.0061347
1474	0.0064064
1486	0.0073502
1498	0.0077363
1510	0.0065923
1522	0.005577
1534	0.0050908
1546	0.0049621
1558	0.0047333
1570	0.0043472
1582	0.0046618
1594	0.0068926
1606	0.0127842
1618	0.0269126
1630	0.0462748
1642	0.0659945
1654	0.120635
1666	0.133905
1678	0.0474045
1690	0.0145717
1702	0.0083655
1714	0.0061204
1726	0.0046475
1738	0.0027599
1750	0.0017017
1762	0.0013442
1774	0.001144
1786	0.0009009
1798	0.0008151
1810	0.0007722
1822	0.000715
1834	0.0006721
1846	0.0005291
1858	0.0003432
1870	0.0002717
1882	0.0002431
1894	0.0002717
1906	0.0003003
1918	0.0004147
1930	0.0004433
1942	0.0003575
1954	0.0003003
1966	0.0002717
1978	0.0002431
1990	0.0002717
2002	0.0002717
2014	0.0002717
2026	0.0002574
2038	0.0002002
2050	0.0002288
2062	0.0002288
2074	0.0002002
2086	0.0001287
2098	8.58e-05
2110	0.0001144
2122	0.0001287
2134	0.0002145
2146	0.0003146
2158	0.0003146
2170	0.0002717
2182	0.0002717
2194	0.0002288
2206	0.000286
2218	0.0003146
2230	0.000429
2242	0.0005863
2254	0.0004576
2266	0.0004004
2278	0.0003861
2290	0.0003289
2302	0.0002145
2314	0.0001716
2326	0.0001716
2338	0.0001573
2350	0.0002288
2362	0.0002145
2374	0.0002717
2386	0.0002574
2398	0.000286
2410	0.0002717
2422	0.0002431
2434	0.0002431
2446	0.0002431
2458	0.0002717
2470	0.0002574
2482	0.0002431
2494	0.0002002
2506	0.0002717
2518	0.0002145
2530	8.58e-05
2542	2.86e-05
2554	2.86e-05
2566	5.72e-05
2578	0.0001573
2590	0.0002574
2602	0.0003003
2614	0.0002717
2626	0.0003718
2638	0.0005148
2650	0.0004576
2662	0.0002574
2674	0.0001716
2686	0.000143
2698	0.0001859
2710	0.0002288
2722	0.0003718
2734	0.0006292
2746	0.0009295
2758	0.0007722
2770	0.0005148
2782	0.0005148
2794	0.0005434
2806	0.0007007
2818	0.0009581
2830	0.0014729
2842	0.0023881
2854	0.0041756
2866	0.0062062
2878	0.0064922
2890	0.0063778
2902	0.0073216
2914	0.0099385
2926	0.0183469
2938	0.0264407
2950	0.0195195
2962	0.0113256
2974	0.0069498
2986	0.0050622
2998	0.0048477
3010	0.0055484
3022	0.0065208
3034	0.0066209
3046	0.0059774
3058	0.0052481
3070	0.0042328
3082	0.0029458
3094	0.001859
3106	0.0013299
3118	0.0009867
3130	0.0007865
3142	0.000715
3154	0.0006292
3166	0.0005863
3178	0.0004862
3190	0.0004862
3202	0.0004004
3214	0.0003861
3226	0.0004576
3238	0.0005863
3250	0.0008294
3262	0.0014157
3274	0.0028171
3286	0.0039325
3298	0.0031746
3310	0.0019019
3322	0.0012012
3334	0.0007865
3346	0.0005291
3358	0.0003861
3370	0.0003003
3382	0.0002002
3394	0.0001716
3406	0.0002288
3418	0.0001287
3430	8.58e-05
3442	0.0001287
3454	0.0001859
3466	0.0001716
3478	0.0001859
3490	0.0001573
3502	0.0001144
3514	8.58e-05
3526	0.0001573
3538	0.0001144
3550	8.58e-05
3562	0.0001144
3574	0.0001573
3586	8.58e-05
3598	0.0001001
3610	0.000143
3622	0.0001573
3634	0.0001144
3646	0.000143
3658	0.0001144
3670	0.0001001
3682	0.0001573
3694	0.0001001
3706	0.0001287
3718	0.0002145
3730	0.0002002
3742	0.0002002
3754	0.0001573
3766	0.0001573
3778	0.0001716
3790	0.0001859
3802	0.0001716
3814	0.0002002
3826	0.0002145
3838	0.0002145
