Infrared Spectrum: O,O'-SULFINYL DIBENZOIC ACID
Formula: C14 H10 O5 S
CAS: 52704-04-8
State: SOLID (NUJOL MULL)
Class: COBLENTZ
Instrument: Not specified, most likely a prism, grating, or hybrid spectrometer.
Sampling: TRANSMISSION
Resolution: 4
Origin: TENNESSEE EASTMAN COMPANY, RESEARCH LABORATORIES
MICROMETERS	TRANSMITTANCE
2.02	0.41
2.05894	0.418
2.09788	0.438
2.13682	0.448
2.17575	0.459
2.21469	0.472
2.25363	0.478
2.29257	0.477
2.33151	0.478
2.37045	0.491
2.40939	0.511
2.44833	0.519
2.48726	0.543
2.5262	0.553
2.56514	0.56
2.60408	0.564
2.64302	0.582
2.68196	0.603
2.7209	0.621
2.75983	0.634
2.79877	0.621
2.83771	0.595
2.87665	0.581
2.91559	0.579
2.95453	0.543
2.99347	0.535
3.03241	0.538
3.07134	0.527
3.11028	0.493
3.14922	0.439
3.18816	0.396
3.2271	0.391
3.26604	0.36
3.30498	0.34
3.34391	0.207
3.38285	0.035
3.42179	0.009
3.46073	0.004
3.49967	0.019
3.53861	0.292
3.57755	0.358
3.61649	0.405
3.65542	0.436
3.69436	0.459
3.7333	0.474
3.77224	0.459
3.81118	0.428
3.85012	0.405
3.88906	0.417
3.92799	0.443
3.96693	0.446
4.00587	0.426
4.04481	0.409
4.08375	0.412
4.12269	0.426
4.16163	0.449
4.20057	0.475
4.2395	0.493
4.27844	0.506
4.31738	0.511
4.35632	0.55
4.39526	0.587
4.4342	0.6
4.47314	0.615
4.51207	0.621
4.55101	0.636
4.58995	0.654
4.62889	0.678
4.66783	0.683
4.70677	0.689
4.74571	0.704
4.78464	0.712
4.82358	0.727
4.86252	0.741
4.90146	0.754
4.9404	0.754
4.97934	0.758
5.01828	0.759
5.05722	0.756
5.09615	0.753
5.13509	0.751
5.17403	0.748
5.21297	0.741
5.25191	0.738
5.29085	0.722
5.32979	0.715
5.36872	0.701
5.40766	0.68
5.4466	0.676
5.48554	0.678
5.52448	0.689
5.56342	0.706
5.60236	0.72
5.6413	0.73
5.68023	0.732
5.71917	0.704
5.75811	0.491
5.79705	0.112
5.83599	0.144
5.87493	0.22
5.91387	0.284
5.9528	0.352
5.99174	0.441
6.03068	0.389
6.06962	0.362
6.10856	0.386
6.1475	0.537
6.18644	0.615
6.22538	0.657
6.26431	0.676
6.30325	0.438
6.34219	0.62
6.38113	0.639
6.42007	0.728
6.45901	0.767
6.49795	0.772
6.53688	0.785
6.57582	0.787
6.61476	0.784
6.6537	0.772
6.69264	0.712
6.73158	0.517
6.77052	0.379
6.80946	0.243
6.84839	0.241
6.88733	0.301
6.92627	0.327
6.96521	0.574
7.00415	0.647
7.04309	0.694
7.08203	0.722
7.12096	0.689
7.1599	0.587
7.19884	0.485
7.23778	0.366
7.27672	0.345
7.31566	0.488
7.3546	0.589
7.39354	0.642
7.43247	0.647
7.47141	0.639
7.51035	0.612
7.54929	0.538
7.58823	0.462
7.62717	0.368
7.66611	0.327
7.70504	0.267
7.74398	0.222
7.78292	0.185
7.82186	0.224
7.8608	0.285
7.89974	0.308
7.93868	0.334
7.97762	0.321
8.01655	0.375
8.05549	0.345
8.09443	0.24
8.13337	0.212
8.17231	0.251
8.21125	0.332
8.25019	0.418
8.28912	0.514
8.32806	0.573
8.367	0.623
8.40594	0.654
8.44488	0.673
8.48382	0.676
8.52276	0.659
8.5617	0.681
8.60063	0.709
8.63957	0.681
8.67851	0.59
8.71745	0.495
8.75639	0.602
8.79533	0.629
8.83427	0.65
8.8732	0.665
8.91214	0.568
8.95108	0.498
8.99002	0.464
9.02896	0.495
9.0679	0.626
9.10684	0.702
9.14578	0.753
9.18471	0.775
9.22365	0.792
9.26259	0.8
9.30153	0.806
9.34047	0.81
9.37941	0.798
9.41835	0.675
9.45728	0.618
9.49622	0.68
9.53516	0.761
9.5741	0.79
9.61304	0.793
9.65198	0.788
9.69092	0.79
9.72986	0.792
9.76879	0.79
9.80773	0.774
9.84667	0.733
9.88561	0.689
9.92455	0.662
9.96349	0.634
10.0024	0.587
10.0414	0.573
10.0803	0.525
10.1192	0.422
10.1582	0.292
10.1971	0.212
10.2361	0.178
10.275	0.172
10.3139	0.175
10.3529	0.202
10.3918	0.215
10.4308	0.238
10.4697	0.251
10.5086	0.267
10.5476	0.282
10.5865	0.305
10.6254	0.339
10.6644	0.375
10.7033	0.409
10.7423	0.443
10.7812	0.474
10.8201	0.509
10.8591	0.545
10.898	0.563
10.937	0.602
10.9759	0.628
11.0148	0.65
11.0538	0.665
11.0927	0.68
11.1316	0.685
11.1706	0.688
11.2095	0.704
11.2485	0.711
11.2874	0.712
11.3263	0.72
11.3653	0.733
11.4042	0.751
11.4432	0.756
11.4821	0.762
11.521	0.769
11.56	0.771
11.5989	0.774
11.6378	0.775
11.6768	0.777
11.7157	0.777
11.7547	0.779
11.7936	0.78
11.8325	0.779
11.8715	0.78
11.9104	0.782
11.9494	0.785
11.9883	0.787
12.0272	0.785
12.0662	0.785
12.1051	0.787
12.1441	0.782
12.183	0.769
12.2219	0.75
12.2609	0.724
12.2998	0.701
12.3387	0.667
12.3777	0.615
12.4166	0.525
12.4556	0.467
12.4945	0.444
12.5334	0.446
12.5724	0.452
12.6113	0.454
12.6503	0.519
12.6892	0.576
12.7281	0.621
12.7671	0.641
12.806	0.652
12.8449	0.659
12.8839	0.66
12.9228	0.659
12.9618	0.637
13.0007	0.573
13.0396	0.498
13.0786	0.409
13.1175	0.404
13.1565	0.438
13.1954	0.371
13.2343	0.29
13.2733	0.373
13.3122	0.553
13.3512	0.633
13.3901	0.678
13.429	0.702
13.468	0.715
13.5069	0.72
13.5458	0.722
13.5848	0.724
13.6237	0.725
13.6627	0.727
13.7016	0.728
13.7405	0.728
13.7795	0.725
13.8184	0.725
13.8574	0.727
13.8963	0.73
13.9352	0.733
13.9742	0.735
14.0131	0.735
14.052	0.732
14.091	0.704
14.1299	0.665
14.1689	0.639
14.2078	0.628
14.2467	0.625
14.2857	0.616
14.3246	0.602
14.3636	0.576
14.4025	0.537
14.4414	0.5
14.4804	0.475
14.5193	0.474
14.5582	0.482
14.5972	0.5
14.6361	0.514
14.6751	0.529
14.714	0.545
14.7529	0.551
14.7919	0.563
14.8308	0.599
14.8698	0.618
14.9087	0.634
14.9476	0.641
14.9866	0.644
15.0255	0.642
15.0645	0.642
15.1034	0.644
15.1423	0.642
15.1813	0.642
15.2202	0.642
15.2591	0.639
15.2981	0.633
15.337	0.62
15.376	0.599
15.4149	0.571
15.4538	0.547
15.4928	0.538
15.5317	0.529
15.5707	0.514
15.6096	0.501
15.6485	0.495
15.6875	0.495
15.7264	0.5
15.7653	0.508
15.8043	0.522
15.8432	0.543
15.8822	0.551
15.9211	0.551
15.96	0.553
