Infrared Spectrum: 1,3-Propane diisothiocyanate
Formula: C 5 H 6 N 2 S 2
CAS: 52714-52-0
State: gas
Origin: EPA-IR VAPOR PHASE LIBRARY
1/CM	ABSORBANCE
549.8	0.010851
559.445	0.009721
569.09	0.008381
578.734	0.007141
588.379	0.005471
598.024	0.004321
607.669	0.003411
617.313	0.003161
626.958	0.002511
636.603	0.002291
646.248	0.002581
655.893	0.002841
665.537	0.002751
675.182	0.002841
684.827	0.003211
694.472	0.003121
704.116	0.003411
713.761	0.003011
723.406	0.002491
733.051	0.0016229
742.695	0.0014092
752.34	0.0011588
761.985	0.001203
771.63	0.001771
781.275	0.002451
790.919	0.003331
800.564	0.003591
810.209	0.004111
819.854	0.003851
829.498	0.003251
839.143	0.002721
848.788	0.002411
858.433	0.002001
868.078	0.001941
877.722	0.0014662
887.367	0.0015561
897.012	0.001651
906.657	0.0013169
916.301	0.001781
925.946	0.001901
935.591	0.001941
945.236	0.002811
954.88	0.004401
964.525	0.005681
974.17	0.005031
983.815	0.004081
993.46	0.003331
1003.1	0.003131
1012.75	0.003181
1022.39	0.003331
1032.04	0.003381
1041.68	0.004171
1051.33	0.004951
1060.97	0.006461
1070.62	0.006771
1080.26	0.005531
1089.91	0.004861
1099.55	0.003911
1109.2	0.003261
1118.84	0.004291
1128.49	0.003861
1138.13	0.003601
1147.78	0.003551
1157.42	0.003591
1167.07	0.003171
1176.71	0.002871
1186.36	0.002811
1196	0.003771
1205.64	0.004281
1215.29	0.004971
1224.93	0.005281
1234.58	0.004951
1244.22	0.004421
1253.87	0.004211
1263.51	0.005141
1273.16	0.005511
1282.8	0.005921
1292.45	0.007391
1302.09	0.011481
1311.74	0.019761
1321.38	0.026831
1331.03	0.040811
1340.67	0.048561
1350.32	0.043021
1359.96	0.036471
1369.61	0.029401
1379.25	0.022491
1388.9	0.011711
1398.54	0.006611
1408.18	0.004841
1417.83	0.004371
1427.47	0.005631
1437.12	0.007671
1446.76	0.012301
1456.41	0.024931
1466.05	0.027671
1475.7	0.008121
1485.34	0.003241
1494.99	0.002171
1504.63	0.001721
1514.28	0.0014976
1523.92	0.001415
1533.57	0.0013796
1543.21	0.0012518
1552.86	0.0010882
1562.5	0.0011687
1572.15	0.001149
1581.79	0.0010104
1591.44	0.0009972
1601.08	0.0010608
1610.73	0.0009742
1620.37	0.000984
1630.01	0.0010214
1639.66	0.0010101
1649.3	0.0010996
1658.95	0.0010172
1668.59	0.0011741
1678.24	0.001027
1687.88	0.0010403
1697.53	0.0009566
1707.17	0.0009135
1716.82	0.0011808
1726.46	0.0011228
1736.11	0.0011058
1745.75	0.0011701
1755.4	0.001095
1765.04	0.0011932
1774.69	0.0012346
1784.33	0.0013081
1793.98	0.0014336
1803.62	0.0015997
1813.27	0.001811
1822.91	0.001971
1832.55	0.002151
1842.2	0.002461
1851.84	0.003001
1861.49	0.003741
1871.13	0.004631
1880.78	0.005861
1890.42	0.007431
1900.07	0.009421
1909.71	0.011941
1919.36	0.015081
1929	0.018691
1938.65	0.023411
1948.29	0.029741
1957.94	0.038271
1967.58	0.049971
1977.23	0.066811
1986.87	0.091801
1996.52	0.128441
2006.16	0.180551
2015.81	0.250111
2025.45	0.329001
2035.1	0.398211
2044.74	0.433181
2054.38	0.410841
2064.03	0.340891
2073.67	0.256651
2083.32	0.184151
2092.96	0.135581
2102.61	0.108281
2112.25	0.094011
2121.9	0.084331
2131.54	0.076131
2141.19	0.067641
2150.83	0.058501
2160.48	0.050241
2170.12	0.043361
2179.77	0.039201
2189.41	0.037061
2199.06	0.036321
2208.7	0.035231
2218.35	0.032581
2227.99	0.027621
2237.64	0.021431
2247.28	0.015681
2256.92	0.011631
2266.57	0.008791
2276.21	0.007071
2285.86	0.005861
2295.5	0.005021
2305.15	0.004321
2314.79	0.003911
2324.44	0.003561
2334.08	0.003161
2343.73	0.002791
2353.37	0.002261
2363.02	0.002001
2372.66	0.001841
2382.31	0.001751
2391.95	0.0014916
2401.6	0.0014314
2411.24	0.0012647
2420.89	0.0012792
2430.53	0.0013393
2440.18	0.0013514
2449.82	0.0012839
2459.47	0.0012401
2469.11	0.0014185
2478.75	0.0013995
2488.4	0.0014975
2498.04	0.0014878
2507.69	0.001681
2517.33	0.001701
2526.98	0.001891
2536.62	0.001891
2546.27	0.001871
2555.91	0.002111
2565.56	0.002371
2575.2	0.002341
2584.85	0.002271
2594.49	0.002081
2604.14	0.0015582
2613.78	0.0015195
2623.43	0.001326
2633.07	0.0012804
2642.72	0.0016189
2652.36	0.001671
2662.01	0.001911
2671.65	0.002291
2681.29	0.002951
2690.94	0.003761
2700.58	0.004391
2710.23	0.005161
2719.87	0.005881
2729.52	0.006431
2739.16	0.006391
2748.81	0.005861
2758.45	0.005121
2768.1	0.004421
2777.74	0.003711
2787.39	0.003151
2797.03	0.002731
2806.68	0.002581
2816.32	0.002571
2825.97	0.002411
2835.61	0.002631
2845.26	0.002801
2854.9	0.003341
2864.55	0.004271
2874.19	0.006841
2883.84	0.011411
2893.48	0.013251
2903.12	0.009891
2912.77	0.006871
2922.41	0.007661
2932.06	0.011141
2941.7	0.016011
2951.35	0.021681
2960.99	0.028031
2970.64	0.026081
2980.28	0.012431
2989.93	0.005291
2999.57	0.002971
3009.22	0.002281
3018.86	0.0015194
3028.51	0.0015013
3038.15	0.0012221
3047.8	0.0008495
3057.44	0.0008472
3067.09	0.0007981
3076.73	0.00067406
3086.38	0.00066411
3096.02	0.00074
3105.67	0.000494
3115.31	0.0005464
3124.95	0.00066936
3134.6	0.000515
3144.24	0.000477
3153.89	0.000489
3163.53	0.000508
3173.18	0.00031
3182.82	0.000313
3192.47	0.000492
3202.11	0.000389
3211.76	0.000495
3221.4	0.000133
3231.05	0.000119
3240.69	0.000242
3250.34	0.000248
3259.98	0.000115
3269.63	0.000148
3279.27	0.00021
3288.92	0.000325
3298.56	0.00026
3308.21	0.000179
3317.85	0.000447
3327.49	0.000113
3337.14	0.000288
3346.78	0.00026
3356.43	0.000483
3366.07	0.000244
3375.72	0.000417
3385.36	0.00037
3395.01	0.0004
3404.65	0.000319
3414.3	0.000359
3423.94	0.000291
3433.59	0.0005447
3443.23	0.000372
3452.88	0.000377
3462.52	0.000299
3472.17	0.000338
3481.81	0.000258
3491.46	0.000433
3501.1	0.00033
3510.75	0.000375
3520.39	0.000322
3530.04	0.000469
3539.68	0.000358
3549.32	0.00036
3558.97	0.0002
3568.61	0.000392
3578.26	0.0005514
3587.9	0.000256
3597.55	0.000504
3607.19	0.000509
3616.84	0.000407
3626.48	0.000337
3636.13	0.000263
3645.77	0.000483
3655.42	0.000428
3665.06	0.000311
3674.71	0.000504
3684.35	0.00052
3694	0.000371
3703.64	0.000426
3713.29	0.00043
3722.93	0.000568
3732.58	0.000345
3742.22	0.0005406
3751.86	0.00064579
3761.51	0.00064857
3771.15	0.0005506
3780.8	0.000385
3790.44	0.000368
3800.09	0.0005828
3809.73	0.00062822
3819.38	0.0005414
3829.02	0.000517
3838.67	0.0007216
3848.31	0.0006246
3857.96	0.0005349
3867.6	0.0006195
3877.25	0.00072998
3886.89	0.0006154
3896.54	0.00070632
3906.18	0.0009505
3915.83	0.001056
3925.47	0.0010836
3935.12	0.0009453
3944.76	0.001045
3954.41	0.0010367
3964.05	0.0014246
3973.69	0.0012241
3983.34	0.0011129
3992.98	0.001751
