Infrared Spectrum: 3-Chloro-3-methylheptane
Formula: C 8 H 17 Cl
CAS: 5272-02-6
State: gas
Instrument: HP-GC/MS/IRD
Origin: NIST Mass Spectrometry Data Center
1/CM	ABSORBANCE
550	0.0010295
562	0.001276
574	0.0016008
586	0.0012557
598	0.0007105
610	0.0013601
622	0.0016559
634	0.0009628
646	0.0002726
658	9.57e-05
670	9.28e-05
682	2.32e-05
694	0.0001102
706	0.0001508
718	0.0003422
730	0.0005394
742	0.0007134
754	0.0008149
766	0.0008062
778	0.001015
790	0.0012789
802	0.0016675
814	0.0022446
826	0.001885
838	0.0010585
850	0.0003915
862	0.0002668
874	0.0003248
886	0.0004205
898	0.0005365
910	0.0006322
922	0.0003857
934	0.000348
946	0.0003625
958	0.0003335
970	0.0006264
982	0.0009628
994	0.0015312
1006	0.0018125
1018	0.0012992
1030	0.0008468
1042	0.0008352
1054	0.0009048
1066	0.0009222
1078	0.0011774
1090	0.0012499
1102	0.0014181
1114	0.002117
1126	0.0031668
1138	0.0028507
1150	0.0023258
1162	0.0019401
1174	0.0014007
1186	0.0012325
1198	0.0010382
1210	0.0007598
1222	0.0007917
1234	0.0007859
1246	0.0006728
1258	0.0007308
1270	0.0008149
1282	0.0011484
1294	0.0013166
1306	0.0011977
1318	0.0011078
1330	0.0013079
1342	0.0015544
1354	0.0014152
1366	0.0020155
1378	0.0043181
1390	0.0043587
1402	0.0016066
1414	0.0010005
1426	0.0013137
1438	0.0024766
1450	0.0046342
1462	0.0059711
1474	0.0043413
1486	0.0018502
1498	0.0009019
1510	0.0006177
1522	0.0005075
1534	0.0004234
1546	0.0003654
1558	0.0003509
1570	0.00029
1582	0.0002639
1594	0.0002175
1606	0.0001827
1618	0.0001653
1630	0.0001653
1642	0.0001537
1654	0.0001508
1666	8.7e-05
1678	0.0001218
1690	5.8e-05
1702	4.64e-05
1714	2.32e-05
1726	5.8e-06
1738	3.19e-05
1750	3.48e-05
1762	3.19e-05
1774	5.22e-05
1786	6.38e-05
1798	7.83e-05
1810	2.9e-05
1822	2.9e-05
1834	4.93e-05
1846	5.51e-05
1858	3.77e-05
1870	1.74e-05
1882	2.03e-05
1894	5.8e-05
1906	1.16e-05
1918	2.9e-05
1930	4.35e-05
1942	4.35e-05
1954	4.64e-05
1966	3.48e-05
1978	1.16e-05
1990	3.48e-05
2002	3.77e-05
2014	4.64e-05
2026	4.64e-05
2038	5.51e-05
2050	5.51e-05
2062	5.51e-05
2074	4.64e-05
2086	4.93e-05
2098	4.64e-05
2110	3.77e-05
2122	4.06e-05
2134	7.54e-05
2146	3.77e-05
2158	4.93e-05
2170	5.51e-05
2182	3.19e-05
2194	3.48e-05
2206	3.19e-05
2218	6.09e-05
2230	4.06e-05
2242	2.61e-05
2254	4.35e-05
2266	5.51e-05
2278	3.48e-05
2290	4.64e-05
2302	2.32e-05
2314	3.19e-05
2326	5.51e-05
2338	0.0001015
2350	8.7e-05
2362	0.0001566
2374	6.96e-05
2386	0.0001015
2398	8.99e-05
2410	8.99e-05
2422	6.09e-05
2434	7.25e-05
2446	6.96e-05
2458	6.09e-05
2470	6.67e-05
2482	6.67e-05
2494	1.16e-05
2506	5.8e-05
2518	4.93e-05
2530	9.57e-05
2542	6.96e-05
2554	0.0001044
2566	0.0001131
2578	0.0001392
2590	0.0001421
2602	0.0001421
2614	0.0001566
2626	0.0002001
2638	0.0001798
2650	0.0002465
2662	0.0002784
2674	0.0003306
2686	0.0002871
2698	0.0002813
2710	0.0003103
2722	0.000348
2734	0.0004901
2746	0.0006148
2758	0.0005829
2770	0.0005742
2782	0.0006873
2794	0.00087
2806	0.0011426
2818	0.0014355
2830	0.0020387
2842	0.0033089
2854	0.0051794
2866	0.0084477
2878	0.0120089
2890	0.0129688
2902	0.0124845
2914	0.0139867
2926	0.0184498
2938	0.0266626
2950	0.0283011
2962	0.0268192
2974	0.0288579
2986	0.0202043
2998	0.0111128
3010	0.0050054
3022	0.0025636
3034	0.0018647
3046	0.0014152
3058	0.0011571
3070	0.0010962
3082	0.0009889
3094	0.0009135
3106	0.000783
3118	0.000609
3130	0.0005336
3142	0.0004292
3154	0.0003915
3166	0.0004379
3178	0.0003828
3190	0.0003393
3202	0.000319
3214	0.0002581
3226	0.0002523
3238	0.0002262
3250	0.0002001
3262	0.0001247
3274	0.0001392
3286	9.86e-05
3298	9.57e-05
3310	9.57e-05
3322	0.0001363
3334	7.83e-05
3346	6.09e-05
3358	0.0001479
3370	8.99e-05
3382	8.41e-05
3394	8.41e-05
3406	2.9e-05
3418	6.96e-05
3430	7.83e-05
3442	4.93e-05
3454	0.0001218
3466	8.99e-05
3478	0.0001073
3490	7.25e-05
3502	0.0001218
3514	0.0001015
3526	4.35e-05
3538	1.74e-05
3550	0.0001131
3562	9.86e-05
3574	0.0001073
3586	7.54e-05
3598	9.57e-05
3610	8.41e-05
3622	6.67e-05
3634	0.0001131
3646	0.0001305
3658	9.57e-05
3670	9.57e-05
3682	0.0001189
3694	0.0001189
3706	0.0001189
3718	0.000145
3730	0.0001189
3742	0.000145
3754	0.0001537
3766	0.0001653
3778	0.0001189
3790	0.0001885
3802	0.0001566
3814	0.0001856
3826	0.0001827
3838	0.0001827
