Infrared Spectrum: 3-(Trifluoromethoxy)benzonitrile
Formula: C 8 H 4 F 3 N O
CAS: 52771-22-9
State: gas
Origin: EPA-IR VAPOR PHASE LIBRARY
1/CM	ABSORBANCE
549.8	0.0020289
559.445	0.00246
569.09	0.0013034
578.734	0.0020006
588.379	0.00417
598.024	0.00361
607.669	0.00387
617.313	0.00457
626.958	0.00892
636.603	0.01228
646.248	0.00661
655.893	0.00428
665.537	0.00831
675.182	0.0165
684.827	0.01588
694.472	0.01427
704.116	0.01067
713.761	0.00634
723.406	0.00487
733.051	0.0048
742.695	0.00483
752.34	0.00384
761.985	0.00525
771.63	0.00673
781.275	0.01204
790.919	0.02075
800.564	0.01917
810.209	0.00857
819.854	0.00411
829.498	0.00346
839.143	0.00488
848.788	0.00938
858.433	0.01428
868.078	0.01261
877.722	0.01067
887.367	0.01302
897.012	0.01121
906.657	0.00658
916.301	0.00377
925.946	0.00382
935.591	0.00399
945.236	0.00455
954.88	0.00575
964.525	0.00841
974.17	0.00652
983.815	0.00485
993.46	0.0046
1003.1	0.00552
1012.75	0.0039
1022.39	0.00319
1032.04	0.00367
1041.68	0.00322
1051.33	0.00363
1060.97	0.00611
1070.62	0.00525
1080.26	0.00598
1089.91	0.00855
1099.55	0.00782
1109.2	0.00774
1118.84	0.00951
1128.49	0.01224
1138.13	0.01989
1147.78	0.02652
1157.42	0.03536
1167.07	0.05819
1176.71	0.10735
1186.36	0.20278
1196	0.28349
1205.64	0.30042
1215.29	0.42472
1224.93	0.4108
1234.58	0.20008
1244.22	0.14928
1253.87	0.22765
1263.51	0.3826
1273.16	0.46068
1282.8	0.30133
1292.45	0.14219
1302.09	0.07036
1311.74	0.03936
1321.38	0.02372
1331.03	0.0152
1340.67	0.00984
1350.32	0.00673
1359.96	0.00584
1369.61	0.00495
1379.25	0.00472
1388.9	0.00425
1398.54	0.00473
1408.18	0.00566
1417.83	0.01008
1427.47	0.01719
1437.12	0.0198
1446.76	0.01385
1456.41	0.0075
1466.05	0.01111
1475.7	0.02573
1485.34	0.03244
1494.99	0.02261
1504.63	0.00912
1514.28	0.00523
1523.92	0.005
1533.57	0.00524
1543.21	0.00517
1552.86	0.00705
1562.5	0.01206
1572.15	0.02165
1581.79	0.03209
1591.44	0.0284
1601.08	0.02185
1610.73	0.01614
1620.37	0.0091
1630.01	0.00542
1639.66	0.00389
1649.3	0.00285
1658.95	0.00344
1668.59	0.00272
1678.24	0.00254
1687.88	0.00225
1697.53	0.00312
1707.17	0.00276
1716.82	0.00269
1726.46	0.00221
1736.11	0.00208
1745.75	0.00204
1755.4	0.00283
1765.04	0.00277
1774.69	0.00322
1784.33	0.00302
1793.98	0.00317
1803.62	0.00302
1813.27	0.00295
1822.91	0.00286
1832.55	0.00231
1842.2	0.0023
1851.84	0.00219
1861.49	0.00225
1871.13	0.00293
1880.78	0.00341
1890.42	0.00277
1900.07	0.00233
1909.71	0.0019531
1919.36	0.0020095
1929	0.00238
1938.65	0.00294
1948.29	0.00306
1957.94	0.00272
1967.58	0.00231
1977.23	0.0017641
1986.87	0.0018325
1996.52	0.0017046
2006.16	0.0019756
2015.81	0.0018339
2025.45	0.00208
2035.1	0.00228
2044.74	0.00253
2054.38	0.00286
2064.03	0.00323
2073.67	0.00339
2083.32	0.00317
2092.96	0.00262
2102.61	0.00242
2112.25	0.00253
2121.9	0.00277
2131.54	0.00292
2141.19	0.00276
2150.83	0.0020016
2160.48	0.00207
2170.12	0.0018771
2179.77	0.001538
2189.41	0.0016838
2199.06	0.00206
2208.7	0.00234
2218.35	0.00265
2227.99	0.00363
2237.64	0.00405
2247.28	0.00321
2256.92	0.001666
2266.57	0.001405
2276.21	0.001807
2285.86	0.001703
2295.5	0.0018138
2305.15	0.0014182
2314.79	0.0015984
2324.44	0.0016526
2334.08	0.00214
2343.73	0.0020196
2353.37	0.0019375
2363.02	0.00219
2372.66	0.0019472
2382.31	0.00252
2391.95	0.00234
2401.6	0.00235
2411.24	0.00263
2420.89	0.00339
2430.53	0.00388
2440.18	0.00436
2449.82	0.00348
2459.47	0.00315
2469.11	0.00288
2478.75	0.00299
2488.4	0.00322
2498.04	0.00262
2507.69	0.00243
2517.33	0.00246
2526.98	0.00279
2536.62	0.00286
2546.27	0.00266
2555.91	0.00228
2565.56	0.0019071
2575.2	0.0018776
2584.85	0.0011991
2594.49	0.0016838
2604.14	0.0011616
2613.78	0.001206
2623.43	0.0012318
2633.07	0.0010156
2642.72	0.000861
2652.36	0.0014844
2662.01	0.000977
2671.65	0.0012917
2681.29	0.0014756
2690.94	0.0013564
2700.58	0.0013774
2710.23	0.0017575
2719.87	0.0013199
2729.52	0.0011695
2739.16	0.0014525
2748.81	0.00125
2758.45	0.001387
2768.1	0.0011278
2777.74	0.0009991
2787.39	0.0014503
2797.03	0.00107417
2806.68	0.0016897
2816.32	0.000864
2825.97	0.000928
2835.61	0.00092
2845.26	0.0009659
2854.9	0.0016147
2864.55	0.0014587
2874.19	0.0014163
2883.84	0.0016012
2893.48	0.000926
2903.12	0.00102194
2912.77	0.00111857
2922.41	0.0015199
2932.06	0.0016868
2941.7	0.0016547
2951.35	0.0016353
2960.99	0.0012862
2970.64	0.000254
2980.28	0.0011491
2989.93	0.000636
2999.57	0.0011532
3009.22	0.0013032
3018.86	0.0012094
3028.51	0.0011667
3038.15	0.0012016
3047.8	0.0016483
3057.44	0.00216
3067.09	0.00257
3076.73	0.00383
3086.38	0.00506
3096.02	0.00405
3105.67	0.0018925
3115.31	0.0015843
3124.95	0.0015672
3134.6	0.00052
3144.24	0.0010115
3153.89	0.00102317
3163.53	0.0012023
3173.18	0.0014023
3182.82	0.0011437
3192.47	0.0015061
3202.11	0.0012876
3211.76	0.0009767
3221.4	0.0010181
3231.05	0.000812
3240.69	0.000732
3250.34	0.00105942
3259.98	0.00111904
3269.63	0.0015332
3279.27	0.0012146
3288.92	0.000532
3298.56	0.00110325
3308.21	0.00287
3317.85	0.0014205
3327.49	0.0015933
3337.14	0.00014
3346.78	0.0015587
3356.43	0.0009466
3366.07	0.0015345
3375.72	0.00105791
3385.36	0.000919
3395.01	0.0012165
3404.65	0.000595
3414.3	0.0015115
3423.94	0.0011973
3433.59	0.0016828
3443.23	0.0009843
3452.88	0.0017266
3462.52	0.0010931
3472.17	0.0016946
3481.81	0.000725
3491.46	0.0016038
3501.1	0.000806
3510.75	0.0010181
3520.39	0.000719
3530.04	0.0012293
3539.68	0.0012636
3549.32	0.000661
3558.97	0.0011312
3568.61	0.000904
3578.26	0.0011573
3587.9	0.0018282
3597.55	0.00109775
3607.19	0.0012923
3616.84	0.0009556
3626.48	0.0011971
3636.13	0.0013828
3645.77	0.0012364
3655.42	0.000736
3665.06	0.00110566
3674.71	0.0014158
3684.35	0.000751
3694	0.00107349
3703.64	0.00103992
3713.29	0.0015391
3722.93	0.00218
3732.58	0.000417
3742.22	0.00108899
3751.86	0.0015714
3761.51	0.000617
3771.15	0.0015565
3780.8	0.0013032
3790.44	0.0018808
3800.09	0.00109408
3809.73	0.0014358
3819.38	0.0007
3829.02	0.0015654
3838.67	0.000713
3848.31	0.00102343
3857.96	0.00106908
3867.6	0.0009516
3877.25	0.0011549
3886.89	0.00108226
3896.54	0.0010191
3906.18	0.001358
3915.83	0.00103341
3925.47	0.00105288
3935.12	0.0012221
3944.76	0.0009659
3954.41	0.0012924
3964.05	0.00077
3973.69	0.0014516
3983.34	0.0011503
3992.98	0.0015011
