Infrared Spectrum: Didodecylamine, N-butyl-
Formula: C28 H59 N
CAS: 52770-72-6
State: SOLUTION (10% CCl4 FOR 3800-1330, 10% CS2 FOR 1330-460 CM^-^1) VS SOLVENT
Class: COBLENTZ III
Instrument: DOW KBr FOREPRISM-GRATING
Instrument parameters: BLAZED AT 3.5, 12.0, 20.0 MICRON AND CHANGED AT 5.0, 7.5, 14.9 MICRON
Sampling: TRANSMISSION
Path length: 0.011 CM, 0.011 CM
Resolution: 2
Origin: DOW CHEMICAL COMPANY
1/CM	TRANSMITTANCE
461	0.8447
470	0.8416
479	0.8405
488	0.8364
497	0.8285
506	0.821
515	0.8233
524	0.8283
533	0.8323
542	0.8351
551	0.8391
560	0.8441
569	0.8496
578	0.8564
587	0.8619
596	0.8674
605	0.8746
614	0.8837
623	0.891
632	0.8957
641	0.8985
650	0.8981
659	0.8956
668	0.8886
677	0.9117
686	0.9059
695	0.893
704	0.8537
713	0.7787
722	0.625
731	0.7308
740	0.7992
749	0.8327
758	0.8494
767	0.8533
776	0.8574
785	0.8683
794	0.8653
803	0.8669
812	0.8749
821	0.889
830	0.8956
839	0.9019
848	0.9116
857	0.897
866	0.8904
875	0.8893
884	0.8854
893	0.8793
902	0.874
911	0.8966
920	0.8957
929	0.8848
938	0.8721
947	0.8714
956	0.8821
965	0.8937
974	0.889
983	0.8834
992	0.8786
1001	0.8761
1010	0.8753
1019	0.8747
1028	0.8755
1037	0.8675
1046	0.8519
1055	0.8298
1064	0.8008
1073	0.7367
1082	0.663
1091	0.6402
1100	0.6779
1109	0.7593
1118	0.8315
1127	0.852
1136	0.8453
1145	0.8224
1154	0.8221
1163	0.8218
1172	0.8096
1181	0.7873
1190	0.8139
1199	0.8404
1208	0.8586
1217	0.8519
1226	0.839
1235	0.8212
1244	0.8035
1253	0.7868
1262	0.7762
1271	0.7657
1280	0.7565
1289	0.7242
1298	0.6759
1307	0.6582
1316	0.7264
1325	0.7675
1334	0.7477
1343	0.7185
1352	0.6758
1361	0.6234
1370	0.5839
1379	0.4658
1388	0.6518
1397	0.7846
1406	0.8062
1415	0.8002
1424	0.7775
1433	0.6949
1442	0.5584
1451	0.4521
1460	0.2517
1469	0.161
1478	0.6556
1487	0.7808
1496	0.8189
1505	0.8344
1514	0.8471
1523	0.8573
1532	0.8673
1541	0.8782
1550	0.8867
1559	0.8862
1568	0.8755
1577	0.8694
1586	0.8706
1595	0.8722
1604	0.8663
1613	0.8583
1622	0.8494
1631	0.8401
1640	0.8339
1649	0.8283
1658	0.8321
1667	0.8395
1676	0.8456
1685	0.8469
1694	0.8509
1703	0.8596
1712	0.8608
1721	0.8605
1730	0.8608
1739	0.8612
1748	0.8646
1757	0.8705
1766	0.8757
1775	0.8771
1784	0.8784
1793	0.8788
1802	0.8792
1811	0.8776
1820	0.8759
1829	0.8741
1838	0.8738
1847	0.8735
1856	0.8729
1865	0.8725
1874	0.8727
1883	0.8728
1892	0.8723
1901	0.8715
1910	0.8698
1919	0.8681
1928	0.8682
1937	0.8685
1946	0.8687
1955	0.8688
1964	0.869
1973	0.8695
1982	0.8698
1991	0.8708
2000	0.9069
2009	0.9086
2018	0.9049
2027	0.9018
2036	0.9037
2045	0.9064
2054	0.9081
2063	0.9084
2072	0.9084
2081	0.9083
2090	0.9082
2099	0.908
2108	0.908
2117	0.9079
2126	0.9078
2135	0.9076
2144	0.9073
2153	0.9069
2162	0.9067
2171	0.9067
2180	0.9066
2189	0.9061
2198	0.9058
2207	0.9049
2216	0.9039
2225	0.9026
2234	0.9017
2243	0.9017
2252	0.9017
2261	0.9018
2270	0.9019
2279	0.9023
2288	0.8999
2297	0.8947
2306	0.8973
2315	0.9063
2324	0.908
2333	0.9071
2342	0.9056
2351	0.9032
2360	0.8999
2369	0.8957
2378	0.8917
2387	0.889
2396	0.8881
2405	0.8889
2414	0.8895
2423	0.8898
2432	0.8895
2441	0.889
2450	0.8886
2459	0.888
2468	0.8858
2477	0.8836
2486	0.8814
2495	0.879
2504	0.8767
2513	0.8735
2522	0.8704
2531	0.8656
2540	0.8609
2549	0.8563
2558	0.8518
2567	0.8469
2576	0.8411
2585	0.8352
2594	0.8283
2603	0.8214
2612	0.8145
2621	0.8058
2630	0.7971
2639	0.7861
2648	0.7738
2657	0.7611
2666	0.7483
2675	0.7411
2684	0.7416
2693	0.7364
2702	0.7157
2711	0.6863
2720	0.6616
2729	0.6335
2738	0.6301
2747	0.6268
2756	0.6108
2765	0.5851
2774	0.5459
2783	0.4703
2792	0.3182
2801	0.3285
2810	0.3727
2819	0.4013
2828	0.398
2837	0.3479
2846	0.0785
2855	0.0044
2864	0.0345
2873	0.0822
2882	0.1585
2891	0.1254
2900	0.0642
2909	0.0062
2918	0.0001
2927	0
2936	0.0016
2945	0.0116
2954	0.0146
2963	0.0242
2972	0.1421
2981	0.3478
2990	0.4817
2999	0.6033
3008	0.682
3017	0.7143
3026	0.748
3035	0.7643
3044	0.78
3053	0.7917
3062	0.8014
3071	0.8092
3080	0.8157
3089	0.8215
3098	0.8269
3107	0.8308
3116	0.8342
3125	0.8367
3134	0.8377
3143	0.8386
3152	0.8382
3161	0.8375
3170	0.8366
3179	0.8364
3188	0.8367
3197	0.8378
3206	0.8402
3215	0.8428
3224	0.8452
3233	0.8461
3242	0.8465
3251	0.8464
3260	0.8461
3269	0.8457
3278	0.8455
3287	0.8452
3296	0.8451
3305	0.8442
3314	0.8429
3323	0.8415
3332	0.8402
3341	0.839
3350	0.838
3359	0.8369
3368	0.8359
3377	0.8374
3386	0.839
3395	0.8405
3404	0.8423
3413	0.8445
3422	0.8467
3431	0.849
3440	0.8514
3449	0.8536
3458	0.856
3467	0.8583
3476	0.8606
3485	0.8624
3494	0.8642
3503	0.8655
3512	0.8667
3521	0.8679
3530	0.8688
3539	0.8692
3548	0.8698
3557	0.8703
3566	0.8696
3575	0.8687
3584	0.8677
3593	0.8684
3602	0.8694
3611	0.8705
3620	0.872
3629	0.8734
3638	0.8747
3647	0.8751
3656	0.875
3665	0.874
3674	0.8741
3683	0.8742
3692	0.8749
3701	0.8758
3710	0.8767
3719	0.8776
3728	0.8782
3737	0.8787
3746	0.8748
3755	0.8717
3764	0.8704
3773	0.8702
3782	0.8699
3791	0.8703
