Infrared Spectrum: 1,2-Dibromo-4,5-methylenedioxybenzene
Formula: C 7 H 4 Br 2 O 2
CAS: 5279-32-3
State: gas
Origin: EPA-IR VAPOR PHASE LIBRARY
1/CM	ABSORBANCE
549.9	0.0019937
559.547	0.0019574
569.193	0.0021563
578.84	0.0024979
588.486	0.00345
598.133	0.00411
607.779	0.00614
617.426	0.02124
627.072	0.03908
636.719	0.00547
646.365	0.0022536
656.012	0.001914
665.658	0.00208057
675.305	0.0025103
684.951	0.00333
694.598	0.01037
704.245	0.01397
713.891	0.00602
723.538	0.00715
733.184	0.0024457
742.831	0.0019657
752.477	0.00203012
762.124	0.00208367
771.77	0.0022593
781.417	0.0028706
791.063	0.00375
800.71	0.00449
810.356	0.01103
820.003	0.02863
829.649	0.01785
839.296	0.01284
848.943	0.03511
858.589	0.06466
868.236	0.01744
877.882	0.00514
887.529	0.00451
897.175	0.00652
906.822	0.00696
916.468	0.00912
926.115	0.01971
935.761	0.04331
945.408	0.06272
955.054	0.03612
964.701	0.01099
974.347	0.00695
983.994	0.00699
993.64	0.0084
1003.29	0.00932
1012.93	0.01512
1022.58	0.03394
1032.23	0.0719
1041.87	0.10806
1051.52	0.083
1061.17	0.05562
1070.81	0.07134
1080.46	0.04937
1090.11	0.01547
1099.75	0.01582
1109.4	0.02247
1119.05	0.02385
1128.69	0.02797
1138.34	0.04994
1147.99	0.03509
1157.63	0.01276
1167.28	0.01047
1176.92	0.01358
1186.57	0.02549
1196.22	0.0418
1205.86	0.06081
1215.51	0.15711
1225.16	0.28129
1234.8	0.12746
1244.45	0.0342
1254.1	0.01353
1263.74	0.00723
1273.39	0.00572
1283.04	0.00456
1292.68	0.00407
1302.33	0.0053
1311.98	0.00922
1321.62	0.01487
1331.27	0.01149
1340.92	0.00754
1350.56	0.01379
1360.21	0.01482
1369.86	0.00933
1379.5	0.00751
1389.15	0.00885
1398.79	0.0151
1408.44	0.02
1418.09	0.02145
1427.73	0.02122
1437.38	0.03436
1447.03	0.08986
1456.67	0.12667
1466.32	0.19868
1475.97	0.46657
1485.61	0.16548
1495.26	0.02916
1504.91	0.04666
1514.55	0.0268
1524.2	0.00653
1533.85	0.00411
1543.49	0.00353
1553.14	0.0029728
1562.79	0.0025794
1572.43	0.0025461
1582.08	0.0027611
1591.73	0.00337
1601.37	0.0045
1611.02	0.00607
1620.67	0.00503
1630.31	0.00375
1639.96	0.0029489
1649.6	0.0029188
1659.25	0.0029499
1668.9	0.00335
1678.54	0.00462
1688.19	0.00876
1697.84	0.00824
1707.48	0.00352
1717.13	0.0023635
1726.78	0.0021942
1736.42	0.0022743
1746.07	0.0024222
1755.72	0.0027974
1765.36	0.0032
1775.01	0.00329
1784.66	0.00326
1794.3	0.00347
1803.95	0.00385
1813.6	0.00344
1823.24	0.00341
1832.89	0.00398
1842.54	0.00495
1852.18	0.00469
1861.83	0.00387
1871.47	0.00373
1881.12	0.00384
1890.77	0.0034
1900.41	0.0023724
1910.06	0.001954
1919.71	0.001873
1929.35	0.00204253
1939	0.0023642
1948.65	0.0025533
1958.29	0.00211061
1967.94	0.001917
1977.59	0.0019473
1987.23	0.001885
1996.88	0.001864
2006.53	0.0020208
2016.17	0.0023217
2025.82	0.0026852
2035.47	0.00348
2045.11	0.00402
2054.76	0.00342
2064.41	0.00314
2074.05	0.003011
2083.7	0.0029861
2093.35	0.0023769
2102.99	0.00173
2112.64	0.001569
2122.28	0.001644
2131.93	0.001765
2141.58	0.001909
2151.22	0.001728
2160.87	0.001513
2170.52	0.001423
2180.16	0.001378
2189.81	0.001336
2199.46	0.001362
2209.1	0.001445
2218.75	0.001572
2228.4	0.001888
2238.04	0.001935
2247.69	0.0021665
2257.34	0.0025612
2266.98	0.0029437
2276.63	0.00339
2286.28	0.00346
2295.92	0.00327
2305.57	0.0026144
2315.22	0.001972
2324.86	0.001741
2334.51	0.00149
2344.16	0.001276
2353.8	0.00128
2363.45	0.001245
2373.09	0.001362
2382.74	0.001232
2392.39	0.001091
2402.03	0.00108
2411.68	0.001084
2421.33	0.001109
2430.97	0.001143
2440.62	0.001295
2450.27	0.001449
2459.91	0.001359
2469.56	0.001312
2479.21	0.001455
2488.85	0.001871
2498.5	0.0024527
2508.15	0.0026315
2517.79	0.0022599
2527.44	0.0023328
2537.09	0.0027286
2546.73	0.00313
2556.38	0.0028725
2566.03	0.001909
2575.67	0.001454
2585.32	0.001229
2594.96	0.00104
2604.61	0.001112
2614.26	0.001151
2623.9	0.001152
2633.55	0.001093
2643.2	0.00118
2652.84	0.00132
2662.49	0.001546
2672.14	0.001808
2681.78	0.0019869
2691.43	0.0022521
2701.08	0.00234
2710.72	0.001831
2720.37	0.001526
2730.02	0.001503
2739.66	0.001866
2749.31	0.0024367
2758.96	0.00352
2768.6	0.00645
2778.25	0.00949
2787.9	0.00619
2797.54	0.00404
2807.19	0.00397
2816.84	0.00435
2826.48	0.00515
2836.13	0.0063
2845.77	0.00774
2855.42	0.01021
2865.07	0.01323
2874.71	0.01741
2884.36	0.02967
2894.01	0.0364
2903.65	0.02683
2913.3	0.02691
2922.95	0.02996
2932.59	0.02501
2942.24	0.01916
2951.89	0.01747
2961.53	0.01636
2971.18	0.01296
2980.83	0.01217
2990.47	0.01048
3000.12	0.00715
3009.77	0.0083
3019.41	0.01305
3029.06	0.00957
3038.71	0.00547
3048.35	0.00404
3058	0.0028485
3067.64	0.001756
3077.29	0.001373
3086.94	0.001838
3096.58	0.0025987
3106.23	0.001129
3115.88	0.00057
3125.52	0.00026
3135.17	0.0002
3144.82	0.0001
3154.46	6e-05
3164.11	0
3173.76	0.00015
3183.4	0.0002
3193.05	0.00032
3202.7	0.00036
3212.34	0.00041
3221.99	0.0004
3231.64	0.00028
3241.28	0.00012
3250.93	0.00033
3260.58	0.00035
3270.22	0.00021
3279.87	0.00025
3289.52	0.00026
3299.16	0.00032
3308.81	0.00052
3318.45	0.0005
3328.1	0.0005
3337.75	0.00044
3347.39	0.00045
3357.04	0.00057
3366.69	0.00067
3376.33	0.00068
3385.98	0.00061
3395.63	0.0007
3405.27	0.00074
3414.92	0.00072
3424.57	0.00069
3434.21	0.00087
3443.86	0.00069
3453.51	0.00077
3463.15	0.00083
3472.8	0.00097
3482.45	0.00097
3492.09	0.001102
3501.74	0.00098
3511.39	0.001077
3521.03	0.00098
3530.68	0.001082
3540.33	0.00098
3549.97	0.001
3559.62	0.00096
3569.26	0.001045
3578.91	0.001119
3588.56	0.001054
3598.2	0.001123
3607.85	0.001222
3617.5	0.001117
3627.14	0.001148
3636.79	0.00101
3646.44	0.001231
3656.08	0.001163
3665.73	0.0012
3675.38	0.001201
3685.02	0.001207
3694.67	0.001175
3704.32	0.001255
3713.96	0.001224
3723.61	0.001376
3733.26	0.001314
3742.9	0.001185
3752.55	0.001238
3762.2	0.001232
3771.84	0.001208
3781.49	0.001174
3791.13	0.001238
3800.78	0.001197
3810.43	0.001238
3820.07	0.001193
3829.72	0.001174
3839.37	0.001093
3849.01	0.001169
3858.66	0.001158
3868.31	0.001064
3877.95	0.001083
3887.6	0.001141
3897.25	0.001104
3906.89	0.001259
3916.54	0.00131
3926.19	0.001292
3935.83	0.001536
3945.48	0.001463
3955.13	0.001353
3964.77	0.001302
3974.42	0.001555
3984.07	0.001486
3993.71	0.001425
