Infrared Spectrum: Aniline, p-tert-butyl-N-methyl-
Formula: C11 H17 N
CAS: 5279-59-4
State: LIQUID (NEAT)
Class: COBLENTZ III
Instrument: BECKMAN IR-4 (HYBRID PRISM-GRATING)
Instrument parameters: NaCl PRISM
Sampling: TRANSMISSION
Path length: CAPILLARY
Resolution: 2
Origin: MONSANTO (J. FREEMAN)
1/CM	TRANSMITTANCE
623.83	0.8423
632.707	0.82
641.583	0.8023
650.46	0.8116
659.337	0.8573
668.213	0.8873
677.09	0.8675
685.967	0.8599
694.843	0.8586
703.72	0.8617
712.597	0.8646
721.473	0.8498
730.35	0.78
739.227	0.8634
748.103	0.8728
756.98	0.8447
765.857	0.8734
774.733	0.8707
783.61	0.8458
792.487	0.7594
801.363	0.588
810.24	0.2049
819.117	0.1084
827.993	0.5883
836.87	0.7624
845.747	0.8437
854.623	0.8887
863.5	0.9079
872.377	0.9168
881.253	0.9182
890.13	0.9094
899.007	0.9193
907.883	0.9109
916.76	0.8835
925.637	0.8366
934.513	0.7976
943.39	0.5826
952.267	0.7911
961.143	0.8911
970.02	0.9187
978.897	0.9251
987.773	0.9237
996.65	0.9211
1005.53	0.896
1014.4	0.8991
1023.28	0.8795
1032.16	0.8936
1041.03	0.8576
1049.91	0.696
1058.79	0.5492
1067.66	0.7549
1076.54	0.8358
1085.42	0.8505
1094.29	0.8305
1103.17	0.7616
1112.05	0.5971
1120.92	0.6911
1129.8	0.6168
1138.68	0.62
1147.55	0.62
1156.43	0.4553
1165.31	0.4925
1174.18	0.5172
1183.06	0.6692
1191.94	0.26
1200.81	0.3851
1209.69	0.4533
1218.57	0.5837
1227.44	0.5555
1236.32	0.6254
1245.2	0.6523
1254.07	0.4528
1262.95	0.1659
1271.83	0.3329
1280.7	0.5597
1289.58	0.672
1298.46	0.4936
1307.33	0.328
1316.21	0.4743
1325.09	0.2585
1333.96	0.3717
1342.84	0.3832
1351.72	0.3491
1360.59	0.3008
1369.47	0.3008
1378.35	0.6822
1387.22	0.6885
1396.1	0.5097
1404.98	0.6589
1413.85	0.7827
1422.73	0.746
1431.61	0.6497
1440.48	0.5375
1449.36	0.3935
1458.24	0.3528
1467.11	0.3152
1475.99	0.331
1484.87	0.2654
1493.74	0.3471
1502.62	0.4665
1511.5	0.3721
1520.37	0.1089
1529.25	0.0657
1538.13	0.2446
1547	0.4536
1555.88	0.6215
1564.76	0.669
1573.63	0.7423
1582.51	0.7425
1591.39	0.6971
1600.26	0.6001
1609.14	0.3364
1618.02	0.1086
1626.89	0.3061
1635.77	0.5346
1644.65	0.707
1653.52	0.8445
1662.4	0.8816
1671.28	0.8965
1680.15	0.9088
1689.03	0.9188
1697.91	0.9269
1706.78	0.9311
1715.66	0.9341
1724.54	0.9354
1733.41	0.9349
1742.29	0.9283
1751.17	0.9202
1760.04	0.9145
1768.92	0.9183
1777.8	0.9218
1786.67	0.9284
1795.55	0.9316
1804.43	0.9323
1813.3	0.9321
1822.18	0.9318
1831.06	0.9293
1839.93	0.9236
1848.81	0.9138
1857.69	0.8966
1866.56	0.8754
1875.44	0.8606
1884.32	0.8681
1893.19	0.8964
1902.07	0.9106
1910.95	0.9206
1919.82	0.929
1928.7	0.9346
1937.58	0.9374
1946.45	0.9383
1955.33	0.9378
1964.21	0.9372
1973.08	0.9363
1981.96	0.9355
1990.84	0.9358
1999.71	0.9385
2008.59	0.9409
2017.47	0.943
2026.34	0.9449
2035.22	0.9466
2044.1	0.9468
2052.97	0.9468
2061.85	0.9464
2070.73	0.9453
2079.6	0.9432
2088.48	0.9401
2097.36	0.9361
2106.23	0.9311
2115.11	0.9265
2123.99	0.9246
2132.86	0.9281
2141.74	0.9402
2150.62	0.9432
2159.49	0.9449
2168.37	0.9456
2177.25	0.9463
2186.12	0.9463
2195	0.9464
2203.88	0.9461
2212.75	0.9457
2221.63	0.9453
2230.51	0.9449
2239.38	0.9444
2248.26	0.944
2257.14	0.9434
2266.01	0.9427
2274.89	0.9419
2283.77	0.941
2292.64	0.9403
2301.52	0.9397
2310.4	0.939
2319.27	0.9384
2328.15	0.9378
2337.03	0.9373
2345.9	0.9367
2354.78	0.9362
2363.66	0.9357
2372.53	0.9352
2381.41	0.9346
2390.29	0.934
2399.16	0.9341
2408.04	0.9344
2416.92	0.9347
2425.79	0.935
2434.67	0.9351
2443.55	0.9351
2452.42	0.9342
2461.3	0.9328
2470.18	0.9309
2479.05	0.9293
2487.93	0.9285
2496.81	0.9279
2505.68	0.9278
2514.56	0.9277
2523.44	0.9277
2532.31	0.9277
2541.19	0.926
2550.07	0.9214
2558.94	0.9162
2567.82	0.9117
2576.7	0.9072
2585.57	0.9024
2594.45	0.8986
2603.33	0.897
2612.2	0.9006
2621.08	0.9059
2629.96	0.9098
2638.83	0.9101
2647.71	0.9099
2656.59	0.9097
2665.46	0.9095
2674.34	0.9093
2683.22	0.9087
2692.09	0.9079
2700.97	0.9066
2709.85	0.9028
2718.72	0.8904
2727.6	0.8771
2736.48	0.8732
2745.35	0.8692
2754.23	0.8625
2763.11	0.847
2771.98	0.8286
2780.86	0.7928
2789.74	0.7264
2798.61	0.6601
2807.49	0.5944
2816.37	0.529
2825.24	0.4639
2834.12	0.4391
2843	0.4686
2851.87	0.4868
2860.75	0.45
2869.63	0.4003
2878.5	0.351
2887.38	0.302
2896.26	0.2519
2905.13	0.2205
2914.01	0.2131
2922.89	0.2079
2931.76	0.2045
2940.64	0.1809
2949.52	0.1326
2958.39	0.0888
2967.27	0.0836
2976.15	0.1232
2985.02	0.2375
2993.9	0.3512
3002.78	0.4368
3011.65	0.4848
3020.53	0.5094
3029.41	0.5427
3038.28	0.576
3047.16	0.5961
3056.04	0.5992
3064.91	0.6022
3073.79	0.6196
3082.67	0.672
3091.54	0.6927
3100.42	0.7152
3109.3	0.7644
3118.17	0.8132
3127.05	0.835
3135.93	0.8564
3144.8	0.8697
3153.68	0.8765
3162.56	0.8819
3171.43	0.8862
3180.31	0.8893
3189.19	0.8905
3198.06	0.891
3206.94	0.8904
3215.82	0.8897
3224.69	0.8886
3233.57	0.8874
3242.45	0.8863
3251.32	0.8842
3260.2	0.8818
3269.08	0.8775
3277.95	0.8713
3286.83	0.8632
3295.71	0.8553
3304.58	0.8465
3313.46	0.83
3322.34	0.8106
3331.21	0.7998
3340.09	0.7894
3348.97	0.7814
3357.84	0.754
3366.72	0.7146
3375.6	0.6753
3384.47	0.6363
3393.35	0.5973
3402.23	0.5588
3411.1	0.5254
3419.98	0.5209
3428.86	0.548
3437.73	0.6323
3446.61	0.7162
3455.49	0.7996
3464.36	0.8532
3473.24	0.8703
3482.12	0.8803
3490.99	0.8874
3499.87	0.8917
3508.75	0.8949
3517.62	0.8982
3526.5	0.9013
3535.38	0.904
3544.25	0.9067
3553.13	0.9093
3562.01	0.9114
3570.88	0.9134
3579.76	0.9155
3588.64	0.9174
3597.51	0.9194
3606.39	0.9209
3615.27	0.9223
3624.14	0.9236
3633.02	0.9249
3641.9	0.9263
3650.77	0.9273
3659.65	0.928
3668.53	0.9288
3677.4	0.9296
3686.28	0.9304
3695.16	0.9313
3704.03	0.9318
3712.91	0.9323
3721.79	0.9328
3730.66	0.9333
3739.54	0.9337
3748.42	0.9343
3757.29	0.9348
3766.17	0.9351
3775.05	0.9351
3783.92	0.9351
3792.8	0.9349
3801.68	0.9344
3810.55	0.9336
3819.43	0.9328
3828.31	0.932
3837.18	0.9312
3846.06	0.9304
3854.94	0.9297
3863.81	0.9289
3872.69	0.9282
3881.57	0.9275
3890.44	0.9268
3899.32	0.9261
3908.2	0.9254
3917.07	0.9248
3925.95	0.9241
3934.83	0.9236
3943.7	0.9231
3952.58	0
