Infrared Spectrum: 1,2-Dinitrobenzene
Formula: C 6 H 4 N 2 O 4
CAS: 528-29-0
State: gas
Instrument: HP-GC/MS/IRD
Origin: NIST Mass Spectrometry Data Center
1/CM	ABSORBANCE
550	0.0002555
562	8.05e-05
574	0.0003115
586	0.0004655
598	0.0001995
610	6.65e-05
622	5.6e-05
634	0.000371
646	0.000903
658	0.000763
670	0.0005355
682	0.0007595
694	0.0022995
706	0.0033565
718	0.002261
730	0.0025585
742	0.001673
754	0.0014875
766	0.0027615
778	0.0037765
790	0.0015225
802	0.000378
814	0.000525
826	0.001596
838	0.0042735
850	0.004361
862	0.0027335
874	0.000861
886	0.000175
898	3.5e-05
910	2.8e-05
922	4.2e-05
934	9.1e-05
946	0.0001435
958	0.0001855
970	7.35e-05
982	2.8e-05
994	3.5e-06
1006	2.1e-05
1018	3.85e-05
1030	0.000231
1042	0.0002415
1054	0.0001155
1066	0.0001645
1078	0.0002345
1090	8.75e-05
1102	0.000112
1114	0.0001785
1126	0.0001995
1138	0.0001995
1150	0.0002205
1162	0.000161
1174	0.0002065
1186	0.0001995
1198	0.000182
1210	0.0001435
1222	0.0001435
1234	0.000238
1246	0.000294
1258	0.0004165
1270	0.0006195
1282	0.0008085
1294	0.0010255
1306	0.0012355
1318	0.0020405
1330	0.0043085
1342	0.0115605
1354	0.018879
1366	0.010528
1378	0.003521
1390	0.001841
1402	0.001393
1414	0.0009135
1426	0.000651
1438	0.0007455
1450	0.001036
1462	0.0011375
1474	0.001351
1486	0.0012705
1498	0.001302
1510	0.001974
1522	0.0041055
1534	0.008694
1546	0.017885
1558	0.0323155
1570	0.0289905
1582	0.0146895
1594	0.00756
1606	0.003626
1618	0.002002
1630	0.0016415
1642	0.0012005
1654	0.000812
1666	0.000497
1678	0.0003395
1690	0.0002485
1702	0.00021
1714	0.000245
1726	0.0002695
1738	0.0002625
1750	0.0001575
1762	0.0001225
1774	9.8e-05
1786	6.3e-05
1798	7.35e-05
1810	0.0001575
1822	0.0002695
1834	0.000203
1846	9.1e-05
1858	0.000119
1870	7e-05
1882	5.25e-05
1894	7.35e-05
1906	0.000105
1918	0.000126
1930	0.000203
1942	0.00021
1954	0.00014
1966	0.0001785
1978	0.0001225
1990	6.3e-05
2002	4.55e-05
2014	3.85e-05
2026	1.75e-05
2038	2.1e-05
2050	3.85e-05
2062	7e-06
2074	0
2086	2.8e-05
2098	3.15e-05
2110	3.15e-05
2122	4.9e-05
2134	3.5e-05
2146	5.25e-05
2158	3.15e-05
2170	4.9e-05
2182	4.9e-05
2194	2.1e-05
2206	4.9e-05
2218	8.75e-05
2230	5.25e-05
2242	5.25e-05
2254	5.25e-05
2266	4.55e-05
2278	2.45e-05
2290	5.25e-05
2302	6.65e-05
2314	8.4e-05
2326	7.7e-05
2338	5.25e-05
2350	3.5e-05
2362	1.75e-05
2374	5.25e-05
2386	7.35e-05
2398	0.000119
2410	0.00014
2422	0.00014
2434	8.05e-05
2446	3.85e-05
2458	2.8e-05
2470	3.5e-06
2482	2.45e-05
2494	3.15e-05
2506	2.8e-05
2518	4.2e-05
2530	1.75e-05
2542	3.85e-05
2554	1.75e-05
2566	7e-06
2578	3.85e-05
2590	3.85e-05
2602	3.5e-05
2614	7e-05
2626	8.05e-05
2638	8.4e-05
2650	8.75e-05
2662	0.0001225
2674	0.000168
2686	0.0002275
2698	0.00028
2710	0.000203
2722	0.000182
2734	0.000168
2746	0.0001015
2758	7.35e-05
2770	5.6e-05
2782	8.4e-05
2794	7.35e-05
2806	8.05e-05
2818	7e-05
2830	9.45e-05
2842	0.0001155
2854	0.0001715
2866	0.0002345
2878	0.000392
2890	0.0005425
2902	0.0006405
2914	0.000581
2926	0.0003885
2938	0.0002905
2950	0.000189
2962	0.0001435
2974	8.05e-05
2986	8.4e-05
2998	9.1e-05
3010	0.0001435
3022	0.000147
3034	0.000168
3046	0.000147
3058	0.00021
3070	0.00028
3082	0.000448
3094	0.000553
3106	0.000322
3118	0.000175
3130	9.1e-05
3142	5.95e-05
3154	4.2e-05
3166	4.2e-05
3178	2.45e-05
3190	5.25e-05
3202	5.95e-05
3214	6.3e-05
3226	3.15e-05
3238	4.55e-05
3250	3.5e-05
3262	4.9e-05
3274	5.25e-05
3286	5.25e-05
3298	7e-06
3310	3.85e-05
3322	7e-05
3334	4.2e-05
3346	4.55e-05
3358	4.2e-05
3370	7.35e-05
3382	3.15e-05
3394	5.25e-05
3406	5.95e-05
3418	4.9e-05
3430	2.45e-05
3442	6.65e-05
3454	6.65e-05
3466	8.4e-05
3478	6.65e-05
3490	7.7e-05
3502	7.7e-05
3514	7e-05
3526	8.4e-05
3538	0.0001015
3550	7.35e-05
3562	7e-05
3574	6.65e-05
3586	8.05e-05
3598	7.7e-05
3610	8.4e-05
3622	6.65e-05
3634	8.05e-05
3646	5.95e-05
3658	8.4e-05
3670	9.45e-05
3682	6.3e-05
3694	9.8e-05
3706	0.000112
3718	0.0001155
3730	0.00014
3742	0.000126
3754	0.0001155
3766	0.0001015
3778	0.000112
3790	0.000105
3802	0.000105
3814	5.6e-05
3826	0.000126
3838	5.6e-05
