Infrared Spectrum: 2,4-Dinitrobenzaldehyde
Formula: C 7 H 4 N 2 O 5
CAS: 528-75-6
State: gas
Origin: EPA-IR VAPOR PHASE LIBRARY
1/CM	ABSORBANCE
549.8	0.00311
559.445	0.00315
569.09	0.00234
578.734	0.0026
588.379	0.00238
598.024	0.00286
607.669	0.00308
617.313	0.0020778
626.958	0.00228
636.603	0.00264
646.248	0.00363
655.893	0.00463
665.537	0.00577
675.182	0.00536
684.827	0.00562
694.472	0.00676
704.116	0.01061
713.761	0.01546
723.406	0.01964
733.051	0.02277
742.695	0.01635
752.34	0.00938
761.985	0.0082
771.63	0.00868
781.275	0.01351
790.919	0.02352
800.564	0.04331
810.209	0.05337
819.854	0.03935
829.498	0.03208
839.143	0.02877
848.788	0.01803
858.433	0.0108
868.078	0.00557
877.722	0.00516
887.367	0.00477
897.012	0.00797
906.657	0.01581
916.301	0.0179
925.946	0.00741
935.591	0.00249
945.236	0.0021246
954.88	0.0021096
964.525	0.00273
974.17	0.0017519
983.815	0.00258
993.46	0.0024
1003.1	0.001096
1012.75	0.0013285
1022.39	0.001033
1032.04	0.00246
1041.68	0.00305
1051.33	0.00565
1060.97	0.00861
1070.62	0.00618
1080.26	0.00299
1089.91	0.00368
1099.55	0.00358
1109.2	0.00599
1118.84	0.008
1128.49	0.00665
1138.13	0.00724
1147.78	0.00779
1157.42	0.00959
1167.07	0.02024
1176.71	0.04341
1186.36	0.03692
1196	0.01361
1205.64	0.00955
1215.29	0.00597
1224.93	0.00535
1234.58	0.0065
1244.22	0.01042
1253.87	0.01228
1263.51	0.00949
1273.16	0.00687
1282.8	0.00743
1292.45	0.00881
1302.09	0.01131
1311.74	0.01388
1321.38	0.02211
1331.03	0.05895
1340.67	0.16269
1350.32	0.17378
1359.96	0.06595
1369.61	0.02941
1379.25	0.02708
1388.9	0.02306
1398.54	0.01808
1408.18	0.01582
1417.83	0.01088
1427.47	0.00724
1437.12	0.00641
1446.76	0.00581
1456.41	0.00627
1466.05	0.00674
1475.7	0.00868
1485.34	0.01121
1494.99	0.01722
1504.63	0.02588
1514.28	0.03175
1523.92	0.03991
1533.57	0.06733
1543.21	0.15384
1552.86	0.23111
1562.5	0.14167
1572.15	0.07071
1581.79	0.06023
1591.44	0.06246
1601.08	0.05866
1610.73	0.0395
1620.37	0.01981
1630.01	0.01328
1639.66	0.01121
1649.3	0.00898
1658.95	0.0073
1668.59	0.00736
1678.24	0.00899
1687.88	0.01029
1697.53	0.0164
1707.17	0.04744
1716.82	0.12056
1726.46	0.08682
1736.11	0.02353
1745.75	0.01162
1755.4	0.0081
1765.04	0.00611
1774.69	0.00474
1784.33	0.00361
1793.98	0.00294
1803.62	0.00298
1813.27	0.00355
1822.91	0.0035
1832.55	0.00314
1842.2	0.00229
1851.84	0.002081
1861.49	0.0016728
1871.13	0.0015824
1880.78	0.0015427
1890.42	0.001546
1900.07	0.0015245
1909.71	0.0014347
1919.36	0.0013033
1929	0.0015248
1938.65	0.0019498
1948.29	0.00232
1957.94	0.0019346
1967.58	0.0018732
1977.23	0.0016843
1986.87	0.0013466
1996.52	0.0014001
2006.16	0.00118485
2015.81	0.000846
2025.45	0.0013237
2035.1	0.0014198
2044.74	0.0010719
2054.38	0.00122309
2064.03	0.00118694
2073.67	0.0013475
2083.32	0.001038
2092.96	0.000884
2102.61	0.0010569
2112.25	0.0011191
2121.9	0.0012401
2131.54	0.001015
2141.19	0.00118842
2150.83	0.0010766
2160.48	0.000916
2170.12	0.000632
2179.77	0.000948
2189.41	0.0010487
2199.06	0.000972
2208.7	0.000993
2218.35	0.00112
2227.99	0.001105
2237.64	0.0011409
2247.28	0.0010863
2256.92	0.0010837
2266.57	0.00089
2276.21	0.0011011
2285.86	0.001037
2295.5	0.0010627
2305.15	0.00114846
2314.79	0.0013524
2324.44	0.0009
2334.08	0.000838
2343.73	0.00118208
2353.37	0.0010733
2363.02	0.0014835
2372.66	0.0012403
2382.31	0.0012834
2391.95	0.001008
2401.6	0.00103
2411.24	0.001021
2420.89	0.001002
2430.53	0.00122479
2440.18	0.0013961
2449.82	0.0016386
2459.47	0.0014034
2469.11	0.0012138
2478.75	0.0010582
2488.4	0.0013976
2498.04	0.0010894
2507.69	0.001274
2517.33	0.000809
2526.98	0.000968
2536.62	0.001032
2546.27	0.00120382
2555.91	0.000806
2565.56	0.000968
2575.2	0.000941
2584.85	0.00078
2594.49	0.00115696
2604.14	0.000942
2613.78	0.001679
2623.43	0.0013491
2633.07	0.0013728
2642.72	0.0015646
2652.36	0.001589
2662.01	0.0019878
2671.65	0.00241
2681.29	0.003
2690.94	0.00337
2700.58	0.003
2710.23	0.00321
2719.87	0.00304
2729.52	0.0033
2739.16	0.00408
2748.81	0.00362
2758.45	0.00359
2768.1	0.0029
2777.74	0.00307
2787.39	0.00299
2797.03	0.00309
2806.68	0.00332
2816.32	0.00457
2825.97	0.00454
2835.61	0.00515
2845.26	0.00588
2854.9	0.0062
2864.55	0.00655
2874.19	0.00816
2883.84	0.01197
2893.48	0.01531
2903.12	0.01425
2912.77	0.00845
2922.41	0.00538
2932.06	0.00393
2941.7	0.00379
2951.35	0.00309
2960.99	0.00275
2970.64	0.00257
2980.28	0.0024
2989.93	0.0020305
2999.57	0.0016275
3009.22	0.0014151
3018.86	0.0017996
3028.51	0.0013093
3038.15	0.0018428
3047.8	0.0021339
3057.44	0.00281
3067.09	0.00224
3076.73	0.00222
3086.38	0.00402
3096.02	0.00639
3105.67	0.01042
3115.31	0.00972
3124.95	0.00469
3134.6	0.0014135
3144.24	0.0015286
3153.89	0.00121557
3163.53	0.0012427
3173.18	0.0011179
3182.82	0.0011152
3192.47	0.000718
3202.11	0.0015217
3211.76	0.000844
3221.4	0.00098
3231.05	0.00113746
3240.69	0.0011156
3250.34	0.00082
3259.98	0.00084
3269.63	0.00113823
3279.27	0.000251
3288.92	0.0013529
3298.56	0.0010574
3308.21	0.00114941
3317.85	0.000875
3327.49	0.001076
3337.14	0.00114149
3346.78	0.001775
3356.43	0.0011031
3366.07	0.000387
3375.72	0.00118109
3385.36	0.0014266
3395.01	0.001791
3404.65	0.00257
3414.3	0.00421
3423.94	0.00297
3433.59	0.0015591
3443.23	0.000952
3452.88	0.0014589
3462.52	0.000652
3472.17	0.0012854
3481.81	0.0011521
3491.46	0.000983
3501.1	0.000998
3510.75	0.0010697
3520.39	0.0014647
3530.04	0.000706
3539.68	0.000323
3549.32	0.000917
3558.97	0.0012967
3568.61	0.0012771
3578.26	0.000571
3587.9	0.000724
3597.55	0.001007
3607.19	0.000996
3616.84	0.000969
3626.48	0.000856
3636.13	0.000183
3645.77	0.000198
3655.42	0.001036
3665.06	0.0012411
3674.71	0.000406
3684.35	0.000693
3694	0.0012555
3703.64	0.000745
3713.29	0.0011213
3722.93	0.00086
3732.58	0.001035
3742.22	0.000283
3751.86	0.000851
3761.51	0.000962
3771.15	0.0010604
3780.8	0.0016455
3790.44	0.000437
3800.09	0.000919
3809.73	0.0018359
3819.38	0.0016168
3829.02	0.000931
3838.67	0.001017
3848.31	0.0015506
3857.96	0.000986
3867.6	0.000965
3877.25	0.00011
3886.89	0
3896.54	0.001039
3906.18	0.000969
3915.83	0.000759
3925.47	0.0013778
3935.12	0.000393
3944.76	0.000831
3954.41	0.0014731
3964.05	0.0014176
3973.69	0.00093
3983.34	0.000752
3992.98	0.000565
