Infrared Spectrum: ISOPROPYL-2,4,5-TRICHLORO CARBANILATE
Formula: C10 H10 Cl3 N O2
CAS: 52819-37-1
State: SOLUTION (10% CCl4 FOR 5000-1330, 10% CS2 FOR 1330-625 CM^-^1)
Class: COBLENTZ
Instrument: Not specified, most likely a prism, grating, or hybrid spectrometer.
Sampling: TRANSMISSION
Path length: 0.0125 CM, 0.0124 CM
Resolution: 4
Origin: DOW CHEMICAL COMPANY
MICROMETERS	TRANSMITTANCE
2.007	0.888
2.04811	0.888
2.08923	0.885
2.13034	0.882
2.17146	0.882
2.21257	0.878
2.25369	0.873
2.2948	0.871
2.33592	0.871
2.37703	0.875
2.41815	0.878
2.45926	0.882
2.50038	0.883
2.54149	0.89
2.58261	0.888
2.62372	0.887
2.66484	0.888
2.70595	0.888
2.74707	0.88
2.78818	0.876
2.8293	0.863
2.87041	0.724
2.91153	0.611
2.95264	0.842
2.99376	0.858
3.03487	0.858
3.07598	0.858
3.1171	0.852
3.15821	0.796
3.19933	0.757
3.24044	0.837
3.28156	0.818
3.32267	0.543
3.36379	0.646
3.4049	0.735
3.44602	0.782
3.48713	0.832
3.52825	0.852
3.56936	0.859
3.61048	0.859
3.65159	0.852
3.69271	0.856
3.73382	0.861
3.77494	0.871
3.81605	0.876
3.85717	0.878
3.89828	0.873
3.9394	0.866
3.98051	0.864
4.02163	0.864
4.06274	0.866
4.10386	0.875
4.14497	0.88
4.18608	0.875
4.2272	0.87
4.26831	0.858
4.30943	0.839
4.35054	0.835
4.39166	0.839
4.43277	0.854
4.47389	0.863
4.515	0.871
4.55612	0.882
4.59723	0.882
4.63835	0.875
4.67946	0.88
4.72058	0.88
4.76169	0.88
4.80281	0.878
4.84392	0.875
4.88504	0.873
4.92615	0.873
4.96727	0.87
5.00838	0.866
5.0495	0.866
5.09061	0.87
5.13173	0.876
5.17284	0.876
5.21395	0.873
5.25507	0.87
5.29618	0.861
5.3373	0.849
5.37841	0.839
5.41953	0.823
5.46064	0.782
5.50176	0.777
5.54287	0.786
5.58399	0.769
5.6251	0.683
5.66622	0.435
5.70733	0.1
5.74845	0.052
5.78956	0.335
5.83068	0.632
5.87179	0.668
5.91291	0.717
5.95402	0.757
5.99514	0.774
6.03625	0.779
6.07737	0.777
6.11848	0.736
6.1596	0.702
6.20071	0.617
6.24183	0.348
6.28294	0.172
6.32405	0.112
6.36517	0.068
6.40628	0.232
6.4474	0.264
6.48851	0.302
6.52963	0.278
6.57074	0.128
6.61186	0.029
6.65297	0.018
6.69409	0.029
6.7352	0.119
6.77632	0.302
6.81743	0.357
6.85855	0.239
6.89966	0.335
6.94078	0.601
6.98189	0.664
7.02301	0.694
7.06412	0.712
7.10524	0.728
7.14635	0.618
7.18747	0.43
7.22858	0.358
7.2697	0.07
7.31081	0.27
7.35192	0.558
7.39304	0.634
7.43415	0.634
7.47527	0.617
7.51638	0.605
7.5575	0.574
7.59861	0.552
7.63973	0.543
7.68084	0.582
7.72196	0.577
7.76307	0.456
7.80419	0.367
7.8453	0.432
7.88642	0.42
7.92753	0.213
7.96865	0.056
8.00976	0.032
8.05088	0.164
8.09199	0.234
8.13311	0.109
8.17422	0.039
8.21534	0.015
8.25645	0.008
8.29757	0.09
8.33868	0.246
8.3798	0.312
8.42091	0.22
8.46202	0.14
8.50314	0.295
8.54425	0.413
8.58537	0.475
8.62648	0.495
8.6676	0.468
8.70871	0.374
8.74983	0.305
8.79094	0.316
8.83206	0.297
8.87317	0.258
8.91429	0.249
8.9554	0.155
8.99652	0.044
9.03763	0.013
9.07875	0.095
9.11986	0.28
9.16098	0.403
9.20209	0.429
9.24321	0.333
9.28432	0.155
9.32544	0.205
9.36655	0.389
9.40767	0.5
9.44878	0.509
9.48989	0.4
9.53101	0.138
9.57212	0.056
9.61324	0.287
9.65435	0.49
9.69547	0.557
9.73658	0.629
9.7777	0.676
9.81881	0.716
9.85993	0.743
9.90104	0.755
9.94216	0.765
9.98327	0.767
10.0244	0.772
10.0655	0.772
10.1066	0.772
10.1477	0.781
10.1888	0.786
10.23	0.789
10.2711	0.789
10.3122	0.789
10.3533	0.781
10.3944	0.776
10.4355	0.757
10.4767	0.717
10.5178	0.6
10.5589	0.505
10.6	0.565
10.6411	0.637
10.6822	0.675
10.7233	0.695
10.7645	0.7
10.8056	0.695
10.8467	0.642
10.8878	0.502
10.9289	0.358
10.97	0.4
11.0111	0.584
11.0523	0.661
11.0934	0.69
11.1345	0.688
11.1756	0.652
11.2167	0.564
11.2578	0.423
11.2989	0.186
11.3401	0.116
11.3812	0.329
11.4223	0.485
11.4634	0.565
11.5045	0.598
11.5456	0.601
11.5868	0.593
11.6279	0.572
11.669	0.579
11.7101	0.605
11.7512	0.629
11.7923	0.641
11.8334	0.658
11.8746	0.692
11.9157	0.741
11.9568	0.774
11.9979	0.782
12.039	0.791
12.0801	0.796
12.1212	0.8
12.1624	0.801
12.2035	0.801
12.2446	0.8
12.2857	0.793
12.3268	0.788
12.3679	0.782
12.409	0.782
12.4502	0.782
12.4913	0.779
12.5324	0.774
12.5735	0.764
12.6146	0.752
12.6557	0.735
12.6968	0.714
12.738	0.682
12.7791	0.63
12.8202	0.586
12.8613	0.569
12.9024	0.569
12.9435	0.558
12.9847	0.505
13.0258	0.411
13.0669	0.335
13.108	0.335
13.1491	0.459
13.1902	0.569
13.2313	0.623
13.2725	0.651
13.3136	0.646
13.3547	0.596
13.3958	0.517
13.4369	0.452
13.478	0.434
13.5191	0.505
13.5603	0.588
13.6014	0.634
13.6425	0.676
13.6836	0.7
13.7247	0.716
13.7658	0.719
13.8069	0.723
13.8481	0.723
13.8892	0.724
13.9303	0.724
13.9714	0.719
14.0125	0.716
14.0536	0.711
14.0948	0.707
14.1359	0.7
14.177	0.694
14.2181	0.688
14.2592	0.683
14.3003	0.673
14.3414	0.663
14.3826	0.651
14.4237	0.639
14.4648	0.615
14.5059	0.593
14.547	0.572
14.5881	0.538
14.6292	0.482
14.6704	0.406
14.7115	0.317
14.7526	0.283
14.7937	0.329
14.8348	0.408
14.8759	0.473
14.917	0.502
14.9582	0.519
14.9993	0.529
15.0404	0.536
15.0815	0.535
15.1226	0.526
15.1637	0.517
15.2049	0.511
15.246	0.502
15.2871	0.488
15.3282	0.483
15.3693	0.478
15.4104	0.473
15.4515	0.471
15.4927	0.461
15.5338	0.456
15.5749	0.456
15.616	0.446
15.6571	0.441
15.6982	0.435
15.7393	0.434
15.7805	0.427
15.8216	0.42
15.8627	0.411
