Infrared Spectrum: n-OCTYLTRICHLOROSILANE
Formula: C8 H17 Cl3 Si
CAS: 5283-66-9
State: SOLUTION (11% IN CCl4 FOR 3800-1270, 11% IN CS2 FOR 1270-650, AND 11% IN CCl4 FOR 650-250 CM^-^1) VS. SOLVENT
Boiling point: 231 C AT 731 mmHg
Class: COBLENTZ III
Instrument: PERKIN-ELMER 521 (GRATING)
Instrument parameters: FILTERS AT 3150, 2500, 2000, 1150, 700, 410. GRATING CHANGES: 2000, 630 CM^-^1
Sampling: TRANSMISSION
Path length: 0.010 CM, 0.011 CM, AND 0.010 CM
Resolution: 2
Origin: DOW CORNING CORP.
1/CM	TRANSMITTANCE
232.065	0.922
241.292	0.922
250.519	0.915
259.747	0.907
268.974	0.905
278.201	0.902
287.428	0.9
296.656	0.911
305.883	0.917
315.11	0.919
324.337	0.917
333.564	0.917
342.792	0.919
352.019	0.917
361.246	0.916
370.473	0.915
379.701	0.916
388.928	0.895
398.155	0.898
407.382	0.894
416.609	0.89
425.837	0.886
435.064	0.861
444.291	0.84
453.518	0.788
462.746	0.675
471.973	0.555
481.2	0.73
490.427	0.741
499.654	0.784
508.882	0.778
518.109	0.777
527.336	0.799
536.563	0.771
545.791	0.641
555.018	0.196
564.245	0.013
573.472	0.116
582.699	0
591.927	0.1961
601.154	0.62
610.381	0.732
619.608	0.758
628.836	0.758
638.063	0.758
647.29	0.758
656.517	0.758
665.744	0.745
674.972	0.684
684.199	0.3379
693.426	0.215
702.653	0.518
711.881	0.603
721.108	0.527
730.335	0.579
739.562	0.572
748.789	0.567
758.017	0.375
767.244	0.4471
776.471	0.677
785.698	0.738
794.926	0.763
804.153	0.803
813.38	0.813
822.607	0.787
831.834	0.794
841.062	0.815
850.289	0.823
859.516	0.82
868.743	0.818
877.971	0.829
887.198	0.834
896.425	0.83
905.652	0.818
914.879	0.822
924.107	0.827
933.334	0.839
942.561	0.838
951.788	0.832
961.016	0.817
970.243	0.812
979.47	0.777
988.697	0.733
997.924	0.706
1007.15	0.72
1016.38	0.731
1025.61	0.757
1034.83	0.768
1044.06	0.761
1053.29	0.745
1062.52	0.74
1071.74	0.72
1080.97	0.727
1090.2	0.735
1099.42	0.701
1108.65	0.715
1117.88	0.779
1127.11	0.796
1136.33	0.792
1145.56	0.793
1154.79	0.786
1164.01	0.757
1173.24	0.712
1182.47	0.793
1191.7	0.813
1200.92	0.802
1210.15	0.814
1219.38	0.818
1228.61	0.82
1237.83	0.828
1247.06	0.827
1256.29	0.823
1265.51	0.824
1274.74	0.884
1283.97	0.878
1293.2	0.866
1302.42	0.861
1311.65	0.864
1320.88	0.871
1330.1	0.863
1339.33	0.825
1348.56	0.829
1357.79	0.83
1367.01	0.803
1376.24	0.677
1385.47	0.792
1394.7	0.788
1403.92	0.818
1413.15	0.863
1422.38	0.851
1431.6	0.797
1440.83	0.705
1450.06	0.517
1459.29	0.444
1468.51	0.6432
1477.74	0.834
1486.97	0.863
1496.19	0.875
1505.42	0.884
1514.65	0.886
1523.88	0.889
1533.1	0.898
1542.33	0.904
1551.56	0.907
1560.79	0.907
1570.01	0.907
1579.24	0.905
1588.47	0.901
1597.69	0.906
1606.92	0.899
1616.15	0.896
1625.38	0.894
1634.6	0.893
1643.83	0.891
1653.06	0.89
1662.28	0.889
1671.51	0.888
1680.74	0.886
1689.97	0.888
1699.19	0.886
1708.42	0.884
1717.65	0.884
1726.88	0.886
1736.1	0.89
1745.33	0.894
1754.56	0.896
1763.78	0.898
1773.01	0.9
1782.24	0.9
1791.47	0.899
1800.69	0.9
1809.92	0.901
1819.15	0.901
1828.37	0.901
1837.6	0.901
1846.83	0.901
1856.06	0.902
1865.28	0.901
1874.51	0.901
1883.74	0.901
1892.97	0.901
1902.19	0.901
1911.42	0.901
1920.65	0.9
1929.87	0.899
1939.1	0.899
1948.33	0.899
1957.56	0.899
1966.78	0.896
1976.01	0.899
1985.24	0.9
1994.46	0.899
2003.69	0.898
2012.92	0.898
2022.15	0.899
2031.37	0.8983
2040.6	0.896
2049.83	0.895
2059.05	0.895
2068.28	0.895
2077.51	0.895
2086.74	0.895
2095.96	0.895
2105.19	0.895
2114.42	0.894
2123.65	0.893
2132.87	0.89
2142.1	0.89
2151.33	0.89
2160.55	0.89
2169.78	0.89
2179.01	0.89
2188.24	0.889
2197.46	0.889
2206.69	0.889
2215.92	0.8868
2225.14	0.886
2234.37	0.885
2243.6	0.885
2252.83	0.88
2262.05	0.884
2271.28	0.885
2280.51	0.885
2289.74	0.8854
2298.96	0.888
2308.19	0.888
2317.42	0.884
2326.64	0.888
2335.87	0.893
2345.1	0.893
2354.33	0.893
2363.55	0.89
2372.78	0.8879
2382.01	0.886
2391.24	0.8848
2400.46	0.884
2409.69	0.883
2418.92	0.883
2428.14	0.883
2437.37	0.885
2446.6	0.885
2455.83	0.884
2465.05	0.8802
2474.28	0.883
2483.51	0.883
2492.73	0.881
2501.96	0.879
2511.19	0.8777
2520.42	0.876
2529.64	0.875
2538.87	0.874
2548.1	0.873
2557.33	0.871
2566.55	0.87
2575.78	0.869
2585.01	0.866
2594.23	0.865
2603.46	0.863
2612.69	0.863
2621.92	0.863
2631.14	0.86
2640.37	0.859
2649.6	0.858
2658.82	0.855
2668.05	0.854
2677.28	0.854
2686.51	0.854
2695.73	0.854
2704.96	0.854
2714.19	0.8514
2723.41	0.847
2732.64	0.848
2741.87	0.85
2751.1	0.8499
2760.32	0.8438
2769.55	0.8365
2778.78	0.827
2788.01	0.8204
2797.23	0.8036
2806.46	0.7902
2815.69	0.7489
2824.91	0.7144
2834.14	0.5982
2843.37	0.2965
2852.6	0.1202
2861.82	0.167
2871.05	0.2621
2880.28	0.4102
2889.51	0.3673
2898.73	0.2901
2907.96	0.1674
2917.19	0.0075
2926.41	0.0115
2935.64	0.058
2944.87	0.16
2954.1	0.1388
2963.32	0.1719
2972.55	0.4931
2981.78	0.6885
2991	0.7454
3000.23	0.7818
3009.46	0.811
3018.69	0.8298
3027.91	0.841
3037.14	0.8504
3046.37	0.857
3055.6	0.863
3064.82	0.866
3074.05	0.87
3083.28	0.8726
3092.5	0.874
3101.73	0.874
3110.96	0.875
3120.19	0.8831
3129.41	0.8858
3138.64	0.885
3147.87	0.885
3157.09	0.8846
3166.32	0.885
3175.55	0.886
3184.78	0.888
3194	0.889
3203.23	0.89
3212.46	0.8908
3221.68	0.891
3230.91	0.893
3240.14	0.893
3249.37	0.893
3258.59	0.893
3267.82	0.893
3277.05	0.893
3286.28	0.893
3295.5	0.891
3304.73	0.893
3313.96	0.889
3323.18	0.889
3332.41	0.889
3341.64	0.889
3350.87	0.889
3360.09	0.89
3369.32	0.891
3378.55	0.891
3387.78	0.891
3397	0.891
3406.23	0.891
3415.46	0.891
3424.68	0.891
3433.91	0.8936
3443.14	0.895
3452.37	0.895
3461.59	0.896
3470.82	0.898
3480.05	0.898
3489.27	0.898
3498.5	0.8977
3507.73	0.895
3516.96	0.895
3526.18	0.8968
3535.41	0.898
3544.64	0.898
3553.87	0.898
3563.09	0.898
3572.32	0.899
3581.55	0.899
3590.77	0.8932
3600	0.889
3609.23	0.89
3618.46	0.89
3627.68	0.8898
3636.91	0.889
3646.14	0.889
3655.36	0.889
3664.59	0.889
3673.82	0.889
3683.05	0.8907
3692.27	0.893
3701.5	0.893
3710.73	0.894
3719.95	0.895
3729.18	0.8949
3738.41	0.893
3747.64	0.891
3756.86	0.893
3766.09	0.894
3775.32	0.894
3784.55	0.894
3793.77	0.894
3803	0.894
