Infrared Spectrum: PHOSPHONIC ACID, BUTYL-, ETHYL ESTER, DIESTER WITH 1,4-BUTANEDIOL
Formula: C16 H36 O6 P2
CAS: 5284-06-0
State: LIQUID (NEAT)
Class: COBLENTZ III
Instrument: PERKIN-ELMER 221 (GRATING)
Instrument parameters: FILTER CHANGE AT 2490, 980 CM^-^1, GRATING FOR 4000-1428 CM^-^1, NaCl PRISM FOR 1428-650 CM^-^1
Sampling: TRANSMISSION
Path length: CAPILLARY
Resolution: 4
Origin: SOUTHERN RESEARCH INST.
1/CM	TRANSMITTANCE
602.56	0.711
611.84	0.718
621.12	0.724
630.4	0.754
639.68	0.783
648.96	0.811
658.24	0.833
667.52	0.843
676.8	0.842
686.08	0.805
695.36	0.792
704.64	0.794
713.92	0.795
723.2	0.763
732.48	0.749
741.76	0.754
751.04	0.757
760.32	0.741
769.6	0.727
778.88	0.721
788.16	0.626
797.44	0.593
806.72	0.59
816	0.591
825.28	0.639
834.56	0.673
843.84	0.678
853.12	0.717
862.401	0.79
871.681	0.806
880.961	0.822
890.241	0.777
899.521	0.657
908.801	0.695
918.081	0.695
927.361	0.581
936.641	0.332
945.921	0.218
955.201	0.183
964.481	0.228
973.761	0.308
983.041	0.325
992.321	0.268
1001.6	0.21
1010.88	0.14
1020.16	0.118
1029.44	0.126
1038.72	0.135
1048	0.156
1057.28	0.184
1066.56	0.272
1075.84	0.426
1085.12	0.511
1094.4	0.495
1103.68	0.642
1112.96	0.714
1122.24	0.779
1131.52	0.795
1140.8	0.793
1150.08	0.786
1159.36	0.698
1168.64	0.774
1177.92	0.805
1187.2	0.799
1196.48	0.697
1205.76	0.552
1215.04	0.414
1224.32	0.438
1233.6	0.219
1242.88	0.144
1252.16	0.259
1261.44	0.513
1270.72	0.6
1280	0.611
1289.28	0.698
1298.56	0.75
1307.84	0.762
1317.12	0.819
1326.4	0.906
1335.68	0.899
1344.96	0.879
1354.24	0.878
1363.52	0.827
1372.8	0.776
1382.08	0.722
1391.36	0.731
1400.64	0.78
1409.92	0.851
1419.2	0.848
1428.48	0.822
1437.76	0.773
1447.04	0.698
1456.32	0.662
1465.6	0.641
1474.88	0.737
1484.16	0.823
1493.44	0.882
1502.72	0.902
1512	0.913
1521.28	0.915
1530.56	0.917
1539.84	0.918
1549.12	0.919
1558.4	0.92
1567.68	0.92
1576.96	0.92
1586.24	0.92
1595.52	0.918
1604.8	0.918
1614.08	0.915
1623.36	0.912
1632.64	0.908
1641.92	0.903
1651.2	0.903
1660.48	0.907
1669.76	0.911
1679.04	0.914
1688.32	0.916
1697.6	0.916
1706.88	0.915
1716.16	0.915
1725.44	0.914
1734.72	0.914
1744	0.914
1753.28	0.912
1762.56	0.914
1771.84	0.915
1781.12	0.915
1790.4	0.916
1799.68	0.916
1808.96	0.916
1818.24	0.916
1827.52	0.916
1836.8	0.916
1846.08	0.916
1855.36	0.916
1864.64	0.916
1873.92	0.918
1883.2	0.919
1892.48	0.921
1901.76	0.921
1911.04	0.92
1920.32	0.92
1929.6	0.92
1938.88	0.92
1948.16	0.919
1957.44	0.919
1966.72	0.918
1976	0.917
1985.28	0.917
1994.56	0.917
2003.84	0.917
2013.12	0.916
2022.4	0.916
2031.68	0.916
2040.96	0.915
2050.24	0.914
2059.52	0.914
2068.8	0.914
2078.08	0.914
2087.36	0.914
2096.64	0.914
2105.92	0.914
2115.2	0.914
2124.48	0.914
2133.76	0.914
2143.04	0.914
2152.32	0.915
2161.6	0.914
2170.88	0.914
2180.16	0.914
2189.44	0.914
2198.72	0.914
2208	0.914
2217.28	0.914
2226.56	0.914
2235.84	0.914
2245.12	0.914
2254.4	0.913
2263.68	0.913
2272.96	0.913
2282.24	0.912
2291.52	0.912
2300.8	0.911
2310.08	0.911
2319.36	0.911
2328.64	0.911
2337.92	0.911
2347.2	0.911
2356.48	0.911
2365.76	0.911
2375.04	0.911
2384.32	0.91
2393.6	0.91
2402.88	0.91
2412.16	0.909
2421.44	0.909
2430.72	0.908
2440	0.908
2449.28	0.908
2458.56	0.908
2467.84	0.908
2477.12	0.908
2486.4	0.908
2495.68	0.907
2504.96	0.907
2514.24	0.906
2523.52	0.906
2532.8	0.904
2542.08	0.904
2551.36	0.903
2560.64	0.902
2569.92	0.901
2579.2	0.901
2588.48	0.898
2597.76	0.897
2607.04	0.896
2616.32	0.895
2625.6	0.894
2634.88	0.892
2644.16	0.891
2653.44	0.889
2662.72	0.889
2672	0.889
2681.28	0.889
2690.56	0.888
2699.84	0.887
2709.12	0.885
2718.4	0.881
2727.68	0.87
2736.96	0.866
2746.24	0.865
2755.52	0.864
2764.8	0.862
2774.08	0.86
2783.36	0.859
2792.64	0.857
2801.92	0.852
2811.2	0.845
2820.48	0.83
2829.76	0.824
2839.04	0.796
2848.32	0.762
2857.6	0.638
2866.88	0.514
2876.16	0.442
2885.44	0.56
2894.72	0.521
2904	0.439
2913.28	0.432
2922.56	0.409
2931.84	0.329
2941.12	0.318
2950.4	0.304
2959.68	0.232
2968.96	0.291
2978.24	0.373
2987.52	0.461
2996.8	0.572
3006.08	0.705
3015.36	0.782
3024.64	0.818
3033.92	0.833
3043.2	0.847
3052.48	0.85
3061.76	0.858
3071.04	0.865
3080.32	0.866
3089.6	0.87
3098.88	0.871
3108.16	0.872
3117.44	0.872
3126.72	0.871
3136	0.87
3145.28	0.87
3154.57	0.868
3163.85	0.867
3173.13	0.865
3182.41	0.863
3191.69	0.86
3200.97	0.859
3210.25	0.858
3219.53	0.857
3228.81	0.857
3238.09	0.857
3247.37	0.857
3256.65	0.856
3265.93	0.855
3275.21	0.855
3284.49	0.855
3293.77	0.854
3303.05	0.854
3312.33	0.854
3321.61	0.854
3330.89	0.854
3340.17	0.852
3349.45	0.846
3358.73	0.846
3368.01	0.845
3377.29	0.842
3386.57	0.839
3395.85	0.832
3405.13	0.829
3414.41	0.826
3423.69	0.822
3432.97	0.806
3442.25	0.801
3451.53	0.798
3460.81	0.796
3470.09	0.796
3479.37	0.796
3488.65	0.795
3497.93	0.793
3507.21	0.793
3516.49	0.793
3525.77	0.793
3535.05	0.794
3544.33	0.802
3553.61	0.814
3562.89	0.822
3572.17	0.824
3581.45	0.839
3590.73	0.845
3600.01	0.848
3609.29	0.85
3618.57	0.851
3627.85	0.852
3637.13	0.852
3646.41	0.853
3655.69	0.854
3664.97	0.855
3674.25	0.855
3683.53	0.856
3692.81	0.857
3702.09	0.858
3711.37	0.858
3720.65	0.857
3729.93	0.857
3739.21	0.855
3748.49	0.857
3757.77	0.858
3767.05	0.858
3776.33	0.857
3785.61	0.856
3794.89	0.855
3804.17	0.855
3813.45	0.855
3822.73	0.855
3832.01	0.855
3841.29	0.854
3850.57	0.853
3859.85	0.853
3869.13	0.853
3878.41	0.853
3887.69	0.853
3896.97	0.852
3906.25	0.852
3915.53	0.852
3924.81	0.852
3934.09	0.852
3943.37	0.852
3952.65	0.852
3961.93	0.852
3971.21	0.852
3980.49	0.851
3989.77	0.851
3999.05	0.851
