Infrared Spectrum: 1,4-BUTANEDIOL, BIS(DIMETHYLPHOSPHINATE)
Formula: C8 H20 O4 P2
CAS: 5284-07-1
State: SOLID (1 mg / 650 mg KBr DISC)
Class: COBLENTZ III
Instrument: PERKIN-ELMER 521 (GRATING)
Instrument parameters: FILTERS AT 3150, 2500, 2000, 1150, 700, 410 CM ^-^1, GRATING CHANGES AT 2000, 630 CM ^-^1
Sampling: TRANSMISSION
Resolution: 4
Origin: SOUTHERN RES. INSTITUTE
1/CM	TRANSMITTANCE
227.522	0.174
236.834	0.188
246.146	0.205
255.458	0.233
264.77	0.29
274.082	0.352
283.394	0.415
292.706	0.479
302.018	0.547
311.33	0.587
320.642	0.634
329.954	0.67
339.265	0.724
348.577	0.748
357.889	0.784
367.201	0.803
376.513	0.802
385.825	0.792
395.137	0.715
404.449	0.588
413.761	0.581
423.073	0.741
432.385	0.759
441.697	0.748
451.009	0.671
460.321	0.811
469.633	0.888
478.945	0.906
488.257	0.91
497.569	0.916
506.881	0.922
516.193	0.927
525.505	0.923
534.817	0.937
544.129	0.941
553.441	0.942
562.752	0.943
572.064	0.943
581.376	0.94
590.688	0.941
600	0.941
609.312	0.935
618.624	0.935
627.936	0.937
637.248	0.937
646.56	0.937
655.872	0.934
665.184	0.931
674.496	0.907
683.808	0.862
693.12	0.893
702.432	0.926
711.744	0.841
721.056	0.858
730.368	0.883
739.68	0.763
748.992	0.66
758.304	0.86
767.616	0.881
776.928	0.867
786.239	0.865
795.551	0.851
804.863	0.852
814.175	0.829
823.487	0.843
832.799	0.868
842.111	0.81
851.423	0.721
860.735	0.586
870.047	0.342
879.359	0.257
888.671	0.796
897.983	0.776
907.295	0.677
916.607	0.601
925.919	0.503
935.231	0.293
944.543	0.272
953.855	0.332
963.167	0.507
972.479	0.308
981.791	0.218
991.103	0.413
1000.41	0.323
1009.73	0.217
1019.04	0.278
1028.35	0.355
1037.66	0.263
1046.97	0.405
1056.29	0.66
1065.6	0.727
1074.91	0.783
1084.22	0.787
1093.53	0.811
1102.85	0.815
1112.16	0.81
1121.47	0.802
1130.78	0.792
1140.09	0.773
1149.41	0.739
1158.72	0.682
1168.03	0.531
1177.34	0.311
1186.65	0.109
1195.97	0.11
1205.28	0.372
1214.59	0.589
1223.9	0.685
1233.21	0.7
1242.53	0.814
1251.84	0.85
1261.15	0.853
1270.46	0.851
1279.77	0.787
1289.09	0.484
1298.4	0.47
1307.71	0.431
1317.02	0.838
1326.33	0.869
1335.65	0.882
1344.96	0.882
1354.27	0.88
1363.58	0.872
1372.89	0.852
1382.2	0.821
1391.52	0.814
1400.83	0.796
1410.14	0.774
1419.45	0.8
1428.76	0.84
1438.08	0.802
1447.39	0.844
1456.7	0.817
1466.01	0.79
1475.32	0.836
1484.64	0.885
1493.95	0.898
1503.26	0.9
1512.57	0.9
1521.88	0.9
1531.2	0.9
1540.51	0.9
1549.82	0.899
1559.13	0.898
1568.44	0.895
1577.76	0.891
1587.07	0.888
1596.38	0.88
1605.69	0.874
1615	0.863
1624.32	0.865
1633.63	0.866
1642.94	0.868
1652.25	0.871
1661.56	0.879
1670.88	0.883
1680.19	0.883
1689.5	0.883
1698.81	0.883
1708.12	0.884
1717.44	0.886
1726.75	0.886
1736.06	0.891
1745.37	0.893
1754.68	0.895
1764	0.897
1773.31	0.898
1782.62	0.898
1791.93	0.897
1801.24	0.895
1810.55	0.896
1819.87	0.896
1829.18	0.896
1838.49	0.896
1847.8	0.896
1857.11	0.896
1866.43	0.896
1875.74	0.896
1885.05	0.896
1894.36	0.896
1903.67	0.896
1912.99	0.896
1922.3	0.896
1931.61	0.895
1940.92	0.895
1950.23	0.893
1959.55	0.892
1968.86	0.89
1978.17	0.89
1987.48	0.889
1996.79	0.888
2006.11	0.887
2015.42	0.886
2024.73	0.886
2034.04	0.884
2043.35	0.881
2052.67	0.88
2061.98	0.88
2071.29	0.881
2080.6	0.88
2089.91	0.88
2099.23	0.878
2108.54	0.877
2117.85	0.874
2127.16	0.873
2136.47	0.871
2145.79	0.868
2155.1	0.866
2164.41	0.865
2173.72	0.865
2183.03	0.865
2192.35	0.865
2201.66	0.862
2210.97	0.859
2220.28	0.856
2229.59	0.856
2238.9	0.856
2248.22	0.856
2257.53	0.856
2266.84	0.856
2276.15	0.856
2285.46	0.855
2294.78	0.854
2304.09	0.853
2313.4	0.851
2322.71	0.85
2332.02	0.849
2341.34	0.848
2350.65	0.848
2359.96	0.848
2369.27	0.848
2378.58	0.849
2387.9	0.85
2397.21	0.85
2406.52	0.85
2415.83	0.851
2425.14	0.852
2434.46	0.853
2443.77	0.853
2453.08	0.852
2462.39	0.85
2471.7	0.848
2481.02	0.845
2490.33	0.844
2499.64	0.844
2508.95	0.843
2518.26	0.843
2527.58	0.842
2536.89	0.841
2546.2	0.84
2555.51	0.836
2564.82	0.833
2574.14	0.83
2583.45	0.826
2592.76	0.825
2602.07	0.824
2611.38	0.824
2620.7	0.823
2630.01	0.823
2639.32	0.821
2648.63	0.82
2657.94	0.819
2667.26	0.818
2676.57	0.817
2685.88	0.817
2695.19	0.815
2704.5	0.813
2713.81	0.812
2723.13	0.811
2732.44	0.809
2741.75	0.805
2751.06	0.802
2760.37	0.802
2769.69	0.802
2779	0.799
2788.31	0.792
2797.62	0.784
2806.93	0.779
2816.25	0.774
2825.56	0.77
2834.87	0.763
2844.18	0.742
2853.49	0.732
2862.81	0.716
2872.12	0.709
2881.43	0.692
2890.74	0.628
2900.05	0.542
2909.37	0.574
2918.68	0.646
2927.99	0.652
2937.3	0.627
2946.61	0.59
2955.93	0.526
2965.24	0.507
2974.55	0.604
2983.86	0.681
2993.17	0.721
3002.49	0.754
3011.8	0.759
3021.11	0.769
3030.42	0.773
3039.73	0.775
3049.05	0.779
3058.36	0.781
3067.67	0.781
3076.98	0.782
3086.29	0.782
3095.61	0.783
3104.92	0.783
3114.23	0.784
3123.54	0.785
3132.85	0.783
3142.16	0.778
3151.48	0.776
3160.79	0.775
3170.1	0.775
3179.41	0.774
3188.72	0.773
3198.04	0.771
3207.35	0.769
3216.66	0.766
3225.97	0.764
3235.28	0.763
3244.6	0.762
3253.91	0.76
3263.22	0.76
3272.53	0.758
3281.84	0.756
3291.16	0.754
3300.47	0.751
3309.78	0.748
3319.09	0.746
3328.4	0.744
3337.72	0.74
3347.03	0.733
3356.34	0.727
3365.65	0.721
3374.96	0.714
3384.28	0.709
3393.59	0.706
3402.9	0.704
3412.21	0.703
3421.52	0.703
3430.84	0.703
3440.15	0.704
3449.46	0.705
3458.77	0.708
3468.08	0.71
3477.4	0.712
3486.71	0.712
3496.02	0.714
3505.33	0.718
3514.64	0.722
3523.96	0.728
3533.27	0.734
3542.58	0.739
3551.89	0.744
3561.2	0.748
3570.52	0.751
3579.83	0.756
3589.14	0.76
3598.45	0.765
3607.76	0.77
3617.07	0.774
3626.39	0.778
3635.7	0.781
3645.01	0.782
3654.32	0.783
3663.63	0.781
3672.95	0.778
3682.26	0.78
3691.57	0.784
3700.88	0.784
3710.19	0.784
3719.51	0.784
3728.82	0.782
3738.13	0.782
3747.44	0.781
3756.75	0.781
3766.07	0.781
3775.38	0.781
3784.69	0.78
3794	0.779
