Infrared Spectrum: PHOSPHONIC ACID, ETHYL-, ETHYL ESTER, DIESTER WTIH 1,4-BUTANEDIOL
Formula: C12 H28 O6 P2
CAS: 5284-05-9
State: LIQUID (NEAT)
Class: COBLENTZ III
Instrument: PERKIN-ELMER 221 (GRATING)
Instrument parameters: NaCl PRISM, FILTER CHANGE ABOUT 980, 2490
Sampling: TRANSMISSION
Path length: CAPILLARY
Resolution: 4
Origin: SOUTHERN RESEARCH INSTITUTE
1/CM	TRANSMITTANCE
601.55	0.688
610.852	0.693
620.155	0.702
629.457	0.715
638.759	0.74
648.062	0.768
657.364	0.792
666.666	0.805
675.969	0.789
685.271	0.735
694.573	0.699
703.876	0.705
713.178	0.741
722.48	0.747
731.783	0.699
741.085	0.625
750.387	0.654
759.689	0.701
768.992	0.621
778.294	0.429
787.596	0.344
796.899	0.4
806.201	0.572
815.503	0.652
824.806	0.672
834.108	0.665
843.41	0.662
852.713	0.671
862.015	0.764
871.317	0.814
880.62	0.821
889.922	0.786
899.224	0.729
908.527	0.533
917.829	0.42
927.131	0.344
936.434	0.249
945.736	0.188
955.038	0.17
964.341	0.218
973.643	0.235
982.945	0.257
992.248	0.181
1001.55	0.102
1010.85	0.097
1020.15	0.092
1029.46	0.094
1038.76	0.097
1048.06	0.102
1057.36	0.118
1066.67	0.213
1075.97	0.341
1085.27	0.428
1094.57	0.435
1103.88	0.542
1113.18	0.62
1122.48	0.66
1131.78	0.682
1141.08	0.688
1150.39	0.673
1159.69	0.62
1168.99	0.675
1178.29	0.752
1187.6	0.743
1196.9	0.689
1206.2	0.592
1215.5	0.41
1224.81	0.173
1234.11	0.288
1243.41	0.201
1252.71	0.231
1262.01	0.316
1271.32	0.422
1280.62	0.421
1289.92	0.493
1299.22	0.602
1308.53	0.781
1317.83	0.838
1327.13	0.865
1336.43	0.873
1345.74	0.87
1355.04	0.862
1364.34	0.806
1373.64	0.801
1382.95	0.699
1392.25	0.74
1401.55	0.698
1410.85	0.837
1420.15	0.837
1429.46	0.82
1438.76	0.777
1448.06	0.718
1457.36	0.662
1466.67	0.71
1475.97	0.774
1485.27	0.821
1494.57	0.884
1503.88	0.911
1513.18	0.92
1522.48	0.922
1531.78	0.921
1541.08	0.922
1550.39	0.922
1559.69	0.921
1568.99	0.92
1578.29	0.917
1587.6	0.913
1596.9	0.91
1606.2	0.908
1615.5	0.906
1624.81	0.902
1634.11	0.9
1643.41	0.89
1652.71	0.884
1662.01	0.881
1671.32	0.883
1680.62	0.89
1689.92	0.894
1699.22	0.897
1708.53	0.897
1717.83	0.899
1727.13	0.9
1736.43	0.897
1745.74	0.899
1755.04	0.9
1764.34	0.9
1773.64	0.901
1782.95	0.903
1792.25	0.903
1801.55	0.903
1810.85	0.902
1820.15	0.9
1829.46	0.898
1838.76	0.897
1848.06	0.897
1857.36	0.9
1866.67	0.901
1875.97	0.904
1885.27	0.906
1894.57	0.907
1903.88	0.908
1913.18	0.909
1922.48	0.909
1931.78	0.908
1941.08	0.909
1950.39	0.907
1959.69	0.906
1968.99	0.906
1978.29	0.905
1987.6	0.904
1996.9	0.904
2006.2	0.904
2015.5	0.903
2024.81	0.903
2034.11	0.902
2043.41	0.901
2052.71	0.9
2062.01	0.9
2071.32	0.899
2080.62	0.897
2089.92	0.897
2099.22	0.897
2108.53	0.897
2117.83	0.897
2127.13	0.897
2136.43	0.897
2145.74	0.897
2155.04	0.897
2164.34	0.897
2173.64	0.896
2182.94	0.894
2192.25	0.893
2201.55	0.894
2210.85	0.894
2220.15	0.894
2229.46	0.894
2238.76	0.893
2248.06	0.892
2257.36	0.89
2266.67	0.89
2275.97	0.89
2285.27	0.89
2294.57	0.89
2303.88	0.889
2313.18	0.888
2322.48	0.888
2331.78	0.888
2341.08	0.888
2350.39	0.888
2359.69	0.888
2368.99	0.889
2378.29	0.89
2387.6	0.89
2396.9	0.89
2406.2	0.889
2415.5	0.888
2424.81	0.886
2434.11	0.885
2443.41	0.884
2452.71	0.884
2462.01	0.885
2471.32	0.886
2480.62	0.887
2489.92	0.887
2499.22	0.887
2508.53	0.887
2517.83	0.886
2527.13	0.885
2536.43	0.884
2545.74	0.884
2555.04	0.882
2564.34	0.881
2573.64	0.88
2582.94	0.878
2592.25	0.876
2601.55	0.874
2610.85	0.873
2620.15	0.871
2629.46	0.871
2638.76	0.871
2648.06	0.87
2657.36	0.867
2666.67	0.866
2675.97	0.864
2685.27	0.863
2694.57	0.862
2703.88	0.858
2713.18	0.85
2722.48	0.847
2731.78	0.844
2741.08	0.841
2750.39	0.84
2759.69	0.839
2768.99	0.839
2778.29	0.838
2787.6	0.837
2796.9	0.834
2806.2	0.832
2815.5	0.824
2824.81	0.817
2834.11	0.809
2843.41	0.791
2852.71	0.774
2862.01	0.749
2871.32	0.706
2880.62	0.651
2889.92	0.573
2899.22	0.546
2908.53	0.519
2917.83	0.509
2927.13	0.5
2936.43	0.476
2945.74	0.43
2955.04	0.436
2964.34	0.427
2973.64	0.413
2982.94	0.337
2992.25	0.42
3001.55	0.568
3010.85	0.682
3020.15	0.763
3029.46	0.793
3038.76	0.808
3048.06	0.814
3057.36	0.819
3066.67	0.823
3075.97	0.827
3085.27	0.831
3094.57	0.832
3103.88	0.831
3113.18	0.831
3122.48	0.832
3131.78	0.832
3141.08	0.832
3150.39	0.831
3159.69	0.831
3168.99	0.83
3178.29	0.829
3187.6	0.827
3196.9	0.826
3206.2	0.825
3215.5	0.825
3224.81	0.825
3234.11	0.826
3243.41	0.827
3252.71	0.826
3262.01	0.825
3271.32	0.824
3280.62	0.824
3289.92	0.824
3299.22	0.824
3308.53	0.826
3317.83	0.827
3327.13	0.827
3336.43	0.825
3345.74	0.825
3355.04	0.826
3364.34	0.826
3373.64	0.827
3382.94	0.827
3392.25	0.827
3401.55	0.825
3410.85	0.824
3420.15	0.823
3429.46	0.823
3438.76	0.823
3448.06	0.822
3457.36	0.822
3466.67	0.821
3475.97	0.823
3485.27	0.829
3494.57	0.831
3503.87	0.831
3513.18	0.831
3522.48	0.832
3531.78	0.833
3541.08	0.833
3550.39	0.835
3559.69	0.84
3568.99	0.844
3578.29	0.853
3587.6	0.858
3596.9	0.86
3606.2	0.86
3615.5	0.861
3624.81	0.861
3634.11	0.862
3643.41	0.863
3652.71	0.864
3662.01	0.864
3671.32	0.864
3680.62	0.863
3689.92	0.862
3699.22	0.861
3708.53	0.86
3717.83	0.86
3727.13	0.858
3736.43	0.857
3745.74	0.857
3755.04	0.86
3764.34	0.861
3773.64	0.862
3782.94	0.862
3792.25	0.861
3801.55	0.86
3810.85	0.859
3820.15	0.858
3829.46	0.858
3838.76	0.857
3848.06	0.857
3857.36	0.856
3866.67	0.856
3875.97	0.856
3885.27	0.856
3894.57	0.855
3903.87	0.854
3913.18	0.854
3922.48	0.854
3931.78	0.852
3941.08	0.851
3950.39	0.85
3959.69	0.851
3968.99	0.851
3978.29	0.851
3987.6	0.851
3996.9	0.851
