Infrared Spectrum: 4-THIAZOLECARBOXAMIDE, 5-AMINO-2-METHYLTHIO-
Formula: C5 H7 N3 O S2
CAS: 52868-69-6
State: SOLID (1 mg / 500 mg KBr DISC)
Class: COBLENTZ III
Instrument: PERKIN-ELMER 521 (GRATING)
Sampling: TRANSMISSION
Resolution: 4
Origin: SOUTHERN RESEARCH INSTITUTE
1/CM	TRANSMITTANCE
255.662	0.304
266.115	0.3819
276.568	0.4709
287.021	0.528
297.474	0.523
307.927	0.661
318.38	0.693
328.833	0.694
339.286	0.689
349.739	0.691
360.192	0.686
370.645	0.6311
381.098	0.5626
391.551	0.664
402.004	0.646
412.457	0.612
422.91	0.588
433.363	0.563
443.816	0.554
454.269	0.558
464.722	0.567
475.175	0.569
485.628	0.562
496.081	0.552
506.534	0.55
516.987	0.502
527.44	0.5129
537.893	0.584
548.346	0.575
558.799	0.548
569.252	0.489
579.704	0.441
590.157	0.39
600.61	0.475
611.063	0.539
621.516	0.597
631.969	0.596
642.422	0.661
652.875	0.686
663.328	0.635
673.781	0.505
684.234	0.6629
694.687	0.731
705.14	0.744
715.593	0.74
726.046	0.758
736.499	0.6841
746.952	0.768
757.405	0.792
767.858	0.793
778.311	0.62
788.764	0.6969
799.217	0.759
809.67	0.78
820.123	0.788
830.576	0.793
841.029	0.789
851.482	0.781
861.935	0.757
872.388	0.765
882.841	0.793
893.294	0.801
903.747	0.805
914.2	0.806
924.653	0.806
935.106	0.805
945.559	0.792
956.012	0.728
966.465	0.546
976.918	0.655
987.371	0.759
997.824	0.759
1008.28	0.707
1018.73	0.637
1029.18	0.63
1039.64	0.45
1050.09	0.6989
1060.54	0.721
1070.99	0.657
1081.45	0.697
1091.9	0.723
1102.35	0.724
1112.81	0.712
1123.26	0.707
1133.71	0.691
1144.17	0.677
1154.62	0.669
1165.07	0.695
1175.52	0.708
1185.98	0.723
1196.43	0.733
1206.88	0.734
1217.34	0.72
1227.79	0.693
1238.24	0.633
1248.7	0.501
1259.15	0.718
1269.6	0.716
1280.05	0.695
1290.51	0.633
1300.96	0.5139
1311.41	0.375
1321.87	0.6249
1332.32	0.754
1342.77	0.774
1353.23	0.768
1363.68	0.75
1374.13	0.72
1384.58	0.694
1395.04	0.651
1405.49	0.556
1415.94	0.3611
1426.4	0.199
1436.85	0.342
1447.3	0.578
1457.76	0.624
1468.21	0.567
1478.66	0.621
1489.11	0.531
1499.57	0.326
1510.02	0.1
1520.47	0.1639
1530.93	0.39
1541.38	0.501
1551.83	0.417
1562.28	0.2909
1572.74	0.091
1583.19	0.041
1593.64	0.1
1604.1	0.181
1614.55	0.3811
1625	0.462
1635.46	0.285
1645.91	0.125
1656.36	0.071
1666.81	0.4031
1677.27	0.7059
1687.72	0.81
1698.17	0.84
1708.63	0.862
1719.08	0.872
1729.53	0.875
1739.99	0.886
1750.44	0.896
1760.89	0.907
1771.34	0.909
1781.8	0.907
1792.25	0.904
1802.7	0.903
1813.16	0.899
1823.61	0.899
1834.06	0.902
1844.52	0.903
1854.97	0.898
1865.42	0.895
1875.87	0.894
1886.33	0.892
1896.78	0.891
1907.23	0.891
1917.69	0.89
1928.14	0.887
1938.59	0.883
1949.05	0.881
1959.5	0.878
1969.95	0.875
1980.4	0.874
1990.86	0.873
2001.31	0.862
2011.76	0.859
2022.22	0.857
2032.67	0.8561
2043.12	0.855
2053.58	0.855
2064.03	0.855
2074.48	0.8536
2084.93	0.853
2095.39	0.852
2105.84	0.8498
2116.29	0.8485
2126.75	0.851
2137.2	0.849
2147.65	0.8436
2158.11	0.843
2168.56	0.844
2179.01	0.844
2189.46	0.845
2199.92	0.844
2210.37	0.842
2220.82	0.8359
2231.28	0.832
2241.73	0.832
2252.18	0.835
2262.63	0.835
2273.09	0.832
2283.54	0.831
2293.99	0.831
2304.45	0.83
2314.9	0.832
2325.35	0.834
2335.81	0.831
2346.26	0.83
2356.71	0.8274
2367.16	0.826
2377.62	0.823
2388.07	0.822
2398.52	0.823
2408.98	0.8226
2419.43	0.821
2429.88	0.814
2440.34	0.81
2450.79	0.81
2461.24	0.81
2471.69	0.8089
2482.15	0.804
2492.6	0.805
2503.05	0.802
2513.51	0.805
2523.96	0.806
2534.41	0.802
2544.87	0.801
2555.32	0.801
2565.77	0.797
2576.22	0.795
2586.68	0.792
2597.13	0.789
2607.58	0.787
2618.04	0.784
2628.49	0.7805
2638.94	0.776
2649.4	0.7756
2659.85	0.772
2670.3	0.769
2680.75	0.7657
2691.21	0.7605
2701.66	0.7498
2712.11	0.744
2722.57	0.741
2733.02	0.737
2743.47	0.737
2753.93	0.738
2764.38	0.7409
2774.83	0.7449
2785.28	0.746
2795.74	0.7424
2806.19	0.7384
2816.64	0.7313
2827.1	0.724
2837.55	0.725
2848	0.725
2858.45	0.725
2868.91	0.724
2879.36	0.722
2889.81	0.716
2900.27	0.7076
2910.72	0.6916
2921.17	0.6431
2931.63	0.6655
2942.08	0.694
2952.53	0.694
2962.98	0.691
2973.44	0.684
2983.89	0.678
2994.34	0.6639
3004.8	0.652
3015.25	0.657
3025.7	0.6522
3036.16	0.6431
3046.61	0.6292
3057.06	0.6137
3067.51	0.6003
3077.97	0.5826
3088.42	0.5641
3098.87	0.5468
3109.33	0.5253
3119.78	0.4994
3130.23	0.4696
3140.69	0.4254
3151.14	0.3886
3161.59	0.3509
3172.04	0.33
3182.5	0.3164
3192.95	0.309
3203.4	0.3371
3213.86	0.3609
3224.31	0.3416
3234.76	0.3097
3245.22	0.288
3255.67	0.2581
3266.12	0.249
3276.57	0.2541
3287.03	0.2243
3297.48	0.1513
3307.93	0.114
3318.39	0.1416
3328.84	0.2583
3339.29	0.3299
3349.75	0.3674
3360.2	0.3694
3370.65	0.3509
3381.1	0.3126
3391.56	0.2669
3402.01	0.1893
3412.46	0.1108
3422.92	0.0743
3433.37	0.1891
3443.82	0.3457
3454.27	0.4004
3464.73	0.4224
3475.18	0.4473
3485.63	0.4793
3496.09	0.5201
3506.54	0.5599
3516.99	0.5839
3527.45	0.6037
3537.9	0.6196
3548.35	0.6326
3558.8	0.6468
3569.26	0.6582
3579.71	0.6717
3590.16	0.6846
3600.62	0.6986
3611.07	0.7097
3621.52	0.7235
3631.98	0.733
3642.43	0.74
3652.88	0.7428
3663.33	0.744
3673.79	0.742
3684.24	0.738
3694.69	0.742
3705.15	0.742
3715.6	0.742
3726.05	0.741
3736.51	0.741
3746.96	0.738
3757.41	0.737
3767.86	0.736
3778.32	0.734
3788.77	0.733
3799.22	0.732
3809.68	0.7272
3820.13	0.727
3830.58	0.725
3841.04	0.724
3851.49	0.723
3861.94	0.72
3872.39	0.719
3882.85	0.716
3893.3	0.714
3903.75	0.714
3914.21	0.712
3924.66	0.711
3935.11	0.71
3945.57	0.708
3956.02	0.707
3966.47	0.707
3976.92	0.707
3987.38	0.707
3997.83	0.706
