Infrared Spectrum: Acetanilide, N-ethyl-
Formula: C10 H13 N O
CAS: 529-65-7
State: SOLUTION (10% CCl4 FOR 2.6-7.5, 10% CS2 FOR 7.5-24)
Class: COBLENTZ III
Instrument: DOW KBr FOREPRISM-GRATING
Instrument parameters: BLAZED AT 3.5, 12.0, 20.0 AND CHANGED AT 5.0, 7.5, 14.9 MICRON
Sampling: TRANSMISSION
Path length: 0.011 CM, 0.011 CM
Resolution: 2
Origin: DOW CHEMICAL COMPANY
1/CM	TRANSMITTANCE
386.89	0.4658
396.006	0.5188
405.123	0.7607
414.239	0.8793
423.355	0.904
432.471	0.8989
441.588	0.9036
450.704	0.947
459.82	0.9641
468.937	0.9589
478.053	0.9573
487.169	0.9734
496.285	0.9931
505.402	0.9896
514.518	0.9939
523.634	0.9831
532.75	0.9612
541.867	0.8882
550.983	0.5742
560.099	0.4163
569.216	0.8867
578.332	0.9409
587.448	0.9
596.564	0.6603
605.681	0.8947
614.797	0.7828
623.913	0.8621
633.03	0.9856
642.146	0.9522
651.262	0.8746
660.378	0.9372
669.495	0.9571
678.611	0.9399
687.727	0.7763
696.843	0.0322
705.96	0.5155
715.076	0.9092
724.192	0.9472
733.309	0.9532
742.425	0.9321
751.541	0.879
760.657	0.5899
769.774	0.1479
778.89	0.7063
788.006	0.8177
797.123	0.9311
806.239	0.9522
815.355	0.9549
824.471	0.9486
833.588	0.9422
842.704	0.9358
851.82	0.9294
860.937	0.9247
870.053	0.9288
879.169	0.9319
888.285	0.949
897.402	0.9272
906.518	0.83
915.634	0.8999
924.75	0.9066
933.867	0.9552
942.983	0.9358
952.099	0.9393
961.216	0.9197
970.332	0.8968
979.448	0.8427
988.564	0.5825
997.681	0.7463
1006.8	0.8517
1015.91	0.828
1025.03	0.5766
1034.15	0.7423
1043.26	0.8744
1052.38	0.8914
1061.49	0.8346
1070.61	0.4881
1079.73	0.7346
1088.84	0.7556
1097.96	0.4343
1107.08	0.7556
1116.19	0.8581
1125.31	0.8577
1134.42	0.6594
1143.54	0.3191
1152.66	0.7944
1161.77	0.8671
1170.89	0.8291
1180.01	0.893
1189.12	0.9035
1198.24	0.9191
1207.36	0.9214
1216.47	0.9078
1225.59	0.8841
1234.7	0.8495
1243.82	0.8036
1252.94	0.6362
1262.05	0.2393
1271.17	0.3399
1280.29	0.2037
1289.4	0.1113
1298.52	0.0322
1307.63	0.2185
1316.75	0.5412
1325.87	0.6405
1334.98	0.6712
1344.1	0.6148
1353.22	0.5027
1362.33	0.2721
1371.45	0.3127
1380.56	0.0943
1389.68	0.0326
1398.8	0.0184
1407.91	0.054
1417.03	0.2399
1426.15	0.3786
1435.26	0.3937
1444.38	0.2281
1453.49	0.2153
1462.61	0.333
1471.73	0.6153
1480.84	0.6508
1489.96	0.3086
1499.08	0.0103
1508.19	0.7017
1517.31	0.7564
1526.42	0.765
1535.54	0.7639
1544.66	0.7011
1553.77	0.632
1562.89	0.596
1572.01	0.6063
1581.12	0.5287
1590.24	0.2655
1599.36	0.0284
1608.47	0.5253
1617.59	0.5466
1626.7	0.4557
1635.82	0.3033
1644.94	0.0771
1654.05	0.0081
1663.17	0.0082
1672.29	0.014
1681.4	0.1998
1690.52	0.4872
1699.63	0.6255
1708.75	0.7454
1717.87	0.8073
1726.98	0.8257
1736.1	0.829
1745.22	0.8251
1754.33	0.8368
1763.45	0.8359
1772.56	0.8501
1781.68	0.8613
1790.8	0.8522
1799.91	0.8244
1809.03	0.8613
1818.15	0.8745
1827.26	0.876
1836.38	0.882
1845.49	0.8776
1854.61	0.8734
1863.73	0.8667
1872.84	0.8439
1881.96	0.8652
1891.08	0.847
1900.19	0.8758
1909.31	0.8803
1918.42	0.886
1927.54	0.8829
1936.66	0.8728
1945.77	0.8327
1954.89	0.8522
1964.01	0.8565
1973.12	0.8598
1982.24	0.8762
1991.36	0.8793
2000.47	0.9006
2009.59	0.9138
2018.7	0.9187
2027.82	0.9208
2036.94	0.9208
2046.05	0.9197
2055.17	0.921
2064.29	0.9196
2073.4	0.9192
2082.52	0.9183
2091.63	0.9173
2100.75	0.9161
2109.87	0.9153
2118.98	0.9234
2128.1	0.9275
2137.22	0.9298
2146.33	0.9307
2155.45	0.9295
2164.56	0.928
2173.68	0.9278
2182.8	0.925
2191.91	0.9221
2201.03	0.9217
2210.15	0.9223
2219.26	0.9204
2228.38	0.9179
2237.49	0.9125
2246.61	0.9078
2255.73	0.913
2264.84	0.9156
2273.96	0.9144
2283.08	0.9143
2292.19	0.9129
2301.31	0.9129
2310.42	0.9108
2319.54	0.9086
2328.66	0.9051
2337.77	0.9019
2346.89	0.9108
2356.01	0.9156
2365.12	0.9158
2374.24	0.9175
2383.36	0.9176
2392.47	0.9147
2401.59	0.9149
2410.7	0.9163
2419.82	0.9141
2428.94	0.9113
2438.05	0.9093
2447.17	0.9098
2456.29	0.9139
2465.4	0.9169
2474.52	0.9167
2483.63	0.9154
2492.75	0.9124
2501.87	0.9101
2510.98	0.9074
2520.1	0.9076
2529.22	0.9076
2538.33	0.9045
2547.45	0.9015
2556.56	0.9017
2565.68	0.9025
2574.8	0.9014
2583.91	0.8992
2593.03	0.8969
2602.15	0.8967
2611.26	0.8985
2620.38	0.901
2629.49	0.9005
2638.61	0.8973
2647.73	0.8947
2656.84	0.8927
2665.96	0.8922
2675.08	0.8901
2684.19	0.8892
2693.31	0.8871
2702.42	0.8877
2711.54	0.8895
2720.66	0.8896
2729.77	0.8852
2738.89	0.8833
2748.01	0.8843
2757.12	0.887
2766.24	0.8881
2775.36	0.8844
2784.47	0.8777
2793.59	0.871
2802.7	0.8657
2811.82	0.8598
2820.94	0.8525
2830.05	0.8487
2839.17	0.8436
2848.29	0.8371
2857.4	0.8012
2866.52	0.688
2875.63	0.6386
2884.75	0.7384
2893.87	0.7268
2902.98	0.7183
2912.1	0.711
2921.22	0.5565
2930.33	0.3676
2939.45	0.4558
2948.56	0.6165
2957.68	0.558
2966.8	0.392
2975.91	0.3222
2985.03	0.4399
2994.15	0.5608
3003.26	0.6461
3012.38	0.6819
3021.49	0.6792
3030.61	0.6295
3039.73	0.6104
3048.84	0.7024
3057.96	0.6471
3067.08	0.6381
3076.19	0.7564
3085.31	0.7318
3094.42	0.7793
3103.54	0.8131
3112.66	0.8541
3121.77	0.8703
3130.89	0.8771
3140.01	0.8803
3149.12	0.8813
3158.24	0.8804
3167.36	0.8836
3176.47	0.8845
3185.59	0.8854
3194.7	0.8865
3203.82	0.8896
3212.94	0.8922
3222.05	0.8936
3231.17	0.8968
3240.29	0.8953
3249.4	0.8937
3258.52	0.8913
3267.63	0.8884
3276.75	0.8846
3285.87	0.8724
3294.98	0.8582
3304.1	0.849
3313.22	0.8557
3322.33	0.8744
3331.45	0.8897
3340.56	0.9001
3349.68	0.9073
3358.8	0.9118
3367.91	0.9115
3377.03	0.9115
3386.15	0.9116
3395.26	0.9118
3404.38	0.9118
3413.49	0.9118
3422.61	0.9116
3431.73	0.911
3440.84	0.9102
3449.96	0.9096
3459.08	0.9087
3468.19	0.9079
3477.31	0.9069
3486.42	0.9065
3495.54	0.9062
3504.66	0.9059
3513.77	0.9056
3522.89	0.9053
3532.01	0.905
3541.12	0.9047
3550.24	0.9058
3559.36	0.9047
3568.47	0.9035
3577.59	0.9018
3586.7	0.9006
3595.82	0.9008
3604.94	0.9009
3614.05	0.9002
3623.17	0.8991
3632.29	0.899
3641.4	0.8984
3650.52	0.897
3659.63	0.8952
3668.75	0.8944
3677.87	0.8939
3686.98	0.8943
3696.1	0.8945
3705.22	0.8948
3714.33	0.8966
3723.45	0.8974
3732.56	0.8962
3741.68	0.8948
3750.8	0.8945
3759.91	0.8941
3769.03	0.8924
3778.15	0.8924
3787.26	0.8924
3796.38	0.8923
