Infrared Spectrum: 4-(P-NITROPHENYLAZO)-1-NAPHTHOL
Formula: C16 H11 N3 O3
CAS: 5290-62-0
State: SOLID (MINERAL OIL MULL)
Class: COBLENTZ
Instrument: Not specified, most likely a prism, grating, or hybrid spectrometer.
Sampling: TRANSMISSION
Resolution: 4
Origin: WYANDOTTE CHEMICALS CORP., WYANDOTTE, MICHIGAN, USA
MICROMETERS	TRANSMITTANCE
2.034	0.507
2.07494	0.512
2.11587	0.517
2.15681	0.528
2.19774	0.54
2.23868	0.545
2.27961	0.555
2.32055	0.563
2.36148	0.572
2.40242	0.584
2.44335	0.591
2.48429	0.601
2.52523	0.608
2.56616	0.613
2.6071	0.623
2.64803	0.632
2.68897	0.642
2.7299	0.65
2.77084	0.65
2.81177	0.652
2.85271	0.649
2.89364	0.65
2.93458	0.642
2.97551	0.642
3.01645	0.638
3.05739	0.543
3.09832	0.553
3.13926	0.577
3.18019	0.591
3.22113	0.594
3.26206	0.555
3.303	0.584
3.34393	0.471
3.38487	0.107
3.4258	0.09
3.46674	0.221
3.50768	0.194
3.54861	0.589
3.58955	0.698
3.63048	0.735
3.67142	0.741
3.71235	0.739
3.75329	0.744
3.79422	0.752
3.83516	0.766
3.87609	0.768
3.91703	0.787
3.95796	0.79
3.9989	0.797
4.03984	0.804
4.08077	0.814
4.12171	0.819
4.16264	0.804
4.20358	0.807
4.24451	0.819
4.28545	0.802
4.32638	0.816
4.36732	0.851
4.40825	0.868
4.44919	0.863
4.49013	0.862
4.53106	0.872
4.572	0.875
4.61293	0.872
4.65387	0.875
4.6948	0.88
4.73574	0.884
4.77667	0.897
4.81761	0.902
4.85854	0.909
4.89948	0.916
4.94041	0.913
4.98135	0.916
5.02229	0.916
5.06322	0.919
5.10416	0.916
5.14509	0.921
5.18603	0.923
5.22696	0.921
5.2679	0.925
5.30883	0.93
5.34977	0.938
5.3907	0.942
5.43164	0.942
5.47258	0.94
5.51351	0.95
5.55445	0.954
5.59538	0.952
5.63632	0.95
5.67725	0.943
5.71819	0.942
5.75912	0.93
5.80006	0.95
5.84099	0.957
5.88193	0.942
5.92286	0.942
5.9638	0.933
6.00474	0.894
6.04567	0.805
6.08661	0.594
6.12754	0.448
6.16848	0.567
6.20941	0.262
6.25035	0.262
6.29128	0.54
6.33222	0.62
6.37315	0.436
6.41409	0.323
6.45503	0.385
6.49596	0.579
6.5369	0.517
6.57783	0.381
6.61877	0.272
6.6597	0.352
6.70064	0.459
6.74157	0.366
6.78251	0.373
6.82344	0.301
6.86438	0.405
6.90531	0.546
6.94625	0.632
6.98719	0.735
7.02812	0.616
7.06906	0.47
7.10999	0.671
7.15093	0.773
7.19186	0.763
7.2328	0.635
7.27373	0.575
7.31467	0.649
7.3556	0.669
7.39654	0.625
7.43748	0.458
7.47841	0.253
7.51935	0.192
7.56028	0.16
7.60122	0.226
7.64215	0.315
7.68309	0.422
7.72402	0.495
7.76496	0.621
7.80589	0.613
7.84683	0.402
7.88776	0.207
7.9287	0.151
7.96964	0.253
8.01057	0.403
8.05151	0.526
8.09244	0.587
8.13338	0.604
8.17431	0.597
8.21525	0.62
8.25618	0.652
8.29712	0.662
8.33805	0.654
8.37899	0.642
8.41993	0.618
8.46086	0.574
8.5018	0.528
8.54273	0.466
8.58367	0.422
8.6246	0.514
8.66554	0.553
8.70647	0.691
8.74741	0.771
8.78834	0.788
8.82928	0.776
8.87021	0.8
8.91115	0.798
8.95209	0.618
8.99302	0.405
9.03396	0.415
9.07489	0.652
9.11583	0.732
9.15676	0.763
9.1977	0.787
9.23863	0.819
9.27957	0.795
9.3205	0.752
9.36144	0.783
9.40238	0.812
9.44331	0.8
9.48425	0.778
9.52518	0.635
9.56612	0.662
9.60705	0.778
9.64799	0.831
9.68892	0.848
9.72986	0.85
9.77079	0.844
9.81173	0.759
9.85266	0.517
9.8936	0.601
9.93454	0.693
9.97547	0.756
10.0164	0.759
10.0573	0.732
10.0983	0.773
10.1392	0.814
10.1801	0.838
10.2211	0.841
10.262	0.829
10.303	0.819
10.3439	0.824
10.3848	0.829
10.4258	0.851
10.4667	0.856
10.5076	0.867
10.5486	0.873
10.5895	0.88
10.6304	0.896
10.6714	0.906
10.7123	0.911
10.7532	0.911
10.7942	0.909
10.8351	0.902
10.8761	0.892
10.917	0.889
10.9579	0.889
10.9989	0.901
11.0398	0.908
11.0807	0.914
11.1217	0.918
11.1626	0.916
11.2035	0.908
11.2445	0.868
11.2854	0.833
11.3263	0.839
11.3673	0.873
11.4082	0.889
11.4491	0.885
11.4901	0.889
11.531	0.868
11.572	0.836
11.6129	0.822
11.6538	0.821
11.6948	0.804
11.7357	0.734
11.7766	0.558
11.8176	0.402
11.8585	0.429
11.8994	0.545
11.9404	0.526
11.9813	0.596
12.0222	0.712
12.0632	0.763
12.1041	0.805
12.145	0.822
12.186	0.824
12.2269	0.826
12.2679	0.822
12.3088	0.819
12.3497	0.821
12.3907	0.819
12.4316	0.8
12.4725	0.766
12.5135	0.763
12.5544	0.775
12.5953	0.785
12.6363	0.792
12.6772	0.824
12.7181	0.836
12.7591	0.827
12.8	0.829
12.841	0.822
12.8819	0.814
12.9228	0.79
12.9638	0.763
13.0047	0.739
13.0456	0.7
13.0866	0.676
13.1275	0.623
13.1684	0.543
13.2094	0.488
13.2503	0.512
13.2912	0.546
13.3322	0.487
13.3731	0.495
13.414	0.657
13.455	0.763
13.4959	0.797
13.5369	0.816
13.5778	0.833
13.6187	0.838
13.6597	0.846
13.7006	0.85
13.7415	0.846
13.7825	0.848
13.8234	0.843
13.8643	0.829
13.9053	0.819
13.9462	0.809
13.9871	0.831
14.0281	0.85
14.069	0.863
14.1099	0.873
14.1509	0.873
14.1918	0.873
14.2328	0.863
14.2737	0.868
14.3146	0.867
14.3556	0.87
14.3965	0.867
14.4374	0.858
14.4784	0.841
14.5193	0.817
14.5602	0.778
14.6012	0.746
14.6421	0.73
14.683	0.737
14.724	0.763
14.7649	0.788
14.8059	0.8
14.8468	0.807
14.8877	0.807
14.9287	0.8
14.9696	0.79
15.0105	0.763
15.0515	0.732
15.0924	0.727
15.1333	0.77
15.1743	0.793
15.2152	0.792
15.2561	0.778
15.2971	0.768
15.338	0.751
15.3789	0.741
15.4199	0.732
15.4608	0.713
15.5018	0.705
15.5427	0.698
15.5836	0.689
15.6246	0.683
15.6655	0.672
15.7064	0.669
15.7474	0.66
15.7883	0.649
15.8292	0.618
15.8702	0.618
15.9111	0.603
15.952	0.597
15.993	0.596
