Infrared Spectrum: 4-Propyl-1,6-heptadien-4-ol
Formula: C 10 H 18 O
CAS: 52939-61-4
State: gas
Instrument: HP-GC/MS/IRD
Origin: NIST Mass Spectrometry Data Center
1/CM	ABSORBANCE
550	0.0010602
562	0.0002988
574	0.0002916
586	0.0004104
598	0.000576
610	0.0007038
622	0.0006858
634	0.0006966
646	0.0007704
658	0.0006858
670	0.0008874
682	0.000828
694	0.0004698
706	0.0002106
718	0.000126
730	0.0002286
742	0.0004968
754	0.0004734
766	0.0004464
778	0.0006822
790	0.0008496
802	0.0007164
814	0.0004374
826	0.0004284
838	0.0007092
850	0.0014346
862	0.0024678
874	0.0029592
886	0.00261
898	0.0038196
910	0.0104922
922	0.0129582
934	0.0053298
946	0.0025434
958	0.0019584
970	0.0024228
982	0.0051894
994	0.009693
1006	0.00882
1018	0.0064962
1030	0.004779
1042	0.0031104
1054	0.0024822
1066	0.0022932
1078	0.0022464
1090	0.002385
1102	0.0027432
1114	0.003105
1126	0.0035118
1138	0.0038736
1150	0.0039726
1162	0.0032184
1174	0.0021744
1186	0.0017046
1198	0.0017766
1210	0.0021744
1222	0.0024102
1234	0.0026064
1246	0.0027108
1258	0.0028458
1270	0.0028872
1282	0.0027846
1294	0.002745
1306	0.0026838
1318	0.0027126
1330	0.0029088
1342	0.0030942
1354	0.0033912
1366	0.0034254
1378	0.0031806
1390	0.0024444
1402	0.0019548
1414	0.0023886
1426	0.0033516
1438	0.005031
1450	0.0046944
1462	0.0031068
1474	0.0020142
1486	0.0009774
1498	0.0005814
1510	0.0004464
1522	0.0003834
1534	0.0003294
1546	0.0002808
1558	0.0002754
1570	0.0002556
1582	0.00027
1594	0.0003726
1606	0.0005544
1618	0.001089
1630	0.0030222
1642	0.0039924
1654	0.001323
1666	0.0003636
1678	0.0002232
1690	0.0001278
1702	9.54e-05
1714	5.58e-05
1726	2.52e-05
1738	1.62e-05
1750	9e-06
1762	1.62e-05
1774	5.58e-05
1786	9.18e-05
1798	9.9e-05
1810	0.000225
1822	0.0005868
1834	0.0012654
1846	0.0011412
1858	0.0004986
1870	0.0001872
1882	0.0001476
1894	0.000108
1906	0.0001026
1918	9.54e-05
1930	7.2e-05
1942	5.58e-05
1954	9.18e-05
1966	0.0001386
1978	0.0001602
1990	0.0001692
2002	0.0001422
2014	0.0001116
2026	0.0001008
2038	0.0001134
2050	0.000108
2062	0.0001044
2074	0.0001152
2086	0.0001476
2098	0.0001188
2110	0.0001314
2122	0.0001224
2134	0.000135
2146	0.000135
2158	0.0001548
2170	0.0001278
2182	0.0001188
2194	0.0001386
2206	0.0001476
2218	0.0001386
2230	0.0001386
2242	0.000135
2254	0.0001386
2266	0.0001368
2278	0.000153
2290	0.0001494
2302	0.0001638
2314	0.0001584
2326	0.000153
2338	0.0001566
2350	0.0001548
2362	0.00018
2374	0.000171
2386	0.0001656
2398	0.0001602
2410	0.0001674
2422	0.0001638
2434	0.0001656
2446	0.0001116
2458	0.0001422
2470	0.000126
2482	0.0001422
2494	0.0001602
2506	0.0001656
2518	0.0001404
2530	0.000162
2542	0.000189
2554	0.0001818
2566	0.0002016
2578	0.0002358
2590	0.000198
2602	0.0001962
2614	0.000207
2626	0.0001962
2638	0.0001944
2650	0.0002052
2662	0.0002052
2674	0.0002214
2686	0.00027
2698	0.0002772
2710	0.0003276
2722	0.0003438
2734	0.0004482
2746	0.0005148
2758	0.0004734
2770	0.0004842
2782	0.0005094
2794	0.0006264
2806	0.0007686
2818	0.0011196
2830	0.001764
2842	0.0027576
2854	0.0038034
2866	0.0048006
2878	0.0073026
2890	0.0080334
2902	0.0084132
2914	0.0119808
2926	0.0150102
2938	0.0176382
2950	0.0152244
2962	0.0165132
2974	0.0163836
2986	0.0095022
2998	0.0054576
3010	0.004527
3022	0.0037656
3034	0.0023292
3046	0.0020286
3058	0.0025506
3070	0.0044226
3082	0.008388
3094	0.0050292
3106	0.0011592
3118	0.000693
3130	0.0005724
3142	0.0005328
3154	0.0004572
3166	0.0003546
3178	0.000288
3190	0.0002736
3202	0.0002646
3214	0.000216
3226	0.0001746
3238	0.0002016
3250	0.0001548
3262	0.0001962
3274	0.00018
3286	0.0001944
3298	0.0001782
3310	0.0001908
3322	0.0001656
3334	0.0001296
3346	0.000162
3358	0.000189
3370	0.000135
3382	0.0001854
3394	0.0001656
3406	0.0001638
3418	0.0001584
3430	0.0001728
3442	0.00018
3454	0.0001728
3466	0.0001278
3478	0.000162
3490	0.0001548
3502	0.0001548
3514	0.0001962
3526	0.0001944
3538	0.0002052
3550	0.0002484
3562	0.0002502
3574	0.0003852
3586	0.0007182
3598	0.0014976
3610	0.0019404
3622	0.0016902
3634	0.0015642
3646	0.0010926
3658	0.0004698
3670	0.0003024
3682	0.0002844
3694	0.000216
3706	0.00018
3718	0.0001656
3730	0.0001278
3742	0.0002106
3754	0.0001962
3766	0.0001836
3778	0.0002034
3790	0.000225
3802	0.0001746
3814	0.0001854
3826	0.0001998
3838	0.0002448
