Infrared Spectrum: trans-2-Methyl-3-octene
Formula: C 9 H 18
CAS: 52937-36-7
State: gas
Instrument: HP-GC/MS/IRD
Origin: NIST Mass Spectrometry Data Center
1/CM	ABSORBANCE
550	6.29e-05
562	7.77e-05
574	2.96e-05
586	0.000111
598	0.0001443
610	0.0001258
622	0.0001554
634	0.0002257
646	0.0001332
658	7.4e-05
670	4.44e-05
682	0.0001554
694	0.0002109
706	0.0002442
718	0.000333
730	0.0004329
742	0.0005809
754	0.0004958
766	0.0004144
778	0.0003367
790	0.0002664
802	0.0003071
814	0.0002405
826	0.0003034
838	0.0003441
850	0.000333
862	0.0003293
874	0.0003848
886	0.0004773
898	0.0004736
910	0.0006327
922	0.0008806
934	0.0013135
946	0.0025974
958	0.0048803
970	0.005513
982	0.003256
994	0.0015096
1006	0.0010656
1018	0.0011581
1030	0.001073
1042	0.0007437
1054	0.0005809
1066	0.0005439
1078	0.0005624
1090	0.0007548
1102	0.0008806
1114	0.0006845
1126	0.0004921
1138	0.0003848
1150	0.0004403
1162	0.0005143
1174	0.0005883
1186	0.000444
1198	0.0003737
1210	0.00037
1222	0.0004033
1234	0.0004588
1246	0.0006438
1258	0.0007178
1270	0.0007363
1282	0.0008547
1294	0.0011692
1306	0.0013949
1318	0.0015355
1330	0.0017242
1342	0.0017427
1354	0.0018056
1366	0.0020498
1378	0.0023939
1390	0.0021275
1402	0.0012284
1414	0.0009583
1426	0.0012025
1438	0.0020831
1450	0.0032005
1462	0.0040663
1474	0.0034891
1486	0.0017464
1498	0.000851
1510	0.0005106
1522	0.0003811
1534	0.0002849
1546	0.0002553
1558	0.000222
1570	0.0001924
1582	0.0001961
1594	0.0001924
1606	0.0001776
1618	0.0001628
1630	0.0001961
1642	0.0001887
1654	0.0001924
1666	0.0002072
1678	0.0002072
1690	0.0001813
1702	0.0001702
1714	0.0001887
1726	0.0001998
1738	0.0002331
1750	0.0002405
1762	0.0002664
1774	0.0002664
1786	0.0002479
1798	0.0001961
1810	0.0001628
1822	0.000111
1834	0.0001073
1846	8.14e-05
1858	8.51e-05
1870	7.03e-05
1882	9.25e-05
1894	7.4e-05
1906	5.92e-05
1918	5.18e-05
1930	4.07e-05
1942	2.59e-05
1954	3.7e-05
1966	2.59e-05
1978	4.07e-05
1990	2.22e-05
2002	1.48e-05
2014	3.33e-05
2026	4.44e-05
2038	5.18e-05
2050	5.55e-05
2062	3.7e-05
2074	2.22e-05
2086	3.33e-05
2098	2.96e-05
2110	7.4e-06
2122	2.59e-05
2134	7.4e-06
2146	7.4e-06
2158	1.85e-05
2170	3.7e-05
2182	4.81e-05
2194	3.33e-05
2206	4.81e-05
2218	5.55e-05
2230	1.48e-05
2242	2.22e-05
2254	1.11e-05
2266	3.7e-05
2278	4.44e-05
2290	2.22e-05
2302	4.07e-05
2314	4.44e-05
2326	6.29e-05
2338	5.18e-05
2350	5.18e-05
2362	6.29e-05
2374	7.77e-05
2386	7.77e-05
2398	7.03e-05
2410	7.4e-05
2422	7.4e-05
2434	8.14e-05
2446	6.66e-05
2458	7.4e-05
2470	8.14e-05
2482	8.14e-05
2494	7.77e-05
2506	8.14e-05
2518	0.0001036
2530	0.0001184
2542	0.0001295
2554	0.0001406
2566	0.0001998
2578	0.0001998
2590	0.0002035
2602	0.0002072
2614	0.0001961
2626	0.0002516
2638	0.0002886
2650	0.0002997
2662	0.0002997
2674	0.0003256
2686	0.0003219
2698	0.0003478
2710	0.0003996
2722	0.0005069
2734	0.0005735
2746	0.0006512
2758	0.0006438
2770	0.0006882
2782	0.000777
2794	0.0009731
2806	0.0011951
2818	0.0016132
2830	0.0023754
2842	0.0042254
2854	0.0075628
2866	0.0115144
2878	0.0144115
2890	0.0134791
2902	0.0137159
2914	0.0179672
2926	0.0242498
2938	0.0266289
2950	0.025308
2962	0.0347208
2974	0.0307655
2986	0.0131202
2998	0.0065083
3010	0.0043068
3022	0.0036334
3034	0.0029193
3046	0.0020498
3058	0.0014171
3070	0.0010878
3082	0.0009398
3094	0.000814
3106	0.0007104
3118	0.000629
3130	0.000555
3142	0.0005143
3154	0.0005328
3166	0.0004699
3178	0.0004588
3190	0.0004292
3202	0.0003996
3214	0.0003182
3226	0.0002664
3238	0.0001443
3250	0.0001258
3262	0.0001369
3274	0.0001147
3286	9.99e-05
3298	9.25e-05
3310	8.88e-05
3322	7.4e-05
3334	7.03e-05
3346	8.51e-05
3358	0.0001221
3370	0.0001184
3382	0.0001221
3394	0.0001147
3406	8.88e-05
3418	9.25e-05
3430	7.4e-05
3442	6.29e-05
3454	4.81e-05
3466	1.11e-05
3478	8.14e-05
3490	1.85e-05
3502	4.44e-05
3514	4.44e-05
3526	5.18e-05
3538	4.07e-05
3550	7.4e-05
3562	3.33e-05
3574	4.44e-05
3586	5.55e-05
3598	6.66e-05
3610	4.44e-05
3622	7.03e-05
3634	2.59e-05
3646	6.29e-05
3658	7.77e-05
3670	9.25e-05
3682	8.88e-05
3694	4.44e-05
3706	8.88e-05
3718	7.77e-05
3730	0.0001258
3742	0.0001184
3754	0.0001184
3766	0.0001221
3778	0.0001184
3790	0.000148
3802	0.0001443
3814	0.000148
3826	0.0001332
3838	0.0001702
