Infrared Spectrum: PHOSPHONIUM COMPOUNDS, (CHLOROMETHYL)TRIPHENYL-CHLORIDE
Formula: C19 H17 Cl2 P
CAS: 5293-84-5
State: SOLID (SPLIT MULL), FLUOROLUBE FOR 3800-1330 CM^-^1, NUJOL FOR 1330-470 CM^-^1
Class: COBLENTZ III
Instrument: DOW KBr FOREPRISM-GRATING
Instrument parameters: BLAZED AT 3.5, 12.0, 20.0 MICRON AND CHANGED AT 5.0, 7.5, 14.9 MICRON
Sampling: TRANSMISSION
Resolution: 2
Origin: DOW CHEMICAL COMPANY
1/CM	TRANSMITTANCE
470.155	0.862
478.998	0.833
487.841	0.73
496.684	0.42
505.527	0.576
514.37	0.535
523.213	0.724
532.056	0.11
540.899	0.902
549.742	0.942
558.585	0.947
567.428	0.936
576.271	0.932
585.114	0.929
593.957	0.929
602.801	0.929
611.644	0.928
620.487	0.88
629.33	0.947
638.173	0.951
647.016	0.954
655.859	0.949
664.702	0.9
673.545	0.834
682.388	0.658
691.231	0.276
700.074	0.31
708.917	0.519
717.76	0.464
726.603	0.562
735.446	0.231
744.289	0.741
753.132	0.651
761.975	0.159
770.818	0.489
779.661	0.902
788.504	0.936
797.347	0.921
806.19	0.859
815.033	0.779
823.876	0.916
832.719	0.872
841.562	0.5069
850.405	0.55
859.248	0.786
868.092	0.873
876.935	0.9
885.778	0.91
894.621	0.907
903.464	0.907
912.307	0.899
921.15	0.881
929.993	0.866
938.836	0.833
947.679	0.85
956.522	0.839
965.365	0.83
974.208	0.804
983.051	0.744
991.894	0.745
1000.74	0.522
1009.58	0.775
1018.42	0.748
1027.27	0.774
1036.11	0.784
1044.95	0.788
1053.8	0.777
1062.64	0.768
1071.48	0.741
1080.32	0.735
1089.17	0.694
1098.01	0.631
1106.85	0.313
1115.7	0.099
1124.54	0.514
1133.38	0.727
1142.23	0.726
1151.07	0.723
1159.91	0.617
1168.75	0.698
1177.6	0.763
1186.44	0.726
1195.28	0.731
1204.13	0.715
1212.97	0.782
1221.81	0.793
1230.66	0.795
1239.5	0.748
1248.34	0.766
1257.19	0.793
1266.03	0.793
1274.87	0.777
1283.71	0.779
1292.56	0.786
1301.4	0.77
1310.24	0.749
1319.09	0.707
1327.93	0.726
1336.77	0.696
1345.62	0.693
1354.46	0.764
1363.3	0.829
1372.14	0.833
1380.99	0.793
1389.83	0.844
1398.67	0.817
1407.52	0.797
1416.36	0.735
1425.2	0.768
1434.05	0.357
1442.89	0.354
1451.73	0.894
1460.57	0.958
1469.42	0.94
1478.26	0.914
1487.1	0.722
1495.95	0.894
1504.79	0.964
1513.63	0.958
1522.48	0.951
1531.32	0.947
1540.16	0.942
1549.01	0.935
1557.85	0.929
1566.69	0.918
1575.53	0.865
1584.38	0.873
1593.22	0.744
1602.06	0.92
1610.91	0.895
1619.75	0.874
1628.59	0.881
1637.44	0.87
1646.28	0.856
1655.12	0.843
1663.96	0.822
1672.81	0.8
1681.65	0.781
1690.49	0.762
1699.34	0.764
1708.18	0.771
1717.02	0.774
1725.87	0.785
1734.71	0.796
1743.55	0.803
1752.39	0.81
1761.24	0.815
1770.08	0.821
1778.92	0.819
1787.77	0.819
1796.61	0.833
1805.45	0.843
1814.3	0.836
1823.14	0.832
1831.98	0.832
1840.83	0.843
1849.67	0.844
1858.51	0.845
1867.35	0.851
1876.2	0.855
1885.04	0.859
1893.88	0.858
1902.73	0.852
1911.57	0.844
1920.41	0.832
1929.26	0.843
1938.1	0.837
1946.94	0.83
1955.78	0.84
1964.63	0.839
1973.47	0.819
1982.31	0.815
1991.16	0.81
2000	0.799
2008.84	0.788
2017.69	0.782
2026.53	0.782
2035.37	0.767
2044.22	0.7781
2053.06	0.7766
2061.9	0.767
2070.74	0.7628
2079.59	0.7558
2088.43	0.7474
2097.27	0.7378
2106.12	0.7285
2114.96	0.7214
2123.8	0.7144
2132.65	0.707
2141.49	0.6977
2150.33	0.6906
2159.17	0.6826
2168.02	0.6786
2176.86	0.6703
2185.7	0.6616
2194.55	0.6526
2203.39	0.6465
2212.23	0.6355
2221.08	0.6221
2229.92	0.635
2238.76	0.635
2247.6	0.6344
2256.45	0.634
2265.29	0.632
2274.13	0.631
2282.98	0.627
2291.82	0.6243
2300.66	0.62
2309.51	0.6108
2318.35	0.6034
2327.19	0.6012
2336.04	0.594
2344.88	0.5912
2353.72	0.5883
2362.56	0.5812
2371.41	0.58
2380.25	0.577
2389.09	0.577
2397.94	0.5631
2406.78	0.577
2415.62	0.577
2424.47	0.5719
2433.31	0.5679
2442.15	0.561
2450.99	0.5549
2459.84	0.5458
2468.68	0.5387
2477.52	0.515
2486.37	0.5252
2495.21	0.5288
2504.05	0.5256
2512.9	0.5178
2521.74	0.5137
2530.58	0.5077
2539.42	0.504
2548.27	0.501
2557.11	0.496
2565.95	0.492
2574.8	0.4872
2583.64	0.482
2592.48	0.4806
2601.33	0.4775
2610.17	0.474
2619.01	0.471
2627.86	0.4679
2636.7	0.4634
2645.54	0.4569
2654.38	0.4524
2663.23	0.448
2672.07	0.445
2680.91	0.442
2689.76	0.4403
2698.6	0.438
2707.44	0.436
2716.29	0.4315
2725.13	0.429
2733.97	0.4226
2742.81	0.416
2751.66	0.416
2760.5	0.4073
2769.34	0.403
2778.19	0.3982
2787.03	0.39
2795.87	0.3752
2804.72	0.3434
2813.56	0.3628
2822.4	0.367
2831.25	0.3595
2840.09	0.3307
2848.93	0.3008
2857.77	0.279
2866.62	0.2954
2875.46	0.3025
2884.3	0.2138
2893.15	0.2423
2901.99	0.2284
2910.83	0.2326
2919.68	0.2727
2928.52	0.2753
2937.36	0.335
2946.2	0.3774
2955.05	0.3663
2963.89	0.352
2972.73	0.3791
2981.58	0.3567
2990.42	0.3222
2999.26	0.3234
3008.11	0.3377
3016.95	0.3694
3025.79	0.3965
3034.63	0.3894
3043.48	0.3522
3052.32	0.3582
3061.16	0.3668
3070.01	0.3874
3078.85	0.398
3087.69	0.39
3096.54	0.398
3105.38	0.401
3114.22	0.401
3123.07	0.401
3131.91	0.4
3140.75	0.398
3149.59	0.392
3158.44	0.392
3167.28	0.393
3176.12	0.3957
3184.97	0.3979
3193.81	0.4
3202.65	0.4
3211.5	0.4
3220.34	0.4
3229.18	0.4
3238.02	0.4
3246.87	0.4
3255.71	0.401
3264.55	0.401
3273.4	0.401
3282.24	0.403
3291.08	0.403
3299.93	0.4042
3308.77	0.405
3317.61	0.407
3326.45	0.407
3335.3	0.407
3344.14	0.407
3352.98	0.407
3361.83	0.407
3370.67	0.407
3379.51	0.407
3388.36	0.408
3397.2	0.408
3406.04	0.407
3414.89	0.407
3423.73	0.407
3432.57	0.407
3441.41	0.406
3450.26	0.407
3459.1	0.407
3467.94	0.407
3476.79	0.407
3485.63	0.4058
3494.47	0.4044
3503.32	0.401
3512.16	0.4
3521	0.4
3529.84	0.4
3538.69	0.4
3547.53	0.398
3556.37	0.398
3565.22	0.396
3574.06	0.3922
3582.9	0.389
3591.75	0.389
3600.59	0.3861
3609.43	0.383
3618.28	0.382
3627.12	0.379
3635.96	0.376
3644.8	0.374
3653.65	0.371
3662.49	0.371
3671.33	0.37
3680.18	0.3668
3689.02	0.3609
3697.86	0.357
3706.71	0.3568
3715.55	0.354
3724.39	0.353
3733.23	0.3498
3742.08	0.3475
3750.92	0.341
3759.76	0.338
3768.61	0.335
3777.45	0.331
3786.29	0.3306
3795.14	0.3276
