Infrared Spectrum: Allyl phenyl sulphide
Formula: C 9 H 10 S
CAS: 5296-64-0
State: gas
Origin: EPA-IR VAPOR PHASE LIBRARY
1/CM	ABSORBANCE
549.9	0.0008457
559.547	0.0009762
569.193	0.0011794
578.84	0.001471
588.486	0.001351
598.133	0.0010994
607.779	0.0008171
617.426	0.0006909
627.072	0.0007078
636.719	0.000662
646.365	0.0009163
656.012	0.0012843
665.658	0.002281
675.305	0.004111
684.951	0.006821
694.598	0.007711
704.245	0.006251
713.891	0.005471
723.538	0.007241
733.184	0.011361
742.831	0.011241
752.477	0.006731
762.124	0.003491
771.77	0.001881
781.417	0.0011675
791.063	0.0008805
800.71	0.0006802
810.356	0.0005955
820.003	0.0007022
829.649	0.0007196
839.296	0.0009072
848.943	0.0011907
858.589	0.001491
868.236	0.001771
877.882	0.001741
887.529	0.001771
897.175	0.002431
906.822	0.005201
916.468	0.008641
926.115	0.006831
935.761	0.003791
945.408	0.002431
955.054	0.002051
964.701	0.002181
974.347	0.003141
983.994	0.004211
993.64	0.003471
1003.29	0.002271
1012.93	0.002321
1022.58	0.003911
1032.23	0.003021
1041.87	0.0011714
1051.52	0.001341
1061.17	0.001731
1070.81	0.002281
1080.46	0.003241
1090.11	0.003441
1099.75	0.002001
1109.4	0.001401
1119.05	0.0011063
1128.69	0.0007904
1138.34	0.0006433
1147.99	0.0007391
1157.63	0.000614
1167.28	0.0007025
1176.92	0.0007879
1186.57	0.0008312
1196.22	0.0009535
1205.86	0.001351
1215.51	0.003021
1225.16	0.004751
1234.8	0.003901
1244.45	0.001951
1254.1	0.001381
1263.74	0.0011291
1273.39	0.001136
1283.04	0.0011221
1292.68	0.0012785
1302.33	0.001381
1311.98	0.0010739
1321.62	0.0008368
1331.27	0.0007098
1340.92	0.0006548
1350.56	0.000625
1360.21	0.0006702
1369.86	0.0007265
1379.5	0.0008448
1389.15	0.0011334
1398.79	0.001561
1408.44	0.002151
1418.09	0.002791
1427.73	0.003811
1437.38	0.003881
1447.03	0.003161
1456.67	0.002541
1466.32	0.003431
1475.97	0.006701
1485.61	0.006051
1495.26	0.002071
1504.91	0.0010265
1514.55	0.0007609
1524.2	0.0006964
1533.85	0.0006608
1543.49	0.000694
1553.14	0.0010354
1562.79	0.001731
1572.43	0.003201
1582.08	0.005031
1591.73	0.003781
1601.37	0.001751
1611.02	0.0012457
1620.67	0.001671
1630.31	0.002641
1639.96	0.002941
1649.6	0.001781
1659.25	0.0008465
1668.9	0.0006255
1678.54	0.0005027
1688.19	0.0005269
1697.84	0.0005844
1707.48	0.0005635
1717.13	0.0005851
1726.78	0.0005514
1736.42	0.0005246
1746.07	0.0004806
1755.72	0.0004346
1765.36	0.0004955
1775.01	0.0006081
1784.66	0.0008091
1794.3	0.0008141
1803.95	0.0006465
1813.6	0.000576
1823.24	0.0007826
1832.89	0.0011053
1842.54	0.001371
1852.18	0.0010913
1861.83	0.0008615
1871.47	0.0008473
1881.12	0.000666
1890.77	0.000558
1900.41	0.0004534
1910.06	0.0004171
1919.71	0.0005802
1929.35	0.0007041
1939	0.0008615
1948.65	0.0009491
1958.29	0.0007407
1967.94	0.0004157
1977.59	0.0004172
1987.23	0.00030672
1996.88	0.0001923
2006.53	0.000238
2016.17	0.0002523
2025.82	0.00028
2035.47	0.0002097
2045.11	0.0002043
2054.76	0.0002534
2064.41	0.0002204
2074.05	0.0002144
2083.7	0.0002382
2093.35	0.000174
2102.99	0.000156
2112.64	0.0002064
2122.28	0.0002024
2131.93	0.0002077
2141.58	0.000165
2151.22	0.000208
2160.87	0.0002261
2170.52	0.0001976
2180.16	0.0001982
2189.81	0.000171
2199.46	0.0001949
2209.1	0.000187
2218.75	0.000161
2228.4	0.000227
2238.04	0.000299424
2247.69	0.000271
2257.34	0.0002524
2266.98	0.000227
2276.63	0.0002167
2286.28	0.0002456
2295.92	0.0002624
2305.57	0.0003105
2315.22	0.000296655
2324.86	0.0002685
2334.51	0.00033564
2344.16	0.00030113
2353.8	0.0002688
2363.45	0.0002487
2373.09	0.0002568
2382.74	0.000279
2392.39	0.0002808
2402.03	0.000234
2411.68	0.0002225
2421.33	0.000171
2430.97	0.000177
2440.62	0.000157
2450.27	0.000155
2459.91	0.000144
2469.56	0.000171
2479.21	0.000174
2488.85	0.000118
2498.5	9.2e-05
2508.15	0.000123
2517.79	0.000177
2527.44	0.000101
2537.09	0.000182
2546.73	0.000117
2556.38	0.000163
2566.03	0.000119
2575.67	0.000162
2585.32	0.00016
2594.96	0.0001972
2604.61	0.000127
2614.26	0.000142
2623.9	0.000143
2633.55	0.0002124
2643.2	0.0002289
2652.84	0.0002232
2662.49	0.0002081
2672.14	0.000141
2681.78	0.00018
2691.43	7.4e-05
2701.08	0.000174
2710.72	7.8e-05
2720.37	0.00012
2730.02	6.6e-05
2739.66	0.000133
2749.31	0.000102
2758.96	0.000145
2768.6	0.000189
2778.25	0.000164
2787.9	0.000297856
2797.54	0.00032977
2807.19	0.0003919
2816.84	0.0003956
2826.48	0.0004505
2836.13	0.0003375
2845.77	0.0004639
2855.42	0.0004437
2865.07	0.0004723
2874.71	0.0004486
2884.36	0.00047
2894.01	0.0006072
2903.65	0.001161
2913.3	0.002221
2922.95	0.003241
2932.59	0.002721
2942.24	0.001841
2951.89	0.001861
2961.53	0.001861
2971.18	0.001861
2980.83	0.002151
2990.47	0.002671
3000.12	0.002751
3009.77	0.003481
3019.41	0.004011
3029.06	0.003451
3038.71	0.002761
3048.35	0.003341
3058	0.006291
3067.64	0.010001
3077.29	0.010451
3086.94	0.009321
3096.58	0.006321
3106.23	0.002601
3115.88	0.001391
3125.52	0.0008946
3135.17	0.0009182
3144.82	0.0008291
3154.46	0.0006
3164.11	0.000626
3173.76	0.0006179
3183.4	0.0005171
3193.05	0.0004946
3202.7	0.0005161
3212.34	0.0004746
3221.99	0.0004931
3231.64	0.0004633
3241.28	0.0005314
3250.93	0.000597
3260.58	0.0004181
3270.22	0.0005235
3279.87	0.0005654
3289.52	0.0006287
3299.16	0.0006325
3308.81	0.0006112
3318.45	0.0006859
3328.1	0.0006779
3337.75	0.000461
3347.39	0.0004891
3357.04	0.0005708
3366.69	0.00037369
3376.33	0.0006425
3385.98	0.0005722
3395.63	0.0006516
3405.27	0.0007495
3414.92	0.0004524
3424.57	0.0006737
3434.21	0.000542
3443.86	0.0006613
3453.51	0.0005954
3463.15	0.0006505
3472.8	0.0005614
3482.45	0.0004712
3492.09	0.0007393
3501.74	0.0006216
3511.39	0.000605
3521.03	0.0006667
3530.68	0.0007797
3540.33	0.0006446
3549.97	0.0004665
3559.62	0.0007096
3569.26	0.000504
3578.91	0.0005819
3588.56	0.0006206
3598.2	0.0005558
3607.85	0.0005821
3617.5	0.0005829
3627.14	0.0006908
3636.79	0.0006203
3646.44	0.0006078
3656.08	0.0005146
3665.73	0.0004401
3675.38	0.00047
3685.02	0.0006258
3694.67	0.0006211
3704.32	0.0006901
3713.96	0.0005042
3723.61	0.0004024
3733.26	0.0004467
3742.9	0.0005171
3752.55	0.0005404
3762.2	0.000633
3771.84	0.000348
3781.49	0.0005215
3791.13	0.0005646
3800.78	0.00035807
3810.43	0.0003979
3820.07	0.00036594
3829.72	0.0004537
3839.37	0.00035494
3849.01	0.0004423
3858.66	0.0004414
3868.31	0.00034812
3877.95	0.0004011
3887.6	0.0004693
3897.25	0.0005751
3906.89	0.000392
3916.54	0.0003994
3926.19	0.000543
3935.83	0.0004071
3945.48	0.00032574
3955.13	0.00032963
3964.77	0.0004354
3974.42	0.0004543
3984.07	0.00037342
3993.71	0.00036819
