Infrared Spectrum: N-Decanoylmorpholine
Formula: C 14 H 27 N O 2
CAS: 5299-65-0
State: gas
Origin: EPA-IR VAPOR PHASE LIBRARY
1/CM	ABSORBANCE
549.8	0.001942
559.445	0.004042
569.09	0.006192
578.734	0.005802
588.379	0.003262
598.024	0.001832
607.669	0.001342
617.313	0.0009268
626.958	0.0011075
636.603	0.0010993
646.248	0.0009984
655.893	0.0010934
665.537	0.0009164
675.182	0.0008593
684.827	0.0010101
694.472	0.0010206
704.116	0.001532
713.761	0.002012
723.406	0.001922
733.051	0.002112
742.695	0.001772
752.34	0.001292
761.985	0.001342
771.63	0.001312
781.275	0.001392
790.919	0.001222
800.564	0.0011997
810.209	0.0010007
819.854	0.001222
829.498	0.001862
839.143	0.003802
848.788	0.006672
858.433	0.003742
868.078	0.002042
877.722	0.001542
887.367	0.001712
897.012	0.002312
906.657	0.002962
916.301	0.003042
925.946	0.002592
935.591	0.003462
945.236	0.005222
954.88	0.007482
964.525	0.007672
974.17	0.005632
983.815	0.004932
993.46	0.004642
1003.1	0.006152
1012.75	0.009382
1022.39	0.015542
1032.04	0.017252
1041.68	0.010462
1051.33	0.006622
1060.97	0.006982
1070.62	0.008172
1080.26	0.007002
1089.91	0.007172
1099.55	0.013062
1109.2	0.025152
1118.84	0.042592
1128.49	0.035932
1138.13	0.013792
1147.78	0.007132
1157.42	0.007932
1167.07	0.009752
1176.71	0.010482
1186.36	0.013782
1196	0.018672
1205.64	0.023602
1215.29	0.033222
1224.93	0.036882
1234.58	0.031072
1244.22	0.024982
1253.87	0.019672
1263.51	0.021912
1273.16	0.024682
1282.8	0.016282
1292.45	0.014172
1302.09	0.012932
1311.74	0.008512
1321.38	0.007272
1331.03	0.007662
1340.67	0.008342
1350.32	0.011152
1359.96	0.014212
1369.61	0.013192
1379.25	0.015732
1388.9	0.022402
1398.54	0.034592
1408.18	0.050052
1417.83	0.050222
1427.47	0.032402
1437.12	0.022032
1446.76	0.021862
1456.41	0.025392
1466.05	0.021852
1475.7	0.012402
1485.34	0.007122
1494.99	0.005222
1504.63	0.004272
1514.28	0.003602
1523.92	0.002992
1533.57	0.002682
1543.21	0.002262
1552.86	0.002002
1562.5	0.001952
1572.15	0.001842
1581.79	0.001892
1591.44	0.002032
1601.08	0.002172
1610.73	0.002852
1620.37	0.003822
1630.01	0.005062
1639.66	0.006962
1649.3	0.010712
1658.95	0.023142
1668.59	0.060472
1678.24	0.110742
1687.88	0.077532
1697.53	0.026272
1707.17	0.010172
1716.82	0.005522
1726.46	0.003952
1736.11	0.003212
1745.75	0.002572
1755.4	0.001992
1765.04	0.001632
1774.69	0.001342
1784.33	0.0011395
1793.98	0.0010552
1803.62	0.0009376
1813.27	0.0008283
1822.91	0.0006823
1832.55	0.0006699
1842.2	0.0006727
1851.84	0.0006459
1861.49	0.0006325
1871.13	0.0005825
1880.78	0.000585
1890.42	0.0006443
1900.07	0.0006662
1909.71	0.0007132
1919.36	0.0007212
1929	0.0007716
1938.65	0.0007286
1948.29	0.0008442
1957.94	0.0010146
1967.58	0.0010956
1977.23	0.0008781
1986.87	0.0007071
1996.52	0.000596
2006.16	0.0005728
2015.81	0.0006124
2025.45	0.0006514
2035.1	0.0006013
2044.74	0.0005983
2054.38	0.0005955
2064.03	0.000578
2073.67	0.0005373
2083.32	0.0005492
2092.96	0.0005657
2102.61	0.0006523
2112.25	0.0006771
2121.9	0.0006153
2131.54	0.0007147
2141.19	0.0007302
2150.83	0.0005972
2160.48	0.0005531
2170.12	0.0005927
2179.77	0.0005089
2189.41	0.0006175
2199.06	0.0005368
2208.7	0.0005583
2218.35	0.0006039
2227.99	0.0005744
2237.64	0.0005686
2247.28	0.0005468
2256.92	0.0005093
2266.57	0.0005306
2276.21	0.0004678
2285.86	0.0005331
2295.5	0.0005691
2305.15	0.0006003
2314.79	0.0005727
2324.44	0.000434
2334.08	0.000544
2343.73	0.0004845
2353.37	0.0005768
2363.02	0.0005743
2372.66	0.0006862
2382.31	0.0006519
2391.95	0.0006764
2401.6	0.0006918
2411.24	0.0006206
2420.89	0.0006637
2430.53	0.0006539
2440.18	0.0006251
2449.82	0.0005063
2459.47	0.0006109
2469.11	0.0005994
2478.75	0.0006241
2488.4	0.000554
2498.04	0.0006242
2507.69	0.0005189
2517.33	0.0005915
2526.98	0.000642
2536.62	0.0006753
2546.27	0.0007585
2555.91	0.0008038
2565.56	0.0008601
2575.2	0.0009198
2584.85	0.0008943
2594.49	0.0008471
2604.14	0.000965
2613.78	0.0010426
2623.43	0.0010704
2633.07	0.001362
2642.72	0.001372
2652.36	0.001562
2662.01	0.001852
2671.65	0.002152
2681.29	0.002722
2690.94	0.002472
2700.58	0.002472
2710.23	0.002742
2719.87	0.002662
2729.52	0.002632
2739.16	0.002772
2748.81	0.002902
2758.45	0.003292
2768.1	0.003102
2777.74	0.003012
2787.39	0.003462
2797.03	0.004122
2806.68	0.005272
2816.32	0.007002
2825.97	0.009392
2835.61	0.014042
2845.26	0.025732
2854.9	0.054372
2864.55	0.069112
2874.19	0.050342
2883.84	0.040342
2893.48	0.039142
2903.12	0.047602
2912.77	0.060632
2922.41	0.087062
2932.06	0.109212
2941.7	0.085322
2951.35	0.058632
2960.99	0.059262
2970.64	0.071812
2980.28	0.043292
2989.93	0.019852
2999.57	0.018262
3009.22	0.011302
3018.86	0.006352
3028.51	0.004182
3038.15	0.003182
3047.8	0.002552
3057.44	0.002162
3067.09	0.001832
3076.73	0.001412
3086.38	0.001362
3096.02	0.001412
3105.67	0.001262
3115.31	0.0010917
3124.95	0.0009894
3134.6	0.0010866
3144.24	0.0008958
3153.89	0.0008099
3163.53	0.0008839
3173.18	0.0007946
3182.82	0.0006683
3192.47	0.0006374
3202.11	0.0006778
3211.76	0.0004535
3221.4	0.0005197
3231.05	0.000512
3240.69	0.0003615
3250.34	0.0003305
3259.98	0.00028747
3269.63	0.0003408
3279.27	0.0003401
3288.92	0.0003134
3298.56	0.0003382
3308.21	0.0007077
3317.85	0.0006424
3327.49	0.0008999
3337.14	0.0011603
3346.78	0.0011607
3356.43	0.0009767
3366.07	0.0006079
3375.72	0.000442
3385.36	0.0003716
3395.01	0.0003096
3404.65	0.0004413
3414.3	0.0003288
3423.94	0.0004162
3433.59	0.0003226
3443.23	0.00025608
3452.88	0.0004891
3462.52	0.00026208
3472.17	0.0003403
3481.81	0.0001567
3491.46	0.000325
3501.1	9.5e-05
3510.75	8e-05
3520.39	0.0001411
3530.04	0.00023176
3539.68	0.00020099
3549.32	0
3558.97	8.7e-05
3568.61	0.00021996
3578.26	0.0003252
3587.9	0.0001514
3597.55	0.0003276
3607.19	0.00025421
3616.84	0.0001642
3626.48	0.0003334
3636.13	0.00024762
3645.77	0.00023643
3655.42	0.0003189
3665.06	0.0003421
3674.71	0.00025604
3684.35	0.0001876
3694	0.0003421
3703.64	0.0003285
3713.29	0.0003642
3722.93	0.0003054
3732.58	0.0004324
3742.22	0.0003244
3751.86	0.0003159
3761.51	0.00023683
3771.15	0.00025168
3780.8	0.0005632
3790.44	0.0004525
3800.09	0.0004473
3809.73	0.0001696
3819.38	0.0004317
3829.02	0.0003658
3838.67	0.0005665
3848.31	0.0002672
3857.96	0.0004483
3867.6	0.00024312
3877.25	0.0003839
3886.89	0.000451
3896.54	0.0005306
3906.18	0.0004822
3915.83	0.000374
3925.47	0.0007408
3935.12	0.0005173
3944.76	0.0004415
3954.41	0.0003563
3964.05	0.0004681
3973.69	0.0007865
3983.34	0.000636
3992.98	0.0006251
