Infrared Spectrum: N-Nonanoylmorpholine
Formula: C 13 H 25 N O 2
CAS: 5299-64-9
State: gas
Origin: EPA-IR VAPOR PHASE LIBRARY
1/CM	ABSORBANCE
549.8	0.002363
559.445	0.005043
569.09	0.008033
578.734	0.006823
588.379	0.004163
598.024	0.002083
607.669	0.001973
617.313	0.001473
626.958	0.001333
636.603	0.001543
646.248	0.001323
655.893	0.0011873
665.537	0.001273
675.182	0.001013
684.827	0.0011095
694.472	0.001413
704.116	0.001793
713.761	0.002323
723.406	0.002453
733.051	0.001623
742.695	0.001573
752.34	0.001763
761.985	0.001703
771.63	0.001693
781.275	0.001423
790.919	0.001803
800.564	0.001333
810.209	0.001363
819.854	0.001743
829.498	0.002253
839.143	0.004513
848.788	0.008103
858.433	0.004673
868.078	0.002323
877.722	0.001893
887.367	0.001873
897.012	0.002693
906.657	0.003653
916.301	0.003653
925.946	0.003273
935.591	0.004333
945.236	0.006653
954.88	0.010143
964.525	0.009233
974.17	0.006633
983.815	0.005403
993.46	0.005793
1003.1	0.007723
1012.75	0.012733
1022.39	0.019563
1032.04	0.019783
1041.68	0.012633
1051.33	0.008343
1060.97	0.008123
1070.62	0.010273
1080.26	0.008473
1089.91	0.008913
1099.55	0.016893
1109.2	0.031673
1118.84	0.052553
1128.49	0.044783
1138.13	0.017353
1147.78	0.009213
1157.42	0.010023
1167.07	0.012263
1176.71	0.013913
1186.36	0.017713
1196	0.022343
1205.64	0.029433
1215.29	0.041513
1224.93	0.047043
1234.58	0.038193
1244.22	0.030413
1253.87	0.025233
1263.51	0.027333
1273.16	0.030433
1282.8	0.020483
1292.45	0.017713
1302.09	0.015773
1311.74	0.010383
1321.38	0.008813
1331.03	0.009483
1340.67	0.009953
1350.32	0.013443
1359.96	0.017203
1369.61	0.016183
1379.25	0.019403
1388.9	0.027843
1398.54	0.043073
1408.18	0.062293
1417.83	0.062433
1427.47	0.040143
1437.12	0.027143
1446.76	0.026453
1456.41	0.030573
1466.05	0.026163
1475.7	0.014913
1485.34	0.008603
1494.99	0.006273
1504.63	0.005173
1514.28	0.004363
1523.92	0.003743
1533.57	0.003263
1543.21	0.002763
1552.86	0.002533
1562.5	0.002383
1572.15	0.002323
1581.79	0.002413
1591.44	0.002503
1601.08	0.002803
1610.73	0.003353
1620.37	0.004533
1630.01	0.006163
1639.66	0.008533
1649.3	0.013163
1658.95	0.028463
1668.59	0.074793
1678.24	0.137563
1687.88	0.097313
1697.53	0.032933
1707.17	0.012583
1716.82	0.006803
1726.46	0.004873
1736.11	0.003993
1745.75	0.003213
1755.4	0.002463
1765.04	0.001953
1774.69	0.001633
1784.33	0.001533
1793.98	0.001323
1803.62	0.001139
1813.27	0.0010387
1822.91	0.000864
1832.55	0.0007411
1842.2	0.0008539
1851.84	0.0007756
1861.49	0.000715
1871.13	0.000739
1880.78	0.0007924
1890.42	0.0006605
1900.07	0.000674
1909.71	0.000764
1919.36	0.0008888
1929	0.0008886
1938.65	0.0008187
1948.29	0.0010218
1957.94	0.0012013
1967.58	0.001353
1977.23	0.0011038
1986.87	0.0008709
1996.52	0.0007621
2006.16	0.000732
2015.81	0.0006128
2025.45	0.0006435
2035.1	0.0007582
2044.74	0.0007581
2054.38	0.0007294
2064.03	0.0006846
2073.67	0.0008436
2083.32	0.000635
2092.96	0.0006522
2102.61	0.0006758
2112.25	0.0007679
2121.9	0.0007465
2131.54	0.0007998
2141.19	0.0007136
2150.83	0.0006846
2160.48	0.0007507
2170.12	0.0006846
2179.77	0.0006752
2189.41	0.0006131
2199.06	0.0006068
2208.7	0.0005444
2218.35	0.0006212
2227.99	0.000638
2237.64	0.0006214
2247.28	0.0006694
2256.92	0.0005584
2266.57	0.0005549
2276.21	0.0006562
2285.86	0.0006804
2295.5	0.0005772
2305.15	0.0006094
2314.79	0.0005941
2324.44	0.0006189
2334.08	0.000584
2343.73	0.0006546
2353.37	0.0005518
2363.02	0.0007148
2372.66	0.0007244
2382.31	0.0006571
2391.95	0.0007324
2401.6	0.0008327
2411.24	0.0007694
2420.89	0.0007768
2430.53	0.0007028
2440.18	0.0006232
2449.82	0.0005806
2459.47	0.0006169
2469.11	0.0007151
2478.75	0.000584
2488.4	0.0005946
2498.04	0.0006024
2507.69	0.0005269
2517.33	0.0006152
2526.98	0.0007556
2536.62	0.0006803
2546.27	0.0006841
2555.91	0.0007704
2565.56	0.0008931
2575.2	0.0009587
2584.85	0.0010077
2594.49	0.001089
2604.14	0.0011591
2613.78	0.0010688
2623.43	0.0012157
2633.07	0.001333
2642.72	0.001593
2652.36	0.001823
2662.01	0.002113
2671.65	0.002563
2681.29	0.003133
2690.94	0.002863
2700.58	0.002813
2710.23	0.003093
2719.87	0.003273
2729.52	0.003083
2739.16	0.003103
2748.81	0.003403
2758.45	0.003833
2768.1	0.003493
2777.74	0.003553
2787.39	0.003763
2797.03	0.004653
2806.68	0.006023
2816.32	0.007823
2825.97	0.010843
2835.61	0.016223
2845.26	0.029813
2854.9	0.062233
2864.55	0.078323
2874.19	0.058273
2883.84	0.047303
2893.48	0.045893
2903.12	0.054763
2912.77	0.068113
2922.41	0.094833
2932.06	0.115163
2941.7	0.092793
2951.35	0.066873
2960.99	0.070963
2970.64	0.088103
2980.28	0.053573
2989.93	0.024023
2999.57	0.022343
3009.22	0.013633
3018.86	0.007593
3028.51	0.005083
3038.15	0.003783
3047.8	0.003113
3057.44	0.002483
3067.09	0.001993
3076.73	0.001803
3086.38	0.001593
3096.02	0.001573
3105.67	0.001393
3115.31	0.0011306
3124.95	0.001223
3134.6	0.0010819
3144.24	0.0009276
3153.89	0.0008141
3163.53	0.0008825
3173.18	0.0007713
3182.82	0.0007543
3192.47	0.0008288
3202.11	0.0005319
3211.76	0.0003779
3221.4	0.000583
3231.05	0.0003553
3240.69	0.0003919
3250.34	0.0003589
3259.98	0.000522
3269.63	0.00039
3279.27	0.0003975
3288.92	0.0003493
3298.56	0.0004181
3308.21	0.0006266
3317.85	0.0007271
3327.49	0.0011153
3337.14	0.001353
3346.78	0.001253
3356.43	0.001263
3366.07	0.0005804
3375.72	0.0006445
3385.36	0.0003391
3395.01	0.0003979
3404.65	0.0003485
3414.3	0.0003879
3423.94	0.0003391
3433.59	0.00024584
3443.23	0.00029062
3452.88	0.000395
3462.52	0.00021617
3472.17	0.00025479
3481.81	0.0002036
3491.46	0.0001619
3501.1	0.00032234
3510.75	0.0002079
3520.39	0.000146
3530.04	4.7e-05
3539.68	0.00024609
3549.32	0.0003055
3558.97	1e-06
3568.61	0.0001827
3578.26	0.0001729
3587.9	0.0001943
3597.55	9.4e-05
3607.19	0.0002112
3616.84	0.00027525
3626.48	0.00032137
3636.13	0.0002814
3645.77	0.0004124
3655.42	0.0005256
3665.06	0.00026368
3674.71	0.0002938
3684.35	0.0002128
3694	0.0003918
3703.64	0.0003288
3713.29	0.000223233
3722.93	0.000326
3732.58	0.000443
3742.22	0.00029805
3751.86	0.00026978
3761.51	0.0003511
3771.15	0.0005956
3780.8	0.000406
3790.44	0.0003486
3800.09	0.0003763
3809.73	0.00027317
3819.38	0.000404
3829.02	0.0004688
3838.67	0.0005145
3848.31	0.0003965
3857.96	0.0004987
3867.6	0.00029616
3877.25	0.0004612
3886.89	0.0003912
3896.54	0.00025718
3906.18	0.000741
3915.83	0.00028031
3925.47	0.0003652
3935.12	0.0002109
3944.76	0.0006126
3954.41	0.0004066
3964.05	0.0003623
3973.69	0.0006941
3983.34	0.000779
3992.98	0.0007839
