Infrared Spectrum: PREDNISONE
Formula: C21 H26 O5
CAS: 53-03-2
State: SOLID (1.0 mg / 200 mg KBr DISC)
Melting point: 233-235 C DECOMP.
Class: COBLENTZ III
Instrument: PERKIN-ELMER 21 (GRATING)
Instrument parameters: FILTER AT ABOUT 10 MICRONS
Sampling: TRANSMISSION
Path length: 0.055 CM (THICKNESS)
Resolution: 2
1/CM	TRANSMITTANCE
4000	0.7982
3991	0.7987
3982	0.7993
3973	0.7998
3964	0.8004
3955	0.8008
3946	0.8015
3937	0.8021
3928	0.8024
3919	0.8024
3910	0.8025
3901	0.8025
3892	0.8025
3883	0.8025
3874	0.8025
3865	0.8026
3856	0.8026
3847	0.8028
3838	0.8028
3829	0.8028
3820	0.8028
3811	0.8028
3802	0.803
3793	0.803
3784	0.803
3775	0.8031
3766	0.8035
3757	0.805
3748	0.8067
3739	0.8084
3730	0.8101
3721	0.8119
3712	0.8139
3703	0.8158
3694	0.8175
3685	0.8178
3676	0.8176
3667	0.8176
3658	0.8175
3649	0.8169
3640	0.815
3631	0.8125
3622	0.8072
3613	0.8011
3604	0.7948
3595	0.7883
3586	0.7811
3577	0.7739
3568	0.7653
3559	0.7567
3550	0.7482
3541	0.7396
3532	0.7303
3523	0.7196
3514	0.7087
3505	0.695
3496	0.6751
3487	0.659
3478	0.6469
3469	0.635
3460	0.6173
3451	0.5942
3442	0.5788
3433	0.5657
3424	0.5532
3415	0.5408
3406	0.5285
3397	0.5175
3388	0.5067
3379	0.4581
3370	0.3787
3361	0.3129
3352	0.3147
3343	0.3134
3334	0.3134
3325	0.3164
3316	0.3193
3307	0.3218
3298	0.3243
3289	0.3329
3280	0.3505
3271	0.3714
3262	0.3878
3253	0.4058
3244	0.4256
3235	0.4609
3226	0.4814
3217	0.5007
3208	0.52
3199	0.5396
3190	0.5592
3181	0.5789
3172	0.5988
3163	0.6187
3154	0.6373
3145	0.6512
3136	0.6651
3127	0.6785
3118	0.6919
3109	0.7035
3100	0.714
3091	0.7241
3082	0.7325
3073	0.7408
3064	0.7482
3055	0.755
3046	0.7594
3037	0.763
3028	0.7653
3019	0.7658
3010	0.765
3001	0.7582
2992	0.7385
2983	0.7142
2974	0.6587
2965	0.5928
2956	0.5265
2947	0.4965
2938	0.5104
2929	0.54
2920	0.5614
2911	0.5682
2902	0.5715
2893	0.573
2884	0.5734
2875	0.5743
2866	0.5768
2857	0.5956
2848	0.6346
2839	0.6676
2830	0.6915
2821	0.7091
2812	0.7208
2803	0.7317
2794	0.7419
2785	0.7501
2776	0.7584
2767	0.7662
2758	0.7722
2749	0.7783
2740	0.7844
2731	0.7903
2722	0.795
2713	0.7997
2704	0.8028
2695	0.8044
2686	0.806
2677	0.8076
2668	0.8095
2659	0.8112
2650	0.8131
2641	0.8149
2632	0.8167
2623	0.8183
2614	0.8199
2605	0.8216
2596	0.8233
2587	0.825
2578	0.8266
2569	0.8282
2560	0.8297
2551	0.8314
2542	0.8328
2533	0.8344
2524	0.8352
2515	0.8361
2506	0.8368
2497	0.8375
2488	0.838
2479	0.8386
2470	0.8393
2461	0.8414
2452	0.8434
2443	0.8452
2434	0.8468
2425	0.8486
2416	0.8504
2407	0.8523
2398	0.8547
2389	0.8571
2380	0.8586
2371	0.8593
2362	0.8593
2353	0.859
2344	0.8586
2335	0.8583
2326	0.8582
2317	0.8588
2308	0.8595
2299	0.8601
2290	0.8607
2281	0.8613
2272	0.8618
2263	0.8624
2254	0.863
2245	0.8639
2236	0.8649
2227	0.8658
2218	0.866
2209	0.8662
2200	0.8663
2191	0.8663
2182	0.8662
2173	0.8662
2164	0.8663
2155	0.8667
2146	0.867
2137	0.8674
2128	0.8678
2119	0.8682
2110	0.8687
2101	0.8691
2092	0.8696
2083	0.87
2074	0.8705
2065	0.8712
2056	0.8718
2047	0.8727
2038	0.8734
2029	0.8742
2020	0.8751
2011	0.876
2002	0.8768
1993	0.8778
1984	0.8785
1975	0.8786
1966	0.8788
1957	0.879
1948	0.8795
1939	0.8799
1930	0.8806
1921	0.8799
1912	0.8752
1903	0.8732
1894	0.8736
1885	0.8743
1876	0.8746
1867	0.8736
1858	0.8725
1849	0.87
1840	0.8673
1831	0.8647
1822	0.8632
1813	0.8625
1804	0.8553
1795	0.8404
1786	0.8378
1777	0.8364
1768	0.8311
1759	0.8144
1750	0.766
1741	0.6373
1732	0.4414
1723	0.2854
1714	0.1676
1705	0.3748
1696	0.6574
1687	0.4776
1678	0.2163
1669	0.1555
1660	0.383
1651	0.5784
1642	0.6788
1633	0.4631
1624	0.3644
1615	0.4703
1606	0.4902
1597	0.6665
1588	0.7349
1579	0.7714
1570	0.7922
1561	0.8047
1552	0.8135
1543	0.8191
1534	0.8249
1525	0.8283
1516	0.8299
1507	0.8316
1498	0.828
1489	0.8193
1480	0.7994
1471	0.7419
1462	0.6328
1453	0.5795
1444	0.5558
1435	0.661
1426	0.6924
1417	0.59
1408	0.6302
1399	0.6475
1390	0.595
1381	0.6404
1372	0.6771
1363	0.7384
1354	0.7034
1345	0.6984
1336	0.7384
1327	0.6649
1318	0.7096
1309	0.5796
1300	0.685
1291	0.7595
1282	0.7088
1273	0.6821
1264	0.5964
1255	0.693
1246	0.5204
1237	0.5812
1228	0.6987
1219	0.6128
1210	0.6975
1201	0.5934
1192	0.7191
1183	0.6568
1174	0.7189
1165	0.7192
1156	0.6355
1147	0.7061
1138	0.6299
1129	0.599
1120	0.6406
1111	0.6252
1102	0.5196
1093	0.6302
1084	0.6949
1075	0.7557
1066	0.7049
1057	0.6926
1048	0.563
1039	0.6036
1030	0.6562
1021	0.6562
1012	0.781
1003	0.778
994	0.7462
985	0.7915
976	0.7901
967	0.8172
958	0.7688
949	0.7072
940	0.7756
931	0.7903
922	0.6851
913	0.6638
904	0.4559
895	0.4632
886	0.6145
877	0.7508
868	0.7543
859	0.8299
850	0.8459
841	0.8478
832	0.6437
823	0.689
814	0.8094
805	0.8363
796	0.8371
787	0.829
778	0.7988
769	0.7946
760	0.7825
751	0.8106
742	0.8108
733	0.7769
724	0.7968
715	0.7611
706	0.7768
697	0.7534
688	0.6632
679	0.7039
670	0.6568
