Infrared Spectrum: o,p'-DDD
Formula: C 14 H 10 Cl 4
CAS: 53-19-0
State: gas
Instrument: HP-GC/MS/IRD
Origin: NIST Mass Spectrometry Data Center
1/CM	ABSORBANCE
550	0.0009576
562	0.0005628
574	0.0004893
586	0.0010248
598	0.0011865
610	0.0046347
622	0.0021693
634	0.0012936
646	0.0014343
658	0.0023961
670	0.0023373
682	0.0026733
694	0.0025179
706	0.004221
718	0.0033642
730	0.0058464
742	0.0159915
754	0.016968
766	0.0201474
778	0.0148197
790	0.0038325
802	0.0032571
814	0.0035931
826	0.0033852
838	0.0050946
850	0.0026607
862	0.0017157
874	0.0018564
886	0.0016443
898	0.000504
910	0.0002268
922	0.0001344
934	0.0002079
946	0.0002352
958	1.26e-05
970	0.0001344
982	0.0003402
994	0.0007539
1006	0.0030177
1018	0.0096306
1030	0.0041265
1042	0.0073206
1054	0.0053424
1066	0.0020097
1078	0.0026607
1090	0.0095781
1102	0.0106323
1114	0.0038241
1126	0.0027342
1138	0.0017451
1150	0.0007056
1162	0.0007392
1174	0.0007476
1186	0.001386
1198	0.0012768
1210	0.0017283
1222	0.0024696
1234	0.001659
1246	0.0010941
1258	0.0007728
1270	0.0007707
1282	0.0007749
1294	0.000735
1306	0.0007035
1318	0.0006405
1330	0.0006867
1342	0.0006846
1354	0.0003843
1366	0.0002709
1378	0.000378
1390	0.0005838
1402	0.0014553
1414	0.0020706
1426	0.0021063
1438	0.0039606
1450	0.0035091
1462	0.0036624
1474	0.0079023
1486	0.0131334
1498	0.0146328
1510	0.0023541
1522	0.0009198
1534	0.0004683
1546	0.0003948
1558	0.0005796
1570	0.0013839
1582	0.0015267
1594	0.0026103
1606	0.0012663
1618	0.0006489
1630	0.0005082
1642	0.0003213
1654	0.0002205
1666	0.0001869
1678	0.0002079
1690	0.0003234
1702	0.0001176
1714	0.0001302
1726	0.0001113
1738	0.0001239
1750	0.0001659
1762	0.0003591
1774	0.0004872
1786	0.0003087
1798	0.0003234
1810	0.0002184
1822	0.0001806
1834	0.0002058
1846	9.66e-05
1858	0.0001155
1870	0.0001932
1882	0.0005334
1894	0.0007329
1906	0.0005922
1918	0.0004599
1930	0.0002331
1942	0.0003843
1954	0.0002793
1966	5.88e-05
1978	4.2e-05
1990	1.89e-05
2002	5.04e-05
2014	4.62e-05
2026	4.62e-05
2038	7.14e-05
2050	5.46e-05
2062	6.3e-05
2074	4.41e-05
2086	3.78e-05
2098	4.2e-05
2110	3.99e-05
2122	4.83e-05
2134	3.57e-05
2146	3.99e-05
2158	2.1e-06
2170	7.56e-05
2182	7.77e-05
2194	6.09e-05
2206	6.09e-05
2218	5.04e-05
2230	4.83e-05
2242	0.0001008
2254	0.0001029
2266	0.0001071
2278	9.24e-05
2290	0.000105
2302	0.000126
2314	0.0001365
2326	0.0001407
2338	9.66e-05
2350	7.56e-05
2362	5.04e-05
2374	4.41e-05
2386	5.88e-05
2398	0.0001281
2410	0.0001197
2422	8.19e-05
2434	0.0001554
2446	9.45e-05
2458	0.0001029
2470	0.000105
2482	0.0001407
2494	0.0001134
2506	0.0001302
2518	0.0001449
2530	0.0001281
2542	0.0001302
2554	0.0001218
2566	0.0001071
2578	0.000147
2590	0.0001344
2602	0.000147
2614	0.000147
2626	0.0001596
2638	0.0001239
2650	9.45e-05
2662	8.4e-05
2674	7.77e-05
2686	4.2e-05
2698	9.66e-05
2710	4.41e-05
2722	4.83e-05
2734	5.67e-05
2746	7.14e-05
2758	7.77e-05
2770	2.94e-05
2782	8.4e-06
2794	4.41e-05
2806	8.4e-05
2818	9.66e-05
2830	6.3e-05
2842	8.19e-05
2854	0.0001302
2866	0.0001407
2878	9.24e-05
2890	9.03e-05
2902	0.0001848
2914	0.000189
2926	0.0003696
2938	0.0003003
2950	0.0003381
2962	0.0003297
2974	0.0004053
2986	0.0004956
2998	0.0010899
3010	0.0009408
3022	0.0012936
3034	0.0017808
3046	0.0014763
3058	0.0018606
3070	0.0042336
3082	0.0038031
3094	0.0022617
3106	0.0011235
3118	0.0005271
3130	0.0004095
3142	0.0004347
3154	0.0002646
3166	0.0001974
3178	0.0001386
3190	0.0001323
3202	0.0001092
3214	4.83e-05
3226	4.2e-05
3238	7.35e-05
3250	0.0001029
3262	3.15e-05
3274	0.0001113
3286	0.0001659
3298	0.0001113
3310	0.000105
3322	0.0001071
3334	0.0001281
3346	0.0001428
3358	0.0001092
3370	4.83e-05
3382	0.000126
3394	6.51e-05
3406	0.0001134
3418	0.0001365
3430	9.03e-05
3442	7.56e-05
3454	4.83e-05
3466	1.26e-05
3478	0.000105
3490	0.0001092
3502	0.0001197
3514	0.0001029
3526	0.0001092
3538	0.0001407
3550	9.03e-05
3562	0.0002163
3574	0.0001365
3586	0.0001323
3598	0.0001491
3610	0.0001197
3622	0.0002184
3634	0.0001386
3646	0.0001869
3658	0.0001659
3670	0.0002436
3682	0.0002394
3694	0.0002037
3706	0.0002772
3718	0.0003003
3730	0.0002226
3742	0.0002499
3754	0.0002457
3766	0.0003318
3778	0.0002646
3790	0.0002562
3802	0.0002478
3814	0.0002814
3826	0.0002646
3838	0.000294
