Infrared Spectrum: 3-HYDROXYESTRA-1,3,5(10)-TRIEN-17-ONE
Formula: C18 H22 O2
CAS: 53-16-7
State: SOLID (KBr DISC)
Class: COBLENTZ III
Instrument: BECKMAN IR-7
Sampling: TRANSMISSION
Resolution: 4
Origin: THE WORCESTER FOUNDATION FOR EXPERIMENTAL BIOLOGY, Neal L. McNiven
1/CM	TRANSMITTANCE
599.272	0.269
608.008	0.28
616.745	0.329
625.481	0.37
634.217	0.39
642.954	0.412
651.69	0.388
660.426	0.359
669.163	0.301
677.899	0.337
686.636	0.448
695.372	0.559
704.108	0.628
712.845	0.523
721.581	0.685
730.317	0.722
739.054	0.729
747.79	0.783
756.526	0.801
765.263	0.822
773.999	0.832
782.735	0.797
791.472	0.4457
800.208	0.812
808.944	0.798
817.681	0.272
826.417	0.6339
835.154	0.873
843.89	0.873
852.626	0.831
861.363	0.867
870.099	0.815
878.835	0.3991
887.572	0.875
896.308	0.6531
905.044	0.841
913.781	0.793
922.517	0.4589
931.253	0.6981
939.99	0.8559
948.726	0.761
957.463	0.882
966.199	0.863
974.935	0.883
983.672	0.81
992.408	0.819
1001.14	0.695
1009.88	0.489
1018.62	0.737
1027.35	0.785
1036.09	0.745
1044.83	0.693
1053.56	0.391
1062.3	0.664
1071.04	0.736
1079.77	0.65
1088.51	0.539
1097.24	0.671
1105.98	0.675
1114.72	0.724
1123.45	0.792
1132.19	0.763
1140.93	0.751
1149.66	0.6601
1158.4	0.4829
1167.13	0.671
1175.87	0.802
1184.61	0.75
1193.34	0.763
1202.08	0.707
1210.82	0.596
1219.55	0.595
1228.29	0.56
1237.03	0.407
1245.76	0.1311
1254.5	0.231
1263.23	0.476
1271.97	0.702
1280.71	0.3701
1289.44	0.123
1298.18	0.679
1306.92	0.74
1315.65	0.677
1324.39	0.712
1333.13	0.779
1341.86	0.528
1350.6	0.443
1359.33	0.321
1368.07	0.6699
1376.81	0.512
1385.54	0.727
1394.28	0.532
1403.02	0.757
1411.75	0.804
1420.49	0.795
1429.23	0.602
1437.96	0.576
1446.7	0.534
1455.43	0.483
1464.17	0.42
1472.91	0.5541
1481.64	0.663
1490.38	0.253
1499.12	0.1639
1507.85	0.449
1516.59	0.732
1525.33	0.854
1534.06	0.89
1542.8	0.88
1551.53	0.869
1560.27	0.801
1569.01	0.666
1577.74	0.309
1586.48	0.6729
1595.22	0.817
1603.95	0.69
1612.69	0.504
1621.43	0.4329
1630.16	0.749
1638.9	0.841
1647.63	0.842
1656.37	0.856
1665.11	0.81
1673.84	0.741
1682.58	0.743
1691.32	0.638
1700.05	0.385
1708.79	0.086
1717.53	0.013
1726.26	0.2189
1735	0.555
1743.73	0.759
1752.47	0.883
1761.21	0.94
1769.94	0.949
1778.68	0.968
1787.42	0.978
1796.15	0.985
1804.89	0.993
1813.63	0.993
1822.36	0.985
1831.1	0.983
1839.83	0.992
1848.57	0.996
1857.31	0.987
1866.04	0.963
1874.78	0.979
1883.52	0.988
1892.25	0.997
1900.99	1
1909.73	0.999
1918.46	0.995
1927.2	0.99
1935.93	0.987
1944.67	0.989
1953.41	0.99
1962.14	0.989
1970.88	0.988
1979.62	0.986
1988.35	0.989
1997.09	0.986
2005.82	0.984
2014.56	0.983
2023.3	0.981
2032.03	0.98
2040.77	0.979
2049.51	0.978
2058.24	0.978
2066.98	0.978
2075.72	0.978
2084.45	0.978
2093.19	0.978
2101.92	0.978
2110.66	0.979
2119.4	0.98
2128.13	0.981
2136.87	0.981
2145.61	0.981
2154.34	0.981
2163.08	0.98
2171.82	0.979
2180.55	0.978
2189.29	0.978
2198.02	0.976
2206.76	0.9736
2215.5	0.973
2224.23	0.972
2232.97	0.97
2241.71	0.9692
2250.44	0.9681
2259.18	0.9671
2267.92	0.965
2276.65	0.963
2285.39	0.962
2294.12	0.962
2302.86	0.9579
2311.6	0.9488
2320.33	0.9365
2329.07	0.9234
2337.81	0.9115
2346.54	0.9026
2355.28	0.8878
2364.02	0.8868
2372.75	0.8949
2381.49	0.9053
2390.22	0.9161
2398.96	0.923
2407.7	0.9246
2416.43	0.9201
2425.17	0.9116
2433.91	0.902
2442.64	0.8945
2451.38	0.8873
2460.12	0.8772
2468.85	0.8704
2477.59	0.8663
2486.32	0.867
2495.06	0.869
2503.8	0.8683
2512.53	0.867
2521.27	0.8642
2530.01	0.862
2538.74	0.8619
2547.48	0.8629
2556.22	0.8621
2564.95	0.8571
2573.69	0.854
2582.42	0.849
2591.16	0.843
2599.9	0.8451
2608.63	0.8511
2617.37	0.851
2626.11	0.849
2634.84	0.8478
2643.58	0.846
2652.32	0.8427
2661.05	0.8328
2669.79	0.824
2678.52	0.8142
2687.26	0.7979
2696	0.7816
2704.73	0.7819
2713.47	0.804
2722.21	0.8025
2730.94	0.7995
2739.68	0.8047
2748.42	0.809
2757.15	0.8046
2765.89	0.792
2774.62	0.7766
2783.36	0.7641
2792.1	0.752
2800.83	0.7394
2809.57	0.7056
2818.31	0.6242
2827.04	0.5182
2835.78	0.4093
2844.51	0.3526
2853.25	0.2681
2861.99	0.235
2870.72	0.3434
2879.46	0.4482
2888.2	0.4621
2896.93	0.3903
2905.67	0.3067
2914.41	0.3289
2923.14	0.2709
2931.88	0.2491
2940.61	0.2436
2949.35	0.3687
2958.09	0.4827
2966.82	0.5717
2975.56	0.6659
2984.3	0.6992
2993.03	0.6695
3001.77	0.6901
3010.51	0.7353
3019.24	0.7569
3027.98	0.712
3036.71	0.7496
3045.45	0.7691
3054.19	0.777
3062.92	0.7629
3071.66	0.746
3080.4	0.7545
3089.13	0.7636
3097.87	0.767
3106.61	0.769
3115.34	0.7625
3124.08	0.7503
3132.81	0.7461
3141.55	0.7352
3150.29	0.725
3159.02	0.7158
3167.76	0.7017
3176.5	0.6856
3185.23	0.6681
3193.97	0.6479
3202.71	0.6277
3211.44	0.6075
3220.18	0.5935
3228.91	0.5744
3237.65	0.5358
3246.39	0.4939
3255.12	0.4566
3263.86	0.4227
3272.6	0.3984
3281.33	0.3709
3290.07	0.3417
3298.81	0.3022
3307.54	0.2599
3316.28	0.2136
3325.01	0.1681
3333.75	0.0742
3342.49	0.0483
3351.22	0.0535
3359.96	0.1074
3368.7	0.1702
3377.43	0.2482
3386.17	0.2974
3394.91	0.3354
3403.64	0.3565
3412.38	0.3676
3421.11	0.3876
3429.85	0.4267
3438.59	0.463
3447.32	0.5025
3456.06	0.5449
3464.8	0.5864
3473.53	0.6366
3482.27	0.6694
3491.01	0.6945
3499.74	0.7146
3508.48	0.7345
3517.21	0.7524
3525.95	0.7675
3534.69	0.781
3543.42	0.7917
3552.16	0.8022
3560.9	0.8103
3569.63	0.8155
3578.37	0.817
3587.11	0.8195
3595.84	0.822
3604.58	0.8214
3613.31	0.821
3622.05	0.822
3630.79	0.8273
3639.52	0.8327
3648.26	0.8357
3657	0.837
3665.73	0.837
3674.47	0.8352
3683.2	0.83
3691.94	0.8271
3700.68	0.825
3709.41	0.8289
3718.15	0.831
3726.89	0.83
3735.62	0.8289
3744.36	0.8229
3753.1	0.8222
3761.83	0.8251
3770.57	0.828
3779.3	0.828
3788.04	0.8268
3796.78	0.825
3805.51	0.8237
3814.25	0.822
3822.99	0.8217
3831.72	0.82
3840.46	0.8158
3849.2	0.813
3857.93	0.8115
3866.67	0.8115
3875.4	0.812
3884.14	0.8094
3892.88	0.809
3901.61	0.8084
3910.35	0.806
3919.09	0.804
3927.82	0.802
3936.56	0.8003
3945.3	0.7992
3954.03	0.798
3962.77	0.7972
3971.5	0.796
3980.24	0.795
3988.98	0.793
3997.71	0.791
4006.45	0.791
