Infrared Spectrum: DIBENZ [a,h] ANTHRACENE
Formula: C22 H14
CAS: 53-70-3
State: SOLID (MINERAL OIL MULL)
Melting point: 265-267 C
Class: COBLENTZ
Instrument: Not specified, most likely a prism, grating, or hybrid spectrometer.
Sampling: TRANSMISSION
Resolution: 4
Origin: WYANDOTTE CHEMICALS CORP., WYANDOTTE, MICHIGAN, USA
MICROMETERS	TRANSMITTANCE
2.066	0.403
2.10579	0.418
2.14558	0.428
2.18537	0.432
2.22517	0.435
2.26496	0.442
2.30475	0.453
2.34454	0.465
2.38433	0.475
2.42412	0.48
2.46391	0.483
2.50371	0.496
2.5435	0.509
2.58329	0.528
2.62308	0.526
2.66287	0.549
2.70266	0.539
2.74245	0.554
2.78225	0.557
2.82204	0.551
2.86183	0.554
2.90162	0.552
2.94141	0.554
2.9812	0.559
3.02099	0.564
3.06079	0.569
3.10058	0.572
3.14037	0.579
3.18016	0.584
3.21995	0.582
3.25974	0.478
3.29953	0.45
3.33933	0.331
3.37912	0.052
3.41891	0.061
3.4587	0.142
3.49849	0.145
3.53828	0.468
3.57807	0.61
3.61787	0.644
3.65766	0.649
3.69745	0.65
3.73724	0.662
3.77703	0.67
3.81682	0.685
3.85661	0.692
3.89641	0.703
3.9362	0.713
3.97599	0.716
4.01578	0.721
4.05557	0.728
4.09536	0.735
4.13515	0.736
4.17495	0.736
4.21474	0.748
4.25453	0.725
4.29432	0.725
4.33411	0.751
4.3739	0.781
4.41369	0.788
4.45349	0.786
4.49328	0.791
4.53307	0.794
4.57286	0.799
4.61265	0.806
4.65244	0.809
4.69223	0.811
4.73203	0.817
4.77182	0.819
4.81161	0.831
4.8514	0.834
4.89119	0.837
4.93098	0.842
4.97077	0.844
5.01057	0.849
5.05036	0.854
5.09015	0.852
5.12994	0.854
5.16973	0.849
5.20952	0.831
5.24931	0.836
5.28911	0.842
5.3289	0.862
5.36869	0.864
5.40848	0.875
5.44827	0.862
5.48806	0.869
5.52785	0.88
5.56765	0.852
5.60744	0.865
5.64723	0.839
5.68702	0.872
5.72681	0.849
5.7666	0.865
5.80639	0.842
5.84619	0.847
5.88598	0.821
5.92577	0.816
5.96556	0.831
6.00535	0.844
6.04514	0.824
6.08493	0.821
6.12473	0.809
6.16452	0.799
6.20431	0.769
6.2441	0.822
6.28389	0.841
6.32368	0.841
6.36347	0.819
6.40327	0.849
6.44306	0.819
6.48285	0.837
6.52264	0.837
6.56243	0.836
6.60222	0.824
6.64201	0.791
6.68181	0.817
6.7216	0.779
6.76139	0.667
6.80118	0.41
6.84097	0.367
6.88076	0.448
6.92055	0.572
6.96035	0.635
7.00014	0.665
7.03993	0.799
7.07972	0.834
7.11951	0.831
7.1593	0.831
7.19909	0.771
7.23889	0.604
7.27868	0.591
7.31847	0.706
7.35826	0.807
7.39805	0.774
7.43784	0.822
7.47763	0.832
7.51743	0.807
7.55722	0.773
7.59701	0.801
7.6368	0.842
7.67659	0.735
7.71638	0.814
7.75617	0.842
7.79597	0.865
7.83576	0.867
7.87555	0.86
7.91534	0.864
7.95513	0.869
7.99492	0.877
8.03471	0.88
8.07451	0.86
8.1143	0.862
8.15409	0.683
8.19388	0.657
8.23367	0.759
8.27346	0.789
8.31325	0.836
8.35305	0.879
8.39284	0.903
8.43263	0.907
8.47242	0.915
8.51221	0.917
8.552	0.912
8.59179	0.889
8.63159	0.859
8.67138	0.912
8.71117	0.91
8.75096	0.889
8.79075	0.915
8.83054	0.945
8.87033	0.948
8.91013	0.943
8.94992	0.938
8.98971	0.895
9.0295	0.842
9.06929	0.899
9.10908	0.907
9.14887	0.905
9.18867	0.897
9.22846	0.895
9.26825	0.895
9.30804	0.89
9.34783	0.89
9.38762	0.89
9.42741	0.889
9.46721	0.892
9.507	0.895
9.54679	0.897
9.58658	0.837
9.62637	0.846
9.66616	0.889
9.70595	0.899
9.74575	0.895
9.78554	0.832
9.82533	0.855
9.86512	0.9
9.90491	0.91
9.9447	0.917
9.98449	0.922
10.0243	0.918
10.0641	0.917
10.1039	0.913
10.1437	0.908
10.1835	0.9
10.2232	0.887
10.263	0.869
10.3028	0.887
10.3426	0.887
10.3824	0.887
10.4222	0.89
10.462	0.885
10.5018	0.887
10.5416	0.87
10.5814	0.804
10.6212	0.64
10.6609	0.783
10.7007	0.869
10.7405	0.882
10.7803	0.887
10.8201	0.892
10.8599	0.894
10.8997	0.892
10.9395	0.89
10.9793	0.892
11.0191	0.89
11.0589	0.884
11.0987	0.879
11.1384	0.85
11.1782	0.793
11.218	0.597
11.2578	0.127
11.2976	0.269
11.3374	0.662
11.3772	0.776
11.417	0.802
11.4568	0.879
11.4966	0.902
11.5364	0.897
11.5762	0.884
11.6159	0.89
11.6557	0.907
11.6955	0.913
11.7353	0.917
11.7751	0.917
11.8149	0.922
11.8547	0.92
11.8945	0.918
11.9343	0.917
11.9741	0.912
12.0139	0.902
12.0536	0.889
12.0934	0.88
12.1332	0.86
12.173	0.829
12.2128	0.731
12.2526	0.519
12.2924	0.173
12.3322	0.079
12.372	0.208
12.4118	0.501
12.4516	0.751
12.4914	0.839
12.5311	0.882
12.5709	0.905
12.6107	0.923
12.6505	0.927
12.6903	0.937
12.7301	0.928
12.7699	0.908
12.8097	0.9
12.8495	0.912
12.8893	0.91
12.9291	0.915
12.9689	0.905
13.0086	0.887
13.0484	0.875
13.0882	0.894
13.128	0.887
13.1678	0.865
13.2076	0.829
13.2474	0.758
13.2872	0.635
13.327	0.428
13.3668	0.306
13.4066	0.407
13.4463	0.45
13.4861	0.268
13.5259	0.152
13.5657	0.243
13.6055	0.511
13.6453	0.726
13.6851	0.801
13.7249	0.832
13.7647	0.85
13.8045	0.87
13.8443	0.88
13.8841	0.884
13.9238	0.882
13.9636	0.889
14.0034	0.902
14.0432	0.912
14.083	0.917
14.1228	0.918
14.1626	0.918
14.2024	0.915
14.2422	0.917
14.282	0.915
14.3218	0.912
14.3616	0.912
14.4013	0.913
14.4411	0.908
14.4809	0.903
14.5207	0.892
14.5605	0.889
14.6003	0.88
14.6401	0.87
14.6799	0.87
14.7197	0.86
14.7595	0.852
14.7993	0.846
14.839	0.836
14.8788	0.827
14.9186	0.819
14.9584	0.807
14.9982	0.773
15.038	0.683
15.0778	0.609
15.1176	0.572
15.1574	0.627
15.1972	0.706
15.237	0.731
15.2768	0.738
15.3165	0.738
15.3563	0.728
15.3961	0.718
15.4359	0.697
15.4757	0.667
15.5155	0.644
15.5553	0.635
15.5951	0.64
15.6349	0.645
15.6747	0.642
15.7145	0.634
15.7543	0.625
15.794	0.614
15.8338	0.599
15.8736	0.596
15.9134	0.586
15.9532	0.574
15.993	0.567
