Infrared Spectrum: Quinoline hydrochloride
Formula: C9 H8 Cl N
CAS: 530-64-3
State: SOLID (KBr DISC, 0.9% WT.)
Class: COBLENTZ III
Instrument: PERKIN-ELMER 157
Sampling: TRANSMISSION
Resolution: 2
Origin: BRITISH PETROLEUM CO. LTD., ENGLAND
1/CM	TRANSMITTANCE
667	0.9653
676	0.9467
685	0.9325
694	0.9215
703	0.9102
712	0.8896
721	0.866
730	0.8377
739	0.7631
748	0.6438
757	0.7184
766	0.3863
775	0.1276
784	0.7142
793	0.6812
802	0.4437
811	0.1909
820	0.0468
829	0.346
838	0.5757
847	0.7543
856	0.7669
865	0.5155
874	0.7727
883	0.7803
892	0.7599
901	0.694
910	0.5453
919	0.4199
928	0.6939
937	0.6906
946	0.6107
955	0.7704
964	0.7729
973	0.7709
982	0.734
991	0.6638
1000	0.5542
1009	0.5363
1018	0.5442
1027	0.6632
1036	0.7487
1045	0.7429
1054	0.7345
1063	0.7688
1072	0.749
1081	0.7645
1090	0.7684
1099	0.7608
1108	0.7452
1117	0.6494
1126	0.4625
1135	0.5258
1144	0.6061
1153	0.5622
1162	0.7019
1171	0.7515
1180	0.7407
1189	0.6993
1198	0.6108
1207	0.5869
1216	0.5276
1225	0.3719
1234	0.7067
1243	0.7035
1252	0.7216
1261	0.7064
1270	0.6802
1279	0.6194
1288	0.5272
1297	0.1762
1306	0.6303
1315	0.7089
1324	0.6938
1333	0.7144
1342	0.6975
1351	0.6906
1360	0.633
1369	0.429
1378	0.1866
1387	0.1865
1396	0.4703
1405	0.2625
1414	0.7296
1423	0.7365
1432	0.724
1441	0.7168
1450	0.6916
1459	0.6809
1468	0.6781
1477	0.6512
1486	0.462
1495	0.6288
1504	0.6625
1513	0.6569
1522	0.6353
1531	0.5978
1540	0.5117
1549	0.3458
1558	0.204
1567	0.582
1576	0.5547
1585	0.5074
1594	0.2398
1603	0.1072
1612	0.5251
1621	0.5023
1630	0.3804
1639	0.2242
1648	0.558
1657	0.642
1666	0.6679
1675	0.6939
1684	0.695
1693	0.6961
1702	0.697
1711	0.6848
1720	0.6755
1729	0.6661
1738	0.657
1747	0.656
1756	0.6569
1765	0.6569
1774	0.6564
1783	0.6565
1792	0.6559
1801	0.6327
1810	0.6118
1819	0.6091
1828	0.5789
1837	0.5635
1846	0.5632
1855	0.5649
1864	0.5689
1873	0.5769
1882	0.5754
1891	0.5722
1900	0.566
1909	0.52
1918	0.4754
1927	0.4581
1936	0.4574
1945	0.4918
1954	0.5262
1963	0.5368
1972	0.5519
1981	0.5551
1990	0.5462
1999	0.5208
2008	0.4954
2017	0.4679
2026	0.471
2035	0.4781
2044	0.5086
2053	0.5436
2062	0.5636
2071	0.5715
2080	0.5815
2089	0.5812
2098	0.577
2107	0.5761
2116	0.5755
2125	0.5723
2134	0.5644
2143	0.562
2152	0.5608
2161	0.5597
2170	0.5586
2179	0.557
2188	0.5545
2197	0.552
2206	0.549
2215	0.5449
2224	0.5394
2233	0.5329
2242	0.525
2251	0.5165
2260	0.5079
2269	0.4977
2278	0.4855
2287	0.471
2296	0.4532
2305	0.4354
2314	0.4148
2323	0.3829
2332	0.3601
2341	0.3373
2350	0.3147
2359	0.2924
2368	0.2822
2377	0.2755
2386	0.2523
2395	0.2293
2404	0.2066
2413	0.184
2422	0.1615
2431	0.1393
2440	0.1172
2449	0.1053
2458	0.1019
2467	0.0894
2476	0.0762
2485	0.0634
2494	0.0541
2503	0.0472
2512	0.0409
2521	0.0361
2530	0.0318
2539	0.0284
2548	0.0261
2557	0.0247
2566	0.0246
2575	0.0244
2584	0.0248
2593	0.0255
2602	0.0267
2611	0.0287
2620	0.0313
2629	0.0341
2638	0.0371
2647	0.04
2656	0.0433
2665	0.0468
2674	0.0502
2683	0.0543
2692	0.0585
2701	0.0649
2710	0.0721
2719	0.0797
2728	0.0874
2737	0.0963
2746	0.1098
2755	0.1153
2764	0.1194
2773	0.1249
2782	0.1377
2791	0.1443
2800	0.1571
2809	0.187
2818	0.2006
2827	0.2113
2836	0.2303
2845	0.2412
2854	0.2459
2863	0.2493
2872	0.2729
2881	0.2776
2890	0.2795
2899	0.2812
2908	0.2834
2917	0.2885
2926	0.2924
2935	0.2932
2944	0.2876
2953	0.2817
2962	0.2794
2971	0.2775
2980	0.2737
2989	0.2653
2998	0.2463
3007	0.2263
3016	0.2133
3025	0.2103
3034	0.2292
3043	0.2715
3052	0.292
3061	0.3055
3070	0.3132
3079	0.3216
3088	0.3443
3097	0.3829
3106	0.3909
3115	0.3923
3124	0.3922
3133	0.3908
3142	0.3864
3151	0.3799
3160	0.3749
3169	0.3691
3178	0.3634
3187	0.3577
3196	0.3519
3205	0.3462
3214	0.3404
3223	0.3357
3232	0.3316
3241	0.3272
3250	0.3226
3259	0.3182
3268	0.3132
3277	0.3078
3286	0.3017
3295	0.2945
3304	0.2849
3313	0.2767
3322	0.2654
3331	0.2546
3340	0.2483
3349	0.2412
3358	0.2313
3367	0.2246
3376	0.2159
3385	0.2128
3394	0.2122
3403	0.2114
3412	0.2113
3421	0.2118
3430	0.213
3439	0.2153
3448	0.2207
3457	0.2266
3466	0.2319
3475	0.2372
3484	0.2436
3493	0.2512
3502	0.2637
3511	0.2719
3520	0.2784
3529	0.283
3538	0.3029
3547	0.317
3556	0.3296
3565	0.3439
3574	0.3595
3583	0.3737
3592	0.383
3601	0.3896
3610	0.3952
3619	0.3985
3628	0.3999
3637	0.4011
3646	0.4022
3655	0.4025
3664	0.4025
3673	0.4024
3682	0.4021
3691	0.4019
3700	0.4015
3709	0.401
3718	0.4
3727	0.399
3736	0.3975
3745	0.3959
3754	0.3942
3763	0.3925
3772	0.3906
3781	0.3885
3790	0.3865
3799	0.3845
3808	0.3829
3817	0.3812
3826	0.3797
3835	0.3781
3844	0.3762
3853	0.3719
3862	0.3679
3871	0.3649
3880	0.3622
3889	0.3597
3898	0.3579
3907	0.3561
3916	0.3549
3925	0.3537
3934	0.3525
3943	0.3513
3952	0.3501
3961	0.3489
3970	0.3477
3979	0.3465
3988	0.3453
3997	0.3443
