Infrared Spectrum: 4-Hydroxy-3,5-dimethoxybenzyl alcohol
Formula: C 9 H 12 O 4
CAS: 530-56-3
State: gas
Origin: EPA-IR VAPOR PHASE LIBRARY
1/CM	ABSORBANCE
549.8	0.00393
559.445	0.00358
569.09	0.00306
578.734	0.00276
588.379	0.00272
598.024	0.0026
607.669	0.00268
617.313	0.00296
626.958	0.00261
636.603	0.00316
646.248	0.00375
655.893	0.00382
665.537	0.00417
675.182	0.00524
684.827	0.00504
694.472	0.0032
704.116	0.00262
713.761	0.00231
723.406	0.00188
733.051	0.00263
742.695	0.00321
752.34	0.00303
761.985	0.00265
771.63	0.00255
781.275	0.00466
790.919	0.00763
800.564	0.00633
810.209	0.00475
819.854	0.0058
829.498	0.00835
839.143	0.00789
848.788	0.00655
858.433	0.00524
868.078	0.00405
877.722	0.00352
887.367	0.00396
897.012	0.00491
906.657	0.00807
916.301	0.00881
925.946	0.00693
935.591	0.00655
945.236	0.00751
954.88	0.0077
964.525	0.00633
974.17	0.00709
983.815	0.00883
993.46	0.0109
1003.1	0.01437
1012.75	0.01931
1022.39	0.02216
1032.04	0.02017
1041.68	0.01648
1051.33	0.01569
1060.97	0.01587
1070.62	0.01925
1080.26	0.0269
1089.91	0.03945
1099.55	0.05311
1109.2	0.05554
1118.84	0.04652
1128.49	0.03432
1138.13	0.02489
1147.78	0.01995
1157.42	0.01489
1167.07	0.01307
1176.71	0.01491
1186.36	0.01946
1196	0.02734
1205.64	0.05147
1215.29	0.08008
1224.93	0.06289
1234.58	0.03836
1244.22	0.03294
1253.87	0.02293
1263.51	0.0171
1273.16	0.01399
1282.8	0.01468
1292.45	0.01891
1302.09	0.03243
1311.74	0.05575
1321.38	0.05469
1331.03	0.03118
1340.67	0.01925
1350.32	0.01929
1359.96	0.02363
1369.61	0.02453
1379.25	0.02081
1388.9	0.01655
1398.54	0.01362
1408.18	0.01417
1417.83	0.01983
1427.47	0.02827
1437.12	0.02276
1446.76	0.01826
1456.41	0.02646
1466.05	0.02914
1475.7	0.0214
1485.34	0.01796
1494.99	0.02704
1504.63	0.03845
1514.28	0.03092
1523.92	0.01508
1533.57	0.00743
1543.21	0.00516
1552.86	0.00475
1562.5	0.00507
1572.15	0.00633
1581.79	0.00957
1591.44	0.01626
1601.08	0.02488
1610.73	0.02769
1620.37	0.01809
1630.01	0.00927
1639.66	0.0055
1649.3	0.00399
1658.95	0.00368
1668.59	0.00363
1678.24	0.00332
1687.88	0.00258
1697.53	0.00198
1707.17	0.00201
1716.82	0.00166
1726.46	0.00141
1736.11	0.00121
1745.75	0.00126
1755.4	0.00131
1765.04	0.00117
1774.69	0.00106
1784.33	0.00113
1793.98	0.00117
1803.62	0.00114
1813.27	0.00103
1822.91	0.0009046
1832.55	0.0009468
1842.2	0.000856
1851.84	0.0007896
1861.49	0.0009598
1871.13	0.0008208
1880.78	0.00101
1890.42	0.0009024
1900.07	0.0009441
1909.71	0.0009597
1919.36	0.00109
1929	0.00113
1938.65	0.00117
1948.29	0.00131
1957.94	0.00137
1967.58	0.00122
1977.23	0.00105
1986.87	0.00104
1996.52	0.00124
2006.16	0.00117
2015.81	0.00119
2025.45	0.00148
2035.1	0.00143
2044.74	0.0013
2054.38	0.00155
2064.03	0.00118
2073.67	0.00116
2083.32	0.0008568
2092.96	0.00107
2102.61	0.0009858
2112.25	0.0008451
2121.9	0.00111
2131.54	0.00114
2141.19	0.00117
2150.83	0.00107
2160.48	0.00118
2170.12	0.00103
2179.77	0.00101
2189.41	0.0006578
2199.06	0.0006955
2208.7	0.001
2218.35	0.0009915
2227.99	0.0012
2237.64	0.0011
2247.28	0.0009439
2256.92	0.000525
2266.57	0.0007372
2276.21	0.0004927
2285.86	0.0005999
2295.5	0.0008575
2305.15	0.000848
2314.79	0.0006707
2324.44	0.0007051
2334.08	0.0004945
2343.73	0.0003868
2353.37	0.0007013
2363.02	0.0004957
2372.66	0.0007587
2382.31	0.0008597
2391.95	0.0007686
2401.6	0.0009574
2411.24	0.00106
2420.89	0.0009302
2430.53	0.0009262
2440.18	0.000833
2449.82	0.0008045
2459.47	0.0007989
2469.11	0.0008309
2478.75	0.00111
2488.4	0.0008224
2498.04	0.0007241
2507.69	0.0008682
2517.33	0.001
2526.98	0.000974
2536.62	0.0012
2546.27	0.00116
2555.91	0.0008754
2565.56	0.0004852
2575.2	0.0005469
2584.85	0.0008561
2594.49	0.0008215
2604.14	0.0009179
2613.78	0.0004704
2623.43	0.0009176
2633.07	0.0007044
2642.72	0.0008126
2652.36	0.00128
2662.01	0.00112
2671.65	0.0007953
2681.29	0.0007786
2690.94	0.0009161
2700.58	0.0007598
2710.23	0.0009864
2719.87	0.00131
2729.52	0.00133
2739.16	0.00112
2748.81	0.00121
2758.45	0.0014
2768.1	0.00162
2777.74	0.00152
2787.39	0.00173
2797.03	0.00225
2806.68	0.00295
2816.32	0.00388
2825.97	0.0052
2835.61	0.00899
2845.26	0.01352
2854.9	0.01379
2864.55	0.01188
2874.19	0.01178
2883.84	0.01377
2893.48	0.01312
2903.12	0.0122
2912.77	0.01267
2922.41	0.01466
2932.06	0.01694
2941.7	0.02318
2951.35	0.02578
2960.99	0.0202
2970.64	0.01493
2980.28	0.01156
2989.93	0.01075
2999.57	0.01341
3009.22	0.01472
3018.86	0.00883
3028.51	0.00479
3038.15	0.00404
3047.8	0.00385
3057.44	0.00346
3067.09	0.00375
3076.73	0.00348
3086.38	0.00261
3096.02	0.00216
3105.67	0.00156
3115.31	0.0015
3124.95	0.00153
3134.6	0.00105
3144.24	0.0008876
3153.89	0.0008031
3163.53	0.00105
3173.18	0.0004359
3182.82	0.0007119
3192.47	0.0007756
3202.11	0.00114
3211.76	0.0008327
3221.4	0.0006284
3231.05	0.000733
3240.69	0.00111
3250.34	0.0006375
3259.98	0.0007422
3269.63	0.0008875
3279.27	0.000618
3288.92	0.0005429
3298.56	0.00128
3308.21	0.0009279
3317.85	0.0006852
3327.49	0.0004794
3337.14	0.0004048
3346.78	0.0004836
3356.43	0.00106
3366.07	0.0005181
3375.72	0.0001191
3385.36	2.195e-05
3395.01	0.0006281
3404.65	0.0007374
3414.3	0.0004253
3423.94	0.0006519
3433.59	0.0008073
3443.23	0.0008723
3452.88	0.0008718
3462.52	0.0004304
3472.17	0.0003837
3481.81	0.0008415
3491.46	0.0006863
3501.1	0.0005424
3510.75	0.0009552
3520.39	0.00138
3530.04	0.00205
3539.68	0.00162
3549.32	0.00314
3558.97	0.00765
3568.61	0.01964
3578.26	0.02956
3587.9	0.02278
3597.55	0.00937
3607.19	0.00379
3616.84	0.00235
3626.48	0.0021
3636.13	0.00319
3645.77	0.00403
3655.42	0.00423
3665.06	0.00293
3674.71	0.0023
3684.35	0.00192
3694	0.00138
3703.64	0.00161
3713.29	0.0007974
3722.93	0.0006525
3732.58	0.0006722
3742.22	0.0003152
3751.86	0.0004521
3761.51	0.0005756
3771.15	0.0005842
3780.8	0.0008147
3790.44	0.0002837
3800.09	0.0006531
3809.73	0.0002764
3819.38	0.0008761
3829.02	0.0002564
3838.67	0.0008636
3848.31	0.0008533
3857.96	0.0002454
3867.6	0.00109
3877.25	0.00121
3886.89	0.00111
3896.54	0.00106
3906.18	0.0004417
3915.83	0.00112
3925.47	0.0001587
3935.12	0.0008584
3944.76	0.0009613
3954.41	0.0005155
3964.05	0.0006242
3973.69	0.00101
3983.34	0.0002928
3992.98	0.0004793
