Infrared Spectrum: 3,5-Dimethoxy-4-hydroxycinnamic acid
Formula: C 11 H 12 O 5
CAS: 530-59-6
State: gas
Origin: EPA-IR VAPOR PHASE LIBRARY
1/CM	ABSORBANCE
549.8	0.005269
559.445	0.005739
569.09	0.006179
578.734	0.005989
588.379	0.005769
598.024	0.003789
607.669	0.003149
617.313	0.003639
626.958	0.003069
636.603	0.002789
646.248	0.003559
655.893	0.003409
665.537	0.003449
675.182	0.002959
684.827	0.002669
694.472	0.002599
704.116	0.001849
713.761	0.001929
723.406	0.002009
733.051	0.003349
742.695	0.004529
752.34	0.004269
761.985	0.003699
771.63	0.006269
781.275	0.011419
790.919	0.013949
800.564	0.007949
810.209	0.004149
819.854	0.004829
829.498	0.008789
839.143	0.013939
848.788	0.013149
858.433	0.011299
868.078	0.009739
877.722	0.008199
887.367	0.011089
897.012	0.020279
906.657	0.025339
916.301	0.019869
925.946	0.013039
935.591	0.008609
945.236	0.007649
954.88	0.007439
964.525	0.008019
974.17	0.011059
983.815	0.013659
993.46	0.010089
1003.1	0.007919
1012.75	0.009829
1022.39	0.013759
1032.04	0.015579
1041.68	0.014149
1051.33	0.016179
1060.97	0.018959
1070.62	0.025939
1080.26	0.039619
1089.91	0.062539
1099.55	0.085059
1109.2	0.090669
1118.84	0.073409
1128.49	0.049749
1138.13	0.034119
1147.78	0.026169
1157.42	0.018499
1167.07	0.015869
1176.71	0.019269
1186.36	0.026209
1196	0.039249
1205.64	0.080809
1215.29	0.132929
1224.93	0.098549
1234.58	0.054489
1244.22	0.046669
1253.87	0.034199
1263.51	0.023099
1273.16	0.016789
1282.8	0.017939
1292.45	0.031269
1302.09	0.074499
1311.74	0.120399
1321.38	0.088059
1331.03	0.035699
1340.67	0.020939
1350.32	0.026249
1359.96	0.030629
1369.61	0.021879
1379.25	0.012799
1388.9	0.013349
1398.54	0.026719
1408.18	0.045909
1417.83	0.040759
1427.47	0.028119
1437.12	0.021129
1446.76	0.021949
1456.41	0.032799
1466.05	0.036289
1475.7	0.033369
1485.34	0.037639
1494.99	0.070729
1504.63	0.097109
1514.28	0.063469
1523.92	0.025849
1533.57	0.013979
1543.21	0.010299
1552.86	0.010329
1562.5	0.012219
1572.15	0.017099
1581.79	0.027799
1591.44	0.045579
1601.08	0.054549
1610.73	0.040289
1620.37	0.023359
1630.01	0.017319
1639.66	0.011799
1649.3	0.006059
1658.95	0.004979
1668.59	0.004039
1678.24	0.003759
1687.88	0.003339
1697.53	0.002939
1707.17	0.002829
1716.82	0.002359
1726.46	0.002589
1736.11	0.002089
1745.75	0.001939
1755.4	0.001639
1765.04	0.0013267
1774.69	0.001529
1784.33	0.001689
1793.98	0.002529
1803.62	0.003659
1813.27	0.003759
1822.91	0.002789
1832.55	0.001899
1842.2	0.001519
1851.84	0.0012891
1861.49	0.0012014
1871.13	0.0013547
1880.78	0.0013628
1890.42	0.0011997
1900.07	0.0012813
1909.71	0.001189
1919.36	0.0011804
1929	0.001669
1938.65	0.001849
1948.29	0.002339
1957.94	0.002189
1967.58	0.001929
1977.23	0.001659
1986.87	0.001539
1996.52	0.001759
2006.16	0.001899
2015.81	0.002059
2025.45	0.001969
2035.1	0.002019
2044.74	0.001999
2054.38	0.002169
2064.03	0.001939
2073.67	0.001849
2083.32	0.001539
2092.96	0.0013419
2102.61	0.001559
2112.25	0.001629
2121.9	0.001849
2131.54	0.001879
2141.19	0.001939
2150.83	0.001969
2160.48	0.001829
2170.12	0.001559
2179.77	0.001449
2189.41	0.001081
2199.06	0.0012727
2208.7	0.0011213
2218.35	0.001459
2227.99	0.001479
2237.64	0.00135
2247.28	0.0011154
2256.92	0.0008842
2266.57	0.0010241
2276.21	0.0012393
2285.86	0.0012013
2295.5	0.0013466
2305.15	0.0011754
2314.79	0.000933
2324.44	0.0011084
2334.08	0.0009982
2343.73	0.0011022
2353.37	0.0012487
2363.02	0.001169
2372.66	0.0011665
2382.31	0.0011556
2391.95	0.0011903
2401.6	0.0011586
2411.24	0.0013031
2420.89	0.0013088
2430.53	0.001499
2440.18	0.0013809
2449.82	0.0012507
2459.47	0.001429
2469.11	0.001649
2478.75	0.001819
2488.4	0.001809
2498.04	0.001449
2507.69	0.001799
2517.33	0.001769
2526.98	0.001629
2536.62	0.001789
2546.27	0.001659
2555.91	0.001459
2565.56	0.0013271
2575.2	0.0010216
2584.85	0.0011424
2594.49	0.0013206
2604.14	0.0012301
2613.78	0.001629
2623.43	0.001629
2633.07	0.0013691
2642.72	0.001559
2652.36	0.001679
2662.01	0.001609
2671.65	0.001809
2681.29	0.0013657
2690.94	0.0012473
2700.58	0.001355
2710.23	0.001689
2719.87	0.001469
2729.52	0.001619
2739.16	0.001979
2748.81	0.001489
2758.45	0.001489
2768.1	0.001549
2777.74	0.001589
2787.39	0.002149
2797.03	0.002639
2806.68	0.003479
2816.32	0.005129
2825.97	0.007449
2835.61	0.013179
2845.26	0.018909
2854.9	0.015889
2864.55	0.012089
2874.19	0.011089
2883.84	0.010849
2893.48	0.010549
2903.12	0.011369
2912.77	0.013749
2922.41	0.016689
2932.06	0.020809
2941.7	0.031959
2951.35	0.035569
2960.99	0.027579
2970.64	0.022529
2980.28	0.019879
2989.93	0.020209
2999.57	0.026169
3009.22	0.031859
3018.86	0.020889
3028.51	0.009839
3038.15	0.007409
3047.8	0.007529
3057.44	0.008259
3067.09	0.008949
3076.73	0.009269
3086.38	0.011899
3096.02	0.013779
3105.67	0.006559
3115.31	0.002879
3124.95	0.002439
3134.6	0.001949
3144.24	0.001819
3153.89	0.001679
3163.53	0.001297
3173.18	0.0012258
3182.82	0.001102
3192.47	0.0012785
3202.11	0.0011935
3211.76	0.001255
3221.4	0.0007548
3231.05	0.0010984
3240.69	0.0010798
3250.34	0.0008782
3259.98	0.0010309
3269.63	0.0012411
3279.27	0.0005722
3288.92	0.0007707
3298.56	0.0006576
3308.21	0.0007661
3317.85	0.0006741
3327.49	0.0007405
3337.14	0.0006087
3346.78	0.0005576
3356.43	0.000296
3366.07	0.0005089
3375.72	0.0008519
3385.36	0.00045324
3395.01	0.000548
3404.65	0.0007768
3414.3	0.0008455
3423.94	0.0006402
3433.59	0.0007847
3443.23	0.0006521
3452.88	0.000635
3462.52	0.0006697
3472.17	0.0006745
3481.81	0.0008907
3491.46	0.0005759
3501.1	0.0007135
3510.75	0.0007697
3520.39	0.0013688
3530.04	0.001759
3539.68	0.002699
3549.32	0.005109
3558.97	0.014759
3568.61	0.039079
3578.26	0.055189
3587.9	0.037429
3597.55	0.013849
3607.19	0.004529
3616.84	0.002549
3626.48	0.001479
3636.13	0.0010759
3645.77	0.0010221
3655.42	0.000743
3665.06	0.0006338
3674.71	0.0003185
3684.35	0.000381
3694	0.0008666
3703.64	0.0005733
3713.29	0.000297
3722.93	0.00045456
3732.58	0.00044999
3742.22	0.000232
3751.86	0.00045831
3761.51	0.0003517
3771.15	0.000108
3780.8	0.000717
3790.44	0.0007365
3800.09	0.0007778
3809.73	0.0006399
3819.38	0.000171
3829.02	2.4e-05
3838.67	0.0005995
3848.31	0.0007554
3857.96	0.0012326
3867.6	0.0008166
3877.25	0.0008041
3886.89	0.0009187
3896.54	0.0006624
3906.18	0.0007662
3915.83	0.0008786
3925.47	0.0010327
3935.12	0.000159
3944.76	0.0009011
3954.41	0.0009995
3964.05	0.001038
3973.69	0.0008533
3983.34	0.0012462
3992.98	0.0008913
