Infrared Spectrum: 2,6-Dimethoxy-P-benzoquinone
Formula: C 8 H 8 O 4
CAS: 530-55-2
State: gas
Origin: EPA-IR VAPOR PHASE LIBRARY
1/CM	ABSORBANCE
549.8	0.00103178
559.445	0.000399
569.09	0.000272
578.734	0.000733
588.379	0.0015167
598.024	0.00341
607.669	0.0019792
617.313	0.0009661
626.958	0.00084
636.603	0.0013158
646.248	0.0012356
655.893	0.000658
665.537	0.000843
675.182	0.000369
684.827	0.0012566
694.472	0.0015754
704.116	0.00110746
713.761	0.000872
723.406	0.000476
733.051	0.000823
742.695	0.0013815
752.34	0.00108053
761.985	0.00105119
771.63	0.00110753
781.275	0.0017369
790.919	0.0018379
800.564	0.00263
810.209	0.00245
819.854	0.00218
829.498	0.00219
839.143	0.00273
848.788	0.00419
858.433	0.00852
868.078	0.01383
877.722	0.00991
887.367	0.00817
897.012	0.00658
906.657	0.00464
916.301	0.00347
925.946	0.00265
935.591	0.0021
945.236	0.0020146
954.88	0.0018083
964.525	0.00236
974.17	0.0023
983.815	0.00313
993.46	0.00293
1003.1	0.00353
1012.75	0.00494
1022.39	0.00607
1032.04	0.00572
1041.68	0.00501
1051.33	0.0064
1060.97	0.01003
1070.62	0.02053
1080.26	0.0329
1089.91	0.04084
1099.55	0.05807
1109.2	0.0713
1118.84	0.03468
1128.49	0.00984
1138.13	0.00521
1147.78	0.00542
1157.42	0.00424
1167.07	0.00507
1176.71	0.00626
1186.36	0.00934
1196	0.02024
1205.64	0.04679
1215.29	0.05669
1224.93	0.02517
1234.58	0.01595
1244.22	0.02509
1253.87	0.02416
1263.51	0.01168
1273.16	0.00566
1282.8	0.00604
1292.45	0.01291
1302.09	0.02578
1311.74	0.03203
1321.38	0.02153
1331.03	0.00911
1340.67	0.00782
1350.32	0.01181
1359.96	0.0154
1369.61	0.01342
1379.25	0.00635
1388.9	0.00259
1398.54	0.00222
1408.18	0.0017963
1417.83	0.0018976
1427.47	0.00243
1437.12	0.00391
1446.76	0.0055
1456.41	0.00792
1466.05	0.00876
1475.7	0.00657
1485.34	0.00402
1494.99	0.00294
1504.63	0.00277
1514.28	0.00253
1523.92	0.0028
1533.57	0.00269
1543.21	0.00269
1552.86	0.00296
1562.5	0.00422
1572.15	0.00834
1581.79	0.02051
1591.44	0.06286
1601.08	0.07205
1610.73	0.02483
1620.37	0.0137
1630.01	0.02329
1639.66	0.03918
1649.3	0.06053
1658.95	0.06664
1668.59	0.03994
1678.24	0.01697
1687.88	0.01687
1697.53	0.02727
1707.17	0.03767
1716.82	0.03104
1726.46	0.01276
1736.11	0.00415
1745.75	0.00302
1755.4	0.0029
1765.04	0.00273
1774.69	0.00243
1784.33	0.0022
1793.98	0.0019948
1803.62	0.0019174
1813.27	0.0019281
1822.91	0.0016587
1832.55	0.0012779
1842.2	0.0012084
1851.84	0.001221
1861.49	0.0012288
1871.13	0.0014016
1880.78	0.0014127
1890.42	0.0014349
1900.07	0.001298
1909.71	0.0015741
1919.36	0.0015929
1929	0.0016346
1938.65	0.0015175
1948.29	0.0014296
1957.94	0.0014731
1967.58	0.0013893
1977.23	0.001225
1986.87	0.0013675
1996.52	0.0011956
2006.16	0.0012947
2015.81	0.0012613
2025.45	0.0011613
2035.1	0.0012135
2044.74	0.0013615
2054.38	0.0013596
2064.03	0.0013874
2073.67	0.0014609
2083.32	0.001343
2092.96	0.0014159
2102.61	0.0016228
2112.25	0.0017754
2121.9	0.00189
2131.54	0.0018501
2141.19	0.0016702
2150.83	0.0016394
2160.48	0.0018494
2170.12	0.0016648
2179.77	0.001533
2189.41	0.001438
2199.06	0.0016948
2208.7	0.0016634
2218.35	0.0016169
2227.99	0.0016403
2237.64	0.001709
2247.28	0.0016197
2256.92	0.0014333
2266.57	0.0015833
2276.21	0.0011959
2285.86	0.0012584
2295.5	0.0013258
2305.15	0.0012447
2314.79	0.0012054
2324.44	0.0013882
2334.08	0.0013128
2343.73	0.0013687
2353.37	0.0013542
2363.02	0.0015781
2372.66	0.0011699
2382.31	0.0015238
2391.95	0.0014717
2401.6	0.0011958
2411.24	0.0015227
2420.89	0.0013376
2430.53	0.0014918
2440.18	0.0015123
2449.82	0.0013501
2459.47	0.0017084
2469.11	0.0014379
2478.75	0.00110834
2488.4	0.0015505
2498.04	0.0014908
2507.69	0.0016341
2517.33	0.001161
2526.98	0.0014683
2536.62	0.0017391
2546.27	0.0014939
2555.91	0.0014133
2565.56	0.0015692
2575.2	0.0013438
2584.85	0.0011887
2594.49	0.0012722
2604.14	0.0014743
2613.78	0.0014058
2623.43	0.0014764
2633.07	0.0015237
2642.72	0.0015296
2652.36	0.0011508
2662.01	0.00122
2671.65	0.0012996
2681.29	0.0012494
2690.94	0.0014365
2700.58	0.001258
2710.23	0.0016623
2719.87	0.0012171
2729.52	0.0013289
2739.16	0.0012576
2748.81	0.0013874
2758.45	0.0014108
2768.1	0.0014996
2777.74	0.0015493
2787.39	0.0018808
2797.03	0.0019528
2806.68	0.0020268
2816.32	0.00225
2825.97	0.00218
2835.61	0.00316
2845.26	0.0062
2854.9	0.00727
2864.55	0.0044
2874.19	0.00278
2883.84	0.00298
2893.48	0.00375
2903.12	0.0042
2912.77	0.00545
2922.41	0.00512
2932.06	0.00606
2941.7	0.01194
2951.35	0.01397
2960.99	0.00955
2970.64	0.01019
2980.28	0.00826
2989.93	0.0056
2999.57	0.0045
3009.22	0.00489
3018.86	0.00747
3028.51	0.00735
3038.15	0.00414
3047.8	0.00253
3057.44	0.00233
3067.09	0.0020057
3076.73	0.0027
3086.38	0.00276
3096.02	0.0019104
3105.67	0.0015368
3115.31	0.0014233
3124.95	0.0016309
3134.6	0.0016832
3144.24	0.0011189
3153.89	0.0012382
3163.53	0.00113654
3173.18	0.000795
3182.82	0.0014697
3192.47	0.0013621
3202.11	0.0014208
3211.76	0.0013379
3221.4	0.0009
3231.05	0.0013189
3240.69	0.00106021
3250.34	0.0014639
3259.98	0.00109956
3269.63	0.0016397
3279.27	0.0019842
3288.92	0.00236
3298.56	0.0016665
3308.21	0.00207
3317.85	0.0017837
3327.49	0.0012849
3337.14	0.0014614
3346.78	0.0013172
3356.43	0.0009422
3366.07	0.0012566
3375.72	0.0017232
3385.36	0.0015357
3395.01	0.00214
3404.65	0.0014791
3414.3	0.0016409
3423.94	0.00110055
3433.59	0.0010777
3443.23	0.00111604
3452.88	0.000826
3462.52	0.000529
3472.17	0.00074
3481.81	0.000421
3491.46	0.00106442
3501.1	0.000548
3510.75	0.0014265
3520.39	0.000614
3530.04	0.0011598
3539.68	0.000908
3549.32	0.00106834
3558.97	0.00104465
3568.61	0.000921
3578.26	0.0014109
3587.9	0.00113533
3597.55	0.000735
3607.19	0.00109138
3616.84	0.0011972
3626.48	0.000952
3636.13	0.000514
3645.77	0.00059
3655.42	0.000684
3665.06	0.00113048
3674.71	0.000791
3684.35	0.00109897
3694	0.000936
3703.64	0.000543
3713.29	0.00110525
3722.93	0.0014611
3732.58	0.00107429
3742.22	0.0009992
3751.86	0.000845
3761.51	0.0013718
3771.15	0.000892
3780.8	0.0010875
3790.44	0.0009502
3800.09	0.000776
3809.73	0.0013815
3819.38	0.0013848
3829.02	0.000827
3838.67	0.0011566
3848.31	0.0013461
3857.96	0.0011062
3867.6	0.00113895
3877.25	0.0012568
3886.89	0.0015938
3896.54	0.0013377
3906.18	0.0013947
3915.83	0.00105536
3925.47	0.0012723
3935.12	0.0014769
3944.76	0.0013105
3954.41	0.0011588
3964.05	0.0013101
3973.69	0.0015179
3983.34	0.0015628
3992.98	0.000844
