Infrared Spectrum: Flufenamic acid
Formula: C 14 H 10 F 3 N O 2
CAS: 530-78-9
State: gas
Origin: EPA-IR VAPOR PHASE LIBRARY
1/CM	ABSORBANCE
501.5	0.005997
513.074	0.009027
524.648	0.007067
536.222	0.007677
547.796	0.008517
559.37	0.010947
570.944	0.012337
582.518	0.007657
594.092	0.004837
605.666	0.004037
617.24	0.004627
628.814	0.008767
640.388	0.016177
651.962	0.011297
663.536	0.008377
675.11	0.005477
686.684	0.007027
698.258	0.016267
709.832	0.010367
721.406	0.005767
732.98	0.008047
744.554	0.020677
756.128	0.016767
767.702	0.010887
779.276	0.008197
790.85	0.007917
802.423	0.005737
813.997	0.003017
825.571	0.002257
837.145	0.002227
848.719	0.002417
860.293	0.002487
871.867	0.002497
883.441	0.003577
895.015	0.005067
906.589	0.004897
918.163	0.007527
929.737	0.010337
941.311	0.003477
952.885	0.002477
964.459	0.002267
976.033	0.002507
987.607	0.002567
999.181	0.003737
1010.76	0.003117
1022.33	0.004207
1033.9	0.007197
1045.48	0.012557
1057.05	0.037027
1068.63	0.034247
1080.2	0.019897
1091.77	0.018017
1103.35	0.014537
1114.92	0.016647
1126.49	0.032857
1138.07	0.087057
1149.64	0.093417
1161.22	0.086157
1172.79	0.082247
1184.36	0.073947
1195.94	0.020867
1207.51	0.016247
1219.09	0.016317
1230.66	0.013617
1242.23	0.015587
1253.81	0.017857
1265.38	0.023257
1276.96	0.024847
1288.53	0.025707
1300.1	0.026157
1311.68	0.033387
1323.25	0.075687
1334.83	0.116817
1346.4	0.040097
1357.97	0.018907
1369.55	0.012937
1381.12	0.012457
1392.7	0.006817
1404.27	0.007697
1415.84	0.012837
1427.42	0.015177
1438.99	0.018197
1450.57	0.032697
1462.14	0.030287
1473.71	0.016767
1485.29	0.018037
1496.86	0.022897
1508.44	0.027097
1520.01	0.039067
1531.58	0.022297
1543.16	0.010577
1554.73	0.009017
1566.31	0.016467
1577.88	0.041217
1589.45	0.050887
1601.03	0.037107
1612.6	0.023147
1624.18	0.011837
1635.75	0.007397
1647.32	0.006027
1658.9	0.005487
1670.47	0.005617
1682.05	0.007107
1693.62	0.010877
1705.19	0.022647
1716.77	0.066027
1728.34	0.049437
1739.92	0.017117
1751.49	0.016187
1763.06	0.009037
1774.64	0.004877
1786.21	0.004497
1797.79	0.003587
1809.36	0.002587
1820.93	0.001957
1832.51	0.001637
1844.08	0.0013222
1855.66	0.0012698
1867.23	0.0013458
1878.8	0.001321
1890.38	0.0013895
1901.95	0.001597
1913.53	0.001517
1925.1	0.001847
1936.67	0.001787
1948.25	0.001487
1959.82	0.0009974
1971.4	0.00078
1982.97	0.0007262
1994.54	0.0007205
2006.12	0.0006771
2017.69	0.0006511
2029.27	0.0006092
2040.84	0.00056851
2052.41	0.00052945
2063.99	0.0006078
2075.56	0.000677
2087.14	0.0007616
2098.71	0.0008193
2110.28	0.0008985
2121.86	0.0010128
2133.43	0.0009245
2145.01	0.0008695
2156.58	0.0007368
2168.15	0.0006656
2179.73	0.0006662
2191.3	0.0007105
2202.88	0.0006855
2214.45	0.0006553
2226.02	0.0006533
2237.6	0.0005793
2249.17	0.0006096
2260.74	0.0006214
2272.32	0.0006816
2283.89	0.0007461
2295.47	0.0007699
2307.04	0.0007717
2318.61	0.0008525
2330.19	0.0009683
2341.76	0.0011182
2353.34	0.0010211
2364.91	0.0009056
2376.48	0.0007872
2388.06	0.0006788
2399.63	0.0007308
2411.21	0.00077
2422.78	0.0007291
2434.35	0.0006802
2445.93	0.000629
2457.5	0.0006365
2469.08	0.0006595
2480.65	0.0006954
2492.22	0.0007051
2503.8	0.0007827
2515.37	0.0007845
2526.95	0.0008605
2538.52	0.0007913
2550.09	0.0007295
2561.67	0.0006576
2573.24	0.0005982
2584.82	0.0006195
2596.39	0.0006633
2607.96	0.0006877
2619.54	0.0006918
2631.11	0.0006633
2642.69	0.0006626
2654.26	0.000654
2665.83	0.000587
2677.41	0.0004528
2688.98	0.000354
2700.56	0.0003843
2712.13	0.0004089
2723.7	0.00048732
2735.28	0.00054231
2746.85	0.0006141
2758.43	0.0005771
2770	0.0005813
2781.57	0.0005498
2793.15	0.000429
2804.72	0.000397
2816.3	0.0004626
2827.87	0.00048982
2839.44	0.00050531
2851.02	0.00053962
2862.59	0.00056571
2874.17	0.00056389
2885.74	0.0005391
2897.31	0.00051075
2908.89	0.0004597
2920.46	0.0004366
2932.04	0.00052505
2943.61	0.00057243
2955.18	0.00055774
2966.76	0.00054288
2978.33	0.00050987
2989.91	0.00057114
3001.48	0.0006731
3013.05	0.0011004
3024.63	0.001757
3036.2	0.002717
3047.78	0.003397
3059.35	0.003367
3070.92	0.004327
3082.5	0.005127
3094.07	0.004437
3105.65	0.002757
3117.22	0.001727
3128.79	0.0011898
3140.37	0.0009914
3151.94	0.0009326
3163.52	0.0009115
3175.09	0.0009265
3186.66	0.0009546
3198.24	0.0009338
3209.81	0.0010389
3221.39	0.0011134
3232.96	0.0012881
3244.53	0.0014014
3256.11	0.001527
3267.68	0.001977
3279.26	0.002667
3290.83	0.004007
3302.4	0.005607
3313.98	0.006957
3325.55	0.009527
3337.13	0.012327
3348.7	0.011697
3360.27	0.008437
3371.85	0.005307
3383.42	0.003167
3395	0.001997
3406.57	0.0014331
3418.14	0.0014279
3429.72	0.001907
3441.29	0.002547
3452.86	0.0012995
3464.44	0.00053064
3476.01	0.0004041
3487.59	0.000322
3499.16	0.000282
3510.73	0.000349
3522.31	0.000314
3533.88	0.0004425
3545.46	0.0007145
3557.03	0.002087
3568.6	0.008577
3580.18	0.029167
3591.75	0.010617
3603.33	0.001707
3614.9	0.0006265
3626.47	0.000371
3638.05	0.000312
3649.62	0.000158
3661.2	0.000173
3672.77	0.000146
3684.34	9.7e-05
3695.92	0.000157
3707.49	0.00016
3719.07	0.000199
3730.64	0.000184
3742.21	0.000108
3753.79	4.7e-05
3765.36	0.000148
3776.94	4e-06
3788.51	4.7e-05
3800.08	0.000126
3811.66	2.6e-05
3823.23	4e-05
3834.81	0.000123
3846.38	0.000103
3857.95	8e-05
3869.53	0.0001
3881.1	0
3892.68	7.2e-05
3904.25	0.000129
3915.82	6.6e-05
3927.4	7.7e-05
3938.97	5.1e-05
3950.55	7.6e-05
3962.12	7.2e-05
3973.69	9.3e-05
3985.27	0.000148
3996.84	0.000105
