Infrared Spectrum: Hydrazine, 1,1-diphenyl-, hydrochloride
Formula: C12 H13 Cl N2
CAS: 530-47-2
State: SOLID (SPLIT MULL: FLUOROLUBE FOR 3800-1330 CM^-^1, NUJOL FOR 1330-450 CM^-^1), REF. SCREENED FIRST HALF
Class: COBLENTZ III
Instrument: DOW KBr FOREPRISM-GRATING
Instrument parameters: BLAZED AT 3.5, 12.0, 20.0 MICRON AND CHANGED AT 5.0, 7.5, 14.9 MICRON
Sampling: TRANSMISSION
Resolution: 2
Origin: DOW CHEMICAL COMPANY
1/CM	TRANSMITTANCE
454	0.7655
463	0.7666
472	0.7979
481	0.8156
490	0.8116
499	0.8032
508	0.807
517	0.8054
526	0.7643
535	0.6705
544	0.7928
553	0.8231
562	0.809
571	0.4972
580	0.779
589	0.8584
598	0.8598
607	0.8379
616	0.8626
625	0.8673
634	0.8694
643	0.8644
652	0.859
661	0.853
670	0.8203
679	0.7588
688	0.3237
697	0.3048
706	0.752
715	0.7076
724	0.6607
733	0.7314
742	0.7141
751	0.6256
760	0.2094
769	0.6851
778	0.3301
787	0.8042
796	0.8135
805	0.8
814	0.7787
823	0.7948
832	0.8019
841	0.7857
850	0.7886
859	0.6806
868	0.7465
877	0.7943
886	0.7428
895	0.8006
904	0.7985
913	0.7865
922	0.7244
931	0.7858
940	0.779
949	0.7702
958	0.7567
967	0.7518
976	0.7703
985	0.7709
994	0.755
1003	0.7662
1012	0.7484
1021	0.6748
1030	0.714
1039	0.7504
1048	0.7494
1057	0.738
1066	0.7151
1075	0.6764
1084	0.7335
1093	0.7302
1102	0.7076
1111	0.7294
1120	0.7196
1129	0.7035
1138	0.6697
1147	0.5619
1156	0.4903
1165	0.6429
1174	0.6742
1183	0.6478
1192	0.6913
1201	0.6208
1210	0.6986
1219	0.7321
1228	0.7368
1237	0.7187
1246	0.6941
1255	0.6652
1264	0.5667
1273	0.6234
1282	0.6399
1291	0.6205
1300	0.6009
1309	0.5812
1318	0.5947
1327	0.561
1336	0.5467
1345	0.5211
1354	0.6154
1363	0.6665
1372	0.6773
1381	0.6812
1390	0.6762
1399	0.6701
1408	0.6686
1417	0.6649
1426	0.6481
1435	0.618
1444	0.5649
1453	0.4783
1462	0.6126
1471	0.5704
1480	0.4961
1489	0.2717
1498	0.4098
1507	0.5518
1516	0.5751
1525	0.5276
1534	0.4056
1543	0.1023
1552	0.6995
1561	0.5926
1570	0.4962
1579	0.3211
1588	0.2604
1597	0.5036
1606	0.7938
1615	0.829
1624	0.8389
1633	0.8435
1642	0.8458
1651	0.8447
1660	0.8417
1669	0.8338
1678	0.8236
1687	0.8099
1696	0.797
1705	0.7942
1714	0.7698
1723	0.7787
1732	0.796
1741	0.7867
1750	0.7773
1759	0.7711
1768	0.7662
1777	0.7628
1786	0.7594
1795	0.7553
1804	0.7512
1813	0.7479
1822	0.7488
1831	0.7467
1840	0.74
1849	0.7305
1858	0.7324
1867	0.7349
1876	0.7299
1885	0.7237
1894	0.7172
1903	0.72
1912	0.7159
1921	0.7088
1930	0.7021
1939	0.6949
1948	0.6871
1957	0.6793
1966	0.684
1975	0.6754
1984	0.6728
1993	0.6502
2002	0.6552
2011	0.6321
2020	0.6237
2029	0.6139
2038	0.6049
2047	0.5963
2056	0.5874
2065	0.5787
2074	0.5948
2083	0.6154
2092	0.6245
2101	0.6228
2110	0.6197
2119	0.6165
2128	0.6134
2137	0.6099
2146	0.6064
2155	0.603
2164	0.5987
2173	0.5934
2182	0.5863
2191	0.5822
2200	0.5794
2209	0.571
2218	0.5614
2227	0.5535
2236	0.5464
2245	0.5401
2254	0.5337
2263	0.5273
2272	0.5206
2281	0.5137
2290	0.5068
2299	0.4998
2308	0.493
2317	0.486
2326	0.4787
2335	0.4719
2344	0.4656
2353	0.4594
2362	0.4536
2371	0.4476
2380	0.4416
2389	0.4353
2398	0.4328
2407	0.4348
2416	0.4364
2425	0.4328
2434	0.4278
2443	0.4209
2452	0.4142
2461	0.4079
2470	0.4015
2479	0.3946
2488	0.3877
2497	0.3798
2506	0.3719
2515	0.3644
2524	0.357
2533	0.3491
2542	0.34
2551	0.331
2560	0.3209
2569	0.3096
2578	0.2987
2587	0.2883
2596	0.2779
2605	0.2653
2614	0.2528
2623	0.24
2632	0.2273
2641	0.2079
2650	0.1899
2659	0.1743
2668	0.1613
2677	0.1643
2686	0.1699
2695	0.1777
2704	0.1925
2713	0.2354
2722	0.2469
2731	0.2408
2740	0.2272
2749	0.2189
2758	0.2154
2767	0.2112
2776	0.2072
2785	0.2036
2794	0.2003
2803	0.1979
2812	0.1965
2821	0.1957
2830	0.1958
2839	0.1964
2848	0.1973
2857	0.1985
2866	0.1977
2875	0.1948
2884	0.1944
2893	0.1987
2902	0.2126
2911	0.2278
2920	0.2468
2929	0.2676
2938	0.2863
2947	0.3045
2956	0.3243
2965	0.347
2974	0.3674
2983	0.3883
2992	0.4054
3001	0.4207
3010	0.4321
3019	0.4422
3028	0.4517
3037	0.4595
3046	0.4654
3055	0.4687
3064	0.4708
3073	0.4713
3082	0.4717
3091	0.4773
3100	0.4978
3109	0.5005
3118	0.4993
3127	0.4963
3136	0.4928
3145	0.4891
3154	0.4853
3163	0.4814
3172	0.478
3181	0.4747
3190	0.4716
3199	0.4686
3208	0.4658
3217	0.4632
3226	0.4605
3235	0.4579
3244	0.4555
3253	0.4529
3262	0.4505
3271	0.4479
3280	0.4454
3289	0.4428
3298	0.4403
3307	0.4377
3316	0.4352
3325	0.4326
3334	0.4301
3343	0.4276
3352	0.4254
3361	0.4237
3370	0.422
3379	0.4203
3388	0.4185
3397	0.4173
3406	0.4161
3415	0.4149
3424	0.4138
3433	0.4126
3442	0.4114
3451	0.4098
3460	0.4079
3469	0.4061
3478	0.4043
3487	0.4025
3496	0.4006
3505	0.3989
3514	0.3973
3523	0.3956
3532	0.394
3541	0.3923
3550	0.3906
3559	0.389
3568	0.3875
3577	0.386
3586	0.3845
3595	0.383
3604	0.3815
3613	0.38
3622	0.3783
3631	0.3759
3640	0.3736
3649	0.3712
3658	0.369
3667	0.3666
3676	0.3643
3685	0.3622
3694	0.3603
3703	0.3584
3712	0.3565
3721	0.3545
3730	0.3527
3739	0.3511
3748	0.3495
3757	0.3478
3766	0.3462
3775	0.3438
3784	0.3413
3793	0.3392
3802	0.3374
