Infrared Spectrum: TRIMELLITIC ACID, 2,2,4-TRIMETHYLPENTYL ESTER
Formula: C33 H54 O6
CAS: 53046-84-7
Class: COBLENTZ
Instrument: Not specified, most likely a prism, grating, or hybrid spectrometer.
Sampling: TRANSMISSION
Path length: SMEAR
Resolution: 4
Origin: TENNESSEE EASTMAN COMPANY, RESEARCH LABORATORIES
MICROMETERS	TRANSMITTANCE
2.055	0.986
2.09594	0.988
2.13687	0.988
2.17781	0.986
2.21874	0.982
2.25968	0.969
2.30061	0.95
2.34155	0.952
2.38248	0.955
2.42342	0.957
2.46435	0.96
2.50529	0.967
2.54622	0.969
2.58716	0.967
2.6281	0.969
2.66903	0.97
2.70997	0.967
2.7509	0.965
2.79184	0.965
2.83277	0.965
2.87371	0.953
2.91464	0.933
2.95558	0.943
2.99651	0.945
3.03745	0.943
3.07838	0.941
3.11932	0.935
3.16026	0.928
3.20119	0.933
3.24213	0.929
3.28306	0.909
3.324	0.658
3.36493	0.063
3.40587	0.223
3.4468	0.304
3.48774	0.593
3.52867	0.83
3.56961	0.897
3.61054	0.919
3.65148	0.919
3.69242	0.911
3.73335	0.938
3.77429	0.943
3.81522	0.943
3.85616	0.945
3.89709	0.947
3.93803	0.948
3.97896	0.952
4.0199	0.955
4.06083	0.955
4.10177	0.955
4.1427	0.953
4.18364	0.952
4.22458	0.952
4.26551	0.929
4.30645	0.917
4.34738	0.94
4.38832	0.952
4.42925	0.955
4.47019	0.955
4.51112	0.952
4.55206	0.952
4.59299	0.955
4.63393	0.955
4.67486	0.953
4.7158	0.953
4.75674	0.957
4.79767	0.96
4.83861	0.957
4.87954	0.955
4.92048	0.958
4.96141	0.96
5.00235	0.962
5.04328	0.958
5.08422	0.952
5.12515	0.947
5.16609	0.948
5.20702	0.952
5.24796	0.95
5.2889	0.95
5.32983	0.945
5.37077	0.931
5.4117	0.929
5.45264	0.921
5.49357	0.909
5.53451	0.892
5.57544	0.822
5.61638	0.8
5.65731	0.69
5.69825	0.393
5.73919	0.047
5.78012	0.027
5.82106	0.223
5.86199	0.586
5.90293	0.723
5.94386	0.776
5.9848	0.822
6.02573	0.859
6.06667	0.849
6.1076	0.871
6.14854	0.875
6.18947	0.835
6.23041	0.871
6.27135	0.894
6.31228	0.851
6.35322	0.847
6.39415	0.864
6.43509	0.88
6.47602	0.866
6.51696	0.875
6.55789	0.849
6.59883	0.817
6.63976	0.726
6.6807	0.656
6.72163	0.415
6.76257	0.28
6.80351	0.388
6.84444	0.497
6.88538	0.623
6.92631	0.711
6.96725	0.772
7.00818	0.755
7.04912	0.67
7.09005	0.635
7.13099	0.545
7.17192	0.451
7.21286	0.519
7.25379	0.333
7.29473	0.17
7.33567	0.435
7.3766	0.608
7.41754	0.705
7.45847	0.692
7.49941	0.664
7.54034	0.594
7.58128	0.353
7.62221	0.121
7.66315	0.104
7.70408	0.111
7.74502	0.109
7.78595	0.083
7.82689	0.107
7.86783	0.116
7.90876	0.109
7.9497	0.094
7.99063	0.08
8.03157	0.049
8.0725	0.044
8.11344	0.088
8.15437	0.223
8.19531	0.364
8.23624	0.458
8.27718	0.581
8.31811	0.613
8.35905	0.632
8.39999	0.652
8.44092	0.673
8.48186	0.683
8.52279	0.627
8.56373	0.63
8.60466	0.588
8.6456	0.388
8.68653	0.287
8.72747	0.3
8.7684	0.3
8.80934	0.213
8.85027	0.148
8.89121	0.1
8.93215	0.09
8.97308	0.124
9.01402	0.252
9.05495	0.437
9.09589	0.533
9.13682	0.589
9.17776	0.632
9.21869	0.617
9.25963	0.499
9.30056	0.283
9.3415	0.21
9.38243	0.307
9.42337	0.577
9.46431	0.726
9.50524	0.774
9.54618	0.801
9.58711	0.813
9.62805	0.818
9.66898	0.82
9.70992	0.813
9.75085	0.789
9.79179	0.767
9.83272	0.731
9.87366	0.63
9.91459	0.519
9.95553	0.488
9.99647	0.552
10.0374	0.567
10.0783	0.487
10.1193	0.405
10.1602	0.388
10.2011	0.427
10.2421	0.458
10.283	0.47
10.3239	0.452
10.3649	0.437
10.4058	0.488
10.4468	0.581
10.4877	0.647
10.5286	0.702
10.5696	0.721
10.6105	0.721
10.6514	0.733
10.6924	0.743
10.7333	0.719
10.7742	0.705
10.8152	0.709
10.8561	0.729
10.897	0.76
10.938	0.798
10.9789	0.817
11.0199	0.825
11.0608	0.83
11.1017	0.839
11.1427	0.847
11.1836	0.858
11.2245	0.871
11.2655	0.882
11.3064	0.887
11.3473	0.888
11.3883	0.88
11.4292	0.849
11.4701	0.822
11.5111	0.791
11.552	0.77
11.5929	0.753
11.6339	0.765
11.6748	0.786
11.7158	0.806
11.7567	0.82
11.7976	0.832
11.8386	0.837
11.8795	0.842
11.9204	0.852
11.9614	0.852
12.0023	0.854
12.0432	0.851
12.0842	0.844
12.1251	0.839
12.166	0.835
12.207	0.832
12.2479	0.832
12.2888	0.835
12.3298	0.844
12.3707	0.851
12.4117	0.859
12.4526	0.852
12.4935	0.794
12.5345	0.735
12.5754	0.77
12.6163	0.825
12.6573	0.839
12.6982	0.832
12.7391	0.801
12.7801	0.789
12.821	0.779
12.8619	0.764
12.9029	0.748
12.9438	0.738
12.9847	0.707
13.0257	0.663
13.0666	0.627
13.1076	0.569
13.1485	0.516
13.1894	0.487
13.2304	0.485
13.2713	0.504
13.3122	0.548
13.3532	0.6
13.3941	0.682
13.435	0.731
13.476	0.762
13.5169	0.779
13.5578	0.782
13.5988	0.777
13.6397	0.777
13.6807	0.786
13.7216	0.793
13.7625	0.788
13.8035	0.758
13.8444	0.735
13.8853	0.723
13.9263	0.717
13.9672	0.723
14.0081	0.738
14.0491	0.752
14.09	0.752
14.1309	0.738
14.1719	0.726
14.2128	0.717
14.2537	0.719
14.2947	0.726
14.3356	0.735
14.3766	0.738
14.4175	0.743
14.4584	0.747
14.4994	0.748
14.5403	0.748
14.5812	0.748
14.6222	0.741
14.6631	0.735
14.704	0.731
14.745	0.726
14.7859	0.721
14.8268	0.714
14.8678	0.705
14.9087	0.688
14.9496	0.666
14.9906	0.652
15.0315	0.644
15.0725	0.644
15.1134	0.646
15.1543	0.649
15.1953	0.647
15.2362	0.642
15.2771	0.637
15.3181	0.634
15.359	0.629
15.3999	0.625
15.4409	0.617
15.4818	0.615
15.5227	0.611
15.5637	0.606
15.6046	0.603
15.6455	0.598
15.6865	0.594
15.7274	0.591
15.7684	0.588
15.8093	0.582
15.8502	0.576
15.8912	0.574
15.9321	0.572
15.973	0.572
