Infrared Spectrum: 5-Chloro-2-methylphenol
Formula: C 7 H 7 Cl O
CAS: 5306-98-9
State: gas
Origin: EPA-IR VAPOR PHASE LIBRARY
1/CM	ABSORBANCE
549.8	0.03057
559.445	0.0346
569.09	0.03419
578.734	0.03928
588.379	0.03938
598.024	0.02246
607.669	0.01171
617.313	0.0079
626.958	0.00674
636.603	0.01208
646.248	0.033
655.893	0.04854
665.537	0.03176
675.182	0.01034
684.827	0.00915
694.472	0.01267
704.116	0.01237
713.761	0.00841
723.406	0.00707
733.051	0.00953
742.695	0.01613
752.34	0.01996
761.985	0.01747
771.63	0.01878
781.275	0.04934
790.919	0.10169
800.564	0.15586
810.209	0.09202
819.854	0.05497
829.498	0.06137
839.143	0.09899
848.788	0.08121
858.433	0.07581
868.078	0.06393
877.722	0.08303
887.367	0.20463
897.012	0.42534
906.657	0.36111
916.301	0.07369
925.946	0.03144
935.591	0.02669
945.236	0.02362
954.88	0.02604
964.525	0.03463
974.17	0.05239
983.815	0.09164
993.46	0.10214
1003.1	0.06049
1012.75	0.02957
1022.39	0.02745
1032.04	0.02708
1041.68	0.02242
1051.33	0.01802
1060.97	0.02552
1070.62	0.08367
1080.26	0.20644
1089.91	0.21768
1099.55	0.13522
1109.2	0.14665
1118.84	0.13955
1128.49	0.07857
1138.13	0.06109
1147.78	0.08479
1157.42	0.17968
1167.07	0.22905
1176.71	0.2014
1186.36	0.14713
1196	0.218
1205.64	0.31412
1215.29	0.32385
1224.93	0.19404
1234.58	0.15346
1244.22	0.21938
1253.87	0.2215
1263.51	0.14801
1273.16	0.12938
1282.8	0.15599
1292.45	0.16893
1302.09	0.12104
1311.74	0.06056
1321.38	0.02596
1331.03	0.01664
1340.67	0.01353
1350.32	0.01466
1359.96	0.02178
1369.61	0.03643
1379.25	0.06081
1388.9	0.08227
1398.54	0.13285
1408.18	0.1768
1417.83	0.16442
1427.47	0.09579
1437.12	0.07788
1446.76	0.08597
1456.41	0.08441
1466.05	0.08976
1475.7	0.1832
1485.34	0.37512
1494.99	0.48025
1504.63	0.32362
1514.28	0.12374
1523.92	0.05752
1533.57	0.03511
1543.21	0.03626
1552.86	0.05084
1562.5	0.08954
1572.15	0.16025
1581.79	0.23331
1591.44	0.27728
1601.08	0.30065
1610.73	0.2391
1620.37	0.11368
1630.01	0.03829
1639.66	0.02392
1649.3	0.0186
1658.95	0.01502
1668.59	0.01322
1678.24	0.01084
1687.88	0.00786
1697.53	0.00735
1707.17	0.01007
1716.82	0.01497
1726.46	0.01734
1736.11	0.01481
1745.75	0.01078
1755.4	0.00784
1765.04	0.0064
1774.69	0.00553
1784.33	0.00521
1793.98	0.00529
1803.62	0.00502
1813.27	0.00422
1822.91	0.00406
1832.55	0.00473
1842.2	0.0065
1851.84	0.01018
1861.49	0.01241
1871.13	0.0107
1880.78	0.00566
1890.42	0.00296
1900.07	0.00209
1909.71	0.00185
1919.36	0.00162
1929	0.00158
1938.65	0.00152
1948.29	0.00186
1957.94	0.00245
1967.58	0.00288
1977.23	0.00299
1986.87	0.00294
1996.52	0.003
2006.16	0.00295
2015.81	0.00252
2025.45	0.00203
2035.1	0.00192
2044.74	0.00196
2054.38	0.00195
2064.03	0.002
2073.67	0.0018
2083.32	0.00152
2092.96	0.00183
2102.61	0.00214
2112.25	0.00236
2121.9	0.0028
2131.54	0.00391
2141.19	0.00478
2150.83	0.00459
2160.48	0.00342
2170.12	0.00237
2179.77	0.00176
2189.41	0.00161
2199.06	0.00154
2208.7	0.0015
2218.35	0.00177
2227.99	0.00212
2237.64	0.00257
2247.28	0.00274
2256.92	0.00284
2266.57	0.00331
2276.21	0.00379
2285.86	0.00385
2295.5	0.00366
2305.15	0.00403
2314.79	0.00438
2324.44	0.0041
2334.08	0.00381
2343.73	0.00371
2353.37	0.00423
2363.02	0.00467
2372.66	0.00502
2382.31	0.00538
2391.95	0.00556
2401.6	0.0054
2411.24	0.0051
2420.89	0.00469
2430.53	0.0041
2440.18	0.00406
2449.82	0.00483
2459.47	0.0057
2469.11	0.00586
2478.75	0.00593
2488.4	0.00617
2498.04	0.00645
2507.69	0.00612
2517.33	0.00508
2526.98	0.00401
2536.62	0.0036
2546.27	0.00344
2555.91	0.00323
2565.56	0.00294
2575.2	0.00322
2584.85	0.00379
2594.49	0.00417
2604.14	0.00352
2613.78	0.00252
2623.43	0.00209
2633.07	0.0022
2642.72	0.00252
2652.36	0.00287
2662.01	0.00302
2671.65	0.00314
2681.29	0.00367
2690.94	0.00408
2700.58	0.00411
2710.23	0.0041
2719.87	0.00397
2729.52	0.00421
2739.16	0.00586
2748.81	0.00725
2758.45	0.00555
2768.1	0.00348
2777.74	0.00367
2787.39	0.00424
2797.03	0.00481
2806.68	0.00542
2816.32	0.00616
2825.97	0.00729
2835.61	0.00945
2845.26	0.01332
2854.9	0.02259
2864.55	0.04213
2874.19	0.05692
2883.84	0.05286
2893.48	0.04549
2903.12	0.04725
2912.77	0.054
2922.41	0.06794
2932.06	0.0936
2941.7	0.09664
2951.35	0.06633
2960.99	0.04775
2970.64	0.04647
2980.28	0.04902
2989.93	0.044
2999.57	0.03457
3009.22	0.02899
3018.86	0.03587
3028.51	0.05342
3038.15	0.06117
3047.8	0.05284
3057.44	0.03574
3067.09	0.02781
3076.73	0.02643
3086.38	0.02582
3096.02	0.02101
3105.67	0.01401
3115.31	0.00836
3124.95	0.00523
3134.6	0.00358
3144.24	0.00253
3153.89	0.00207
3163.53	0.0018
3173.18	0.0019
3182.82	0.00205
3192.47	0.00205
3202.11	0.00164
3211.76	0.00116
3221.4	0.0011
3231.05	0.0008377
3240.69	0.0006886
3250.34	0.0007773
3259.98	0.0007771
3269.63	0.0009202
3279.27	0.0008291
3288.92	0.0008909
3298.56	0.0009909
3308.21	0.00156
3317.85	0.00204
3327.49	0.00276
3337.14	0.00298
3346.78	0.0028
3356.43	0.00346
3366.07	0.00437
3375.72	0.00443
3385.36	0.00431
3395.01	0.00396
3404.65	0.00365
3414.3	0.0031
3423.94	0.00284
3433.59	0.00273
3443.23	0.00268
3452.88	0.00236
3462.52	0.00189
3472.17	0.00146
3481.81	0.00131
3491.46	0.00102
3501.1	0.0007448
3510.75	0.0008476
3520.39	0.0005781
3530.04	0.0008526
3539.68	0.0007274
3549.32	0.0009624
3558.97	0.00116
3568.61	0.00134
3578.26	0.00204
3587.9	0.00292
3597.55	0.00439
3607.19	0.00777
3616.84	0.0162
3626.48	0.04578
3636.13	0.14547
3645.77	0.30872
3655.42	0.2797
3665.06	0.10954
3674.71	0.02626
3684.35	0.00866
3694	0.00509
3703.64	0.00318
3713.29	0.00212
3722.93	0.00145
3732.58	0.00123
3742.22	0.00118
3751.86	0.00116
3761.51	0.00123
3771.15	0.00136
3780.8	0.00172
3790.44	0.00167
3800.09	0.00188
3809.73	0.00216
3819.38	0.00258
3829.02	0.00287
3838.67	0.00305
3848.31	0.00346
3857.96	0.00344
3867.6	0.00324
3877.25	0.00325
3886.89	0.00332
3896.54	0.00355
3906.18	0.00337
3915.83	0.00357
3925.47	0.00372
3935.12	0.0038
3944.76	0.00426
3954.41	0.00413
3964.05	0.00405
3973.69	0.00395
3983.34	0.0037
3992.98	0.00267
