Infrared Spectrum: Ethyl 3-ethyl-5-methyl-4-isoxazolecarboxylate
Formula: C 9 H 13 N O 3
CAS: 53064-41-8
State: gas
Origin: EPA-IR VAPOR PHASE LIBRARY
1/CM	ABSORBANCE
549.9	0.002755
559.547	0.002267
569.193	0.002248
578.84	0.002466
588.486	0.002258
598.133	0.00209
607.779	0.001991
617.426	0.001987
627.072	0.002225
636.719	0.002221
646.365	0.002068
656.012	0.00167
665.658	0.00182
675.305	0.00179
684.951	0.00188
694.598	0.002105
704.245	0.002186
713.891	0.002195
723.538	0.002164
733.184	0.002461
742.831	0.0030221
752.477	0.0038458
762.124	0.00563
771.77	0.00829
781.417	0.01125
791.063	0.0135
800.71	0.01167
810.356	0.00844
820.003	0.00758
829.649	0.00904
839.296	0.00892
848.943	0.00663
858.589	0.006
868.236	0.00788
877.882	0.01135
887.529	0.01268
897.175	0.00787
906.822	0.00412
916.468	0.0032696
926.115	0.0033205
935.761	0.0036828
945.408	0.00489
955.054	0.00849
964.701	0.01269
974.347	0.01524
983.994	0.01322
993.64	0.00919
1003.29	0.00939
1012.93	0.01064
1022.58	0.01016
1032.23	0.01136
1041.87	0.01735
1051.52	0.02417
1061.17	0.02918
1070.81	0.03711
1080.46	0.05346
1090.11	0.10665
1099.75	0.24389
1109.4	0.28649
1119.05	0.13037
1128.69	0.05137
1138.34	0.02749
1147.99	0.02018
1157.63	0.01825
1167.28	0.01816
1176.92	0.01653
1186.57	0.01184
1196.22	0.00823
1205.86	0.00735
1215.51	0.00793
1225.16	0.01022
1234.8	0.01732
1244.45	0.03144
1254.1	0.0436
1263.74	0.0411
1273.39	0.04694
1283.04	0.07462
1292.68	0.09765
1302.33	0.0745
1311.98	0.03832
1321.62	0.03813
1331.27	0.04697
1340.92	0.03568
1350.56	0.01805
1360.21	0.01559
1369.86	0.02169
1379.5	0.02319
1389.15	0.02112
1398.79	0.01838
1408.44	0.01935
1418.09	0.02929
1427.73	0.0501
1437.38	0.072
1447.03	0.06892
1456.67	0.04506
1466.32	0.03874
1475.97	0.03089
1485.61	0.02078
1495.26	0.01526
1504.91	0.01132
1514.55	0.00899
1524.2	0.00814
1533.85	0.00775
1543.49	0.00772
1553.14	0.008
1562.79	0.00898
1572.43	0.01164
1582.08	0.01818
1591.73	0.03522
1601.37	0.0699
1611.02	0.07722
1620.67	0.0377
1630.31	0.01656
1639.96	0.01057
1649.6	0.00829
1659.25	0.00772
1668.9	0.00854
1678.54	0.01103
1688.19	0.01526
1697.84	0.02056
1707.48	0.02982
1717.13	0.06268
1726.78	0.15542
1736.42	0.21365
1746.07	0.12149
1755.72	0.03632
1765.36	0.01859
1775.01	0.01364
1784.66	0.00978
1794.3	0.00674
1803.95	0.00503
1813.6	0.00425
1823.24	0.00388
1832.89	0.0037291
1842.54	0.0035987
1852.18	0.003574
1861.83	0.003555
1871.47	0.0034457
1881.12	0.0031581
1890.77	0.0028167
1900.41	0.00265
1910.06	0.002595
1919.71	0.002601
1929.35	0.0027902
1939	0.00292665
1948.65	0.0030056
1958.29	0.0030495
1967.94	0.0030664
1977.59	0.002863
1987.23	0.002565
1996.88	0.002432
2006.53	0.002365
2016.17	0.002381
2025.82	0.002337
2035.47	0.002316
2045.11	0.002326
2054.76	0.002256
2064.41	0.002282
2074.05	0.00229
2083.7	0.002277
2093.35	0.002232
2102.99	0.002316
2112.64	0.002334
2122.28	0.002429
2131.93	0.002374
2141.58	0.00228
2151.22	0.002196
2160.87	0.002197
2170.52	0.002245
2180.16	0.002169
2189.81	0.002226
2199.46	0.002198
2209.1	0.002232
2218.75	0.002249
2228.4	0.002315
2238.04	0.002274
2247.69	0.002161
2257.34	0.002057
2266.98	0.001989
2276.63	0.001923
2286.28	0.00185
2295.92	0.0018
2305.57	0.00183
2315.22	0.00183
2324.86	0.00182
2334.51	0.00188
2344.16	0.002085
2353.8	0.002097
2363.45	0.002088
2373.09	0.002036
2382.74	0.002123
2392.39	0.002169
2402.03	0.002153
2411.68	0.002062
2421.33	0.002052
2430.97	0.00183
2440.62	0.00186
2450.27	0.00184
2459.91	0.00186
2469.56	0.00179
2479.21	0.001953
2488.85	0.001903
2498.5	0.001918
2508.15	0.00187
2517.79	0.00175
2527.44	0.00171
2537.09	0.0017
2546.73	0.00172
2556.38	0.00166
2566.03	0.00167
2575.67	0.00156
2585.32	0.00148
2594.96	0.00138
2604.61	0.00138
2614.26	0.00139
2623.9	0.00146
2633.55	0.00142
2643.2	0.00145
2652.84	0.0014
2662.49	0.00141
2672.14	0.00136
2681.78	0.00141
2691.43	0.00137
2701.08	0.00151
2710.72	0.0016
2720.37	0.00176
2730.02	0.002032
2739.66	0.002195
2749.31	0.002292
2758.96	0.002212
2768.6	0.002236
2778.25	0.002229
2787.9	0.002134
2797.54	0.002264
2807.19	0.002559
2816.84	0.00294851
2826.48	0.0033142
2836.13	0.0038513
2845.77	0.00454
2855.42	0.00559
2865.07	0.00734
2874.71	0.01022
2884.36	0.01514
2894.01	0.01682
2903.65	0.01602
2913.3	0.01661
2922.95	0.01789
2932.59	0.02564
2942.24	0.04065
2951.89	0.04187
2961.53	0.03272
2971.18	0.03793
2980.83	0.05914
2990.47	0.06058
3000.12	0.03442
3009.77	0.01888
3019.41	0.01184
3029.06	0.00802
3038.71	0.00615
3048.35	0.00493
3058	0.00405
3067.64	0.0032992
3077.29	0.0030427
3086.94	0.002595
3096.58	0.002291
3106.23	0.002026
3115.88	0.00182
3125.52	0.00165
3135.17	0.00136
3144.82	0.00124
3154.46	0.00108
3164.11	0.00098
3173.76	0.00113
3183.4	0.00102
3193.05	0.00062
3202.7	0.00071
3212.34	0.00051
3221.99	0.00056
3231.64	0.00032
3241.28	0.00023
3250.93	0.00018
3260.58	0.00019
3270.22	9e-05
3279.87	0.00012
3289.52	5e-05
3299.16	0.00013
3308.81	0.0004
3318.45	0.00028
3328.1	0.00037
3337.75	0.00039
3347.39	0.00052
3357.04	0.00034
3366.69	0.00055
3376.33	0.00029
3385.98	0.00057
3395.63	0.00051
3405.27	0.00051
3414.92	0.00071
3424.57	0.00102
3434.21	0.00133
3443.86	0.00165
3453.51	0.00162
3463.15	0.00129
3472.8	0.00091
3482.45	0.00091
3492.09	0.00082
3501.74	0.00076
3511.39	0.00072
3521.03	0.0007
3530.68	0.00085
3540.33	0.00074
3549.97	0.00087
3559.62	0.00067
3569.26	0.00078
3578.91	0.00095
3588.56	0.00084
3598.2	0.00071
3607.85	0.00088
3617.5	0.0007
3627.14	0.00091
3636.79	0.00112
3646.44	0.00089
3656.08	0.00098
3665.73	0.00106
3675.38	0.00083
3685.02	0.00105
3694.67	0.00119
3704.32	0.00099
3713.96	0.00121
3723.61	0.00109
3733.26	0.00104
3742.9	0.00115
3752.55	0.00117
3762.2	0.00119
3771.84	0.00119
3781.49	0.00114
3791.13	0.00127
3800.78	0.00116
3810.43	0.00127
3820.07	0.00128
3829.72	0.00132
3839.37	0.00147
3849.01	0.00129
3858.66	0.00125
3868.31	0.00138
3877.95	0.00133
3887.6	0.00135
3897.25	0.0013
3906.89	0.00124
3916.54	0.00133
3926.19	0.00138
3935.83	0.00128
3945.48	0.00134
3955.13	0.00145
3964.77	0.00151
3974.42	0.00161
3984.07	0.00155
3993.71	0.00157
