Infrared Spectrum: 2,6-Dichlorophenyl methyl carbinol
Formula: C 8 H 8 Cl 2 O
CAS: 53066-19-6
State: gas
Origin: EPA-IR VAPOR PHASE LIBRARY
1/CM	ABSORBANCE
549.8	0.00199
559.445	0.00163
569.09	0.00154
578.735	0.00107
588.38	0.00107
598.025	0.0013
607.67	0.0014
617.315	0.00132
626.96	0.00148
636.605	0.00151
646.251	0.00132
655.896	0.00117
665.541	0.00108
675.186	0.00105
684.831	0.00108
694.476	0.00124
704.121	0.00133
713.766	0.00221
723.411	0.00508
733.056	0.00925
742.701	0.00611
752.346	0.00973
761.991	0.01399
771.636	0.01858
781.281	0.02873
790.926	0.0195
800.571	0.00615
810.216	0.00304
819.861	0.00255
829.507	0.00175
839.152	0.00142
848.797	0.00144
858.442	0.00111
868.087	0.00112
877.732	0.00171
887.377	0.00371
897.022	0.00633
906.667	0.00469
916.312	0.00233
925.957	0.00153
935.602	0.00135
945.247	0.00143
954.892	0.0016
964.537	0.00187
974.182	0.00168
983.827	0.00167
993.472	0.00238
1003.12	0.00433
1012.76	0.00575
1022.41	0.00442
1032.05	0.0038
1041.7	0.00504
1051.34	0.00655
1060.99	0.00699
1070.63	0.00875
1080.28	0.01066
1089.92	0.01314
1099.57	0.02211
1109.21	0.02709
1118.86	0.01632
1128.5	0.00751
1138.15	0.00643
1147.79	0.00799
1157.44	0.0082
1167.08	0.0071
1176.73	0.01104
1186.37	0.01408
1196.02	0.01137
1205.66	0.00794
1215.31	0.00418
1224.95	0.00348
1234.6	0.00469
1244.24	0.00579
1253.89	0.00622
1263.53	0.00671
1273.18	0.00634
1282.82	0.00538
1292.47	0.00347
1302.11	0.00283
1311.76	0.0025
1321.4	0.00239
1331.05	0.00296
1340.69	0.00336
1350.34	0.00325
1359.98	0.00377
1369.63	0.00602
1379.27	0.00719
1388.92	0.00591
1398.56	0.00596
1408.21	0.00743
1417.85	0.0096
1427.5	0.01628
1437.14	0.02273
1446.79	0.01197
1456.43	0.00352
1466.08	0.0024
1475.73	0.00186
1485.37	0.00202
1495.02	0.00209
1504.66	0.0017
1514.31	0.0015
1523.95	0.00125
1533.6	0.00145
1543.24	0.00277
1552.89	0.00793
1562.53	0.01482
1572.18	0.011
1581.82	0.00575
1591.47	0.00284
1601.11	0.00145
1610.76	0.00109
1620.4	0.00104
1630.05	0.0008548
1639.69	0.0007692
1649.34	0.0007737
1658.98	0.000989
1668.63	0.00106
1678.27	0.0007394
1687.92	0.0005871
1697.56	0.0005581
1707.21	0.0004587
1716.85	0.000459
1726.5	0.0004931
1736.14	0.0004857
1745.79	0.0003973
1755.43	0.0003637
1765.08	0.0005819
1774.72	0.0008763
1784.37	0.0008108
1794.01	0.0005219
1803.66	0.0003085
1813.3	0.0003633
1822.95	0.0003943
1832.59	0.0005162
1842.24	0.0007411
1851.88	0.00102
1861.53	0.0007204
1871.17	0.0004448
1880.82	0.0003728
1890.46	0.0004005
1900.11	0.0004777
1909.75	0.0007764
1919.4	0.00112
1929.04	0.00104
1938.69	0.0005189
1948.33	0.0004168
1957.98	0.0003548
1967.62	0.0003318
1977.27	0.0003629
1986.91	0.0003595
1996.56	0.0003455
2006.2	0.000368
2015.85	0.0003483
2025.49	0.0002526
2035.14	0.0002628
2044.78	0.0002499
2054.43	0.0002505
2064.07	0.0002002
2073.72	0.0002594
2083.36	0.0002115
2093.01	0.0002396
2102.65	0.0002646
2112.3	0.0002593
2121.94	0.0001829
2131.59	0.0002185
2141.23	0.0002178
2150.88	0.0001767
2160.52	0.0002192
2170.17	0.000291
2179.81	0.0002513
2189.46	0.000247
2199.1	0.0002692
2208.75	0.00025
2218.39	0.0002914
2228.04	0.0002132
2237.68	0.0002534
2247.33	0.0002422
2256.97	0.0002685
2266.62	0.0002804
2276.26	0.0003118
2285.91	0.0003711
2295.55	0.0002901
2305.2	0.000294
2314.84	0.0003152
2324.49	0.0002818
2334.13	0.0002369
2343.78	0.0001905
2353.42	0.000225
2363.07	0.0002009
2372.72	0.0002403
2382.36	0.0001894
2392.01	0.0001541
2401.65	0.0002159
2411.3	0.0002419
2420.94	0.0002221
2430.59	0.000377
2440.23	0.0002938
2449.88	0.0003152
2459.52	0.0002168
2469.17	0.0002184
2478.81	0.0001345
2488.46	0.0001382
2498.1	0.000267
2507.75	0.000172
2517.39	0.0002114
2527.04	0.0001529
2536.68	0.0001682
2546.33	0.0002455
2555.97	0.0002259
2565.62	0.0002114
2575.26	0.0002323
2584.91	0.0002386
2594.55	0.000104
2604.2	0.0002084
2613.84	0.000213
2623.49	0.0001561
2633.13	0.0002848
2642.78	0.0003004
2652.42	0.0002623
2662.07	0.0002732
2671.71	0.0002065
2681.36	8.735e-05
2691	0.0001919
2700.65	0.0002075
2710.29	8.536e-05
2719.94	0.0002802
2729.58	0.0002295
2739.23	0.000217
2748.87	0.000164
2758.52	0.0001841
2768.16	0.0002265
2777.81	0.000133
2787.45	0.0002173
2797.1	0.0003732
2806.74	0.0002489
2816.39	0.0003199
2826.03	0.00051
2835.68	0.0003786
2845.32	0.0004472
2854.97	0.0005772
2864.61	0.0009639
2874.26	0.00128
2883.9	0.00141
2893.55	0.00164
2903.19	0.00151
2912.84	0.00176
2922.48	0.00202
2932.13	0.00327
2941.77	0.00421
2951.42	0.00304
2961.06	0.00253
2970.71	0.00496
2980.35	0.00788
2990	0.00724
2999.64	0.00516
3009.29	0.00317
3018.93	0.00132
3028.58	0.0007568
3038.22	0.0006001
3047.87	0.0008947
3057.51	0.00167
3067.16	0.0021
3076.8	0.00228
3086.45	0.00185
3096.09	0.000847
3105.74	0.0007268
3115.38	0.0007429
3125.03	0.0007537
3134.67	0.0006903
3144.32	0.0004447
3153.96	0.0003501
3163.61	0.0004033
3173.25	0.0002506
3182.9	0.000336
3192.54	0.0001936
3202.19	0.0002709
3211.83	0.0004085
3221.48	0.0003705
3231.12	0.0002519
3240.77	3.644e-05
3250.41	0.0002676
3260.06	0.000148
3269.7	0.0002555
3279.35	0.0004548
3289	0.0004224
3298.64	0.0005207
3308.29	0.0002999
3317.93	0.0003655
3327.58	0.0004517
3337.22	0.0004477
3346.87	0.0003613
3356.51	0.0003825
3366.16	0.0003525
3375.8	0.0004736
3385.45	0.0005162
3395.09	0.0003977
3404.74	0.0003811
3414.38	0.0004404
3424.03	0.0004606
3433.67	0.000497
3443.32	0.0003605
3452.96	0.0003418
3462.61	0.0002709
3472.25	0.0003299
3481.9	0.0003281
3491.54	0.0005382
3501.19	0.0004318
3510.83	0.0003912
3520.48	0.0004129
3530.12	0.0004432
3539.77	0.0004641
3549.41	0.0002228
3559.06	0.0005061
3568.7	0.0004799
3578.35	0.000672
3587.99	0.000554
3597.64	0.0008157
3607.28	0.0009862
3616.93	0.00297
3626.57	0.00833
3636.22	0.00774
3645.86	0.00409
3655.51	0.00253
3665.15	0.00127
3674.8	0.0005577
3684.44	0.0006787
3694.09	0.0007298
3703.73	0.0008317
3713.38	0.0005504
3723.02	0.0003668
3732.67	0.0005414
3742.31	0.0003131
3751.96	0.0005227
3761.6	0.0005473
3771.25	0.0003556
3780.89	0.0003896
3790.54	0.0003008
3800.18	0.0002419
3809.83	0.0003991
3819.47	0.0003568
3829.12	0.0003887
3838.76	0.0005631
3848.41	0.0005258
3858.05	0.0005849
3867.7	0.0005889
3877.34	0.000577
3886.99	0.0003585
3896.63	0.0005231
3906.28	0.000264
3915.92	0.000404
3925.57	0.0004996
3935.21	0.0003978
3944.86	0.0005755
3954.5	0.0005696
3964.15	0.000464
3973.79	0.0005558
3983.44	0.0004254
3993.08	0.0003426
