Infrared Spectrum: 7,7-Dichlorobicyclo[3,2,0]hept-2-en-6-one
Formula: C 7 H 6 Cl 2 O
CAS: 5307-99-3
State: gas
Origin: EPA-IR VAPOR PHASE LIBRARY
1/CM	ABSORBANCE
549.9	0.0017239
559.547	0.0017275
569.193	0.0014451
578.84	0.0019471
588.486	0.0019397
598.133	0.0022305
607.779	0.00304
617.426	0.00638
627.072	0.01124
636.719	0.01072
646.365	0.00621
656.012	0.00438
665.658	0.00455
675.305	0.00461
684.951	0.00513
694.598	0.00557
704.245	0.00596
713.891	0.01276
723.538	0.03897
733.184	0.05127
742.831	0.03869
752.477	0.04427
762.124	0.04311
771.77	0.03018
781.417	0.01738
791.063	0.0121
800.71	0.01407
810.356	0.01967
820.003	0.01602
829.649	0.00828
839.296	0.00799
848.943	0.00817
858.589	0.00536
868.236	0.0067
877.882	0.01744
887.529	0.02197
897.175	0.01092
906.822	0.00359
916.468	0.00327
926.115	0.00534
935.761	0.0085
945.408	0.00754
955.054	0.00691
964.701	0.00906
974.347	0.00965
983.994	0.01008
993.64	0.01084
1003.29	0.00994
1012.93	0.01253
1022.58	0.02008
1032.23	0.02024
1041.87	0.01206
1051.52	0.00746
1061.17	0.00679
1070.81	0.00607
1080.46	0.00389
1090.11	0.00328
1099.75	0.00525
1109.4	0.00794
1119.05	0.00721
1128.69	0.00648
1138.34	0.00427
1147.99	0.00284
1157.63	0.00377
1167.28	0.00544
1176.92	0.00471
1186.57	0.00295
1196.22	0.00294
1205.86	0.00321
1215.51	0.00334
1225.16	0.00479
1234.8	0.00611
1244.45	0.00648
1254.1	0.0092
1263.74	0.00838
1273.39	0.00422
1283.04	0.00344
1292.68	0.00419
1302.33	0.00294
1311.98	0.0016352
1321.62	0.0016222
1331.27	0.00249
1340.92	0.0048
1350.56	0.00477
1360.21	0.00239
1369.86	0.0014996
1379.5	0.0014806
1389.15	0.0015416
1398.79	0.0016057
1408.44	0.0015342
1418.09	0.0016187
1427.73	0.0019193
1437.38	0.00365
1447.03	0.00577
1456.67	0.00433
1466.32	0.0019747
1475.97	0.0012304
1485.61	0.001199
1495.26	0.0012318
1504.91	0.001256
1514.55	0.0012122
1524.2	0.001193
1533.85	0.001043
1543.49	0.001056
1553.14	0.001135
1562.79	0.00130023
1572.43	0.00139024
1582.08	0.0015313
1591.73	0.0017701
1601.37	0.00251
1611.02	0.00272
1620.67	0.0020283
1630.31	0.0016048
1639.96	0.0016605
1649.6	0.00195
1659.25	0.00251
1668.9	0.00282
1678.54	0.0021713
1688.19	0.0018339
1697.84	0.0018572
1707.48	0.0018693
1717.13	0.0019438
1726.78	0.0021419
1736.42	0.00257
1746.07	0.00346
1755.72	0.00462
1765.36	0.00587
1775.01	0.00776
1784.66	0.01154
1794.3	0.02215
1803.95	0.0515
1813.6	0.0937
1823.24	0.1025
1832.89	0.06636
1842.54	0.03036
1852.18	0.01284
1861.83	0.00714
1871.47	0.00537
1881.12	0.00425
1890.77	0.00327
1900.41	0.0028
1910.06	0.00277
1919.71	0.00258
1929.35	0.00242
1939	0.002295
1948.65	0.0022491
1958.29	0.0020368
1967.94	0.0018783
1977.59	0.0018698
1987.23	0.0018502
1996.88	0.0017655
2006.53	0.0016457
2016.17	0.0015948
2025.82	0.0015497
2035.47	0.0015444
2045.11	0.0015013
2054.76	0.0014985
2064.41	0.0014377
2074.05	0.0014192
2083.7	0.0013081
2093.35	0.0013487
2102.99	0.00130672
2112.64	0.00137547
2122.28	0.001591
2131.93	0.0018268
2141.58	0.0022399
2151.22	0.0022629
2160.87	0.0021302
2170.52	0.0016903
2180.16	0.00119
2189.81	0.001096
2199.46	0.001068
2209.1	0.0012186
2218.75	0.00138189
2228.4	0.00135335
2238.04	0.0012107
2247.69	0.001138
2257.34	0.001063
2266.98	0.00112
2276.63	0.001068
2286.28	0.001012
2295.92	0.001063
2305.57	0.001121
2315.22	0.001162
2324.86	0.001114
2334.51	0.001066
2344.16	0.001058
2353.8	0.001107
2363.45	0.0012267
2373.09	0.001147
2382.74	0.001051
2392.39	0.000901
2402.03	0.000905
2411.68	0.000856
2421.33	0.000859
2430.97	0.000849
2440.62	0.000902
2450.27	0.000862
2459.91	0.000746
2469.56	0.00079
2479.21	0.000768
2488.85	0.000674
2498.5	0.000684
2508.15	0.000639
2517.79	0.000621
2527.44	0.000625
2537.09	0.000525
2546.73	0.000544
2556.38	0.000596
2566.03	0.000667
2575.67	0.000692
2585.32	0.000671
2594.96	0.000605
2604.61	0.000523
2614.26	0.000469
2623.9	0.000523
2633.55	0.000546
2643.2	0.000506
2652.84	0.000366
2662.49	0.000457
2672.14	0.000524
2681.78	0.00044
2691.43	0.000531
2701.08	0.00042
2710.72	0.000457
2720.37	0.000431
2730.02	0.00042
2739.66	0.000379
2749.31	0.00041
2758.96	0.000384
2768.6	0.00025
2778.25	0.00039
2787.9	0.000507
2797.54	0.000577
2807.19	0.000512
2816.84	0.000615
2826.48	0.000737
2836.13	0.000864
2845.77	0.0016081
2855.42	0.00495
2865.07	0.00903
2874.71	0.00722
2884.36	0.00294
2894.01	0.0018295
2903.65	0.0018833
2913.3	0.00477
2922.95	0.01438
2932.59	0.01965
2942.24	0.01309
2951.89	0.00521
2961.53	0.00411
2971.18	0.00951
2980.83	0.0119
2990.47	0.00603
3000.12	0.00135338
3009.77	0.000475
3019.41	0.000399
3029.06	0.000381
3038.71	0.000564
3048.35	0.00138214
3058	0.00475
3067.64	0.00892
3077.29	0.00855
3086.94	0.00416
3096.58	0.0012719
3106.23	0.000346
3115.88	0.000415
3125.52	0.00022
3135.17	0.00019
3144.82	0.0001
3154.46	0.00011
3164.11	0.00022
3173.76	0.000366
3183.4	0.00016
3193.05	0.0003
3202.7	0.000617
3212.34	0.00058
3221.99	0.00035
3231.64	0.00026
3241.28	9e-05
3250.93	0.000342
3260.58	0.000377
3270.22	0.0003
3279.87	0.000391
3289.52	0.000508
3299.16	0.00042
3308.81	0.000627
3318.45	0.000435
3328.1	0.000405
3337.75	0.000428
3347.39	0.000313
3357.04	0.000504
3366.69	0.00063
3376.33	0.000552
3385.98	0.000531
3395.63	0.000719
3405.27	0.000608
3414.92	0.000637
3424.57	0.000549
3434.21	0.000687
3443.86	0.000614
3453.51	0.00073
3463.15	0.000593
3472.8	0.000651
3482.45	0.000728
3492.09	0.000683
3501.74	0.000737
3511.39	0.000782
3521.03	0.000969
3530.68	0.000716
3540.33	0.000898
3549.97	0.001009
3559.62	0.000896
3569.26	0.000944
3578.91	0.001083
3588.56	0.00132669
3598.2	0.0017042
3607.85	0.0023086
3617.5	0.00267
3627.14	0.0026
3636.79	0.001881
3646.44	0.0014858
3656.08	0.0012674
3665.73	0.001002
3675.38	0.001068
3685.02	0.001036
3694.67	0.001112
3704.32	0.001012
3713.96	0.000963
3723.61	0.00092
3733.26	0.000883
3742.9	0.001002
3752.55	0.00107
3762.2	0.00101
3771.84	0.000877
3781.49	0.000971
3791.13	0.000906
3800.78	0.001077
3810.43	0.001174
3820.07	0.00137068
3829.72	0.00138309
3839.37	0.0014502
3849.01	0.00135193
3858.66	0.001139
3868.31	0.000996
3877.95	0.000954
3887.6	0.000997
3897.25	0.000896
3906.89	0.000896
3916.54	0.000987
3926.19	0.000933
3935.83	0.000876
3945.48	0.000825
3955.13	0.00089
3964.77	0.000939
3974.42	0.000834
3984.07	0.001026
3993.71	0.000881
