Infrared Spectrum: Benzopyran-3-carboxylic acid, 2H-1-, 2-oxo
Formula: C10 H6 O4
CAS: 531-81-7
State: SOLID (OIL MULL)
Class: COBLENTZ III
Instrument: CARY 90 (GRATING)
Instrument parameters: GRATING CHANGES: 3000, 2000, 1200 CM^-^1
Sampling: TRANSMISSION
Resolution: 2
Origin: WESTERN REGIONAL RES. USDA
1/CM	TRANSMITTANCE
445	0.9983
454	0.9654
463	0.4307
472	0.4786
481	0.9786
490	1.0008
499	1.0201
508	1.0303
517	1.0341
526	1.0372
535	1.0336
544	1.0319
553	1.0274
562	1.0145
571	0.772
580	0.947
589	0.787
598	1.0198
607	1.0143
616	1.0095
625	0.9946
634	0.9851
643	0.5162
652	0.9772
661	0.9766
670	0.9839
679	0.9825
688	0.977
697	0.9465
706	0.9345
715	0.9058
724	0.9265
733	0.9173
742	0.442
751	0.8897
760	0.6579
769	0.0383
778	0.525
787	0.8926
796	0.7878
805	0.3839
814	0.5498
823	0.4015
832	0.2803
841	0.5633
850	0.7641
859	0.8565
868	0.8751
877	0.7584
886	0.9054
895	0.922
904	0.9217
913	0.9116
922	0.6227
931	0.8734
940	0.8909
949	0.9127
958	0.8628
967	0.9038
976	0.886
985	0.5298
994	0.8041
1003	0.8694
1012	0.8492
1021	0.8192
1030	0.7791
1039	0.2009
1048	0.6826
1057	0.8849
1066	0.8795
1075	0.878
1084	0.8755
1093	0.8656
1102	0.8785
1111	0.8595
1120	0.6435
1129	0.8587
1138	0.8304
1147	0.8063
1156	0.7808
1165	0.5749
1174	0.7808
1183	0.7521
1192	0.6662
1201	0.382
1210	0.1272
1219	0.4198
1228	0.0661
1237	0.6195
1246	0.5829
1255	0.8123
1264	0.8411
1273	0.8018
1282	0.7941
1291	0.7513
1300	0.6039
1309	0.8078
1318	0.7893
1327	0.7444
1336	0.7476
1345	0.7011
1354	0.6177
1363	0.423
1372	0.1164
1381	0.4493
1390	0.494
1399	0.2844
1408	0.2301
1417	0.0178
1426	0.017
1435	0.1823
1444	0.3288
1453	0.1894
1462	0.3203
1471	0.4957
1480	0.6336
1489	0.3813
1498	0.5167
1507	0.5719
1516	0.6352
1525	0.5868
1534	0.5397
1543	0.5014
1552	0.3439
1561	0.0874
1570	0.0992
1579	0.5182
1588	0.2682
1597	0.0994
1606	0.0209
1615	0.0151
1624	0.3324
1633	0.526
1642	0.4314
1651	0.2818
1660	0.2658
1669	0.0933
1678	0.0101
1687	0.0072
1696	0.0508
1705	0.2947
1714	0.4001
1723	0.3293
1732	0.1214
1741	0.0074
1750	0.0116
1759	0.1155
1768	0.4864
1777	0.6484
1786	0.7044
1795	0.7675
1804	0.8242
1813	0.819
1822	0.8485
1831	0.8515
1840	0.853
1849	0.8649
1858	0.8541
1867	0.8401
1876	0.8423
1885	0.8515
1894	0.8613
1903	0.8757
1912	0.8711
1921	0.8493
1930	0.8544
1939	0.8499
1948	0.8155
1957	0.8301
1966	0.8335
1975	0.8276
1984	0.8345
1993	0.8244
2002	0.8563
2011	0.8763
2020	0.8764
2029	0.8761
2038	0.8744
2047	0.8721
2056	0.8678
2065	0.8602
2074	0.8478
2083	0.8393
2092	0.8613
2101	0.8684
2110	0.8677
2119	0.8627
2128	0.8576
2137	0.8518
2146	0.8465
2155	0.8411
2164	0.8351
2173	0.8284
2182	0.8223
2191	0.8207
2200	0.8244
2209	0.8287
2218	0.8274
2227	0.8248
2236	0.8199
2245	0.8155
2254	0.8112
2263	0.8069
2272	0.8026
2281	0.7978
2290	0.7926
2299	0.7876
2308	0.7853
2317	0.787
2326	0.7886
2335	0.7882
2344	0.7864
2353	0.782
2362	0.7779
2371	0.7803
2380	0.782
2389	0.7807
2398	0.7713
2407	0.7577
2416	0.7493
2425	0.7545
2434	0.757
2443	0.7559
2452	0.7549
2461	0.7538
2470	0.752
2479	0.749
2488	0.7453
2497	0.7406
2506	0.7352
2515	0.7226
2524	0.7168
2533	0.7152
2542	0.7172
2551	0.7176
2560	0.7106
2569	0.7014
2578	0.7012
2587	0.6899
2596	0.6793
2605	0.6726
2614	0.6716
2623	0.6696
2632	0.662
2641	0.651
2650	0.638
2659	0.6243
2668	0.6073
2677	0.6015
2686	0.5929
2695	0.5762
2704	0.5562
2713	0.5432
2722	0.5411
2731	0.5392
2740	0.5287
2749	0.5097
2758	0.4944
2767	0.4718
2776	0.4362
2785	0.4121
2794	0.4337
2803	0.4214
2812	0.4044
2821	0.4073
2830	0.3956
2839	0.261
2848	0.1417
2857	0.079
2866	0.079
2875	0.0845
2884	0.1198
2893	0.111
2902	0.0578
2911	0.0281
2920	0.0169
2929	0.0157
2938	0.0243
2947	0.0257
2956	0.0234
2965	0.0834
2974	0.1372
2983	0.1972
2992	0.2618
3001	0.3195
3010	0.3649
3019	0.3935
3028	0.4059
3037	0.4105
3046	0.4025
3055	0.2673
3064	0.381
3073	0.4322
3082	0.4757
3091	0.48
3100	0.4739
3109	0.4682
3118	0.4701
3127	0.4749
3136	0.4812
3145	0.4862
3154	0.4893
3163	0.484
3172	0.4775
3181	0.4763
3190	0.4869
3199	0.4957
3208	0.5039
3217	0.512
3226	0.5196
3235	0.5266
3244	0.532
3253	0.5352
3262	0.538
3271	0.5399
3280	0.5429
3289	0.5462
3298	0.5486
3307	0.5503
3316	0.5517
3325	0.5517
3334	0.5506
3343	0.5502
3352	0.55
3361	0.5525
3370	0.5552
3379	0.5564
3388	0.5544
3397	0.552
3406	0.5516
3415	0.5518
3424	0.5536
3433	0.5554
3442	0.554
3451	0.5517
3460	0.5483
3469	0.5473
3478	0.5485
3487	0.5504
3496	0.5525
3505	0.5544
3514	0.5545
3523	0.5543
3532	0.5535
3541	0.5526
3550	0.5517
3559	0.5506
3568	0.5491
3577	0.5476
3586	0.5461
3595	0.5445
3604	0.543
3613	0.5414
3622	0.5399
3631	0.5383
3640	0.5367
3649	0.5351
3658	0.5334
3667	0.5316
3676	0.5298
3685	0.5279
3694	0.5261
3703	0.5243
3712	0.5228
3721	0.522
3730	0.5212
3739	0.5201
3748	0.5183
3757	0.5165
3766	0.5145
3775	0.5117
3784	0.5089
3793	0.5061
3802	0.504
3811	0.5017
3820	0.4996
3829	0.4977
3838	0.4958
3847	0.4939
3856	0.492
3865	0.4899
3874	0.4878
3883	0.4857
3892	0.4834
3901	0.4808
3910	0.4782
3919	0.4756
3928	0.4729
3937	0.4695
3946	0.4661
3955	0.4627
3964	0.4597
3973	0.4567
3982	0.4545
3991	0.4522
4000	0.45
