Infrared Spectrum: Acridan, 2-chloro-9-(3-dimethylaminopropyl)-
Formula: C18 H21 Cl N2
CAS: 5310-55-4
State: SOLID (NUJOL MULL)
Class: COBLENTZ III
Instrument: PERKIN-ELMER 21 (GRATING)
Instrument parameters: NaCl PRISM
Sampling: TRANSMISSION
Resolution: 2
Origin: SMITH KLINE & FRENCH LABS.
1/CM	TRANSMITTANCE
669	0.7056
678	0.7083
687	0.7194
696	0.7478
705	0.7702
714	0.7143
723	0.6851
732	0.722
741	0.5621
750	0.4513
759	0.8362
768	0.8797
777	0.8608
786	0.8195
795	0.7645
804	0.6359
813	0.7974
822	0.8591
831	0.8428
840	0.8905
849	0.6896
858	0.8928
867	0.9313
876	0.9249
885	0.8533
894	0.799
903	0.8154
912	0.9113
921	0.8967
930	0.879
939	0.8922
948	0.884
957	0.8102
966	0.7053
975	0.8616
984	0.8975
993	0.9052
1002	0.9026
1011	0.8902
1020	0.8603
1029	0.639
1038	0.8103
1047	0.8132
1056	0.8896
1065	0.8635
1074	0.8216
1083	0.7198
1092	0.7937
1101	0.7991
1110	0.8913
1119	0.8837
1128	0.7971
1137	0.7701
1146	0.7904
1155	0.7507
1164	0.856
1173	0.8541
1182	0.7998
1191	0.8356
1200	0.8413
1209	0.6841
1218	0.7819
1227	0.8344
1236	0.8102
1245	0.7628
1254	0.7207
1263	0.6606
1272	0.6362
1281	0.7172
1290	0.5985
1299	0.5005
1308	0.2622
1317	0.5129
1326	0.7222
1335	0.7826
1344	0.7749
1353	0.7476
1362	0.6716
1371	0.4748
1380	0.6212
1389	0.7724
1398	0.7458
1407	0.7625
1416	0.7637
1425	0.6588
1434	0.4697
1443	0.2799
1452	0.2528
1461	0.2012
1470	0.1972
1479	0.1019
1488	0.1036
1497	0.574
1506	0.658
1515	0.6251
1524	0.7479
1533	0.8788
1542	0.8832
1551	0.8795
1560	0.8613
1569	0.8125
1578	0.6928
1587	0.6628
1596	0.7252
1605	0.7185
1614	0.5714
1623	0.7084
1632	0.8697
1641	0.9157
1650	0.939
1659	0.9455
1668	0.9479
1677	0.9526
1686	0.9566
1695	0.9602
1704	0.959
1713	0.9571
1722	0.9559
1731	0.9554
1740	0.9538
1749	0.9517
1758	0.9449
1767	0.9312
1776	0.9337
1785	0.9498
1794	0.9518
1803	0.9488
1812	0.9462
1821	0.9436
1830	0.9423
1839	0.9426
1848	0.9468
1857	0.9468
1866	0.9453
1875	0.9403
1884	0.933
1893	0.931
1902	0.941
1911	0.9419
1920	0.9415
1929	0.9425
1938	0.9452
1947	0.9474
1956	0.9481
1965	0.9471
1974	0.9429
1983	0.9368
1992	0.9343
2001	0.9324
2010	0.9306
2019	0.9289
2028	0.9273
2037	0.9263
2046	0.9253
2055	0.9245
2064	0.9236
2073	0.9227
2082	0.9218
2091	0.9201
2100	0.9185
2109	0.917
2118	0.9154
2127	0.9138
2136	0.9122
2145	0.9107
2154	0.9091
2163	0.9077
2172	0.9062
2181	0.9047
2190	0.9033
2199	0.9018
2208	0.9004
2217	0.899
2226	0.8975
2235	0.896
2244	0.8945
2253	0.8929
2262	0.8915
2271	0.89
2280	0.8883
2289	0.8867
2298	0.8851
2307	0.8835
2316	0.8819
2325	0.8804
2334	0.8788
2343	0.8771
2352	0.8752
2361	0.8734
2370	0.8717
2379	0.8699
2388	0.868
2397	0.866
2406	0.8641
2415	0.8621
2424	0.8601
2433	0.8577
2442	0.8553
2451	0.8529
2460	0.8506
2469	0.8483
2478	0.8456
2487	0.8425
2496	0.8393
2505	0.8343
2514	0.829
2523	0.8228
2532	0.8165
2541	0.8102
2550	0.8039
2559	0.7974
2568	0.791
2577	0.7847
2586	0.7784
2595	0.7717
2604	0.7646
2613	0.7574
2622	0.7503
2631	0.7433
2640	0.7359
2649	0.7283
2658	0.7208
2667	0.7123
2676	0.7013
2685	0.6904
2694	0.6752
2703	0.654
2712	0.624
2721	0.5542
2730	0.525
2739	0.5002
2748	0.4726
2757	0.4559
2766	0.4549
2775	0.465
2784	0.4226
2793	0.358
2802	0.2938
2811	0.2299
2820	0.1665
2829	0.0883
2838	0.0755
2847	0.073
2856	0.0715
2865	0.0697
2874	0.0553
2883	0.0536
2892	0.0552
2901	0.0614
2910	0.0768
2919	0.1053
2928	0.1298
2937	0.1643
2946	0.2352
2955	0.3064
2964	0.3772
2973	0.4477
2982	0.4981
2991	0.5161
3000	0.531
3009	0.543
3018	0.5524
3027	0.559
3036	0.5633
3045	0.5669
3054	0.5706
3063	0.5755
3072	0.5853
3081	0.5979
3090	0.6072
3099	0.6137
3108	0.6124
3117	0.6084
3126	0.5853
3135	0.5733
3144	0.5645
3153	0.5607
3162	0.5618
3171	0.5699
3180	0.5812
3189	0.5925
3198	0.6005
3207	0.6079
3216	0.6152
3225	0.6245
3234	0.6551
3243	0.6746
3252	0.7163
3261	0.7307
3270	0.758
3279	0.7755
3288	0.7785
3297	0.7797
3306	0.7804
3315	0.7805
3324	0.7805
3333	0.7804
3342	0.7798
3351	0.7792
3360	0.7785
3369	0.7777
3378	0.7769
3387	0.7761
3396	0.7752
3405	0.7745
3414	0.7738
3423	0.7733
3432	0.7726
3441	0.7723
3450	0.7722
3459	0.7721
3468	0.7719
3477	0.7719
3486	0.7718
3495	0.7712
3504	0.7707
3513	0.7702
3522	0.7697
3531	0.7692
3540	0.7686
3549	0.768
3558	0.7673
3567	0.7658
3576	0.7642
3585	0.7626
3594	0.7608
3603	0.7585
3612	0.7562
3621	0.7541
3630	0.7523
3639	0.7505
3648	0.7487
3657	0.7468
3666	0.7454
3675	0.7442
3684	0.743
3693	0.7418
3702	0.7407
3711	0.7401
3720	0.7399
3729	0.7395
3738	0.7392
3747	0.739
3756	0.7368
3765	0.7334
3774	0.7295
3783	0.727
3792	0.7254
3801	0.7248
3810	0.7242
3819	0.7237
3828	0.7233
3837	0.723
3846	0.7227
3855	0.7224
3864	0.722
3873	0.7217
3882	0.7214
3891	0.721
3900	0.7204
3909	0.7197
3918	0.7191
3927	0.7185
3936	0.7179
3945	0.7172
3954	0.7164
3963	0.7152
3972	0.7139
3981	0.7126
3990	0.7111
3999	0.7092
