Infrared Spectrum: 3-PYRIDINEOXAMIC ACID, ETHYL ESTER
Formula: C9 H10 N2 O3
CAS: 53117-17-2
State: SOLID (1 mg / 650 mg KBr DISC)
Class: COBLENTZ III
Instrument: PERKIN-ELMER 221 (GRATING)
Instrument parameters: FILTER AT 980 CM^-^1. GRATING 4000-1428 CM^-^1, NaCl PRISM 1428-650 CM^-^1
Sampling: TRANSMISSION
Resolution: 2
Origin: SOUTHERN RESEARCH INSTITUTE
1/CM	TRANSMITTANCE
251.698	0.183
260.611	0.233
269.525	0.293
278.438	0.342
287.352	0.415
296.265	0.458
305.179	0.501
314.092	0.508
323.005	0.498
331.919	0.551
340.832	0.576
349.746	0.648
358.659	0.691
367.572	0.714
376.486	0.734
385.399	0.763
394.313	0.747
403.226	0.706
412.14	0.766
421.053	0.791
429.966	0.796
438.88	0.798
447.793	0.809
456.707	0.811
465.62	0.805
474.534	0.777
483.447	0.661
492.36	0.734
501.274	0.829
510.187	0.844
519.101	0.829
528.014	0.825
536.927	0.801
545.841	0.621
554.754	0.743
563.668	0.829
572.581	0.844
581.495	0.84
590.408	0.826
599.321	0.841
608.235	0.838
617.148	0.825
626.062	0.762
634.975	0.806
643.889	0.823
652.802	0.797
661.715	0.759
670.629	0.628
679.542	0.522
688.456	0.767
697.369	0.78
706.283	0.493
715.196	0.745
724.109	0.86
733.023	0.879
741.936	0.89
750.85	0.891
759.763	0.884
768.676	0.872
777.59	0.809
786.503	0.858
795.417	0.793
804.33	0.471
813.244	0.806
822.157	0.879
831.07	0.89
839.984	0.869
848.897	0.733
857.811	0.881
866.724	0.852
875.638	0.859
884.551	0.896
893.464	0.897
902.378	0.892
911.291	0.874
920.205	0.843
929.118	0.816
938.031	0.811
946.945	0.73
955.858	0.878
964.772	0.878
973.685	0.865
982.599	0.857
991.512	0.847
1000.43	0.809
1009.34	0.726
1018.25	0.544
1027.17	0.749
1036.08	0.807
1044.99	0.853
1053.91	0.859
1062.82	0.859
1071.73	0.855
1080.65	0.85
1089.56	0.841
1098.47	0.817
1107.39	0.767
1116.3	0.759
1125.21	0.778
1134.13	0.821
1143.04	0.79
1151.95	0.7
1160.87	0.668
1169.78	0.534
1178.69	0.592
1187.61	0.563
1196.52	0.662
1205.43	0.795
1214.35	0.791
1223.26	0.828
1232.17	0.804
1241.09	0.811
1250	0.777
1258.91	0.734
1267.83	0.678
1276.74	0.572
1285.65	0.481
1294.57	0.342
1303.48	0.217
1312.4	0.413
1321.31	0.733
1330.22	0.783
1339.14	0.781
1348.05	0.823
1356.96	0.793
1365.88	0.481
1374.79	0.724
1383.7	0.805
1392.62	0.8
1401.53	0.809
1410.44	0.6
1419.36	0.667
1428.27	0.792
1437.18	0.815
1446.1	0.811
1455.01	0.777
1463.92	0.676
1472.84	0.623
1481.75	0.438
1490.66	0.804
1499.58	0.847
1508.49	0.816
1517.4	0.721
1526.32	0.649
1535.23	0.542
1544.14	0.474
1553.06	0.273
1561.97	0.734
1570.88	0.79
1579.8	0.776
1588.71	0.64
1597.62	0.332
1606.54	0.814
1615.45	0.805
1624.36	0.795
1633.28	0.786
1642.19	0.772
1651.11	0.716
1660.02	0.706
1668.93	0.632
1677.85	0.415
1686.76	0.126
1695.67	0.174
1704.59	0.203
1713.5	0.314
1722.41	0.388
1731.33	0.206
1740.24	0.568
1749.15	0.692
1758.07	0.771
1766.98	0.825
1775.89	0.86
1784.81	0.876
1793.72	0.886
1802.63	0.893
1811.55	0.898
1820.46	0.905
1829.37	0.908
1838.29	0.911
1847.2	0.912
1856.11	0.912
1865.03	0.905
1873.94	0.908
1882.85	0.914
1891.77	0.915
1900.68	0.915
1909.59	0.917
1918.51	0.917
1927.42	0.91
1936.33	0.924
1945.25	0.924
1954.16	0.917
1963.07	0.919
1971.99	0.926
1980.9	0.926
1989.82	0.929
1998.73	0.93
2007.64	0.927
2016.56	0.927
2025.47	0.925
2034.38	0.929
2043.3	0.927
2052.21	0.925
2061.12	0.924
2070.04	0.924
2078.95	0.924
2087.86	0.924
2096.78	0.922
2105.69	0.922
2114.6	0.922
2123.52	0.922
2132.43	0.921
2141.34	0.921
2150.26	0.921
2159.17	0.921
2168.08	0.922
2177	0.922
2185.91	0.922
2194.82	0.922
2203.74	0.921
2212.65	0.92
2221.56	0.92
2230.48	0.92
2239.39	0.92
2248.3	0.92
2257.22	0.92
2266.13	0.917
2275.04	0.917
2283.96	0.917
2292.87	0.917
2301.78	0.917
2310.7	0.917
2319.61	0.917
2328.53	0.917
2337.44	0.916
2346.35	0.915
2355.27	0.914
2364.18	0.914
2373.09	0.912
2382.01	0.911
2390.92	0.911
2399.83	0.911
2408.75	0.911
2417.66	0.911
2426.57	0.911
2435.49	0.911
2444.4	0.91
2453.31	0.908
2462.23	0.89
2471.14	0.907
2480.05	0.901
2488.97	0.901
2497.88	0.902
2506.79	0.901
2515.71	0.9
2524.62	0.901
2533.53	0.901
2542.45	0.9
2551.36	0.898
2560.27	0.896
2569.19	0.893
2578.1	0.893
2587.01	0.893
2595.93	0.893
2604.84	0.893
2613.75	0.892
2622.67	0.892
2631.58	0.891
2640.5	0.891
2649.41	0.891
2658.32	0.891
2667.24	0.892
2676.15	0.891
2685.06	0.89
2693.98	0.884
2702.89	0.883
2711.8	0.882
2720.72	0.882
2729.63	0.882
2738.54	0.882
2747.46	0.882
2756.37	0.881
2765.28	0.878
2774.2	0.876
2783.11	0.876
2792.02	0.876
2800.94	0.873
2809.85	0.869
2818.76	0.865
2827.68	0.863
2836.59	0.853
2845.5	0.843
2854.42	0.834
2863.33	0.824
2872.24	0.825
2881.16	0.831
2890.07	0.82
2898.98	0.791
2907.9	0.78
2916.81	0.777
2925.72	0.769
2934.64	0.776
2943.55	0.802
2952.46	0.807
2961.38	0.782
2970.29	0.768
2979.21	0.75
2988.12	0.787
2997.03	0.787
3005.95	0.833
3014.86	0.84
3023.77	0.833
3032.69	0.823
3041.6	0.814
3050.51	0.791
3059.43	0.821
3068.34	0.829
3077.25	0.829
3086.17	0.825
3095.08	0.81
3103.99	0.792
3112.91	0.809
3121.82	0.807
3130.73	0.821
3139.65	0.839
3148.56	0.831
3157.47	0.816
3166.39	0.811
3175.3	0.81
3184.21	0.807
3193.13	0.805
3202.04	0.798
3210.95	0.792
3219.87	0.785
3228.78	0.776
3237.69	0.771
3246.61	0.762
3255.52	0.753
3264.43	0.738
3273.35	0.723
3282.26	0.723
3291.17	0.718
3300.09	0.694
3309	0.635
3317.92	0.544
3326.83	0.412
3335.74	0.31
3344.66	0.575
3353.57	0.7
3362.48	0.711
3371.4	0.713
3380.31	0.714
3389.22	0.715
3398.14	0.715
3407.05	0.714
3415.96	0.715
3424.88	0.714
3433.79	0.715
3442.7	0.714
3451.62	0.72
3460.53	0.726
3469.44	0.73
3478.36	0.735
3487.27	0.738
3496.18	0.742
3505.1	0.748
3514.01	0.754
3522.92	0.761
3531.84	0.769
3540.75	0.778
3549.66	0.783
3558.58	0.791
3567.49	0.8
3576.4	0.804
3585.32	0.81
3594.23	0.816
3603.14	0.825
3612.06	0.833
3620.97	0.841
3629.88	0.847
3638.8	0.85
3647.71	0.853
3656.63	0.854
3665.54	0.854
3674.45	0.852
3683.37	0.855
3692.28	0.859
3701.19	0.863
3710.11	0.864
3719.02	0.864
3727.93	0.864
3736.85	0.864
3745.76	0.864
3754.67	0.864
3763.59	0.864
3772.5	0.864
3781.41	0.864
3790.33	0.864
3799.24	0.864
3808.15	0.864
