Infrared Spectrum: 1-BUTEN-3-ONE, 1-(BENZYLAMINO)-
Formula: C11 H13 N O
CAS: 53133-41-8
State: LIQUID (NEAT)
Class: COBLENTZ III
Instrument: PERKIN-ELMER 521 (GRATING)
Sampling: TRANSMISSION
Path length: CAPILLARY
Resolution: 4
Origin: STANDARD OIL OF OHIO
1/CM	TRANSMITTANCE
367.839	0.686
377.889	0.719
387.94	0.744
397.99	0.768
408.04	0.775
418.09	0.784
428.141	0.818
438.191	0.834
448.241	0.83
458.292	0.761
468.342	0.761
478.392	0.774
488.442	0.825
498.493	0.854
508.543	0.834
518.593	0.786
528.643	0.81
538.694	0.843
548.744	0.843
558.794	0.829
568.845	0.79
578.895	0.788
588.945	0.697
598.995	0.741
609.046	0.75
619.096	0.775
629.146	0.781
639.197	0.778
649.247	0.759
659.297	0.77
669.347	0.739
679.398	0.689
689.448	0.422
699.498	0.406
709.549	0.438
719.599	0.431
729.649	0.289
739.699	0.332
749.75	0.409
759.8	0.575
769.85	0.647
779.9	0.68
789.951	0.709
800.001	0.697
810.051	0.711
820.102	0.77
830.152	0.799
840.202	0.796
850.252	0.825
860.303	0.85
870.353	0.844
880.403	0.838
890.454	0.833
900.504	0.804
910.554	0.796
920.604	0.785
930.655	0.721
940.705	0.681
950.755	0.553
960.805	0.496
970.856	0.441
980.906	0.489
990.956	0.563
1001.01	0.583
1011.06	0.637
1021.11	0.601
1031.16	0.671
1041.21	0.761
1051.26	0.771
1061.31	0.756
1071.36	0.714
1081.41	0.711
1091.46	0.775
1101.51	0.779
1111.56	0.781
1121.61	0.789
1131.66	0.754
1141.71	0.687
1151.76	0.494
1161.81	0.399
1171.86	0.467
1181.91	0.528
1191.96	0.378
1202.01	0.281
1212.06	0.422
1222.11	0.363
1232.16	0.283
1242.21	0.284
1252.26	0.224
1262.31	0.229
1272.36	0.191
1282.41	0.195
1292.46	0.238
1302.52	0.358
1312.57	0.409
1322.62	0.408
1332.67	0.437
1342.72	0.408
1352.77	0.333
1362.82	0.353
1372.87	0.35
1382.92	0.427
1392.97	0.508
1403.02	0.582
1413.07	0.571
1423.12	0.507
1433.17	0.442
1443.22	0.357
1453.27	0.251
1463.32	0.456
1473.37	0.374
1483.42	0.135
1493.47	0.165
1503.52	0.339
1513.57	0.318
1523.62	0.254
1533.67	0.187
1543.72	0.132
1553.77	0.091
1563.82	0.062
1573.87	0.062
1583.92	0.104
1593.97	0.127
1604.02	0.152
1614.07	0.162
1624.12	0.165
1634.17	0.085
1644.22	0.047
1654.27	0.184
1664.33	0.32
1674.38	0.575
1684.43	0.706
1694.48	0.764
1704.53	0.793
1714.58	0.814
1724.63	0.825
1734.68	0.833
1744.73	0.835
1754.78	0.838
1764.83	0.842
1774.88	0.845
1784.93	0.852
1794.98	0.852
1805.03	0.843
1815.08	0.848
1825.13	0.853
1835.18	0.859
1845.23	0.859
1855.28	0.854
1865.33	0.853
1875.38	0.853
1885.43	0.854
1895.48	0.86
1905.53	0.864
1915.58	0.864
1925.63	0.863
1935.68	0.86
1945.73	0.85
1955.78	0.842
1965.83	0.845
1975.88	0.859
1985.93	0.867
1995.98	0.872
2006.03	0.878
2016.08	0.88
2026.14	0.882
2036.19	0.882
2046.24	0.882
2056.29	0.88
2066.34	0.879
2076.39	0.878
2086.44	0.879
2096.49	0.88
2106.54	0.879
2116.59	0.878
2126.64	0.878
2136.69	0.878
2146.74	0.877
2156.79	0.874
2166.84	0.874
2176.89	0.875
2186.94	0.877
2196.99	0.878
2207.04	0.879
2217.09	0.879
2227.14	0.877
2237.19	0.875
2247.24	0.874
2257.29	0.875
2267.34	0.878
2277.39	0.878
2287.44	0.875
2297.49	0.877
2307.54	0.87
2317.59	0.865
2327.64	0.864
2337.69	0.863
2347.74	0.862
2357.79	0.859
2367.84	0.862
2377.89	0.869
2387.95	0.872
2398	0.873
2408.05	0.872
2418.1	0.873
2428.15	0.872
2438.2	0.869
2448.25	0.869
2458.3	0.87
2468.35	0.872
2478.4	0.87
2488.45	0.863
2498.5	0.862
2508.55	0.858
2518.6	0.857
2528.65	0.862
2538.7	0.863
2548.75	0.86
2558.8	0.863
2568.85	0.862
2578.9	0.859
2588.95	0.859
2599	0.857
2609.05	0.858
2619.1	0.858
2629.15	0.855
2639.2	0.855
2649.25	0.855
2659.3	0.854
2669.35	0.853
2679.4	0.853
2689.45	0.85
2699.5	0.848
2709.55	0.845
2719.6	0.843
2729.65	0.843
2739.7	0.839
2749.76	0.835
2759.81	0.83
2769.86	0.825
2779.91	0.817
2789.96	0.809
2800.01	0.805
2810.06	0.804
2820.11	0.799
2830.16	0.786
2840.21	0.769
2850.26	0.744
2860.31	0.718
2870.36	0.724
2880.41	0.741
2890.46	0.735
2900.51	0.709
2910.56	0.666
2920.61	0.637
2930.66	0.665
2940.71	0.676
2950.76	0.68
2960.81	0.677
2970.86	0.675
2980.91	0.664
2990.96	0.644
3001.01	0.6161
3011.06	0.592
3021.11	0.545
3031.16	0.473
3041.21	0.5219
3051.26	0.532
3061.31	0.518
3071.36	0.58
3081.41	0.622
3091.46	0.659
3101.52	0.682
3111.57	0.692
3121.62	0.699
3131.67	0.713
3141.72	0.709
3151.77	0.699
3161.82	0.69
3171.87	0.671
3181.92	0.641
3191.97	0.615
3202.02	0.586
3212.07	0.557
3222.12	0.536
3232.17	0.501
3242.22	0.467
3252.27	0.449
3262.32	0.447
3272.37	0.452
3282.42	0.461
3292.47	0.472
3302.52	0.5
3312.57	0.53
3322.62	0.565
3332.67	0.597
3342.72	0.627
3352.77	0.655
3362.82	0.679
3372.87	0.705
3382.92	0.728
3392.97	0.744
3403.02	0.758
3413.07	0.774
3423.12	0.791
3433.17	0.808
3443.22	0.827
3453.27	0.842
3463.33	0.852
3473.38	0.859
3483.43	0.863
3493.48	0.864
3503.53	0.865
3513.58	0.865
3523.63	0.864
3533.68	0.865
3543.73	0.867
3553.78	0.867
3563.83	0.868
3573.88	0.868
3583.93	0.868
3593.98	0.868
3604.03	0.868
3614.08	0.867
3624.13	0.865
3634.18	0.867
3644.23	0.865
3654.28	0.864
3664.33	0.865
3674.38	0.868
3684.43	0.869
3694.48	0.87
3704.53	0.869
3714.58	0.868
3724.63	0.865
3734.68	0.867
3744.73	0.864
3754.78	0.869
3764.83	0.869
3774.88	0.869
3784.93	0.869
3794.98	0.867
3805.03	0.867
3815.08	0.865
3825.14	0.867
3835.19	0.864
3845.24	0.865
3855.29	0.864
3865.34	0.863
3875.39	0.865
3885.44	0.863
3895.49	0.863
3905.54	0.865
3915.59	0.865
3925.64	0.864
3935.69	0.865
3945.74	0.865
3955.79	0.865
3965.84	0.864
3975.89	0.863
3985.94	0.862
3995.99	0.86
