Infrared Spectrum: 2-AMINO-5-METHYL THIO-1,3,4-THIADIAZOLE
Formula: C3 H5 N3 S2
CAS: 5319-77-7
State: SOLID (PELLET)
Class: COBLENTZ
Instrument: Not specified, most likely a prism, grating, or hybrid spectrometer.
Sampling: TRANSMISSION
Resolution: 4
Origin: TENNESSEE EASTMAN COMPANY, RESEARCH LABORATORIES
MICROMETERS	TRANSMITTANCE
2	0.92
2.0399	0.923
2.07979	0.925
2.11969	0.928
2.15959	0.93
2.19949	0.938
2.23938	0.943
2.27928	0.95
2.31918	0.953
2.35907	0.953
2.39897	0.953
2.43887	0.953
2.47877	0.953
2.51866	0.95
2.55856	0.95
2.59846	0.95
2.63835	0.951
2.67825	0.951
2.71815	0.945
2.75805	0.89
2.79794	0.835
2.83784	0.8
2.87774	0.761
2.91763	0.674
2.95753	0.467
2.99743	0.258
3.03733	0.17
3.07722	0.223
3.11712	0.369
3.15702	0.344
3.19691	0.205
3.23681	0.213
3.27671	0.441
3.31661	0.583
3.3565	0.595
3.3964	0.641
3.4363	0.822
3.47619	0.84
3.51609	0.862
3.55599	0.878
3.59589	0.812
3.63578	0.917
3.67568	0.938
3.71558	0.94
3.75547	0.912
3.79537	0.923
3.83527	0.961
3.87517	0.963
3.91506	0.963
3.95496	0.965
3.99486	0.97
4.03475	0.968
4.07465	0.97
4.11455	0.97
4.15445	0.97
4.19434	0.968
4.23424	0.965
4.27414	0.953
4.31403	0.951
4.35393	0.953
4.39383	0.958
4.43373	0.97
4.47362	0.975
4.51352	0.983
4.55342	0.981
4.59331	0.981
4.63321	0.99
4.67311	0.991
4.71301	0.991
4.7529	0.99
4.7928	0.991
4.8327	0.988
4.87259	0.986
4.91249	0.986
4.95239	0.99
4.99229	0.996
5.03218	0.998
5.07208	0.991
5.11198	0.986
5.15187	0.986
5.19177	0.985
5.23167	0.983
5.27157	0.981
5.31146	0.981
5.35136	0.981
5.39126	0.981
5.43115	0.981
5.47105	0.976
5.51095	0.978
5.55085	0.975
5.59074	0.973
5.63064	0.965
5.67054	0.963
5.71043	0.961
5.75033	0.955
5.79023	0.953
5.83013	0.935
5.87002	0.93
5.90992	0.923
5.94982	0.913
5.98971	0.888
6.02961	0.834
6.06951	0.681
6.10941	0.373
6.1493	0.343
6.1892	0.694
6.2291	0.809
6.26899	0.842
6.30889	0.854
6.34879	0.844
6.38869	0.789
6.42858	0.64
6.46848	0.268
6.50838	0.063
6.54827	0.087
6.58817	0.364
6.62807	0.63
6.66797	0.754
6.70786	0.81
6.74776	0.834
6.78766	0.849
6.82755	0.85
6.86745	0.817
6.90735	0.699
6.94725	0.464
6.98714	0.47
7.02704	0.469
7.06694	0.805
7.10683	0.849
7.14673	0.85
7.18663	0.847
7.22653	0.804
7.26642	0.756
7.30632	0.752
7.34622	0.787
7.38611	0.8
7.42601	0.786
7.46591	0.684
7.50581	0.595
7.5457	0.621
7.5856	0.673
7.6255	0.691
7.66539	0.776
7.70529	0.805
7.74519	0.822
7.78509	0.834
7.82498	0.84
7.86488	0.842
7.90478	0.844
7.94467	0.844
7.98457	0.849
8.02447	0.847
8.06437	0.847
8.10426	0.847
8.14416	0.845
8.18406	0.844
8.22395	0.844
8.26385	0.835
8.30375	0.822
8.34365	0.817
8.38354	0.819
8.42344	0.82
8.46334	0.815
8.50323	0.812
8.54313	0.81
8.58303	0.805
8.62293	0.799
8.66282	0.779
8.70272	0.749
8.74262	0.737
8.78251	0.766
8.82241	0.777
8.86231	0.782
8.90221	0.786
8.9421	0.786
8.982	0.779
9.0219	0.771
9.06179	0.762
9.10169	0.752
9.14159	0.736
9.18149	0.704
9.22138	0.645
9.26128	0.565
9.30118	0.543
9.34107	0.548
9.38097	0.545
9.42087	0.51
9.46077	0.467
9.50066	0.432
9.54056	0.434
9.58046	0.464
9.62035	0.469
9.66025	0.529
9.70015	0.666
9.74005	0.756
9.77994	0.799
9.81984	0.835
9.85974	0.85
9.89963	0.864
9.93953	0.872
9.97943	0.88
10.0193	0.882
10.0592	0.885
10.0991	0.885
10.139	0.842
10.1789	0.766
10.2188	0.59
10.2587	0.59
10.2986	0.771
10.3385	0.81
10.3784	0.794
10.4183	0.812
10.4582	0.872
10.4981	0.902
10.538	0.91
10.5779	0.917
10.6178	0.927
10.6577	0.936
10.6976	0.943
10.7375	0.945
10.7774	0.946
10.8173	0.951
10.8572	0.956
10.8971	0.96
10.937	0.963
10.9769	0.965
11.0168	0.963
11.0567	0.961
11.0965	0.961
11.1364	0.961
11.1763	0.961
11.2162	0.961
11.2561	0.961
11.296	0.963
11.3359	0.965
11.3758	0.965
11.4157	0.966
11.4556	0.966
11.4955	0.968
11.5354	0.97
11.5753	0.97
11.6152	0.971
11.6551	0.971
11.695	0.97
11.7349	0.971
11.7748	0.971
11.8147	0.971
11.8546	0.971
11.8945	0.971
11.9344	0.971
11.9743	0.971
12.0142	0.971
12.0541	0.975
12.094	0.975
12.1339	0.973
12.1738	0.975
12.2137	0.971
12.2536	0.971
12.2935	0.975
12.3334	0.975
12.3733	0.975
12.4132	0.975
12.4531	0.975
12.4929	0.973
12.5328	0.971
12.5727	0.971
12.6126	0.971
12.6525	0.973
12.6924	0.971
12.7323	0.971
12.7722	0.966
12.8121	0.95
12.852	0.913
12.8919	0.89
12.9318	0.854
12.9717	0.845
13.0116	0.857
13.0515	0.882
13.0914	0.902
13.1313	0.91
13.1712	0.922
13.2111	0.927
13.251	0.925
13.2909	0.925
13.3308	0.925
13.3707	0.925
13.4106	0.927
13.4505	0.927
13.4904	0.927
13.5303	0.927
13.5702	0.927
13.6101	0.925
13.65	0.925
13.6899	0.92
13.7298	0.912
13.7697	0.912
13.8096	0.903
13.8495	0.893
13.8893	0.875
13.9292	0.85
13.9691	0.849
14.009	0.85
14.0489	0.849
14.0888	0.85
14.1287	0.85
14.1686	0.85
14.2085	0.849
14.2484	0.84
14.2883	0.824
14.3282	0.81
14.3681	0.792
14.408	0.772
14.4479	0.759
14.4878	0.747
14.5277	0.737
14.5676	0.736
14.6075	0.737
14.6474	0.751
14.6873	0.767
14.7272	0.791
14.7671	0.807
14.807	0.83
14.8469	0.839
14.8868	0.849
14.9267	0.849
14.9666	0.849
15.0065	0.847
15.0464	0.847
15.0863	0.85
15.1262	0.85
15.1661	0.849
15.206	0.85
15.2459	0.849
15.2857	0.844
15.3256	0.835
15.3655	0.825
15.4054	0.815
15.4453	0.807
15.4852	0.799
15.5251	0.789
15.565	0.774
15.6049	0.769
15.6448	0.762
15.6847	0.751
15.7246	0.736
15.7645	0.716
15.8044	0.708
15.8443	0.701
15.8842	0.681
15.9241	0.669
15.964	0.668
