Infrared Spectrum: 2,4-DIAMINO AZO BENZENE HYDROCHLORIDE
Formula: C12 H12 N4  * H Cl
CAS: 532-82-1
State: SOLID (MINERAL OIL MULL)
Class: COBLENTZ
Instrument: Not specified, most likely a prism, grating, or hybrid spectrometer.
Sampling: TRANSMISSION
Resolution: 4
Origin: WYANDOTTE CHEMICALS CORP., WYANDOTTE, MICHIGAN, USA
MICROMETERS	TRANSMITTANCE
2.025	0.234
2.06222	0.248
2.09943	0.23
2.13665	0.242
2.17386	0.227
2.21108	0.258
2.2483	0.245
2.28551	0.255
2.32273	0.268
2.35994	0.276
2.39716	0.273
2.43438	0.292
2.47159	0.299
2.50881	0.296
2.54602	0.304
2.58324	0.318
2.62046	0.349
2.65767	0.35
2.69489	0.353
2.7321	0.377
2.76932	0.361
2.80654	0.364
2.84375	0.352
2.88097	0.307
2.91818	0.344
2.9554	0.353
2.99262	0.313
3.02983	0.151
3.06705	0.162
3.10426	0.188
3.14148	0.177
3.17869	0.119
3.21591	0.071
3.25313	0.095
3.29034	0.109
3.32756	0.08
3.36477	0.044
3.40199	0.051
3.43921	0.074
3.47642	0.064
3.51364	0.14
3.55085	0.233
3.58807	0.262
3.62529	0.275
3.6625	0.279
3.69972	0.312
3.73693	0.329
3.77415	0.358
3.81137	0.366
3.84858	0.377
3.8858	0.398
3.92301	0.409
3.96023	0.428
3.99745	0.431
4.03466	0.438
4.07188	0.449
4.10909	0.44
4.14631	0.455
4.18353	0.466
4.22074	0.466
4.25796	0.483
4.29517	0.51
4.33239	0.54
4.36961	0.537
4.40682	0.527
4.44404	0.53
4.48125	0.539
4.51847	0.547
4.55569	0.542
4.5929	0.547
4.63012	0.565
4.66733	0.568
4.70455	0.579
4.74177	0.587
4.77898	0.599
4.8162	0.604
4.85341	0.61
4.89063	0.613
4.92785	0.635
4.96506	0.638
5.00228	0.639
5.03949	0.663
5.07671	0.666
5.11393	0.67
5.15114	0.681
5.18836	0.686
5.22557	0.68
5.26279	0.704
5.3	0.703
5.33722	0.71
5.37444	0.741
5.41165	0.732
5.44887	0.766
5.48608	0.775
5.5233	0.791
5.56052	0.8
5.59773	0.808
5.63495	0.814
5.67216	0.839
5.70938	0.862
5.7466	0.896
5.78381	0.907
5.82103	0.935
5.85824	0.95
5.89546	0.927
5.93268	0.856
5.96989	0.598
6.00711	0.227
6.04432	0.299
6.08154	0.171
6.11876	0.089
6.15597	0.149
6.19319	0.131
6.2304	0.295
6.26762	0.471
6.30484	0.428
6.34205	0.131
6.37927	0.273
6.41648	0.411
6.4537	0.454
6.49092	0.531
6.52813	0.429
6.56535	0.16
6.60256	0.196
6.63978	0.278
6.677	0.327
6.71421	0.316
6.75143	0.261
6.78864	0.146
6.82586	0.1
6.86308	0.081
6.90029	0.098
6.93751	0.126
6.97472	0.097
7.01194	0.081
7.04916	0.075
7.08637	0.111
7.12359	0.14
7.1608	0.173
7.19802	0.179
7.23524	0.149
7.27245	0.193
7.30967	0.227
7.34688	0.275
7.3841	0.287
7.42131	0.31
7.45853	0.324
7.49575	0.349
7.53296	0.381
7.57018	0.409
7.60739	0.414
7.64461	0.451
7.68183	0.5
7.71904	0.52
7.75626	0.438
7.79347	0.488
7.83069	0.352
7.86791	0.123
7.90512	0.075
7.94234	0.089
7.97955	0.151
8.01677	0.224
8.05399	0.276
8.0912	0.327
8.12842	0.353
8.16563	0.387
8.20285	0.417
8.24007	0.432
8.27728	0.361
8.3145	0.315
8.35171	0.398
8.38893	0.442
8.42615	0.479
8.46336	0.486
8.50058	0.48
8.53779	0.466
8.57501	0.462
8.61223	0.408
8.64944	0.35
8.68666	0.421
8.72387	0.479
8.76109	0.528
8.79831	0.539
8.83552	0.513
8.87274	0.457
8.90995	0.432
8.94717	0.457
8.98439	0.479
9.0216	0.503
9.05882	0.499
9.09603	0.497
9.13325	0.5
9.17047	0.499
9.20768	0.499
9.2449	0.466
9.28211	0.454
9.31933	0.445
9.35655	0.472
9.39376	0.496
9.43098	0.519
9.46819	0.537
9.50541	0.554
9.54262	0.562
9.57984	0.574
9.61706	0.573
9.65427	0.581
9.69149	0.579
9.7287	0.582
9.76592	0.601
9.80314	0.618
9.84035	0.621
9.87757	0.63
9.91478	0.646
9.952	0.646
9.98922	0.636
10.0264	0.619
10.0636	0.636
10.1009	0.649
10.1381	0.656
10.1753	0.659
10.2125	0.638
10.2497	0.652
10.2869	0.659
10.3242	0.652
10.3614	0.663
10.3986	0.666
10.4358	0.669
10.473	0.673
10.5102	0.667
10.5475	0.653
10.5847	0.641
10.6219	0.664
10.6591	0.686
10.6963	0.69
10.7335	0.709
10.7708	0.714
10.808	0.721
10.8452	0.721
10.8824	0.727
10.9196	0.738
10.9568	0.734
10.994	0.735
11.0313	0.71
11.0685	0.638
11.1057	0.55
11.1429	0.622
11.1801	0.646
11.2173	0.574
11.2546	0.525
11.2918	0.599
11.329	0.675
11.3662	0.71
11.4034	0.74
11.4406	0.752
11.4779	0.765
11.5151	0.76
11.5523	0.765
11.5895	0.766
11.6267	0.757
11.6639	0.76
11.7012	0.744
11.7384	0.712
11.7756	0.675
11.8128	0.605
11.85	0.505
11.8872	0.292
11.9244	0.211
11.9617	0.318
11.9989	0.477
12.0361	0.547
12.0733	0.506
12.1105	0.48
12.1477	0.557
12.185	0.656
12.2222	0.697
12.2594	0.658
12.2966	0.601
12.3338	0.545
12.371	0.471
12.4083	0.398
12.4455	0.431
12.4827	0.459
12.5199	0.451
12.5571	0.452
12.5943	0.516
12.6315	0.596
12.6688	0.625
12.706	0.655
12.7432	0.666
12.7804	0.656
12.8176	0.659
12.8548	0.644
12.8921	0.646
12.9293	0.619
12.9665	0.599
13.0037	0.582
13.0409	0.545
13.0781	0.489
13.1154	0.438
13.1526	0.38
13.1898	0.335
13.227	0.315
13.2642	0.272
13.3014	0.238
13.3387	0.247
13.3759	0.307
13.4131	0.401
13.4503	0.455
13.4875	0.452
13.5247	0.417
13.5619	0.363
13.5992	0.335
13.6364	0.397
13.6736	0.476
13.7108	0.522
13.748	0.55
13.7852	0.564
13.8225	0.565
13.8597	0.564
13.8969	0.548
13.9341	0.513
13.9713	0.485
14.0085	0.446
14.0458	0.408
14.083	0.374
14.1202	0.377
14.1574	0.389
14.1946	0.403
14.2318	0.415
14.2691	0.438
14.3063	0.429
14.3435	0.446
14.3807	0.448
14.4179	0.446
14.4551	0.438
14.4923	0.426
14.5296	0.417
14.5668	0.404
14.604	0.378
14.6412	0.336
14.6784	0.309
14.7156	0.276
14.7529	0.281
14.7901	0.285
14.8273	0.299
14.8645	0.304
14.9017	0.309
14.9389	0.327
14.9762	0.313
15.0134	0.316
15.0506	0.321
15.0878	0.315
15.125	0.319
15.1622	0.338
15.1995	0.353
15.2367	0.357
15.2739	0.366
15.3111	0.372
15.3483	0.397
15.3855	0.386
15.4227	0.387
15.46	0.412
15.4972	0.4
15.5344	0.401
15.5716	0.408
15.6088	0.395
15.646	0.384
15.6833	0.386
15.7205	0.398
15.7577	0.403
15.7949	0.397
15.8321	0.386
15.8693	0.374
15.9066	0.375
15.9438	0.36
15.981	0.36
