Infrared Spectrum: Benzoylisothiocyanate
Formula: C 8 H 5 N O S
CAS: 532-55-8
State: gas
Origin: EPA-IR VAPOR PHASE LIBRARY
1/CM	ABSORBANCE
551.7	0.00308
563.274	0.00345
574.848	0.00294
586.421	0.00287
597.995	0.00373
609.569	0.00703
621.143	0.01274
632.717	0.02292
644.291	0.04342
655.864	0.06064
667.438	0.08318
679.012	0.09657
690.586	0.12489
702.16	0.11727
713.734	0.04816
725.307	0.0173
736.881	0.00905
748.455	0.00604
760.029	0.00556
771.603	0.0067
783.177	0.00944
794.75	0.01103
806.324	0.00877
817.898	0.01077
829.472	0.02798
841.046	0.08293
852.619	0.13471
864.193	0.15725
875.767	0.11012
887.341	0.04744
898.915	0.03231
910.489	0.03044
922.062	0.02806
933.636	0.02464
945.21	0.02252
956.784	0.02256
968.358	0.0246
979.932	0.02094
991.505	0.01697
1003.08	0.01742
1014.65	0.01683
1026.23	0.02131
1037.8	0.01356
1049.37	0.023
1060.95	0.04771
1072.52	0.07281
1084.1	0.08524
1095.67	0.04647
1107.24	0.01981
1118.82	0.01245
1130.39	0.01048
1141.97	0.01105
1153.54	0.01506
1165.11	0.02738
1176.69	0.09212
1188.26	0.05523
1199.83	0.03519
1211.41	0.09338
1222.98	0.24525
1234.56	0.35192
1246.13	0.37627
1257.7	0.24569
1269.28	0.07174
1280.85	0.0314
1292.42	0.01901
1304	0.02089
1315.57	0.0207
1327.15	0.00948
1338.72	0.008
1350.29	0.00685
1361.87	0.00495
1373.44	0.00504
1385.02	0.0055
1396.59	0.00457
1408.16	0.00403
1419.74	0.00419
1431.31	0.00566
1442.88	0.01712
1454.46	0.02729
1466.03	0.00903
1477.61	0.00623
1489.18	0.00776
1500.75	0.00715
1512.33	0.00628
1523.9	0.00661
1535.48	0.00687
1547.05	0.00733
1558.62	0.00891
1570.2	0.01278
1581.77	0.01982
1593.34	0.02563
1604.92	0.02209
1616.49	0.01085
1628.07	0.00903
1639.64	0.00798
1651.21	0.00863
1662.79	0.01116
1674.36	0.01801
1685.93	0.03279
1697.51	0.06741
1709.08	0.15417
1720.66	0.26602
1732.23	0.24916
1743.8	0.1294
1755.38	0.06212
1766.95	0.03706
1778.53	0.02405
1790.1	0.01653
1801.67	0.01389
1813.25	0.01259
1824.82	0.01058
1836.39	0.01164
1847.97	0.01586
1859.54	0.02416
1871.12	0.03813
1882.69	0.05889
1894.26	0.08769
1905.84	0.1293
1917.41	0.19389
1928.99	0.25918
1940.56	0.29423
1952.13	0.33966
1963.71	0.46282
1975.28	0.67156
1986.85	0.65381
1998.43	0.49337
2010	0.45319
2021.58	0.43139
2033.15	0.33467
2044.72	0.21662
2056.3	0.13715
2067.87	0.09231
2079.44	0.07267
2091.02	0.06591
2102.59	0.05892
2114.17	0.04864
2125.74	0.03907
2137.31	0.03486
2148.89	0.03238
2160.46	0.02923
2172.04	0.02427
2183.61	0.01749
2195.18	0.01264
2206.76	0.00949
2218.33	0.0076
2229.9	0.00638
2241.48	0.0057
2253.05	0.00554
2264.63	0.00579
2276.2	0.00619
2287.77	0.00685
2299.35	0.00754
2310.92	0.00758
2322.5	0.00713
2334.07	0.00599
2345.64	0.00468
2357.22	0.00349
2368.79	0.00291
2380.36	0.00268
2391.94	0.00266
2403.51	0.00289
2415.09	0.00314
2426.66	0.00329
2438.23	0.00344
2449.81	0.00366
2461.38	0.00367
2472.96	0.00364
2484.53	0.00359
2496.1	0.00353
2507.68	0.00353
2519.25	0.00377
2530.82	0.004
2542.4	0.00368
2553.97	0.00308
2565.55	0.00267
2577.12	0.00272
2588.69	0.00301
2600.27	0.00333
2611.84	0.00364
2623.41	0.00418
2634.99	0.00447
2646.56	0.0047
2658.14	0.00504
2669.71	0.00565
2681.28	0.00623
2692.86	0.00656
2704.43	0.00581
2716.01	0.00414
2727.58	0.00288
2739.15	0.00231
2750.73	0.00202
2762.3	0.0019
2773.87	0.00201
2785.45	0.00195
2797.02	0.00196
2808.6	0.00216
2820.17	0.00263
2831.74	0.00303
2843.32	0.00314
2854.89	0.00274
2866.47	0.00243
2878.04	0.0025
2889.61	0.00254
2901.19	0.00249
2912.76	0.00236
2924.33	0.00225
2935.91	0.00217
2947.48	0.00194
2959.06	0.0018
2970.63	0.00186
2982.2	0.00186
2993.78	0.00184
3005.35	0.00231
3016.92	0.00325
3028.5	0.00541
3040.07	0.00877
3051.65	0.01024
3063.22	0.01439
3074.79	0.02406
3086.37	0.01863
3097.94	0.01264
3109.52	0.00654
3121.09	0.0025
3132.66	0.00127
3144.24	0.0009886
3155.81	0.00105
3167.38	0.00116
3178.96	0.0008154
3190.53	0.0005218
3202.11	0.0005015
3213.68	0.0004008
3225.25	0.0003237
3236.83	0.0002871
3248.4	0.0001987
3259.98	0.0002088
3271.55	0.0002083
3283.12	0.0002668
3294.7	0.0003381
3306.27	0.0005609
3317.84	0.0007151
3329.42	0.0006689
3340.99	0.0005944
3352.57	0.0004993
3364.14	0.00063
3375.71	0.0009255
3387.29	0.00109
3398.86	0.00167
3410.43	0.00283
3422.01	0.00395
3433.58	0.00412
3445.16	0.00312
3456.73	0.00215
3468.3	0.00159
3479.88	0.00125
3491.45	0.0012
3503.03	0.001
3514.6	0.0008842
3526.17	0.0009489
3537.75	0.00101
3549.32	0.000986
3560.89	0.0008419
3572.47	0.0006704
3584.04	0.0006048
3595.62	0.0005919
3607.19	0.0005651
3618.76	0.0005624
3630.34	0.0006541
3641.91	0.0006786
3653.49	0.0008082
3665.06	0.0008018
3676.63	0.0008201
3688.21	0.0008004
3699.78	0.0008897
3711.35	0.0009434
3722.93	0.0009287
3734.5	0.0009172
3746.08	0.0009509
3757.65	0.0009582
3769.22	0.0011
3780.8	0.00123
3792.37	0.0014
3803.94	0.00141
3815.52	0.00162
3827.09	0.0018
3838.67	0.00204
3850.24	0.00232
3861.81	0.00242
3873.39	0.00257
3884.96	0.00265
3896.54	0.00272
3908.11	0.00285
3919.68	0.00278
3931.26	0.00296
3942.83	0.00307
3954.4	0.00317
3965.98	0.00318
3977.55	0.00299
3989.13	0.0029
4000.7	0.0028
