Infrared Spectrum: .alpha.-Chloroacetophenone
Formula: C 8 H 7 Cl O
CAS: 532-27-4
State: gas
Instrument: HP-GC/MS/IRD
Origin: NIST Mass Spectrometry Data Center
1/CM	ABSORBANCE
550	0.0130302
562	0.0122936
574	0.0040386
586	0.0025019
598	0.0029083
610	0.0047752
622	0.0076581
634	0.0222758
646	0.0433578
658	0.0244856
670	0.0217932
682	0.0410464
694	0.0402082
706	0.0206883
718	0.0159385
730	0.0179578
742	0.0213233
754	0.0219583
766	0.0189738
778	0.014859
790	0.0191389
802	0.0229997
814	0.0109474
826	0.0028321
838	0.0009398
850	0.0001778
862	7.62e-05
874	0.0002032
886	0.0002032
898	0.000635
910	0.0014224
922	0.0019304
934	0.0017272
946	0.0008636
958	0.0011684
970	0.0025019
982	0.0064897
994	0.0116459
1006	0.0188468
1018	0.0251714
1030	0.0106299
1042	0.0069977
1054	0.0028194
1066	0.0025273
1078	0.0023749
1090	0.0022225
1102	0.0023749
1114	0.0021971
1126	0.0044958
1138	0.0106299
1150	0.0092202
1162	0.0067945
1174	0.0133477
1186	0.023114
1198	0.0312039
1210	0.0317373
1222	0.0177927
1234	0.0215392
1246	0.0333248
1258	0.0451993
1270	0.0865251
1282	0.0836168
1294	0.0295021
1306	0.0205359
1318	0.0175641
1330	0.0090424
1342	0.0047244
1354	0.0025019
1366	0.0020193
1378	0.002032
1390	0.0020701
1402	0.0034417
1414	0.0063119
1426	0.0123698
1438	0.0212217
1450	0.0224282
1462	0.009398
1474	0.0033274
1486	0.002413
1498	0.002159
1510	0.0016256
1522	0.0016002
1534	0.0015113
1546	0.0014986
1558	0.0023876
1570	0.0058039
1582	0.0106299
1594	0.0147701
1606	0.012954
1618	0.0047879
1630	0.003175
1642	0.0037338
1654	0.0060579
1666	0.010033
1678	0.019558
1690	0.0584073
1702	0.120853
1714	0.105689
1726	0.0502031
1738	0.024003
1750	0.0104267
1762	0.0064262
1774	0.0044704
1786	0.0030988
1798	0.0036576
1810	0.0037211
1822	0.0021717
1834	0.0013716
1846	0.0009271
1858	0.0009144
1870	0.001143
1882	0.0016129
1894	0.0020828
1906	0.0020447
1918	0.0016256
1930	0.0011938
1942	0.0015875
1954	0.0025273
1966	0.0027432
1978	0.0017526
1990	0.0007874
2002	0.0006604
2014	0.0004953
2026	0.0004318
2038	0.0003302
2050	0.0003302
2062	0.0003429
2074	0.0002032
2086	0.0001143
2098	0.0001016
2110	5.08e-05
2122	5.08e-05
2134	5.08e-05
2146	8.89e-05
2158	0.0001143
2170	0.0001778
2182	0.0001778
2194	0.000127
2206	0.000127
2218	0.0001143
2230	0.0001651
2242	0.0002159
2254	0.000254
2266	0.0003556
2278	0.0004699
2290	0.0004699
2302	0.0003937
2314	0.0006985
2326	0.0008636
2338	0.0006731
2350	0.0005715
2362	0.0003429
2374	0.0002667
2386	0.0002413
2398	0.0002794
2410	0.0003683
2422	0.0002921
2434	0.0002032
2446	0.0001524
2458	0.0001651
2470	0.000127
2482	0.0001524
2494	0.0002032
2506	0.0002413
2518	0.000254
2530	0.0002413
2542	0.0002413
2554	0.0001778
2566	0.0001397
2578	0.0002286
2590	0.0003556
2602	0.0003683
2614	0.0003302
2626	0.0001778
2638	0.0001016
2650	7.62e-05
2662	5.08e-05
2674	0.0001524
2686	0.000254
2698	0.0002159
2710	0.0001397
2722	0.0002667
2734	0.0003048
2746	0.0002413
2758	0.0001651
2770	0.0002032
2782	0.0002413
2794	0.0002413
2806	0.0003937
2818	0.0003556
2830	0.0004191
2842	0.0006858
2854	0.0010287
2866	0.0010287
2878	0.0009779
2890	0.0009779
2902	0.0009017
2914	0.0011684
2926	0.0019431
2938	0.0037973
2950	0.006985
2962	0.0076962
2974	0.0065659
2986	0.0034417
2998	0.0021717
3010	0.0030607
3022	0.0061341
3034	0.0099441
3046	0.0111887
3058	0.0135255
3070	0.0229743
3082	0.0220853
3094	0.0149987
3106	0.0089408
3118	0.0034544
3130	0.0012827
3142	0.000889
3154	0.0009652
3166	0.0007874
3178	0.000381
3190	0.0002794
3202	0.0001397
3214	5.08e-05
3226	0
3238	3.81e-05
3250	3.81e-05
3262	3.81e-05
3274	5.08e-05
3286	0.0001016
3298	0.0001143
3310	7.62e-05
3322	0.0001524
3334	0.0001905
3346	0.0002921
3358	0.0004953
3370	0.0010287
3382	0.0019812
3394	0.0021844
3406	0.0014732
3418	0.001016
3430	0.000889
3442	0.0006858
3454	0.000381
3466	0.0003556
3478	0.0001905
3490	0.0001905
3502	0.0001016
3514	0.0001397
3526	0.0001016
3538	6.35e-05
3550	0.0001524
3562	0.0001397
3574	1.27e-05
3586	7.62e-05
3598	7.62e-05
3610	0.000127
3622	0.0001143
3634	0.0002413
3646	0.0003175
3658	0.000254
3670	0.0002921
3682	0.0002032
3694	0.0003048
3706	0.0004064
3718	0.0003556
3730	0.0002794
3742	0.0003175
3754	0.0002286
3766	0.0002413
3778	0.0002667
3790	0.0002667
3802	0.0002794
3814	0.0002794
3826	0.0002413
3838	0.0002286
