Infrared Spectrum: Tropinone
Formula: C 8 H 13 N O
CAS: 532-24-1
State: gas
Origin: EPA-IR VAPOR PHASE LIBRARY
1/CM	ABSORBANCE
549.8	0.0010978
559.445	0.001587
569.09	0.001697
578.734	0.001917
588.379	0.0012561
598.024	0.0006174
607.669	0.0007195
617.313	0.0011801
626.958	0.001967
636.603	0.003157
646.248	0.003397
655.893	0.002767
665.537	0.001957
675.182	0.001817
684.827	0.002597
694.472	0.003727
704.116	0.005657
713.761	0.007727
723.406	0.009447
733.051	0.008447
742.695	0.009347
752.34	0.011317
761.985	0.009447
771.63	0.005457
781.275	0.003947
790.919	0.003997
800.564	0.003277
810.209	0.003097
819.854	0.004237
829.498	0.005347
839.143	0.005687
848.788	0.003767
858.433	0.002207
868.078	0.001757
877.722	0.0012997
887.367	0.002077
897.012	0.004757
906.657	0.007137
916.301	0.005937
925.946	0.003877
935.591	0.006387
945.236	0.008637
954.88	0.006867
964.525	0.003597
974.17	0.002547
983.815	0.003437
993.46	0.007087
1003.1	0.012707
1012.75	0.013837
1022.39	0.008927
1032.04	0.005387
1041.68	0.009157
1051.33	0.015077
1060.97	0.017447
1070.62	0.011637
1080.26	0.007547
1089.91	0.010107
1099.55	0.020617
1109.2	0.031117
1118.84	0.032177
1128.49	0.029467
1138.13	0.028997
1147.78	0.024467
1157.42	0.019357
1167.07	0.014997
1176.71	0.013987
1186.36	0.017957
1196	0.026867
1205.64	0.035697
1215.29	0.035077
1224.93	0.030397
1234.58	0.025207
1244.22	0.017957
1253.87	0.011937
1263.51	0.012107
1273.16	0.015647
1282.8	0.016497
1292.45	0.014327
1302.09	0.011837
1311.74	0.011267
1321.38	0.013927
1331.03	0.022847
1340.67	0.039987
1350.32	0.042257
1359.96	0.026997
1369.61	0.010477
1379.25	0.005157
1388.9	0.006007
1398.54	0.012077
1408.18	0.021687
1417.83	0.025627
1427.47	0.018497
1437.12	0.012547
1446.76	0.014527
1456.41	0.019147
1466.05	0.020507
1475.7	0.017837
1485.34	0.011837
1494.99	0.006537
1504.63	0.003877
1514.28	0.002707
1523.92	0.002147
1533.57	0.001997
1543.21	0.002037
1552.86	0.002227
1562.5	0.002197
1572.15	0.002087
1581.79	0.002057
1591.44	0.001877
1601.08	0.001857
1610.73	0.001967
1620.37	0.002547
1630.01	0.003527
1639.66	0.004657
1649.3	0.006227
1658.95	0.007817
1668.59	0.009137
1678.24	0.010457
1687.88	0.013227
1697.53	0.019117
1707.17	0.034317
1716.82	0.088027
1726.46	0.183157
1736.11	0.195987
1745.75	0.100817
1755.4	0.018097
1765.04	0.008137
1774.69	0.006347
1784.33	0.005927
1793.98	0.005557
1803.62	0.004657
1813.27	0.003297
1822.91	0.002447
1832.55	0.002157
1842.2	0.002087
1851.84	0.001957
1861.49	0.001797
1871.13	0.001477
1880.78	0.0011876
1890.42	0.0012517
1900.07	0.0012549
1909.71	0.001347
1919.36	0.001377
1929	0.001337
1938.65	0.0012959
1948.29	0.0012432
1957.94	0.0010911
1967.58	0.0010373
1977.23	0.0009846
1986.87	0.0009356
1996.52	0.0009469
2006.16	0.0009943
2015.81	0.0009782
2025.45	0.0011042
2035.1	0.001165
2044.74	0.001307
2054.38	0.001337
2064.03	0.001337
2073.67	0.0012388
2083.32	0.0011239
2092.96	0.0010617
2102.61	0.0011428
2112.25	0.0010662
2121.9	0.0009641
2131.54	0.0010463
2141.19	0.0010087
2150.83	0.0010879
2160.48	0.0010047
2170.12	0.0011128
2179.77	0.0009716
2189.41	0.0010017
2199.06	0.0010053
2208.7	0.0011544
2218.35	0.0012459
2227.99	0.0012441
2237.64	0.0011845
2247.28	0.0010632
2256.92	0.0011324
2266.57	0.0010895
2276.21	0.0010053
2285.86	0.0009466
2295.5	0.0008713
2305.15	0.0008061
2314.79	0.0009197
2324.44	0.0008748
2334.08	0.0009045
2343.73	0.0007836
2353.37	0.0007592
2363.02	0.0008171
2372.66	0.0008296
2382.31	0.0008258
2391.95	0.0007191
2401.6	0.0008103
2411.24	0.0009068
2420.89	0.000901
2430.53	0.0008518
2440.18	0.0009726
2449.82	0.0009518
2459.47	0.00105
2469.11	0.0011348
2478.75	0.0009247
2488.4	0.0008411
2498.04	0.0008363
2507.69	0.0009948
2517.33	0.0010179
2526.98	0.0009497
2536.62	0.0009766
2546.27	0.0010091
2555.91	0.0011987
2565.56	0.0011511
2575.2	0.0010958
2584.85	0.0010959
2594.49	0.0009153
2604.14	0.0010615
2613.78	0.000897
2623.43	0.0009687
2633.07	0.0010828
2642.72	0.0012583
2652.36	0.001637
2662.01	0.001727
2671.65	0.001767
2681.29	0.001687
2690.94	0.001717
2700.58	0.001587
2710.23	0.001437
2719.87	0.001767
2729.52	0.001907
2739.16	0.002357
2748.81	0.003167
2758.45	0.004647
2768.1	0.006287
2777.74	0.007557
2787.39	0.011697
2797.03	0.023107
2806.68	0.029487
2816.32	0.022057
2825.97	0.012237
2835.61	0.013317
2845.26	0.020687
2854.9	0.026447
2864.55	0.026587
2874.19	0.027897
2883.84	0.036417
2893.48	0.039377
2903.12	0.039927
2912.77	0.049117
2922.41	0.067647
2932.06	0.093077
2941.7	0.114917
2951.35	0.139077
2960.99	0.157757
2970.64	0.151477
2980.28	0.106647
2989.93	0.040597
2999.57	0.012247
3009.22	0.006417
3018.86	0.005327
3028.51	0.004507
3038.15	0.004027
3047.8	0.003477
3057.44	0.003277
3067.09	0.002907
3076.73	0.002967
3086.38	0.003117
3096.02	0.002937
3105.67	0.002257
3115.31	0.001697
3124.95	0.0012746
3134.6	0.0011059
3144.24	0.0011292
3153.89	0.0010568
3163.53	0.001031
3173.18	0.0008485
3182.82	0.0005852
3192.47	0.0004812
3202.11	0.00037357
3211.76	0.0002662
3221.4	0.0002899
3231.05	0.000195
3240.69	0.00039059
3250.34	0.00036463
3259.98	0.0004402
3269.63	0.000165
3279.27	0.0005062
3288.92	0.0002963
3298.56	0.000187
3308.21	0.00030164
3317.85	0.0005415
3327.49	0.0007517
3337.14	0.0006171
3346.78	0.0007185
3356.43	0.0007019
3366.07	0.0006327
3375.72	0.000757
3385.36	0.0006196
3395.01	0.0008662
3404.65	0.0009996
3414.3	0.0011261
3423.94	0.001867
3433.59	0.002627
3443.23	0.003347
3452.88	0.003157
3462.52	0.002377
3472.17	0.0012382
3481.81	0.0008886
3491.46	0.0007253
3501.1	0.0005636
3510.75	0.0004995
3520.39	0.00040636
3530.04	0.0006164
3539.68	0.0006358
3549.32	0.00036439
3558.97	0.0004799
3568.61	0.00030294
3578.26	0.0002463
3587.9	0.0004825
3597.55	0.00036069
3607.19	0.000258
3616.84	0.0006199
3626.48	0.00036881
3636.13	0.0006148
3645.77	0.000625
3655.42	0.000528
3665.06	0.00033449
3674.71	0.0005537
3684.35	0.0007397
3694	0.0004073
3703.64	0.0005737
3713.29	0.0005321
3722.93	0.00036785
3732.58	0.0004376
3742.22	0.0004904
3751.86	0.00039164
3761.51	0.0006312
3771.15	0.0004811
3780.8	0.0004583
3790.44	0.0005579
3800.09	0.0006024
3809.73	0.0004444
3819.38	0.0004732
3829.02	0.00027
3838.67	0.0005662
3848.31	0.000697
3857.96	0.0006539
3867.6	0.0004564
3877.25	0.00037485
3886.89	0.0006359
3896.54	0.00039756
3906.18	0.0006594
3915.83	0.0005668
3925.47	0.0010293
3935.12	0.0008603
3944.76	0.0008739
3954.41	0.0009187
3964.05	0.0009785
3973.69	0.0010255
3983.34	0.0008251
3992.98	0.0007819
