Infrared Spectrum: 6-Methoxy-2-benzoxazolinone
Formula: C 8 H 7 N O 3
CAS: 532-91-2
State: gas
Origin: EPA-IR VAPOR PHASE LIBRARY
1/CM	ABSORBANCE
549.8	0.001434
559.445	0.002494
569.09	0.003104
578.734	0.002654
588.379	0.001994
598.024	0.001864
607.669	0.002174
617.313	0.002924
626.958	0.003584
636.603	0.003144
646.248	0.001864
655.893	0.001854
665.537	0.0010751
675.182	0.0008229
684.827	0.001284
694.472	0.002484
704.116	0.002114
713.761	0.001674
723.406	0.001674
733.051	0.001374
742.695	0.002714
752.34	0.004094
761.985	0.004574
771.63	0.003704
781.275	0.004864
790.919	0.006374
800.564	0.007264
810.209	0.004814
819.854	0.004134
829.498	0.005024
839.143	0.005104
848.788	0.005804
858.433	0.004854
868.078	0.003434
877.722	0.004174
887.367	0.006304
897.012	0.012504
906.657	0.025754
916.301	0.023274
925.946	0.008754
935.591	0.013514
945.236	0.020354
954.88	0.010304
964.525	0.003564
974.17	0.002144
983.815	0.002394
993.46	0.002554
1003.1	0.003034
1012.75	0.004684
1022.39	0.008204
1032.04	0.007374
1041.68	0.004344
1051.33	0.003124
1060.97	0.003064
1070.62	0.007834
1080.26	0.015414
1089.91	0.016044
1099.55	0.006734
1109.2	0.004584
1118.84	0.005884
1128.49	0.009674
1138.13	0.010484
1147.78	0.012304
1157.42	0.025354
1167.07	0.028454
1176.71	0.017674
1186.36	0.016734
1196	0.024554
1205.64	0.018414
1215.29	0.006764
1224.93	0.004734
1234.58	0.007814
1244.22	0.010074
1253.87	0.007164
1263.51	0.007984
1273.16	0.013494
1282.8	0.020014
1292.45	0.027754
1302.09	0.028874
1311.74	0.015444
1321.38	0.005694
1331.03	0.003124
1340.67	0.002404
1350.32	0.002174
1359.96	0.001884
1369.61	0.002894
1379.25	0.004864
1388.9	0.005844
1398.54	0.004444
1408.18	0.003184
1417.83	0.002714
1427.47	0.004134
1437.12	0.008224
1446.76	0.011834
1456.41	0.013594
1466.05	0.014024
1475.7	0.016064
1485.34	0.030904
1494.99	0.065334
1504.63	0.054294
1514.28	0.016244
1523.92	0.005574
1533.57	0.003294
1543.21	0.002374
1552.86	0.001814
1562.5	0.001684
1572.15	0.001774
1581.79	0.001694
1591.44	0.002254
1601.08	0.002874
1610.73	0.005214
1620.37	0.008934
1630.01	0.010614
1639.66	0.008304
1649.3	0.005354
1658.95	0.003854
1668.59	0.002814
1678.24	0.002354
1687.88	0.002024
1697.53	0.001854
1707.17	0.002184
1716.82	0.002094
1726.46	0.001894
1736.11	0.002294
1745.75	0.002514
1755.4	0.003524
1765.04	0.004894
1774.69	0.007604
1784.33	0.011974
1793.98	0.017694
1803.62	0.030024
1813.27	0.047024
1822.91	0.067434
1832.55	0.136334
1842.2	0.163624
1851.84	0.088224
1861.49	0.042524
1871.13	0.017284
1880.78	0.009304
1890.42	0.006094
1900.07	0.004214
1909.71	0.003044
1919.36	0.002944
1929	0.002844
1938.65	0.002314
1948.29	0.001934
1957.94	0.001754
1967.58	0.001594
1977.23	0.001334
1986.87	0.001214
1996.52	0.001234
2006.16	0.0010501
2015.81	0.001224
2025.45	0.001434
2035.1	0.001514
2044.74	0.001424
2054.38	0.001083
2064.03	0.0009916
2073.67	0.0008831
2083.32	0.0006396
2092.96	0.0009235
2102.61	0.0005982
2112.25	0.0006112
2121.9	0.0005856
2131.54	0.0005614
2141.19	0.000625
2150.83	0.0007417
2160.48	0.0009307
2170.12	0.0008601
2179.77	0.0009374
2189.41	0.0009051
2199.06	0.0008171
2208.7	0.001254
2218.35	0.001414
2227.99	0.001284
2237.64	0.001424
2247.28	0.001454
2256.92	0.001494
2266.57	0.001514
2276.21	0.001684
2285.86	0.0011208
2295.5	0.0009879
2305.15	0.0007539
2314.79	0.0007793
2324.44	0.0010447
2334.08	0.0010496
2343.73	0.0008876
2353.37	0.0010177
2363.02	0.0008037
2372.66	0.0011087
2382.31	0.0009461
2391.95	0.0009613
2401.6	0.0008256
2411.24	0.0009711
2420.89	0.000875
2430.53	0.0007785
2440.18	0.0009
2449.82	0.0006919
2459.47	0.000707
2469.11	0.0006383
2478.75	0.0007066
2488.4	0.0006224
2498.04	0.0007971
2507.69	0.0005869
2517.33	0.000741
2526.98	0.0007867
2536.62	0.00087
2546.27	0.0006164
2555.91	0.0005017
2565.56	0.000742
2575.2	0.0005395
2584.85	0.0007126
2594.49	0.000922
2604.14	0.0006244
2613.78	0.0007681
2623.43	0.0007205
2633.07	0.0005288
2642.72	0.0005173
2652.36	0.0002921
2662.01	0.0006742
2671.65	0.0006899
2681.29	0.0005177
2690.94	0.0006155
2700.58	0.0006072
2710.23	0.000608
2719.87	0.0006222
2729.52	0.0005257
2739.16	0.0005128
2748.81	0.0006216
2758.45	0.0004025
2768.1	0.0006882
2777.74	0.0006363
2787.39	0.000505
2797.03	0.0009308
2806.68	0.0010308
2816.32	0.001394
2825.97	0.001774
2835.61	0.003284
2845.26	0.004304
2854.9	0.003644
2864.55	0.002294
2874.19	0.002044
2883.84	0.002254
2893.48	0.002554
2903.12	0.002894
2912.77	0.003694
2922.41	0.003584
2932.06	0.004674
2941.7	0.005604
2951.35	0.006204
2960.99	0.005174
2970.64	0.003754
2980.28	0.003394
2989.93	0.002934
2999.57	0.003934
3009.22	0.005224
3018.86	0.003534
3028.51	0.001624
3038.15	0.001364
3047.8	0.002154
3057.44	0.001624
3067.09	0.001894
3076.73	0.002284
3086.38	0.002304
3096.02	0.001594
3105.67	0.001184
3115.31	0.0007949
3124.95	0.001072
3134.6	0.0004554
3144.24	0.000846
3153.89	0.0006191
3163.53	0.0008032
3173.18	0.0004706
3182.82	0.0005867
3192.47	0.0006412
3202.11	0.000385
3211.76	0.0006256
3221.4	0.0007099
3231.05	0.000596
3240.69	0.0007128
3250.34	0.000652
3259.98	0.0007638
3269.63	0.0010012
3279.27	0.0005776
3288.92	0.0005346
3298.56	0.0003294
3308.21	0.0007876
3317.85	0.0006212
3327.49	0.0008168
3337.14	0.0005622
3346.78	0.0005996
3356.43	0.00024995
3366.07	0.0005222
3375.72	0.0003697
3385.36	0.0004406
3395.01	0.0005841
3404.65	0.0005889
3414.3	0.0005001
3423.94	0.0004702
3433.59	0.0005465
3443.23	0.00029
3452.88	0.0005003
3462.52	0.0008786
3472.17	0.001424
3481.81	0.002444
3491.46	0.004624
3501.1	0.010484
3510.75	0.014944
3520.39	0.011224
3530.04	0.004654
3539.68	0.001914
3549.32	0.0008016
3558.97	0.0009829
3568.61	0.00084
3578.26	0.0010511
3587.9	0.0003627
3597.55	0.0007904
3607.19	0.001194
3616.84	0.0010497
3626.48	0.0010167
3636.13	0.001374
3645.77	0.001824
3655.42	0.001634
3665.06	0.001314
3674.71	0.0008253
3684.35	0.0010385
3694	0.0008761
3703.64	0.0008624
3713.29	0.000616
3722.93	0.0006569
3732.58	0.0007065
3742.22	0.0004176
3751.86	0.0008391
3761.51	0.0004313
3771.15	0.0004635
3780.8	0.0001244
3790.44	0.0005418
3800.09	0.0003091
3809.73	0.0006464
3819.38	0.0001639
3829.02	0.0005884
3838.67	0.0008054
3848.31	0.0007832
3857.96	0.0006427
3867.6	0.001013
3877.25	0.0006609
3886.89	0.0008191
3896.54	0.0008157
3906.18	0.0007309
3915.83	0.0009172
3925.47	0.0005193
3935.12	0.0005399
3944.76	0.0005057
3954.41	0.0008689
3964.05	0.0003151
3973.69	0.0008335
3983.34	0.000758
3992.98	0.00023578
