Infrared Spectrum: 4-(2-NITROPHENYL) MORPHOLINE
Formula: C10 H12 N2 O3
CAS: 5320-98-9
State: SOLUTION (10% IN CCl4 FOR 5000-1350 CM^-^1, 10% IN CS2 FOR 1350-625 CM^-^1)
Class: COBLENTZ
Instrument: Not specified, most likely a prism, grating, or hybrid spectrometer.
Sampling: TRANSMISSION
Path length: 0.01 CM, 0.01 CM
Resolution: 4
Origin: DOW CHEMICAL COMPANY
MICROMETERS	TRANSMITTANCE
2.026	0.84
2.06522	0.847
2.10443	0.853
2.14365	0.855
2.18286	0.86
2.22208	0.855
2.26129	0.855
2.30051	0.858
2.33972	0.858
2.37894	0.858
2.41815	0.858
2.45737	0.862
2.49658	0.858
2.5358	0.868
2.57501	0.868
2.61423	0.87
2.65344	0.871
2.69266	0.868
2.73187	0.866
2.77109	0.863
2.8103	0.84
2.84952	0.819
2.88873	0.808
2.92795	0.8
2.96716	0.81
3.00638	0.823
3.04559	0.826
3.08481	0.827
3.12402	0.829
3.16324	0.826
3.20245	0.818
3.24167	0.782
3.28088	0.771
3.3201	0.748
3.35931	0.525
3.39853	0.496
3.43774	0.482
3.47696	0.42
3.51617	0.347
3.55539	0.569
3.5946	0.787
3.63382	0.762
3.67303	0.805
3.71225	0.803
3.75146	0.849
3.79068	0.873
3.82989	0.873
3.86911	0.873
3.90832	0.883
3.94754	0.892
3.98675	0.896
4.02597	0.887
4.06518	0.889
4.1044	0.892
4.14362	0.899
4.18283	0.887
4.22205	0.878
4.26126	0.876
4.30048	0.879
4.33969	0.884
4.37891	0.892
4.41812	0.9
4.45734	0.9
4.49655	0.905
4.53577	0.915
4.57498	0.912
4.6142	0.917
4.65341	0.91
4.69263	0.91
4.73184	0.912
4.77106	0.9
4.81027	0.907
4.84949	0.915
4.8887	0.91
4.92792	0.91
4.96713	0.909
5.00635	0.897
5.04556	0.883
5.08478	0.87
5.12399	0.878
5.16321	0.894
5.20242	0.883
5.24164	0.896
5.28085	0.899
5.32007	0.899
5.35928	0.905
5.3985	0.902
5.43771	0.9
5.47693	0.9
5.51614	0.892
5.55536	0.883
5.59457	0.883
5.63379	0.894
5.673	0.902
5.71222	0.899
5.75143	0.884
5.79065	0.871
5.82986	0.86
5.86908	0.85
5.90829	0.827
5.94751	0.823
5.98672	0.819
6.02594	0.801
6.06515	0.772
6.10437	0.743
6.14358	0.649
6.1828	0.362
6.22202	0.107
6.26123	0.386
6.30045	0.428
6.33966	0.301
6.37888	0.301
6.41809	0.272
6.45731	0.214
6.49652	0.074
6.53574	0.024
6.57495	0.048
6.61417	0.139
6.65338	0.3
6.6926	0.237
6.73181	0.24
6.77103	0.555
6.81024	0.535
6.84946	0.345
6.88867	0.211
6.92789	0.496
6.9671	0.728
7.00632	0.758
7.04553	0.746
7.08475	0.719
7.12396	0.67
7.16318	0.61
7.20239	0.498
7.24161	0.269
7.28082	0.198
7.32004	0.245
7.35925	0.16
7.39847	0.11
7.43768	0.121
7.4769	0.227
7.51611	0.396
7.55533	0.498
7.59454	0.509
7.63376	0.457
7.67297	0.326
7.71219	0.246
7.7514	0.282
7.79062	0.386
7.82983	0.568
7.86905	0.67
7.90826	0.646
7.94748	0.452
7.98669	0.261
8.02591	0.482
8.06512	0.331
8.10434	0.097
8.14355	0.207
8.18277	0.496
8.22198	0.516
8.2612	0.6
8.30042	0.797
8.33963	0.823
8.37885	0.821
8.41806	0.766
8.45728	0.706
8.49649	0.636
8.53571	0.65
8.57492	0.602
8.61414	0.706
8.65335	0.8
8.69257	0.761
8.73178	0.685
8.771	0.652
8.81021	0.637
8.84943	0.496
8.88864	0.251
8.92786	0.029
8.96707	0.055
9.00629	0.163
9.0455	0.571
9.08472	0.699
9.12393	0.75
9.16315	0.741
9.20236	0.735
9.24158	0.772
9.28079	0.771
9.32001	0.675
9.35922	0.55
9.39844	0.733
9.43765	0.771
9.47687	0.646
9.51608	0.55
9.5553	0.488
9.59451	0.461
9.63373	0.655
9.67294	0.75
9.71216	0.771
9.75137	0.782
9.79059	0.863
9.8298	0.909
9.86902	0.939
9.90823	0.957
9.94745	0.967
9.98666	0.97
10.0259	0.978
10.0651	0.983
10.1043	0.983
10.1435	0.983
10.1827	0.974
10.222	0.952
10.2612	0.946
10.3004	0.949
10.3396	0.952
10.3788	0.941
10.418	0.915
10.4572	0.86
10.4965	0.775
10.5357	0.654
10.5749	0.454
10.6141	0.267
10.6533	0.118
10.6925	0.069
10.7318	0.245
10.771	0.418
10.8102	0.379
10.8494	0.451
10.8886	0.701
10.9278	0.839
10.967	0.879
11.0063	0.897
11.0455	0.904
11.0847	0.909
11.1239	0.909
11.1631	0.9
11.2023	0.887
11.2415	0.875
11.2808	0.86
11.32	0.842
11.3592	0.813
11.3984	0.79
11.4376	0.762
11.4768	0.738
11.5161	0.652
11.5553	0.521
11.5945	0.426
11.6337	0.396
11.6729	0.371
11.7121	0.332
11.7513	0.37
11.7906	0.415
11.8298	0.373
11.869	0.477
11.9082	0.652
11.9474	0.743
11.9866	0.79
12.0258	0.816
12.0651	0.831
12.1043	0.834
12.1435	0.842
12.1827	0.845
12.2219	0.845
12.2611	0.845
12.3004	0.844
12.3396	0.84
12.3788	0.84
12.418	0.837
12.4572	0.836
12.4964	0.831
12.5356	0.826
12.5749	0.818
12.6141	0.81
12.6533	0.795
12.6925	0.779
12.7317	0.751
12.7709	0.711
12.8102	0.607
12.8494	0.501
12.8886	0.371
12.9278	0.271
12.967	0.308
13.0062	0.441
13.0454	0.563
13.0847	0.589
13.1239	0.563
13.1631	0.496
13.2023	0.386
13.2415	0.256
13.2807	0.206
13.3199	0.207
13.3592	0.288
13.3984	0.318
13.4376	0.323
13.4768	0.321
13.516	0.373
13.5552	0.465
13.5945	0.587
13.6337	0.667
13.6729	0.702
13.7121	0.728
13.7513	0.737
13.7905	0.737
13.8297	0.725
13.869	0.701
13.9082	0.68
13.9474	0.642
13.9866	0.589
14.0258	0.514
14.065	0.459
14.1042	0.41
14.1435	0.405
14.1827	0.436
14.2219	0.496
14.2611	0.553
14.3003	0.599
14.3395	0.623
14.3788	0.646
14.418	0.657
14.4572	0.662
14.4964	0.662
14.5356	0.662
14.5748	0.654
14.614	0.647
14.6533	0.628
14.6925	0.61
14.7317	0.579
14.7709	0.54
14.8101	0.5
14.8493	0.461
14.8886	0.422
14.9278	0.399
14.967	0.387
15.0062	0.386
15.0454	0.386
15.0846	0.409
15.1238	0.433
15.1631	0.452
15.2023	0.469
15.2415	0.472
15.2807	0.474
15.3199	0.477
15.3591	0.478
15.3983	0.482
15.4376	0.483
15.4768	0.483
15.516	0.478
15.5552	0.477
15.5944	0.47
15.6336	0.461
15.6729	0.459
15.7121	0.443
15.7513	0.436
15.7905	0.43
15.8297	0.418
15.8689	0.423
