Infrared Spectrum: 3-Ethoxy-2-cyclohexene-1-one
Formula: C 8 H 12 O 2
CAS: 5323-87-5
State: gas
Origin: EPA-IR VAPOR PHASE LIBRARY
1/CM	ABSORBANCE
549.8	0.00275
559.445	0.0016749
569.09	0.00146983
578.735	0.00401
588.38	0.00811
598.025	0.01107
607.67	0.00686
617.315	0.001604
626.96	0.001103
636.605	0.0023005
646.251	0.00479
655.896	0.00506
665.541	0.0024504
675.186	0.001371
684.831	0.001012
694.476	0.000803
704.121	0.000827
713.766	0.00079
723.411	0.00074
733.056	0.001166
742.701	0.0028
752.346	0.00451
761.991	0.00415
771.636	0.0018339
781.281	0.001325
790.926	0.00154466
800.571	0.00336
810.216	0.00805
819.861	0.01518
829.507	0.01752
839.152	0.01265
848.797	0.00957
858.442	0.01136
868.087	0.01313
877.732	0.00938
887.377	0.00713
897.022	0.00718
906.667	0.0073
916.312	0.01184
925.957	0.01675
935.602	0.01321
945.247	0.00704
954.892	0.00613
964.537	0.00607
974.182	0.00497
983.827	0.00389
993.472	0.00434
1003.12	0.0065
1012.76	0.01363
1022.41	0.02666
1032.05	0.03047
1041.7	0.01952
1051.34	0.01466
1060.99	0.01362
1070.63	0.0092
1080.28	0.00919
1089.92	0.01144
1099.57	0.01409
1109.21	0.01946
1118.86	0.02671
1128.5	0.04593
1138.15	0.05184
1147.79	0.03559
1157.44	0.03618
1167.08	0.06528
1176.73	0.13662
1186.37	0.14325
1196.02	0.1009
1205.66	0.12765
1215.31	0.11577
1224.95	0.06049
1234.6	0.03891
1244.24	0.02594
1253.89	0.01487
1263.53	0.01101
1273.18	0.01093
1282.82	0.01851
1292.47	0.03428
1302.11	0.04808
1311.76	0.04988
1321.4	0.04749
1331.05	0.04171
1340.69	0.04196
1350.34	0.0578
1359.98	0.0658
1369.63	0.07091
1379.27	0.06036
1388.92	0.03169
1398.56	0.01589
1408.21	0.01391
1417.85	0.01447
1427.5	0.01712
1437.14	0.01742
1446.79	0.01496
1456.43	0.01653
1466.08	0.01475
1475.73	0.01137
1485.37	0.00968
1495.02	0.00662
1504.66	0.00586
1514.31	0.00537
1523.95	0.00436
1533.6	0.0042
1543.24	0.00448
1552.89	0.00474
1562.53	0.0055
1572.18	0.0078
1581.82	0.014
1591.47	0.02819
1601.11	0.07762
1610.76	0.18854
1620.4	0.20376
1630.05	0.07967
1639.69	0.03038
1649.34	0.0247
1658.98	0.03014
1668.63	0.05598
1678.27	0.12666
1687.92	0.20188
1697.56	0.17552
1707.21	0.07323
1716.85	0.02759
1726.5	0.01373
1736.14	0.00845
1745.79	0.00651
1755.43	0.00563
1765.08	0.00535
1774.72	0.00542
1784.37	0.00504
1794.01	0.00422
1803.66	0.00335
1813.3	0.00284
1822.95	0.0027
1832.59	0.00262
1842.24	0.00254
1851.88	0.00254
1861.53	0.00256
1871.17	0.0024339
1880.82	0.0022809
1890.46	0.0021514
1900.11	0.0020475
1909.75	0.0019741
1919.4	0.0020475
1929.04	0.0021225
1938.69	0.0020583
1948.33	0.0018637
1957.98	0.0017623
1967.62	0.0016529
1977.27	0.0015762
1986.91	0.0015718
1996.56	0.0016
2006.2	0.0015957
2015.85	0.0015898
2025.49	0.00150311
2035.14	0.0016852
2044.78	0.0018195
2054.43	0.001965
2064.07	0.0021099
2073.72	0.0019837
2083.36	0.0017761
2093.01	0.0017613
2102.65	0.0017644
2112.3	0.0018656
2121.94	0.0018069
2131.59	0.0016884
2141.23	0.00149174
2150.88	0.00151504
2160.52	0.0014248
2170.17	0.0014181
2179.81	0.00147376
2189.46	0.00149293
2199.1	0.0015821
2208.75	0.0017058
2218.39	0.0017626
2228.04	0.0016571
2237.68	0.0016014
2247.33	0.0016477
2256.97	0.0018028
2266.62	0.0019393
2276.26	0.0018466
2285.91	0.0017844
2295.55	0.0017197
2305.2	0.0017277
2314.84	0.0017326
2324.49	0.0017999
2334.13	0.00192
2343.78	0.0020157
2353.42	0.0021191
2363.07	0.0024207
2372.72	0.00254
2382.36	0.00265
2392.01	0.00271
2401.65	0.0027
2411.3	0.00268
2420.94	0.0024512
2430.59	0.0020591
2440.23	0.001831
2449.88	0.0016838
2459.52	0.0017238
2469.17	0.00166
2478.81	0.0017667
2488.46	0.0017072
2498.1	0.0016931
2507.75	0.0016972
2517.39	0.0016491
2527.04	0.00151579
2536.68	0.00155509
2546.33	0.0015858
2555.97	0.0016206
2565.62	0.00153098
2575.26	0.00148284
2584.91	0.0015726
2594.55	0.0015715
2604.2	0.0016343
2613.84	0.00155052
2623.49	0.0014154
2633.13	0.001355
2642.78	0.001347
2652.42	0.00146845
2662.07	0.00146488
2671.71	0.0015797
2681.36	0.00155671
2691	0.00148865
2700.65	0.0013675
2710.29	0.00146313
2719.94	0.0016394
2729.58	0.001813
2739.23	0.0020412
2748.87	0.0021311
2758.52	0.0022235
2768.16	0.0020828
2777.81	0.0022962
2787.45	0.00266
2797.1	0.00316
2806.74	0.00358
2816.39	0.00447
2826.03	0.00582
2835.68	0.00751
2845.32	0.00862
2854.97	0.00874
2864.61	0.01039
2874.26	0.01698
2883.9	0.02284
2893.55	0.0262
2903.19	0.02946
2912.84	0.0266
2922.48	0.02383
2932.13	0.03317
2941.77	0.05599
2951.42	0.07431
2961.06	0.06376
2970.71	0.04315
2980.35	0.0359
2990	0.03519
2999.64	0.02693
3009.29	0.01361
3018.93	0.00655
3028.58	0.00452
3038.22	0.00374
3047.87	0.0033
3057.51	0.00317
3067.16	0.00416
3076.8	0.00565
3086.45	0.00487
3096.09	0.0022961
3105.74	0.00154234
3115.38	0.0014144
3125.03	0.001208
3134.67	0.001154
3144.32	0.000979
3153.96	0.00096
3163.61	0.000936
3173.25	0.000812
3182.9	0.000785
3192.54	0.000773
3202.19	0.000736
3211.83	0.000758
3221.48	0.000757
3231.12	0.000631
3240.77	0.00034
3250.41	0.00028
3260.06	0.00021
3269.7	0.00018
3279.35	0.00034
3289	0.00027
3298.64	0.00046
3308.29	0.000497
3317.93	0.0007
3327.58	0.000907
3337.22	0.0014218
3346.87	0.0017721
3356.51	0.0023687
3366.16	0.00251
3375.8	0.0016071
3385.45	0.001121
3395.09	0.000669
3404.74	0.00039
3414.38	0.00031
3424.03	0.00022
3433.67	0.00033
3443.32	0.00023
3452.96	0.00033
3462.61	0.00018
3472.25	8e-05
3481.9	0.00013
3491.54	0.00019
3501.19	0.00025
3510.83	0.00019
3520.48	6e-05
3530.12	0.00015
3539.77	0.00014
3549.41	0.00017
3559.06	0.00013
3568.7	0.00017
3578.35	0.00021
3587.99	0.00014
3597.64	0.00018
3607.28	0.00015
3616.93	0.00023
3626.57	0.00017
3636.22	0.00018
3645.86	0.00029
3655.51	0.00041
3665.15	0.00029
3674.8	0.00023
3684.44	0.00024
3694.09	0.00043
3703.73	0.00041
3713.38	0.00041
3723.02	0.000481
3732.67	0.00042
3742.31	0.00045
3751.96	0.00039
3761.6	0.000518
3771.25	0.00037
3780.89	0.000501
3790.54	0.00041
3800.18	0.00056
3809.83	0.000561
3819.47	0.000524
3829.12	0.000565
3838.76	0.000622
3848.41	0.000629
3858.05	0.000578
3867.7	0.000544
3877.34	0.000489
3886.99	0.000477
3896.63	0.000659
3906.28	0.000642
3915.92	0.000729
3925.57	0.000649
3935.21	0.000615
3944.86	0.000656
3954.5	0.000793
3964.15	0.000681
3973.79	0.000677
3983.44	0.000782
3993.08	0.000904
