Infrared Spectrum: N-n-Propylphthalimide
Formula: C 11 H 11 N O 2
CAS: 5323-50-2
State: gas
Origin: EPA-IR VAPOR PHASE LIBRARY
1/CM	ABSORBANCE
549.8	0.0248837
559.445	0.0071137
569.09	0.0020237
578.734	0.0021337
588.379	0.0034237
598.024	0.0070137
607.669	0.0103637
617.313	0.0172937
626.958	0.0085837
636.603	0.0025537
646.248	0.0020837
655.893	0.0025537
665.537	0.0030637
675.182	0.0042237
684.827	0.0086437
694.472	0.0216537
704.116	0.0794137
713.761	0.208704
723.406	0.167424
733.051	0.0490937
742.695	0.0175437
752.34	0.0135337
761.985	0.0123137
771.63	0.0191737
781.275	0.0274237
790.919	0.0229437
800.564	0.0113737
810.209	0.0055837
819.854	0.0042637
829.498	0.0062637
839.143	0.0087437
848.788	0.0109737
858.433	0.0144937
868.078	0.0133337
877.722	0.0143837
887.367	0.0228637
897.012	0.0372737
906.657	0.0563037
916.301	0.0449237
925.946	0.0202937
935.591	0.0126937
945.236	0.0148737
954.88	0.0176537
964.525	0.0155937
974.17	0.0121237
983.815	0.0082637
993.46	0.0105537
1003.1	0.0153937
1012.75	0.0222937
1022.39	0.0436837
1032.04	0.108474
1041.68	0.179494
1051.33	0.155874
1060.97	0.0840537
1070.62	0.0438137
1080.26	0.0301637
1089.91	0.0272537
1099.55	0.0184337
1109.2	0.0124137
1118.84	0.0098837
1128.49	0.0099837
1138.13	0.0097937
1147.78	0.0116137
1157.42	0.0206637
1167.07	0.0311337
1176.71	0.0588837
1186.36	0.0741337
1196	0.0463937
1205.64	0.0232337
1215.29	0.0159637
1224.93	0.0128837
1234.58	0.0121037
1244.22	0.0132437
1253.87	0.0163537
1263.51	0.0212037
1273.16	0.0252937
1282.8	0.0315337
1292.45	0.0423837
1302.09	0.0616737
1311.74	0.0775937
1321.38	0.0949937
1331.03	0.120444
1340.67	0.204694
1350.32	0.298084
1359.96	0.363534
1369.61	0.395084
1379.25	0.363144
1388.9	0.396894
1398.54	0.330464
1408.18	0.163204
1417.83	0.0739437
1427.47	0.0631437
1437.12	0.0930937
1446.76	0.113694
1456.41	0.0808837
1466.05	0.0702037
1475.7	0.0480237
1485.34	0.0214337
1494.99	0.0143237
1504.63	0.0126837
1514.28	0.0123537
1523.92	0.0120237
1533.57	0.0100737
1543.21	0.0098337
1552.86	0.0110337
1562.5	0.0121337
1572.15	0.0135637
1581.79	0.0155337
1591.44	0.0192237
1601.08	0.0231437
1610.73	0.0265637
1620.37	0.0189337
1630.01	0.0114837
1639.66	0.0105837
1649.3	0.0117637
1658.95	0.0135537
1668.59	0.0167137
1678.24	0.0232137
1687.88	0.0398837
1697.53	0.0741737
1707.17	0.132524
1716.82	0.356114
1726.46	1.02539
1736.11	1.19831
1745.75	0.498924
1755.4	0.139994
1765.04	0.0855337
1774.69	0.126904
1784.33	0.192774
1793.98	0.0936737
1803.62	0.0367137
1813.27	0.0246637
1822.91	0.0177437
1832.55	0.0156437
1842.2	0.0139437
1851.84	0.0115237
1861.49	0.0116137
1871.13	0.0120737
1880.78	0.0091737
1890.42	0.0073937
1900.07	0.0076937
1909.71	0.0081237
1919.36	0.0076537
1929	0.0085237
1938.65	0.0090337
1948.29	0.0063837
1957.94	0.0052437
1967.58	0.0070937
1977.23	0.0053837
1986.87	0.0034137
1996.52	0.0031337
2006.16	0.0029337
2015.81	0.0027437
2025.45	0.0023437
2035.1	0.0021037
2044.74	0.0019737
2054.38	0.0021137
2064.03	0.0020537
2073.67	0.0022537
2083.32	0.0023037
2092.96	0.0022337
2102.61	0.0021037
2112.25	0.0019537
2121.9	0.0020737
2131.54	0.0024437
2141.19	0.0023937
2150.83	0.0022237
2160.48	0.0019337
2170.12	0.0019737
2179.77	0.0019237
2189.41	0.0018937
2199.06	0.0016437
2208.7	0.0016437
2218.35	0.0017837
2227.99	0.0019637
2237.64	0.0023237
2247.28	0.0026537
2256.92	0.0027237
2266.57	0.0025137
2276.21	0.0021837
2285.86	0.0023337
2295.5	0.0024037
2305.15	0.0027937
2314.79	0.0037037
2324.44	0.0035337
2334.08	0.0035637
2343.73	0.0036637
2353.37	0.0033737
2363.02	0.0029737
2372.66	0.0029037
2382.31	0.0023737
2391.95	0.0027737
2401.6	0.0033037
2411.24	0.0035937
2420.89	0.0039037
2430.53	0.0041337
2440.18	0.0037737
2449.82	0.0029937
2459.47	0.0024537
2469.11	0.0019437
2478.75	0.0018937
2488.4	0.0017537
2498.04	0.0019037
2507.69	0.0018137
2517.33	0.0016037
2526.98	0.0014637
2536.62	0.0013437
2546.27	0.0014437
2555.91	0.0016437
2565.56	0.0017037
2575.2	0.0014737
2584.85	0.0012637
2594.49	0.0012137
2604.14	0.0011237
2613.78	0.0014937
2623.43	0.0018437
2633.07	0.0021437
2642.72	0.0021237
2652.36	0.0020037
2662.01	0.0021737
2671.65	0.0023137
2681.29	0.0029437
2690.94	0.0032237
2700.58	0.0034937
2710.23	0.0026437
2719.87	0.0021437
2729.52	0.0025337
2739.16	0.0030037
2748.81	0.0035437
2758.45	0.0037137
2768.1	0.0039537
2777.74	0.0048637
2787.39	0.0049537
2797.03	0.0044337
2806.68	0.0046137
2816.32	0.0048537
2825.97	0.0058537
2835.61	0.0069937
2845.26	0.0079537
2854.9	0.0093737
2864.55	0.0147337
2874.19	0.0308137
2883.84	0.0515237
2893.48	0.0454137
2903.12	0.0321637
2912.77	0.0342037
2922.41	0.0452037
2932.06	0.0679637
2941.7	0.102274
2951.35	0.103564
2960.99	0.0807037
2970.64	0.125044
2980.28	0.125884
2989.93	0.0527537
2999.57	0.0223037
3009.22	0.0140137
3018.86	0.0124937
3028.51	0.0128337
3038.15	0.0141237
3047.8	0.0176437
3057.44	0.0249237
3067.09	0.0272737
3076.73	0.0287137
3086.38	0.0366837
3096.02	0.0237437
3105.67	0.0090937
3115.31	0.0043537
3124.95	0.0029337
3134.6	0.0020837
3144.24	0.0020837
3153.89	0.0016737
3163.53	0.0016037
3173.18	0.0016037
3182.82	0.0018037
3192.47	0.0020337
3202.11	0.0018237
3211.76	0.0019437
3221.4	0.0015737
3231.05	0.0014237
3240.69	0.0011637
3250.34	0.0009702
3259.98	0.0008271
3269.63	0.0005899
3279.27	0.0005143
3288.92	0.0006446
3298.56	0.0006412
3308.21	0.0004643
3317.85	0.0005829
3327.49	0.0006073
3337.14	0.000475
3346.78	0.0003852
3356.43	0.0002697
3366.07	0.0004834
3375.72	0.0003561
3385.36	0.0004834
3395.01	0.0003572
3404.65	0.0005792
3414.3	0.0005282
3423.94	0.0007348
3433.59	0.0013037
3443.23	0.0023437
3452.88	0.0036137
3462.52	0.0043537
3472.17	0.0047337
3481.81	0.0072437
3491.46	0.0120237
3501.1	0.0150637
3510.75	0.0096737
3520.39	0.0036537
3530.04	0.0022037
3539.68	0.0015937
3549.32	0.0013637
3558.97	0.0015037
3568.61	0.0015337
3578.26	0.0010673
3587.9	0.0009053
3597.55	0.0009008
3607.19	0.0005447
3616.84	0.0005355
3626.48	0.0005254
3636.13	0.0005188
3645.77	0.0001988
3655.42	0.0004906
3665.06	0.0003361
3674.71	0.0002866
3684.35	6.545e-05
3694	0.0003586
3703.64	0.0003351
3713.29	0.00011981
3722.93	0.000251
3732.58	0.0008385
3742.22	0.0007671
3751.86	0.0007703
3761.51	0.0006915
3771.15	0.0008383
3780.8	0.0007967
3790.44	0.0008034
3800.09	0.0003509
3809.73	0.0003278
3819.38	0.0004497
3829.02	0.0001768
3838.67	0.0006252
3848.31	0.0002862
3857.96	0.0001646
3867.6	0.0004235
3877.25	0.0003591
3886.89	0.0003317
3896.54	0.0005832
3906.18	0.0005461
3915.83	0.000637
3925.47	0.0007325
3935.12	0.0009376
3944.76	0.0005892
3954.41	0.000473
3964.05	0.000615
3973.69	0.0004226
3983.34	0.0010455
3992.98	0.0009225
