Infrared Spectrum: 2-Naphthylthioacetonitrile
Formula: C 12 H 9 N S
CAS: 5324-69-6
State: gas
Origin: EPA-IR VAPOR PHASE LIBRARY
1/CM	ABSORBANCE
549.8	0.0026576
559.445	0.00051
569.09	0.0021184
578.734	0.0023225
588.379	0.0026749
598.024	0.0036
607.669	0.00303
617.313	0.0022241
626.958	0.00404
636.603	0.00483
646.248	0.00308
655.893	0.0021521
665.537	0.00276
675.182	0.00276
684.827	0.00296
694.472	0.00319
704.116	0.00404
713.761	0.00403
723.406	0.0075
733.051	0.01775
742.695	0.02261
752.34	0.0107
761.985	0.0048
771.63	0.00465
781.275	0.00432
790.919	0.00738
800.564	0.0163
810.209	0.024
819.854	0.01308
829.498	0.00873
839.143	0.01271
848.788	0.0173
858.433	0.01323
868.078	0.00876
877.722	0.00627
887.367	0.00695
897.012	0.00765
906.657	0.00418
916.301	0.00468
925.946	0.00564
935.591	0.00676
945.236	0.00985
954.88	0.00519
964.525	0.00321
974.17	0.00304
983.815	0.00285
993.46	0.002022
1003.1	0.00286
1012.75	0.00418
1022.39	0.0024312
1032.04	0.00358
1041.68	0.0025857
1051.33	0.00339
1060.97	0.00329
1070.62	0.00379
1080.26	0.00297
1089.91	0.00314
1099.55	0.001507
1109.2	0.00283
1118.84	0.0019541
1128.49	0.00544
1138.13	0.00647
1147.78	0.00352
1157.42	0.00284
1167.07	0.0028
1176.71	0.00333
1186.36	0.00297
1196	0.0035
1205.64	0.0033
1215.29	0.00305
1224.93	0.00651
1234.58	0.00689
1244.22	0.0041
1253.87	0.00369
1263.51	0.0035
1273.16	0.00313
1282.8	0.0024659
1292.45	0.0018984
1302.09	0.0026281
1311.74	0.0023706
1321.38	0.0026552
1331.03	0.00375
1340.67	0.00475
1350.32	0.00518
1359.96	0.00451
1369.61	0.0039
1379.25	0.00351
1388.9	0.00393
1398.54	0.006
1408.18	0.00906
1417.83	0.00766
1427.47	0.00462
1437.12	0.00386
1446.76	0.00374
1456.41	0.00405
1466.05	0.00337
1475.7	0.00408
1485.34	0.00563
1494.99	0.00969
1504.63	0.00932
1514.28	0.00325
1523.92	0.00305
1533.57	0.00321
1543.21	0.00347
1552.86	0.00385
1562.5	0.00453
1572.15	0.00642
1581.79	0.00764
1591.44	0.00913
1601.08	0.0063
1610.73	0.00462
1620.37	0.00481
1630.01	0.00456
1639.66	0.00333
1649.3	0.00306
1658.95	0.00309
1668.59	0.00296
1678.24	0.00343
1687.88	0.00375
1697.53	0.00368
1707.17	0.00329
1716.82	0.00286
1726.46	0.00332
1736.11	0.00323
1745.75	0.00374
1755.4	0.00396
1765.04	0.00331
1774.69	0.00319
1784.33	0.00329
1793.98	0.00323
1803.62	0.00302
1813.27	0.0032
1822.91	0.00314
1832.55	0.00318
1842.2	0.00286
1851.84	0.0026147
1861.49	0.0024609
1871.13	0.0024671
1880.78	0.0026746
1890.42	0.00333
1900.07	0.0038
1909.71	0.00378
1919.36	0.00364
1929	0.00312
1938.65	0.00359
1948.29	0.00397
1957.94	0.002679
1967.58	0.0022076
1977.23	0.0024695
1986.87	0.0023573
1996.52	0.0022564
2006.16	0.0024513
2015.81	0.0024581
2025.45	0.0023791
2035.1	0.0024258
2044.74	0.0022619
2054.38	0.002289
2064.03	0.0023659
2073.67	0.0023018
2083.32	0.0022423
2092.96	0.0025064
2102.61	0.0023518
2112.25	0.0025416
2121.9	0.0025782
2131.54	0.0023673
2141.19	0.0021095
2150.83	0.0022777
2160.48	0.0023487
2170.12	0.0023371
2179.77	0.0023748
2189.41	0.0023537
2199.06	0.0021725
2208.7	0.0022919
2218.35	0.0020631
2227.99	0.0026074
2237.64	0.00279
2247.28	0.00313
2256.92	0.0024865
2266.57	0.0022554
2276.21	0.0026973
2285.86	0.00276
2295.5	0.00286
2305.15	0.0026389
2314.79	0.0026128
2324.44	0.0024248
2334.08	0.0024061
2343.73	0.0024654
2353.37	0.0022251
2363.02	0.0024954
2372.66	0.0023827
2382.31	0.0022332
2391.95	0.0024314
2401.6	0.0025903
2411.24	0.0026976
2420.89	0.0025931
2430.53	0.002669
2440.18	0.0025871
2449.82	0.00299
2459.47	0.002596
2469.11	0.0029
2478.75	0.002661
2488.4	0.0025417
2498.04	0.0024614
2507.69	0.0021056
2517.33	0.0023741
2526.98	0.0027161
2536.62	0.0023435
2546.27	0.0024372
2555.91	0.0024818
2565.56	0.002319
2575.2	0.0026367
2584.85	0.0024058
2594.49	0.0026934
2604.14	0.0024201
2613.78	0.0024056
2623.43	0.0023068
2633.07	0.0025541
2642.72	0.0026119
2652.36	0.0023819
2662.01	0.0025527
2671.65	0.0022895
2681.29	0.00298
2690.94	0.0025488
2700.58	0.0020886
2710.23	0.0023125
2719.87	0.002331
2729.52	0.002683
2739.16	0.0022747
2748.81	0.0024166
2758.45	0.0024623
2768.1	0.0019871
2777.74	0.0019277
2787.39	0.002408
2797.03	0.0024006
2806.68	0.0022996
2816.32	0.0021238
2825.97	0.0025939
2835.61	0.00297
2845.26	0.0021184
2854.9	0.0025558
2864.55	0.0023564
2874.19	0.0020637
2883.84	0.00299
2893.48	0.0023441
2903.12	0.0024343
2912.77	0.00319
2922.41	0.00363
2932.06	0.00401
2941.7	0.00573
2951.35	0.00498
2960.99	0.0033
2970.64	0.00411
2980.28	0.00344
2989.93	0.0036
2999.57	0.00411
3009.22	0.00472
3018.86	0.00557
3028.51	0.00589
3038.15	0.00705
3047.8	0.01244
3057.44	0.02609
3067.09	0.02916
3076.73	0.01666
3086.38	0.01112
3096.02	0.00628
3105.67	0.00388
3115.31	0.00301
3124.95	0.00293
3134.6	0.00351
3144.24	0.00284
3153.89	0.00303
3163.53	0.00288
3173.18	0.002048
3182.82	0.0025654
3192.47	0.0026715
3202.11	0.00278
3211.76	0.0023073
3221.4	0.0024371
3231.05	0.0027132
3240.69	0.0023712
3250.34	0.0021757
3259.98	0.0022786
3269.63	0.0022738
3279.27	0.0026678
3288.92	0.0022394
3298.56	0.0019756
3308.21	0.0020942
3317.85	0.002554
3327.49	0.0021223
3337.14	0.0026328
3346.78	0.0020657
3356.43	0.0022102
3366.07	0.00181237
3375.72	0.00175649
3385.36	0.001411
3395.01	0.0023709
3404.65	0.0019527
3414.3	0.0021997
3423.94	0.0025742
3433.59	0.002537
3443.23	0.002341
3452.88	0.0024124
3462.52	0.0025931
3472.17	0.002135
3481.81	0.002445
3491.46	0.0022023
3501.1	0.0018661
3510.75	0.0020192
3520.39	0.00263
3530.04	0.0016952
3539.68	0.0023474
3549.32	0.0025641
3558.97	0.0019734
3568.61	0.0020584
3578.26	0.0019804
3587.9	0.00281
3597.55	0.0028
3607.19	0.0025962
3616.84	0.0025162
3626.48	0.0022627
3636.13	0.002208
3645.77	0.0022541
3655.42	0.0026784
3665.06	0.0021281
3674.71	0.0021593
3684.35	0.0025338
3694	0.00283
3703.64	0.0020902
3713.29	0.0018553
3722.93	0.0025694
3732.58	0.0026313
3742.22	0.0021895
3751.86	0.0017025
3761.51	0.0025767
3771.15	0.0021004
3780.8	0.0023712
3790.44	0.0023452
3800.09	0.00292
3809.73	0.0023244
3819.38	0.00275
3829.02	0.0022841
3838.67	0.0024041
3848.31	0.00276
3857.96	0.0021376
3867.6	0.00287
3877.25	0.0021178
3886.89	0.0023631
3896.54	0.002312
3906.18	0.00318
3915.83	0.0021741
3925.47	0.0027071
3935.12	0.0023305
3944.76	0.002222
3954.41	0.0026116
3964.05	0.0023915
3973.69	0.0026471
3983.34	0.0025704
3992.98	0.0023339
