Infrared Spectrum: 1,2,3,4,5,6,7,8-Octahydrophenanthrene
Formula: C 14 H 18
CAS: 5325-97-3
State: gas
Instrument: HP-GC/MS/IRD
Origin: NIST Mass Spectrometry Data Center
1/CM	ABSORBANCE
550	0.0004588
562	5.55e-05
574	5.92e-05
586	8.14e-05
598	5.55e-05
610	6.66e-05
622	7.4e-05
634	7.03e-05
646	0.0001184
658	8.51e-05
670	2.96e-05
682	2.59e-05
694	0.000111
706	0.0001184
718	0.0001036
730	0.0001517
742	0.0001702
754	0.0002257
766	0.0003367
778	0.0006845
790	0.0019647
802	0.0019647
814	0.0012358
826	0.0010989
838	0.0005994
850	0.0003404
862	0.0003478
874	0.0005032
886	0.0003774
898	0.0003293
910	0.0003478
922	0.0002405
934	0.0001813
946	0.000296
958	0.0003219
970	0.0002701
982	0.0002368
994	0.000185
1006	9.62e-05
1018	9.62e-05
1030	9.62e-05
1042	0.0001443
1054	0.0001517
1066	0.0001887
1078	0.0002072
1090	0.0001369
1102	0.0001258
1114	0.0001517
1126	0.0001998
1138	0.0003293
1150	0.0003774
1162	0.0004625
1174	0.000333
1186	0.0001887
1198	0.000185
1210	0.0003848
1222	0.0004107
1234	0.0003848
1246	0.0012062
1258	0.0009287
1270	0.0005254
1282	0.0003811
1294	0.0003774
1306	0.0006623
1318	0.0007659
1330	0.000555
1342	0.0006882
1354	0.000777
1366	0.0004218
1378	0.0002627
1390	0.0002664
1402	0.0003626
1414	0.0007104
1426	0.0011137
1438	0.00222
1450	0.0030451
1462	0.0022607
1474	0.0024309
1486	0.0026381
1498	0.0006697
1510	0.0002331
1522	0.0001258
1534	0.0001332
1546	0.000111
1558	0.0001221
1570	0.0003219
1582	0.0004181
1594	0.0002627
1606	0.0001406
1618	0.000111
1630	0.0001036
1642	7.03e-05
1654	4.44e-05
1666	6.66e-05
1678	4.44e-05
1690	5.18e-05
1702	3.33e-05
1714	5.92e-05
1726	0.0001147
1738	0.0001776
1750	5.92e-05
1762	5.92e-05
1774	4.44e-05
1786	5.92e-05
1798	3.33e-05
1810	4.81e-05
1822	2.22e-05
1834	2.96e-05
1846	7.4e-05
1858	0.000111
1870	0.0001036
1882	0.000222
1894	0.0002035
1906	8.51e-05
1918	4.07e-05
1930	4.07e-05
1942	2.22e-05
1954	3.33e-05
1966	3.7e-05
1978	2.59e-05
1990	3.7e-06
2002	4.07e-05
2014	2.59e-05
2026	4.07e-05
2038	3.33e-05
2050	2.59e-05
2062	2.59e-05
2074	2.59e-05
2086	1.11e-05
2098	2.59e-05
2110	0
2122	2.59e-05
2134	1.85e-05
2146	1.11e-05
2158	1.11e-05
2170	2.96e-05
2182	2.96e-05
2194	3.7e-06
2206	3.33e-05
2218	2.96e-05
2230	4.44e-05
2242	6.66e-05
2254	3.7e-06
2266	1.85e-05
2278	2.96e-05
2290	4.07e-05
2302	3.33e-05
2314	5.55e-05
2326	7.03e-05
2338	2.96e-05
2350	2.59e-05
2362	0
2374	1.85e-05
2386	1.11e-05
2398	5.92e-05
2410	5.18e-05
2422	5.55e-05
2434	3.33e-05
2446	2.96e-05
2458	0
2470	2.59e-05
2482	4.07e-05
2494	4.44e-05
2506	6.29e-05
2518	5.92e-05
2530	4.07e-05
2542	5.18e-05
2554	2.96e-05
2566	7.77e-05
2578	7.03e-05
2590	0.0001184
2602	0.0001221
2614	0.0001369
2626	0.0001628
2638	0.000185
2650	0.0002886
2662	0.0004699
2674	0.0004403
2686	0.0003367
2698	0.0002405
2710	0.0002109
2722	0.0002146
2734	0.0002479
2746	0.000333
2758	0.0003922
2770	0.0004773
2782	0.0006253
2794	0.0007622
2806	0.0009731
2818	0.0013579
2830	0.0023532
2842	0.0057424
2854	0.0082103
2866	0.0114515
2878	0.0099419
2890	0.0076442
2902	0.0071151
2914	0.0096126
2926	0.0230991
2938	0.037
2950	0.0264809
2962	0.0065157
2974	0.0028305
2986	0.0020572
2998	0.0020646
3010	0.0028305
3022	0.0024864
3034	0.0025345
3046	0.0020942
3058	0.0016317
3070	0.0010804
3082	0.0005217
3094	0.0003293
3106	0.0002072
3118	0.0001295
3130	0.0001073
3142	0.0001147
3154	0.0001443
3166	0.0001665
3178	0.0001554
3190	0.0001295
3202	0.000185
3214	0.0001517
3226	0.0001665
3238	8.14e-05
3250	0.0001073
3262	7.77e-05
3274	5.92e-05
3286	7.77e-05
3298	9.62e-05
3310	8.14e-05
3322	8.88e-05
3334	7.03e-05
3346	2.22e-05
3358	6.66e-05
3370	7.03e-05
3382	0.0001702
3394	9.99e-05
3406	0.0001147
3418	9.62e-05
3430	8.14e-05
3442	8.88e-05
3454	0.0001295
3466	8.51e-05
3478	5.92e-05
3490	0.0001221
3502	9.25e-05
3514	9.62e-05
3526	4.81e-05
3538	7.03e-05
3550	7.03e-05
3562	0.0001258
3574	0.000111
3586	6.29e-05
3598	0.0001665
3610	1.85e-05
3622	8.51e-05
3634	7.03e-05
3646	9.25e-05
3658	7.77e-05
3670	0.0001073
3682	0.0001332
3694	4.81e-05
3706	0.0001184
3718	0.0001258
3730	0.0001184
3742	9.25e-05
3754	0.0001036
3766	0.0001591
3778	0.0001924
3790	0.0001221
3802	0.0001665
3814	0.000148
3826	0.0001813
3838	0.0001258
