Infrared Spectrum: PHOSPHORIC TRIAMIDE, TRIPHENYL
Formula: C18 H18 N3 O P
CAS: 5326-10-3
State: SOLID (NUJOL MULL)
Class: COBLENTZ
Instrument: Not specified, most likely a prism, grating, or hybrid spectrometer.
Sampling: TRANSMISSION
Resolution: 4
Origin: TENNESSEE EASTMAN COMPANY, RESEARCH LABORATORIES
MICROMETERS	TRANSMITTANCE
2.038	0.63
2.07807	0.645
2.11814	0.653
2.1582	0.657
2.19827	0.662
2.23834	0.67
2.27841	0.673
2.31847	0.673
2.35854	0.677
2.39861	0.687
2.43868	0.693
2.47875	0.702
2.51881	0.709
2.55888	0.734
2.59895	0.742
2.63902	0.744
2.67909	0.752
2.71915	0.757
2.75922	0.765
2.79929	0.767
2.83936	0.769
2.87942	0.777
2.91949	0.787
2.95956	0.794
2.99963	0.635
3.0397	0.566
3.07976	0.66
3.11983	0.683
3.1599	0.71
3.19997	0.735
3.24004	0.757
3.2801	0.754
3.32017	0.712
3.36024	0.58
3.40031	0.15
3.44037	0.053
3.48044	0.214
3.52051	0.178
3.56058	0.707
3.60065	0.811
3.64071	0.839
3.68078	0.842
3.72085	0.839
3.76092	0.844
3.80099	0.847
3.84105	0.851
3.88112	0.854
3.92119	0.859
3.96126	0.872
4.00132	0.874
4.04139	0.877
4.08146	0.886
4.12153	0.896
4.1616	0.899
4.20166	0.901
4.24173	0.908
4.2818	0.929
4.32187	0.928
4.36194	0.918
4.402	0.918
4.44207	0.923
4.48214	0.929
4.52221	0.933
4.56227	0.934
4.60234	0.934
4.64241	0.938
4.68248	0.943
4.72255	0.946
4.76261	0.946
4.80268	0.948
4.84275	0.949
4.88282	0.951
4.92288	0.953
4.96295	0.951
5.00302	0.954
5.04309	0.966
5.08316	0.963
5.12322	0.963
5.16329	0.959
5.20336	0.953
5.24343	0.963
5.2835	0.968
5.32356	0.968
5.36363	0.968
5.4037	0.956
5.44377	0.961
5.48383	0.971
5.5239	0.969
5.56397	0.976
5.60404	0.973
5.64411	0.974
5.68417	0.976
5.72424	0.979
5.76431	0.978
5.80438	0.969
5.84445	0.976
5.88451	0.969
5.92458	0.971
5.96465	0.973
6.00472	0.976
6.04478	0.978
6.08485	0.981
6.12492	0.978
6.16499	0.979
6.20506	0.948
6.24512	0.68
6.28519	0.548
6.32526	0.826
6.36533	0.881
6.4054	0.938
6.44546	0.941
6.48553	0.954
6.5256	0.953
6.56567	0.949
6.60573	0.914
6.6458	0.62
6.68587	0.438
6.72594	0.483
6.76601	0.489
6.80607	0.436
6.84614	0.448
6.88621	0.531
6.92628	0.668
6.96634	0.787
7.00641	0.874
7.04648	0.871
7.08655	0.832
7.12662	0.628
7.16668	0.474
7.20675	0.521
7.24682	0.494
7.28689	0.54
7.32696	0.687
7.36702	0.769
7.40709	0.826
7.44716	0.849
7.48723	0.859
7.52729	0.867
7.56736	0.849
7.60743	0.871
7.6475	0.864
7.68757	0.799
7.72763	0.715
7.7677	0.593
7.80777	0.411
7.84784	0.653
7.88791	0.764
7.92797	0.836
7.96804	0.857
8.00811	0.849
8.04818	0.792
8.08824	0.688
8.12831	0.471
8.16838	0.428
8.20845	0.294
8.24852	0.387
8.28858	0.658
8.32865	0.76
8.36872	0.817
8.40879	0.847
8.44886	0.837
8.48892	0.832
8.52899	0.862
8.56906	0.879
8.60913	0.864
8.64919	0.847
8.68926	0.884
8.72933	0.913
8.7694	0.924
8.80947	0.931
8.84953	0.938
8.8896	0.941
8.92967	0.943
8.96974	0.943
9.00981	0.941
9.04987	0.939
9.08994	0.946
9.13001	0.949
9.17008	0.949
9.21014	0.931
9.25021	0.809
9.29028	0.854
9.33035	0.913
9.37042	0.933
9.41048	0.946
9.45055	0.949
9.49062	0.949
9.53069	0.949
9.57075	0.949
9.61082	0.939
9.65089	0.887
9.69096	0.76
9.73103	0.821
9.77109	0.889
9.81116	0.933
9.85123	0.946
9.8913	0.951
9.93137	0.934
9.97143	0.826
10.0115	0.827
10.0516	0.904
10.0916	0.923
10.1317	0.924
10.1718	0.929
10.2118	0.919
10.2519	0.909
10.292	0.903
10.332	0.886
10.3721	0.847
10.4122	0.801
10.4522	0.745
10.4923	0.665
10.5324	0.521
10.5725	0.401
10.6125	0.387
10.6526	0.471
10.6927	0.446
10.7327	0.361
10.7728	0.444
10.8129	0.57
10.8529	0.68
10.893	0.74
10.9331	0.779
10.9731	0.819
11.0132	0.856
11.0533	0.866
11.0933	0.862
11.1334	0.851
11.1735	0.836
11.2135	0.861
11.2536	0.882
11.2937	0.901
11.3337	0.913
11.3738	0.928
11.4139	0.938
11.4539	0.944
11.494	0.951
11.5341	0.959
11.5741	0.961
11.6142	0.963
11.6543	0.963
11.6944	0.963
11.7344	0.964
11.7745	0.964
11.8146	0.964
11.8546	0.964
11.8947	0.968
11.9348	0.968
11.9748	0.968
12.0149	0.966
12.055	0.964
12.095	0.961
12.1351	0.958
12.1752	0.954
12.2152	0.949
12.2553	0.949
12.2954	0.949
12.3354	0.951
12.3755	0.949
12.4156	0.941
12.4556	0.919
12.4957	0.881
12.5358	0.846
12.5758	0.812
12.6159	0.814
12.656	0.821
12.696	0.837
12.7361	0.847
12.7762	0.851
12.8163	0.851
12.8563	0.852
12.8964	0.854
12.9365	0.856
12.9765	0.856
13.0166	0.846
13.0567	0.807
13.0967	0.744
13.1368	0.608
13.1769	0.528
13.2169	0.451
13.257	0.394
13.2971	0.431
13.3371	0.536
13.3772	0.59
13.4173	0.668
13.4573	0.734
13.4974	0.78
13.5375	0.804
13.5775	0.814
13.6176	0.824
13.6577	0.831
13.6977	0.842
13.7378	0.842
13.7779	0.842
13.8179	0.841
13.858	0.844
13.8981	0.849
13.9382	0.852
13.9782	0.854
14.0183	0.852
14.0584	0.856
14.0984	0.856
14.1385	0.852
14.1786	0.846
14.2186	0.832
14.2587	0.799
14.2988	0.76
14.3388	0.693
14.3789	0.605
14.419	0.545
14.459	0.526
14.4991	0.546
14.5392	0.613
14.5792	0.673
14.6193	0.719
14.6594	0.747
14.6994	0.764
14.7395	0.769
14.7796	0.772
14.8196	0.772
14.8597	0.772
14.8998	0.77
14.9398	0.767
14.9799	0.764
15.02	0.765
15.06	0.764
15.1001	0.759
15.1402	0.75
15.1803	0.745
15.2203	0.74
15.2604	0.737
15.3005	0.732
15.3405	0.727
15.3806	0.724
15.4207	0.717
15.4607	0.712
15.5008	0.707
15.5409	0.702
15.5809	0.698
15.621	0.698
15.6611	0.693
15.7011	0.69
15.7412	0.68
15.7813	0.677
15.8213	0.67
15.8614	0.665
15.9015	0.658
15.9415	0.657
15.9816	0.655
