Infrared Spectrum: 6-Chloronicotinic acid
Formula: C 6 H 4 Cl N O 2
CAS: 5326-23-8
State: gas
Instrument: HP-GC/MS/IRD
Origin: NIST Mass Spectrometry Data Center
1/CM	ABSORBANCE
550	0.0014376
562	0.0025416
574	0.0029592
586	0.0021528
598	0.0009432
610	0.000372
622	0.000408
634	0.0004008
646	0.0002424
658	0.00018
670	0.0009504
682	0.0016656
694	0.000504
706	0.0005016
718	0.0006552
730	0.0006
742	0.0006456
754	0.00144
766	0.0030864
778	0.002952
790	0.0034416
802	0.0021888
814	0.0010704
826	0.0008736
838	0.000936
850	0.0006672
862	0.00036
874	0.0002544
886	0.000108
898	0.0001128
910	8.4e-05
922	6.72e-05
934	0.0001704
946	0.0002664
958	0.0002304
970	0.0002448
982	0.00018
994	0.0003504
1006	0.0012048
1018	0.002388
1030	0.0013728
1042	0.0008712
1054	0.0010584
1066	0.0021144
1078	0.0058992
1090	0.0119424
1102	0.0146712
1114	0.0148848
1126	0.0087168
1138	0.0050712
1150	0.0019896
1162	0.0020208
1174	0.0048096
1186	0.0085416
1198	0.0049344
1210	0.0017472
1222	0.0011664
1234	0.0014544
1246	0.001644
1258	0.0016584
1270	0.0021264
1282	0.0029952
1294	0.0030072
1306	0.002172
1318	0.0023064
1330	0.0034968
1342	0.003504
1354	0.0048264
1366	0.00894
1378	0.0062184
1390	0.0022224
1402	0.0010608
1414	0.0007176
1426	0.000696
1438	0.001176
1450	0.0024768
1462	0.0042792
1474	0.00192
1486	0.0005112
1498	0.0003984
1510	0.00042
1522	0.0005424
1534	0.0010776
1546	0.0021504
1558	0.003144
1570	0.0039168
1582	0.0073512
1594	0.007764
1606	0.0020736
1618	0.0007584
1630	0.0004992
1642	0.0003768
1654	0.0003288
1666	0.0003504
1678	0.00042
1690	0.0005808
1702	0.0007872
1714	0.0010272
1726	0.0012624
1738	0.0023328
1750	0.0076992
1762	0.0222936
1774	0.0200376
1786	0.0054144
1798	0.0015456
1810	0.0009096
1822	0.0008328
1834	0.0005808
1846	0.0003936
1858	0.0003168
1870	0.0003504
1882	0.0003384
1894	0.000396
1906	0.0003432
1918	0.0002424
1930	0.0002616
1942	0.0002664
1954	0.000204
1966	0.0001968
1978	0.0001968
1990	0.0001512
2002	0.0001104
2014	0.0001368
2026	0.0001248
2038	8.64e-05
2050	7.68e-05
2062	0.000132
2074	0.000108
2086	0.0001128
2098	0.0001032
2110	0.0001176
2122	0.0001128
2134	9.36e-05
2146	0.0001464
2158	0.0001368
2170	0.000132
2182	0.0001704
2194	0.000108
2206	7.92e-05
2218	6.24e-05
2230	7.44e-05
2242	9.12e-05
2254	0.0001536
2266	0.0001416
2278	0.0001008
2290	8.4e-05
2302	0.0001176
2314	0.0001176
2326	0.000132
2338	0.0001464
2350	0.0001848
2362	0.0002064
2374	0.0002112
2386	0.0001368
2398	0.0001176
2410	0.0001416
2422	0.0001104
2434	0.000144
2446	0.0001584
2458	0.000168
2470	0.0001896
2482	0.0001704
2494	0.0001272
2506	8.88e-05
2518	0.000108
2530	9.6e-05
2542	0.0001008
2554	9.12e-05
2566	0.0001104
2578	8.4e-05
2590	6.96e-05
2602	0.00012
2614	0.0001104
2626	0.0001248
2638	6e-05
2650	6.96e-05
2662	0.0001176
2674	7.44e-05
2686	7.68e-05
2698	0.0001176
2710	8.16e-05
2722	9.12e-05
2734	4.32e-05
2746	6.72e-05
2758	4.56e-05
2770	6.72e-05
2782	8.88e-05
2794	7.92e-05
2806	2.4e-05
2818	3.6e-05
2830	6.24e-05
2842	0.0001248
2854	0.0001248
2866	6.48e-05
2878	0.0001008
2890	0.000132
2902	7.44e-05
2914	9.6e-05
2926	3.12e-05
2938	5.76e-05
2950	0.000132
2962	7.92e-05
2974	9.12e-05
2986	0.0001032
2998	9.84e-05
3010	0.0001512
3022	0.0001272
3034	0.0001296
3046	0.000108
3058	0.0001296
3070	0.000168
3082	0.0002304
3094	0.0002856
3106	0.0002256
3118	6.24e-05
3130	0.0001416
3142	0.0001704
3154	0.0001032
3166	0.0001032
3178	0.0001488
3190	0.0001056
3202	6.96e-05
3214	4.8e-05
3226	6.96e-05
3238	4.56e-05
3250	7.92e-05
3262	0.0001512
3274	9.36e-05
3286	0.0001632
3298	0.0001512
3310	0.0001296
3322	0.000204
3334	0.0001176
3346	0.000132
3358	0.0001008
3370	0.000216
3382	0.0001368
3394	0.0001056
3406	0.0002952
3418	0.0002016
3430	0.0002328
3442	0.0001776
3454	0.0001896
3466	0.00012
3478	0.0002112
3490	0.000348
3502	0.0004272
3514	0.00048
3526	0.0005256
3538	0.000348
3550	0.0005064
3562	0.0013752
3574	0.00636
3586	0.0080976
3598	0.0012408
3610	0.0003672
3622	0.0003216
3634	0.0002952
3646	0.0003192
3658	0.000216
3670	0.0003504
3682	0.0002664
3694	0.000312
3706	0.0003192
3718	0.0002784
3730	0.0001824
3742	0.0002592
3754	0.0002232
3766	0.0002448
3778	0.0001656
3790	0.0001896
3802	0.0002544
3814	0.0002472
3826	0.0001992
3838	0.0001944
