Infrared Spectrum: 4-Bromo-3-nitrotoluene
Formula: C7 H6 Br N O2
CAS: 5326-34-1
State: gas
Origin: EPA-IR VAPOR PHASE LIBRARY
1/CM	ABSORBANCE
549.8	0.0003412
559.445	0.00137
569.09	0.0016
578.734	0.00171
588.379	0.0011589
598.024	0.00164
607.669	0.00267
617.313	0.00221
626.958	0.0011282
636.603	0.0006135
646.248	0.0006152
655.893	0.0010649
665.537	0.00406
675.182	0.00637
684.827	0.00225
694.472	0.0011257
704.116	0.0008834
713.761	0.0009259
723.406	0.000945
733.051	0.00142
742.695	0.00242
752.34	0.00246
761.985	0.00195
771.63	0.0024
781.275	0.00398
790.919	0.01336
800.564	0.0244
810.209	0.02286
819.854	0.01281
829.498	0.00382
839.143	0.00126
848.788	0.0009478
858.433	0.000643
868.078	0.002
877.722	0.00418
887.367	0.00297
897.012	0.00198
906.657	0.00375
916.301	0.00382
925.946	0.00152
935.591	0.0005597
945.236	0.0010799
954.88	0.00124
964.525	0.0008147
974.17	0.0007547
983.815	0.0008007
993.46	0.000991
1003.1	0.001115
1012.75	0.00186
1022.39	0.0072
1032.04	0.0195
1041.68	0.01555
1051.33	0.00479
1060.97	0.00266
1070.62	0.0016
1080.26	0.00124
1089.91	0.0014
1099.55	0.0009186
1109.2	0.00136
1118.84	0.00322
1128.49	0.00415
1138.13	0.00312
1147.78	0.00211
1157.42	0.00197
1167.07	0.00143
1176.71	0.0010546
1186.36	0.00155
1196	0.00122
1205.64	0.00135
1215.29	0.00189
1224.93	0.00133
1234.58	0.00169
1244.22	0.0023
1253.87	0.00401
1263.51	0.0049
1273.16	0.00372
1282.8	0.0041
1292.45	0.00596
1302.09	0.00696
1311.74	0.00687
1321.38	0.00729
1331.03	0.00948
1340.67	0.01837
1350.32	0.03778
1359.96	0.04942
1369.61	0.03038
1379.25	0.01045
1388.9	0.00677
1398.54	0.00564
1408.18	0.00541
1417.83	0.00519
1427.47	0.00461
1437.12	0.0038
1446.76	0.00418
1456.41	0.00607
1466.05	0.01365
1475.7	0.02115
1485.34	0.01428
1494.99	0.01091
1504.63	0.01332
1514.28	0.01826
1523.92	0.0273
1533.57	0.04016
1543.21	0.06468
1552.86	0.09277
1562.5	0.06534
1572.15	0.03859
1581.79	0.02944
1591.44	0.0171
1601.08	0.00985
1610.73	0.00604
1620.37	0.00398
1630.01	0.0027
1639.66	0.00188
1649.3	0.00137
1658.95	0.0010957
1668.59	0.0009401
1678.24	0.0010521
1687.88	0.00125
1697.53	0.0011335
1707.17	0.0009225
1716.82	0.0007379
1726.46	0.0007424
1736.11	0.0008843
1745.75	0.00125
1755.4	0.00154
1765.04	0.00141
1774.69	0.0007776
1784.33	0.0005749
1793.98	0.0005018
1803.62	0.0005454
1813.27	0.0006451
1822.91	0.0007867
1832.55	0.0008988
1842.2	0.0006865
1851.84	0.0005494
1861.49	0.0004506
1871.13	0.0004723
1880.78	0.0005496
1890.42	0.0006858
1900.07	0.00121
1909.71	0.00124
1919.36	0.0007138
1929	0.0005323
1938.65	0.0004874
1948.29	0.0004255
1957.94	0.0003364
1967.58	0.0003467
1977.23	0.0003683
1986.87	0.0003706
1996.52	0.000361
2006.16	0.0003736
2015.81	0.000334
2025.45	0.000283
2035.1	0.0003839
2044.74	0.00027388
2054.38	0.0003673
2064.03	0.0003575
2073.67	0.0003067
2083.32	0.0003183
2092.96	0.00026392
2102.61	0.0002939
2112.25	0.0002951
2121.9	0.00023347
2131.54	0.0002903
2141.19	0.0003265
2150.83	0.00026255
2160.48	0.0004338
2170.12	0.0003247
2179.77	0.000398
2189.41	0.0004453
2199.06	0.0003922
2208.7	0.0002834
2218.35	0.0003396
2227.99	0.0003272
2237.64	0.0002803
2247.28	0.0004094
2256.92	0.0003801
2266.57	0.0003893
2276.21	0.0004771
2285.86	0.0005199
2295.5	0.0005821
2305.15	0.0003598
2314.79	0.0003895
2324.44	0.0004329
2334.08	0.0004286
2343.73	0.0004996
2353.37	0.0005977
2363.02	0.0005582
2372.66	0.0005387
2382.31	0.0006134
2391.95	0.0005503
2401.6	0.0005386
2411.24	0.0005292
2420.89	0.0006146
2430.53	0.0004596
2440.18	0.0005159
2449.82	0.0005181
2459.47	0.000546
2469.11	0.0005381
2478.75	0.0005577
2488.4	0.0004338
2498.04	0.0004417
2507.69	0.0004795
2517.33	0.0004728
2526.98	0.0005349
2536.62	0.0004803
2546.27	0.0004398
2555.91	0.0004295
2565.56	0.0004168
2575.2	0.0004452
2584.85	0.0005148
2594.49	0.0006077
2604.14	0.0007375
2613.78	0.0007078
2623.43	0.0006918
2633.07	0.0007746
2642.72	0.0006216
2652.36	0.0006178
2662.01	0.0007026
2671.65	0.0007254
2681.29	0.0008078
2690.94	0.0007779
2700.58	0.0007261
2710.23	0.0008783
2719.87	0.0008888
2729.52	0.0006778
2739.16	0.0007607
2748.81	0.0009474
2758.45	0.0008192
2768.1	0.0007059
2777.74	0.0007615
2787.39	0.0006649
2797.03	0.000585
2806.68	0.0007563
2816.32	0.0009116
2825.97	0.0010687
2835.61	0.00133
2845.26	0.00182
2854.9	0.00226
2864.55	0.00322
2874.19	0.00418
2883.84	0.00446
2893.48	0.00448
2903.12	0.00461
2912.77	0.00449
2922.41	0.00529
2932.06	0.00812
2941.7	0.00893
2951.35	0.00549
2960.99	0.00362
2970.64	0.00269
2980.28	0.00236
2989.93	0.00235
2999.57	0.00299
3009.22	0.00344
3018.86	0.00336
3028.51	0.00367
3038.15	0.00446
3047.8	0.00428
3057.44	0.00352
3067.09	0.00353
3076.73	0.00305
3086.38	0.00185
3096.02	0.00135
3105.67	0.0010255
3115.31	0.0007222
3124.95	0.0006884
3134.6	0.0006042
3144.24	0.0005137
3153.89	0.0005317
3163.53	0.0005613
3173.18	0.0003111
3182.82	0.000586
3192.47	0.0003272
3202.11	0.0003559
3211.76	0.0005104
3221.4	0.00023484
3231.05	0.0003843
3240.69	0.0004112
3250.34	0.0004083
3259.98	0.0004906
3269.63	0.0004142
3279.27	0.000367
3288.92	0.00017649
3298.56	0.0004271
3308.21	0.00022145
3317.85	0.000187592
3327.49	0.0003635
3337.14	0.0004192
3346.78	0.00026115
3356.43	0.0004013
3366.07	0.00022934
3375.72	0.0004197
3385.36	0.0003485
3395.01	0.0002968
3404.65	0.00021787
3414.3	0.00027558
3423.94	0.0003378
3433.59	0.00022658
3443.23	0.0003989
3452.88	0.0002972
3462.52	0.0003193
3472.17	0.00018213
3481.81	0.00023189
3491.46	0.00026786
3501.1	0.00027229
3510.75	0.0003175
3520.39	0.00021068
3530.04	0.00020097
3539.68	0.0001472
3549.32	0.0003507
3558.97	0.0002351
3568.61	0.0002013
3578.26	0.00027043
3587.9	0.0003312
3597.55	0.0003695
3607.19	0.0003788
3616.84	0.0003656
3626.48	0.00025372
3636.13	0.000211
3645.77	0.0003076
3655.42	0.0003184
3665.06	0.0003277
3674.71	0.0005618
3684.35	0.00024772
3694	0.0003539
3703.64	0.0003061
3713.29	0.00021796
3722.93	0.00026708
3732.58	0.00017808
3742.22	0.00022837
3751.86	0.0003303
3761.51	0.0004361
3771.15	0.00021965
3780.8	0.00023869
3790.44	0.00023787
3800.09	0.0005082
3809.73	0.00020903
3819.38	0.0002881
3829.02	0.000481
3838.67	0.0003568
3848.31	0.00024514
3857.96	0.0003194
3867.6	0
3877.25	0.0004146
3886.89	0.0003912
3896.54	0.000186071
3906.18	0.000492
3915.83	0.00022567
3925.47	0.000363
3935.12	0.0004776
3944.76	0.00025024
3954.41	0.0004552
3964.05	0.00025353
3973.69	0.0003213
3983.34	0.0003398
3992.98	0.0004659
