Infrared Spectrum: 4-Iodo-3-nitrotoluene
Formula: C 7 H 6 I N O 2
CAS: 5326-39-6
State: gas
Origin: EPA-IR VAPOR PHASE LIBRARY
1/CM	ABSORBANCE
549.8	0.0012223
559.445	0.00219
569.09	0.00173
578.734	0.0016
588.379	0.0021
598.024	0.0024
607.669	0.00284
617.313	0.00189
626.958	0.0007335
636.603	0.0006869
646.248	0.0005723
655.893	0.00141
665.537	0.00795
675.182	0.01262
684.827	0.00402
694.472	0.00182
704.116	0.0011859
713.761	0.0011089
723.406	0.00174
733.051	0.00337
742.695	0.00587
752.34	0.00589
761.985	0.00443
771.63	0.00556
781.275	0.0082
790.919	0.03224
800.564	0.05249
810.209	0.04194
819.854	0.02521
829.498	0.00694
839.143	0.00235
848.788	0.00141
858.433	0.00178
868.078	0.00412
877.722	0.00894
887.367	0.00691
897.012	0.00407
906.657	0.00792
916.301	0.00787
925.946	0.00217
935.591	0.0013682
945.236	0.0017
954.88	0.00233
964.525	0.00219
974.17	0.00171
983.815	0.00196
993.46	0.00298
1003.1	0.00487
1012.75	0.02126
1022.39	0.04538
1032.04	0.01512
1041.68	0.00534
1051.33	0.00484
1060.97	0.00371
1070.62	0.003
1080.26	0.00284
1089.91	0.00209
1099.55	0.00197
1109.2	0.00252
1118.84	0.0033
1128.49	0.00242
1138.13	0.00371
1147.78	0.00518
1157.42	0.00321
1167.07	0.00251
1176.71	0.00185
1186.36	0.00172
1196	0.00221
1205.64	0.00346
1215.29	0.00481
1224.93	0.00352
1234.58	0.00376
1244.22	0.00648
1253.87	0.01448
1263.51	0.0135
1273.16	0.00773
1282.8	0.01083
1292.45	0.01359
1302.09	0.01278
1311.74	0.01191
1321.38	0.01383
1331.03	0.02052
1340.67	0.04478
1350.32	0.09362
1359.96	0.10639
1369.61	0.04936
1379.25	0.01869
1388.9	0.01403
1398.54	0.01171
1408.18	0.01101
1417.83	0.01
1427.47	0.00833
1437.12	0.0078
1446.76	0.00904
1456.41	0.01623
1466.05	0.03338
1475.7	0.03167
1485.34	0.01945
1494.99	0.0222
1504.63	0.02856
1514.28	0.04228
1523.92	0.06488
1533.57	0.09783
1543.21	0.15516
1552.86	0.18171
1562.5	0.12282
1572.15	0.08656
1581.79	0.05656
1591.44	0.03065
1601.08	0.02009
1610.73	0.01178
1620.37	0.00671
1630.01	0.00499
1639.66	0.00333
1649.3	0.00235
1658.95	0.00188
1668.59	0.00184
1678.24	0.00194
1687.88	0.00228
1697.53	0.00196
1707.17	0.00144
1716.82	0.0012191
1726.46	0.0010984
1736.11	0.0013056
1745.75	0.00189
1755.4	0.00269
1765.04	0.00271
1774.69	0.00156
1784.33	0.0007978
1793.98	0.0007383
1803.62	0.0008172
1813.27	0.0009705
1822.91	0.0011359
1832.55	0.00137
1842.2	0.0011438
1851.84	0.000822
1861.49	0.0007048
1871.13	0.0006651
1880.78	0.0006992
1890.42	0.0009949
1900.07	0.00183
1909.71	0.00237
1919.36	0.00158
1929	0.0009094
1938.65	0.0007803
1948.29	0.0006248
1957.94	0.00042707
1967.58	0.00038199
1977.23	0.0003468
1986.87	0.0004101
1996.52	0.0003406
2006.16	0.0004783
2015.81	0.00046628
2025.45	0.0005424
2035.1	0.0005505
2044.74	0.00044802
2054.38	0.0004832
2064.03	0.0004114
2073.67	0.0003278
2083.32	0.000372958
2092.96	0.0002906
2102.61	0.0002724
2112.25	0.000255
2121.9	0.0003449
2131.54	0.0003018
2141.19	0.0003329
2150.83	0.0003644
2160.48	0.0002991
2170.12	0.00040346
2179.77	0.0004787
2189.41	0.00046895
2199.06	0.00039115
2208.7	0.0003057
2218.35	0.000239
2227.99	0.000301
2237.64	0.000261
2247.28	0.00039776
2256.92	0.00040483
2266.57	0.0005876
2276.21	0.0004955
2285.86	0.0006629
2295.5	0.0007081
2305.15	0.0005987
2314.79	0.0005062
2324.44	0.0005561
2334.08	0.0007134
2343.73	0.0007288
2353.37	0.0008101
2363.02	0.0007742
2372.66	0.0008811
2382.31	0.000898
2391.95	0.0008507
2401.6	0.0006957
2411.24	0.0007573
2420.89	0.0008066
2430.53	0.0008872
2440.18	0.0007793
2449.82	0.0007951
2459.47	0.0009202
2469.11	0.0008942
2478.75	0.0007885
2488.4	0.0006631
2498.04	0.0006246
2507.69	0.0006179
2517.33	0.0005155
2526.98	0.0004786
2536.62	0.0005957
2546.27	0.0005806
2555.91	0.0005633
2565.56	0.0006778
2575.2	0.0008401
2584.85	0.0008835
2594.49	0.0010004
2604.14	0.0011331
2613.78	0.001088
2623.43	0.0010369
2633.07	0.0008921
2642.72	0.0009338
2652.36	0.0008824
2662.01	0.000889
2671.65	0.0008378
2681.29	0.0009356
2690.94	0.0010206
2700.58	0.0011528
2710.23	0.0012341
2719.87	0.0010513
2729.52	0.0010194
2739.16	0.0012124
2748.81	0.00156
2758.45	0.00151
2768.1	0.0011607
2777.74	0.0010686
2787.39	0.0010604
2797.03	0.0013245
2806.68	0.00157
2816.32	0.00183
2825.97	0.00212
2835.61	0.00264
2845.26	0.00345
2854.9	0.0049
2864.55	0.0068
2874.19	0.00896
2883.84	0.00977
2893.48	0.00999
2903.12	0.00956
2912.77	0.00897
2922.41	0.01109
2932.06	0.01835
2941.7	0.01937
2951.35	0.01131
2960.99	0.00721
2970.64	0.00552
2980.28	0.00442
2989.93	0.00477
2999.57	0.00633
3009.22	0.00713
3018.86	0.00728
3028.51	0.00824
3038.15	0.00951
3047.8	0.00908
3057.44	0.0088
3067.09	0.00911
3076.73	0.00645
3086.38	0.00364
3096.02	0.00238
3105.67	0.00162
3115.31	0.0009592
3124.95	0.0010928
3134.6	0.000816
3144.24	0.0006786
3153.89	0.0006398
3163.53	0.0006583
3173.18	0.0005065
3182.82	0.00039218
3192.47	0.0005075
3202.11	0.00040032
3211.76	0.00044851
3221.4	0.00040267
3231.05	0.000219
3240.69	0.0002843
3250.34	0.0002806
3259.98	0.00018
3269.63	0.000293
3279.27	0.0003909
3288.92	0.0002982
3298.56	0.00039101
3308.21	0.000106
3317.85	0.0003113
3327.49	0.00040259
3337.14	0.00023
3346.78	0.0002756
3356.43	0.0002814
3366.07	0.000353
3375.72	0.000256
3385.36	0.00023
3395.01	0.0003381
3404.65	0.0003144
3414.3	0.0003516
3423.94	0.0003391
3433.59	0.000177
3443.23	0.000131
3452.88	0.0003038
3462.52	0.000172
3472.17	0.000217
3481.81	0.000208
3491.46	0.0003297
3501.1	0.000186
3510.75	0.0003322
3520.39	0.0002873
3530.04	0.000215
3539.68	0.000199
3549.32	0.000242
3558.97	0.00039682
3568.61	0.000184
3578.26	9.9e-05
3587.9	0.000246
3597.55	0.000374194
3607.19	0.000326
3616.84	0.000151
3626.48	0.000104
3636.13	0.000175
3645.77	0.0003007
3655.42	0.0002975
3665.06	0.0003011
3674.71	0.00039102
3684.35	0.0003251
3694	0.0003005
3703.64	0.0003344
3713.29	0.0002839
3722.93	0.0003538
3732.58	0.00044272
3742.22	0.0003158
3751.86	0.0003186
3761.51	0.0002937
3771.15	0.0003591
3780.8	0.000242
3790.44	0.000248
3800.09	0.00039916
3809.73	0.0001
3819.38	0.0003587
3829.02	0.00022
3838.67	0.0003418
3848.31	0.000218
3857.96	0.000267
3867.6	0.0003517
3877.25	0.00039411
3886.89	0.000378569
3896.54	0.0003176
3906.18	0.0004802
3915.83	0.0002953
3925.47	0.00041429
3935.12	0.00043348
3944.76	0.00039801
3954.41	0.000217
3964.05	0.0003538
3973.69	0.00041312
3983.34	0.00039371
3992.98	0.000374839
