Infrared Spectrum: 2,4,6-TRICHLOROPHENYL HYDRAZINE
Formula: C6 H5 Cl3 N2
CAS: 5329-12-4
State: SOLID (OIL MULL)
Melting point: 142-143 C
Class: COBLENTZ
Instrument: Not specified, most likely a prism, grating, or hybrid spectrometer.
Sampling: TRANSMISSION
Resolution: 4
Origin: WYANDOTTE CHEMICALS CORP., WYANDOTTE, MICHIGAN, USA
MICROMETERS	TRANSMITTANCE
2.103	0.536
2.14287	0.548
2.18273	0.548
2.2226	0.548
2.26247	0.548
2.30234	0.553
2.3422	0.561
2.38207	0.569
2.42194	0.581
2.4618	0.583
2.50167	0.588
2.54154	0.598
2.5814	0.604
2.62127	0.617
2.66114	0.612
2.70101	0.619
2.74087	0.616
2.78074	0.631
2.82061	0.626
2.86047	0.629
2.90034	0.632
2.94021	0.637
2.98008	0.526
3.01994	0.451
3.05981	0.2
3.09968	0.254
3.13954	0.275
3.17941	0.408
3.21928	0.378
3.25915	0.446
3.29901	0.345
3.33888	0.051
3.37875	0.041
3.41861	0.081
3.45848	0.098
3.49835	0.245
3.53821	0.593
3.57808	0.674
3.61795	0.699
3.65782	0.7
3.69768	0.702
3.73755	0.71
3.77742	0.724
3.81728	0.725
3.85715	0.725
3.89702	0.745
3.93689	0.759
3.97675	0.767
4.01662	0.772
4.05649	0.777
4.09635	0.78
4.13622	0.785
4.17609	0.787
4.21596	0.772
4.25582	0.749
4.29569	0.77
4.33556	0.802
4.37542	0.832
4.41529	0.827
4.45516	0.82
4.49502	0.828
4.53489	0.828
4.57476	0.83
4.61463	0.833
4.65449	0.842
4.69436	0.855
4.73423	0.863
4.77409	0.873
4.81396	0.872
4.85383	0.875
4.8937	0.88
4.93356	0.873
4.97343	0.87
5.0133	0.875
5.05316	0.885
5.09303	0.903
5.1329	0.906
5.17277	0.901
5.21263	0.895
5.2525	0.911
5.29237	0.918
5.33223	0.916
5.3721	0.936
5.41197	0.931
5.45183	0.946
5.4917	0.941
5.53157	0.945
5.57144	0.948
5.6113	0.95
5.65117	0.946
5.69104	0.938
5.7309	0.888
5.77077	0.802
5.81064	0.918
5.85051	0.936
5.89037	0.938
5.93024	0.953
5.97011	0.963
6.00997	0.931
6.04984	0.911
6.08971	0.898
6.12958	0.735
6.16944	0.559
6.20931	0.789
6.24918	0.792
6.28904	0.661
6.32891	0.501
6.36878	0.621
6.40864	0.747
6.44851	0.872
6.48838	0.913
6.52825	0.936
6.56811	0.897
6.60798	0.759
6.64785	0.49
6.68771	0.431
6.72758	0.385
6.76745	0.277
6.80732	0.2
6.84718	0.181
6.88705	0.28
6.92692	0.269
6.96678	0.367
7.00665	0.631
7.04652	0.702
7.08639	0.759
7.12625	0.656
7.16612	0.335
7.20599	0.305
7.24585	0.365
7.28572	0.48
7.32559	0.674
7.36545	0.732
7.40532	0.762
7.44519	0.782
7.48506	0.757
7.52492	0.735
7.56479	0.626
7.60466	0.503
7.64452	0.468
7.68439	0.559
7.72426	0.642
7.76413	0.702
7.80399	0.749
7.84386	0.742
7.88373	0.704
7.92359	0.539
7.96346	0.588
8.00333	0.644
8.04319	0.744
8.08306	0.803
8.12293	0.833
8.1628	0.867
8.20266	0.883
8.24253	0.897
8.2824	0.858
8.32226	0.531
8.36213	0.732
8.402	0.843
8.44187	0.877
8.48173	0.893
8.5216	0.916
8.56147	0.903
8.60133	0.872
8.6412	0.848
8.68107	0.697
8.72094	0.461
8.7608	0.559
8.80067	0.626
8.84054	0.431
8.8804	0.37
8.92027	0.529
8.96014	0.649
9	0.717
9.03987	0.785
9.07974	0.822
9.11961	0.852
9.15947	0.882
9.19934	0.722
9.23921	0.308
9.27907	0.543
9.31894	0.672
9.35881	0.739
9.39868	0.78
9.43854	0.812
9.47841	0.835
9.51828	0.85
9.55814	0.857
9.59801	0.85
9.63788	0.86
9.67775	0.87
9.71761	0.87
9.75748	0.868
9.79735	0.872
9.83721	0.867
9.87708	0.86
9.91695	0.865
9.95681	0.855
9.99668	0.847
10.0365	0.828
10.0764	0.817
10.1163	0.802
10.1562	0.765
10.196	0.714
10.2359	0.646
10.2758	0.588
10.3156	0.506
10.3555	0.418
10.3954	0.348
10.4352	0.308
10.4751	0.295
10.515	0.302
10.5548	0.345
10.5947	0.43
10.6346	0.536
10.6744	0.602
10.7143	0.672
10.7542	0.727
10.794	0.779
10.8339	0.794
10.8738	0.803
10.9136	0.792
10.9535	0.774
10.9934	0.724
11.0332	0.641
11.0731	0.539
11.113	0.411
11.1528	0.294
11.1927	0.222
11.2326	0.199
11.2724	0.275
11.3123	0.395
11.3522	0.493
11.392	0.591
11.4319	0.671
11.4718	0.584
11.5116	0.441
11.5515	0.453
11.5914	0.446
11.6312	0.217
11.6711	0.137
11.711	0.237
11.7508	0.47
11.7907	0.712
11.8306	0.855
11.8704	0.931
11.9103	0.945
11.9502	0.928
11.99	0.895
12.0299	0.853
12.0698	0.794
12.1096	0.692
12.1495	0.593
12.1894	0.536
12.2292	0.593
12.2691	0.669
12.309	0.657
12.3488	0.631
12.3887	0.664
12.4286	0.715
12.4684	0.78
12.5083	0.803
12.5482	0.76
12.588	0.616
12.6279	0.435
12.6678	0.373
12.7076	0.415
12.7475	0.518
12.7874	0.609
12.8272	0.697
12.8671	0.785
12.907	0.827
12.9468	0.865
12.9867	0.892
13.0266	0.9
13.0664	0.893
13.1063	0.848
13.1462	0.744
13.186	0.536
13.2259	0.31
13.2658	0.149
13.3056	0.137
13.3455	0.194
13.3854	0.313
13.4253	0.4
13.4651	0.519
13.505	0.588
13.5449	0.651
13.5847	0.715
13.6246	0.79
13.6645	0.845
13.7043	0.89
13.7442	0.911
13.7841	0.943
13.8239	0.958
13.8638	0.971
13.9037	0.998
13.9435	1.009
13.9834	1.016
14.0233	1.021
14.0631	1.023
14.103	1.024
14.1429	1.026
14.1827	1.024
14.2226	1.016
14.2625	1.001
14.3023	0.958
14.3422	0.86
14.3821	0.697
14.4219	0.508
14.4618	0.37
14.5017	0.305
14.5415	0.31
14.5814	0.367
14.6213	0.456
14.6611	0.536
14.701	0.588
14.7409	0.639
14.7807	0.679
14.8206	0.717
14.8605	0.742
14.9003	0.765
14.9402	0.774
14.9801	0.764
15.0199	0.749
15.0598	0.72
15.0997	0.74
15.1395	0.77
15.1794	0.8
15.2193	0.818
15.2591	0.828
15.299	0.83
15.3389	0.828
15.3787	0.825
15.4186	0.82
15.4585	0.818
15.4983	0.817
15.5382	0.815
15.5781	0.81
15.6179	0.799
15.6578	0.794
15.6977	0.782
15.7375	0.777
15.7774	0.769
15.8173	0.747
15.8571	0.739
15.897	0.732
15.9369	0.725
15.9767	0.707
16.0166	0.707
