Infrared Spectrum: o-Iodophenol
Formula: C6 H5 I O
CAS: 533-58-4
State: SOLUTION (10% CCl4 FOR 3800-1330, 10% CS2 FOR 1330-400 CM^-^1)
Class: COBLENTZ III
Instrument: DOW KBr FOREPRISM-GRATING
Instrument parameters: BLAZED AT 3.5, 12.0, 20.0 MICRON AND CHANGED AT 5.0, 7.5, 14.9 MICRON
Sampling: TRANSMISSION
Path length: 0.011 CM, 0.011 CM
Resolution: 2
Origin: DOW CHEMICAL COMPANY
1/CM	TRANSMITTANCE
3818	0.9169
3809	0.9145
3800	0.9126
3791	0.9126
3782	0.91
3773	0.9112
3764	0.9175
3755	0.921
3746	0.9168
3737	0.9142
3728	0.9106
3719	0.9056
3710	0.9043
3701	0.9056
3692	0.9066
3683	0.9072
3674	0.908
3665	0.9088
3656	0.9081
3647	0.9053
3638	0.9114
3629	0.8915
3620	0.8477
3611	0.7996
3602	0.8464
3593	0.8736
3584	0.881
3575	0.8804
3566	0.8666
3557	0.8482
3548	0.7639
3539	0.5942
3530	0.325
3521	0.1734
3512	0.3665
3503	0.5574
3494	0.7047
3485	0.7708
3476	0.8074
3467	0.8395
3458	0.8625
3449	0.8803
3440	0.8934
3431	0.9039
3422	0.9107
3413	0.9138
3404	0.9149
3395	0.9143
3386	0.9157
3377	0.9179
3368	0.9178
3359	0.9169
3350	0.9162
3341	0.9155
3332	0.9109
3323	0.9091
3314	0.9084
3305	0.909
3296	0.9091
3287	0.9133
3278	0.9167
3269	0.9131
3260	0.9094
3251	0.9098
3242	0.9111
3233	0.913
3224	0.9149
3215	0.9141
3206	0.9058
3197	0.9065
3188	0.9053
3179	0.9025
3170	0.9006
3161	0.8982
3152	0.8956
3143	0.8924
3134	0.8953
3125	0.902
3116	0.9005
3107	0.8873
3098	0.8575
3089	0.7817
3080	0.7149
3071	0.8082
3062	0.8556
3053	0.8709
3044	0.8699
3035	0.8302
3026	0.8693
3017	0.8733
3008	0.8837
2999	0.8927
2990	0.8955
2981	0.892
2972	0.8914
2963	0.8936
2954	0.8934
2945	0.8896
2936	0.8865
2927	0.8835
2918	0.8856
2909	0.8874
2900	0.8858
2891	0.8858
2882	0.8889
2873	0.8894
2864	0.8867
2855	0.8846
2846	0.8877
2837	0.8872
2828	0.8852
2819	0.8847
2810	0.8821
2801	0.8792
2792	0.8782
2783	0.8814
2774	0.8806
2765	0.8772
2756	0.8761
2747	0.8775
2738	0.8749
2729	0.8748
2720	0.8754
2711	0.8757
2702	0.8754
2693	0.8738
2684	0.8747
2675	0.873
2666	0.8652
2657	0.8673
2648	0.867
2639	0.8645
2630	0.8607
2621	0.8613
2612	0.8617
2603	0.8613
2594	0.8578
2585	0.8608
2576	0.8623
2567	0.8616
2558	0.8625
2549	0.8622
2540	0.8525
2531	0.847
2522	0.8494
2513	0.8504
2504	0.8514
2495	0.8508
2486	0.8468
2477	0.8431
2468	0.842
2459	0.8456
2450	0.8455
2441	0.8422
2432	0.8422
2423	0.8476
2414	0.8456
2405	0.8373
2396	0.8392
2387	0.8449
2378	0.8478
2369	0.8535
2360	0.8643
2351	0.8644
2342	0.8606
2333	0.8523
2324	0.847
2315	0.8364
2306	0.8248
2297	0.8146
2288	0.8149
2279	0.8212
2270	0.8251
2261	0.8276
2252	0.8316
2243	0.8251
2234	0.8305
2225	0.8295
2216	0.8155
2207	0.8272
2198	0.8291
2189	0.8267
2180	0.8282
2171	0.8328
2162	0.8333
2153	0.8333
2144	0.8335
2135	0.8336
2126	0.83
2117	0.824
2108	0.8231
2099	0.8278
2090	0.8323
2081	0.8342
2072	0.8318
2063	0.8297
2054	0.8314
2045	0.8296
2036	0.8282
2027	0.8262
2018	0.8239
2009	0.8233
2000	0.8277
1991	0.8295
1982	0.8323
1973	0.8344
1964	0.8347
1955	0.8365
1946	0.8284
1937	0.7924
1928	0.8187
1919	0.8389
1910	0.8306
1901	0.7865
1892	0.8256
1883	0.838
1874	0.8385
1865	0.8247
1856	0.8266
1847	0.8331
1838	0.8375
1829	0.8364
1820	0.8341
1811	0.8263
1802	0.8335
1793	0.8405
1784	0.8345
1775	0.7984
1766	0.8247
1757	0.8406
1748	0.8424
1739	0.8433
1730	0.8521
1721	0.8396
1712	0.8551
1703	0.8441
1694	0.8505
1685	0.8381
1676	0.827
1667	0.844
1658	0.8504
1649	0.8725
1640	0.8583
1631	0.8571
1622	0.8441
1613	0.8185
1604	0.7846
1595	0.6207
1586	0.3376
1577	0.4614
1568	0.6167
1559	0.6217
1550	0.6597
1541	0.6791
1532	0.7126
1523	0.755
1514	0.7596
1505	0.7312
1496	0.6976
1487	0.7052
1478	0.3815
1469	0.0175
1460	0.5396
1451	0.5771
1442	0.6243
1433	0.7942
1424	0.8179
1415	0.8263
1406	0.8279
1397	0.8183
1388	0.8302
1379	0.7604
1370	0.8033
1361	0.8329
1352	0.8155
1343	0.772
1334	0.4528
1325	0.576
1316	0.653
1307	0.7466
1298	0.7218
1289	0.2852
1280	0.6457
1271	0.7252
1262	0.7597
1253	0.7208
1244	0.1952
1235	0.6964
1226	0.7333
1217	0.743
1208	0.684
1199	0.4201
1190	0.0198
1181	0.2546
1172	0.1574
1163	0.5096
1154	0.6278
1145	0.7031
1136	0.7509
1127	0.777
1118	0.7822
1109	0.7263
1100	0.7123
1091	0.7787
1082	0.7905
1073	0.7904
1064	0.8039
1055	0.8075
1046	0.8119
1037	0.6891
1028	0.7651
1019	0.7347
1010	0.0697
1001	0.7073
992	0.7795
983	0.8123
974	0.821
965	0.8163
956	0.8122
947	0.8208
938	0.8196
929	0.7453
920	0.7965
911	0.8169
902	0.8196
893	0.8153
884	0.8169
875	0.8028
866	0.7777
857	0.752
848	0.7168
839	0.6664
830	0.6831
821	0.5115
812	0.7798
803	0.797
794	0.7752
785	0.7732
776	0.7638
767	0.7338
758	0.6254
749	0.0538
740	0.4443
731	0.6736
722	0.7295
713	0.7374
704	0.7304
695	0.6271
686	0.7436
677	0.752
668	0.7744
659	0.7603
650	0.7352
641	0.3244
632	0.7504
623	0.7716
614	0.7817
605	0.7799
596	0.7804
587	0.7787
578	0.775
569	0.7719
560	0.7653
551	0.7454
542	0.6609
533	0.7412
524	0.7413
515	0.7471
506	0.743
497	0.741
488	0.7433
479	0.7402
470	0.707
461	0.442
452	0.6915
443	0.6996
434	0.6793
425	0.626
416	0.6085
407	0.551
398	0.4926
389	0.4453
