Infrared Spectrum: 2,3-Cyclopentenopyridine
Formula: C 8 H 9 N
CAS: 533-37-9
State: gas
Origin: EPA-IR VAPOR PHASE LIBRARY
1/CM	ABSORBANCE
549.8	0.00058772
559.445	0.0012489
569.09	0.0007606
578.734	0.0011684
588.379	0.001844
598.024	0.001704
607.669	0.002194
617.313	0.002284
626.958	0.001674
636.603	0.0015813
646.248	0.001199
655.893	0.001744
665.537	0.00060678
675.182	0.0009514
684.827	0.0011054
694.472	0.002204
704.116	0.003824
713.761	0.006874
723.406	0.012524
733.051	0.008364
742.695	0.005944
752.34	0.005744
761.985	0.012994
771.63	0.022854
781.275	0.043634
790.919	0.023124
800.564	0.013134
810.209	0.005224
819.854	0.003034
829.498	0.002374
839.143	0.003244
848.788	0.003094
858.433	0.002694
868.078	0.001894
877.722	0.0015768
887.367	0.002254
897.012	0.002674
906.657	0.002874
916.301	0.001684
925.946	0.0012009
935.591	0.0012089
945.236	0.0014594
954.88	0.0011622
964.525	0.0015456
974.17	0.0009223
983.815	0.001594
993.46	0.000945
1003.1	0.0015314
1012.75	0.0013064
1022.39	0.002314
1032.04	0.002004
1041.68	0.002914
1051.33	0.002074
1060.97	0.003144
1070.62	0.005814
1080.26	0.009114
1089.91	0.010204
1099.55	0.005124
1109.2	0.004044
1118.84	0.002324
1128.49	0.002764
1138.13	0.006474
1147.78	0.007124
1157.42	0.006124
1167.07	0.002994
1176.71	0.003214
1186.36	0.003964
1196	0.004684
1205.64	0.009424
1215.29	0.009984
1224.93	0.007764
1234.58	0.002624
1244.22	0.002654
1253.87	0.002234
1263.51	0.002544
1273.16	0.002384
1282.8	0.003644
1292.45	0.004224
1302.09	0.004814
1311.74	0.004284
1321.38	0.003264
1331.03	0.001804
1340.67	0.0013337
1350.32	0.0014739
1359.96	0.002074
1369.61	0.002454
1379.25	0.003324
1388.9	0.004624
1398.54	0.010544
1408.18	0.036324
1417.83	0.056724
1427.47	0.056944
1437.12	0.031144
1446.76	0.020364
1456.41	0.015884
1466.05	0.011164
1475.7	0.009054
1485.34	0.004794
1494.99	0.002584
1504.63	0.001824
1514.28	0.001604
1523.92	0.001794
1533.57	0.002394
1543.21	0.003794
1552.86	0.007924
1562.5	0.013704
1572.15	0.021214
1581.79	0.028154
1591.44	0.022714
1601.08	0.013894
1610.73	0.006644
1620.37	0.003834
1630.01	0.002654
1639.66	0.002394
1649.3	0.001744
1658.95	0.001218
1668.59	0.0012582
1678.24	0.0012774
1687.88	0.0014253
1697.53	0.002094
1707.17	0.002494
1716.82	0.002134
1726.46	0.002004
1736.11	0.001624
1745.75	0.0015421
1755.4	0.0013626
1765.04	0.0011371
1774.69	0.0009981
1784.33	0.0009111
1793.98	0.0010282
1803.62	0.0011162
1813.27	0.0011166
1822.91	0.001154
1832.55	0.0010338
1842.2	0.0013804
1851.84	0.001794
1861.49	0.002144
1871.13	0.002184
1880.78	0.002354
1890.42	0.002574
1900.07	0.002484
1909.71	0.002434
1919.36	0.002864
1929	0.002584
1938.65	0.001874
1948.29	0.0009719
1957.94	0.0010501
1967.58	0.0010728
1977.23	0.0009665
1986.87	0.0009076
1996.52	0.000818
2006.16	0.0010212
2015.81	0.0007831
2025.45	0.0008538
2035.1	0.0009889
2044.74	0.000846
2054.38	0.0008363
2064.03	0.0008778
2073.67	0.0010694
2083.32	0.0010636
2092.96	0.0011394
2102.61	0.0011805
2112.25	0.0010064
2121.9	0.0010139
2131.54	0.0010419
2141.19	0.0012633
2150.83	0.0011298
2160.48	0.0012609
2170.12	0.0013537
2179.77	0.0011834
2189.41	0.0011069
2199.06	0.0010871
2208.7	0.0009767
2218.35	0.0010107
2227.99	0.0009223
2237.64	0.0009174
2247.28	0.001071
2256.92	0.0010371
2266.57	0.001016
2276.21	0.0014107
2285.86	0.0012865
2295.5	0.00159
2305.15	0.0012914
2314.79	0.0015139
2324.44	0.0012728
2334.08	0.0011202
2343.73	0.0010827
2353.37	0.0008811
2363.02	0.000976
2372.66	0.000668
2382.31	0.0009057
2391.95	0.0010907
2401.6	0.001101
2411.24	0.0010107
2420.89	0.001039
2430.53	0.0010963
2440.18	0.001224
2449.82	0.001134
2459.47	0.0011699
2469.11	0.0012024
2478.75	0.0011384
2488.4	0.0012031
2498.04	0.0009701
2507.69	0.0009905
2517.33	0.0009323
2526.98	0.0011501
2536.62	0.0009719
2546.27	0.0008475
2555.91	0.0008717
2565.56	0.0010256
2575.2	0.00068241
2584.85	0.0007142
2594.49	0.0011064
2604.14	0.0009634
2613.78	0.0011526
2623.43	0.0012177
2633.07	0.001186
2642.72	0.0011035
2652.36	0.0009217
2662.01	0.0009931
2671.65	0.0011667
2681.29	0.0012345
2690.94	0.0010035
2700.58	0.0008542
2710.23	0.0009786
2719.87	0.0010978
2729.52	0.0011597
2739.16	0.0011102
2748.81	0.0013131
2758.45	0.0015094
2768.1	0.001644
2777.74	0.001914
2787.39	0.002014
2797.03	0.001974
2806.68	0.002494
2816.32	0.002944
2825.97	0.004404
2835.61	0.008164
2845.26	0.015564
2854.9	0.021154
2864.55	0.023244
2874.19	0.022474
2883.84	0.022574
2893.48	0.024594
2903.12	0.027504
2912.77	0.031704
2922.41	0.035024
2932.06	0.038574
2941.7	0.045184
2951.35	0.056334
2960.99	0.069414
2970.64	0.070754
2980.28	0.046074
2989.93	0.023914
2999.57	0.015084
3009.22	0.013474
3018.86	0.013434
3028.51	0.015324
3038.15	0.022264
3047.8	0.028204
3057.44	0.032714
3067.09	0.030674
3076.73	0.021674
3086.38	0.011494
3096.02	0.003364
3105.67	0.002384
3115.31	0.002054
3124.95	0.001794
3134.6	0.002254
3144.24	0.002244
3153.89	0.001994
3163.53	0.001874
3173.18	0.001664
3182.82	0.0014716
3192.47	0.0009189
3202.11	0.001157
3211.76	0.0008054
3221.4	0.0009163
3231.05	0.0007569
3240.69	0.00065869
3250.34	0.00059289
3259.98	0.00049
3269.63	0.00064793
3279.27	0.000471
3288.92	0.00058473
3298.56	0.00063903
3308.21	0.00058702
3317.85	0.00063416
3327.49	0.000437
3337.14	0.000554
3346.78	0.000162
3356.43	0.00060682
3366.07	0.0005313
3375.72	0.000457
3385.36	0.00068323
3395.01	0.000408
3404.65	0.000443
3414.3	0.000477
3423.94	0.0005227
3433.59	0.00061672
3443.23	0.0009958
3452.88	0.0007946
3462.52	0.0005682
3472.17	0.000362
3481.81	0.0008129
3491.46	0.000298
3501.1	0.000265
3510.75	0.0007282
3520.39	0.00062956
3530.04	0.000516
3539.68	0.000434
3549.32	0.0005471
3558.97	0.0005548
3568.61	0.000381
3578.26	0.0007579
3587.9	0.0008056
3597.55	0.0005162
3607.19	0.00064625
3616.84	0.000468
3626.48	0.000454
3636.13	0.000457
3645.77	0.000435
3655.42	0.00059087
3665.06	0.00068992
3674.71	0.00067647
3684.35	0.0005591
3694	0.000395
3703.64	0.000565
3713.29	0.00063563
3722.93	0.00063341
3732.58	0.000376
3742.22	0.0007489
3751.86	0.0009574
3761.51	0.0004
3771.15	0.0008624
3780.8	0.0009989
3790.44	0.0005345
3800.09	0.0008415
3809.73	0.00068748
3819.38	0.000216
3829.02	0.0007917
3838.67	0.00053
3848.31	0.00063608
3857.96	0.0007502
3867.6	0.0008784
3877.25	0.000697
3886.89	0.0007359
3896.54	0.00062364
3906.18	0.00061755
3915.83	0.0009438
3925.47	0.0011128
3935.12	0.001088
3944.76	0.0005588
3954.41	0.0007513
3964.05	0.000906
3973.69	0.0005219
3983.34	0.00046
3992.98	0.00066974
