Infrared Spectrum: 1,2,4-Benzenetriol
Formula: C 6 H 6 O 3
CAS: 533-73-3
State: gas
Instrument: HP-GC/MS/IRD
Origin: NIST Mass Spectrometry Data Center
1/CM	ABSORBANCE
550	0.001618
562	0.000878
574	0.001245
586	0.001237
598	0.001134
610	0.000786
622	0.000382
634	0.00012
646	5.6e-05
658	0.000105
670	6e-05
682	2.9e-05
694	0.000122
706	5.5e-05
718	0.000175
730	0.000726
742	0.000684
754	0.000428
766	0.001279
778	0.003001
790	0.002831
802	0.001278
814	0.00114
826	0.001274
838	0.001393
850	0.001103
862	0.001042
874	0.001435
886	0.001074
898	0.000615
910	0.000278
922	0.0002
934	0.000223
946	0.000988
958	0.00214
970	0.001654
982	0.000337
994	0.000156
1006	0.000132
1018	0.00019
1030	0.000262
1042	0.000266
1054	0.000431
1066	0.000674
1078	0.001525
1090	0.002981
1102	0.00292
1114	0.001729
1126	0.002811
1138	0.006717
1150	0.009817
1162	0.009851
1174	0.008054
1186	0.00554
1198	0.005772
1210	0.00635
1222	0.004919
1234	0.003518
1246	0.005309
1258	0.005784
1270	0.003365
1282	0.002803
1294	0.004176
1306	0.005256
1318	0.004519
1330	0.002803
1342	0.001875
1354	0.002653
1366	0.002654
1378	0.001683
1390	0.001891
1402	0.003353
1414	0.003438
1426	0.001713
1438	0.000862
1450	0.001072
1462	0.001756
1474	0.002053
1486	0.001927
1498	0.004233
1510	0.008755
1522	0.008777
1534	0.004122
1546	0.001234
1558	0.00074
1570	0.000545
1582	0.000715
1594	0.001383
1606	0.00218
1618	0.002595
1630	0.002149
1642	0.002103
1654	0.003974
1666	0.005907
1678	0.005656
1690	0.003367
1702	0.001175
1714	0.000582
1726	0.000322
1738	0.000219
1750	0.000229
1762	0.000213
1774	0.000132
1786	0.000115
1798	0.000128
1810	0.000111
1822	9.7e-05
1834	5.7e-05
1846	5e-05
1858	2.3e-05
1870	5.6e-05
1882	4.6e-05
1894	3.4e-05
1906	6e-06
1918	4.1e-05
1930	1.4e-05
1942	2.4e-05
1954	2.2e-05
1966	3.1e-05
1978	2.9e-05
1990	1e-06
2002	1.3e-05
2014	8e-06
2026	3.8e-05
2038	4.8e-05
2050	3.4e-05
2062	5.4e-05
2074	5.2e-05
2086	7.6e-05
2098	5.6e-05
2110	5.6e-05
2122	4.9e-05
2134	4.7e-05
2146	3.6e-05
2158	4.5e-05
2170	4.1e-05
2182	4.3e-05
2194	6.3e-05
2206	3.4e-05
2218	4.8e-05
2230	5.1e-05
2242	8.4e-05
2254	0.000109
2266	0.000112
2278	8.7e-05
2290	9.4e-05
2302	9.9e-05
2314	9.5e-05
2326	8e-05
2338	9.1e-05
2350	0.000114
2362	8.5e-05
2374	8.8e-05
2386	0.000109
2398	0.000131
2410	0.000144
2422	0.00017
2434	0.000159
2446	0.000187
2458	0.000166
2470	0.000172
2482	0.000143
2494	0.000118
2506	0.000121
2518	0.000122
2530	8.2e-05
2542	8.7e-05
2554	0.000104
2566	9.8e-05
2578	0.000105
2590	7.9e-05
2602	9.6e-05
2614	8.8e-05
2626	8.4e-05
2638	5.3e-05
2650	6.3e-05
2662	7.6e-05
2674	5.6e-05
2686	5.2e-05
2698	3.8e-05
2710	4.9e-05
2722	6e-05
2734	5.2e-05
2746	2.9e-05
2758	5e-05
2770	6e-05
2782	6.5e-05
2794	3.9e-05
2806	5.3e-05
2818	6.8e-05
2830	9.6e-05
2842	6.4e-05
2854	5.2e-05
2866	5.3e-05
2878	6.7e-05
2890	5.8e-05
2902	5e-05
2914	6.8e-05
2926	7.1e-05
2938	4e-05
2950	3.2e-05
2962	7.4e-05
2974	9e-05
2986	8.2e-05
2998	8.5e-05
3010	0.000132
3022	0.000294
3034	0.000534
3046	0.000646
3058	0.000495
3070	0.000292
3082	0.000194
3094	9.1e-05
3106	9.8e-05
3118	8.2e-05
3130	0.000113
3142	8.6e-05
3154	5.6e-05
3166	5.6e-05
3178	3.4e-05
3190	5.8e-05
3202	2.6e-05
3214	5.3e-05
3226	3.9e-05
3238	5.5e-05
3250	0.000103
3262	9.6e-05
3274	0.000111
3286	0.000116
3298	0.000179
3310	0.000166
3322	0.000171
3334	0.000179
3346	0.000159
3358	0.00018
3370	0.000152
3382	0.000141
3394	0.000168
3406	0.000184
3418	0.000231
3430	0.000438
3442	0.000987
3454	0.001616
3466	0.001491
3478	0.000843
3490	0.000488
3502	0.000395
3514	0.000309
3526	0.000252
3538	0.000221
3550	0.000216
3562	0.000286
3574	0.000725
3586	0.002277
3598	0.003706
3610	0.003261
3622	0.001851
3634	0.001399
3646	0.003112
3658	0.004383
3670	0.003081
3682	0.001056
3694	0.000326
3706	0.000211
3718	0.000197
3730	0.000196
3742	0.000216
3754	0.000225
3766	0.000212
3778	0.000197
3790	0.000213
3802	0.00017
3814	0.00019
3826	0.000159
3838	0.000131
