Infrared Spectrum: O-CHLOROACETANILIDE
Formula: C8 H8 Cl N O
CAS: 533-17-5
State: SOLUTION (10% CCl4 FOR 5000-1330, 10% CS2 FOR 1330-625 CM^-^1)
Class: COBLENTZ
Instrument: Not specified, most likely a prism, grating, or hybrid spectrometer.
Sampling: TRANSMISSION
Path length: 0.10 CM, 0.101 CM
Resolution: 4
Origin: DOW CHEMICAL COMPANY
MICROMETERS	TRANSMITTANCE
2.027	0.907
2.06818	0.907
2.10935	0.907
2.15053	0.909
2.19171	0.909
2.23289	0.907
2.27406	0.902
2.31524	0.897
2.35642	0.897
2.3976	0.897
2.43877	0.897
2.47995	0.9
2.52113	0.895
2.5623	0.9
2.60348	0.902
2.64466	0.9
2.68584	0.897
2.72701	0.898
2.76819	0.909
2.80937	0.909
2.85055	0.876
2.89172	0.687
2.9329	0.766
2.97408	0.893
3.01525	0.927
3.05643	0.929
3.09761	0.929
3.13879	0.914
3.17996	0.874
3.22114	0.83
3.26232	0.826
3.3035	0.847
3.34467	0.869
3.38585	0.881
3.42703	0.9
3.4682	0.91
3.50938	0.907
3.55056	0.905
3.59174	0.903
3.63291	0.893
3.67409	0.9
3.71527	0.902
3.75644	0.897
3.79762	0.898
3.8388	0.893
3.87998	0.888
3.92115	0.897
3.96233	0.898
4.00351	0.898
4.04469	0.888
4.08586	0.891
4.12704	0.895
4.16822	0.897
4.20939	0.907
4.25057	0.895
4.29175	0.874
4.33293	0.874
4.3741	0.881
4.41528	0.881
4.45646	0.885
4.49764	0.891
4.53881	0.888
4.57999	0.879
4.62117	0.879
4.66234	0.879
4.70352	0.879
4.7447	0.888
4.78588	0.89
4.82705	0.89
4.86823	0.879
4.90941	0.886
4.95059	0.886
4.99176	0.886
5.03294	0.878
5.07412	0.879
5.11529	0.842
5.15647	0.854
5.19765	0.852
5.23883	0.83
5.28	0.866
5.32118	0.859
5.36236	0.85
5.40354	0.847
5.44471	0.833
5.48589	0.847
5.52707	0.823
5.56824	0.759
5.60942	0.763
5.6506	0.746
5.69178	0.737
5.73295	0.722
5.77413	0.55
5.81531	0.193
5.85649	0.066
5.89766	0.288
5.93884	0.543
5.98002	0.648
6.02119	0.718
6.06237	0.747
6.10355	0.747
6.14473	0.716
6.1859	0.658
6.22708	0.547
6.26826	0.468
6.30944	0.468
6.35061	0.481
6.39179	0.497
6.43297	0.526
6.47414	0.54
6.51532	0.56
6.5565	0.56
6.59768	0.54
6.63885	0.454
6.68003	0.373
6.72121	0.418
6.76239	0.497
6.80356	0.439
6.84474	0.514
6.88592	0.444
6.92709	0.161
6.96827	0.061
7.00945	0.204
7.05063	0.32
7.0918	0.483
7.13298	0.584
7.17416	0.598
7.21533	0.564
7.25651	0.452
7.29769	0.279
7.33887	0.363
7.38004	0.679
7.42122	0.766
7.4624	0.771
7.50358	0.722
7.54475	0.665
7.58593	0.571
7.62711	0.288
7.66828	0.072
7.70946	0.147
7.75064	0.464
7.79182	0.542
7.83299	0.663
7.87417	0.753
7.91535	0.768
7.95653	0.694
7.9977	0.542
8.03888	0.231
8.08006	0.217
8.12123	0.252
8.16241	0.186
8.20359	0.389
8.24477	0.629
8.28594	0.728
8.32712	0.746
8.3683	0.773
8.40948	0.814
8.45065	0.835
8.49183	0.838
8.53301	0.825
8.57418	0.794
8.61536	0.777
8.65654	0.801
8.69772	0.823
8.73889	0.838
8.78007	0.83
8.82125	0.777
8.86243	0.739
8.9036	0.814
8.94478	0.855
8.98596	0.871
9.02713	0.879
9.06831	0.886
9.10949	0.886
9.15067	0.881
9.19184	0.876
9.23302	0.878
9.2742	0.878
9.31538	0.871
9.35655	0.847
9.39773	0.804
9.43891	0.641
9.48008	0.346
9.52126	0.492
9.56244	0.638
9.60362	0.555
9.64479	0.344
9.68597	0.241
9.72715	0.499
9.76833	0.656
9.8095	0.742
9.85068	0.773
9.89186	0.768
9.93303	0.72
9.97421	0.653
10.0154	0.566
10.0566	0.55
10.0977	0.619
10.1389	0.708
10.1801	0.751
10.2213	0.795
10.2625	0.797
10.3036	0.814
10.3448	0.847
10.386	0.869
10.4272	0.873
10.4683	0.847
10.5095	0.814
10.5507	0.823
10.5919	0.838
10.633	0.79
10.6742	0.674
10.7154	0.708
10.7566	0.855
10.7978	0.891
10.8389	0.898
10.8801	0.9
10.9213	0.902
10.9625	0.9
11.0036	0.897
11.0448	0.89
11.086	0.888
11.1272	0.888
11.1684	0.874
11.2095	0.859
11.2507	0.847
11.2919	0.828
11.3331	0.809
11.3742	0.795
11.4154	0.778
11.4566	0.766
11.4978	0.758
11.5389	0.751
11.5801	0.747
11.6213	0.737
11.6625	0.727
11.7037	0.713
11.7448	0.708
11.786	0.711
11.8272	0.735
11.8684	0.763
11.9095	0.787
11.9507	0.809
11.9919	0.83
12.0331	0.847
12.0743	0.855
12.1154	0.862
12.1566	0.871
12.1978	0.876
12.239	0.876
12.2801	0.876
12.3213	0.874
12.3625	0.871
12.4037	0.874
12.4448	0.874
12.486	0.873
12.5272	0.871
12.5684	0.869
12.6096	0.866
12.6507	0.861
12.6919	0.867
12.7331	0.866
12.7743	0.857
12.8154	0.852
12.8566	0.85
12.8978	0.83
12.939	0.825
12.9802	0.799
13.0213	0.778
13.0625	0.751
13.1037	0.723
13.1449	0.674
13.186	0.584
13.2272	0.409
13.2684	0.234
13.3096	0.099
13.3507	0.036
13.3919	0.048
13.4331	0.159
13.4743	0.427
13.5155	0.567
13.5566	0.656
13.5978	0.704
13.639	0.739
13.6802	0.751
13.7213	0.759
13.7625	0.761
13.8037	0.758
13.8449	0.749
13.8861	0.728
13.9272	0.706
13.9684	0.662
14.0096	0.632
14.0508	0.59
14.0919	0.572
14.1331	0.571
14.1743	0.591
14.2155	0.626
14.2566	0.658
14.2978	0.713
14.339	0.747
14.3802	0.77
14.4214	0.792
14.4625	0.801
14.5037	0.814
14.5449	0.821
14.5861	0.833
14.6272	0.838
14.6684	0.835
14.7096	0.835
14.7508	0.83
14.792	0.833
14.8331	0.837
14.8743	0.84
14.9155	0.843
14.9567	0.845
14.9978	0.845
15.039	0.845
15.0802	0.842
15.1214	0.833
15.1625	0.828
15.2037	0.818
15.2449	0.801
15.2861	0.783
15.3273	0.756
15.3684	0.737
15.4096	0.728
15.4508	0.728
15.492	0.739
15.5331	0.756
15.5743	0.78
15.6155	0.809
15.6567	0.823
15.6979	0.838
15.739	0.85
15.7802	0.864
15.8214	0.869
15.8626	0.885
15.9037	0.895
