Infrared Spectrum: m-Chlorocarbanilic acid, 2-cyanoethyl ester
Formula: C10 H9 Cl N2 O2
CAS: 5330-47-2
State: SOLID (SPLIT MULL)
Class: COBLENTZ III
Instrument: BECKMAN IR-9 (GRATING)
Instrument parameters: ORDER CHANGES: 670, 1200, 2000 CM^-^1
Sampling: TRANSMISSION
Resolution: 2
Origin: DOW CHEMICAL COMPANY
1/CM	TRANSMITTANCE
3800	0.6858
3791	0.6865
3782	0.6876
3773	0.6888
3764	0.6901
3755	0.6912
3746	0.6925
3737	0.6941
3728	0.6958
3719	0.6974
3710	0.6992
3701	0.7008
3692	0.7028
3683	0.7049
3674	0.7068
3665	0.7088
3656	0.71
3647	0.7111
3638	0.7122
3629	0.7142
3620	0.7165
3611	0.7186
3602	0.7208
3593	0.723
3584	0.7251
3575	0.7272
3566	0.7288
3557	0.7301
3548	0.7319
3539	0.7341
3530	0.7361
3521	0.7378
3512	0.7394
3503	0.7405
3494	0.7418
3485	0.7454
3476	0.7485
3467	0.7499
3458	0.7493
3449	0.7344
3440	0.7174
3431	0.7336
3422	0.7451
3413	0.7503
3404	0.75
3395	0.7453
3386	0.7326
3377	0.7106
3368	0.6717
3359	0.6262
3350	0.5515
3341	0.3629
3332	0.2464
3323	0.1241
3314	0.0274
3305	0.036
3296	0.1413
3287	0.2398
3278	0.3544
3269	0.3924
3260	0.4203
3251	0.456
3242	0.5136
3233	0.5535
3224	0.5696
3215	0.5727
3206	0.5641
3197	0.4995
3188	0.5119
3179	0.5646
3170	0.5996
3161	0.6099
3152	0.6059
3143	0.5681
3134	0.4797
3125	0.5014
3116	0.5448
3107	0.5729
3098	0.5554
3089	0.5127
3080	0.5439
3071	0.5894
3062	0.6135
3053	0.6351
3044	0.6578
3035	0.6547
3026	0.6386
3017	0.6533
3008	0.6796
2999	0.6867
2990	0.673
2981	0.5708
2972	0.5971
2963	0.673
2954	0.6754
2945	0.5486
2936	0.6948
2927	0.7115
2918	0.7175
2909	0.7171
2900	0.7165
2891	0.7278
2882	0.7354
2873	0.7398
2864	0.7436
2855	0.7462
2846	0.7508
2837	0.758
2828	0.7595
2819	0.7589
2810	0.7624
2801	0.7615
2792	0.7578
2783	0.7614
2774	0.7637
2765	0.7568
2756	0.7553
2747	0.7674
2738	0.7851
2729	0.799
2720	0.8069
2711	0.8021
2702	0.7965
2693	0.796
2684	0.7984
2675	0.8024
2666	0.8084
2657	0.8118
2648	0.8122
2639	0.813
2630	0.8186
2621	0.8241
2612	0.8258
2603	0.8277
2594	0.8296
2585	0.8312
2576	0.8328
2567	0.8339
2558	0.8357
2549	0.8404
2540	0.8425
2531	0.8411
2522	0.8394
2513	0.8398
2504	0.8411
2495	0.8418
2486	0.8421
2477	0.8416
2468	0.8408
2459	0.8402
2450	0.8418
2441	0.8453
2432	0.8488
2423	0.8514
2414	0.8524
2405	0.8535
2396	0.8544
2387	0.8551
2378	0.8558
2369	0.8537
2360	0.8506
2351	0.8478
2342	0.8478
2333	0.8495
2324	0.8515
2315	0.853
2306	0.8543
2297	0.8523
2288	0.8464
2279	0.8368
2270	0.5594
2261	0.6144
2252	0.8145
2243	0.8466
2234	0.8684
2225	0.8783
2216	0.8833
2207	0.8833
2198	0.8751
2189	0.8692
2180	0.8787
2171	0.8918
2162	0.8978
2153	0.9028
2144	0.908
2135	0.913
2126	0.9183
2117	0.9236
2108	0.93
2099	0.9352
2090	0.9374
2081	0.937
2072	0.9357
2063	0.9354
2054	0.9435
2045	0.9454
2036	0.947
2027	0.9528
2018	0.9563
2009	0.9575
2000	0.9606
1991	0.966
1982	0.9695
1973	0.9705
1964	0.9691
1955	0.9637
1946	0.9555
1937	0.9346
1928	0.9686
1919	0.9667
1910	0.9625
1901	0.9867
1892	0.9986
1883	0.9965
1874	0.9943
1865	0.9816
1856	0.9347
1847	0.9555
1838	0.9641
1829	0.9685
1820	0.9606
1811	0.9544
1802	0.9532
1793	0.973
1784	0.9792
1775	0.8591
1766	0.9014
1757	0.9212
1748	0.7834
1739	0.572
1730	0.0001
1721	0.0058
1712	0.2428
1703	0.4417
1694	0.6002
1685	0.5937
1676	0.7257
1667	0.7447
1658	0.7458
1649	0.7156
1640	0.7065
1631	0.6726
1622	0.3826
1613	0.2615
1604	0.0034
1595	0.0386
1586	0.5012
1577	0.6462
1568	0.5601
1559	0.2819
1550	0.0067
1541	0.0619
1532	0.4186
1523	0.6476
1514	0.7249
1505	0.7437
1496	0.6961
1487	0.3672
1478	0.5167
1469	0.5432
1460	0.3099
1451	0.5336
1442	0.6658
1433	0.0108
1424	0.3962
1415	0.3071
1406	0.6458
1397	0.6962
1388	0.6518
1379	0.6768
1370	0.7358
1361	0.7328
1352	0.6921
1343	0.6426
1334	0.5939
1325	0.3689
1316	0.5548
1307	0.5437
1298	0.6886
1289	0.3546
1280	0.0049
1271	0.4041
1262	0.689
1253	0.4837
1244	0.3229
1235	0.0001
1226	0.0318
1217	0.1178
1208	0.66
1199	0.7319
1190	0.8137
1181	0.8217
1172	0.4836
1163	0.7189
1154	0.8453
1145	0.8509
1136	0.839
1127	0.8267
1118	0.8158
1109	0.7015
1100	0.4259
1091	0.6756
1082	0.1552
1073	0.1671
1064	0.5698
1055	0.8318
1046	0.8943
1037	0.9175
1028	0.9314
1019	0.9258
1010	0.9067
1001	0.9462
992	0.9103
983	0.9323
974	0.883
965	0.9406
956	0.9652
947	0.9645
938	0.9559
929	0.9128
920	0.1969
911	0.6123
902	0.8685
893	0.5486
884	0.5545
875	0.9318
866	0.9553
857	0.9534
848	0.8842
839	0.8557
830	0.8365
821	0.9444
812	0.9303
803	0.9059
794	0.8364
785	0.2977
776	0.6535
767	0.0676
758	0.7148
749	0.7553
740	0.6615
731	0.3812
722	0.6245
713	0.5571
704	0.3453
695	0.2244
686	0.1691
677	0.5766
668	0.6165
659	0.7282
650	0.8056
641	0.8616
632	0.9035
623	0.9147
614	0.7028
605	0.9238
596	0.9399
587	0.9298
578	0.8145
569	0.9324
560	0.9675
551	0.9798
542	0.9852
533	0.9844
524	0.9825
515	0.9828
506	0.9805
497	0.9721
488	0.9595
479	0.9424
470	0.9221
461	0.8998
452	0.8714
443	0.7118
434	0.7383
425	0.68
416	0.5854
407	0.6675
