Infrared Spectrum: 3,4-Dichlorobenzaldoxime
Formula: C 7 H 5 Cl 2 N O
CAS: 5331-92-0
State: gas
Origin: EPA-IR VAPOR PHASE LIBRARY
1/CM	ABSORBANCE
549.8	0.01
559.445	0.00461
569.09	0.00303
578.734	0.004
588.379	0.00407
598.024	0.00353
607.669	0.0024578
617.313	0.00259
626.958	0.00252
636.603	0.00251
646.248	0.0025
655.893	0.00325
665.537	0.00391
675.182	0.00573
684.827	0.00496
694.472	0.00402
704.116	0.00446
713.761	0.00406
723.406	0.00574
733.051	0.01112
742.695	0.01209
752.34	0.01218
761.985	0.00755
771.63	0.00505
781.275	0.0038
790.919	0.0035
800.564	0.00401
810.209	0.00829
819.854	0.00927
829.498	0.00681
839.143	0.00376
848.788	0.00317
858.433	0.00396
868.078	0.00506
877.722	0.00553
887.367	0.00441
897.012	0.00644
906.657	0.01019
916.301	0.01332
925.946	0.02212
935.591	0.0261
945.236	0.02518
954.88	0.04102
964.525	0.03343
974.17	0.0073
983.815	0.00361
993.46	0.00263
1003.1	0.0020322
1012.75	0.00296
1022.39	0.00714
1032.04	0.01294
1041.68	0.00854
1051.33	0.00371
1060.97	0.00331
1070.62	0.0023955
1080.26	0.00353
1089.91	0.0019166
1099.55	0.00389
1109.2	0.00283
1118.84	0.00607
1128.49	0.01674
1138.13	0.01373
1147.78	0.00547
1157.42	0.00343
1167.07	0.00323
1176.71	0.00478
1186.36	0.00552
1196	0.0087
1205.64	0.01566
1215.29	0.00996
1224.93	0.00698
1234.58	0.00903
1244.22	0.01428
1253.87	0.02281
1263.51	0.02877
1273.16	0.01606
1282.8	0.00581
1292.45	0.0053
1302.09	0.00419
1311.74	0.00399
1321.38	0.00369
1331.03	0.00319
1340.67	0.00305
1350.32	0.00307
1359.96	0.00406
1369.61	0.00634
1379.25	0.00759
1388.9	0.00698
1398.54	0.00674
1408.18	0.00623
1417.83	0.00357
1427.47	0.0024838
1437.12	0.00336
1446.76	0.00588
1456.41	0.00974
1466.05	0.01421
1475.7	0.02015
1485.34	0.01029
1494.99	0.00281
1504.63	0.0021679
1514.28	0.0022392
1523.92	0.0022338
1533.57	0.00293
1543.21	0.00401
1552.86	0.00454
1562.5	0.00269
1572.15	0.0020498
1581.79	0.0023951
1591.44	0.00282
1601.08	0.00262
1610.73	0.00273
1620.37	0.0019733
1630.01	0.0023537
1639.66	0.0020793
1649.3	0.0020192
1658.95	0.001767
1668.59	0.0018446
1678.24	0.0017145
1687.88	0.0016618
1697.53	0.0020165
1707.17	0.00155855
1716.82	0.0016214
1726.46	0.0017407
1736.11	0.0019144
1745.75	0.0019253
1755.4	0.0022079
1765.04	0.0019678
1774.69	0.0020198
1784.33	0.0016308
1793.98	0.00150343
1803.62	0.00149619
1813.27	0.00157017
1822.91	0.00150312
1832.55	0.00135
1842.2	0.001476
1851.84	0.00153427
1861.49	0.0016405
1871.13	0.0017709
1880.78	0.001992
1890.42	0.0021271
1900.07	0.0021372
1909.71	0.0018897
1919.36	0.0017212
1929	0.001273
1938.65	0.001117
1948.29	0.001248
1957.94	0.001369
1967.58	0.001233
1977.23	0.001218
1986.87	0.00115
1996.52	0.0014039
2006.16	0.001211
2015.81	0.000916
2025.45	0.000923
2035.1	0.001171
2044.74	0.001138
2054.38	0.001175
2064.03	0.000942
2073.67	0.001016
2083.32	0.000909
2092.96	0.001191
2102.61	0.000998
2112.25	0.001026
2121.9	0.001225
2131.54	0.001329
2141.19	0.001025
2150.83	0.001118
2160.48	0.001023
2170.12	0.001132
2179.77	0.000841
2189.41	0.000862
2199.06	0.001247
2208.7	0.001144
2218.35	0.001316
2227.99	0.001218
2237.64	0.001052
2247.28	0.001215
2256.92	0.000817
2266.57	0.000903
2276.21	0.001281
2285.86	0.001041
2295.5	0.001126
2305.15	0.001037
2314.79	0.001073
2324.44	0.001071
2334.08	0.000867
2343.73	0.000842
2353.37	0.001304
2363.02	0.001172
2372.66	0.001266
2382.31	0.000891
2391.95	0.000867
2401.6	0.001117
2411.24	0.000748
2420.89	0.00102
2430.53	0.000823
2440.18	0.00157173
2449.82	0.000782
2459.47	0.001227
2469.11	0.001
2478.75	0.000637
2488.4	0.000574
2498.04	0.001103
2507.69	0.001119
2517.33	0.00136
2526.98	0.0014381
2536.62	0.001323
2546.27	0.001106
2555.91	0.000728
2565.56	0.001346
2575.2	0.00094
2584.85	0.001196
2594.49	0.001211
2604.14	0.001014
2613.78	0.000599
2623.43	0.000576
2633.07	0.000876
2642.72	0.0017283
2652.36	0.0016733
2662.01	0.00139
2671.65	0.001229
2681.29	0.00044
2690.94	0.000973
2700.58	0.001013
2710.23	0.001235
2719.87	0.000668
2729.52	0.000772
2739.16	0.000695
2748.81	0.00085
2758.45	0.001043
2768.1	0.000794
2777.74	0.000872
2787.39	0.00069
2797.03	0.001175
2806.68	0.001095
2816.32	0.001354
2825.97	0.000995
2835.61	0.000856
2845.26	0.001251
2854.9	0.00103
2864.55	0.000945
2874.19	0.001272
2883.84	0.000674
2893.48	0.000697
2903.12	0.000499
2912.77	0.001246
2922.41	0.001208
2932.06	3e-05
2941.7	0.000659
2951.35	0.0014222
2960.99	0.00252
2970.64	0.00321
2980.28	0.00261
2989.93	0.0018433
2999.57	0.001377
3009.22	0.0016266
3018.86	0.000769
3028.51	0.001077
3038.15	0.0016256
3047.8	0.0020697
3057.44	0.0014165
3067.09	0.0022118
3076.73	0.0019673
3086.38	0.001219
3096.02	0.000927
3105.67	0.001307
3115.31	0.00211
3124.95	0.00149298
3134.6	0.0018519
3144.24	0.000629
3153.89	8e-05
3163.53	0.00016
3173.18	0.000947
3182.82	0.000854
3192.47	0.001202
3202.11	0.001247
3211.76	0.00125
3221.4	0.00156271
3231.05	0.000742
3240.69	0.000792
3250.34	0.0014517
3259.98	0.0016379
3269.63	0.0018034
3279.27	0.001362
3288.92	0.00053
3298.56	0.0015957
3308.21	0.00158779
3317.85	0.001336
3327.49	0.0016244
3337.14	0.0018951
3346.78	0.00047
3356.43	0.000639
3366.07	0.001107
3375.72	0.001155
3385.36	0.000992
3395.01	0.0015892
3404.65	0.000678
3414.3	0.0016152
3423.94	0.001103
3433.59	0.000685
3443.23	0.00047
3452.88	0.000654
3462.52	0.0015776
3472.17	0.000782
3481.81	0.000626
3491.46	0.001353
3501.1	0.000903
3510.75	0.00158019
3520.39	0.001194
3530.04	0.0017717
3539.68	0.0014518
3549.32	0.00153115
3558.97	0.0017693
3568.61	0.001357
3578.26	0.0014638
3587.9	0.00156104
3597.55	0.00265
3607.19	0.00345
3616.84	0.00597
3626.48	0.01649
3636.13	0.03847
3645.77	0.03245
3655.42	0.00401
3665.06	0.0023508
3674.71	0.001396
3684.35	0.0022562
3694	0.0016861
3703.64	0.000948
3713.29	0.000919
3722.93	0.0014761
3732.58	0.0016393
3742.22	0.002239
3751.86	0.0015381
3761.51	0.00157382
3771.15	0.000868
3780.8	0.001037
3790.44	0.0017907
3800.09	0.0019343
3809.73	0.001019
3819.38	0.001246
3829.02	0.0014585
3838.67	0.0018156
3848.31	0.001148
3857.96	0.000995
3867.6	0.0016686
3877.25	0.000986
3886.89	0.000768
3896.54	0.000722
3906.18	0.001374
3915.83	0.000647
3925.47	0.001289
3935.12	0.001331
3944.76	0.000851
3954.41	0.000876
3964.05	0.001812
3973.69	0.001348
3983.34	0.00042
3992.98	0.0016123
