Infrared Spectrum: Ethyl 3-ethoxy-cis-crotonate
Formula: C 8 H 14 O 3
CAS: 5331-73-7
State: gas
Origin: EPA-IR VAPOR PHASE LIBRARY
1/CM	ABSORBANCE
551.7	0.001848
563.274	0.001668
574.848	0.001918
586.421	0.001968
597.995	0.001568
609.569	0.001428
621.143	0.001298
632.717	0.001378
644.291	0.001468
655.864	0.001618
667.438	0.001768
679.012	0.002168
690.586	0.002618
702.16	0.003038
713.734	0.003978
725.307	0.006618
736.881	0.009098
748.455	0.008978
760.029	0.009768
771.603	0.011708
783.177	0.013958
794.75	0.018698
806.324	0.031238
817.898	0.046348
829.472	0.043098
841.046	0.025378
852.619	0.015148
864.193	0.010738
875.767	0.009248
887.341	0.010418
898.915	0.012968
910.489	0.011558
922.062	0.008868
933.636	0.008938
945.21	0.012168
956.784	0.018858
968.358	0.028838
979.932	0.038158
991.505	0.041188
1003.08	0.033268
1014.65	0.031278
1026.23	0.047828
1037.8	0.105608
1049.37	0.213788
1060.95	0.220468
1072.52	0.141438
1084.1	0.117128
1095.67	0.139278
1107.24	0.166338
1118.82	0.246728
1130.39	0.487998
1141.97	0.593288
1153.54	0.257098
1165.11	0.110498
1176.69	0.074138
1188.26	0.053668
1199.83	0.060818
1211.41	0.080288
1222.98	0.073448
1234.56	0.065698
1246.13	0.101478
1257.7	0.154758
1269.28	0.156138
1280.85	0.091198
1292.42	0.056928
1304	0.047928
1315.57	0.042898
1327.15	0.064118
1338.72	0.098778
1350.29	0.073148
1361.87	0.048938
1373.44	0.070838
1385.02	0.108518
1396.59	0.102378
1408.16	0.060128
1419.74	0.040678
1431.31	0.037688
1442.88	0.039548
1454.46	0.038608
1466.03	0.036138
1477.61	0.036258
1489.18	0.027488
1500.75	0.018398
1512.33	0.016678
1523.9	0.016958
1535.48	0.017638
1547.05	0.019008
1558.62	0.021008
1570.2	0.024948
1581.77	0.031858
1593.34	0.046198
1604.92	0.083268
1616.49	0.190288
1628.07	0.357568
1639.64	0.304228
1651.21	0.130828
1662.79	0.052598
1674.36	0.035118
1685.93	0.035218
1697.51	0.045358
1709.08	0.093078
1720.66	0.229708
1732.23	0.262468
1743.8	0.103088
1755.38	0.030998
1766.95	0.018418
1778.53	0.014158
1790.1	0.010278
1801.67	0.007408
1813.25	0.005798
1824.82	0.004838
1836.39	0.004148
1847.97	0.003918
1859.54	0.003978
1871.12	0.004228
1882.69	0.004628
1894.26	0.004978
1905.84	0.005208
1917.41	0.005518
1928.99	0.005528
1940.56	0.005088
1952.13	0.004358
1963.71	0.003848
1975.28	0.003558
1986.85	0.003288
1998.43	0.003368
2010	0.003658
2021.58	0.003528
2033.15	0.003098
2044.72	0.002868
2056.3	0.002688
2067.87	0.002748
2079.44	0.003098
2091.02	0.003508
2102.59	0.003368
2114.17	0.003278
2125.74	0.003448
2137.31	0.003538
2148.89	0.003318
2160.46	0.003028
2172.04	0.002778
2183.61	0.002438
2195.18	0.002348
2206.76	0.002438
2218.33	0.002638
2229.9	0.002668
2241.48	0.002618
2253.05	0.002778
2264.63	0.002728
2276.2	0.002478
2287.77	0.002018
2299.35	0.001818
2310.92	0.001618
2322.5	0.001558
2334.07	0.001618
2345.64	0.001728
2357.22	0.001928
2368.79	0.002288
2380.36	0.002768
2391.94	0.003058
2403.51	0.003098
2415.09	0.003048
2426.66	0.002928
2438.23	0.002898
2449.81	0.002738
2461.38	0.002648
2472.96	0.002178
2484.53	0.001848
2496.1	0.001868
2507.68	0.002078
2519.25	0.002378
2530.82	0.002458
2542.4	0.002078
2553.97	0.001428
2565.55	0.0010173
2577.12	0.0009328
2588.69	0.0009043
2600.27	0.0010586
2611.84	0.001125
2623.41	0.001148
2634.99	0.001146
2646.56	0.0010333
2658.14	0.0010479
2669.71	0.0010712
2681.28	0.001188
2692.86	0.001298
2704.43	0.001638
2716.01	0.002118
2727.58	0.002788
2739.15	0.003158
2750.73	0.003808
2762.3	0.004468
2773.87	0.004888
2785.45	0.004538
2797.02	0.004208
2808.6	0.004508
2820.17	0.005418
2831.74	0.006528
2843.32	0.008118
2854.89	0.010908
2866.47	0.015018
2878.04	0.024208
2889.61	0.032248
2901.19	0.036418
2912.76	0.042058
2924.33	0.049218
2935.91	0.074228
2947.48	0.080348
2959.06	0.061568
2970.63	0.070378
2982.2	0.102388
2993.78	0.095728
3005.35	0.052818
3016.92	0.026158
3028.5	0.016178
3040.07	0.011508
3051.65	0.009028
3063.22	0.007628
3074.79	0.006868
3086.37	0.006968
3097.94	0.007388
3109.52	0.005818
3121.09	0.004068
3132.66	0.003138
3144.24	0.002648
3155.81	0.002238
3167.38	0.002098
3178.96	0.001918
3190.53	0.001658
3202.11	0.001558
3213.68	0.001288
3225.25	0.001278
3236.83	0.0011178
3248.4	0.0010031
3259.98	0.0009452
3271.55	0.0007482
3283.12	0.0007675
3294.7	0.0007609
3306.27	0.0006115
3317.84	0.0005585
3329.42	0.0007864
3340.99	0.0009438
3352.57	0.001228
3364.14	0.001318
3375.71	0.0010073
3387.29	0.0008993
3398.86	0.0009129
3410.43	0.0011134
3422.01	0.001478
3433.58	0.002318
3445.16	0.002388
3456.73	0.001468
3468.3	0.0007635
3479.88	0.0006536
3491.45	0.0003795
3503.03	0.0002878
3514.6	0.0002777
3526.17	0.00015952
3537.75	6.71e-05
3549.32	2.9e-05
3560.89	0.0001252
3572.47	0.00015727
3584.04	7.78e-05
3595.62	5.92e-05
3607.19	0.0002673
3618.76	0.00019081
3630.34	0.00020232
3641.91	0.000157477
3653.49	8.24e-05
3665.06	0.00016084
3676.63	8.52e-05
3688.21	8.78e-05
3699.78	7.86e-05
3711.35	0.0001975
3722.93	0.00020318
3734.5	0.000332
3746.08	0.0003514
3757.65	0.0003372
3769.22	0.0003624
3780.8	0.00049
3792.37	0.0004494
3803.94	0.0003502
3815.52	0.0003697
3827.09	0.0004587
3838.67	0.0003854
3850.24	0.0003213
3861.81	0.0003066
3873.39	0.0003559
3884.96	0.0004303
3896.54	0.0004393
3908.11	0.0002734
3919.68	0.00028
3931.26	0.0004833
3942.83	0.0003084
3954.4	0.0004095
3965.98	0.0005194
3977.55	0.0006783
3989.13	0.0007036
4000.7	0.0008067
