Infrared Spectrum: Acetamide, N-n-propyl-,
Formula: C5 H11 N O
CAS: 5331-48-6
State: LIQUID (NEAT)
Class: COBLENTZ III
Instrument: PERKIN-ELMER 21 (GRATING)
Instrument parameters: FILTER AT ABOUT 10 MICRONS
Path length: CAPILLARY
Resolution: 2
Origin: ABBOTT LABORATORIES
1/CM	TRANSMITTANCE
667	0.7006
676	0.6955
685	0.6973
694	0.6975
703	0.6865
712	0.6848
721	0.6853
730	0.6892
739	0.6803
748	0.6931
757	0.7203
766	0.7368
775	0.7523
784	0.7711
793	0.8008
802	0.8212
811	0.8271
820	0.8294
829	0.8304
838	0.8303
847	0.8284
856	0.8287
865	0.8337
874	0.8276
883	0.8122
892	0.826
901	0.8548
910	0.8593
919	0.849
928	0.8367
937	0.825
946	0.8254
955	0.8343
964	0.8211
973	0.7808
982	0.7809
991	0.8025
1000	0.8213
1009	0.8076
1018	0.7671
1027	0.7666
1036	0.7555
1045	0.801
1054	0.8256
1063	0.8281
1072	0.8062
1081	0.8029
1090	0.8003
1099	0.809
1108	0.8017
1117	0.8042
1126	0.7938
1135	0.7399
1144	0.643
1153	0.6847
1162	0.8033
1171	0.8176
1180	0.8167
1189	0.8108
1198	0.8028
1207	0.7935
1216	0.7806
1225	0.7715
1234	0.728
1243	0.6765
1252	0.6675
1261	0.6271
1270	0.5476
1279	0.48
1288	0.4683
1297	0.4991
1306	0.5966
1315	0.687
1324	0.7122
1333	0.6961
1342	0.6612
1351	0.5896
1360	0.4661
1369	0.4482
1378	0.5221
1387	0.6359
1396	0.6405
1405	0.627
1414	0.5874
1423	0.5251
1432	0.468
1441	0.4921
1450	0.5054
1459	0.5085
1468	0.5723
1477	0.6067
1486	0.6077
1495	0.5926
1504	0.5565
1513	0.5141
1522	0.4588
1531	0.3746
1540	0.2776
1549	0.2196
1558	0.2211
1567	0.2912
1576	0.4065
1585	0.5205
1594	0.5631
1603	0.5634
1612	0.4706
1621	0.3524
1630	0.2355
1639	0.1445
1648	0.1033
1657	0.0982
1666	0.2149
1675	0.367
1684	0.5112
1693	0.7063
1702	0.7741
1711	0.7955
1720	0.8093
1729	0.8171
1738	0.8232
1747	0.829
1756	0.836
1765	0.8416
1774	0.8463
1783	0.8503
1792	0.859
1801	0.8621
1810	0.8634
1819	0.8651
1828	0.8656
1837	0.8659
1846	0.8656
1855	0.8652
1864	0.8649
1873	0.8644
1882	0.8641
1891	0.8637
1900	0.8635
1909	0.8637
1918	0.8638
1927	0.8638
1936	0.863
1945	0.8623
1954	0.8616
1963	0.8609
1972	0.8602
1981	0.8596
1990	0.861
1999	0.8651
2008	0.866
2017	0.8662
2026	0.8662
2035	0.8663
2044	0.8661
2053	0.8658
2062	0.8657
2071	0.8657
2080	0.8658
2089	0.8658
2098	0.8659
2107	0.866
2116	0.8662
2125	0.8663
2134	0.8661
2143	0.866
2152	0.8658
2161	0.8657
2170	0.8655
2179	0.8653
2188	0.865
2197	0.8648
2206	0.8645
2215	0.8642
2224	0.864
2233	0.8637
2242	0.8635
2251	0.8632
2260	0.8632
2269	0.8633
2278	0.8633
2287	0.8633
2296	0.8634
2305	0.8634
2314	0.8632
2323	0.8629
2332	0.8626
2341	0.8622
2350	0.8619
2359	0.8616
2368	0.8613
2377	0.861
2386	0.8607
2395	0.8601
2404	0.8595
2413	0.859
2422	0.8584
2431	0.8578
2440	0.8573
2449	0.8567
2458	0.856
2467	0.8552
2476	0.8545
2485	0.8538
2494	0.8529
2503	0.8524
2512	0.8519
2521	0.8514
2530	0.851
2539	0.8505
2548	0.85
2557	0.8495
2566	0.8491
2575	0.8486
2584	0.8481
2593	0.8477
2602	0.8472
2611	0.8466
2620	0.8461
2629	0.8456
2638	0.8451
2647	0.8446
2656	0.8439
2665	0.8428
2674	0.8417
2683	0.8407
2692	0.8396
2701	0.8385
2710	0.8375
2719	0.8358
2728	0.833
2737	0.8304
2746	0.8277
2755	0.822
2764	0.814
2773	0.8029
2782	0.7872
2791	0.7695
2800	0.7518
2809	0.7323
2818	0.7131
2827	0.6831
2836	0.6476
2845	0.6124
2854	0.5807
2863	0.5807
2872	0.5976
2881	0.6134
2890	0.6026
2899	0.5562
2908	0.5098
2917	0.4735
2926	0.4671
2935	0.4553
2944	0.4422
2953	0.4382
2962	0.4426
2971	0.5227
2980	0.6029
2989	0.6827
2998	0.717
3007	0.717
3016	0.7145
3025	0.7007
3034	0.6762
3043	0.6519
3052	0.6277
3061	0.6036
3070	0.5857
3079	0.5864
3088	0.6093
3097	0.6402
3106	0.6706
3115	0.6883
3124	0.6931
3133	0.6942
3142	0.6915
3151	0.6688
3160	0.6425
3169	0.6163
3178	0.5903
3187	0.5645
3196	0.5387
3205	0.5132
3214	0.4878
3223	0.4624
3232	0.4373
3241	0.4123
3250	0.3874
3259	0.3627
3268	0.3381
3277	0.3274
3286	0.3276
3295	0.3296
3304	0.358
3313	0.4042
3322	0.4502
3331	0.4959
3340	0.5413
3349	0.5866
3358	0.6316
3367	0.6763
3376	0.7289
3385	0.7694
3394	0.7856
3403	0.7949
3412	0.804
3421	0.8106
3430	0.8165
3439	0.8222
3448	0.826
3457	0.8295
3466	0.833
3475	0.8364
3484	0.8394
3493	0.8421
3502	0.8447
3511	0.8475
3520	0.8499
3529	0.8521
3538	0.8541
3547	0.8563
3556	0.8584
3565	0.8604
3574	0.8621
3583	0.8631
3592	0.8642
3601	0.8652
3610	0.8662
3619	0.8673
3628	0.8681
3637	0.8686
3646	0.869
3655	0.87
3664	0.8698
3673	0.8702
3682	0.8706
3691	0.871
3700	0.8709
3709	0.8707
3718	0.8704
3727	0.8702
3736	0.8701
3745	0.8698
3754	0.8696
3763	0.8694
3772	0.8691
3781	0.8686
3790	0.8681
3799	0.8677
3808	0.8672
3817	0.8667
3826	0.8663
3835	0.8658
3844	0.8655
3853	0.8652
3862	0.865
3871	0.8647
3880	0.8644
3889	0.8641
3898	0.8641
3907	0.8641
3916	0.8641
3925	0.8641
3934	0.864
3943	0.864
3952	0.864
3961	0.864
3970	0.864
3979	0.8639
3988	0.8639
3997	0.8639
