Infrared Spectrum: 4-Nitrophenylacetone
Formula: C 9 H 9 N O 3
CAS: 5332-96-7
State: gas
Origin: EPA-IR VAPOR PHASE LIBRARY
1/CM	ABSORBANCE
549.8	0.007109
559.445	0.010859
569.09	0.010269
578.734	0.005359
588.379	0.003379
598.024	0.002149
607.669	0.001939
617.313	0.001999
626.958	0.001489
636.603	0.001449
646.248	0.003239
655.893	0.006069
665.537	0.004589
675.182	0.005639
684.827	0.011709
694.472	0.015939
704.116	0.011229
713.761	0.008229
723.406	0.012279
733.051	0.018339
742.695	0.013849
752.34	0.006339
761.985	0.003419
771.63	0.004449
781.275	0.005719
790.919	0.006069
800.564	0.007779
810.209	0.011809
819.854	0.014669
829.498	0.010929
839.143	0.014999
848.788	0.033339
858.433	0.049999
868.078	0.019229
877.722	0.008129
887.367	0.005209
897.012	0.003909
906.657	0.002879
916.301	0.002299
925.946	0.001969
935.591	0.001929
945.236	0.002149
954.88	0.002689
964.525	0.003629
974.17	0.004779
983.815	0.004449
993.46	0.004659
1003.1	0.005399
1012.75	0.010449
1022.39	0.011029
1032.04	0.003969
1041.68	0.003289
1051.33	0.003179
1060.97	0.003919
1070.62	0.003319
1080.26	0.003269
1089.91	0.004699
1099.55	0.009339
1109.2	0.014439
1118.84	0.012229
1128.49	0.012899
1138.13	0.022049
1147.78	0.035739
1157.42	0.033699
1167.07	0.021199
1176.71	0.020299
1186.36	0.023409
1196	0.021549
1205.64	0.024709
1215.29	0.029179
1224.93	0.024149
1234.58	0.016079
1244.22	0.011369
1253.87	0.009499
1263.51	0.009559
1273.16	0.012179
1282.8	0.014349
1292.45	0.017489
1302.09	0.022089
1311.74	0.026919
1321.38	0.032009
1331.03	0.046939
1340.67	0.106219
1350.32	0.193659
1359.96	0.134229
1369.61	0.052629
1379.25	0.027219
1388.9	0.020629
1398.54	0.016299
1408.18	0.013969
1417.83	0.015529
1427.47	0.016429
1437.12	0.014019
1446.76	0.010909
1456.41	0.009299
1466.05	0.009629
1475.7	0.012539
1485.34	0.020439
1494.99	0.033109
1504.63	0.029279
1514.28	0.037729
1523.92	0.076889
1533.57	0.128259
1543.21	0.128389
1552.86	0.078149
1562.5	0.042049
1572.15	0.027799
1581.79	0.024569
1591.44	0.034789
1601.08	0.050459
1610.73	0.036519
1620.37	0.017019
1630.01	0.008159
1639.66	0.006429
1649.3	0.006189
1658.95	0.006549
1668.59	0.007139
1678.24	0.008659
1687.88	0.011759
1697.53	0.017099
1707.17	0.025989
1716.82	0.042539
1726.46	0.070379
1736.11	0.079279
1745.75	0.057079
1755.4	0.036949
1765.04	0.022419
1774.69	0.013939
1784.33	0.009609
1793.98	0.006779
1803.62	0.004289
1813.27	0.002849
1822.91	0.002149
1832.55	0.001729
1842.2	0.001459
1851.84	0.0013702
1861.49	0.001409
1871.13	0.0013825
1880.78	0.0013016
1890.42	0.001529
1900.07	0.002199
1909.71	0.002929
1919.36	0.003279
1929	0.002469
1938.65	0.001669
1948.29	0.0013807
1957.94	0.0010292
1967.58	0.0010128
1977.23	0.0011288
1986.87	0.0010714
1996.52	0.0009082
2006.16	0.0009755
2015.81	0.0009371
2025.45	0.0009502
2035.1	0.0010973
2044.74	0.0009189
2054.38	0.0008717
2064.03	0.0010337
2073.67	0.0009308
2083.32	0.0009435
2092.96	0.000907
2102.61	0.0008958
2112.25	0.0008631
2121.9	0.0009759
2131.54	0.0010622
2141.19	0.0009359
2150.83	0.0008
2160.48	0.0010232
2170.12	0.0008023
2179.77	0.0008072
2189.41	0.000698
2199.06	0.0008223
2208.7	0.0010689
2218.35	0.0009614
2227.99	0.0010809
2237.64	0.0006342
2247.28	0.0006183
2256.92	0.0006151
2266.57	0.0006256
2276.21	0.0008732
2285.86	0.0009603
2295.5	0.0009158
2305.15	0.0007971
2314.79	0.0007583
2324.44	0.0007935
2334.08	0.0007236
2343.73	0.0009063
2353.37	0.000673
2363.02	0.0008754
2372.66	0.0010185
2382.31	0.0009086
2391.95	0.0008574
2401.6	0.0010471
2411.24	0.0009804
2420.89	0.0009282
2430.53	0.0011562
2440.18	0.0009982
2449.82	0.001619
2459.47	0.001789
2469.11	0.0011888
2478.75	0.0008045
2488.4	0.0009088
2498.04	0.0010464
2507.69	0.0006926
2517.33	0.0007447
2526.98	0.0006018
2536.62	0.0008199
2546.27	0.0008262
2555.91	0.0008149
2565.56	0.0007199
2575.2	0.0007974
2584.85	0.0008427
2594.49	0.0007818
2604.14	0.0012588
2613.78	0.0009731
2623.43	0.0007576
2633.07	0.0006974
2642.72	0.0008302
2652.36	0.0007922
2662.01	0.0008054
2671.65	0.0009951
2681.29	0.00133
2690.94	0.001469
2700.58	0.001749
2710.23	0.001819
2719.87	0.0013866
2729.52	0.0012303
2739.16	0.0010822
2748.81	0.00119
2758.45	0.0010299
2768.1	0.0010575
2777.74	0.0010419
2787.39	0.0010324
2797.03	0.0010342
2806.68	0.0013619
2816.32	0.001599
2825.97	0.001709
2835.61	0.002539
2845.26	0.003179
2854.9	0.003519
2864.55	0.003759
2874.19	0.004529
2883.84	0.005209
2893.48	0.005829
2903.12	0.007169
2912.77	0.008579
2922.41	0.010159
2932.06	0.010999
2941.7	0.009109
2951.35	0.007669
2960.99	0.007419
2970.64	0.007309
2980.28	0.005549
2989.93	0.004539
2999.57	0.004809
3009.22	0.005809
3018.86	0.006019
3028.51	0.005269
3038.15	0.005749
3047.8	0.007589
3057.44	0.008439
3067.09	0.007129
3076.73	0.007149
3086.38	0.006079
3096.02	0.003009
3105.67	0.001689
3115.31	0.001489
3124.95	0.0009876
3134.6	0.0008873
3144.24	0.0007113
3153.89	0.0010073
3163.53	0.0007556
3173.18	0.00039349
3182.82	0.000787
3192.47	0.0007831
3202.11	0.0010277
3211.76	0.0006757
3221.4	0.0005774
3231.05	0.0005259
3240.69	0.0005173
3250.34	0.000545
3259.98	0.0003821
3269.63	0.000186
3279.27	0.0003669
3288.92	0.0005126
3298.56	0.0008399
3308.21	0.0005196
3317.85	0.0007066
3327.49	0.0005432
3337.14	0.0007141
3346.78	0.00045257
3356.43	0.0006693
3366.07	0.000719
3375.72	0.0006726
3385.36	0.0007981
3395.01	0.00038964
3404.65	0.0005346
3414.3	0.0010442
3423.94	0.001549
3433.59	0.001579
3443.23	0.001839
3452.88	0.001889
3462.52	0.001619
3472.17	0.0013207
3481.81	0.0010955
3491.46	0.0009018
3501.1	0.0008219
3510.75	0.00049389
3520.39	0.000508
3530.04	0.0007068
3539.68	0.0006801
3549.32	0.0003871
3558.97	0.00046247
3568.61	0.0003591
3578.26	0.0005501
3587.9	0.0003152
3597.55	0.0003194
3607.19	0.000198
3616.84	0.0003702
3626.48	0.0008548
3636.13	0.0006554
3645.77	0.0007256
3655.42	0.0003773
3665.06	0.000285
3674.71	0.000124
3684.35	0.00039445
3694	0.0005261
3703.64	0.0006732
3713.29	0.0005275
3722.93	0.0006688
3732.58	0.000408681
3742.22	0.000297
3751.86	0.000608
3761.51	0.0006705
3771.15	0.000226
3780.8	0.00029
3790.44	0.000276
3800.09	0.0006465
3809.73	0.000188
3819.38	0.0007415
3829.02	0.000246
3838.67	0.00044061
3848.31	0.0005514
3857.96	0.00038935
3867.6	0.0003876
3877.25	0.0005456
3886.89	0.000217
3896.54	0.0006816
3906.18	0.0007947
3915.83	0.0003775
3925.47	0.0004514
3935.12	0.00049736
3944.76	0.0003345
3954.41	0.0005078
3964.05	0.0004896
3973.69	0.00042978
3983.34	0.0003854
3992.98	5.4e-05
