Infrared Spectrum: N-n-AMYL SUCCINIMIDE
Formula: C9 H15 N O2
CAS: 5332-35-4
State: SOLUTION (10% CCl4 FOR 5000-1330, 10% CS2 FOR 1330-625 CM^-^1)
Class: COBLENTZ
Instrument: Not specified, most likely a prism, grating, or hybrid spectrometer.
Sampling: TRANSMISSION
Path length: 0.0111 CM, 0.0115 CM
Resolution: 4
Origin: DOW CHEMICAL COMPANY
MICROMETERS	TRANSMITTANCE
2.021	0.901
2.06215	0.899
2.10331	0.897
2.14446	0.896
2.18562	0.896
2.22677	0.894
2.26793	0.879
2.30908	0.867
2.35024	0.874
2.39139	0.88
2.43255	0.88
2.4737	0.887
2.51486	0.892
2.55601	0.894
2.59717	0.896
2.63832	0.899
2.67948	0.901
2.72063	0.892
2.76178	0.879
2.80294	0.877
2.84409	0.865
2.88525	0.843
2.9264	0.806
2.96756	0.867
3.00871	0.88
3.04987	0.894
3.09102	0.897
3.13218	0.899
3.17333	0.896
3.21449	0.887
3.25564	0.877
3.2968	0.869
3.33795	0.836
3.3791	0.556
3.42026	0.13
3.46141	0.284
3.50257	0.448
3.54372	0.518
3.58488	0.79
3.62603	0.86
3.66719	0.87
3.70834	0.869
3.7495	0.88
3.79065	0.884
3.83181	0.887
3.87296	0.891
3.91412	0.887
3.95527	0.892
3.99643	0.896
4.03758	0.901
4.07873	0.904
4.11989	0.901
4.16104	0.896
4.2022	0.894
4.24335	0.887
4.28451	0.887
4.32566	0.884
4.36682	0.884
4.40797	0.884
4.44913	0.887
4.49028	0.897
4.53144	0.903
4.57259	0.901
4.61375	0.899
4.6549	0.903
4.69606	0.903
4.73721	0.899
4.77836	0.897
4.81952	0.892
4.86067	0.886
4.90183	0.887
4.94298	0.891
4.98414	0.894
5.02529	0.894
5.06645	0.891
5.1076	0.897
5.14876	0.901
5.18991	0.896
5.23107	0.88
5.27222	0.875
5.31338	0.879
5.35453	0.877
5.39568	0.872
5.43684	0.865
5.47799	0.846
5.51915	0.812
5.5603	0.787
5.60146	0.659
5.64261	0.464
5.68377	0.384
5.72492	0.452
5.76608	0.316
5.80723	0.209
5.84839	0.059
5.88954	0.034
5.9307	0.037
5.97185	0.068
6.01301	0.251
6.05416	0.522
6.09531	0.646
6.13647	0.746
6.17762	0.761
6.21878	0.765
6.25993	0.736
6.30109	0.654
6.34224	0.612
6.3834	0.588
6.42455	0.544
6.46571	0.484
6.50686	0.489
6.54802	0.552
6.58917	0.598
6.63033	0.637
6.67148	0.695
6.71263	0.744
6.75379	0.761
6.79494	0.692
6.8361	0.408
6.87725	0.423
6.91841	0.358
6.95956	0.187
7.00072	0.345
7.04187	0.518
7.08303	0.404
7.12418	0.13
7.16534	0.03
7.20649	0.086
7.24765	0.204
7.2888	0.153
7.32996	0.119
7.37111	0.154
7.41226	0.178
7.45342	0.136
7.49457	0.197
7.53573	0.331
7.57688	0.462
7.61804	0.568
7.65919	0.549
7.70035	0.488
7.7415	0.46
7.78266	0.498
7.82381	0.656
7.86497	0.697
7.90612	0.596
7.94728	0.547
7.98843	0.469
8.02959	0.314
8.07074	0.397
8.11189	0.573
8.15305	0.642
8.1942	0.647
8.23536	0.726
8.27651	0.772
8.31767	0.76
8.35882	0.63
8.39998	0.34
8.44113	0.21
8.48229	0.141
8.52344	0.139
8.5646	0.192
8.60575	0.377
8.64691	0.578
8.68806	0.658
8.72921	0.63
8.77037	0.465
8.81152	0.319
8.85268	0.09
8.89383	0.047
8.93499	0.107
8.97614	0.243
9.0173	0.481
9.05845	0.659
9.09961	0.795
9.14076	0.852
9.18192	0.872
9.22307	0.875
9.26423	0.875
9.30538	0.87
9.34654	0.855
9.38769	0.845
9.42884	0.858
9.47	0.882
9.51115	0.916
9.55231	0.94
9.59346	0.947
9.63462	0.947
9.67577	0.931
9.71693	0.916
9.75808	0.913
9.79924	0.92
9.84039	0.923
9.88155	0.913
9.9227	0.887
9.96386	0.833
10.005	0.734
10.0462	0.67
10.0873	0.84
10.1285	0.901
10.1696	0.937
10.2108	0.95
10.2519	0.952
10.2931	0.942
10.3342	0.937
10.3754	0.92
10.4166	0.896
10.4577	0.858
10.4989	0.824
10.54	0.811
10.5812	0.843
10.6223	0.894
10.6635	0.938
10.7046	0.952
10.7458	0.957
10.7869	0.948
10.8281	0.914
10.8693	0.892
10.9104	0.903
10.9516	0.937
10.9927	0.95
11.0339	0.957
11.075	0.96
11.1162	0.959
11.1573	0.945
11.1985	0.92
11.2397	0.913
11.2808	0.897
11.322	0.874
11.3631	0.853
11.4043	0.833
11.4454	0.824
11.4866	0.821
11.5277	0.818
11.5689	0.809
11.61	0.794
11.6512	0.777
11.6924	0.755
11.7335	0.743
11.7747	0.748
11.8158	0.763
11.857	0.761
11.8981	0.738
11.9393	0.707
11.9804	0.698
12.0216	0.727
12.0627	0.748
12.1039	0.724
12.1451	0.651
12.1862	0.576
12.2274	0.476
12.2685	0.467
12.3097	0.535
12.3508	0.653
12.392	0.751
12.4331	0.799
12.4743	0.828
12.5154	0.843
12.5566	0.848
12.5978	0.853
12.6389	0.863
12.6801	0.869
12.7212	0.872
12.7624	0.872
12.8035	0.872
12.8447	0.872
12.8858	0.87
12.927	0.865
12.9681	0.857
13.0093	0.85
13.0505	0.848
13.0916	0.843
13.1328	0.836
13.1739	0.826
13.2151	0.812
13.2562	0.806
13.2974	0.806
13.3385	0.806
13.3797	0.799
13.4208	0.79
13.462	0.778
13.5032	0.761
13.5443	0.731
13.5855	0.704
13.6266	0.659
13.6678	0.642
13.7089	0.627
13.7501	0.622
13.7912	0.619
13.8324	0.627
13.8736	0.641
13.9147	0.654
13.9559	0.656
13.997	0.656
14.0382	0.656
14.0793	0.649
14.1205	0.642
14.1616	0.63
14.2028	0.622
14.2439	0.607
14.2851	0.588
14.3263	0.569
14.3674	0.551
14.4086	0.539
14.4497	0.532
14.4909	0.527
14.532	0.527
14.5732	0.527
14.6143	0.518
14.6555	0.496
14.6966	0.476
14.7378	0.448
14.779	0.416
14.8201	0.397
14.8613	0.37
14.9024	0.345
14.9436	0.321
14.9847	0.289
15.0259	0.26
15.067	0.232
15.1082	0.219
15.1493	0.21
15.1905	0.214
15.2317	0.219
15.2728	0.227
15.314	0.239
15.3551	0.253
15.3963	0.275
15.4374	0.307
15.4786	0.326
15.5197	0.346
15.5609	0.36
15.602	0.372
15.6432	0.384
15.6844	0.389
15.7255	0.394
15.7667	0.396
15.8078	0.397
15.849	0.399
15.8901	0.399
15.9313	0.399
15.9724	0.399
