Infrared Spectrum: N-BROMOMETHYLPHTHALIMIDE
Formula: C9 H6 N O2 Br
CAS: 5332-26-3
State: SOLUTION (10% CHCl3)
Class: COBLENTZ
Instrument: Not specified, most likely a prism, grating, or hybrid spectrometer.
Sampling: TRANSMISSION
Path length: 0.009 CM
Resolution: 4
MICROMETERS	TRANSMITTANCE
2.094	0.994
2.13052	0.992
2.16704	0.992
2.20357	0.987
2.24009	0.987
2.27661	0.983
2.31313	0.985
2.34965	0.978
2.38617	0.98
2.4227	0.978
2.45922	0.987
2.49574	0.987
2.53226	0.982
2.56878	0.982
2.6053	0.985
2.64183	0.982
2.67835	0.982
2.71487	0.971
2.75139	0.982
2.78791	0.942
2.82443	0.928
2.86096	0.917
2.89748	0.953
2.934	0.964
2.97052	0.971
3.00704	0.978
3.04356	0.973
3.08009	0.964
3.11661	0.962
3.15313	0.966
3.18965	0.958
3.22617	0.917
3.26269	0.844
3.29922	0.791
3.33574	0.883
3.37226	0.937
3.40878	0.966
3.4453	0.962
3.48182	0.98
3.51835	0.964
3.55487	0.958
3.59139	0.964
3.62791	0.962
3.66443	0.964
3.70095	0.962
3.73748	0.955
3.774	0.962
3.81052	0.962
3.84704	0.958
3.88356	0.971
3.92009	0.953
3.95661	0.958
3.99313	0.953
4.02965	0.95
4.06617	0.944
4.10269	0.923
4.13922	0.926
4.17574	0.953
4.21226	0.958
4.24878	0.962
4.2853	0.958
4.32182	0.937
4.35835	0.941
4.39487	0.95
4.43139	0.951
4.46791	0.951
4.50443	0.958
4.54095	0.951
4.57748	0.95
4.614	0.951
4.65052	0.953
4.68704	0.951
4.72356	0.948
4.76008	0.946
4.79661	0.95
4.83313	0.953
4.86965	0.948
4.90617	0.951
4.94269	0.955
4.97921	0.944
5.01574	0.928
5.05226	0.932
5.08878	0.93
5.1253	0.921
5.16182	0.937
5.19834	0.926
5.23487	0.912
5.27139	0.885
5.30791	0.898
5.34443	0.926
5.38095	0.919
5.41748	0.9
5.454	0.885
5.49052	0.898
5.52704	0.767
5.56356	0.48
5.60008	0.153
5.63661	0.528
5.67313	0.671
5.70965	0.412
5.74617	0.112
5.78269	0.008
5.81921	0.162
5.85574	0.532
5.89226	0.73
5.92878	0.794
5.9653	0.803
6.00182	0.858
6.03834	0.883
6.07487	0.914
6.11139	0.921
6.14791	0.853
6.18443	0.778
6.22095	0.853
6.25747	0.823
6.294	0.875
6.33052	0.905
6.36704	0.919
6.40356	0.939
6.44008	0.923
6.4766	0.933
6.51313	0.939
6.54965	0.937
6.58617	0.925
6.62269	0.928
6.65921	0.93
6.69573	0.917
6.73226	0.912
6.76878	0.692
6.8053	0.478
6.84182	0.817
6.87834	0.842
6.91486	0.767
6.95139	0.792
6.98791	0.589
7.02443	0.242
7.06095	0.503
7.09747	0.598
7.134	0.537
7.17052	0.376
7.20704	0.082
7.24356	0.001
7.28008	0.041
7.3166	0.305
7.35313	0.558
7.38965	0.601
7.42617	0.642
7.46269	0.7
7.49921	0.735
7.53573	0.792
7.57226	0.814
7.60878	0.8
7.6453	0.533
7.68182	0.3
7.71834	0.591
7.75486	0.735
7.79139	0.678
7.82791	0.796
7.86443	0.798
7.90095	0.671
7.93747	0.376
7.97399	0.098
8.01052	0.028
8.04704	0.378
8.08356	0.528
8.12008	0.564
8.1566	0.567
8.19312	0.567
8.22965	0.573
8.26617	0.587
8.30269	0.639
8.33921	0.717
8.37573	0.723
8.41225	0.81
8.44878	0.835
8.4853	0.823
8.52182	0.833
8.55834	0.841
8.59486	0.858
8.63138	0.885
8.66791	0.896
8.70443	0.894
8.74095	0.907
8.77747	0.916
8.81399	0.916
8.85052	0.917
8.88704	0.907
8.92356	0.91
8.96008	0.91
8.9966	0.914
9.03312	0.914
9.06965	0.917
9.10617	0.91
9.14269	0.891
9.17921	0.875
9.21573	0.869
9.25225	0.858
9.28878	0.748
9.3253	0.508
9.36182	0.278
9.39834	0.15
9.43486	0.369
9.47138	0.651
9.50791	0.783
9.54443	0.835
9.58095	0.873
9.61747	0.887
9.65399	0.892
9.69051	0.903
9.72704	0.917
9.76356	0.921
9.80008	0.875
9.8366	0.896
9.87312	0.908
9.90964	0.914
9.94617	0.926
9.98269	0.926
10.0192	0.921
10.0557	0.925
10.0923	0.901
10.1288	0.848
10.1653	0.86
10.2018	0.883
10.2383	0.894
10.2749	0.903
10.3114	0.905
10.3479	0.907
10.3844	0.891
10.4209	0.9
10.4575	0.914
10.494	0.923
10.5305	0.916
10.567	0.919
10.6036	0.928
10.6401	0.923
10.6766	0.919
10.7131	0.917
10.7496	0.908
10.7862	0.869
10.8227	0.83
10.8592	0.587
10.8957	0.271
10.9323	0.092
10.9688	0.369
11.0053	0.678
11.0418	0.794
11.0783	0.867
11.1149	0.896
11.1514	0.905
11.1879	0.916
11.2244	0.914
11.2609	0.916
11.2975	0.932
11.334	0.93
11.3705	0.935
11.407	0.937
11.4436	0.937
11.4801	0.937
11.5166	0.932
11.5531	0.935
11.5896	0.942
11.6262	0.935
11.6627	0.937
11.6992	0.942
11.7357	0.948
11.7723	0.948
11.8088	0.937
11.8453	0.939
11.8818	0.937
11.9183	0.941
11.9549	0.942
11.9914	0.935
12.0279	0.933
12.0644	0.925
12.1009	0.93
12.1375	0.923
12.174	0.908
12.2105	0.912
12.247	0.923
12.2836	0.919
12.3201	0.926
12.3566	0.926
12.3931	0.933
12.4296	0.933
12.4662	0.923
12.5027	0.912
12.5392	0.903
12.5757	0.889
12.6123	0.882
12.6488	0.883
12.6853	0.891
12.7218	0.891
12.7583	0.887
12.7949	0.892
12.8314	0.9
12.8679	0.903
12.9044	0.905
12.9409	0.907
12.9775	0.9
13.014	0.908
13.0505	0.926
13.087	0.939
13.1236	0.946
13.1601	0.957
13.1966	0.967
13.2331	0.973
13.2696	0.975
13.3062	0.976
13.3427	0.978
13.3792	0.978
13.4157	0.971
13.4522	0.976
13.4888	0.98
13.5253	0.992
13.5618	1.003
13.5983	1.005
13.6349	1.008
13.6714	1.003
13.7079	0.998
13.7444	0.975
13.7809	0.923
13.8175	0.826
13.854	0.646
13.8905	0.528
13.927	0.46
13.9636	0.446
14.0001	0.491
14.0366	0.494
14.0731	0.501
14.1096	0.583
14.1462	0.669
14.1827	0.753
14.2192	0.819
14.2557	0.855
14.2922	0.867
14.3288	0.885
14.3653	0.892
14.4018	0.896
14.4383	0.891
14.4749	0.883
14.5114	0.896
14.5479	0.914
14.5844	0.928
14.6209	0.935
14.6575	0.941
14.694	0.951
14.7305	0.948
14.767	0.953
14.8036	0.971
14.8401	0.983
14.8766	0.991
14.9131	0.982
14.9496	0.969
14.9862	0.948
15.0227	0.919
15.0592	0.883
15.0957	0.875
15.1322	0.889
15.1688	0.919
15.2053	0.935
15.2418	0.935
15.2783	0.944
15.3149	0.955
15.3514	0.957
15.3879	0.96
15.4244	0.957
15.4609	0.951
15.4975	0.958
15.534	0.953
