Infrared Spectrum: DI-(2-O-CHLOROPHENYL-ETHYLENE)-KETONE
Formula: C17 H12 Cl2 O
CAS: 5332-98-9
State: SOLID (1.0% IN KBr PELLET)
Class: COBLENTZ
Instrument: Not specified, most likely a prism, grating, or hybrid spectrometer.
Sampling: TRANSMISSION
Path length: 0.0355 CM THICK
Resolution: 4
Origin: ANDERSON PHYSICAL LABORATORY
1/CM	TRANSMITTANCE
670.922	0.645
679.328	0.621
687.734	0.3145
696.14	0.6116
704.546	0.688
712.952	0.664
721.358	0.612
729.764	0.441
738.17	0.612
746.576	0.422
754.982	0.224
763.388	0.1071
771.794	0.4905
780.2	0.7639
788.606	0.808
797.012	0.829
805.418	0.824
813.824	0.806
822.23	0.79
830.636	0.767
839.041	0.711
847.447	0.735
855.853	0.735
864.259	0.672
872.665	0.654
881.071	0.648
889.477	0.4111
897.883	0.4969
906.289	0.7
914.695	0.711
923.101	0.696
931.507	0.682
939.913	0.661
948.319	0.628
956.725	0.553
965.131	0.558
973.537	0.4501
981.943	0.284
990.349	0.224
998.755	0.211
1007.16	0.562
1015.57	0.573
1023.97	0.541
1032.38	0.464
1040.78	0.3141
1049.19	0.2499
1057.6	0.324
1066	0.447
1074.41	0.47
1082.81	0.437
1091.22	0.375
1099.63	0.2271
1108.03	0.0741
1116.44	0.035
1124.84	0.3508
1133.25	0.291
1141.66	0.802
1150.06	0.836
1158.47	0.769
1166.87	0.625
1175.28	0.718
1183.69	0.729
1192.09	0.694
1200.5	0.6521
1208.9	0.495
1217.31	0.667
1225.72	0.706
1234.12	0.682
1242.53	0.649
1250.93	0.598
1259.34	0.547
1267.75	0.3901
1276.15	0.2439
1284.56	0.432
1292.96	0.3887
1301.37	0.452
1309.78	0.5
1318.18	0.497
1326.59	0.393
1334.99	0.199
1343.4	0.112
1351.81	0.3799
1360.21	0.747
1368.62	0.758
1377.02	0.685
1385.43	0.658
1393.84	0.663
1402.24	0.646
1410.65	0.616
1419.05	0.582
1427.46	0.528
1435.87	0.416
1444.27	0.3241
1452.68	0.2389
1461.08	0.51
1469.49	0.341
1477.9	0.2
1486.3	0.502
1494.71	0.577
1503.11	0.577
1511.52	0.577
1519.93	0.567
1528.33	0.543
1536.74	0.507
1545.14	0.465
1553.55	0.393
1561.96	0.308
1570.36	0.202
1578.77	0.169
1587.17	0.047
1595.58	0.16
1603.99	0.167
1612.39	0.049
1620.8	0.028
1629.2	0.2229
1637.61	0.5
1646.02	0.663
1654.42	0.675
1662.83	0.387
1671.23	0.223
1679.64	0.452
1688.04	0.7329
1696.45	0.806
1704.86	0.796
1713.26	0.784
1721.67	0.766
1730.07	0.76
1738.48	0.751
1746.89	0.748
1755.29	0.742
1763.7	0.739
1772.1	0.736
1780.51	0.73
1788.92	0.715
1797.32	0.7
1805.73	0.682
1814.13	0.667
1822.54	0.66
1830.95	0.657
1839.35	0.657
1847.76	0.655
1856.16	0.655
1864.57	0.655
1872.98	0.655
1881.38	0.654
1889.79	0.648
1898.19	0.639
1906.6	0.633
1915.01	0.634
1923.41	0.621
1931.82	0.601
1940.22	0.595
1948.63	0.603
1957.04	0.603
1965.44	0.588
1973.85	0.582
1982.25	0.591
1990.66	0.6
1999.07	0.607
2007.47	0.607
2015.88	0.606
2024.28	0.6025
2032.69	0.5973
2041.1	0.589
2049.5	0.5875
2057.91	0.585
2066.31	0.5828
2074.72	0.577
2083.13	0.5725
2091.53	0.569
2099.94	0.567
2108.34	0.568
2116.75	0.57
2125.16	0.57
2133.56	0.5673
2141.97	0.5612
2150.37	0.556
2158.78	0.555
2167.19	0.5523
2175.59	0.5501
2184	0.549
2192.4	0.547
2200.81	0.546
2209.22	0.5411
2217.62	0.5366
2226.03	0.535
2234.43	0.5343
2242.84	0.5321
2251.25	0.526
2259.65	0.5241
2268.06	0.523
2276.46	0.522
2284.87	0.52
2293.28	0.52
2301.68	0.519
2310.09	0.5132
2318.49	0.508
2326.9	0.5089
2335.3	0.5107
2343.71	0.513
2352.12	0.5144
2360.52	0.5179
2368.93	0.52
2377.33	0.522
2385.74	0.522
2394.15	0.5183
2402.55	0.501
2410.96	0.4894
2419.36	0.486
2427.77	0.4856
2436.18	0.4837
2444.58	0.4821
2452.99	0.482
2461.39	0.482
2469.8	0.4807
2478.21	0.48
2486.61	0.48
2495.02	0.479
2503.42	0.477
2511.83	0.476
2520.24	0.4739
2528.64	0.4722
2537.05	0.47
2545.45	0.4671
2553.86	0.464
2562.27	0.462
2570.67	0.4613
2579.08	0.4592
2587.48	0.4577
2595.89	0.455
2604.3	0.453
2612.7	0.452
2621.11	0.45
2629.51	0.449
2637.92	0.4477
2646.33	0.447
2654.73	0.4457
2663.14	0.4436
2671.54	0.4417
2679.95	0.4373
2688.36	0.434
2696.76	0.429
2705.17	0.428
2713.57	0.428
2721.98	0.428
2730.39	0.428
2738.79	0.428
2747.2	0.428
2755.6	0.428
2764.01	0.428
2772.42	0.428
2780.82	0.426
2789.23	0.425
2797.63	0.4243
2806.04	0.4224
2814.45	0.4203
2822.85	0.4199
2831.26	0.4166
2839.66	0.414
2848.07	0.413
2856.48	0.41
2864.88	0.41
2873.29	0.4088
2881.69	0.4072
2890.1	0.4038
2898.51	0.4017
2906.91	0.3998
2915.32	0.3982
2923.72	0.3959
2932.13	0.3927
2940.54	0.3908
2948.94	0.3892
2957.35	0.3888
2965.75	0.386
2974.16	0.3834
2982.57	0.383
2990.97	0.381
2999.38	0.3807
3007.78	0.3783
3016.19	0.3725
3024.59	0.3649
3033	0.3554
3041.41	0.353
3049.81	0.3502
3058.22	0.3478
3066.62	0.3401
3075.03	0.3354
3083.44	0.335
3091.84	0.3382
3100.25	0.3426
3108.65	0.3461
3117.06	0.3478
3125.47	0.3481
3133.87	0.35
3142.28	0.3489
3150.68	0.3472
3159.09	0.3469
3167.5	0.3447
3175.9	0.3399
3184.31	0.339
3192.71	0.339
3201.12	0.338
3209.53	0.3344
3217.93	0.332
3226.34	0.3319
3234.74	0.3297
3243.15	0.329
3251.56	0.329
3259.96	0.329
3268.37	0.329
3276.77	0.329
3285.18	0.329
3293.59	0.33
3301.99	0.329
3310.4	0.3265
3318.8	0.3232
3327.21	0.32
3335.62	0.318
3344.02	0.3175
3352.43	0.317
3360.83	0.314
3369.24	0.3105
3377.65	0.308
3386.05	0.306
3394.46	0.303
3402.86	0.3027
3411.27	0.301
3419.68	0.3
3428.08	0.297
3436.49	0.2955
3444.89	0.294
3453.3	0.2915
3461.71	0.29
3470.11	0.288
3478.52	0.288
3486.92	0.288
3495.33	0.288
3503.74	0.29
3512.14	0.291
3520.55	0.291
3528.95	0.291
3537.36	0.291
3545.77	0.291
3554.17	0.29
3562.58	0.29
3570.98	0.29
3579.39	0.29
3587.8	0.29
3596.2	0.29
3604.61	0.291
3613.01	0.293
3621.42	0.2937
3629.83	0.294
3638.23	0.296
3646.64	0.297
3655.04	0.2992
3663.45	0.3049
3671.85	0.308
3680.26	0.308
3688.67	0.306
3697.07	0.305
3705.48	0.303
3713.88	0.303
3722.29	0.303
3730.7	0.303
3739.1	0.302
3747.51	0.302
3755.91	0.302
3764.32	0.303
3772.73	0.303
3781.13	0.303
3789.54	0.3023
3797.94	0.302
3806.35	0.2998
3814.76	0.299
3823.16	0.2963
3831.57	0.2941
3839.97	0.293
3848.38	0.291
3856.79	0.291
3865.19	0.2901
3873.6	0.29
3882	0.29
3890.41	0.2907
3898.82	0.2939
3907.22	0.294
3915.63	0.2936
3924.03	0.2917
3932.44	0.291
3940.85	0.29
3949.25	0.288
3957.66	0.288
3966.06	0.288
3974.47	0.287
3982.88	0.2846
