Infrared Spectrum: 2'-METHYL-3',5'-DINITRO-CHALCONE
Formula: C16 H12 N2 O5
CAS: 5333-00-6
State: SOLID (1.0% IN KBr PELLET)
Class: COBLENTZ
Instrument: Not specified, most likely a prism, grating, or hybrid spectrometer.
Sampling: TRANSMISSION
Path length: 0.0355 CM THICK
Resolution: 4
Origin: ANDERSON PHYSICAL LABORATORY
1/CM	TRANSMITTANCE
666.252	0.777
674.658	0.7401
683.064	0.5492
691.47	0.578
699.876	0.4721
708.282	0.409
716.688	0.6379
725.094	0.6
733.5	0.614
741.906	0.558
750.312	0.825
758.718	0.7911
767.124	0.807
775.53	0.474
783.936	0.6929
792.342	0.908
800.748	0.825
809.154	0.849
817.56	0.954
825.966	0.954
834.372	0.941
842.778	0.923
851.184	0.891
859.59	0.8001
867.996	0.834
876.402	0.908
884.808	0.903
893.214	0.869
901.62	0.744
910.026	0.737
918.432	0.732
926.838	0.7999
935.244	0.773
943.651	0.8789
952.057	0.884
960.463	0.858
968.869	0.825
977.275	0.728
985.681	0.5
994.087	0.534
1002.49	0.4471
1010.9	0.582
1019.3	0.7339
1027.71	0.771
1036.12	0.791
1044.52	0.795
1052.93	0.735
1061.33	0.596
1069.74	0.566
1078.15	0.783
1086.55	0.806
1094.96	0.777
1103.36	0.702
1111.77	0.6
1120.18	0.315
1128.58	0.6059
1136.99	0.834
1145.39	0.821
1153.8	0.818
1162.21	0.794
1170.61	0.797
1179.02	0.741
1187.42	0.65
1195.83	0.5
1204.24	0.546
1212.64	0.653
1221.05	0.632
1229.46	0.399
1237.86	0.591
1246.27	0.773
1254.67	0.755
1263.08	0.72
1271.49	0.675
1279.89	0.591
1288.3	0.527
1296.7	0.575
1305.11	0.463
1313.52	0.384
1321.92	0.31
1330.33	0.2859
1338.73	0.193
1347.14	0.1621
1355.55	0.069
1363.95	0.2769
1372.36	0.543
1380.76	0.695
1389.17	0.609
1397.58	0.752
1405.98	0.647
1414.39	0.666
1422.79	0.818
1431.2	0.815
1439.61	0.744
1448.01	0.635
1456.42	0.481
1464.82	0.71
1473.23	0.705
1481.64	0.681
1490.04	0.624
1498.45	0.522
1506.85	0.5
1515.26	0.379
1523.67	0.202
1532.07	0.133
1540.48	0.135
1548.88	0.357
1557.29	0.548
1565.7	0.548
1574.1	0.3938
1582.51	0.4151
1590.91	0.2369
1599.32	0.148
1607.73	0.198
1616.13	0.306
1624.54	0.639
1632.94	0.771
1641.35	0.752
1649.76	0.731
1658.16	0.702
1666.57	0.5489
1674.97	0.256
1683.38	0.6538
1691.79	0.881
1700.19	0.908
1708.6	0.917
1717	0.948
1725.41	0.96
1733.82	0.977
1742.22	0.983
1750.63	0.99
1759.03	0.986
1767.44	0.986
1775.85	0.99
1784.25	0.98
1792.66	0.977
1801.06	0.968
1809.47	0.968
1817.88	0.966
1826.28	0.966
1834.69	0.968
1843.09	0.969
1851.5	0.971
1859.91	0.971
1868.31	0.972
1876.72	0.974
1885.12	0.969
1893.53	0.968
1901.94	0.968
1910.34	0.971
1918.75	0.98
1927.15	0.987
1935.56	0.984
1943.97	0.978
1952.37	0.975
1960.78	0.965
1969.18	0.959
1977.59	0.957
1986	0.957
1994.4	0.959
2002.81	0.9627
2011.21	0.962
2019.62	0.9635
2028.03	0.965
2036.43	0.965
2044.84	0.965
2053.24	0.9646
2061.65	0.963
2070.06	0.9623
2078.46	0.962
2086.87	0.9622
2095.27	0.9639
2103.68	0.9673
2112.09	0.968
2120.49	0.968
2128.9	0.968
2137.3	0.969
2145.71	0.9708
2154.12	0.974
2162.52	0.9744
2170.93	0.975
2179.33	0.974
2187.74	0.9707
2196.15	0.9673
2204.55	0.9654
2212.96	0.965
2221.36	0.9617
2229.77	0.9567
2238.18	0.954
2246.58	0.954
2254.99	0.951
2263.39	0.949
2271.8	0.9406
2280.21	0.9352
2288.61	0.933
2297.02	0.932
2305.42	0.93
2313.83	0.929
2322.24	0.927
2330.64	0.9252
2339.05	0.922
2347.46	0.921
2355.86	0.918
2364.27	0.9148
2372.67	0.914
2381.08	0.912
2389.49	0.911
2397.89	0.909
2406.3	0.908
2414.7	0.906
2423.11	0.905
2431.52	0.903
2439.92	0.902
2448.33	0.9
2456.73	0.8971
2465.14	0.8968
2473.55	0.8922
2481.95	0.89
2490.36	0.8871
2498.76	0.8807
2507.17	0.879
2515.58	0.8767
2523.98	0.875
2532.39	0.873
2540.79	0.8726
2549.2	0.8694
2557.61	0.867
2566.01	0.8658
2574.42	0.864
2582.82	0.863
2591.23	0.8613
2599.64	0.86
2608.04	0.8593
2616.45	0.8574
2624.85	0.857
2633.26	0.8549
2641.67	0.854
2650.07	0.852
2658.48	0.851
2666.88	0.849
2675.29	0.8481
2683.7	0.8439
2692.1	0.8404
2700.51	0.84
2708.91	0.8367
2717.32	0.8335
2725.73	0.8307
2734.13	0.827
2742.54	0.8205
2750.94	0.817
2759.35	0.815
2767.76	0.8121
2776.16	0.8063
2784.57	0.8021
2792.97	0.8003
2801.38	0.7981
2809.79	0.7918
2818.19	0.7886
2826.6	0.7785
2835	0.7732
2843.41	0.77
2851.82	0.77
2860.22	0.768
2868.63	0.768
2877.03	0.768
2885.44	0.7676
2893.85	0.7657
2902.25	0.7622
2910.66	0.7577
2919.06	0.7556
2927.47	0.7538
2935.88	0.753
2944.28	0.7529
2952.69	0.7496
2961.09	0.7478
2969.5	0.7405
2977.91	0.735
2986.31	0.7347
2994.72	0.7303
3003.12	0.7227
3011.53	0.7168
3019.94	0.712
3028.34	0.7033
3036.75	0.6994
3045.15	0.6888
3053.56	0.6771
3061.97	0.6715
3070.37	0.6641
3078.78	0.6569
3087.18	0.648
3095.59	0.6506
3104	0.6741
3112.4	0.7259
3120.81	0.7402
3129.21	0.74
3137.62	0.7373
3146.03	0.732
3154.43	0.731
3162.84	0.73
3171.24	0.729
3179.65	0.726
3188.06	0.725
3196.46	0.725
3204.87	0.723
3213.27	0.7191
3221.68	0.7126
3230.09	0.7106
3238.49	0.708
3246.9	0.707
3255.3	0.704
3263.71	0.7016
3272.12	0.6971
3280.52	0.6921
3288.93	0.6887
3297.33	0.6849
3305.74	0.6804
3314.15	0.6744
3322.55	0.6588
3330.96	0.6553
3339.36	0.65
3347.77	0.6367
3356.18	0.6296
3364.58	0.6213
3372.99	0.6159
3381.39	0.6096
3389.8	0.5968
3398.21	0.5937
3406.61	0.591
3415.02	0.591
3423.42	0.591
3431.83	0.591
3440.24	0.591
3448.64	0.593
3457.05	0.594
3465.46	0.5963
3473.86	0.5995
3482.27	0.602
3490.67	0.606
3499.08	0.6128
3507.49	0.6195
3515.89	0.6255
3524.3	0.6289
3532.7	0.6341
3541.11	0.6438
3549.52	0.648
3557.92	0.6529
3566.33	0.6562
3574.73	0.6614
3583.14	0.6657
3591.55	0.6679
3599.95	0.671
3608.36	0.6758
3616.76	0.68
3625.17	0.6828
3633.58	0.684
3641.98	0.684
3650.39	0.6817
3658.79	0.6801
3667.2	0.68
3675.61	0.68
3684.01	0.68
3692.42	0.68
3700.82	0.6803
3709.23	0.683
3717.64	0.6818
3726.04	0.68
3734.45	0.6809
3742.85	0.68
3751.26	0.678
3759.67	0.6772
3768.07	0.6769
3776.48	0.6747
3784.88	0.6729
3793.29	0.6712
3801.7	0.6709
3810.1	0.6657
3818.51	0.665
3826.91	0.6635
3835.32	0.663
3843.73	0.662
3852.13	0.661
3860.54	0.66
3868.94	0.66
3877.35	0.6585
3885.76	0.656
3894.16	0.654
3902.57	0.654
3910.97	0.653
3919.38	0.651
3927.79	0.65
3936.19	0.648
3944.6	0.647
3953	0.645
3961.41	0.6419
3969.82	0.639
3978.22	0.638
