Infrared Spectrum: 2,5-DI-P-ANISYL-1,4-BENZOQUINONE
Formula: C20 H16 O4
CAS: 5333-03-9
State: SOLID (1.0% IN KBr PELLET)
Class: COBLENTZ
Instrument: Not specified, most likely a prism, grating, or hybrid spectrometer.
Sampling: TRANSMISSION
Path length: 0.0355 CM THICK
Resolution: 4
Origin: ANDERSON PHYSICAL LABORATORY
1/CM	TRANSMITTANCE
660.313	0.87
668.751	0.888
677.188	0.891
685.626	0.893
694.063	0.882
702.501	0.917
710.938	0.92
719.376	0.923
727.813	0.92
736.251	0.888
744.688	0.708
753.126	0.92
761.563	0.923
770.001	0.921
778.438	0.878
786.876	0.5921
795.313	0.7961
803.751	0.4422
812.189	0.484
820.626	0.747
829.064	0.5809
837.501	0.2879
845.939	0.8179
854.376	0.918
862.814	0.926
871.251	0.932
879.689	0.914
888.126	0.887
896.564	0.864
905.001	0.778
913.439	0.242
921.876	0.8147
930.314	0.881
938.752	0.873
947.189	0.839
955.627	0.851
964.064	0.854
972.502	0.831
980.939	0.765
989.377	0.494
997.814	0.775
1006.25	0.7171
1014.69	0.4879
1023.13	0.4001
1031.56	0.3569
1040	0.842
1048.44	0.864
1056.88	0.848
1065.31	0.818
1073.75	0.798
1082.19	0.787
1090.63	0.774
1099.06	0.744
1107.5	0.6331
1115.94	0.571
1124.38	0.622
1132.81	0.633
1141.25	0.551
1149.69	0.44
1158.13	0.33
1166.56	0.0929
1175	0.025
1183.44	0.3179
1191.88	0.38
1200.31	0.4339
1208.75	0.747
1217.19	0.66
1225.63	0.601
1234.07	0.542
1242.5	0.422
1250.94	0.1709
1259.38	0.3389
1267.82	0.318
1276.25	0.7019
1284.69	0.687
1293.13	0.458
1301.57	0.204
1310	0.497
1318.44	0.821
1326.88	0.885
1335.32	0.852
1343.75	0.753
1352.19	0.5781
1360.63	0.718
1369.07	0.878
1377.5	0.905
1385.94	0.902
1394.38	0.879
1402.82	0.852
1411.25	0.821
1419.69	0.724
1428.13	0.784
1436.57	0.685
1445	0.648
1453.44	0.509
1461.88	0.554
1470.32	0.691
1478.75	0.666
1487.19	0.612
1495.63	0.46
1504.07	0.2399
1512.5	0.174
1520.94	0.6839
1529.38	0.789
1537.82	0.771
1546.25	0.765
1554.69	0.697
1563.13	0.616
1571.57	0.412
1580	0.2779
1588.44	0.2271
1596.88	0.3081
1605.32	0.138
1613.75	0.482
1622.19	0.651
1630.63	0.5589
1639.07	0.178
1647.5	0.2691
1655.94	0.5771
1664.38	0.8151
1672.82	0.92
1681.25	0.95
1689.69	0.936
1698.13	0.927
1706.57	0.935
1715	0.947
1723.44	0.948
1731.88	0.947
1740.32	0.945
1748.75	0.945
1757.19	0.944
1765.63	0.944
1774.07	0.948
1782.5	0.948
1790.94	0.953
1799.38	0.944
1807.82	0.93
1816.25	0.941
1824.69	0.948
1833.13	0.947
1841.57	0.947
1850	0.945
1858.44	0.947
1866.88	0.939
1875.32	0.926
1883.75	0.903
1892.19	0.876
1900.63	0.924
1909.07	0.944
1917.51	0.941
1925.94	0.942
1934.38	0.954
1942.82	0.947
1951.26	0.936
1959.69	0.935
1968.13	0.938
1976.57	0.945
1985.01	0.945
1993.44	0.941
2001.88	0.914
2010.32	0.903
2018.76	0.882
2027.19	0.8795
2035.63	0.8955
2044.07	0.9081
2052.51	0.9271
2060.94	0.953
2069.38	0.953
2077.82	0.9484
2086.26	0.944
2094.69	0.944
2103.13	0.9481
2111.57	0.9611
2120.01	0.9709
2128.44	0.9641
2136.88	0.9625
2145.32	0.983
2153.76	0.9829
2162.19	0.9792
2170.63	0.9724
2179.07	0.9682
2187.51	0.965
2195.94	0.9621
2204.38	0.9579
2212.82	0.9532
2221.26	0.9499
2229.69	0.947
2238.13	0.9444
2246.57	0.9394
2255.01	0.9376
2263.44	0.931
2271.88	0.9242
2280.32	0.9158
2288.76	0.9076
2297.19	0.899
2305.63	0.8934
2314.07	0.89
2322.51	0.89
2330.94	0.89
2339.38	0.89
2347.82	0.8883
2356.26	0.888
2364.69	0.888
2373.13	0.887
2381.57	0.8844
2390.01	0.8789
2398.44	0.8756
2406.88	0.873
2415.32	0.872
2423.76	0.8686
2432.19	0.8618
2440.63	0.8551
2449.07	0.8483
2457.51	0.8428
2465.94	0.8394
2474.38	0.8377
2482.82	0.8313
2491.26	0.8248
2499.69	0.822
2508.13	0.822
2516.57	0.824
2525.01	0.827
2533.44	0.827
2541.88	0.8257
2550.32	0.8152
2558.76	0.8117
2567.19	0.8096
2575.63	0.809
2584.07	0.809
2592.51	0.809
2600.95	0.809
2609.38	0.809
2617.82	0.8061
2626.26	0.8034
2634.7	0.8
2643.13	0.7939
2651.57	0.7891
2660.01	0.7856
2668.45	0.7835
2676.88	0.7803
2685.32	0.777
2693.76	0.7718
2702.2	0.7666
2710.63	0.7598
2719.07	0.751
2727.51	0.7443
2735.95	0.7395
2744.38	0.736
2752.82	0.732
2761.26	0.7255
2769.7	0.714
2778.13	0.699
2786.57	0.6758
2795.01	0.6577
2803.45	0.6641
2811.88	0.6881
2820.32	0.709
2828.76	0.7066
2837.2	0.6902
2845.63	0.668
2854.07	0.6489
2862.51	0.6367
2870.95	0.63
2879.38	0.63
2887.82	0.628
2896.26	0.6238
2904.7	0.6138
2913.13	0.6092
2921.57	0.6089
2930.01	0.607
2938.45	0.6087
2946.88	0.6359
2955.32	0.661
2963.76	0.661
2972.2	0.66
2980.63	0.658
2989.07	0.6582
2997.51	0.661
3005.95	0.6636
3014.38	0.664
3022.82	0.666
3031.26	0.666
3039.7	0.666
3048.13	0.666
3056.57	0.664
3065.01	0.664
3073.45	0.6618
3081.88	0.658
3090.32	0.6568
3098.76	0.6546
3107.2	0.6502
3115.63	0.6454
3124.07	0.6387
3132.51	0.6352
3140.95	0.6318
3149.38	0.6283
3157.82	0.6249
3166.26	0.622
3174.7	0.6197
3183.13	0.6153
3191.57	0.6117
3200.01	0.61
3208.45	0.61
3216.88	0.61
3225.32	0.6099
3233.76	0.609
3242.2	0.6077
3250.63	0.6061
3259.07	0.6038
3267.51	0.6
3275.95	0.598
3284.38	0.598
3292.82	0.5925
3301.26	0.5853
3309.7	0.5766
3318.14	0.5682
3326.57	0.5616
3335.01	0.5581
3343.45	0.5546
3351.89	0.5481
3360.32	0.5406
3368.76	0.5371
3377.2	0.5323
3385.64	0.529
3394.07	0.5268
3402.51	0.526
3410.95	0.526
3419.39	0.526
3427.82	0.526
3436.26	0.5265
3444.7	0.5284
3453.14	0.529
3461.57	0.53
3470.01	0.53
3478.45	0.53
3486.89	0.532
3495.32	0.533
3503.76	0.5355
3512.2	0.5383
3520.64	0.542
3529.07	0.5442
3537.51	0.5475
3545.95	0.55
3554.39	0.551
3562.82	0.553
3571.26	0.553
3579.7	0.553
3588.14	0.554
3596.57	0.556
3605.01	0.556
3613.45	0.556
3621.89	0.554
3630.32	0.553
3638.76	0.5494
3647.2	0.5456
3655.64	0.5419
3664.07	0.539
3672.51	0.5369
3680.95	0.535
3689.39	0.5329
3697.82	0.5314
3706.26	0.53
3714.7	0.5274
3723.14	0.5258
3731.57	0.524
3740.01	0.523
3748.45	0.521
3756.89	0.5199
3765.32	0.518
3773.76	0.517
3782.2	0.5153
3790.64	0.5138
3799.07	0.5116
3807.51	0.5098
3815.95	0.509
3824.39	0.509
3832.82	0.509
3841.26	0.509
3849.7	0.509
3858.14	0.5089
3866.57	0.508
3875.01	0.5054
3883.45	0.5021
3891.89	0.5
3900.32	0.4996
3908.76	0.497
3917.2	0.497
3925.64	0.496
3934.07	0.496
3942.51	0.4921
3950.95	0.491
3959.39	0.491
3967.82	0.491
3976.26	0.491
3984.7	0.49
