Infrared Spectrum: 4-Methyl-4-cyclohexene-1,2-dicarboxylic anhydride
Formula: C 9 H 10 O 3
CAS: 5333-84-6
State: gas
Origin: EPA-IR VAPOR PHASE LIBRARY
1/CM	ABSORBANCE
549.8	0.009955
559.445	0.009675
569.09	0.004465
578.734	0.002115
588.379	0.001825
598.024	0.002375
607.669	0.003265
617.313	0.004075
626.958	0.003675
636.603	0.002515
646.248	0.002715
655.893	0.003325
665.537	0.003175
675.182	0.003135
684.827	0.003375
694.472	0.003435
704.116	0.002915
713.761	0.002685
723.406	0.002755
733.051	0.003405
742.695	0.004025
752.34	0.004225
761.985	0.003565
771.63	0.003065
781.275	0.003915
790.919	0.006115
800.564	0.009835
810.209	0.008465
819.854	0.004135
829.498	0.002995
839.143	0.002565
848.788	0.002675
858.433	0.004135
868.078	0.006435
877.722	0.010165
887.367	0.016825
897.012	0.028235
906.657	0.047185
916.301	0.067285
925.946	0.075615
935.591	0.060495
945.236	0.037205
954.88	0.034315
964.525	0.048195
974.17	0.060515
983.815	0.046365
993.46	0.024385
1003.1	0.022385
1012.75	0.027485
1022.39	0.026565
1032.04	0.020325
1041.68	0.017775
1051.33	0.017165
1060.97	0.013435
1070.62	0.013145
1080.26	0.021825
1089.91	0.028455
1099.55	0.022695
1109.2	0.014565
1118.84	0.008335
1128.49	0.005895
1138.13	0.005575
1147.78	0.008275
1157.42	0.015025
1167.07	0.021015
1176.71	0.020405
1186.36	0.019705
1196	0.026545
1205.64	0.035665
1215.29	0.043115
1224.93	0.049815
1234.58	0.048685
1244.22	0.036895
1253.87	0.023525
1263.51	0.014045
1273.16	0.010255
1282.8	0.008295
1292.45	0.008115
1302.09	0.010815
1311.74	0.011725
1321.38	0.009685
1331.03	0.008305
1340.67	0.007865
1350.32	0.006875
1359.96	0.005445
1369.61	0.004555
1379.25	0.005145
1388.9	0.005355
1398.54	0.003635
1408.18	0.003295
1417.83	0.004015
1427.47	0.005975
1437.12	0.010655
1446.76	0.013635
1456.41	0.010735
1466.05	0.005865
1475.7	0.003285
1485.34	0.002275
1494.99	0.001825
1504.63	0.001575
1514.28	0.001585
1523.92	0.001575
1533.57	0.001635
1543.21	0.001575
1552.86	0.001625
1562.5	0.001465
1572.15	0.001535
1581.79	0.001605
1591.44	0.001955
1601.08	0.002155
1610.73	0.002165
1620.37	0.002125
1630.01	0.001975
1639.66	0.002035
1649.3	0.002395
1658.95	0.002935
1668.59	0.002845
1678.24	0.002405
1687.88	0.002255
1697.53	0.002675
1707.17	0.003195
1716.82	0.003915
1726.46	0.004795
1736.11	0.006115
1745.75	0.008765
1755.4	0.015245
1765.04	0.029225
1774.69	0.055175
1784.33	0.099055
1793.98	0.180765
1803.62	0.256535
1813.27	0.213985
1822.91	0.098305
1832.55	0.045525
1842.2	0.032975
1851.84	0.032795
1861.49	0.039715
1871.13	0.046165
1880.78	0.036515
1890.42	0.019865
1900.07	0.011155
1909.71	0.007095
1919.36	0.005065
1929	0.004005
1938.65	0.003385
1948.29	0.002705
1957.94	0.002195
1967.58	0.001805
1977.23	0.001605
1986.87	0.001615
1996.52	0.001695
2006.16	0.001705
2015.81	0.001575
2025.45	0.0012667
2035.1	0.0010413
2044.74	0.0009643
2054.38	0.0009331
2064.03	0.0009483
2073.67	0.0009714
2083.32	0.001072
2092.96	0.001212
2102.61	0.001355
2112.25	0.001495
2121.9	0.001725
2131.54	0.001815
2141.19	0.001885
2150.83	0.001885
2160.48	0.001765
2170.12	0.001635
2179.77	0.001445
2189.41	0.001455
2199.06	0.001465
2208.7	0.001345
2218.35	0.0012735
2227.99	0.0011834
2237.64	0.0010771
2247.28	0.0010098
2256.92	0.0009695
2266.57	0.0008543
2276.21	0.000803
2285.86	0.000765
2295.5	0.0007578
2305.15	0.0007382
2314.79	0.0006516
2324.44	0.0006955
2334.08	0.0006152
2343.73	0.0005904
2353.37	0.0006096
2363.02	0.0005849
2372.66	0.0006204
2382.31	0.0005673
2391.95	0.0006583
2401.6	0.000715
2411.24	0.0007815
2420.89	0.0008055
2430.53	0.0008071
2440.18	0.0007098
2449.82	0.0006816
2459.47	0.000678
2469.11	0.0005871
2478.75	0.0005882
2488.4	0.0005002
2498.04	0.00038312
2507.69	0.0004167
2517.33	0.0004595
2526.98	0.000458
2536.62	0.0004564
2546.27	0.00037066
2555.91	0.0004266
2565.56	0.00034782
2575.2	0.00039889
2584.85	0.00033908
2594.49	0.00039399
2604.14	0.0004154
2613.78	0.000311548
2623.43	0.00039943
2633.07	0.0004057
2642.72	0.00038931
2652.36	0.0004695
2662.01	0.0004205
2671.65	0.00037613
2681.29	0.0004855
2690.94	0.0004621
2700.58	0.0004876
2710.23	0.0004891
2719.87	0.0005257
2729.52	0.0006714
2739.16	0.0009465
2748.81	0.0011376
2758.45	0.0009751
2768.1	0.0006972
2777.74	0.0008021
2787.39	0.0008477
2797.03	0.0010175
2806.68	0.0012497
2816.32	0.001735
2825.97	0.002345
2835.61	0.003455
2845.26	0.006005
2854.9	0.012025
2864.55	0.016695
2874.19	0.014645
2883.84	0.012295
2893.48	0.013745
2903.12	0.016165
2912.77	0.018245
2922.41	0.019355
2932.06	0.019245
2941.7	0.020455
2951.35	0.019875
2960.99	0.017725
2970.64	0.018855
2980.28	0.017365
2989.93	0.010165
2999.57	0.005125
3009.22	0.004115
3018.86	0.003865
3028.51	0.004355
3038.15	0.006225
3047.8	0.007115
3057.44	0.004325
3067.09	0.002045
3076.73	0.001435
3086.38	0.0011846
3096.02	0.0012648
3105.67	0.0010924
3115.31	0.0009862
3124.95	0.0007516
3134.6	0.0006448
3144.24	0.000537
3153.89	0.0004534
3163.53	0.0004824
3173.18	0.0004683
3182.82	0.00037024
3192.47	0.0004573
3202.11	0.00037234
3211.76	0.000181
3221.4	0.000276
3231.05	0.0002757
3240.69	0.0002378
3250.34	0.0002787
3259.98	0.000144
3269.63	0.000172
3279.27	0.0002925
3288.92	0.00037406
3298.56	0.00029966
3308.21	0.000313102
3317.85	0.0002946
3327.49	0.0002089
3337.14	0.0002325
3346.78	0.00033529
3356.43	0.0002364
3366.07	0.0002489
3375.72	0.0002224
3385.36	0.000109
3395.01	0.0002625
3404.65	0.000198
3414.3	0.000173
3423.94	0
3433.59	0.000192
3443.23	0.000148
3452.88	0.0002863
3462.52	0.0002219
3472.17	0.0002661
3481.81	0.000186
3491.46	0.0002235
3501.1	0.0002173
3510.75	0.00035753
3520.39	0.0004193
3530.04	0.00039759
3539.68	0.000305793
3549.32	0.0004283
3558.97	0.0006051
3568.61	0.00075
3578.26	0.0008649
3587.9	0.001144
3597.55	0.0011752
3607.19	0.001575
3616.84	0.001865
3626.48	0.002265
3636.13	0.002615
3645.77	0.003025
3655.42	0.002725
3665.06	0.002365
3674.71	0.001765
3684.35	0.0010335
3694	0.0010785
3703.64	0.0007575
3713.29	0.0005627
3722.93	0.0007174
3732.58	0.000738
3742.22	0.000727
3751.86	0.0005859
3761.51	0.0002886
3771.15	0.0004291
3780.8	0.000454
3790.44	0.0004633
3800.09	0.00032084
3809.73	0.0004658
3819.38	0.0005383
3829.02	0.0004062
3838.67	0.0002907
3848.31	0.0004832
3857.96	0.00032169
3867.6	0.0002849
3877.25	0.0002487
3886.89	0.00032226
3896.54	0.0004604
3906.18	0.0002905
3915.83	0.0003879
3925.47	0.000446
3935.12	0.00033975
3944.76	0.0004382
3954.41	0.000308005
3964.05	0.00037523
3973.69	0.0002261
3983.34	0.0004068
3992.98	0.0002859
