Infrared Spectrum: Ethyl .alpha.-bromoheptanoate
Formula: C 9 H 17 Br O 2
CAS: 5333-88-0
State: gas
Origin: EPA-IR VAPOR PHASE LIBRARY
1/CM	ABSORBANCE
501.5	0.00241
513.074	0.00277
524.648	0.00251
536.222	0.00249
547.796	0.00246
559.37	0.0024
570.944	0.00263
582.518	0.00348
594.092	0.0047
605.666	0.00505
617.24	0.00446
628.814	0.00445
640.388	0.00513
651.962	0.00707
663.536	0.01089
675.11	0.01316
686.684	0.01106
698.258	0.00804
709.832	0.00734
721.406	0.00855
732.98	0.00953
744.554	0.00777
756.128	0.00654
767.702	0.0065
779.276	0.00676
790.85	0.00671
802.423	0.00601
813.997	0.00522
825.571	0.00552
837.145	0.00766
848.719	0.01097
860.293	0.01333
871.867	0.00999
883.441	0.00679
895.015	0.00683
906.589	0.00807
918.163	0.00866
929.737	0.0088
941.311	0.00792
952.885	0.00739
964.459	0.0077
976.033	0.00857
987.607	0.01037
999.181	0.01546
1010.76	0.0277
1022.33	0.04828
1033.9	0.06101
1045.48	0.05213
1057.05	0.03661
1068.63	0.02654
1080.2	0.02631
1091.77	0.03649
1103.35	0.05247
1114.92	0.05975
1126.49	0.07018
1138.07	0.1226
1149.64	0.16831
1161.22	0.11307
1172.79	0.09402
1184.36	0.08784
1195.94	0.07427
1207.51	0.07885
1219.09	0.08415
1230.66	0.08708
1242.23	0.10808
1253.81	0.12842
1265.38	0.11989
1276.96	0.08934
1288.53	0.06898
1300.1	0.05785
1311.68	0.04888
1323.25	0.03921
1334.83	0.03724
1346.4	0.03391
1357.97	0.02793
1369.55	0.04029
1381.12	0.03649
1392.7	0.02219
1404.27	0.0166
1415.84	0.01443
1427.42	0.01638
1438.99	0.0237
1450.57	0.02995
1462.14	0.03428
1473.71	0.02917
1485.29	0.0155
1496.86	0.0087
1508.44	0.00609
1520.01	0.00485
1531.58	0.00412
1543.16	0.00364
1554.73	0.00326
1566.31	0.00304
1577.88	0.00293
1589.45	0.00275
1601.03	0.00266
1612.6	0.0026
1624.18	0.00259
1635.75	0.00266
1647.32	0.00293
1658.9	0.00337
1670.47	0.00417
1682.05	0.00566
1693.62	0.00872
1705.19	0.01486
1716.77	0.02471
1728.34	0.04576
1739.92	0.11205
1751.49	0.21403
1763.06	0.15036
1774.64	0.05958
1786.21	0.02761
1797.79	0.01411
1809.36	0.00808
1820.93	0.00531
1832.51	0.0039
1844.08	0.00314
1855.66	0.00274
1867.23	0.00263
1878.8	0.0026
1890.38	0.00247
1901.95	0.00215
1913.53	0.00182
1925.1	0.0016
1936.67	0.00148
1948.25	0.00145
1959.82	0.00146
1971.4	0.0015
1982.97	0.00152
1994.54	0.0016
2006.12	0.00174
2017.69	0.00173
2029.27	0.00167
2040.84	0.00158
2052.41	0.0015
2063.99	0.00148
2075.56	0.00155
2087.14	0.00162
2098.71	0.00158
2110.28	0.00148
2121.86	0.00131
2133.43	0.00115
2145.01	0.00108
2156.58	0.00104
2168.15	0.00101
2179.73	0.0009599
2191.3	0.0009361
2202.88	0.0009036
2214.45	0.000927
2226.02	0.0009813
2237.6	0.0009995
2249.17	0.00102
2260.74	0.00104
2272.32	0.00103
2283.89	0.00107
2295.47	0.00107
2307.04	0.00114
2318.61	0.00118
2330.19	0.00115
2341.76	0.00114
2353.34	0.00111
2364.91	0.00111
2376.48	0.00108
2388.06	0.0011
2399.63	0.0011
2411.21	0.00112
2422.78	0.00112
2434.35	0.00108
2445.93	0.00102
2457.5	0.000998
2469.08	0.00101
2480.65	0.0009774
2492.22	0.0009155
2503.8	0.000912
2515.37	0.0008895
2526.95	0.0009379
2538.52	0.0009697
2550.09	0.000991
2561.67	0.0009966
2573.24	0.0009829
2584.82	0.0009882
2596.39	0.00104
2607.96	0.00107
2619.54	0.00116
2631.11	0.00124
2642.69	0.00134
2654.26	0.00141
2665.83	0.00162
2677.41	0.00181
2688.98	0.00187
2700.56	0.00184
2712.13	0.00198
2723.7	0.00227
2735.28	0.00274
2746.85	0.00313
2758.43	0.00318
2770	0.00359
2781.57	0.00427
2793.15	0.00514
2804.72	0.00628
2816.3	0.00805
2827.87	0.01064
2839.44	0.01519
2851.02	0.02654
2862.59	0.05036
2874.17	0.06285
2885.74	0.06048
2897.31	0.05267
2908.89	0.06549
2920.46	0.09383
2932.04	0.13724
2943.61	0.1497
2955.18	0.12262
2966.76	0.1404
2978.33	0.10998
2989.91	0.08098
3001.48	0.04943
3013.05	0.03006
3024.63	0.01808
3036.2	0.01156
3047.78	0.00807
3059.35	0.00615
3070.92	0.00512
3082.5	0.00449
3094.07	0.00397
3105.65	0.00352
3117.22	0.00316
3128.79	0.00286
3140.37	0.00261
3151.94	0.00238
3163.52	0.00218
3175.09	0.00193
3186.66	0.00166
3198.24	0.00148
3209.81	0.0012
3221.39	0.0009873
3232.96	0.0008164
3244.53	0.0006463
3256.11	0.0005246
3267.68	0.0004523
3279.26	0.0004027
3290.83	0.0003577
3302.4	0.0003524
3313.98	0.0003348
3325.55	0.0003255
3337.13	0.0003441
3348.7	0.0003567
3360.27	0.0003636
3371.85	0.0003862
3383.42	0.0004222
3395	0.0003112
3406.57	0.0003257
3418.14	0.0004156
3429.72	0.0004989
3441.29	0.000611
3452.86	0.0007586
3464.44	0.0011
3476.01	0.00162
3487.59	0.00206
3499.16	0.00182
3510.73	0.00119
3522.31	0.0009192
3533.88	0.0005275
3545.46	0.0004339
3557.03	0.0002999
3568.6	0.0002796
3580.18	0.0002023
3591.75	0.0002188
3603.33	0.0002393
3614.9	0.0001994
3626.47	0.0002873
3638.05	0.0002914
3649.62	0.0002805
3661.2	0.0003108
3672.77	0.0003561
3684.34	0.0002595
3695.92	0.0003124
3707.49	0.0002602
3719.07	0.0003124
3730.64	0.0003968
3742.21	0.0004025
3753.79	0.0003905
3765.36	0.0005145
3776.94	0.00053
3788.51	0.0005134
3800.08	0.0004658
3811.66	0.0003972
3823.23	0.0004496
3834.81	0.000455
3846.38	0.0004977
3857.95	0.0005357
3869.53	0.0005233
3881.1	0.0004563
3892.68	0.0005327
3904.25	0.0005244
3915.82	0.0004139
3927.4	0.0005203
3938.97	0.0004847
3950.55	0.0005402
3962.12	0.0006515
3973.69	0.0006058
3985.27	0.0008515
3996.84	0.0007479
