Infrared Spectrum: 5,6-DIMETHOXY-8-NITRO-QUINOLINE
Formula: C11 H10 N2 O4
CAS: 5333-02-8
State: SOLID (1.0% IN KBr PELLET)
Class: COBLENTZ
Instrument: Not specified, most likely a prism, grating, or hybrid spectrometer.
Sampling: TRANSMISSION
Path length: 0.0355 CM THICK
Resolution: 4
Origin: ANDERSON PHYSICAL LABORATORY
1/CM	TRANSMITTANCE
668.948	0.767
677.349	0.782
685.75	0.777
694.15	0.767
702.551	0.756
710.952	0.738
719.353	0.696
727.753	0.689
736.154	0.711
744.555	0.702
752.956	0.69
761.356	0.6391
769.757	0.4722
778.158	0.31
786.559	0.4199
794.959	0.6769
803.36	0.783
811.761	0.72
820.162	0.704
828.563	0.792
836.963	0.782
845.364	0.7141
853.765	0.644
862.166	0.6831
870.566	0.66
878.967	0.752
887.368	0.737
895.769	0.731
904.169	0.719
912.57	0.633
920.971	0.578
929.372	0.779
937.772	0.764
946.173	0.731
954.574	0.677
962.975	0.599
971.376	0.4601
979.776	0.438
988.177	0.68
996.578	0.672
1004.98	0.626
1013.38	0.549
1021.78	0.551
1030.18	0.579
1038.58	0.581
1046.98	0.569
1055.38	0.468
1063.78	0.292
1072.18	0.249
1080.59	0.534
1088.99	0.636
1097.39	0.611
1105.79	0.5161
1114.19	0.3181
1122.59	0.216
1130.99	0.5719
1139.39	0.71
1147.79	0.678
1156.19	0.582
1164.59	0.566
1172.99	0.68
1181.39	0.659
1189.8	0.609
1198.2	0.63
1206.6	0.635
1215	0.584
1223.4	0.503
1231.8	0.376
1240.2	0.342
1248.6	0.31
1257	0.177
1265.4	0.15
1273.8	0.2579
1282.2	0.537
1290.6	0.555
1299.01	0.525
1307.41	0.471
1315.81	0.343
1324.21	0.175
1332.61	0.115
1341.01	0.216
1349.41	0.213
1357.81	0.211
1366.21	0.268
1374.61	0.243
1383.01	0.358
1391.41	0.472
1399.81	0.503
1408.22	0.51
1416.62	0.59
1425.02	0.687
1433.42	0.677
1441.82	0.599
1450.22	0.513
1458.62	0.394
1467.02	0.343
1475.42	0.294
1483.82	0.315
1492.22	0.366
1500.62	0.273
1509.02	0.172
1517.43	0.168
1525.83	0.153
1534.23	0.154
1542.63	0.276
1551.03	0.402
1559.43	0.384
1567.83	0.309
1576.23	0.3821
1584.63	0.554
1593.03	0.4869
1601.43	0.346
1609.83	0.5849
1618.23	0.641
1626.64	0.569
1635.04	0.654
1643.44	0.836
1651.84	0.875
1660.24	0.89
1668.64	0.893
1677.04	0.896
1685.44	0.897
1693.84	0.902
1702.24	0.903
1710.64	0.896
1719.04	0.896
1727.44	0.896
1735.85	0.902
1744.25	0.896
1752.65	0.897
1761.05	0.89
1769.45	0.891
1777.85	0.903
1786.25	0.918
1794.65	0.939
1803.05	0.939
1811.45	0.935
1819.85	0.942
1828.25	0.956
1836.65	0.957
1845.06	0.954
1853.46	0.953
1861.86	0.948
1870.26	0.944
1878.66	0.933
1887.06	0.93
1895.46	0.929
1903.86	0.917
1912.26	0.908
1920.66	0.905
1929.06	0.909
1937.46	0.9
1945.86	0.897
1954.27	0.903
1962.67	0.906
1971.07	0.902
1979.47	0.888
1987.87	0.894
1996.27	0.899
2004.67	0.903
2013.07	0.903
2021.47	0.902
2029.87	0.8942
2038.27	0.888
2046.67	0.893
2055.07	0.8997
2063.48	0.8991
2071.88	0.8957
2080.28	0.8898
2088.68	0.885
2097.08	0.8841
2105.48	0.8838
2113.88	0.882
2122.28	0.884
2130.68	0.884
2139.08	0.882
2147.48	0.882
2155.88	0.8831
2164.28	0.8848
2172.68	0.885
2181.09	0.8813
2189.49	0.878
2197.89	0.876
2206.29	0.8731
2214.69	0.873
2223.09	0.887
2231.49	0.8999
2239.89	0.8852
2248.29	0.8886
2256.69	0.9018
2265.09	0.9054
2273.49	0.8914
2281.89	0.8938
2290.3	0.9058
2298.7	0.9162
2307.1	0.9366
2315.5	0.947
2323.9	0.9464
2332.3	0.9329
2340.7	0.9096
2349.1	0.9079
2357.5	0.9045
2365.9	0.901
2374.3	0.8825
2382.7	0.866
2391.1	0.8633
2399.51	0.8536
2407.91	0.8496
2416.31	0.848
2424.71	0.8494
2433.11	0.8532
2441.51	0.858
2449.91	0.857
2458.31	0.8482
2466.71	0.8426
2475.11	0.84
2483.51	0.839
2491.91	0.837
2500.31	0.8367
2508.72	0.8334
2517.12	0.8224
2525.52	0.8179
2533.92	0.815
2542.32	0.815
2550.72	0.815
2559.12	0.813
2567.52	0.8085
2575.92	0.806
2584.32	0.806
2592.72	0.806
2601.12	0.807
2609.52	0.807
2617.93	0.807
2626.33	0.8088
2634.73	0.809
2643.13	0.807
2651.53	0.8021
2659.93	0.7954
2668.33	0.7908
2676.73	0.7897
2685.13	0.7946
2693.53	0.7942
2701.93	0.7847
2710.33	0.7707
2718.73	0.7618
2727.14	0.7537
2735.54	0.749
2743.94	0.747
2752.34	0.7435
2760.74	0.74
2769.14	0.7351
2777.54	0.7314
2785.94	0.7198
2794.34	0.7092
2802.74	0.6936
2811.14	0.6816
2819.54	0.6698
2827.94	0.6615
2836.35	0.6542
2844.75	0.6563
2853.15	0.6604
2861.55	0.6624
2869.95	0.6541
2878.35	0.6473
2886.75	0.6374
2895.15	0.6325
2903.55	0.6236
2911.95	0.618
2920.35	0.6165
2928.75	0.614
2937.15	0.6147
2945.56	0.618
2953.96	0.6232
2962.36	0.627
2970.76	0.626
2979.16	0.624
2987.56	0.6262
2995.96	0.6291
3004.36	0.6409
3012.76	0.6525
3021.16	0.66
3029.56	0.6686
3037.96	0.6642
3046.36	0.6535
3054.77	0.6501
3063.17	0.6526
3071.57	0.6688
3079.97	0.6748
3088.37	0.677
3096.77	0.6854
3105.17	0.6951
3113.57	0.707
3121.97	0.713
3130.37	0.7125
3138.77	0.7076
3147.17	0.7043
3155.57	0.7011
3163.98	0.6878
3172.38	0.6806
3180.78	0.6773
3189.18	0.6743
3197.58	0.6654
3205.98	0.6578
3214.38	0.654
3222.78	0.6586
3231.18	0.6618
3239.58	0.6539
3247.98	0.6458
3256.38	0.6466
3264.78	0.6502
3273.19	0.659
3281.59	0.6471
3289.99	0.6327
3298.39	0.629
3306.79	0.6263
3315.19	0.6195
3323.59	0.6125
3331.99	0.6091
3340.39	0.5968
3348.79	0.5913
3357.19	0.5843
3365.59	0.584
3373.99	0.5802
3382.4	0.5696
3390.8	0.5634
3399.2	0.5527
3407.6	0.5459
3416	0.5426
3424.4	0.54
3432.8	0.5428
3441.2	0.5451
3449.6	0.5492
3458	0.5566
3466.4	0.5686
3474.8	0.578
3483.2	0.5795
3491.61	0.583
3500.01	0.5847
3508.41	0.593
3516.81	0.5944
3525.21	0.5993
3533.61	0.6104
3542.01	0.6139
3550.41	0.615
3558.81	0.617
3567.21	0.6193
3575.61	0.62
3584.01	0.6243
3592.41	0.6333
3600.82	0.6468
3609.22	0.6508
3617.62	0.6602
3626.02	0.662
3634.42	0.663
3642.82	0.6654
3651.22	0.6783
3659.62	0.69
3668.02	0.6859
3676.42	0.675
3684.82	0.671
3693.22	0.6688
3701.62	0.668
3710.03	0.6687
3718.43	0.671
3726.83	0.671
3735.23	0.6729
3743.63	0.674
3752.03	0.6722
3760.43	0.6676
3768.83	0.6589
3777.23	0.6451
3785.63	0.6411
3794.03	0.6411
3802.43	0.6473
3810.83	0.6552
3819.23	0.6625
3827.64	0.6681
3836.04	0.671
3844.44	0.6699
3852.84	0.6657
3861.24	0.6479
3869.64	0.641
3878.04	0.6375
3886.44	0.6353
3894.84	0.635
3903.24	0.6328
3911.64	0.632
3920.04	0.6293
3928.44	0.629
3936.85	0.627
3945.25	0.627
3953.65	0.627
3962.05	0.626
3970.45	0.626
3978.85	0.627
