Infrared Spectrum: 3-Isopropyl-4-methyl-1-pentyn-3-ol
Formula: C 9 H 16 O
CAS: 5333-87-9
State: gas
Origin: EPA-IR VAPOR PHASE LIBRARY
1/CM	ABSORBANCE
549.8	0.005685
559.445	0.007155
569.09	0.003855
578.734	0.003285
588.379	0.003075
598.024	0.003955
607.669	0.007585
617.313	0.026495
626.958	0.056695
636.603	0.059525
646.248	0.045665
655.893	0.042605
665.537	0.019045
675.182	0.006165
684.827	0.002285
694.472	0.001475
704.116	0.001755
713.761	0.002035
723.406	0.001285
733.051	0.001635
742.695	0.001225
752.34	0.001235
761.985	0.002125
771.63	0.0011342
781.275	0.001485
790.919	0.0009711
800.564	0.0011472
810.209	0.0006877
819.854	0.002305
829.498	0.001495
839.143	0.002185
848.788	0.002995
858.433	0.003545
868.078	0.004255
877.722	0.005735
887.367	0.005905
897.012	0.004545
906.657	0.004365
916.301	0.003635
925.946	0.005735
935.591	0.009145
945.236	0.016985
954.88	0.028095
964.525	0.036915
974.17	0.054385
983.815	0.070375
993.46	0.059775
1003.1	0.037885
1012.75	0.021315
1022.39	0.012745
1032.04	0.007155
1041.68	0.005825
1051.33	0.004965
1060.97	0.005095
1070.62	0.006455
1080.26	0.007895
1089.91	0.011295
1099.55	0.014155
1109.2	0.015445
1118.84	0.013945
1128.49	0.012995
1138.13	0.017605
1147.78	0.022725
1157.42	0.019855
1167.07	0.016265
1176.71	0.012655
1186.36	0.008525
1196	0.006615
1205.64	0.009105
1215.29	0.007715
1224.93	0.008935
1234.58	0.013125
1244.22	0.023515
1253.87	0.028255
1263.51	0.024615
1273.16	0.019285
1282.8	0.020515
1292.45	0.022365
1302.09	0.024555
1311.74	0.024905
1321.38	0.021675
1331.03	0.021695
1340.67	0.022385
1350.32	0.020255
1359.96	0.018405
1369.61	0.020745
1379.25	0.025745
1388.9	0.027475
1398.54	0.018245
1408.18	0.007555
1417.83	0.004775
1427.47	0.004685
1437.12	0.006275
1446.76	0.009955
1456.41	0.016075
1466.05	0.021455
1475.7	0.020955
1485.34	0.013415
1494.99	0.006475
1504.63	0.003525
1514.28	0.002815
1523.92	0.002295
1533.57	0.002075
1543.21	0.001955
1552.86	0.001835
1562.5	0.001475
1572.15	0.001465
1581.79	0.001098
1591.44	0.001195
1601.08	0.001405
1610.73	0.001185
1620.37	0.001815
1630.01	0.001205
1639.66	0.0011517
1649.3	0.001435
1658.95	0.001595
1668.59	0.001385
1678.24	0.001195
1687.88	0.0011492
1697.53	0.0010774
1707.17	0.0010314
1716.82	0.0006069
1726.46	0.0006269
1736.11	0.00076
1745.75	0.0006972
1755.4	0.0004366
1765.04	0.00027311
1774.69	0.000407
1784.33	0.0003681
1793.98	0.0007409
1803.62	0.0006236
1813.27	0.0007246
1822.91	0.0006951
1832.55	0.0004306
1842.2	0.0005618
1851.84	0.0005316
1861.49	0.0006179
1871.13	0.0005626
1880.78	0.0003456
1890.42	0.0004447
1900.07	0.0006266
1909.71	0.00071
1919.36	0.000309
1929	0.0008129
1938.65	0.0007178
1948.29	0.0006944
1957.94	0.0007238
1967.58	0.0007196
1977.23	0.000738
1986.87	0.0005342
1996.52	0.000549
2006.16	0.0003577
2015.81	0.0005174
2025.45	0.000493
2035.1	0.0005327
2044.74	0.0004752
2054.38	0.0005041
2064.03	0.0004306
2073.67	0.0004415
2083.32	0.0004477
2092.96	0.0005961
2102.61	0.0009223
2112.25	0.0005144
2121.9	0.000716
2131.54	0.0005994
2141.19	0.0003388
2150.83	0.0004192
2160.48	0.0007829
2170.12	0.0005362
2179.77	0.0005076
2189.41	0.0006797
2199.06	0.0003921
2208.7	0.0003866
2218.35	0.000493
2227.99	0.0007209
2237.64	0.0007372
2247.28	0.000962
2256.92	0.00085
2266.57	0.0005799
2276.21	0.000887
2285.86	0.0006244
2295.5	0.0008678
2305.15	0.0006684
2314.79	0.0007521
2324.44	0.0007316
2334.08	0.0005826
2343.73	0.0006124
2353.37	0.0007674
2363.02	0.0003268
2372.66	0.0008834
2382.31	0.0007279
2391.95	0.0007119
2401.6	0.0009099
2411.24	0.0008677
2420.89	0.0006664
2430.53	0.0008606
2440.18	0.0007734
2449.82	0.0009148
2459.47	0.000801
2469.11	0.0008757
2478.75	0.0008772
2488.4	0.0009255
2498.04	0.00102
2507.69	0.0007575
2517.33	0.0010189
2526.98	0.0006773
2536.62	0.0011081
2546.27	0.0008672
2555.91	0.0011757
2565.56	0.0009883
2575.2	0.0010112
2584.85	0.001255
2594.49	0.001515
2604.14	0.001375
2613.78	0.001475
2623.43	0.001455
2633.07	0.001745
2642.72	0.001595
2652.36	0.001435
2662.01	0.0011478
2671.65	0.001225
2681.29	0.001565
2690.94	0.001395
2700.58	0.001575
2710.23	0.001615
2719.87	0.001825
2729.52	0.002225
2739.16	0.002885
2748.81	0.002515
2758.45	0.003085
2768.1	0.002915
2777.74	0.003035
2787.39	0.002535
2797.03	0.002905
2806.68	0.003295
2816.32	0.003925
2825.97	0.004425
2835.61	0.005285
2845.26	0.005895
2854.9	0.007285
2864.55	0.012165
2874.19	0.025725
2883.84	0.041915
2893.48	0.043655
2903.12	0.036745
2912.77	0.037595
2922.41	0.049125
2932.06	0.065495
2941.7	0.075535
2951.35	0.072465
2960.99	0.086415
2970.64	0.131935
2980.28	0.138035
2989.93	0.084475
2999.57	0.036815
3009.22	0.016685
3018.86	0.009645
3028.51	0.006985
3038.15	0.005315
3047.8	0.005185
3057.44	0.005395
3067.09	0.004995
3076.73	0.004125
3086.38	0.003515
3096.02	0.003695
3105.67	0.003315
3115.31	0.003025
3124.95	0.003105
3134.6	0.003155
3144.24	0.003005
3153.89	0.002485
3163.53	0.002775
3173.18	0.003205
3182.82	0.002455
3192.47	0.003075
3202.11	0.001675
3211.76	0.001615
3221.4	0.001275
3231.05	0.0010928
3240.69	0.001455
3250.34	0.0010257
3259.98	0.001885
3269.63	0.002925
3279.27	0.005105
3288.92	0.009205
3298.56	0.015625
3308.21	0.025775
3317.85	0.038175
3327.49	0.035525
3337.14	0.016305
3346.78	0.004835
3356.43	0.002855
3366.07	0.001005
3375.72	0.001595
3385.36	0.001485
3395.01	0.001545
3404.65	0.0010634
3414.3	0.0010592
3423.94	0.0005807
3433.59	0.001565
3443.23	0.001735
3452.88	0.002025
3462.52	0.001845
3472.17	0.0011738
3481.81	0.001815
3491.46	0.0010174
3501.1	0.0010758
3510.75	0.001315
3520.39	0.001455
3530.04	0.000609
3539.68	0.001365
3549.32	0.0010711
3558.97	0.0005355
3568.61	0.0010394
3578.26	0.0011683
3587.9	0.0010449
3597.55	0.0009611
3607.19	0.0010482
3616.84	0.001845
3626.48	0.003885
3636.13	0.009735
3645.77	0.016655
3655.42	0.013165
3665.06	0.006175
3674.71	0.002025
3684.35	0.001375
3694	0.0004425
3703.64	0.0008005
3713.29	0.0005886
3722.93	0.0004134
3732.58	8.86e-05
3742.22	0.0008335
3751.86	0.001335
3761.51	0.0007077
3771.15	0.0006693
3780.8	0.001435
3790.44	0.0010249
3800.09	0.0008477
3809.73	0.0010295
3819.38	0.0007095
3829.02	0.0008369
3838.67	0.001325
3848.31	0.0007479
3857.96	0.001026
3867.6	0.0003028
3877.25	0.0011307
3886.89	0.0005662
3896.54	0.0010864
3906.18	0.0011
3915.83	0.0011379
3925.47	2.1e-05
3935.12	0.001235
3944.76	0.001415
3954.41	0.0009058
3964.05	0.0011224
3973.69	0.0009574
3983.34	0.000805
3992.98	0.0009216
