Infrared Spectrum: 1H-Pyrazolo[3,4-d]pyrimidine, 4-amino-1-methyl-
Formula: C6 H7 N5
CAS: 5334-99-6
State: SOLID (1 mg / 400 mg KBr DISC)
Class: COBLENTZ III
Instrument: PERKIN-ELMER 21 (GRATING)
Instrument parameters: FILTER CHANGE ABOUT 1085 CM^-^1
Resolution: 2
Origin: SOUTHERN RESEARCH INSTITUTE
1/CM	TRANSMITTANCE
596.643	0.5828
605.688	0.5734
614.734	0.5606
623.779	0.5444
632.824	0.5284
641.87	0.5126
650.915	0.4945
659.96	0.5144
669.006	0.591
678.051	0.5999
687.096	0.5241
696.141	0.5528
705.187	0.4182
714.232	0.4732
723.277	0.6544
732.323	0.6499
741.368	0.6195
750.413	0.6787
759.459	0.684
768.504	0.6803
777.549	0.6623
786.595	0.2582
795.64	0.5324
804.685	0.6899
813.731	0.7087
822.776	0.7096
831.821	0.701
840.867	0.6737
849.912	0.5654
858.957	0.6852
868.002	0.6967
877.048	0.6857
886.093	0.6676
895.138	0.6527
904.184	0.6385
913.229	0.4353
922.274	0.4325
931.32	0.6859
940.365	0.6839
949.41	0.6705
958.456	0.6477
967.501	0.5969
976.546	0.5043
985.592	0.3642
994.637	0.568
1003.68	0.536
1012.73	0.4073
1021.77	0.5433
1030.82	0.5924
1039.86	0.607
1048.91	0.6049
1057.95	0.6065
1067	0.6166
1076.04	0.6119
1085.09	0.5855
1094.14	0.575
1103.18	0.5852
1112.23	0.5765
1121.27	0.5725
1130.32	0.5875
1139.36	0.6002
1148.41	0.5967
1157.45	0.5831
1166.5	0.5659
1175.54	0.5419
1184.59	0.4809
1193.63	0.3962
1202.68	0.5559
1211.72	0.5631
1220.77	0.5537
1229.82	0.5365
1238.86	0.5124
1247.91	0.4807
1256.95	0.4339
1266	0.2397
1275.04	0.182
1284.09	0.4266
1293.13	0.4247
1302.18	0.3843
1311.22	0.2716
1320.27	0.1321
1329.31	0.3692
1338.36	0.3091
1347.4	0.4093
1356.45	0.5751
1365.49	0.5668
1374.54	0.5252
1383.59	0.4232
1392.63	0.4157
1401.68	0.4744
1410.72	0.5287
1419.77	0.5246
1428.81	0.4987
1437.86	0.4232
1446.9	0.361
1455.95	0.4224
1464.99	0.3979
1474.04	0.4475
1483.08	0.421
1492.13	0.24
1501.17	0.4543
1510.22	0.5023
1519.27	0.5029
1528.31	0.4858
1537.36	0.4046
1546.4	0.3734
1555.45	0.186
1564.49	0.0677
1573.54	0.1754
1582.58	0.1316
1591.63	0.0427
1600.67	0.1248
1609.72	0.2542
1618.76	0.4207
1627.81	0.4295
1636.85	0.3999
1645.9	0.3375
1654.94	0.2729
1663.99	0.1238
1673.04	0.3232
1682.08	0.4676
1691.13	0.5415
1700.17	0.6434
1709.22	0.6708
1718.26	0.6898
1727.31	0.7066
1736.35	0.724
1745.4	0.7328
1754.44	0.737
1763.49	0.7388
1772.53	0.7424
1781.58	0.7465
1790.62	0.7476
1799.67	0.7482
1808.72	0.7486
1817.76	0.7474
1826.81	0.7459
1835.85	0.7436
1844.9	0.7414
1853.94	0.7403
1862.99	0.7412
1872.03	0.7406
1881.08	0.7359
1890.12	0.7297
1899.17	0.7244
1908.21	0.7198
1917.26	0.7154
1926.3	0.7075
1935.35	0.6912
1944.39	0.6963
1953.44	0.719
1962.49	0.7145
1971.53	0.7136
1980.58	0.7138
1989.62	0.7122
1998.67	0.7116
2007.71	0.7103
2016.76	0.7071
2025.8	0.7021
2034.85	0.6955
2043.89	0.6951
2052.94	0.7011
2061.98	0.704
2071.03	0.7026
2080.07	0.7004
2089.12	0.697
2098.17	0.694
2107.21	0.6933
2116.26	0.6952
2125.3	0.6967
2134.35	0.6951
2143.39	0.6924
2152.44	0.6894
2161.48	0.6856
2170.53	0.682
2179.57	0.6791
2188.62	0.6761
2197.66	0.6767
2206.71	0.6774
2215.75	0.6776
2224.8	0.673
2233.84	0.6671
2242.89	0.66
2251.94	0.6569
2260.98	0.6553
2270.03	0.6596
2279.07	0.6632
2288.12	0.6627
2297.16	0.662
2306.21	0.6609
2315.25	0.6597
2324.3	0.6585
2333.34	0.6572
2342.39	0.6559
2351.43	0.6545
2360.48	0.653
2369.52	0.6515
2378.57	0.6496
2387.62	0.6474
2396.66	0.6451
2405.71	0.6428
2414.75	0.6401
2423.8	0.6371
2432.84	0.6341
2441.89	0.6311
2450.93	0.628
2459.98	0.6248
2469.02	0.6216
2478.07	0.6185
2487.11	0.6155
2496.16	0.6125
2505.2	0.6095
2514.25	0.6063
2523.3	0.6032
2532.34	0.6035
2541.39	0.6044
2550.43	0.6023
2559.48	0.5997
2568.52	0.5942
2577.57	0.5931
2586.61	0.5916
2595.66	0.587
2604.7	0.5818
2613.75	0.5766
2622.79	0.567
2631.84	0.5568
2640.88	0.545
2649.93	0.5323
2658.97	0.5259
2668.02	0.5254
2677.07	0.5334
2686.11	0.5436
2695.16	0.5498
2704.2	0.5426
2713.25	0.5341
2722.29	0.5241
2731.34	0.5121
2740.38	0.5026
2749.43	0.5074
2758.47	0.5117
2767.52	0.5085
2776.56	0.5035
2785.61	0.4931
2794.65	0.4806
2803.7	0.4585
2812.75	0.4402
2821.79	0.4277
2830.84	0.4185
2839.88	0.4206
2848.93	0.418
2857.97	0.4111
2867.02	0.4037
2876.06	0.3955
2885.11	0.3847
2894.15	0.3644
2903.2	0.3404
2912.24	0.3218
2921.29	0.3221
2930.33	0.3287
2939.38	0.3296
2948.42	0.3236
2957.47	0.3107
2966.52	0.2987
2975.56	0.2868
2984.61	0.275
2993.65	0.2631
3002.7	0.2511
3011.74	0.2379
3020.79	0.2233
3029.83	0.202
3038.88	0.1821
3047.92	0.1605
3056.97	0.1419
3066.01	0.1316
3075.06	0.131
3084.1	0.1373
3093.15	0.1492
3102.2	0.1631
3111.24	0.1843
3120.29	0.2138
3129.33	0.2359
3138.38	0.2482
3147.42	0.2589
3156.47	0.2684
3165.51	0.2761
3174.56	0.2802
3183.6	0.2809
3192.65	0.2789
3201.69	0.2759
3210.74	0.2684
3219.78	0.2586
3228.83	0.241
3237.87	0.2192
3246.92	0.1966
3255.97	0.1851
3265.01	0.1821
3274.06	0.1848
3283.1	0.1915
3292.15	0.2116
3301.19	0.2379
3310.24	0.2609
3319.28	0.2815
3328.33	0.3006
3337.37	0.3155
3346.42	0.3317
3355.46	0.3515
3364.51	0.3699
3373.55	0.3943
3382.6	0.4274
3391.65	0.4494
3400.69	0.458
3409.74	0.4639
3418.78	0.4688
3427.83	0.4732
3436.87	0.478
3445.92	0.483
3454.96	0.4881
3464.01	0.4933
3473.05	0.4994
3482.1	0.5053
3491.14	0.5104
3500.19	0.5163
3509.23	0.5224
3518.28	0.5307
3527.33	0.5367
3536.37	0.5387
3545.42	0.5426
3554.46	0.5489
3563.51	0.5556
3572.55	0.5623
3581.6	0.5696
3590.64	0.5769
3599.69	0.5838
3608.73	0.5904
3617.78	0.5963
3626.82	0.6012
3635.87	0.6039
3644.91	0.6056
3653.96	0.6069
3663	0.6073
3672.05	0.6073
3681.1	0.607
3690.14	0.6054
3699.19	0.6047
3708.23	0.6044
3717.28	0.6029
3726.32	0.6014
3735.37	0.5995
3744.41	0.5981
3753.46	0.598
3762.5	0.5979
3771.55	0.5978
3780.59	0.5972
3789.64	0.5967
3798.68	0.5965
3807.73	0.5977
