Infrared Spectrum: 2-Hexane isothiocyanate
Formula: C 7 H 13 N S
CAS: 5334-87-2
State: gas
Origin: EPA-IR VAPOR PHASE LIBRARY
1/CM	ABSORBANCE
549.8	0.016533
559.445	0.014613
569.09	0.011203
578.734	0.008183
588.379	0.006203
598.024	0.004653
607.669	0.003963
617.313	0.003393
626.958	0.003413
636.603	0.003303
646.248	0.003523
655.893	0.002913
665.537	0.002503
675.182	0.002383
684.827	0.002903
694.472	0.003203
704.116	0.003123
713.761	0.002443
723.406	0.003133
733.051	0.004713
742.695	0.004983
752.34	0.004453
761.985	0.002763
771.63	0.001833
781.275	0.001823
790.919	0.002073
800.564	0.002143
810.209	0.002133
819.854	0.002433
829.498	0.001913
839.143	0.001773
848.788	0.002073
858.433	0.002773
868.078	0.002983
877.722	0.003253
887.367	0.003153
897.012	0.003223
906.657	0.003433
916.301	0.003213
925.946	0.003293
935.591	0.002853
945.236	0.004073
954.88	0.007233
964.525	0.010093
974.17	0.010803
983.815	0.009963
993.46	0.008883
1003.1	0.006973
1012.75	0.005663
1022.39	0.005183
1032.04	0.005343
1041.68	0.005003
1051.33	0.004833
1060.97	0.004963
1070.62	0.004453
1080.26	0.004083
1089.91	0.003943
1099.55	0.005423
1109.2	0.008383
1118.84	0.011553
1128.49	0.012993
1138.13	0.013613
1147.78	0.015703
1157.42	0.012133
1167.07	0.006983
1176.71	0.004983
1186.36	0.003803
1196	0.003253
1205.64	0.003643
1215.29	0.004633
1224.93	0.004443
1234.58	0.003933
1244.22	0.004433
1253.87	0.005193
1263.51	0.005033
1273.16	0.006083
1282.8	0.008793
1292.45	0.012493
1302.09	0.016843
1311.74	0.024163
1321.38	0.039993
1331.03	0.067383
1340.67	0.072633
1350.32	0.045163
1359.96	0.023633
1369.61	0.018113
1379.25	0.020413
1388.9	0.019603
1398.54	0.011023
1408.18	0.006563
1417.83	0.005753
1427.47	0.006453
1437.12	0.009113
1446.76	0.013553
1456.41	0.017353
1466.05	0.016593
1475.7	0.011473
1485.34	0.006453
1494.99	0.004113
1504.63	0.003203
1514.28	0.002533
1523.92	0.002243
1533.57	0.002063
1543.21	0.001753
1552.86	0.001643
1562.5	0.001513
1572.15	0.001483
1581.79	0.001603
1591.44	0.001533
1601.08	0.0013866
1610.73	0.001543
1620.37	0.0014306
1630.01	0.001463
1639.66	0.001533
1649.3	0.0014024
1658.95	0.0013263
1668.59	0.0013829
1678.24	0.0014447
1687.88	0.001533
1697.53	0.001463
1707.17	0.001473
1716.82	0.0013218
1726.46	0.0013552
1736.11	0.0013672
1745.75	0.0014274
1755.4	0.0014106
1765.04	0.0014084
1774.69	0.001473
1784.33	0.001633
1793.98	0.001833
1803.62	0.002023
1813.27	0.001993
1822.91	0.002073
1832.55	0.002243
1842.2	0.002553
1851.84	0.002813
1861.49	0.003383
1871.13	0.004093
1880.78	0.005203
1890.42	0.006683
1900.07	0.008673
1909.71	0.011413
1919.36	0.014883
1929	0.019563
1938.65	0.025313
1948.29	0.032743
1957.94	0.042173
1967.58	0.054673
1977.23	0.071083
1986.87	0.092013
1996.52	0.118123
2006.16	0.152453
2015.81	0.196603
2025.45	0.247293
2035.1	0.298503
2044.74	0.341793
2054.38	0.365773
2064.03	0.356463
2073.67	0.309113
2083.32	0.246323
2092.96	0.194853
2102.61	0.157923
2112.25	0.132843
2121.9	0.115893
2131.54	0.103143
2141.19	0.092933
2150.83	0.082303
2160.48	0.069893
2170.12	0.057653
2179.77	0.047003
2189.41	0.038093
2199.06	0.030963
2208.7	0.024743
2218.35	0.019443
2227.99	0.014793
2237.64	0.011473
2247.28	0.009223
2256.92	0.007693
2266.57	0.006773
2276.21	0.005823
2285.86	0.005023
2295.5	0.004263
2305.15	0.003493
2314.79	0.002983
2324.44	0.002583
2334.08	0.002433
2343.73	0.002293
2353.37	0.002113
2363.02	0.002173
2372.66	0.002153
2382.31	0.001993
2391.95	0.001903
2401.6	0.001833
2411.24	0.001853
2420.89	0.001843
2430.53	0.001923
2440.18	0.001953
2449.82	0.001923
2459.47	0.001823
2469.11	0.001913
2478.75	0.001853
2488.4	0.001823
2498.04	0.001943
2507.69	0.002013
2517.33	0.002013
2526.98	0.002173
2536.62	0.002253
2546.27	0.002313
2555.91	0.002423
2565.56	0.002643
2575.2	0.002923
2584.85	0.002963
2594.49	0.003043
2604.14	0.002993
2613.78	0.002923
2623.43	0.002843
2633.07	0.002833
2642.72	0.003083
2652.36	0.003333
2662.01	0.003583
2671.65	0.003983
2681.29	0.004293
2690.94	0.005023
2700.58	0.005633
2710.23	0.006163
2719.87	0.006483
2729.52	0.006573
2739.16	0.006403
2748.81	0.005983
2758.45	0.005353
2768.1	0.004783
2777.74	0.004483
2787.39	0.004593
2797.03	0.004933
2806.68	0.005313
2816.32	0.005893
2825.97	0.007083
2835.61	0.008733
2845.26	0.012593
2854.9	0.020123
2864.55	0.031683
2874.19	0.040743
2883.84	0.042173
2893.48	0.037603
2903.12	0.038933
2912.77	0.051443
2922.41	0.069663
2932.06	0.098403
2941.7	0.121633
2951.35	0.100383
2960.99	0.079553
2970.64	0.088443
2980.28	0.084673
2989.93	0.067823
2999.57	0.032863
3009.22	0.014223
3018.86	0.009293
3028.51	0.006983
3038.15	0.005913
3047.8	0.005003
3057.44	0.004063
3067.09	0.003623
3076.73	0.003263
3086.38	0.003233
3096.02	0.002713
3105.67	0.002703
3115.31	0.002423
3124.95	0.002393
3134.6	0.001943
3144.24	0.001853
3153.89	0.001643
3163.53	0.001573
3173.18	0.001543
3182.82	0.001503
3192.47	0.001523
3202.11	0.001483
3211.76	0.0013442
3221.4	0.001223
3231.05	0.0009291
3240.69	0.0008308
3250.34	0.0006113
3259.98	0.0005026
3269.63	0.0007085
3279.27	0.0005107
3288.92	0.00048257
3298.56	0.0003848
3308.21	0.000414
3317.85	0.00054945
3327.49	0.0005791
3337.14	0.000245
3346.78	0.0005533
3356.43	0.00054916
3366.07	0.00049672
3375.72	0.0006047
3385.36	0.00048334
3395.01	0.000316
3404.65	0.000346
3414.3	0.0004264
3423.94	0.000301
3433.59	0.000233
3443.23	0.000462342
3452.88	0.00048938
3462.52	0.00044573
3472.17	0.000386
3481.81	0.000251
3491.46	0.000293
3501.1	0.000382
3510.75	9.4e-05
3520.39	0.000163
3530.04	0.000227
3539.68	0.00011
3549.32	0.000173
3558.97	0.000212
3568.61	0.0003737
3578.26	0.000228
3587.9	0.000325
3597.55	0.000287
3607.19	0.000269
3616.84	0.00047785
3626.48	0.000363
3636.13	0.0004874
3645.77	0.000304
3655.42	0.00033
3665.06	0.0004098
3674.71	0.0003768
3684.35	0.0003566
3694	0.000228
3703.64	0.0003701
3713.29	0.0003956
3722.93	0.000272
3732.58	0.0005992
3742.22	0.0005675
3751.86	0.0003549
3761.51	0.00054194
3771.15	0.0004259
3780.8	0.0006501
3790.44	0.000453517
3800.09	0.0003627
3809.73	0.000460614
3819.38	0.0006113
3829.02	0.0007105
3838.67	0.000635
3848.31	0.0007432
3857.96	0.00065
3867.6	0.0008419
3877.25	0.0006582
3886.89	0.000808
3896.54	0.000962
3906.18	0.0010084
3915.83	0.0010245
3925.47	0.0011109
3935.12	0.0011369
3944.76	0.001174
3954.41	0.001503
3964.05	0.0012008
3973.69	0.001663
3983.34	0.001533
3992.98	0.001803
