Infrared Spectrum: 9,10-Phenanthrenediamine
Formula: C14 H12 N2
CAS: 53348-04-2
State: SOLID (SPLIT MULL), FLUOROLUBE FOR 3800-1335 CM^-^1, NUJOL FOR 1335-400 CM^-^1
Melting point: 165 C
Class: COBLENTZ III
Instrument: DOW KBr FOREPRISM-GRATING
Instrument parameters: BLAZED AT 3.5, 12.0, 20.0 MICRON AND CHANGED AT 5.0, 7.5, 14.9 MICRON
Sampling: TRANSMISSION
Resolution: 2
Origin: DOW CHEMICAL COMPANY
1/CM	TRANSMITTANCE
382	0.7925
391	0.7881
400	0.7828
409	0.7756
418	0.7884
427	0.781
436	0.6784
445	0.7997
454	0.7949
463	0.8441
472	0.8506
481	0.8775
490	0.8923
499	0.8936
508	0.8925
517	0.8834
526	0.8868
535	0.8697
544	0.7115
553	0.855
562	0.843
571	0.8207
580	0.7854
589	0.8253
598	0.8209
607	0.7565
616	0.6671
625	0.7341
634	0.7218
643	0.7043
652	0.7367
661	0.6693
670	0.5648
679	0.678
688	0.6592
697	0.6134
706	0.5267
715	0.1296
724	0.3428
733	0.3416
742	0.0987
751	0.119
760	0.272
769	0.5179
778	0.5094
787	0.572
796	0.5109
805	0.5628
814	0.6029
823	0.5976
832	0.558
841	0.5903
850	0.566
859	0.5485
868	0.5082
877	0.5167
886	0.5581
895	0.6164
904	0.6945
913	0.7446
922	0.7851
931	0.7518
940	0.7942
949	0.8448
958	0.8371
967	0.834
976	0.8531
985	0.8461
994	0.7799
1003	0.7838
1012	0.8563
1021	0.8575
1030	0.848
1039	0.8258
1048	0.786
1057	0.8439
1066	0.8432
1075	0.8328
1084	0.8232
1093	0.8106
1102	0.7776
1111	0.6533
1120	0.7868
1129	0.7972
1138	0.7665
1147	0.7522
1156	0.7386
1165	0.7851
1174	0.809
1183	0.8168
1192	0.8087
1201	0.796
1210	0.7574
1219	0.7685
1228	0.7543
1237	0.7274
1246	0.5249
1255	0.6703
1264	0.7187
1273	0.786
1282	0.781
1291	0.7565
1300	0.7493
1309	0.7599
1318	0.7612
1327	0.7018
1336	0.3953
1345	0.2715
1354	0.4802
1363	0.601
1372	0.6871
1381	0.7471
1390	0.7461
1399	0.6345
1408	0.4182
1417	0.6062
1426	0.6554
1435	0.4485
1444	0.3122
1453	0.6455
1462	0.7875
1471	0.8251
1480	0.815
1489	0.6908
1498	0.1672
1507	0.7371
1516	0.7982
1525	0.7934
1534	0.7606
1543	0.8308
1552	0.8246
1561	0.8039
1570	0.7528
1579	0.7307
1588	0.6807
1597	0.4171
1606	0.3639
1615	0.2813
1624	0.4544
1633	0.5018
1642	0.4297
1651	0.3436
1660	0.3686
1669	0.5095
1678	0.5947
1687	0.6694
1696	0.7271
1705	0.7734
1714	0.8275
1723	0.8364
1732	0.843
1741	0.8485
1750	0.8513
1759	0.8486
1768	0.8378
1777	0.8275
1786	0.8283
1795	0.8345
1804	0.8346
1813	0.8315
1822	0.8327
1831	0.8364
1840	0.8378
1849	0.8318
1858	0.8214
1867	0.8168
1876	0.8051
1885	0.8043
1894	0.805
1903	0.8065
1912	0.7931
1921	0.7983
1930	0.81
1939	0.7968
1948	0.7937
1957	0.8137
1966	0.8121
1975	0.809
1984	0.8056
1993	0.7987
2002	0.7914
2011	0.7901
2020	0.7887
2029	0.7867
2038	0.784
2047	0.7818
2056	0.7801
2065	0.7776
2074	0.7754
2083	0.7731
2092	0.771
2101	0.7687
2110	0.7665
2119	0.7641
2128	0.7618
2137	0.7593
2146	0.7565
2155	0.7541
2164	0.7507
2173	0.7454
2182	0.7411
2191	0.7404
2200	0.7387
2209	0.7355
2218	0.73
2227	0.7243
2236	0.7192
2245	0.7151
2254	0.7112
2263	0.7075
2272	0.7039
2281	0.7
2290	0.696
2299	0.6934
2308	0.6896
2317	0.6838
2326	0.6795
2335	0.6819
2344	0.6881
2353	0.6936
2362	0.6958
2371	0.6958
2380	0.6946
2389	0.6934
2398	0.6921
2407	0.6911
2416	0.6903
2425	0.689
2434	0.6876
2443	0.6862
2452	0.6847
2461	0.6839
2470	0.6834
2479	0.6828
2488	0.6821
2497	0.6815
2506	0.6808
2515	0.6794
2524	0.6781
2533	0.6762
2542	0.6743
2551	0.6721
2560	0.6701
2569	0.6671
2578	0.6636
2587	0.6604
2596	0.6572
2605	0.6551
2614	0.654
2623	0.6535
2632	0.6519
2641	0.6496
2650	0.6461
2659	0.6425
2668	0.6389
2677	0.637
2686	0.636
2695	0.6339
2704	0.632
2713	0.631
2722	0.6284
2731	0.6258
2740	0.6234
2749	0.6209
2758	0.618
2767	0.615
2776	0.6121
2785	0.6091
2794	0.606
2803	0.6025
2812	0.5987
2821	0.5946
2830	0.5906
2839	0.5865
2848	0.581
2857	0.5745
2866	0.5725
2875	0.5718
2884	0.568
2893	0.5621
2902	0.5554
2911	0.5478
2920	0.54
2929	0.5349
2938	0.5364
2947	0.5406
2956	0.538
2965	0.5382
2974	0.5414
2983	0.5412
2992	0.5327
3001	0.5206
3010	0.5018
3019	0.4846
3028	0.4626
3037	0.48
3046	0.4648
3055	0.4466
3064	0.3864
3073	0.4124
3082	0.4077
3091	0.4934
3100	0.501
3109	0.4977
3118	0.5085
3127	0.5068
3136	0.4982
3145	0.4882
3154	0.4779
3163	0.467
3172	0.4547
3181	0.4388
3190	0.4212
3199	0.4055
3208	0.3893
3217	0.3749
3226	0.3623
3235	0.3509
3244	0.3418
3253	0.3324
3262	0.3228
3271	0.3142
3280	0.3058
3289	0.3007
3298	0.3048
3307	0.3108
3316	0.3129
3325	0.2946
3334	0.2807
3343	0.3113
3352	0.3069
3361	0.3178
3370	0.366
3379	0.3392
3388	0.2874
3397	0.29
3406	0.4084
3415	0.4106
3424	0.435
3433	0.4633
3442	0.4682
3451	0.469
3460	0.4696
3469	0.4693
3478	0.4687
3487	0.4679
3496	0.4671
3505	0.466
3514	0.4652
3523	0.464
3532	0.4626
3541	0.461
3550	0.4597
3559	0.4577
3568	0.4558
3577	0.4539
3586	0.452
3595	0.4502
3604	0.4493
3613	0.4491
3622	0.4486
3631	0.446
3640	0.4435
3649	0.4441
3658	0.4444
3667	0.4435
3676	0.4416
3685	0.4396
3694	0.4377
3703	0.436
3712	0.4348
3721	0.4335
3730	0.4323
3739	0.4309
3748	0.429
3757	0.4272
3766	0.4258
3775	0.4243
3784	0.4229
