Infrared Spectrum: 4-Amino-1-phenylpyrazole[4,5-e]pyrimidine
Formula: C 11 H 9 N 5
CAS: 5334-30-5
State: gas
Origin: EPA-IR VAPOR PHASE LIBRARY
1/CM	ABSORBANCE
549.8	0.00295
559.445	0.00297
569.09	0.00233
578.734	0.00292
588.379	0.0021426
598.024	0.00261
607.669	0.0017277
617.313	0.001874
626.958	0.00266
636.603	0.0019163
646.248	0.00261
655.893	0.00271
665.537	0.00404
675.182	0.00394
684.827	0.00503
694.472	0.00459
704.116	0.00513
713.761	0.00441
723.406	0.0028
733.051	0.00232
742.695	0.00303
752.34	0.00476
761.985	0.00438
771.63	0.00318
781.275	0.00408
790.919	0.00558
800.564	0.00408
810.209	0.00324
819.854	0.00278
829.498	0.00335
839.143	0.00255
848.788	0.0022457
858.433	0.0020743
868.078	0.00259
877.722	0.001778
887.367	0.0022477
897.012	0.0033
906.657	0.00433
916.301	0.00324
925.946	0.0024
935.591	0.00235
945.236	0.00265
954.88	0.0038
964.525	0.00851
974.17	0.00534
983.815	0.0022751
993.46	0.0017955
1003.1	0.00254
1012.75	0.00122
1022.39	0.00135736
1032.04	0.0019752
1041.68	0.0016646
1051.33	0.0015741
1060.97	0.0020961
1070.62	0.0012998
1080.26	0.0027
1089.91	0.0013707
1099.55	0.00276
1109.2	0
1118.84	0.00273
1128.49	0.0022507
1138.13	0.0019417
1147.78	0.0020574
1157.42	0.0022984
1167.07	0.00321
1176.71	0.00264
1186.36	0.00442
1196	0.00416
1205.64	0.00305
1215.29	0.00365
1224.93	0.00261
1234.58	0.0021115
1244.22	0.00356
1253.87	0.00377
1263.51	0.00384
1273.16	0.00462
1282.8	0.00946
1292.45	0.01079
1302.09	0.00462
1311.74	0.00252
1321.38	0.0021706
1331.03	0.00264
1340.67	0.00511
1350.32	0.00794
1359.96	0.00842
1369.61	0.00368
1379.25	0.0021983
1388.9	0.0018001
1398.54	0.002262
1408.18	0.00308
1417.83	0.0057
1427.47	0.00611
1437.12	0.00458
1446.76	0.00659
1456.41	0.00787
1466.05	0.00594
1475.7	0.00488
1485.34	0.00361
1494.99	0.00767
1504.63	0.01378
1514.28	0.00511
1523.92	0.00354
1533.57	0.00293
1543.21	0.00464
1552.86	0.00811
1562.5	0.0101
1572.15	0.01037
1581.79	0.01631
1591.44	0.02016
1601.08	0.01824
1610.73	0.02368
1620.37	0.03224
1630.01	0.01723
1639.66	0.00733
1649.3	0.00403
1658.95	0.00313
1668.59	0.00281
1678.24	0.00299
1687.88	0.0023007
1697.53	0.00234
1707.17	0.0021261
1716.82	0.0020348
1726.46	0.0018139
1736.11	0.0018607
1745.75	0.0016813
1755.4	0.0017808
1765.04	0.00139774
1774.69	0.00139593
1784.33	0.0015681
1793.98	0.0016433
1803.62	0.0014988
1813.27	0.001514
1822.91	0.0015211
1832.55	0.0014273
1842.2	0.0014378
1851.84	0.00133915
1861.49	0.0012235
1871.13	0.0016192
1880.78	0.0016367
1890.42	0.0012799
1900.07	0.0014961
1909.71	0.0014692
1919.36	0.0016618
1929	0.0016683
1938.65	0.00133613
1948.29	0.00134951
1957.94	0.0015009
1967.58	0.0012653
1977.23	0.00113
1986.87	0.0014634
1996.52	0.001068
2006.16	0.00136627
2015.81	0.001209
2025.45	0.0013055
2035.1	0.00138764
2044.74	0.00135697
2054.38	0.001195
2064.03	0.001188
2073.67	0.0016157
2083.32	0.0012981
2092.96	0.0012348
2102.61	0.0012411
2112.25	0.0014704
2121.9	0.001102
2131.54	0.001208
2141.19	0.0012183
2150.83	0.0012519
2160.48	0.00130697
2170.12	0.0012981
2179.77	0.001413
2189.41	0.001459
2199.06	0.001016
2208.7	0.00134896
2218.35	0.00133526
2227.99	0.0012556
2237.64	0.00136017
2247.28	0.000945
2256.92	0.0012474
2266.57	0.0015332
2276.21	0.001194
2285.86	0.0012607
2295.5	0.00138713
2305.15	0.0014472
2314.79	0.0015002
2324.44	0.0014575
2334.08	0.0015116
2343.73	0.0014259
2353.37	0.0014157
2363.02	0.0015844
2372.66	0.00108
2382.31	0.001607
2391.95	0.0012855
2401.6	0.00137509
2411.24	0.001144
2420.89	0.00140647
2430.53	0.001089
2440.18	0.001196
2449.82	0.001116
2459.47	0.000929
2469.11	0.001152
2478.75	0.001106
2488.4	0.0015011
2498.04	0.001475
2507.69	0.00134383
2517.33	0.0014349
2526.98	0.001192
2536.62	0.001163
2546.27	0.001209
2555.91	0.00140863
2565.56	0.001035
2575.2	0.0012962
2584.85	0.00134135
2594.49	0.000937
2604.14	0.0015535
2613.78	0.0015109
2623.43	0.0014767
2633.07	0.001049
2642.72	0.0017007
2652.36	0.0015917
2662.01	0.0012331
2671.65	0.0014349
2681.29	0.001156
2690.94	0.000987
2700.58	0.000987
2710.23	0.001041
2719.87	0.0016191
2729.52	0.00139038
2739.16	0.0012483
2748.81	0.001166
2758.45	0.0014472
2768.1	0.001094
2777.74	0.001186
2787.39	0.001025
2797.03	0.000971
2806.68	0.00136405
2816.32	0.001122
2825.97	0.0012111
2835.61	0.001091
2845.26	0.001037
2854.9	0.00075
2864.55	0.0012463
2874.19	0.001095
2883.84	0.0013856
2893.48	0.0014766
2903.12	0.000911
2912.77	0.00132014
2922.41	0.001017
2932.06	0.0014891
2941.7	0.0012727
2951.35	0.001091
2960.99	0.00119
2970.64	0.000993
2980.28	0.00134215
2989.93	0.0014159
2999.57	0.001045
3009.22	0.0012293
3018.86	0.0017263
3028.51	0.00134274
3038.15	0.0021715
3047.8	0.00264
3057.44	0.00333
3067.09	0.0033
3076.73	0.0022995
3086.38	0.00283
3096.02	0.0022027
3105.67	0.0016344
3115.31	0.0015893
3124.95	0.000592
3134.6	0.00129
3144.24	0.00139838
3153.89	0.000649
3163.53	0.0012667
3173.18	0.001169
3182.82	0.001177
3192.47	0.001204
3202.11	0.0012215
3211.76	0.00135849
3221.4	0.001033
3231.05	0.000794
3240.69	0.000664
3250.34	0.001008
3259.98	0.000712
3269.63	0.000655
3279.27	0.001448
3288.92	0.0014687
3298.56	0.001186
3308.21	0.000956
3317.85	0.001108
3327.49	0.0012844
3337.14	0.000655
3346.78	0.000906
3356.43	0.000786
3366.07	0.000916
3375.72	0.0014143
3385.36	0.0014434
3395.01	0.001082
3404.65	0.0020849
3414.3	0.00299
3423.94	0.00304
3433.59	0.00296
3443.23	0.00386
3452.88	0.00332
3462.52	0.0018814
3472.17	0.000906
3481.81	0.0015275
3491.46	0.0017265
3501.1	0.0016565
3510.75	0.0021587
3520.39	0.0020389
3530.04	0.00246
3539.68	0.0012981
3549.32	0.0016546
3558.97	0.0022593
3568.61	0.0019175
3578.26	0.0022907
3587.9	0.0012809
3597.55	0.0012965
3607.19	0.00072
3616.84	0.000792
3626.48	0.0012269
3636.13	0.000969
3645.77	0.000392
3655.42	0.001
3665.06	0.0015933
3674.71	0.0015183
3684.35	0.001109
3694	0.00133588
3703.64	0.001092
3713.29	0.000656
3722.93	0.00131527
3732.58	0.0014835
3742.22	0.0016294
3751.86	0.00137274
3761.51	0.0012552
3771.15	0.0017876
3780.8	0.001087
3790.44	0.001037
3800.09	0.000887
3809.73	0.0018089
3819.38	0.000675
3829.02	0.0012128
3838.67	0.000528
3848.31	0.00138724
3857.96	0.001009
3867.6	0.001102
3877.25	0.0018504
3886.89	0.001115
3896.54	0.00136713
3906.18	0.0012
3915.83	0.0016092
3925.47	0.000903
3935.12	0.0014445
3944.76	0.000879
3954.41	0.0015031
3964.05	0.0013086
3973.69	0.0014159
3983.34	0.0012798
3992.98	0.000919
