Infrared Spectrum: 5-Amino-1-phenylpyrazole-4-carbonitrile
Formula: C 10 H 8 N 4
CAS: 5334-43-0
State: gas
Origin: EPA-IR VAPOR PHASE LIBRARY
1/CM	ABSORBANCE
549.8	0.004009
559.445	0.003479
569.09	0.003559
578.734	0.004099
588.379	0.004899
598.024	0.004469
607.669	0.004279
617.313	0.003269
626.958	0.004909
636.603	0.006659
646.248	0.005889
655.893	0.005519
665.537	0.005559
675.182	0.006709
684.827	0.011689
694.472	0.016819
704.116	0.013589
713.761	0.013639
723.406	0.010659
733.051	0.008769
742.695	0.010059
752.34	0.011859
761.985	0.014909
771.63	0.010649
781.275	0.005209
790.919	0.003289
800.564	0.003059
810.209	0.002839
819.854	0.002789
829.498	0.002709
839.143	0.003079
848.788	0.004359
858.433	0.007229
868.078	0.005519
877.722	0.002619
887.367	0.002219
897.012	0.002489
906.657	0.003139
916.301	0.003899
925.946	0.002999
935.591	0.004259
945.236	0.011079
954.88	0.017499
964.525	0.010349
974.17	0.003849
983.815	0.002859
993.46	0.002749
1003.1	0.002769
1012.75	0.002519
1022.39	0.002029
1032.04	0.0012972
1041.68	0.001689
1051.33	0.002929
1060.97	0.002469
1070.62	0.002079
1080.26	0.001589
1089.91	0.0015053
1099.55	0.000872
1109.2	0.00056771
1118.84	0.0009953
1128.49	0.0014246
1138.13	0.0013114
1147.78	0.0011409
1157.42	0.0012766
1167.07	0.001599
1176.71	0.001819
1186.36	0.001739
1196	0.0014765
1205.64	0.003039
1215.29	0.002339
1224.93	0.001579
1234.58	0.0013228
1244.22	0.0013133
1253.87	0.0013403
1263.51	0.001779
1273.16	0.002049
1282.8	0.003119
1292.45	0.002069
1302.09	0.001689
1311.74	0.0014383
1321.38	0.0015307
1331.03	0.001679
1340.67	0.001769
1350.32	0.002019
1359.96	0.003339
1369.61	0.006769
1379.25	0.005619
1388.9	0.002659
1398.54	0.002899
1408.18	0.005069
1417.83	0.010049
1427.47	0.012319
1437.12	0.007059
1446.76	0.005789
1456.41	0.007279
1466.05	0.007039
1475.7	0.008149
1485.34	0.013829
1494.99	0.023589
1504.63	0.032179
1514.28	0.038139
1523.92	0.038079
1533.57	0.018299
1543.21	0.011329
1552.86	0.020259
1562.5	0.043219
1572.15	0.033739
1581.79	0.015169
1591.44	0.020309
1601.08	0.028159
1610.73	0.028019
1620.37	0.033699
1630.01	0.026499
1639.66	0.012319
1649.3	0.005829
1658.95	0.003709
1668.59	0.002929
1678.24	0.002659
1687.88	0.002469
1697.53	0.002639
1707.17	0.003349
1716.82	0.004259
1726.46	0.002409
1736.11	0.001649
1745.75	0.0014557
1755.4	0.0012804
1765.04	0.0011593
1774.69	0.0009003
1784.33	0.0012044
1793.98	0.001544
1803.62	0.0013934
1813.27	0.0010411
1822.91	0.0009791
1832.55	0.0009471
1842.2	0.0009128
1851.84	0.0009032
1861.49	0.0010149
1871.13	0.0011435
1880.78	0.001212
1890.42	0.0012418
1900.07	0.0011573
1909.71	0.0008791
1919.36	0.000719
1929	0.0010021
1938.65	0.0012111
1948.29	0.0014474
1957.94	0.0013287
1967.58	0.0011417
1977.23	0.000846
1986.87	0.0006906
1996.52	0.000913
2006.16	0.00066417
2015.81	0.0005121
2025.45	0.000382
2035.1	0.00065148
2044.74	0.0004894
2054.38	0.00059293
2064.03	0.00065278
2073.67	0.0004966
2083.32	0.00066077
2092.96	0.0005394
2102.61	0.000446
2112.25	0.0005872
2121.9	0.00063655
2131.54	0.0005088
2141.19	0.00061501
2150.83	0.0007626
2160.48	0.0007897
2170.12	0.0009285
2179.77	0.0011598
2189.41	0.0011548
2199.06	0.001599
2208.7	0.003979
2218.35	0.015979
2227.99	0.033639
2237.64	0.014429
2247.28	0.002609
2256.92	0.0013593
2266.57	0.001022
2276.21	0.000936
2285.86	0.0008939
2295.5	0.0009425
2305.15	0.0007599
2314.79	0.0008303
2324.44	0.0008368
2334.08	0.0008483
2343.73	0.000803
2353.37	0.0007236
2363.02	0.00063698
2372.66	0.000575627
2382.31	0.00034
2391.95	0.00058648
2401.6	0.0006983
2411.24	0.0004
2420.89	0.0005213
2430.53	0.00057992
2440.18	0.000373
2449.82	0.00058756
2459.47	0.000341
2469.11	0.000376
2478.75	0.000359
2488.4	0.0005011
2498.04	0.000365
2507.69	0.000682
2517.33	0.0007902
2526.98	0.00062951
2536.62	0.0004993
2546.27	0.00060489
2555.91	0.0007474
2565.56	0.0004691
2575.2	0.000555
2584.85	0.00064647
2594.49	0.0007113
2604.14	0.00061583
2613.78	0.0008509
2623.43	0.0006967
2633.07	0.00058499
2642.72	0.00057482
2652.36	0.0007526
2662.01	0.0008955
2671.65	0.000453
2681.29	0.000364
2690.94	0.000183
2700.58	0.000438
2710.23	0.000316
2719.87	0.000402
2729.52	0.0007073
2739.16	0.00061554
2748.81	0.000288
2758.45	0.0005094
2768.1	0.0008585
2777.74	0.00094
2787.39	0.0008795
2797.03	0.0009338
2806.68	0.00063479
2816.32	0.0005455
2825.97	0.00058957
2835.61	0.0005918
2845.26	0.000578562
2854.9	0.000361
2864.55	0.000289
2874.19	0.000114
2883.84	0.00058165
2893.48	0.00061357
2903.12	0.000416
2912.77	0.000361
2922.41	0.000239
2932.06	0.0003
2941.7	0.000394
2951.35	0.0005058
2960.99	0.0005568
2970.64	0.0007031
2980.28	0.000572883
2989.93	0.0007957
2999.57	0.0006273
3009.22	0.0007715
3018.86	0.00085
3028.51	0.001599
3038.15	0.002379
3047.8	0.003489
3057.44	0.004589
3067.09	0.004519
3076.73	0.006209
3086.38	0.005619
3096.02	0.003139
3105.67	0.002419
3115.31	0.0015046
3124.95	0.0010381
3134.6	0.0009542
3144.24	0.000906
3153.89	0.0007975
3163.53	0.0005588
3173.18	0.00065588
3182.82	0.000332
3192.47	0.000333
3202.11	0.0007855
3211.76	0.0005439
3221.4	0.000569341
3231.05	0.0010235
3240.69	0.0008966
3250.34	0.0004838
3259.98	0.00058403
3269.63	0.000467
3279.27	0.0005269
3288.92	0.0004955
3298.56	0.000294
3308.21	0.000411
3317.85	0.000357
3327.49	0.0006945
3337.14	0.00062532
3346.78	0.00059496
3356.43	0.00062691
3366.07	0.0009879
3375.72	0.001659
3385.36	0.003359
3395.01	0.005379
3404.65	0.006099
3414.3	0.004679
3423.94	0.002489
3433.59	0.001989
3443.23	0.001749
3452.88	0.001889
3462.52	0.002069
3472.17	0.003999
3481.81	0.007929
3491.46	0.009959
3501.1	0.007049
3510.75	0.003649
3520.39	0.002419
3530.04	0.0013877
3539.68	0.0014349
3549.32	0.00066839
3558.97	0.0005189
3568.61	0.00060162
3578.26	0.0007796
3587.9	0.00058697
3597.55	0.0014242
3607.19	0.0008278
3616.84	0.000573666
3626.48	0.00062887
3636.13	0.0007366
3645.77	0.0005197
3655.42	0.000395
3665.06	0.000442
3674.71	0.0005466
3684.35	0.000543
3694	0.0006877
3703.64	0.0005175
3713.29	0.000161
3722.93	0.0004801
3732.58	0.0008011
3742.22	0.0007803
3751.86	0.0005315
3761.51	0.0006844
3771.15	0.0005428
3780.8	0.0009236
3790.44	0.0007132
3800.09	0.000622
3809.73	0.0005249
3819.38	0.0006584
3829.02	0.0005032
3838.67	0.00065773
3848.31	0.0009297
3857.96	0.000168
3867.6	0.000439
3877.25	0.000444
3886.89	0.000252
3896.54	0.0005079
3906.18	0.000118
3915.83	0.0008304
3925.47	0.000175
3935.12	0.0005127
3944.76	0.0009454
3954.41	0.00063683
3964.05	0.000234
3973.69	0.0006705
3983.34	0.000311
3992.98	0.000229
