Infrared Spectrum: 1-(2-CHLOROETHOXY)-2-(2,2,4,6 TETRACHLOROPHENOXY)ETHANE
Formula: C10 H9 Cl5 O2
CAS: 5335-26-2
State: SOLUTION (10% CCl4 FOR 2.5-7.5, 10% CS2 FOR 7.5-16 MICRON)
Class: COBLENTZ
Instrument: Not specified, most likely a prism, grating, or hybrid spectrometer.
Sampling: TRANSMISSION
Path length: 0.01 CM, 0.01 CM
Resolution: 4
Origin: DOW CHEMICAL COMPANY
MICROMETERS	TRANSMITTANCE
2.03	0.856
2.07013	0.859
2.11027	0.861
2.1504	0.861
2.19053	0.859
2.23067	0.849
2.2708	0.854
2.31093	0.859
2.35107	0.863
2.3912	0.864
2.43133	0.864
2.47147	0.868
2.5116	0.873
2.55173	0.873
2.59187	0.874
2.632	0.878
2.67213	0.878
2.71227	0.873
2.7524	0.859
2.79253	0.853
2.83266	0.854
2.8728	0.858
2.91293	0.853
2.95306	0.856
2.9932	0.863
3.03333	0.866
3.07346	0.873
3.1136	0.873
3.15373	0.873
3.19386	0.864
3.234	0.851
3.27413	0.871
3.31426	0.801
3.3544	0.627
3.39453	0.614
3.43466	0.585
3.4748	0.676
3.51493	0.813
3.55506	0.838
3.5952	0.859
3.63533	0.863
3.67546	0.878
3.7156	0.898
3.75573	0.894
3.79586	0.893
3.836	0.891
3.87613	0.891
3.91626	0.891
3.9564	0.891
3.99653	0.893
4.03666	0.894
4.0768	0.898
4.11693	0.899
4.15706	0.903
4.19719	0.908
4.23733	0.909
4.27746	0.894
4.31759	0.884
4.35773	0.889
4.39786	0.891
4.43799	0.894
4.47813	0.898
4.51826	0.899
4.55839	0.901
4.59853	0.903
4.63866	0.903
4.67879	0.903
4.71893	0.903
4.75906	0.901
4.79919	0.899
4.83933	0.896
4.87946	0.894
4.91959	0.893
4.95973	0.893
4.99986	0.891
5.03999	0.891
5.08013	0.891
5.12026	0.891
5.16039	0.891
5.20053	0.891
5.24066	0.891
5.28079	0.891
5.32093	0.891
5.36106	0.893
5.40119	0.894
5.44133	0.894
5.48146	0.894
5.52159	0.898
5.56172	0.898
5.60186	0.899
5.64199	0.899
5.68212	0.896
5.72226	0.893
5.76239	0.873
5.80252	0.853
5.84266	0.881
5.88279	0.894
5.92292	0.894
5.96306	0.894
6.00319	0.894
6.04332	0.889
6.08346	0.866
6.12359	0.863
6.16372	0.839
6.20386	0.784
6.24399	0.702
6.28412	0.636
6.32426	0.607
6.36439	0.557
6.40452	0.505
6.44466	0.452
6.48479	0.47
6.52492	0.554
6.56506	0.607
6.60519	0.671
6.64532	0.721
6.68546	0.761
6.72559	0.741
6.76572	0.701
6.80586	0.626
6.84599	0.48
6.88612	0.412
6.92625	0.312
6.96639	0.061
7.00652	0.131
7.04665	0.358
7.08679	0.554
7.12692	0.575
7.16705	0.592
7.20719	0.544
7.24732	0.51
7.28745	0.447
7.32759	0.277
7.36772	0.161
7.40785	0.203
7.44799	0.609
7.48812	0.641
7.52825	0.657
7.56839	0.717
7.60852	0.734
7.64865	0.602
7.68879	0.552
7.72892	0.627
7.76905	0.682
7.80919	0.696
7.84932	0.662
7.88945	0.512
7.92959	0.434
7.96972	0.464
8.00985	0.562
8.04999	0.577
8.09012	0.617
8.13025	0.721
8.17039	0.772
8.21052	0.767
8.25065	0.729
8.29078	0.694
8.33092	0.706
8.37105	0.742
8.41118	0.726
8.45132	0.639
8.49145	0.502
8.53158	0.559
8.57172	0.664
8.61185	0.654
8.65198	0.549
8.69212	0.447
8.73225	0.283
8.77238	0.185
8.81252	0.171
8.85265	0.207
8.89278	0.227
8.93292	0.262
8.97305	0.383
9.01318	0.494
9.05332	0.575
9.09345	0.614
9.13358	0.654
9.17372	0.684
9.21385	0.709
9.25398	0.706
9.29412	0.672
9.33425	0.641
9.37438	0.631
9.41452	0.606
9.45465	0.549
9.49478	0.484
9.53492	0.39
9.57505	0.28
9.61518	0.222
9.65532	0.243
9.69545	0.335
9.73558	0.442
9.77571	0.49
9.81585	0.484
9.85598	0.462
9.89611	0.469
9.93625	0.554
9.97638	0.627
10.0165	0.681
10.0566	0.707
10.0968	0.734
10.1369	0.749
10.177	0.764
10.2172	0.769
10.2573	0.762
10.2974	0.741
10.3376	0.711
10.3777	0.659
10.4178	0.624
10.458	0.674
10.4981	0.736
10.5382	0.769
10.5784	0.789
10.6185	0.801
10.6586	0.808
10.6988	0.814
10.7389	0.813
10.779	0.797
10.8192	0.776
10.8593	0.764
10.8994	0.754
10.9396	0.754
10.9797	0.774
11.0198	0.794
11.06	0.799
11.1001	0.799
11.1402	0.784
11.1804	0.757
11.2205	0.724
11.2606	0.702
11.3008	0.696
11.3409	0.687
11.381	0.662
11.4212	0.617
11.4613	0.549
11.5014	0.474
11.5416	0.35
11.5817	0.202
11.6218	0.222
11.662	0.35
11.7021	0.449
11.7422	0.539
11.7824	0.606
11.8225	0.656
11.8626	0.696
11.9028	0.717
11.9429	0.737
11.983	0.742
12.0232	0.704
12.0633	0.597
12.1034	0.467
12.1436	0.312
12.1837	0.27
12.2238	0.353
12.264	0.475
12.3041	0.579
12.3442	0.642
12.3844	0.692
12.4245	0.731
12.4646	0.746
12.5048	0.754
12.5449	0.764
12.585	0.772
12.6252	0.779
12.6653	0.779
12.7054	0.779
12.7456	0.774
12.7857	0.761
12.8258	0.737
12.866	0.704
12.9061	0.656
12.9462	0.592
12.9864	0.515
13.0265	0.452
13.0666	0.422
13.1068	0.43
13.1469	0.457
13.187	0.469
13.2272	0.469
13.2673	0.462
13.3074	0.464
13.3476	0.484
13.3877	0.527
13.4278	0.565
13.468	0.601
13.5081	0.641
13.5482	0.674
13.5884	0.689
13.6285	0.686
13.6686	0.666
13.7088	0.646
13.7489	0.637
13.789	0.617
13.8292	0.572
13.8693	0.525
13.9094	0.51
13.9496	0.515
13.9897	0.532
14.0298	0.552
14.07	0.569
14.1101	0.597
14.1502	0.617
14.1904	0.629
14.2305	0.636
14.2706	0.636
14.3108	0.636
14.3509	0.636
14.391	0.631
14.4312	0.624
14.4713	0.616
14.5114	0.609
14.5516	0.592
14.5917	0.574
14.6318	0.552
14.672	0.524
14.7121	0.499
14.7522	0.472
14.7924	0.452
14.8325	0.439
14.8726	0.435
14.9128	0.44
14.9529	0.45
14.993	0.46
15.0332	0.462
15.0733	0.462
15.1134	0.455
15.1536	0.454
15.1937	0.454
15.2338	0.445
15.274	0.435
15.3141	0.425
15.3542	0.412
15.3944	0.4
15.4345	0.385
15.4746	0.375
15.5148	0.372
15.5549	0.373
15.595	0.382
15.6352	0.392
15.6753	0.4
15.7154	0.407
15.7556	0.412
15.7957	0.417
15.8358	0.424
15.876	0.429
15.9161	0.43
