Infrared Spectrum: 2,2'-THIOBIS(4-BROMOPHENOL)
Formula: C12 H8 Br2 O2 S
CAS: 5336-22-1
State: SOLID (KBr PELLET)
Class: COBLENTZ
Instrument: Not specified, most likely a prism, grating, or hybrid spectrometer.
Sampling: TRANSMISSION
Resolution: 4
Origin: TENNESSEE EASTMAN COMPANY, RESEARCH LABORATORIES
MICROMETERS	TRANSMITTANCE
2.034	0.844
2.07491	0.849
2.11583	0.844
2.15674	0.848
2.19766	0.851
2.23857	0.861
2.27949	0.873
2.3204	0.883
2.36132	0.889
2.40223	0.894
2.44315	0.887
2.48406	0.897
2.52498	0.902
2.56589	0.89
2.60681	0.878
2.64772	0.88
2.68864	0.882
2.72955	0.82
2.77047	0.73
2.81138	0.651
2.8523	0.472
2.89321	0.211
2.93413	0.049
2.97504	0.018
3.01596	0.017
3.05687	0.102
3.09779	0.267
3.1387	0.44
3.17962	0.568
3.22053	0.645
3.26145	0.622
3.30236	0.737
3.34328	0.81
3.38419	0.783
3.42511	0.759
3.46602	0.815
3.50694	0.834
3.54785	0.841
3.58877	0.848
3.62968	0.865
3.6706	0.851
3.71151	0.873
3.75243	0.875
3.79334	0.854
3.83426	0.885
3.87517	0.899
3.91609	0.901
3.957	0.851
3.99792	0.844
4.03883	0.889
4.07974	0.892
4.12066	0.899
4.16157	0.901
4.20249	0.912
4.2434	0.914
4.28432	0.904
4.32523	0.907
4.36615	0.935
4.40706	0.948
4.44798	0.959
4.48889	0.964
4.52981	0.967
4.57072	0.967
4.61164	0.97
4.65255	0.969
4.69347	0.943
4.73438	0.952
4.7753	0.959
4.81621	0.965
4.85713	0.965
4.89804	0.967
4.93896	0.965
4.97987	0.964
5.02079	0.969
5.0617	0.95
5.10262	0.965
5.14353	0.967
5.18445	0.964
5.22536	0.952
5.26628	0.919
5.30719	0.803
5.34811	0.93
5.38902	0.95
5.42994	0.941
5.47085	0.93
5.51177	0.953
5.55268	0.957
5.5936	0.943
5.63451	0.88
5.67543	0.8
5.71634	0.878
5.75726	0.897
5.79817	0.906
5.83909	0.883
5.88	0.873
5.92092	0.878
5.96183	0.863
6.00275	0.863
6.04366	0.848
6.08458	0.745
6.12549	0.762
6.1664	0.8
6.20732	0.822
6.24823	0.836
6.28915	0.559
6.33006	0.332
6.37098	0.464
6.41189	0.793
6.45281	0.793
6.49372	0.832
6.53464	0.813
6.57555	0.819
6.61647	0.769
6.65738	0.513
6.6983	0.013
6.73921	0.071
6.78013	0.015
6.82104	0.032
6.86196	0.126
6.90287	0.365
6.94379	0.469
6.9847	0.47
7.02562	0.488
7.06653	0.401
7.10745	0.162
7.14836	0.054
7.18928	0.017
7.23019	0.199
7.27111	0.542
7.31202	0.588
7.35294	0.508
7.39385	0.445
7.43477	0.119
7.47568	0.049
7.5166	0.165
7.55751	0.281
7.59843	0.472
7.63934	0.609
7.68026	0.665
7.72117	0.67
7.76209	0.505
7.803	0.267
7.84392	0.018
7.88483	0.107
7.92575	0.341
7.96666	0.29
8.00758	0.1
8.04849	0.119
8.08941	0.054
8.13032	0.08
8.17123	0.029
8.21215	0.022
8.25306	0.022
8.29398	0.049
8.33489	0.126
8.37581	0.215
8.41672	0.298
8.45764	0.356
8.49855	0.421
8.53947	0.46
8.58038	0.5
8.6213	0.564
8.66221	0.511
8.70313	0.339
8.74404	0.435
8.78496	0.559
8.82587	0.651
8.86679	0.682
8.9077	0.687
8.94862	0.679
8.98953	0.658
9.03045	0.65
9.07136	0.66
9.11228	0.598
9.15319	0.308
9.19411	0.293
9.23502	0.278
9.27594	0.319
9.31685	0.619
9.35777	0.585
9.39868	0.377
9.4396	0.6
9.48051	0.651
9.52143	0.715
9.56234	0.749
9.60326	0.769
9.64417	0.786
9.68509	0.796
9.726	0.798
9.76692	0.803
9.80783	0.808
9.84875	0.813
9.88966	0.817
9.93058	0.825
9.97149	0.829
10.0124	0.834
10.0533	0.834
10.0942	0.837
10.1352	0.839
10.1761	0.841
10.217	0.844
10.2579	0.849
10.2988	0.851
10.3397	0.851
10.3806	0.849
10.4216	0.849
10.4625	0.853
10.5034	0.853
10.5443	0.837
10.5852	0.795
10.6261	0.713
10.667	0.829
10.708	0.858
10.7489	0.865
10.7898	0.875
10.8307	0.877
10.8716	0.877
10.9125	0.878
10.9534	0.878
10.9944	0.87
11.0353	0.856
11.0762	0.849
11.1171	0.82
11.158	0.735
11.1989	0.373
11.2399	0.378
11.2808	0.643
11.3217	0.527
11.3626	0.598
11.4035	0.755
11.4444	0.788
11.4853	0.805
11.5263	0.827
11.5672	0.846
11.6081	0.856
11.649	0.858
11.6899	0.858
11.7308	0.854
11.7717	0.849
11.8127	0.819
11.8536	0.802
11.8945	0.803
11.9354	0.805
11.9763	0.778
12.0172	0.713
12.0582	0.559
12.0991	0.186
12.14	0.068
12.1809	0.049
12.2218	0.04
12.2627	0.196
12.3036	0.428
12.3446	0.609
12.3855	0.697
12.4264	0.749
12.4673	0.788
12.5082	0.802
12.5491	0.81
12.59	0.817
12.631	0.82
12.6719	0.824
12.7128	0.825
12.7537	0.825
12.7946	0.825
12.8355	0.825
12.8764	0.822
12.9174	0.817
12.9583	0.812
12.9992	0.808
13.0401	0.803
13.081	0.798
13.1219	0.795
13.1629	0.79
13.2038	0.781
13.2447	0.771
13.2856	0.761
13.3265	0.747
13.3674	0.737
13.4083	0.718
13.4493	0.703
13.4902	0.686
13.5311	0.66
13.572	0.627
13.6129	0.561
13.6538	0.472
13.6947	0.387
13.7357	0.409
13.7766	0.498
13.8175	0.556
13.8584	0.563
13.8993	0.551
13.9402	0.527
13.9812	0.503
14.0221	0.457
14.063	0.375
14.1039	0.307
14.1448	0.288
14.1857	0.271
14.2266	0.235
14.2676	0.24
14.3085	0.32
14.3494	0.414
14.3903	0.488
14.4312	0.534
14.4721	0.563
14.513	0.576
14.554	0.588
14.5949	0.597
14.6358	0.598
14.6767	0.6
14.7176	0.6
14.7585	0.604
14.7994	0.607
14.8404	0.61
14.8813	0.61
14.9222	0.61
14.9631	0.609
15.004	0.609
15.0449	0.616
15.0859	0.617
15.1268	0.612
15.1677	0.607
15.2086	0.604
15.2495	0.597
15.2904	0.587
15.3313	0.575
15.3723	0.566
15.4132	0.561
15.4541	0.558
15.495	0.558
15.5359	0.554
15.5768	0.551
15.6177	0.546
15.6587	0.537
15.6996	0.522
15.7405	0.51
15.7814	0.496
15.8223	0.459
15.8632	0.421
15.9042	0.38
15.9451	0.366
15.986	0.361
