Infrared Spectrum: BUTYRONITRILE, 2-ETHYL-2-PHENYL-
Formula: C12 H15 N
CAS: 5336-57-2
State: SOLUTION (10% CCl4 FOR 3800-1335, 10% CS2 FOR 1335-400 CM^-^1)
Class: COBLENTZ III
Instrument: DOW KBr FOREPRISM-GRATING
Instrument parameters: BLAZED AT 3.5, 12.0, 20.0 MICRON AND CHANGED AT 5.0, 7.5, 14.9 MICRON
Sampling: TRANSMISSION
Path length: 0.011 CM, 0.011 CM
Resolution: 2
Origin: DOW CHEMICAL COMPANY
1/CM	TRANSMITTANCE
386	0.2101
395	0.2207
404	0.302
413	0.5239
422	0.7461
431	0.8054
440	0.8587
449	0.8893
458	0.8978
467	0.9167
476	0.9499
485	0.9552
494	0.9531
503	0.9211
512	0.8368
521	0.5047
530	0.8934
539	0.9602
548	0.9668
557	0.9691
566	0.9768
575	0.9756
584	0.9856
593	0.929
602	0.9954
611	0.9354
620	0.99
629	0.9983
638	0.9818
647	0.9538
656	0.9389
665	0.9713
674	0.8705
683	0.8841
692	0.7565
701	0.007
710	0.7037
719	0.9612
728	0.9743
737	0.9501
746	0.879
755	0.3462
764	0.4677
773	0.7735
782	0.8955
791	0.8623
800	0.9521
809	0.9704
818	0.9818
827	0.9789
836	0.9333
845	0.883
854	0.8375
863	0.8375
872	0.8654
881	0.8771
890	0.7872
899	0.8182
908	0.9118
917	0.9364
926	0.8584
935	0.7958
944	0.9133
953	0.9412
962	0.9377
971	0.9486
980	0.9533
989	0.9528
998	0.8654
1007	0.9354
1016	0.8733
1025	0.7155
1034	0.716
1043	0.9186
1052	0.9392
1061	0.9314
1070	0.8794
1079	0.771
1088	0.9128
1097	0.8855
1106	0.8643
1115	0.8942
1124	0.9286
1133	0.924
1142	0.9041
1151	0.8616
1160	0.8514
1169	0.8438
1178	0.8831
1187	0.8755
1196	0.8898
1205	0.8657
1214	0.8808
1223	0.9198
1232	0.9236
1241	0.9075
1250	0.9107
1259	0.9044
1268	0.8767
1277	0.8758
1286	0.8782
1295	0.8671
1304	0.8318
1313	0.7824
1322	0.7357
1331	0.7915
1340	0.7787
1349	0.8504
1358	0.8568
1367	0.8523
1376	0.731
1385	0.3912
1394	0.8677
1403	0.8801
1412	0.8768
1421	0.8614
1430	0.8183
1439	0.7393
1448	0.2014
1457	0.2275
1466	0.4588
1475	0.6997
1484	0.631
1493	0.3349
1502	0.5422
1511	0.5985
1520	0.5951
1529	0.5764
1538	0.5044
1547	0.4816
1556	0.5237
1565	0.5809
1574	0.5908
1583	0.5802
1592	0.5484
1601	0.4948
1610	0.62
1619	0.7231
1628	0.8363
1637	0.8407
1646	0.7935
1655	0.8128
1664	0.8482
1673	0.8337
1682	0.8161
1691	0.875
1700	0.8931
1709	0.8951
1718	0.8957
1727	0.893
1736	0.8891
1745	0.9035
1754	0.9168
1763	0.9146
1772	0.9125
1781	0.9168
1790	0.8918
1799	0.8737
1808	0.9121
1817	0.9202
1826	0.9249
1835	0.9299
1844	0.9239
1853	0.9113
1862	0.8856
1871	0.8971
1880	0.9025
1889	0.9123
1898	0.9275
1907	0.927
1916	0.9245
1925	0.9213
1934	0.9125
1943	0.8688
1952	0.9182
1961	0.902
1970	0.9228
1979	0.9254
1988	0.923
1997	0.9316
2006	0.9347
2015	0.9358
2024	0.9364
2033	0.9368
2042	0.9374
2051	0.938
2060	0.9387
2069	0.9391
2078	0.9395
2087	0.9396
2096	0.9393
2105	0.9389
2114	0.9386
2123	0.9382
2132	0.938
2141	0.9375
2150	0.9373
2159	0.9365
2168	0.9356
2177	0.9347
2186	0.9332
2195	0.9315
2204	0.9299
2213	0.9281
2222	0.9218
2231	0.8867
2240	0.7815
2249	0.7958
2258	0.9106
2267	0.9182
2276	0.9205
2285	0.9208
2294	0.922
2303	0.9261
2312	0.9354
2321	0.9427
2330	0.9438
2339	0.9434
2348	0.9428
2357	0.9423
2366	0.9416
2375	0.9392
2384	0.9367
2393	0.9359
2402	0.9363
2411	0.9373
2420	0.938
2429	0.939
2438	0.9401
2447	0.9407
2456	0.9407
2465	0.9398
2474	0.9395
2483	0.9394
2492	0.9396
2501	0.94
2510	0.9402
2519	0.9403
2528	0.9398
2537	0.9391
2546	0.9385
2555	0.9378
2564	0.9371
2573	0.9364
2582	0.9357
2591	0.9348
2600	0.9339
2609	0.9332
2618	0.9331
2627	0.9331
2636	0.9331
2645	0.9324
2654	0.9324
2663	0.9328
2672	0.9341
2681	0.9346
2690	0.9345
2699	0.9328
2708	0.9309
2717	0.9266
2726	0.9213
2735	0.9153
2744	0.9124
2753	0.9162
2762	0.9155
2771	0.9125
2780	0.9091
2789	0.9058
2798	0.9021
2807	0.8971
2816	0.8901
2825	0.8754
2834	0.851
2843	0.8271
2852	0.7811
2861	0.6326
2870	0.6122
2879	0.4944
2888	0.353
2897	0.6496
2906	0.6355
2915	0.6041
2924	0.564
2933	0.3753
2942	0.1917
2951	0.3423
2960	0.4533
2969	0.2756
2978	0.0718
2987	0.2752
2996	0.5465
3005	0.7637
3014	0.7862
3023	0.7411
3032	0.6228
3041	0.6618
3050	0.7584
3059	0.6327
3068	0.6718
3077	0.7549
3086	0.7465
3095	0.7494
3104	0.8564
3113	0.8646
3122	0.8841
3131	0.9025
3140	0.9045
3149	0.9038
3158	0.9033
3167	0.9018
3176	0.9021
3185	0.9084
3194	0.9145
3203	0.9192
3212	0.922
3221	0.9238
3230	0.9253
3239	0.9264
3248	0.9275
3257	0.9284
3266	0.9291
3275	0.9294
3284	0.9297
3293	0.9296
3302	0.9295
3311	0.9293
3320	0.9292
3329	0.9291
3338	0.929
3347	0.9285
3356	0.9286
3365	0.9287
3374	0.9289
3383	0.9282
3392	0.9274
3401	0.9259
3410	0.9246
3419	0.9238
3428	0.9213
3437	0.9166
3446	0.9187
3455	0.9233
3464	0.9288
3473	0.9333
3482	0.9353
3491	0.9363
3500	0.9371
3509	0.938
3518	0.9389
3527	0.9399
3536	0.9411
3545	0.9427
3554	0.9445
3563	0.9454
3572	0.9446
3581	0.9438
3590	0.9525
3599	0.953
3608	0.953
3617	0.9527
3626	0.9523
3635	0.9513
3644	0.9502
3653	0.9491
3662	0.947
3671	0.9436
3680	0.942
3689	0.9443
3698	0.9474
3707	0.9507
3716	0.9538
3725	0.9565
3734	0.9581
3743	0.9595
3752	0.9609
3761	0.962
3770	0.9628
3779	0.9632
3788	0.9636
3797	0.964
