Infrared Spectrum: 3-(4-Pyridyl)acrylic acid
Formula: C 8 H 7 N O 2
CAS: 5337-79-1
State: gas
Origin: EPA-IR VAPOR PHASE LIBRARY
1/CM	ABSORBANCE
549.8	0.003798
559.445	0.006208
569.09	0.005278
578.735	0.003408
588.38	0.002158
598.025	0.0011096
607.67	0.0010081
617.315	0.0008308
626.96	0.0005887
636.605	0.0007471
646.251	0.0009935
655.896	0.0008756
665.541	0.0007277
675.186	0.000557
684.831	0.000554
694.476	0.0005676
704.121	0.0004896
713.766	0.0005654
723.411	0.0005008
733.056	0.0005157
742.701	0.000451
752.346	0.0006288
761.991	0.0004877
771.636	0.0004256
781.281	0.0006315
790.926	0.0009359
800.571	0.001708
810.216	0.002488
819.861	0.001768
829.507	0.0009931
839.152	0.0007518
848.797	0.000743
858.442	0.0006495
868.087	0.0005348
877.732	0.0006011
887.377	0.000573
897.022	0.0006674
906.667	0.0006976
916.312	0.000502
925.957	0.0005109
935.602	0.0006482
945.247	0.0007384
954.892	0.0007986
964.537	0.001188
974.182	0.001768
983.827	0.002008
993.472	0.001368
1003.12	0.0006735
1012.76	0.0004309
1022.41	0.0003787
1032.05	0.0003603
1041.7	0.0004115
1051.34	0.0004814
1060.99	0.0005771
1070.63	0.0007791
1080.28	0.0010221
1089.92	0.001628
1099.57	0.002738
1109.21	0.006538
1118.86	0.011958
1128.5	0.009308
1138.15	0.005508
1147.79	0.005878
1157.44	0.005698
1167.08	0.003058
1176.73	0.001708
1186.37	0.001518
1196.02	0.001378
1205.66	0.0010177
1215.31	0.001208
1224.95	0.001618
1234.6	0.001578
1244.24	0.001358
1253.89	0.001208
1263.53	0.001328
1273.18	0.001668
1282.82	0.001768
1292.47	0.001578
1302.11	0.001418
1311.76	0.001208
1321.4	0.001178
1331.05	0.001228
1340.69	0.001668
1350.34	0.003138
1359.98	0.003818
1369.63	0.002658
1379.27	0.001268
1388.92	0.000863
1398.56	0.0009444
1408.21	0.001298
1417.85	0.0010827
1427.5	0.0006518
1437.14	0.0003588
1446.79	0.0003552
1456.43	0.00023294
1466.08	0.0002685
1475.73	0.0002945
1485.37	0.000393
1495.02	0.0004139
1504.66	0.0002847
1514.31	0.0002921
1523.95	0.0003481
1533.6	0.0005047
1543.24	0.0010015
1552.89	0.001378
1562.53	0.0010042
1572.18	0.0008343
1581.82	0.001858
1591.47	0.003818
1601.11	0.002428
1610.76	0.0006477
1620.4	0.0005845
1630.05	0.0008678
1639.69	0.001858
1649.34	0.002228
1658.98	0.0010823
1668.63	0.0006711
1678.27	0.0005406
1687.92	0.0005042
1697.56	0.0005651
1707.21	0.0008264
1716.85	0.001188
1726.5	0.001958
1736.14	0.003558
1745.79	0.007328
1755.43	0.012898
1765.08	0.011608
1774.72	0.005388
1784.37	0.003148
1794.01	0.002278
1803.66	0.001458
1813.3	0.0008303
1822.95	0.0005219
1832.59	0.0004588
1842.24	0.0003638
1851.88	0.0003775
1861.53	0.0003359
1871.17	0.0002712
1880.82	0.000272
1890.46	0.00022941
1900.11	0.00023372
1909.75	0.00025139
1919.4	0.00025497
1929.04	0.0003349
1938.69	0.00024213
1948.33	0.0002749
1957.98	0.00021565
1967.62	0.00021353
1977.27	0.00021818
1986.91	0.000177371
1996.56	0.00016168
2006.2	0.00019354
2015.85	0.00019089
2025.49	0.00016635
2035.14	0.00019156
2044.78	0.00021147
2054.43	0.00020503
2064.07	0.00019989
2073.72	0.0001425
2083.36	0.00015823
2093.01	0.0001375
2102.65	0.0001543
2112.3	0.0001138
2121.94	0.0001569
2131.59	7.62e-05
2141.23	0.0001061
2150.88	0.0001296
2160.52	6.85e-05
2170.17	0.0001089
2179.81	0.0001203
2189.46	0.0001336
2199.1	0.000170904
2208.75	0.00016204
2218.39	0.0001104
2228.04	0.0001407
2237.68	0.00017863
2247.33	0.000143
2256.97	0.0001413
2266.62	0.0001019
2276.26	0.0001346
2285.91	0.0001351
2295.55	0.000134
2305.2	0.000168026
2314.84	0.0001081
2324.49	0.0001534
2334.13	0.0001295
2343.78	0.0001311
2353.42	0.0001148
2363.07	0.0001391
2372.72	7.51e-05
2382.36	0.00012
2392.01	7.84e-05
2401.65	9e-05
2411.3	0.0001175
2420.94	7.22e-05
2430.59	6.3e-05
2440.23	0.0001078
2449.88	0.0001271
2459.52	0.0001305
2469.17	7.27e-05
2478.81	0.0001243
2488.46	0.00016199
2498.1	7.48e-05
2507.75	0.0001
2517.39	0.0001154
2527.04	8e-05
2536.68	1.8e-05
2546.33	7.18e-05
2555.97	8.65e-05
2565.62	6.3e-05
2575.26	7.17e-05
2584.91	7.53e-05
2594.55	2.3e-05
2604.2	9.07e-05
2613.84	8.03e-05
2623.49	5.5e-05
2633.13	6.5e-05
2642.78	7e-06
2652.42	9.51e-05
2662.07	7.23e-05
2671.71	1.5e-05
2681.36	4.9e-05
2691	0.000128
2700.65	0.0001123
2710.29	9.86e-05
2719.94	2.2e-05
2729.58	0.0001009
2739.23	5.9e-05
2748.87	9.11e-05
2758.52	4.7e-05
2768.16	4.7e-05
2777.81	8.08e-05
2787.45	0.00019221
2797.1	0.0001042
2806.74	8.6e-05
2816.39	3.2e-05
2826.03	9.67e-05
2835.68	0.00015823
2845.32	0.0001477
2854.97	0.000174014
2864.61	0.0001179
2874.26	9.22e-05
2883.9	0.0001212
2893.55	0.0001485
2903.19	0.000125
2912.84	0.00018136
2922.48	0.0001524
2932.13	0.0001086
2941.77	8.15e-05
2951.42	0.0001525
2961.06	0.000177044
2970.71	0.00031
2980.35	0.0002724
2990	0.0003984
2999.64	0.000354
3009.29	0.0004448
3018.93	0.0005372
3028.58	0.0009506
3038.22	0.0009571
3047.87	0.0008234
3057.51	0.0010708
3067.16	0.001338
3076.8	0.001228
3086.45	0.0009015
3096.09	0.0005376
3105.74	0.0003608
3115.38	0.0001997
3125.03	0.0001856
3134.67	0.000109
3144.32	0.0001156
3153.96	0.00024645
3163.61	0.00019667
3173.25	0.00023834
3182.9	0.00020521
3192.54	0.00022169
3202.19	0.00023857
3211.83	0.00018245
3221.48	0.0001459
3231.12	0.0002138
3240.77	0.00019104
3250.41	0.000219
3260.06	0.00026365
3269.7	0.0002799
3279.35	0.0003173
3289	0.0001912
3298.64	0.00024855
3308.29	0.0003337
3317.93	0.0002638
3327.58	0.0003257
3337.22	0.0003029
3346.87	0.00025035
3356.51	0.00020913
3366.16	0.0002692
3375.8	0.00023052
3385.45	0.0003719
3395.09	0.00026319
3404.74	0.0003671
3414.38	0.0003879
3424.03	0.0002893
3433.67	0.0003056
3443.32	0.0002973
3452.96	0.00022596
3462.61	0.0002782
3472.25	0.00021045
3481.9	0.0003174
3491.54	0.0003928
3501.19	0.0003593
3510.83	0.0003448
3520.48	0.0003045
3530.12	0.00024433
3539.77	0.0003317
3549.41	0.0002736
3559.06	0.0005845
3568.7	0.001698
3578.35	0.005878
3587.99	0.004648
3597.64	0.0010053
3607.28	0.0003739
3616.93	0.000171768
3626.57	0.0003596
3636.22	0.0002863
3645.86	0.0003216
3655.51	0.00024593
3665.15	0.0003745
3674.8	0.0002982
3684.44	0.0003638
3694.09	0.0003044
3703.73	0.0003862
3713.38	0.0001431
3723.02	0.00023276
3732.67	0.00022551
3742.31	0.00019896
3751.96	0.00017928
3761.6	0.0002891
3771.25	0.0003762
3780.89	0.00026414
3790.54	0.0002317
3800.18	0.0003043
3809.83	0.00017838
3819.47	0.00019976
3829.12	0.0003291
3838.76	0.0002893
3848.41	0.00024301
3858.05	0.000286
3867.7	0.00020092
3877.34	0.0002875
3886.99	0.0001806
3896.63	0.0002727
3906.28	0.0002913
3915.92	0.00025671
3925.57	0.00024763
3935.21	0.0001944
3944.86	0.00025092
3954.5	0.00026542
3964.15	0.0004166
3973.79	0.0003457
3983.44	0.0002925
3993.08	0.00022385
