Infrared Spectrum: 4-Methylpropiophenone
Formula: C 10 H 12 O
CAS: 5337-93-9
State: gas
Origin: EPA-IR VAPOR PHASE LIBRARY
1/CM	ABSORBANCE
549.9	0.00669
559.547	0.00857
569.193	0.00811
578.84	0.00659
588.486	0.00505
598.133	0.00312
607.779	0.0024286
617.426	0.0022163
627.072	0.0019893
636.719	0.0024265
646.365	0.0024353
656.012	0.002133
665.658	0.0019313
675.305	0.0022638
684.951	0.0021156
694.598	0.001836
704.245	0.002243
713.891	0.00329
723.538	0.00436
733.184	0.0053
742.831	0.00557
752.477	0.00552
762.124	0.00595
771.77	0.00851
781.417	0.01377
791.063	0.01861
800.71	0.01594
810.356	0.01286
820.003	0.01171
829.649	0.00985
839.296	0.00775
848.943	0.00471
858.589	0.00288
868.236	0.0022739
877.882	0.0020667
887.529	0.0021867
897.175	0.0026035
906.822	0.00371
916.468	0.00598
926.115	0.01328
935.761	0.0282
945.408	0.03744
955.054	0.02416
964.701	0.00784
974.347	0.00468
983.994	0.00437
993.64	0.00618
1003.29	0.01333
1012.93	0.01833
1022.58	0.01148
1032.23	0.00594
1041.87	0.00483
1051.52	0.00471
1061.17	0.00515
1070.81	0.00557
1080.46	0.00527
1090.11	0.00459
1099.75	0.00464
1109.4	0.00543
1119.05	0.00604
1128.69	0.00493
1138.34	0.00348
1147.99	0.00351
1157.63	0.00445
1167.28	0.0095
1176.92	0.03363
1186.57	0.0366
1196.22	0.02708
1205.86	0.04202
1215.51	0.05217
1225.16	0.04896
1234.8	0.0289
1244.45	0.0187
1254.1	0.01622
1263.74	0.0178
1273.39	0.01969
1283.04	0.01744
1292.68	0.01316
1302.33	0.01244
1311.98	0.01462
1321.62	0.01745
1331.27	0.01771
1340.92	0.02147
1350.56	0.02396
1360.21	0.0169
1369.86	0.01024
1379.5	0.01033
1389.15	0.01055
1398.79	0.0119
1408.44	0.01414
1418.09	0.01272
1427.73	0.01033
1437.38	0.00989
1447.03	0.01045
1456.67	0.0117
1466.32	0.0124
1475.97	0.00966
1485.61	0.00638
1495.26	0.00552
1504.91	0.00539
1514.55	0.00492
1524.2	0.00451
1533.85	0.00443
1543.49	0.00467
1553.14	0.00549
1562.79	0.00725
1572.43	0.00869
1582.08	0.00871
1591.73	0.01278
1601.37	0.02702
1611.02	0.03575
1620.67	0.0212
1630.31	0.00937
1639.96	0.00699
1649.6	0.007
1659.25	0.00888
1668.9	0.01244
1678.54	0.02295
1688.19	0.05661
1697.84	0.10594
1707.48	0.09456
1717.13	0.03504
1726.78	0.01226
1736.42	0.00702
1746.07	0.00547
1755.72	0.00404
1765.36	0.00317
1775.01	0.0025814
1784.66	0.0025128
1794.3	0.00277
1803.95	0.00281
1813.6	0.0023312
1823.24	0.00178224
1832.89	0.001563
1842.54	0.001498
1852.18	0.001454
1861.83	0.001615
1871.47	0.0018243
1881.12	0.0020631
1890.77	0.002349
1900.41	0.0023797
1910.06	0.002364
1919.71	0.002245
1929.35	0.0019398
1939	0.0018237
1948.65	0.001617
1958.29	0.00146
1967.94	0.001304
1977.59	0.001156
1987.23	0.001143
1996.88	0.00111
2006.53	0.000972
2016.17	0.001017
2025.82	0.001107
2035.47	0.000993
2045.11	0.00092
2054.76	0.000829
2064.41	0.000794
2074.05	0.00085
2083.7	0.000823
2093.35	0.000782
2102.99	0.000839
2112.64	0.000848
2122.28	0.00087
2131.93	0.000827
2141.58	0.000825
2151.22	0.000827
2160.87	0.000879
2170.52	0.000877
2180.16	0.000871
2189.81	0.000853
2199.46	0.000771
2209.1	0.000834
2218.75	0.000801
2228.4	0.000779
2238.04	0.000854
2247.69	0.000905
2257.34	0.000893
2266.98	0.00092
2276.63	0.000994
2286.28	0.001027
2295.92	0.001177
2305.57	0.001279
2315.22	0.001247
2324.86	0.001159
2334.51	0.001111
2344.16	0.000941
2353.8	0.000903
2363.45	0.000863
2373.09	0.000944
2382.74	0.001001
2392.39	0.001054
2402.03	0.001207
2411.68	0.001141
2421.33	0.0011
2430.97	0.001102
2440.62	0.001032
2450.27	0.001065
2459.91	0.001051
2469.56	0.000836
2479.21	0.000803
2488.85	0.000767
2498.5	0.000776
2508.15	0.00083
2517.79	0.000872
2527.44	0.000801
2537.09	0.00089
2546.73	0.000754
2556.38	0.000835
2566.03	0.000903
2575.67	0.000983
2585.32	0.001162
2594.96	0.000976
2604.61	0.000802
2614.26	0.000751
2623.9	0.00084
2633.55	0.00069
2643.2	0.000758
2652.84	0.00057
2662.49	0.00062
2672.14	0.00064
2681.78	0.00063
2691.43	0.000769
2701.08	0.000845
2710.72	0.000907
2720.37	0.000973
2730.02	0.001198
2739.66	0.001578
2749.31	0.0016841
2758.96	0.001259
2768.6	0.001076
2778.25	0.001214
2787.9	0.001398
2797.54	0.0016
2807.19	0.0020495
2816.84	0.0025408
2826.48	0.00316
2836.13	0.00357
2845.77	0.00418
2855.42	0.0056
2865.07	0.00851
2874.71	0.01262
2884.36	0.01638
2894.01	0.01712
2903.65	0.01654
2913.3	0.02041
2922.95	0.02526
2932.59	0.02942
2942.24	0.03279
2951.89	0.02898
2961.53	0.01976
2971.18	0.0211
2980.83	0.03009
2990.47	0.03071
3000.12	0.02245
3009.77	0.01682
3019.41	0.01567
3029.06	0.0214
3038.71	0.02179
3048.35	0.01519
3058	0.01219
3067.64	0.01105
3077.29	0.00992
3086.94	0.00947
3096.58	0.00733
3106.23	0.0046
3115.88	0.00329
3125.52	0.002716
3135.17	0.0018827
3144.82	0.001373
3154.46	0.001099
3164.11	0.000841
3173.76	0.00062
3183.4	0.00032
3193.05	0.00034
3202.7	0.00023
3212.34	0.00028
3221.99	0.00041
3231.64	0.00017
3241.28	0.00023
3250.93	0.00017
3260.58	0.00026
3270.22	0.00018
3279.87	6e-05
3289.52	0
3299.16	6e-05
3308.81	0.00035
3318.45	0.0003
3328.1	0.00037
3337.75	0.00045
3347.39	0.00052
3357.04	0.000799
3366.69	0.001257
3376.33	0.0020582
3385.98	0.0018446
3395.63	0.001523
3405.27	0.000809
3414.92	0.00064
3424.57	0.00051
3434.21	0.00058
3443.86	0.00024
3453.51	0.00037
3463.15	0.00054
3472.8	0.00047
3482.45	0.00039
3492.09	0.00038
3501.74	0.00027
3511.39	0.00038
3521.03	0.00053
3530.68	0.0004
3540.33	0.00051
3549.97	0.00051
3559.62	0.00045
3569.26	0.00045
3578.91	0.00051
3588.56	0.00037
3598.2	0.00027
3607.85	0.00052
3617.5	0.00066
3627.14	0.00044
3636.79	0.00041
3646.44	0.00052
3656.08	0.00067
3665.73	0.000881
3675.38	0.00061
3685.02	0.00058
3694.67	0.00071
3704.32	0.00062
3713.96	0.000726
3723.61	0.000774
3733.26	0.00063
3742.9	0.000735
3752.55	0.00038
3762.2	0.00063
3771.84	0.00058
3781.49	0.00073
3791.13	0.00067
3800.78	0.00062
3810.43	0.00062
3820.07	0.00065
3829.72	0.00076
3839.37	0.00064
3849.01	0.000806
3858.66	0.00069
3868.31	0.000893
3877.95	0.000933
3887.6	0.000767
3897.25	0.000851
3906.89	0.000831
3916.54	0.00067
3926.19	0.00068
3935.83	0.000772
3945.48	0.000914
3955.13	0.000753
3964.77	0.000764
3974.42	0.000886
3984.07	0.000915
3993.71	0.001012
