Infrared Spectrum: TETRAHYDROPYRAN-4-CARBOXYLIC ACID
Formula: C6 H10 O3
CAS: 5337-03-1
State: SOLID (MINERAL OIL MULL)
Boiling point: 153-158 C AT 16 mmHg
Class: COBLENTZ
Instrument: Not specified, most likely a prism, grating, or hybrid spectrometer.
Sampling: TRANSMISSION
Resolution: 4
Origin: DOW CHEMICAL COMPANY
MICROMETERS	TRANSMITTANCE
2.048	0.775
2.08916	0.789
2.13031	0.797
2.17147	0.806
2.21263	0.794
2.25378	0.767
2.29494	0.767
2.33609	0.785
2.37725	0.803
2.41841	0.811
2.45956	0.837
2.50072	0.856
2.54188	0.868
2.58303	0.875
2.62419	0.89
2.66535	0.898
2.7065	0.907
2.74766	0.907
2.78881	0.881
2.82997	0.861
2.87113	0.839
2.91228	0.799
2.95344	0.775
2.9946	0.722
3.03575	0.655
3.07691	0.578
3.11807	0.506
3.15922	0.455
3.20038	0.424
3.24154	0.39
3.28269	0.333
3.32385	0.227
3.365	0.041
3.40616	0.023
3.44732	0.027
3.48847	0.07
3.52963	0.272
3.57079	0.359
3.61194	0.395
3.6531	0.402
3.69426	0.4
3.73541	0.395
3.77657	0.431
3.81772	0.421
3.85888	0.422
3.90004	0.436
3.94119	0.474
3.98235	0.508
4.02351	0.559
4.06466	0.594
4.10582	0.626
4.14698	0.65
4.18813	0.667
4.22929	0.69
4.27044	0.715
4.3116	0.738
4.35276	0.751
4.39391	0.76
4.43507	0.779
4.47623	0.779
4.51738	0.796
4.55854	0.804
4.5997	0.809
4.64085	0.804
4.68201	0.809
4.72316	0.827
4.76432	0.833
4.80548	0.842
4.84663	0.83
4.88779	0.84
4.92895	0.849
4.9701	0.847
5.01126	0.856
5.05242	0.851
5.09357	0.832
5.13473	0.816
5.17588	0.808
5.21704	0.809
5.2582	0.787
5.29935	0.779
5.34051	0.77
5.38167	0.75
5.42282	0.722
5.46398	0.7
5.50514	0.645
5.54629	0.58
5.58745	0.529
5.62861	0.496
5.66976	0.434
5.71092	0.339
5.75207	0.226
5.79323	0.152
5.83439	0.125
5.87554	0.25
5.9167	0.419
5.95786	0.506
5.99901	0.585
6.04017	0.645
6.08133	0.722
6.12248	0.772
6.16364	0.809
6.20479	0.84
6.24595	0.852
6.28711	0.871
6.32826	0.885
6.36942	0.89
6.41058	0.89
6.45173	0.893
6.49289	0.897
6.53405	0.895
6.5752	0.885
6.61636	0.864
6.65751	0.832
6.69867	0.767
6.73983	0.607
6.78098	0.272
6.82214	0.171
6.8633	0.198
6.90445	0.308
6.94561	0.457
6.98677	0.578
7.02792	0.566
7.06908	0.565
7.11023	0.571
7.15139	0.489
7.19255	0.488
7.2337	0.32
7.27486	0.388
7.31602	0.558
7.35717	0.648
7.39833	0.614
7.43949	0.547
7.48064	0.505
7.5218	0.409
7.56295	0.491
7.60411	0.571
7.64527	0.416
7.68642	0.357
7.72758	0.407
7.76874	0.28
7.80989	0.229
7.85105	0.328
7.89221	0.397
7.93336	0.539
7.97452	0.568
8.01568	0.417
8.05683	0.404
8.09799	0.575
8.13914	0.525
8.1803	0.378
8.22146	0.214
8.26261	0.142
8.30377	0.147
8.34493	0.172
8.38608	0.227
8.42724	0.294
8.4684	0.356
8.50955	0.381
8.55071	0.356
8.59186	0.4
8.63302	0.462
8.67418	0.477
8.71533	0.462
8.75649	0.34
8.79765	0.172
8.8388	0.155
8.87996	0.207
8.92112	0.241
8.96227	0.354
9.00343	0.44
9.04458	0.484
9.08574	0.508
9.1269	0.501
9.16805	0.453
9.20921	0.364
9.25037	0.244
9.29152	0.193
9.33268	0.244
9.37384	0.323
9.41499	0.416
9.45615	0.489
9.4973	0.535
9.53846	0.547
9.57962	0.469
9.62077	0.356
9.66193	0.441
9.70309	0.554
9.74424	0.513
9.7854	0.357
9.82656	0.39
9.86771	0.513
9.90887	0.575
9.95002	0.619
9.99118	0.647
10.0323	0.647
10.0735	0.542
10.1147	0.417
10.1558	0.464
10.197	0.532
10.2381	0.583
10.2793	0.601
10.3204	0.607
10.3616	0.607
10.4027	0.606
10.4439	0.599
10.4851	0.582
10.5262	0.559
10.5674	0.522
10.6085	0.482
10.6497	0.441
10.6908	0.404
10.732	0.369
10.7732	0.327
10.8143	0.289
10.8555	0.303
10.8966	0.397
10.9378	0.429
10.9789	0.416
11.0201	0.412
11.0612	0.436
11.1024	0.474
11.1436	0.51
11.1847	0.544
11.2259	0.575
11.267	0.601
11.3082	0.623
11.3493	0.642
11.3905	0.659
11.4317	0.669
11.4728	0.679
11.514	0.679
11.5551	0.676
11.5963	0.623
11.6374	0.518
11.6786	0.424
11.7197	0.529
11.7609	0.662
11.8021	0.722
11.8432	0.753
11.8844	0.775
11.9255	0.785
11.9667	0.785
12.0078	0.763
12.049	0.707
12.0902	0.614
12.1313	0.491
12.1725	0.385
12.2136	0.311
12.2548	0.234
12.2959	0.212
12.3371	0.267
12.3783	0.357
12.4194	0.45
12.4606	0.508
12.5017	0.566
12.5429	0.601
12.584	0.633
12.6252	0.66
12.6663	0.672
12.7075	0.688
12.7487	0.7
12.7898	0.707
12.831	0.717
12.8721	0.731
12.9133	0.741
12.9544	0.748
12.9956	0.755
13.0368	0.761
13.0779	0.77
13.1191	0.782
13.1602	0.787
13.2014	0.787
13.2425	0.792
13.2837	0.797
13.3248	0.799
13.366	0.789
13.4072	0.777
13.4483	0.739
13.4895	0.65
13.5306	0.53
13.5718	0.446
13.6129	0.464
13.6541	0.53
13.6953	0.575
13.7364	0.595
13.7776	0.604
13.8187	0.609
13.8599	0.626
13.901	0.642
13.9422	0.662
13.9834	0.679
14.0245	0.696
14.0657	0.702
14.1068	0.71
14.148	0.714
14.1891	0.719
14.2303	0.719
14.2714	0.715
14.3126	0.714
14.3538	0.708
14.3949	0.708
14.4361	0.703
14.4772	0.698
14.5184	0.691
14.5595	0.686
14.6007	0.683
14.6419	0.672
14.683	0.666
14.7242	0.659
14.7653	0.655
14.8065	0.645
14.8476	0.638
14.8888	0.626
14.9299	0.618
14.9711	0.613
15.0123	0.607
15.0534	0.597
15.0946	0.582
15.1357	0.568
15.1769	0.551
15.218	0.527
15.2592	0.511
15.3004	0.494
15.3415	0.472
15.3827	0.462
15.4238	0.465
15.465	0.469
15.5061	0.472
15.5473	0.474
15.5884	0.477
15.6296	0.479
15.6708	0.477
15.7119	0.476
15.7531	0.472
15.7942	0.469
15.8354	0.469
15.8765	0.469
15.9177	0.469
