Infrared Spectrum: TRIOCTADECOXYBORANE (N)
Formula: C54 H111 O3 B
CAS: 5337-41-7
State: LIQUID (VISCOUS);
Class: COBLENTZ
Instrument: Not specified, most likely a prism, grating, or hybrid spectrometer.
Sampling: TRANSMISSION
Resolution: 4
Origin: KALLERY CHEMICAL COMPANY
MICROMETERS	TRANSMITTANCE
2	0.838
2.03478	0.839
2.06955	0.843
2.10433	0.845
2.13911	0.848
2.17389	0.851
2.20866	0.857
2.24344	0.858
2.27822	0.857
2.313	0.845
2.34777	0.843
2.38255	0.845
2.41733	0.848
2.4521	0.853
2.48688	0.864
2.52166	0.872
2.55644	0.877
2.59121	0.882
2.62599	0.886
2.66077	0.891
2.69555	0.893
2.73032	0.893
2.7651	0.896
2.79988	0.895
2.83465	0.896
2.86943	0.896
2.90421	0.895
2.93899	0.895
2.97376	0.898
3.00854	0.901
3.04332	0.905
3.0781	0.908
3.11287	0.91
3.14765	0.91
3.18243	0.907
3.2172	0.903
3.25198	0.891
3.28676	0.869
3.32154	0.824
3.35631	0.521
3.39109	0.118
3.42587	0.122
3.46064	0.268
3.49542	0.228
3.5302	0.511
3.56498	0.777
3.59975	0.848
3.63453	0.889
3.66931	0.91
3.70409	0.915
3.73886	0.919
3.77364	0.924
3.80842	0.932
3.84319	0.944
3.87797	0.958
3.91275	0.969
3.94753	0.974
3.9823	0.979
4.01708	0.982
4.05186	0.986
4.08664	0.987
4.12141	0.991
4.15619	0.993
4.19097	0.996
4.22574	0.996
4.26052	0.998
4.2953	0.998
4.33008	1
4.36485	1.001
4.39963	1.001
4.43441	1.003
4.46919	1.003
4.50396	1.005
4.53874	1.005
4.57352	1.006
4.60829	1.006
4.64307	1.006
4.67785	1.006
4.71263	1.006
4.7474	1.008
4.78218	1.008
4.81696	1.01
4.85174	1.012
4.88651	1.01
4.92129	1.01
4.95607	1.01
4.99084	1.01
5.02562	1.01
5.0604	1.01
5.09518	1.012
5.12995	1.012
5.16473	1.012
5.19951	1.012
5.23429	1.012
5.26906	1.012
5.30384	1.012
5.33862	1.012
5.37339	1.013
5.40817	1.01
5.44295	1.008
5.47773	1.006
5.5125	1.008
5.54728	1.008
5.58206	1.008
5.61684	1.01
5.65161	1.01
5.68639	1.01
5.72117	1.005
5.75594	0.998
5.79072	1
5.8255	1.001
5.86028	1.003
5.89505	1.005
5.92983	1.005
5.96461	1.006
5.99939	1.008
6.03416	1.008
6.06894	1.008
6.10372	1.008
6.13849	1.008
6.17327	1.006
6.20805	1.006
6.24283	1.005
6.2776	1.003
6.31238	1.003
6.34716	1
6.38193	0.998
6.41671	0.998
6.45149	0.998
6.48627	0.991
6.52104	0.984
6.55582	0.975
6.5906	0.965
6.62538	0.939
6.66015	0.895
6.69493	0.623
6.72971	0.511
6.76448	0.523
6.79926	0.318
6.83404	0.461
6.86882	0.509
6.90359	0.537
6.93837	0.485
6.97315	0.444
7.00793	0.387
7.0427	0.328
7.07748	0.344
7.11226	0.574
7.14703	0.748
7.18181	0.776
7.21659	0.75
7.25137	0.638
7.28614	0.516
7.32092	0.404
7.3557	0.333
7.39048	0.287
7.42525	0.24
7.46003	0.22
7.49481	0.215
7.52958	0.242
7.56436	0.361
7.59914	0.407
7.63392	0.533
7.66869	0.543
7.70347	0.547
7.73825	0.561
7.77303	0.611
7.8078	0.672
7.84258	0.691
7.87736	0.712
7.91213	0.741
7.94691	0.771
7.98169	0.793
8.01647	0.807
8.05124	0.831
8.08602	0.845
8.1208	0.85
8.15558	0.857
8.19035	0.884
8.22513	0.895
8.25991	0.896
8.29468	0.9
8.32946	0.915
8.36424	0.922
8.39902	0.922
8.43379	0.922
8.46857	0.92
8.50335	0.919
8.53813	0.922
8.5729	0.925
8.60768	0.927
8.64246	0.929
8.67723	0.931
8.71201	0.931
8.74679	0.932
8.78157	0.938
8.81634	0.941
8.85112	0.938
8.8859	0.931
8.92067	0.924
8.95545	0.922
8.99023	0.922
9.02501	0.917
9.05978	0.907
9.09456	0.905
9.12934	0.913
9.16412	0.915
9.19889	0.903
9.23367	0.864
9.26845	0.829
9.30322	0.759
9.338	0.697
9.37278	0.671
9.40756	0.666
9.44233	0.669
9.47711	0.674
9.51189	0.681
9.54667	0.685
9.58144	0.705
9.61622	0.731
9.651	0.736
9.68577	0.748
9.72055	0.76
9.75533	0.784
9.79011	0.802
9.82488	0.814
9.85966	0.826
9.89444	0.838
9.92922	0.86
9.96399	0.87
9.99877	0.877
10.0335	0.881
10.0683	0.884
10.1031	0.895
10.1379	0.9
10.1727	0.91
10.2074	0.917
10.2422	0.922
10.277	0.925
10.3118	0.931
10.3465	0.932
10.3813	0.938
10.4161	0.941
10.4509	0.948
10.4857	0.955
10.5204	0.96
10.5552	0.962
10.59	0.965
10.6248	0.972
10.6595	0.974
10.6943	0.974
10.7291	0.979
10.7639	0.982
10.7986	0.987
10.8334	0.991
10.8682	0.993
10.903	0.991
10.9378	0.993
10.9725	0.996
11.0073	0.996
11.0421	0.996
11.0769	0.996
11.1116	0.994
11.1464	0.993
11.1812	0.989
11.216	0.984
11.2508	0.982
11.2855	0.979
11.3203	0.977
11.3551	0.979
11.3899	0.982
11.4246	0.989
11.4594	0.996
11.4942	1.001
11.529	1.005
11.5637	1.006
11.5985	1.008
11.6333	1.008
11.6681	1.008
11.7029	1.008
11.7376	1.008
11.7724	1.008
11.8072	1.008
11.842	1.008
11.8767	1.008
11.9115	1.008
11.9463	1.008
11.9811	1.008
12.0159	1.008
12.0506	1.008
12.0854	1.008
12.1202	1.008
12.155	1.006
12.1897	1.006
12.2245	1.006
12.2593	1.006
12.2941	1.008
12.3288	1.006
12.3636	1.006
12.3984	1.006
12.4332	1.006
12.468	1.005
12.5027	1.005
12.5375	1.003
12.5723	1.003
12.6071	1.003
12.6418	1.003
12.6766	1.003
12.7114	1.003
12.7462	1.003
12.781	1.003
12.8157	1.001
12.8505	0.998
12.8853	0.998
12.9201	0.998
12.9548	0.998
12.9896	0.998
13.0244	0.996
13.0592	0.994
13.0939	0.994
13.1287	0.993
13.1635	0.993
13.1983	0.989
13.2331	0.987
13.2678	0.986
13.3026	0.982
13.3374	0.979
13.3722	0.977
13.4069	0.974
13.4417	0.97
13.4765	0.967
13.5113	0.96
13.5461	0.955
13.5808	0.941
13.6156	0.931
13.6504	0.922
13.6852	0.912
13.7199	0.896
13.7547	0.864
13.7895	0.827
13.8243	0.702
13.859	0.597
13.8938	0.566
13.9286	0.585
13.9634	0.669
13.9982	0.759
14.0329	0.851
14.0677	0.877
14.1025	0.895
14.1373	0.905
14.172	0.912
14.2068	0.915
14.2416	0.92
14.2764	0.922
14.3112	0.92
14.3459	0.915
14.3807	0.903
14.4155	0.896
14.4503	0.886
14.485	0.877
14.5198	0.874
14.5546	0.879
14.5894	0.886
14.6241	0.893
14.6589	0.893
14.6937	0.895
14.7285	0.903
14.7633	0.91
14.798	0.905
14.8328	0.895
14.8676	0.886
14.9024	0.864
14.9371	0.82
14.9719	0.786
15.0067	0.772
15.0415	0.752
15.0763	0.691
15.111	0.683
15.1458	0.69
15.1806	0.705
15.2154	0.714
15.2501	0.743
15.2849	0.769
15.3197	0.793
15.3545	0.819
15.3892	0.833
15.424	0.853
15.4588	0.877
