Infrared Spectrum: N,N-Dibutylbenzenesulphonamide
Formula: C 14 H 23 N O 2 S
CAS: 5339-59-3
State: gas
Origin: EPA-IR VAPOR PHASE LIBRARY
1/CM	ABSORBANCE
549.9	0.04944
559.547	0.06888
569.193	0.07553
578.84	0.137
588.486	0.15887
598.133	0.08836
607.779	0.03538
617.426	0.01636
627.072	0.01072
636.719	0.00968
646.365	0.01148
656.012	0.01786
665.658	0.02833
675.305	0.03832
684.951	0.06973
694.598	0.08543
704.245	0.04534
713.891	0.04509
723.538	0.09923
733.184	0.13883
742.831	0.12058
752.477	0.08781
762.124	0.08171
771.77	0.05489
781.417	0.03722
791.063	0.02709
800.71	0.02033
810.356	0.01507
820.003	0.01134
829.649	0.00962
839.296	0.0106
848.943	0.01383
858.589	0.02114
868.236	0.03168
877.882	0.03189
887.529	0.02703
897.175	0.03392
906.822	0.04806
916.468	0.07346
926.115	0.07399
935.761	0.04204
945.408	0.02569
955.054	0.02039
964.701	0.02087
974.347	0.02234
983.994	0.0252
993.64	0.02748
1003.29	0.0323
1012.93	0.0547
1022.58	0.07742
1032.23	0.05386
1041.87	0.03304
1051.52	0.03323
1061.17	0.0349
1070.81	0.03396
1080.46	0.04622
1090.11	0.10721
1099.75	0.07523
1109.4	0.03803
1119.05	0.02833
1128.69	0.0255
1138.34	0.03644
1147.99	0.08125
1157.63	0.19699
1167.28	0.28538
1176.92	0.21652
1186.57	0.08705
1196.22	0.03362
1205.86	0.01902
1215.51	0.01468
1225.16	0.01606
1234.8	0.02177
1244.45	0.02358
1254.1	0.02282
1263.74	0.02221
1273.39	0.02324
1283.04	0.0217
1292.68	0.02009
1302.33	0.028
1311.98	0.03572
1321.62	0.04375
1331.27	0.06876
1340.92	0.10457
1350.56	0.16111
1360.21	0.18403
1369.86	0.16278
1379.5	0.11249
1389.15	0.04926
1398.79	0.02293
1408.44	0.01634
1418.09	0.01488
1427.73	0.01724
1437.38	0.02925
1447.03	0.05265
1456.67	0.04489
1466.32	0.04581
1475.97	0.03557
1485.61	0.02241
1495.26	0.01168
1504.91	0.0086
1514.55	0.00692
1524.2	0.00608
1533.85	0.00536
1543.49	0.00452
1553.14	0.0041058
1562.79	0.0039324
1572.43	0.0041643
1582.08	0.00505
1591.73	0.00502
1601.37	0.0040208
1611.02	0.0036573
1620.67	0.003368
1630.31	0.00314
1639.96	0.003122
1649.6	0.003248
1659.25	0.0037139
1668.9	0.0043389
1678.54	0.0040783
1688.19	0.003268
1697.84	0.002817
1707.48	0.002783
1717.13	0.002692
1726.78	0.002707
1736.42	0.002712
1746.07	0.002896
1755.72	0.0034657
1765.36	0.0034682
1775.01	0.00333
1784.66	0.003065
1794.3	0.0040569
1803.95	0.00584
1813.6	0.0043163
1823.24	0.003137
1832.89	0.002596
1842.54	0.00245
1852.18	0.00235
1861.83	0.00247
1871.47	0.002784
1881.12	0.0036667
1890.77	0.00456
1900.41	0.00452
1910.06	0.0037635
1919.71	0.002554
1929.35	0.00239
1939	0.002932
1948.65	0.0042412
1958.29	0.0045
1967.94	0.0041917
1977.59	0.002669
1987.23	0.00202
1996.88	0.00185
2006.53	0.00188
2016.17	0.00195
2025.82	0.00201
2035.47	0.00213
2045.11	0.00206
2054.76	0.00204
2064.41	0.002
2074.05	0.00196
2083.7	0.00196
2093.35	0.00197
2102.99	0.00198
2112.64	0.00201
2122.28	0.00198
2131.93	0.00195
2141.58	0.002
2151.22	0.00196
2160.87	0.00208
2170.52	0.00214
2180.16	0.00224
2189.81	0.00214
2199.46	0.00204
2209.1	0.00201
2218.75	0.002
2228.4	0.00209
2238.04	0.00231
2247.69	0.002679
2257.34	0.002754
2266.98	0.002553
2276.63	0.00236
2286.28	0.00219
2295.92	0.00208
2305.57	0.00217
2315.22	0.0029
2324.86	0.002949
2334.51	0.002796
2344.16	0.002595
2353.8	0.00223
2363.45	0.00215
2373.09	0.0021
2382.74	0.00209
2392.39	0.00207
2402.03	0.00211
2411.68	0.00197
2421.33	0.00201
2430.97	0.00196
2440.62	0.00205
2450.27	0.00197
2459.91	0.00189
2469.56	0.00191
2479.21	0.00195
2488.85	0.00204
2498.5	0.00229
2508.15	0.002503
2517.79	0.002496
2527.44	0.00238
2537.09	0.00227
2546.73	0.00217
2556.38	0.00218
2566.03	0.00231
2575.67	0.00241
2585.32	0.00239
2594.96	0.0024
2604.61	0.002586
2614.26	0.00261
2623.9	0.0026
2633.55	0.002602
2643.2	0.002659
2652.84	0.002928
2662.49	0.003348
2672.14	0.003802
2681.78	0.0037673
2691.43	0.0037223
2701.08	0.0039938
2710.72	0.0042746
2720.37	0.0044505
2730.02	0.00489
2739.66	0.00563
2749.31	0.006
2758.96	0.00558
2768.6	0.00529
2778.25	0.00556
2787.9	0.00626
2797.54	0.00731
2807.19	0.00861
2816.84	0.01056
2826.48	0.01343
2836.13	0.01771
2845.77	0.02485
2855.42	0.04011
2865.07	0.06935
2874.71	0.09987
2884.36	0.10745
2894.01	0.08066
2903.65	0.07748
2913.3	0.09752
2922.95	0.11722
2932.59	0.14745
2942.24	0.17985
2951.89	0.15587
2961.53	0.17957
2971.18	0.21856
2980.83	0.11257
2990.47	0.0554
3000.12	0.0347
3009.77	0.02497
3019.41	0.02052
3029.06	0.01779
3038.71	0.01538
3048.35	0.01414
3058	0.01972
3067.64	0.03567
3077.29	0.04271
3086.94	0.02094
3096.58	0.0141
3106.23	0.00677
3115.88	0.0042875
3125.52	0.00347095
3135.17	0.003128
3144.82	0.002939
3154.46	0.003123
3164.11	0.002876
3173.76	0.00212
3183.4	0.00165
3193.05	0.00151
3202.7	0.00109
3212.34	0.0009
3221.99	0.00056
3231.64	0.00046
3241.28	0.00044
3250.93	0.00028
3260.58	0.0001
3270.22	8e-05
3279.87	6e-05
3289.52	0.00026
3299.16	0.00022
3308.81	0.00019
3318.45	0.00021
3328.1	0.00026
3337.75	0.00018
3347.39	0.00032
3357.04	0.00036
3366.69	0.00027
3376.33	0.0003
3385.98	0.00035
3395.63	0.00048
3405.27	0.00041
3414.92	0.0004
3424.57	0.00033
3434.21	0.00038
3443.86	0.00045
3453.51	0.00048
3463.15	0.00037
3472.8	0.00029
3482.45	0.00044
3492.09	0.00032
3501.74	0.00056
3511.39	0.00041
3521.03	0.00052
3530.68	0.00048
3540.33	0.00046
3549.97	0.00055
3559.62	0.00065
3569.26	0.00055
3578.91	0.00071
3588.56	0.0008
3598.2	0.0007
3607.85	0.0009
3617.5	0.00097
3627.14	0.001
3636.79	0.00107
3646.44	0.00125
3656.08	0.00126
3665.73	0.00122
3675.38	0.00134
3685.02	0.00125
3694.67	0.0013
3704.32	0.00164
3713.96	0.00132
3723.61	0.00126
3733.26	0.00117
3742.9	0.00104
3752.55	0.00132
3762.2	0.00126
3771.84	0.00131
3781.49	0.00133
3791.13	0.00139
3800.78	0.00143
3810.43	0.00136
3820.07	0.0014
3829.72	0.00138
3839.37	0.00145
3849.01	0.00147
3858.66	0.00139
3868.31	0.00126
3877.95	0.00135
3887.6	0.00123
3897.25	0.00137
3906.89	0.00124
3916.54	0.00138
3926.19	0.00139
3935.83	0.00143
3945.48	0.0015
3955.13	0.00146
3964.77	0.00159
3974.42	0.00175
3984.07	0.00177
3993.71	0.00194
