Infrared Spectrum: Ethyl 2-methylpent-4-enoate
Formula: C 8 H 14 O 2
CAS: 53399-81-8
State: gas
Origin: EPA-IR VAPOR PHASE LIBRARY
1/CM	ABSORBANCE
549.9	0.00383
559.547	0.00361
569.193	0.00384
578.84	0.00394
588.486	0.00447
598.133	0.00507
607.779	0.0055
617.426	0.00609
627.072	0.00679
636.719	0.00747
646.365	0.00717
656.012	0.0061
665.658	0.00489
675.305	0.00418
684.951	0.00376
694.598	0.0031601
704.245	0.0025904
713.891	0.00230977
723.538	0.00229014
733.184	0.002555
742.831	0.0032649
752.477	0.00488
762.124	0.00645
771.77	0.00695
781.417	0.00691
791.063	0.00648
800.71	0.00587
810.356	0.00534
820.003	0.00561
829.649	0.00655
839.296	0.00877
848.943	0.01249
858.589	0.01628
868.236	0.01531
877.882	0.01227
887.529	0.01305
897.175	0.01803
906.822	0.02976
916.468	0.0425
926.115	0.03482
935.761	0.01945
945.408	0.01361
955.054	0.0123
964.701	0.01189
974.347	0.01436
983.994	0.02133
993.64	0.02603
1003.29	0.02494
1012.93	0.02861
1022.58	0.03973
1032.23	0.04813
1041.87	0.05059
1051.52	0.05374
1061.17	0.05304
1070.81	0.04925
1080.46	0.05179
1090.11	0.06175
1099.75	0.07131
1109.4	0.07334
1119.05	0.07603
1128.69	0.09132
1138.34	0.11862
1147.99	0.14073
1157.63	0.16069
1167.28	0.19972
1176.92	0.21796
1186.57	0.17629
1196.22	0.11956
1205.86	0.09137
1215.51	0.08176
1225.16	0.08014
1234.8	0.08232
1244.45	0.08142
1254.1	0.06936
1263.74	0.05445
1273.39	0.04978
1283.04	0.04288
1292.68	0.0324
1302.33	0.02718
1311.98	0.02358
1321.62	0.02155
1331.27	0.02404
1340.92	0.03164
1350.56	0.03413
1360.21	0.0311
1369.86	0.03776
1379.5	0.04199
1389.15	0.03202
1398.79	0.02129
1408.44	0.01748
1418.09	0.01716
1427.73	0.01888
1437.38	0.02409
1447.03	0.0298
1456.67	0.03489
1466.32	0.03726
1475.97	0.02878
1485.61	0.01646
1495.26	0.01017
1504.91	0.00752
1514.55	0.00643
1524.2	0.00569
1533.85	0.00508
1543.49	0.00458
1553.14	0.00425
1562.79	0.00414
1572.43	0.00393
1582.08	0.0039
1591.73	0.00399
1601.37	0.00433
1611.02	0.00505
1620.67	0.00699
1630.31	0.01192
1639.96	0.01694
1649.6	0.0141
1659.25	0.00775
1668.9	0.0065
1678.54	0.00723
1688.19	0.00918
1697.84	0.01306
1707.48	0.01993
1717.13	0.03313
1726.78	0.06402
1736.42	0.13535
1746.07	0.21767
1755.72	0.21156
1765.36	0.11187
1775.01	0.04212
1784.66	0.02062
1794.3	0.01256
1803.95	0.00885
1813.6	0.0071
1823.24	0.00682
1832.89	0.00765
1842.54	0.00729
1852.18	0.00515
1861.83	0.00385
1871.47	0.00349
1881.12	0.00335
1890.77	0.00331
1900.41	0.003148
1910.06	0.0030483
1919.71	0.0029005
1929.35	0.002813
1939	0.0027764
1948.65	0.0027759
1958.29	0.0028273
1967.94	0.0029765
1977.59	0.003001
1987.23	0.0029162
1996.88	0.0028276
2006.53	0.0028142
2016.17	0.0028487
2025.82	0.0028806
2035.47	0.0027933
2045.11	0.0026095
2054.76	0.00233752
2064.41	0.0021901
2074.05	0.002124
2083.7	0.002093
2093.35	0.002058
2102.99	0.001867
2112.64	0.001726
2122.28	0.001672
2131.93	0.001672
2141.58	0.001624
2151.22	0.001565
2160.87	0.001535
2170.52	0.001505
2180.16	0.001466
2189.81	0.001479
2199.46	0.001517
2209.1	0.001514
2218.75	0.001558
2228.4	0.001671
2238.04	0.001662
2247.69	0.001714
2257.34	0.001703
2266.98	0.001692
2276.63	0.001756
2286.28	0.001805
2295.92	0.001853
2305.57	0.001811
2315.22	0.001862
2324.86	0.001876
2334.51	0.001829
2344.16	0.001807
2353.8	0.001708
2363.45	0.001665
2373.09	0.001581
2382.74	0.001587
2392.39	0.00168
2402.03	0.001622
2411.68	0.001627
2421.33	0.001607
2430.97	0.001535
2440.62	0.001545
2450.27	0.001497
2459.91	0.001454
2469.56	0.001359
2479.21	0.001343
2488.85	0.00127
2498.5	0.00126
2508.15	0.00115
2517.79	0.00122
2527.44	0.00126
2537.09	0.001305
2546.73	0.00136
2556.38	0.00127
2566.03	0.001291
2575.67	0.00127
2585.32	0.00127
2594.96	0.00127
2604.61	0.00135
2614.26	0.00125
2623.9	0.00115
2633.55	0.00109
2643.2	0.00114
2652.84	0.00109
2662.49	0.00109
2672.14	0.00101
2681.78	0.00105
2691.43	0.00109
2701.08	0.00116
2710.72	0.001343
2720.37	0.001469
2730.02	0.001688
2739.66	0.001962
2749.31	0.002074
2758.96	0.002159
2768.6	0.0022978
2778.25	0.00238679
2787.9	0.0025047
2797.54	0.0027507
2807.19	0.0032316
2816.84	0.00403
2826.48	0.00524
2836.13	0.00692
2845.77	0.00941
2855.42	0.01182
2865.07	0.01459
2874.71	0.01994
2884.36	0.02721
2894.01	0.03151
2903.65	0.03605
2913.3	0.04372
2922.95	0.04942
2932.59	0.05995
2942.24	0.07268
2951.89	0.06728
2961.53	0.05884
2971.18	0.08031
2980.83	0.11812
2990.47	0.10919
3000.12	0.06686
3009.77	0.04119
3019.41	0.02592
3029.06	0.01591
3038.71	0.01099
3048.35	0.00949
3058	0.01011
3067.64	0.01339
3077.29	0.0205
3086.94	0.02598
3096.58	0.01723
3106.23	0.00691
3115.88	0.00433
3125.52	0.00344
3135.17	0.0028327
3144.82	0.002622
3154.46	0.0022739
3164.11	0.001806
3173.76	0.001576
3183.4	0.001537
3193.05	0.001344
3202.7	0.00084
3212.34	0.00092
3221.99	0.00043
3231.64	0.00047
3241.28	0.00032
3250.93	0.00025
3260.58	0.00028
3270.22	0.00028
3279.87	2e-05
3289.52	3e-05
3299.16	0
3308.81	4e-05
3318.45	9e-05
3328.1	0.00026
3337.75	0.00024
3347.39	0.00025
3357.04	5e-05
3366.69	0.00019
3376.33	0.00044
3385.98	0.00039
3395.63	0.00035
3405.27	0.00034
3414.92	0.00052
3424.57	0.00052
3434.21	0.00062
3443.86	0.00076
3453.51	0.00127
3463.15	0.001614
3472.8	0.0022431
3482.45	0.0027456
3492.09	0.002121
3501.74	0.00111
3511.39	0.00086
3521.03	0.00059
3530.68	0.00064
3540.33	0.00052
3549.97	0.00059
3559.62	0.00055
3569.26	0.00063
3578.91	0.00041
3588.56	0.00042
3598.2	0.0005
3607.85	0.0005
3617.5	0.0006
3627.14	0.00061
3636.79	0.00052
3646.44	0.00065
3656.08	0.00056
3665.73	0.00059
3675.38	0.00074
3685.02	0.00067
3694.67	0.00064
3704.32	0.00059
3713.96	0.00072
3723.61	0.00073
3733.26	0.00082
3742.9	0.00067
3752.55	0.00073
3762.2	0.0008
3771.84	0.0009
3781.49	0.00101
3791.13	0.00088
3800.78	0.00094
3810.43	0.00076
3820.07	0.0011
3829.72	0.00097
3839.37	0.00093
3849.01	0.00096
3858.66	0.00089
3868.31	0.00089
3877.95	0.00091
3887.6	0.00092
3897.25	0.00094
3906.89	0.00087
3916.54	0.00093
3926.19	0.00095
3935.83	0.0009
3945.48	0.00103
3955.13	0.00101
3964.77	0.00111
3974.42	0.00122
3984.07	0.00126
3993.71	0.00127
