Infrared Spectrum: Alanine, (3,5-diiodo-4-(-p-hydroxyphenoxy)phenyl)-
Formula: C15 H13 I2 N O4
CAS: 534-51-0
State: SOLID (OIL MULL)
Class: COBLENTZ III
Instrument: PERKIN-ELMER 21 (GRATING)
Instrument parameters: NaCl PRISM
Sampling: TRANSMISSION
Resolution: 2
Origin: SMITH KLINE & FRENCH LABS.
1/CM	TRANSMITTANCE
679	0.7682
688	0.7792
697	0.7155
706	0.6038
715	0.6949
724	0.7212
733	0.7478
742	0.7755
751	0.7672
760	0.7392
769	0.7041
778	0.7781
787	0.785
796	0.7626
805	0.6783
814	0.6363
823	0.4115
832	0.5793
841	0.724
850	0.7299
859	0.6858
868	0.777
877	0.7493
886	0.7517
895	0.7493
904	0.7815
913	0.7444
922	0.7488
931	0.7349
940	0.7683
949	0.7519
958	0.7498
967	0.7571
976	0.7819
985	0.7905
994	0.7908
1003	0.769
1012	0.7783
1021	0.7596
1030	0.7219
1039	0.6876
1048	0.6893
1057	0.6934
1066	0.6641
1075	0.6649
1084	0.6563
1093	0.5314
1102	0.6771
1111	0.6471
1120	0.6355
1129	0.6202
1138	0.6135
1147	0.5817
1156	0.5674
1165	0.5244
1174	0.4495
1183	0.3101
1192	0.2867
1201	0.3962
1210	0.3446
1219	0.246
1228	0.1791
1237	0.2214
1246	0.4387
1255	0.4918
1264	0.5176
1273	0.5915
1282	0.607
1291	0.5798
1300	0.5481
1309	0.4992
1318	0.4136
1327	0.3129
1336	0.2867
1345	0.2589
1354	0.2511
1363	0.1562
1372	0.1208
1381	0.1889
1390	0.2783
1399	0.3822
1408	0.4464
1417	0.3662
1426	0.2513
1435	0.1183
1444	0.109
1453	0.091
1462	0.0939
1471	0.1778
1480	0.2523
1489	0.2326
1498	0.2063
1507	0.2846
1516	0.4348
1525	0.45
1534	0.4556
1543	0.5127
1552	0.4709
1561	0.4062
1570	0.3339
1579	0.285
1588	0.2996
1597	0.3516
1606	0.3294
1615	0.3376
1624	0.3677
1633	0.4373
1642	0.5108
1651	0.6442
1660	0.7393
1669	0.7885
1678	0.8125
1687	0.8322
1696	0.8361
1705	0.837
1714	0.8402
1723	0.8439
1732	0.8434
1741	0.8423
1750	0.8401
1759	0.8365
1768	0.8314
1777	0.8263
1786	0.8209
1795	0.8156
1804	0.8106
1813	0.8061
1822	0.8016
1831	0.7971
1840	0.7925
1849	0.788
1858	0.784
1867	0.7844
1876	0.7814
1885	0.776
1894	0.7704
1903	0.7652
1912	0.76
1921	0.755
1930	0.7502
1939	0.7456
1948	0.7412
1957	0.7372
1966	0.7333
1975	0.7293
1984	0.7255
1993	0.7217
2002	0.718
2011	0.7145
2020	0.7122
2029	0.7099
2038	0.7077
2047	0.707
2056	0.7062
2065	0.7045
2074	0.7025
2083	0.6993
2092	0.6958
2101	0.6913
2110	0.6869
2119	0.6825
2128	0.6777
2137	0.673
2146	0.6678
2155	0.6623
2164	0.6567
2173	0.6512
2182	0.6457
2191	0.6401
2200	0.6345
2209	0.6278
2218	0.6202
2227	0.6118
2236	0.603
2245	0.5917
2254	0.5868
2263	0.5794
2272	0.566
2281	0.5524
2290	0.5384
2299	0.5249
2308	0.517
2317	0.511
2326	0.5066
2335	0.5026
2344	0.5
2353	0.4976
2362	0.4955
2371	0.4932
2380	0.4898
2389	0.4852
2398	0.4766
2407	0.4686
2416	0.46
2425	0.4507
2434	0.4439
2443	0.4378
2452	0.4324
2461	0.4289
2470	0.4255
2479	0.4231
2488	0.4136
2497	0.4014
2506	0.3937
2515	0.3863
2524	0.3796
2533	0.3745
2542	0.3694
2551	0.3657
2560	0.3621
2569	0.3585
2578	0.3553
2587	0.3526
2596	0.3502
2605	0.3485
2614	0.3468
2623	0.3445
2632	0.3366
2641	0.3303
2650	0.3289
2659	0.3296
2668	0.3371
2677	0.3382
2686	0.3335
2695	0.3287
2704	0.3242
2713	0.3213
2722	0.3192
2731	0.3126
2740	0.2998
2749	0.283
2758	0.2658
2767	0.2495
2776	0.2353
2785	0.1935
2794	0.1485
2803	0.104
2812	0.0818
2821	0.076
2830	0.0747
2839	0.0749
2848	0.0753
2857	0.0757
2866	0.0765
2875	0.0772
2884	0.0781
2893	0.0791
2902	0.0804
2911	0.0828
2920	0.0879
2929	0.0947
2938	0.1164
2947	0.1466
2956	0.1767
2965	0.213
2974	0.2305
2983	0.2435
2992	0.2468
3001	0.2498
3010	0.256
3019	0.2648
3028	0.2734
3037	0.2758
3046	0.2774
3055	0.279
3064	0.2799
3073	0.2807
3082	0.2816
3091	0.2824
3100	0.2831
3109	0.2839
3118	0.285
3127	0.2902
3136	0.2956
3145	0.3002
3154	0.3046
3163	0.309
3172	0.3153
3181	0.3232
3190	0.331
3199	0.3395
3208	0.3474
3217	0.3499
3226	0.3518
3235	0.3615
3244	0.3788
3253	0.3808
3262	0.3824
3271	0.3831
3280	0.3833
3289	0.3834
3298	0.3835
3307	0.3834
3316	0.3831
3325	0.3827
3334	0.3825
3343	0.3823
3352	0.3821
3361	0.382
3370	0.3824
3379	0.3831
3388	0.3867
3397	0.392
3406	0.3923
3415	0.3925
3424	0.3948
3433	0.3991
3442	0.4048
3451	0.4109
3460	0.4169
3469	0.422
3478	0.4263
3487	0.4301
3496	0.4314
3505	0.4328
3514	0.434
3523	0.4352
3532	0.4364
3541	0.4375
3550	0.4399
3559	0.4435
3568	0.4505
3577	0.4555
3586	0.4581
3595	0.4604
3604	0.4622
3613	0.4633
3622	0.4645
3631	0.4654
3640	0.4655
3649	0.4649
3658	0.4631
3667	0.4607
3676	0.4585
3685	0.456
3694	0.453
3703	0.4501
3712	0.4471
3721	0.4442
3730	0.4421
3739	0.4409
3748	0.4397
3757	0.4385
3766	0.4374
3775	0.4363
3784	0.4353
3793	0.4342
3802	0.4319
3811	0.4292
3820	0.4267
3829	0.4241
3838	0.4222
3847	0.4216
3856	0.4213
3865	0.4208
3874	0.4203
3883	0.4199
3892	0.4194
3901	0.4187
3910	0.4165
3919	0.4143
3928	0.4107
3937	0.4074
3946	0.4038
3955	0.399
3964	0.3935
3973	0.3878
3982	0.3817
3991	0.3757
4000	0.3705
