Infrared Spectrum: 3-Methyl-3-octanol
Formula: C 9 H 20 O
CAS: 5340-36-3
State: gas
Instrument: HP-GC/MS/IRD
Origin: NIST Mass Spectrometry Data Center
1/CM	ABSORBANCE
550	0.000374
562	0.0002112
574	0.000143
586	0.000242
598	0.0001474
610	8.58e-05
622	4.18e-05
634	0.000143
646	2.2e-05
658	0.0001826
670	0.0001716
682	0.0001034
694	0.0001892
706	0.0001342
718	0.0003278
730	0.0004224
742	0.0005038
754	0.0003784
766	0.0003586
778	0.0003542
790	0.0003476
802	0.0002464
814	0.000154
826	0.0001628
838	0.0002552
850	0.0003652
862	0.0004158
874	0.0005918
886	0.0012276
898	0.0020306
910	0.0020834
922	0.0018656
934	0.001881
946	0.001628
958	0.0013904
970	0.0011044
982	0.001056
994	0.0013112
1006	0.0014674
1018	0.0013662
1030	0.0013178
1042	0.0012694
1054	0.001177
1066	0.0011198
1078	0.001243
1090	0.0014014
1102	0.0015378
1114	0.0017754
1126	0.0022792
1138	0.0028534
1150	0.0033462
1162	0.0032868
1174	0.0025938
1186	0.0021604
1198	0.002035
1210	0.0018942
1222	0.0017182
1234	0.0017138
1246	0.0017842
1258	0.0017578
1270	0.0017864
1282	0.0017842
1294	0.0018018
1306	0.0017622
1318	0.001694
1330	0.0017138
1342	0.0019096
1354	0.0020328
1366	0.0026202
1378	0.0036498
1390	0.0028336
1402	0.0013882
1414	0.0009856
1426	0.0009922
1438	0.0014784
1450	0.0024794
1462	0.0034342
1474	0.002585
1486	0.00121
1498	0.0006226
1510	0.0004202
1522	0.0003102
1534	0.0002552
1546	0.0002024
1558	0.0001958
1570	0.0001804
1582	0.0001848
1594	0.0001782
1606	0.0001254
1618	0.0001144
1630	0.000121
1642	0.0001188
1654	0.0001342
1666	9.24e-05
1678	0.0001276
1690	0.0001254
1702	7.04e-05
1714	8.36e-05
1726	9.46e-05
1738	5.06e-05
1750	6.38e-05
1762	3.96e-05
1774	5.94e-05
1786	6.38e-05
1798	5.94e-05
1810	4.18e-05
1822	6.82e-05
1834	6.82e-05
1846	6.16e-05
1858	3.96e-05
1870	5.5e-05
1882	3.52e-05
1894	5.94e-05
1906	5.94e-05
1918	5.5e-05
1930	6.6e-06
1942	2.64e-05
1954	2.42e-05
1966	5.5e-05
1978	2.86e-05
1990	3.08e-05
2002	2.86e-05
2014	3.08e-05
2026	3.74e-05
2038	5.28e-05
2050	3.96e-05
2062	2.2e-05
2074	4.62e-05
2086	3.96e-05
2098	2.2e-05
2110	5.06e-05
2122	4.18e-05
2134	3.96e-05
2146	6.6e-06
2158	3.08e-05
2170	8.14e-05
2182	1.76e-05
2194	4.62e-05
2206	3.3e-05
2218	2.64e-05
2230	3.52e-05
2242	4.4e-05
2254	3.3e-05
2266	3.3e-05
2278	5.72e-05
2290	3.74e-05
2302	5.06e-05
2314	4.4e-05
2326	4.18e-05
2338	5.94e-05
2350	5.28e-05
2362	4.62e-05
2374	3.74e-05
2386	7.92e-05
2398	4.62e-05
2410	7.92e-05
2422	3.74e-05
2434	2.64e-05
2446	2.86e-05
2458	3.3e-05
2470	4.62e-05
2482	8.8e-06
2494	4.62e-05
2506	2.64e-05
2518	3.52e-05
2530	6.16e-05
2542	4.62e-05
2554	6.6e-05
2566	0.0001012
2578	9.68e-05
2590	9.02e-05
2602	0.00011
2614	8.36e-05
2626	0.000121
2638	0.000154
2650	0.0001738
2662	0.0001628
2674	0.0002398
2686	0.0002288
2698	0.0002112
2710	0.0002486
2722	0.0003124
2734	0.0003586
2746	0.0004312
2758	0.0004202
2770	0.0004422
2782	0.000539
2794	0.0006622
2806	0.0008558
2818	0.0011704
2830	0.0016742
2842	0.002761
2854	0.0051304
2866	0.0075966
2878	0.0087142
2890	0.0089738
2902	0.0091652
2914	0.0120318
2926	0.0176374
2938	0.022
2950	0.0193226
2962	0.0185504
2974	0.0199298
2986	0.0116776
2998	0.0048642
3010	0.0023342
3022	0.001496
3034	0.001144
3046	0.0008646
3058	0.0007194
3070	0.0006534
3082	0.0005852
3094	0.000528
3106	0.0004378
3118	0.0003784
3130	0.0003124
3142	0.000264
3154	0.0002728
3166	0.0002398
3178	0.0002486
3190	0.0001782
3202	0.000165
3214	0.000132
3226	0.0001166
3238	0.000121
3250	7.7e-05
3262	7.48e-05
3274	7.04e-05
3286	4.4e-05
3298	8.8e-06
3310	6.6e-06
3322	4.4e-06
3334	7.04e-05
3346	5.5e-05
3358	7.7e-05
3370	1.76e-05
3382	9.46e-05
3394	9.9e-05
3406	7.26e-05
3418	7.92e-05
3430	0.0001562
3442	7.7e-05
3454	0.00011
3466	0.00011
3478	7.7e-05
3490	7.7e-05
3502	7.92e-05
3514	2.64e-05
3526	2.42e-05
3538	4.62e-05
3550	4.18e-05
3562	5.28e-05
3574	6.38e-05
3586	8.14e-05
3598	7.48e-05
3610	9.9e-05
3622	0.0003696
3634	0.000891
3646	0.0010142
3658	0.0004664
3670	0.0001848
3682	9.9e-05
3694	9.68e-05
3706	7.7e-05
3718	7.7e-05
3730	3.74e-05
3742	4.84e-05
3754	6.38e-05
3766	4.62e-05
3778	9.24e-05
3790	4.4e-05
3802	9.24e-05
3814	9.68e-05
3826	9.02e-05
3838	0.0001364
