Infrared Spectrum: Ethyl t-butylacetate
Formula: C 8 H 16 O 2
CAS: 5340-78-3
State: gas
Origin: EPA-IR VAPOR PHASE LIBRARY
1/CM	ABSORBANCE
549.9	0.001108
559.547	0.001087
569.193	0.000914
578.84	0.001378
588.486	0.001757
598.133	0.0024028
607.779	0.00309
617.426	0.00407
627.072	0.00361
636.719	0.0021708
646.365	0.001248
656.012	0.00104
665.658	0.00078
675.305	0.00088
684.951	0.000948
694.598	0.001274
704.245	0.0017883
713.891	0.0028203
723.538	0.00385
733.184	0.0033
742.831	0.0025089
752.477	0.0026539
762.124	0.00311
771.77	0.00368
781.417	0.00443
791.063	0.00484
800.71	0.00465
810.356	0.00442
820.003	0.00422
829.649	0.00453
839.296	0.00545
848.943	0.00593
858.589	0.0052
868.236	0.00391
877.882	0.00344
887.529	0.00394
897.175	0.00511
906.822	0.00557
916.468	0.00639
926.115	0.0094
935.761	0.01151
945.408	0.0118
955.054	0.01059
964.701	0.00722
974.347	0.00512
983.994	0.0049
993.64	0.00603
1003.29	0.00907
1012.93	0.01616
1022.58	0.031
1032.23	0.05456
1041.87	0.06994
1051.52	0.05806
1061.17	0.03461
1070.81	0.02201
1080.46	0.02021
1090.11	0.02657
1099.75	0.03559
1109.4	0.05067
1119.05	0.10354
1128.69	0.17224
1138.34	0.17062
1147.99	0.11904
1157.63	0.08453
1167.28	0.06627
1176.92	0.05864
1186.57	0.05864
1196.22	0.06592
1205.86	0.08847
1215.51	0.13239
1225.16	0.16195
1234.8	0.13649
1244.45	0.08958
1254.1	0.05469
1263.74	0.03446
1273.39	0.02713
1283.04	0.02717
1292.68	0.02902
1302.33	0.03276
1311.98	0.04362
1321.62	0.06234
1331.27	0.06531
1340.92	0.05413
1350.56	0.04189
1360.21	0.04381
1369.86	0.05962
1379.5	0.047
1389.15	0.0244
1398.79	0.01831
1408.44	0.01536
1418.09	0.01446
1427.73	0.01633
1437.38	0.01863
1447.03	0.02069
1456.67	0.02536
1466.32	0.03167
1475.97	0.03389
1485.61	0.02546
1495.26	0.01354
1504.91	0.00716
1514.55	0.00485
1524.2	0.00388
1533.85	0.0034
1543.49	0.00322
1553.14	0.00306
1562.79	0.00298
1572.43	0.00299
1582.08	0.0027691
1591.73	0.0027107
1601.37	0.002776
1611.02	0.00292
1620.67	0.00308
1630.31	0.00327
1639.96	0.00351
1649.6	0.00376
1659.25	0.00416
1668.9	0.00472
1678.54	0.00571
1688.19	0.00757
1697.84	0.01078
1707.48	0.01652
1717.13	0.02904
1726.78	0.06146
1736.42	0.12557
1746.07	0.18107
1755.72	0.16758
1765.36	0.09423
1775.01	0.03703
1784.66	0.01613
1794.3	0.00918
1803.95	0.00625
1813.6	0.00479
1823.24	0.00397
1832.89	0.0035
1842.54	0.00323
1852.18	0.00307
1861.83	0.00298
1871.47	0.00297
1881.12	0.00303
1890.77	0.0031
1900.41	0.0029
1910.06	0.0025979
1919.71	0.0024002
1929.35	0.002281
1939	0.0023633
1948.65	0.002402
1958.29	0.0024598
1967.94	0.0026247
1977.59	0.0026042
1987.23	0.0024821
1996.88	0.0022262
2006.53	0.0020662
2016.17	0.0020047
2025.82	0.00196914
2035.47	0.00195519
2045.11	0.00191224
2054.76	0.00197605
2064.41	0.0020368
2074.05	0.0020699
2083.7	0.00196869
2093.35	0.0018125
2102.99	0.001604
2112.64	0.001506
2122.28	0.001398
2131.93	0.001307
2141.58	0.001303
2151.22	0.001288
2160.87	0.001254
2170.52	0.001208
2180.16	0.001161
2189.81	0.001055
2199.46	0.001015
2209.1	0.001014
2218.75	0.001054
2228.4	0.001161
2238.04	0.001232
2247.69	0.001284
2257.34	0.001401
2266.98	0.001495
2276.63	0.001452
2286.28	0.00142
2295.92	0.001382
2305.57	0.001417
2315.22	0.001237
2324.86	0.001222
2334.51	0.001234
2344.16	0.001199
2353.8	0.001283
2363.45	0.00116
2373.09	0.001232
2382.74	0.001076
2392.39	0.001144
2402.03	0.001091
2411.68	0.00117
2421.33	0.001136
2430.97	0.001113
2440.62	0.000979
2450.27	0.000995
2459.91	0.000973
2469.56	0.000997
2479.21	0.000939
2488.85	0.000884
2498.5	0.00079
2508.15	0.00085
2517.79	0.00084
2527.44	0.00088
2537.09	0.00085
2546.73	0.00083
2556.38	0.00085
2566.03	0.00086
2575.67	0.0008
2585.32	0.00084
2594.96	0.000925
2604.61	0.000973
2614.26	0.001031
2623.9	0.001085
2633.55	0.001115
2643.2	0.001055
2652.84	0.001158
2662.49	0.00108
2672.14	0.00117
2681.78	0.001222
2691.43	0.001458
2701.08	0.001557
2710.72	0.0017939
2720.37	0.0022379
2730.02	0.0027501
2739.66	0.00273
2749.31	0.0027058
2758.96	0.002756
2768.6	0.0028428
2778.25	0.0028506
2787.9	0.00298
2797.54	0.00357
2807.19	0.00424
2816.84	0.00529
2826.48	0.00644
2836.13	0.00794
2845.77	0.01064
2855.42	0.01592
2865.07	0.02763
2874.71	0.04305
2884.36	0.0498
2894.01	0.05009
2903.65	0.05461
2913.3	0.06233
2922.95	0.06715
2932.59	0.07842
2942.24	0.10131
2951.89	0.136
2961.53	0.17759
2971.18	0.16896
2980.83	0.12583
2990.47	0.08444
3000.12	0.04616
3009.77	0.0264
3019.41	0.01546
3029.06	0.00959
3038.71	0.00662
3048.35	0.00485
3058	0.00372
3067.64	0.00342
3077.29	0.00295
3086.94	0.0027887
3096.58	0.0025109
3106.23	0.002277
3115.88	0.0020628
3125.52	0.0020518
3135.17	0.0018276
3144.82	0.0018459
3154.46	0.0018559
3164.11	0.00187246
3173.76	0.0020069
3183.4	0.0019823
3193.05	0.001668
3202.7	0.00177
3212.34	0.001753
3221.99	0.001541
3231.64	0.00132
3241.28	0.000941
3250.93	0.00071
3260.58	0.00057
3270.22	0.00052
3279.87	8e-05
3289.52	0.00018
3299.16	0.00032
3308.81	6e-05
3318.45	9e-05
3328.1	0.00025
3337.75	0.00026
3347.39	0.00046
3357.04	0.00061
3366.69	0.00084
3376.33	0.00044
3385.98	0.0006
3395.63	0.00029
3405.27	0.00052
3414.92	0.00025
3424.57	0.00038
3434.21	0.00056
3443.86	0.00071
3453.51	0.000979
3463.15	0.001441
3472.8	0.001756
3482.45	0.00196696
3492.09	0.001624
3501.74	0.001071
3511.39	0.00056
3521.03	0.00035
3530.68	0.00021
3540.33	0.00021
3549.97	0.00025
3559.62	7e-05
3569.26	0.00025
3578.91	1e-05
3588.56	0.00027
3598.2	0.00038
3607.85	0.00023
3617.5	0.00029
3627.14	0.0003
3636.79	0.0002
3646.44	0.00016
3656.08	0.00023
3665.73	0.00037
3675.38	0.00031
3685.02	0.00047
3694.67	0.00044
3704.32	0.00037
3713.96	0.00034
3723.61	0.00038
3733.26	0.00038
3742.9	0.00051
3752.55	0.0004
3762.2	0.00059
3771.84	0.00051
3781.49	0.00075
3791.13	0.00061
3800.78	0.00081
3810.43	0.00071
3820.07	0.00068
3829.72	0.00069
3839.37	0.00078
3849.01	0.00079
3858.66	0.000882
3868.31	0.00085
3877.95	0.0006
3887.6	0.00081
3897.25	0.00082
3906.89	0.00074
3916.54	0.00077
3926.19	0.00067
3935.83	0.00072
3945.48	0.00076
3955.13	0.00078
3964.77	0.00082
3974.42	0.000906
3984.07	0.00079
3993.71	0.000927
