Infrared Spectrum: 3-HYDROXY-4-METHYL-6-CHLORO-THIONAPHTHENE
Formula: C9 H7 Cl O S
CAS: 5340-96-5
State: SOLID (1.2% IN KBr PELLET)
Class: COBLENTZ
Instrument: Not specified, most likely a prism, grating, or hybrid spectrometer.
Sampling: TRANSMISSION
Path length: 0.0355 CM THICK
Resolution: 4
Origin: ANDERSON PHYSICAL LABORATORY
1/CM	TRANSMITTANCE
670.093	0.707
678.504	0.684
686.915	0.7289
695.327	0.755
703.738	0.78
712.149	0.783
720.56	0.777
728.972	0.776
737.383	0.771
745.794	0.768
754.205	0.767
762.617	0.762
771.028	0.744
779.439	0.708
787.85	0.651
796.261	0.617
804.673	0.585
813.084	0.629
821.495	0.539
829.906	0.548
838.318	0.681
846.729	0.672
855.14	0.552
863.551	0.591
871.963	0.615
880.374	0.617
888.785	0.623
897.196	0.645
905.608	0.665
914.019	0.723
922.43	0.752
930.841	0.728
939.252	0.776
947.664	0.782
956.075	0.764
964.486	0.744
972.897	0.714
981.309	0.678
989.72	0.629
998.131	0.587
1006.54	0.626
1014.95	0.656
1023.36	0.677
1031.78	0.647
1040.19	0.567
1048.6	0.5
1057.01	0.498
1065.42	0.593
1073.83	0.647
1082.24	0.603
1090.65	0.496
1099.07	0.3961
1107.48	0.3609
1115.89	0.5959
1124.3	0.62
1132.71	0.678
1141.12	0.698
1149.53	0.707
1157.94	0.696
1166.36	0.659
1174.77	0.608
1183.18	0.551
1191.59	0.5
1200	0.549
1208.41	0.567
1216.82	0.536
1225.23	0.49
1233.65	0.432
1242.06	0.39
1250.47	0.322
1258.88	0.367
1267.29	0.6049
1275.7	0.66
1284.11	0.671
1292.52	0.659
1300.94	0.626
1309.35	0.575
1317.76	0.657
1326.17	0.704
1334.58	0.702
1342.99	0.692
1351.4	0.686
1359.81	0.677
1368.23	0.656
1376.64	0.611
1385.05	0.5071
1393.46	0.444
1401.87	0.552
1410.28	0.597
1418.69	0.584
1427.1	0.552
1435.52	0.468
1443.93	0.429
1452.34	0.433
1460.75	0.5299
1469.16	0.621
1477.57	0.644
1485.98	0.647
1494.39	0.636
1502.81	0.6
1511.22	0.57
1519.63	0.524
1528.04	0.49
1536.45	0.435
1544.86	0.387
1553.27	0.286
1561.68	0.24
1570.09	0.18
1578.51	0.189
1586.92	0.226
1595.33	0.286
1603.74	0.6169
1612.15	0.705
1620.56	0.704
1628.97	0.654
1637.38	0.608
1645.8	0.486
1654.21	0.409
1662.62	0.415
1671.03	0.418
1679.44	0.426
1687.85	0.399
1696.26	0.354
1704.67	0.304
1713.09	0.283
1721.5	0.321
1729.91	0.381
1738.32	0.519
1746.73	0.695
1755.14	0.794
1763.55	0.819
1771.96	0.845
1780.38	0.858
1788.79	0.861
1797.2	0.885
1805.61	0.897
1814.02	0.894
1822.43	0.896
1830.84	0.893
1839.25	0.888
1847.67	0.884
1856.08	0.875
1864.49	0.863
1872.9	0.852
1881.31	0.846
1889.72	0.834
1898.13	0.83
1906.54	0.828
1914.96	0.828
1923.37	0.828
1931.78	0.827
1940.19	0.825
1948.6	0.822
1957.01	0.819
1965.42	0.812
1973.83	0.809
1982.25	0.803
1990.66	0.795
1999.07	0.792
2007.48	0.788
2015.89	0.786
2024.3	0.786
2032.71	0.7853
2041.12	0.785
2049.54	0.7842
2057.95	0.78
2066.36	0.7767
2074.77	0.7699
2083.18	0.7677
2091.59	0.7659
2100	0.765
2108.41	0.7609
2116.83	0.7574
2125.24	0.7554
2133.65	0.7496
2142.06	0.7469
2150.47	0.744
2158.88	0.7393
2167.29	0.737
2175.7	0.7349
2184.11	0.7317
2192.53	0.731
2200.94	0.731
2209.35	0.7308
2217.76	0.728
2226.17	0.726
2234.58	0.7221
2242.99	0.7187
2251.4	0.7136
2259.82	0.7085
2268.23	0.7041
2276.64	0.7016
2285.05	0.6986
2293.46	0.6954
2301.87	0.6807
2310.28	0.6706
2318.69	0.6668
2327.11	0.665
2335.52	0.663
2343.93	0.6598
2352.34	0.6566
2360.75	0.6533
2369.16	0.6512
2377.57	0.651
2385.98	0.651
2394.4	0.651
2402.81	0.6481
2411.22	0.6448
2419.63	0.6406
2428.04	0.638
2436.45	0.635
2444.86	0.6316
2453.27	0.6281
2461.69	0.6246
2470.1	0.62
2478.51	0.618
2486.92	0.617
2495.33	0.6155
2503.74	0.612
2512.15	0.6105
2520.56	0.608
2528.98	0.606
2537.39	0.605
2545.8	0.6027
2554.21	0.601
2562.62	0.599
2571.03	0.597
2579.44	0.5954
2587.85	0.593
2596.27	0.591
2604.68	0.5899
2613.09	0.588
2621.5	0.588
2629.91	0.588
2638.32	0.588
2646.73	0.588
2655.14	0.5859
2663.56	0.5842
2671.97	0.5807
2680.38	0.5743
2688.79	0.5724
2697.2	0.572
2705.61	0.5669
2714.02	0.5623
2722.43	0.5588
2730.85	0.5553
2739.26	0.5538
2747.67	0.549
2756.08	0.5449
2764.49	0.5373
2772.9	0.5339
2781.31	0.5306
2789.72	0.5287
2798.13	0.5252
2806.55	0.5207
2814.96	0.5186
2823.37	0.514
2831.78	0.5091
2840.19	0.5068
2848.6	0.504
2857.01	0.5017
2865.42	0.4981
2873.84	0.4946
2882.25	0.4911
2890.66	0.49
2899.07	0.4862
2907.48	0.4804
2915.89	0.4761
2924.3	0.4713
2932.71	0.468
2941.13	0.466
2949.54	0.4655
2957.95	0.465
2966.36	0.465
2974.77	0.466
2983.18	0.4685
2991.59	0.4705
3000	0.472
3008.42	0.468
3016.83	0.467
3025.24	0.466
3033.65	0.466
3042.06	0.459
3050.47	0.453
3058.88	0.4502
3067.29	0.45
3075.71	0.4515
3084.12	0.454
3092.53	0.4584
3100.94	0.46
3109.35	0.46
3117.76	0.46
3126.17	0.457
3134.58	0.456
3143	0.454
3151.41	0.4519
3159.82	0.451
3168.23	0.45
3176.64	0.45
3185.05	0.448
3193.46	0.448
3201.87	0.448
3210.29	0.448
3218.7	0.45
3227.11	0.4483
3235.52	0.4468
3243.93	0.4433
3252.34	0.442
3260.75	0.442
3269.16	0.441
3277.58	0.4402
3285.99	0.439
3294.4	0.4381
3302.81	0.439
3311.22	0.439
3319.63	0.4367
3328.04	0.433
3336.45	0.432
3344.87	0.4312
3353.28	0.4247
3361.69	0.4231
3370.1	0.4197
3378.51	0.418
3386.92	0.417
3395.33	0.4151
3403.74	0.415
3412.15	0.415
3420.57	0.4164
3428.98	0.418
3437.39	0.42
3445.8	0.42
3454.21	0.42
3462.62	0.42
3471.03	0.42
3479.44	0.422
3487.86	0.4255
3496.27	0.427
3504.68	0.4292
3513.09	0.43
3521.5	0.43
3529.91	0.433
3538.32	0.4403
3546.73	0.446
3555.15	0.4495
3563.56	0.451
3571.97	0.4546
3580.38	0.4565
3588.79	0.4598
3597.2	0.462
3605.61	0.465
3614.02	0.4671
3622.44	0.4688
3630.85	0.471
3639.26	0.4713
3647.67	0.4731
3656.08	0.474
3664.49	0.474
3672.9	0.472
3681.31	0.472
3689.73	0.4693
3698.14	0.466
3706.55	0.465
3714.96	0.463
3723.37	0.4603
3731.78	0.4587
3740.19	0.4536
3748.6	0.453
3757.02	0.4501
3765.43	0.448
3773.84	0.447
3782.25	0.445
3790.66	0.4441
3799.07	0.4419
3807.48	0.441
3815.89	0.441
3824.31	0.441
3832.72	0.441
3841.13	0.441
3849.54	0.441
3857.95	0.441
3866.36	0.439
3874.77	0.438
3883.18	0.436
3891.6	0.435
3900.01	0.435
3908.42	0.4341
3916.83	0.432
3925.24	0.432
3933.65	0.432
3942.06	0.432
3950.47	0.432
3958.89	0.43
3967.3	0.4298
3975.71	0.429
3984.12	0.429
3992.53	0.429
