Infrared Spectrum: 2,2-Dimethyl-3-octanone
Formula: C 10 H 20 O
CAS: 5340-64-7
State: gas
Instrument: HP-GC/MS/IRD
Origin: NIST Mass Spectrometry Data Center
1/CM	ABSORBANCE
550	0.0005969
562	0.0008319
574	0.0009353
586	0.0003196
598	0.0001504
610	4.7e-05
622	5.17e-05
634	0
646	0.0001739
658	0.0001598
670	0.000141
682	0.0001175
694	0.0001974
706	0.0003478
718	0.00047
730	0.0007661
742	0.0009541
754	0.0009118
766	0.0005922
778	0.0004418
790	0.0003713
802	0.0003102
814	0.0004324
826	0.0007097
838	0.0009729
850	0.0008695
862	0.0006063
874	0.0004982
886	0.0004653
898	0.0004888
910	0.0006016
922	0.000987
934	0.0016967
946	0.0019834
958	0.0025615
970	0.0033605
982	0.0039386
994	0.0045778
1006	0.0038352
1018	0.0026649
1030	0.0025239
1042	0.0037412
1054	0.0070829
1066	0.0072662
1078	0.004418
1090	0.0029281
1102	0.0029892
1114	0.0044039
1126	0.0041971
1138	0.0023923
1150	0.0013301
1162	0.0010246
1174	0.0010763
1186	0.0013677
1198	0.0018941
1210	0.0024769
1222	0.0022889
1234	0.0017296
1246	0.0013865
1258	0.0015557
1270	0.0017672
1282	0.0020069
1294	0.0023829
1306	0.0025427
1318	0.0025662
1330	0.0029516
1342	0.0041736
1354	0.0055554
1366	0.0072568
1378	0.0063544
1390	0.0053345
1402	0.0044556
1414	0.0029328
1426	0.0027542
1438	0.0033088
1450	0.0051559
1462	0.0073978
1474	0.0092543
1486	0.0073179
1498	0.0025897
1510	0.0012878
1522	0.0007896
1534	0.0005687
1546	0.0004418
1558	0.0003854
1570	0.0003196
1582	0.0003337
1594	0.0003102
1606	0.0003384
1618	0.0003854
1630	0.00047
1642	0.0006204
1654	0.0008742
1666	0.0014476
1678	0.0025004
1690	0.0051794
1702	0.0127558
1714	0.0233731
1726	0.0179916
1738	0.0057434
1750	0.0020116
1762	0.0010199
1774	0.0006016
1786	0.0004324
1798	0.0003337
1810	0.000282
1822	0.0002444
1834	0.0002021
1846	0.0001692
1858	0.0001598
1870	0.0001269
1882	0.0001222
1894	9.87e-05
1906	8.93e-05
1918	9.4e-05
1930	8.46e-05
1942	8.93e-05
1954	8.46e-05
1966	8.46e-05
1978	6.11e-05
1990	7.05e-05
2002	6.58e-05
2014	5.17e-05
2026	7.05e-05
2038	7.05e-05
2050	7.52e-05
2062	7.05e-05
2074	6.11e-05
2086	4.7e-05
2098	4.23e-05
2110	4.7e-05
2122	5.17e-05
2134	4.7e-05
2146	4.7e-05
2158	6.11e-05
2170	5.64e-05
2182	7.52e-05
2194	6.58e-05
2206	5.64e-05
2218	5.17e-05
2230	1.41e-05
2242	2.35e-05
2254	2.82e-05
2266	3.29e-05
2278	4.23e-05
2290	5.64e-05
2302	7.52e-05
2314	5.64e-05
2326	3.76e-05
2338	9.4e-06
2350	2.35e-05
2362	9.4e-06
2374	4.23e-05
2386	5.17e-05
2398	7.05e-05
2410	5.64e-05
2422	7.05e-05
2434	4.23e-05
2446	5.17e-05
2458	4.7e-05
2470	3.76e-05
2482	2.82e-05
2494	1.88e-05
2506	2.35e-05
2518	4.23e-05
2530	4.23e-05
2542	7.05e-05
2554	7.52e-05
2566	0.0001269
2578	0.0001222
2590	0.0001175
2602	0.0001504
2614	0.0001645
2626	0.0002256
2638	0.0002303
2650	0.0002632
2662	0.0003055
2674	0.0003713
2686	0.0003948
2698	0.0004089
2710	0.0004794
2722	0.0005593
2734	0.0006768
2746	0.0007332
2758	0.0007473
2770	0.000799
2782	0.0009729
2794	0.0012267
2806	0.0015745
2818	0.0020586
2830	0.0027777
2842	0.0042864
2854	0.0078584
2866	0.0133057
2878	0.0170892
2890	0.0167931
2902	0.0174229
2914	0.0224143
2926	0.0287546
2938	0.0338494
2950	0.0356166
2962	0.044274
2974	0.0434092
2986	0.0234107
2998	0.010387
3010	0.0047564
3022	0.0027213
3034	0.0018612
3046	0.0014053
3058	0.0011139
3070	0.0010011
3082	0.0009024
3094	0.0008413
3106	0.0007708
3118	0.000658
3130	0.0006251
3142	0.0006063
3154	0.0005687
3166	0.0005687
3178	0.000564
3190	0.0005217
3202	0.0004418
3214	0.0004042
3226	0.0002961
3238	0.0002585
3250	0.0001974
3262	0.0001598
3274	0.0001128
3286	9.87e-05
3298	8.93e-05
3310	0.0001034
3322	0.0001175
3334	0.0001504
3346	0.000141
3358	0.0001504
3370	0.0001739
3382	0.0001833
3394	0.000282
3406	0.000423
3418	0.0004747
3430	0.0003055
3442	0.0001598
3454	7.99e-05
3466	5.17e-05
3478	4.7e-05
3490	3.76e-05
3502	2.35e-05
3514	1.41e-05
3526	6.11e-05
3538	1.41e-05
3550	9.4e-06
3562	2.82e-05
3574	4.7e-05
3586	3.29e-05
3598	1.88e-05
3610	1.41e-05
3622	3.76e-05
3634	2.82e-05
3646	6.58e-05
3658	4.7e-05
3670	1.41e-05
3682	3.76e-05
3694	5.64e-05
3706	3.76e-05
3718	3.76e-05
3730	2.35e-05
3742	5.17e-05
3754	5.64e-05
3766	8.46e-05
3778	7.99e-05
3790	7.99e-05
3802	6.11e-05
3814	7.99e-05
3826	7.99e-05
3838	8.93e-05
