Infrared Spectrum: 3-Hydroxy-2-naphthoic acid, hydrazide
Formula: C11 H10 N2 O2
CAS: 5341-58-2
State: SOLID (SPLIT MULL), FLUOROLUBE FOR 3800-1330 CM^-^1, NUJOL FOR 1330-400 CM^-^1
Class: COBLENTZ III
Instrument: DOW KBr FOREPRISM-GRATING
Instrument parameters: BLAZED AT 3.5, 12.0, 20.0 MICRON AND CHANGED AT 5.0, 7.5, 14.9 MICRON
Sampling: TRANSMISSION
Resolution: 2
Origin: DOW CHEMICAL COMPANY
1/CM	TRANSMITTANCE
381	0.8958
390	0.8973
399	0.8948
408	0.8856
417	0.8654
426	0.7833
435	0.8442
444	0.8268
453	0.7324
462	0.8866
471	0.8308
480	0.7528
489	0.7543
498	0.8874
507	0.8871
516	0.874
525	0.8507
534	0.8058
543	0.7403
552	0.8146
561	0.7794
570	0.7104
579	0.4508
588	0.4851
597	0.606
606	0.529
615	0.4742
624	0.5115
633	0.5742
642	0.658
651	0.7272
660	0.7892
669	0.8337
678	0.8387
687	0.8277
696	0.7975
705	0.7734
714	0.7668
723	0.7441
732	0.7522
741	0.0725
750	0.6599
759	0.7669
768	0.8015
777	0.7728
786	0.8076
795	0.6373
804	0.8158
813	0.8444
822	0.8523
831	0.8478
840	0.8364
849	0.8014
858	0.636
867	0.7672
876	0.3199
885	0.7357
894	0.8153
903	0.8264
912	0.7998
921	0.6537
930	0.8202
939	0.8182
948	0.6761
957	0.7997
966	0.8033
975	0.7962
984	0.7908
993	0.7731
1002	0.7068
1011	0.5142
1020	0.5481
1029	0.7141
1038	0.7428
1047	0.7046
1056	0.5001
1065	0.7014
1074	0.7343
1083	0.7395
1092	0.7367
1101	0.7249
1110	0.6705
1119	0.3652
1128	0.6872
1137	0.7048
1146	0.5744
1155	0.154
1164	0.4739
1173	0.4788
1182	0.6469
1191	0.6672
1200	0.6251
1209	0.4851
1218	0.3892
1227	0.6167
1236	0.4291
1245	0.6418
1254	0.6002
1263	0.6346
1272	0.611
1281	0.7219
1290	0.7274
1299	0.7128
1308	0.6671
1317	0.5578
1326	0.6467
1335	0.6134
1344	0.3163
1353	0.3054
1362	0.4196
1371	0.6388
1380	0.6017
1389	0.3684
1398	0.6266
1407	0.6917
1416	0.6918
1425	0.6935
1434	0.6843
1443	0.6611
1452	0.5444
1461	0.6428
1470	0.6003
1479	0.6383
1488	0.601
1497	0.5268
1506	0.4132
1515	0.3729
1524	0.4502
1533	0.3906
1542	0.3102
1551	0.4671
1560	0.4388
1569	0.3794
1578	0.4224
1587	0.241
1596	0.1518
1605	0.1734
1614	0.5589
1623	0.5716
1632	0.3604
1641	0.3928
1650	0.2584
1659	0.0517
1668	0.2798
1677	0.7478
1686	0.8654
1695	0.8951
1704	0.8901
1713	0.8821
1722	0.8714
1731	0.8643
1740	0.8635
1749	0.8534
1758	0.849
1767	0.8432
1776	0.8395
1785	0.8317
1794	0.8198
1803	0.8143
1812	0.8135
1821	0.8082
1830	0.7935
1839	0.7915
1848	0.7975
1857	0.7974
1866	0.7917
1875	0.7875
1884	0.7848
1893	0.781
1902	0.7768
1911	0.7726
1920	0.768
1929	0.7638
1938	0.7636
1947	0.7654
1956	0.7675
1965	0.7678
1974	0.7568
1983	0.7567
1992	0.7675
2001	0.7718
2010	0.7694
2019	0.7665
2028	0.7634
2037	0.7595
2046	0.7555
2055	0.7515
2064	0.7472
2073	0.7426
2082	0.7381
2091	0.7334
2100	0.7287
2109	0.7242
2118	0.7203
2127	0.7164
2136	0.7125
2145	0.7085
2154	0.7045
2163	0.7004
2172	0.6962
2181	0.6907
2190	0.6851
2199	0.6796
2208	0.6744
2217	0.6691
2226	0.6638
2235	0.6583
2244	0.6524
2253	0.6462
2262	0.6404
2271	0.635
2280	0.6299
2289	0.6248
2298	0.6199
2307	0.6149
2316	0.61
2325	0.606
2334	0.6022
2343	0.5991
2352	0.5962
2361	0.5945
2370	0.5936
2379	0.5927
2388	0.5919
2397	0.5902
2406	0.5868
2415	0.5834
2424	0.5788
2433	0.5784
2442	0.5774
2451	0.5762
2460	0.5738
2469	0.5709
2478	0.5662
2487	0.5616
2496	0.5558
2505	0.5502
2514	0.5447
2523	0.5414
2532	0.54
2541	0.5431
2550	0.5442
2559	0.5436
2568	0.5417
2577	0.5381
2586	0.5343
2595	0.5298
2604	0.5251
2613	0.5204
2622	0.5154
2631	0.5103
2640	0.5055
2649	0.5008
2658	0.4964
2667	0.4939
2676	0.4917
2685	0.4912
2694	0.4899
2703	0.4847
2712	0.4803
2721	0.4775
2730	0.4762
2739	0.4748
2748	0.4712
2757	0.4674
2766	0.4635
2775	0.4583
2784	0.4532
2793	0.448
2802	0.4432
2811	0.4383
2820	0.4335
2829	0.4286
2838	0.4235
2847	0.4183
2856	0.4132
2865	0.4073
2874	0.4012
2883	0.3954
2892	0.39
2901	0.3847
2910	0.378
2919	0.37
2928	0.3607
2937	0.3542
2946	0.3494
2955	0.345
2964	0.3414
2973	0.335
2982	0.3284
2991	0.3185
3000	0.3085
3009	0.2999
3018	0.2913
3027	0.2821
3036	0.2728
3045	0.2622
3054	0.2401
3063	0.2435
3072	0.2401
3081	0.2308
3090	0.2191
3099	0.2062
3108	0.1928
3117	0.1791
3126	0.1676
3135	0.1557
3144	0.1431
3153	0.13
3162	0.1173
3171	0.1095
3180	0.1106
3189	0.1142
3198	0.1198
3207	0.1265
3216	0.1376
3225	0.1545
3234	0.1824
3243	0.2049
3252	0.2197
3261	0.2216
3270	0.2051
3279	0.1327
3288	0.0661
3297	0.0854
3306	0.283
3315	0.3502
3324	0.3934
3333	0.4288
3342	0.4666
3351	0.4919
3360	0.5001
3369	0.4996
3378	0.4968
3387	0.4988
3396	0.5103
3405	0.5222
3414	0.5293
3423	0.5292
3432	0.526
3441	0.5216
3450	0.5162
3459	0.5108
3468	0.5053
3477	0.5005
3486	0.4958
3495	0.491
3504	0.4862
3513	0.4816
3522	0.4781
3531	0.4748
3540	0.4715
3549	0.4679
3558	0.4643
3567	0.4608
3576	0.4584
3585	0.4559
3594	0.4535
3603	0.4512
3612	0.4491
3621	0.4469
3630	0.4447
3639	0.4425
3648	0.4403
3657	0.438
3666	0.4352
3675	0.4324
3684	0.4296
3693	0.4267
3702	0.424
3711	0.4217
3720	0.4195
3729	0.4172
3738	0.415
3747	0.4128
3756	0.411
3765	0.4094
3774	0.4077
3783	0.4058
3792	0.4039
