Infrared Spectrum: Hydrazine dihydrochloride
Formula: H6 Cl2 N2
CAS: 5341-61-7
State: SOLID (SPLIT MULL), FLUOROLUBE FOR 3800-1330 CM^-^1, NUJOL FOR 1330-400 CM^-^1
Class: COBLENTZ II
Instrument: DOW KBr FOREPRISM-GRATING
Instrument parameters: BLAZED AT 3.5, 12.0, 20.0 MICRON AND CHANGED AT 5.0, 7.5, 14.9 MICRON
Sampling: TRANSMISSION
Resolution: 2
Origin: DOW CHEMICAL COMPANY
1/CM	TRANSMITTANCE
452	0.7889
461	0.7918
470	0.7968
479	0.8124
488	0.8224
497	0.8278
506	0.8331
515	0.8377
524	0.8405
533	0.8424
542	0.8439
551	0.8459
560	0.8478
569	0.8495
578	0.8496
587	0.8492
596	0.8488
605	0.8483
614	0.8477
623	0.8471
632	0.8465
641	0.8461
650	0.8449
659	0.8434
668	0.8333
677	0.8212
686	0.8199
695	0.818
704	0.8137
713	0.7981
722	0.7622
731	0.7853
740	0.8025
749	0.8108
758	0.8122
767	0.8121
776	0.8141
785	0.8171
794	0.8168
803	0.8155
812	0.8148
821	0.8115
830	0.8075
839	0.8028
848	0.8003
857	0.8018
866	0.8048
875	0.8053
884	0.8049
893	0.806
902	0.811
911	0.8115
920	0.8064
929	0.8024
938	0.7992
947	0.7962
956	0.7914
965	0.7861
974	0.7834
983	0.779
992	0.7622
1001	0.7438
1010	0.7468
1019	0.7495
1028	0.7514
1037	0.7478
1046	0.7364
1055	0.7183
1064	0.6785
1073	0.5996
1082	0.4439
1091	0.1284
1100	0.0736
1109	0.4564
1118	0.6686
1127	0.7115
1136	0.733
1145	0.7522
1154	0.7587
1163	0.7619
1172	0.7601
1181	0.7584
1190	0.7712
1199	0.7718
1208	0.7734
1217	0.7751
1226	0.7808
1235	0.7778
1244	0.7735
1253	0.7701
1262	0.7684
1271	0.7674
1280	0.7661
1289	0.7635
1298	0.7597
1307	0.7603
1316	0.7607
1325	0.7601
1334	0.7511
1343	0.7403
1352	0.7651
1361	0.7747
1370	0.7735
1379	0.7718
1388	0.7615
1397	0.7514
1406	0.7511
1415	0.7611
1424	0.7689
1433	0.7606
1442	0.7438
1451	0.7061
1460	0.6782
1469	0.6446
1478	0.5249
1487	0.3749
1496	0.7074
1505	0.7406
1514	0.7924
1523	0.8015
1532	0.7804
1541	0.7658
1550	0.8048
1559	0.7974
1568	0.7917
1577	0.7974
1586	0.7982
1595	0.7965
1604	0.7899
1613	0.7848
1622	0.7884
1631	0.7995
1640	0.8028
1649	0.8011
1658	0.7945
1667	0.7901
1676	0.7855
1685	0.7825
1694	0.7825
1703	0.7817
1712	0.7741
1721	0.7699
1730	0.7684
1739	0.7646
1748	0.7606
1757	0.7542
1766	0.7419
1775	0.7274
1784	0.7111
1793	0.6935
1802	0.685
1811	0.6471
1820	0.6458
1829	0.7283
1838	0.7682
1847	0.7768
1856	0.7724
1865	0.7665
1874	0.7596
1883	0.7462
1892	0.7242
1901	0.6911
1910	0.6545
1919	0.6007
1928	0.5484
1937	0.497
1946	0.4338
1955	0.586
1964	0.7325
1973	0.7721
1982	0.7747
1991	0.7637
2000	0.768
2009	0.7481
2018	0.728
2027	0.7041
2036	0.6751
2045	0.6444
2054	0.6137
2063	0.5782
2072	0.5686
2081	0.6338
2090	0.7094
2099	0.7256
2108	0.7093
2117	0.7275
2126	0.731
2135	0.7198
2144	0.7072
2153	0.696
2162	0.6848
2171	0.6741
2180	0.6671
2189	0.6601
2198	0.6517
2207	0.6384
2216	0.6257
2225	0.6141
2234	0.6024
2243	0.5894
2252	0.5762
2261	0.5635
2270	0.5499
2279	0.5354
2288	0.5209
2297	0.5065
2306	0.4914
2315	0.4762
2324	0.462
2333	0.4483
2342	0.4339
2351	0.4152
2360	0.3941
2369	0.371
2378	0.3434
2387	0.3197
2396	0.2934
2405	0.2906
2414	0.2865
2423	0.2761
2432	0.2657
2441	0.2531
2450	0.2308
2459	0.1906
2468	0.1734
2477	0.1598
2486	0.1452
2495	0.1315
2504	0.1185
2513	0.1046
2522	0.0904
2531	0.0762
2540	0.0651
2549	0.0588
2558	0.0567
2567	0.0574
2576	0.0627
2585	0.0836
2594	0.1155
2603	0.1981
2612	0.1941
2621	0.1494
2630	0.1048
2639	0.0743
2648	0.078
2657	0.1075
2666	0.1568
2675	0.1912
2684	0.1726
2693	0.1299
2702	0.0872
2711	0.0703
2720	0.0722
2729	0.08
2738	0.0911
2747	0.1049
2756	0.1191
2765	0.1313
2774	0.1496
2783	0.1779
2792	0.2182
2801	0.2634
2810	0.3246
2819	0.3076
2828	0.2359
2837	0.1882
2846	0.2133
2855	0.2907
2864	0.3447
2873	0.3078
2882	0.2122
2891	0.1783
2900	0.182
2909	0.2099
2918	0.2318
2927	0.2446
2936	0.2556
2945	0.2642
2954	0.2712
2963	0.2823
2972	0.3133
2981	0.3375
2990	0.3737
2999	0.4136
3008	0.4523
3017	0.4881
3026	0.517
3035	0.5446
3044	0.5766
3053	0.6036
3062	0.6165
3071	0.6234
3080	0.6485
3089	0.6835
3098	0.6986
3107	0.7075
3116	0.713
3125	0.7261
3134	0.7465
3143	0.765
3152	0.7798
3161	0.791
3170	0.7998
3179	0.8065
3188	0.8119
3197	0.8207
3206	0.8288
3215	0.8384
3224	0.8461
3233	0.8504
3242	0.8546
3251	0.858
3260	0.8596
3269	0.8609
3278	0.8618
3287	0.862
3296	0.8618
3305	0.8613
3314	0.8607
3323	0.86
3332	0.8594
3341	0.8589
3350	0.8585
3359	0.8577
3368	0.8568
3377	0.8561
3386	0.8554
3395	0.8546
3404	0.8537
3413	0.8527
3422	0.8525
3431	0.8523
3440	0.8535
3449	0.8548
3458	0.8562
3467	0.8574
3476	0.8587
3485	0.8604
3494	0.8621
3503	0.8631
3512	0.864
3521	0.8645
3530	0.865
3539	0.8655
3548	0.8661
3557	0.8666
3566	0.8671
3575	0.8668
3584	0.8659
3593	0.8647
3602	0.8624
3611	0.8614
3620	0.8614
3629	0.8618
3638	0.8621
3647	0.8624
3656	0.8624
3665	0.8607
3674	0.858
3683	0.8564
3692	0.8552
3701	0.8543
3710	0.8535
3719	0.8525
3728	0.8515
3737	0.8505
3746	0.8489
3755	0.8471
3764	0.8452
3773	0.8424
3782	0.839
3791	0.8428
3800	0.8398
