Infrared Spectrum: AMINE, DIFURFURYL, OCTAHYDRO-
Formula: C10 H19 N O2
CAS: 5343-16-8
State: LIQUID (NEAT)
Class: COBLENTZ III
Instrument: DOW KBr FOREPRISM-GRATING
Instrument parameters: BLAZED AT 3.5, 12.0, 20.0 MICRON AND CHANGED AT 5.0, 7.5, 14.9 MICRON
Sampling: TRANSMISSION
Path length: CAPILLARY
Resolution: 2
Origin: DOW CHEMICAL COMPANY
1/CM	TRANSMITTANCE
466	0.934
475	0.9342
484	0.9337
493	0.9314
502	0.9277
511	0.9288
520	0.9387
529	0.9509
538	0.9595
547	0.9639
556	0.962
565	0.9559
574	0.9473
583	0.9351
592	0.9243
601	0.9191
610	0.9201
619	0.9216
628	0.9166
637	0.9084
646	0.8992
655	0.8896
664	0.885
673	0.8835
682	0.8812
691	0.8746
700	0.8657
709	0.8528
718	0.8287
727	0.8033
736	0.7796
745	0.7562
754	0.7312
763	0.7114
772	0.6961
781	0.6865
790	0.6803
799	0.6842
808	0.6951
817	0.6958
826	0.7035
835	0.7011
844	0.6851
853	0.6584
862	0.6418
871	0.637
880	0.6382
889	0.7074
898	0.7494
907	0.7162
916	0.6461
925	0.637
934	0.7076
943	0.7544
952	0.7857
961	0.7993
970	0.7811
979	0.7425
988	0.7244
997	0.7191
1006	0.6501
1015	0.5845
1024	0.5512
1033	0.4551
1042	0.4404
1051	0.2284
1060	0.098
1069	0.0779
1078	0.1585
1087	0.2849
1096	0.4112
1105	0.5377
1114	0.6357
1123	0.6246
1132	0.5406
1141	0.5999
1150	0.6975
1159	0.7785
1168	0.7536
1177	0.7117
1186	0.7183
1195	0.78
1204	0.8246
1213	0.8171
1222	0.8145
1231	0.8193
1240	0.8252
1249	0.8336
1258	0.8221
1267	0.8012
1276	0.7905
1285	0.7896
1294	0.7908
1303	0.7978
1312	0.819
1321	0.8343
1330	0.8488
1339	0.8596
1348	0.8411
1357	0.7558
1366	0.773
1375	0.7805
1384	0.8298
1393	0.857
1402	0.8674
1411	0.8691
1420	0.8537
1429	0.7775
1438	0.6062
1447	0.4452
1456	0.3792
1465	0.4524
1474	0.7039
1483	0.7846
1492	0.8364
1501	0.8745
1510	0.8998
1519	0.9116
1528	0.9162
1537	0.9208
1546	0.9234
1555	0.9255
1564	0.9274
1573	0.9292
1582	0.9302
1591	0.9288
1600	0.9242
1609	0.9168
1618	0.9062
1627	0.8906
1636	0.8733
1645	0.8537
1654	0.8337
1663	0.8093
1672	0.7744
1681	0.7571
1690	0.8393
1699	0.8833
1708	0.9157
1717	0.924
1726	0.9291
1735	0.9311
1744	0.9327
1753	0.94
1762	0.9389
1771	0.9358
1780	0.933
1789	0.938
1798	0.9418
1807	0.9446
1816	0.9445
1825	0.9436
1834	0.9428
1843	0.942
1852	0.941
1861	0.9395
1870	0.9371
1879	0.9347
1888	0.9335
1897	0.9333
1906	0.9333
1915	0.9337
1924	0.9341
1933	0.9352
1942	0.9366
1951	0.9375
1960	0.938
1969	0.9382
1978	0.9374
1987	0.9368
1996	0.9362
2005	0.9415
2014	0.9471
2023	0.9528
2032	0.9534
2041	0.9533
2050	0.953
2059	0.9527
2068	0.9518
2077	0.951
2086	0.9501
2095	0.9493
2104	0.9485
2113	0.9475
2122	0.9471
2131	0.9466
2140	0.9462
2149	0.9455
2158	0.9445
2167	0.9435
2176	0.9421
2185	0.9403
2194	0.9385
2203	0.9367
2212	0.9361
2221	0.9355
2230	0.9351
2239	0.9347
2248	0.9343
2257	0.9335
2266	0.9327
2275	0.9318
2284	0.9311
2293	0.9304
2302	0.9293
2311	0.9283
2320	0.9275
2329	0.9268
2338	0.9261
2347	0.9251
2356	0.9242
2365	0.9232
2374	0.9221
2383	0.9212
2392	0.9202
2401	0.9191
2410	0.9181
2419	0.9171
2428	0.9163
2437	0.9155
2446	0.9147
2455	0.9138
2464	0.9132
2473	0.9125
2482	0.9118
2491	0.9104
2500	0.9088
2509	0.9071
2518	0.9053
2527	0.902
2536	0.8988
2545	0.8956
2554	0.8917
2563	0.8875
2572	0.8831
2581	0.8786
2590	0.8741
2599	0.8697
2608	0.8653
2617	0.8601
2626	0.8542
2635	0.8482
2644	0.8423
2653	0.8362
2662	0.829
2671	0.8216
2680	0.8142
2689	0.8068
2698	0.7993
2707	0.7912
2716	0.7831
2725	0.7746
2734	0.7608
2743	0.7415
2752	0.723
2761	0.7043
2770	0.6838
2779	0.6612
2788	0.619
2797	0.563
2806	0.5014
2815	0.3309
2824	0.2852
2833	0.2534
2842	0.2045
2851	0.1554
2860	0.1315
2869	0.1182
2878	0.1228
2887	0.1845
2896	0.2171
2905	0.2152
2914	0.2076
2923	0.194
2932	0.1808
2941	0.1702
2950	0.162
2959	0.1537
2968	0.1445
2977	0.2262
2986	0.3992
2995	0.5722
3004	0.6905
3013	0.7385
3022	0.7717
3031	0.7928
3040	0.8057
3049	0.8131
3058	0.8175
3067	0.8195
3076	0.8203
3085	0.8204
3094	0.8198
3103	0.8182
3112	0.8167
3121	0.8145
3130	0.8122
3139	0.8096
3148	0.8061
3157	0.8025
3166	0.7989
3175	0.7951
3184	0.7912
3193	0.7871
3202	0.7831
3211	0.7794
3220	0.7758
3229	0.7721
3238	0.7686
3247	0.7649
3256	0.7615
3265	0.7584
3274	0.7553
3283	0.7518
3292	0.7428
3301	0.7278
3310	0.7068
3319	0.6907
3328	0.6768
3337	0.685
3346	0.7151
3355	0.7265
3364	0.7385
3373	0.7464
3382	0.7511
3391	0.7539
3400	0.7557
3409	0.7558
3418	0.7549
3427	0.7543
3436	0.7522
3445	0.7501
3454	0.748
3463	0.7458
3472	0.7443
3481	0.743
3490	0.7421
3499	0.7415
3508	0.7433
3517	0.7453
3526	0.7475
3535	0.7508
3544	0.7545
3553	0.7598
3562	0.7681
3571	0.7792
3580	0.7907
3589	0.8032
3598	0.8158
3607	0.8282
3616	0.8375
3625	0.8465
3634	0.8535
3643	0.857
3652	0.8599
3661	0.8628
3670	0.8657
3679	0.8675
3688	0.8693
3697	0.871
3706	0.8725
3715	0.874
3724	0.8741
3733	0.8731
3742	0.8709
3751	0.8682
3760	0.8653
3769	0.8658
3778	0.8678
3787	0.8678
3796	0.8675
