Infrared Spectrum: 4-Bromo-3-nitroanisole
Formula: C 7 H 6 Br N O 3
CAS: 5344-78-5
State: gas
Origin: EPA-IR VAPOR PHASE LIBRARY
1/CM	ABSORBANCE
549.9	0.00585
559.547	0.00658
569.193	0.00917
578.84	0.01452
588.486	0.01659
598.133	0.01707
607.779	0.01602
617.426	0.01464
627.072	0.01253
636.719	0.0107
646.365	0.0093
656.012	0.00772
665.658	0.01101
675.305	0.01188
684.951	0.0073
694.598	0.0057
704.245	0.00396
713.891	0.0031839
723.538	0.0033744
733.184	0.0042
742.831	0.00554
752.477	0.00632
762.124	0.00539
771.77	0.00662
781.417	0.01106
791.063	0.03922
800.71	0.07793
810.356	0.05243
820.003	0.035
829.649	0.01504
839.296	0.01001
848.943	0.01718
858.589	0.01903
868.236	0.01801
877.882	0.01637
887.529	0.00914
897.175	0.00771
906.822	0.0104
916.468	0.00782
926.115	0.00407
935.761	0.0036431
945.408	0.003535
955.054	0.00381
964.701	0.00449
974.347	0.00561
983.994	0.00714
993.64	0.00961
1003.29	0.01553
1012.93	0.04189
1022.58	0.07807
1032.23	0.04156
1041.87	0.03446
1051.52	0.04192
1061.17	0.02943
1070.81	0.01402
1080.46	0.00987
1090.11	0.0112
1099.75	0.01925
1109.4	0.04151
1119.05	0.04051
1128.69	0.01779
1138.34	0.01556
1147.99	0.0132
1157.63	0.00999
1167.28	0.00958
1176.92	0.01283
1186.57	0.01574
1196.22	0.01266
1205.86	0.01522
1215.51	0.03169
1225.16	0.09451
1234.8	0.12043
1244.45	0.05263
1254.1	0.05413
1263.74	0.09536
1273.39	0.11522
1283.04	0.13769
1292.68	0.16472
1302.33	0.11778
1311.98	0.06147
1321.62	0.0382
1331.27	0.0374
1340.92	0.05576
1350.56	0.10049
1360.21	0.12238
1369.86	0.06357
1379.5	0.02529
1389.15	0.02087
1398.79	0.02421
1408.44	0.02593
1418.09	0.0238
1427.73	0.02629
1437.38	0.04257
1447.03	0.05671
1456.67	0.04973
1466.32	0.09009
1475.97	0.18112
1485.61	0.14384
1495.26	0.0558
1504.91	0.04837
1514.55	0.0601
1524.2	0.08684
1533.85	0.1207
1543.49	0.17378
1553.14	0.25133
1562.79	0.2044
1572.43	0.14544
1582.08	0.11299
1591.73	0.06701
1601.37	0.05501
1611.02	0.04242
1620.67	0.02172
1630.31	0.01253
1639.96	0.00947
1649.6	0.00746
1659.25	0.00616
1668.9	0.00577
1678.54	0.00546
1688.19	0.00511
1697.84	0.00478
1707.48	0.00425
1717.13	0.00385
1726.78	0.0036031
1736.42	0.00367
1746.07	0.00368
1755.72	0.0035285
1765.36	0.003355
1775.01	0.00270983
1784.66	0.002377
1794.3	0.002356
1803.95	0.00266481
1813.6	0.00272815
1823.24	0.00265441
1832.89	0.00271985
1842.54	0.0030303
1852.18	0.0031542
1861.83	0.0034429
1871.47	0.0036522
1881.12	0.00378
1890.77	0.00433
1900.41	0.00447
1910.06	0.0034583
1919.71	0.00273721
1929.35	0.002516
1939	0.00265514
1948.65	0.0028998
1958.29	0.0031968
1967.94	0.0029127
1977.59	0.002234
1987.23	0.001936
1996.88	0.001846
2006.53	0.001997
2016.17	0.002426
2025.82	0.0031957
2035.47	0.0035075
2045.11	0.0032076
2054.76	0.0034152
2064.41	0.00387
2074.05	0.00393
2083.7	0.0036184
2093.35	0.0032316
2102.99	0.00269906
2112.64	0.002175
2122.28	0.001866
2131.93	0.00193
2141.58	0.002379
2151.22	0.002468
2160.87	0.002085
2170.52	0.001969
2180.16	0.002103
2189.81	0.002208
2199.46	0.002223
2209.1	0.001972
2218.75	0.001892
2228.4	0.001765
2238.04	0.0016
2247.69	0.00159
2257.34	0.001675
2266.98	0.001824
2276.63	0.001973
2286.28	0.001926
2295.92	0.001735
2305.57	0.00164
2315.22	0.001671
2324.86	0.001689
2334.51	0.001738
2344.16	0.001874
2353.8	0.001854
2363.45	0.001852
2373.09	0.001982
2382.74	0.002154
2392.39	0.002276
2402.03	0.002153
2411.68	0.001904
2421.33	0.00156
2430.97	0.00147
2440.62	0.00155
2450.27	0.001858
2459.91	0.002021
2469.56	0.001975
2479.21	0.001832
2488.85	0.001939
2498.5	0.002186
2508.15	0.0026142
2517.79	0.0032545
2527.44	0.0035405
2537.09	0.0031846
2546.73	0.0029032
2556.38	0.0028244
2566.03	0.0026348
2575.67	0.00243
2585.32	0.002118
2594.96	0.001992
2604.61	0.001984
2614.26	0.001802
2623.9	0.001942
2633.55	0.001945
2643.2	0.002033
2652.84	0.002038
2662.49	0.001881
2672.14	0.001767
2681.78	0.001853
2691.43	0.002027
2701.08	0.002319
2710.72	0.002425
2720.37	0.002123
2730.02	0.001825
2739.66	0.001801
2749.31	0.00191
2758.96	0.00198
2768.6	0.002204
2778.25	0.00241
2787.9	0.0027633
2797.54	0.0034101
2807.19	0.00393
2816.84	0.00477
2826.48	0.00652
2836.13	0.01064
2845.77	0.01907
2855.42	0.01972
2865.07	0.01205
2874.71	0.00893
2884.36	0.00913
2894.01	0.01162
2903.65	0.01535
2913.3	0.01607
2922.95	0.01513
2932.59	0.01595
2942.24	0.02596
2951.89	0.03311
2961.53	0.02733
2971.18	0.02298
2980.83	0.01448
2990.47	0.00966
3000.12	0.01008
3009.77	0.01769
3019.41	0.02599
3029.06	0.01274
3038.71	0.00548
3048.35	0.00397
3058	0.0033483
3067.64	0.0035869
3077.29	0.00551
3086.94	0.00701
3096.58	0.0051
3106.23	0.0032246
3115.88	0.001925
3125.52	0.00157
3135.17	0.00137
3144.82	0.00124
3154.46	0.0009
3164.11	0.00084
3173.76	0.00072
3183.4	0.00061
3193.05	0.00044
3202.7	0.00043
3212.34	0.0003
3221.99	0.00033
3231.64	0.00016
3241.28	6e-05
3250.93	9e-05
3260.58	0
3270.22	0.00019
3279.87	0.00015
3289.52	3e-05
3299.16	0.00013
3308.81	0.00024
3318.45	0.00019
3328.1	0.00024
3337.75	0.00038
3347.39	0.00034
3357.04	0.00028
3366.69	0.00031
3376.33	0.0004
3385.98	0.00053
3395.63	0.00038
3405.27	0.0005
3414.92	0.00041
3424.57	0.00059
3434.21	0.00068
3443.86	0.00075
3453.51	0.00077
3463.15	0.00091
3472.8	0.00084
3482.45	0.00088
3492.09	0.00098
3501.74	0.00074
3511.39	0.00098
3521.03	0.00103
3530.68	0.00099
3540.33	0.00097
3549.97	0.00111
3559.62	0.00114
3569.26	0.00117
3578.91	0.00101
3588.56	0.0013
3598.2	0.00123
3607.85	0.00122
3617.5	0.00122
3627.14	0.0011
3636.79	0.00114
3646.44	0.00127
3656.08	0.00142
3665.73	0.00126
3675.38	0.00114
3685.02	0.00137
3694.67	0.00131
3704.32	0.00146
3713.96	0.00146
3723.61	0.00131
3733.26	0.00143
3742.9	0.00154
3752.55	0.00165
3762.2	0.00156
3771.84	0.00155
3781.49	0.00154
3791.13	0.00141
3800.78	0.00137
3810.43	0.00127
3820.07	0.00134
3829.72	0.00144
3839.37	0.00147
3849.01	0.00142
3858.66	0.00154
3868.31	0.0016
3877.95	0.00159
3887.6	0.00157
3897.25	0.00159
3906.89	0.00151
3916.54	0.00145
3926.19	0.00157
3935.83	0.0016
3945.48	0.00161
3955.13	0.00157
3964.77	0.00158
3974.42	0.0016
3984.07	0.00162
3993.71	0.001737
