Infrared Spectrum: Benzil monohydrazone
Formula: C 14 H 12 N 2 O
CAS: 5344-88-7
State: gas
Instrument: HP-GC/MS/IRD
Origin: NIST Mass Spectrometry Data Center
1/CM	ABSORBANCE
550	0.0010776
562	0.0012024
574	0.0015468
586	0.0020088
598	0.0026748
610	0.0034896
622	0.0046032
634	0.0044112
646	0.0043236
658	0.0065556
670	0.0071064
682	0.0076404
694	0.012
706	0.0090084
718	0.0063588
730	0.0057972
742	0.0047052
754	0.0049116
766	0.0042948
778	0.0023964
790	0.0020016
802	0.001746
814	0.001422
826	0.0013944
838	0.0016212
850	0.002724
862	0.0070428
874	0.0042996
886	0.0023772
898	0.0023436
910	0.003042
922	0.0036672
934	0.0033252
946	0.0016152
958	0.0009984
970	0.0009648
982	0.0011148
994	0.0017004
1006	0.0022104
1018	0.0019812
1030	0.0017424
1042	0.0008868
1054	0.0010656
1066	0.0016716
1078	0.0010416
1090	0.0005136
1102	0.0006864
1114	0.000954
1126	0.0010176
1138	0.0009756
1150	0.0010416
1162	0.0014172
1174	0.00309
1186	0.0030552
1198	0.0032328
1210	0.0078984
1222	0.0049044
1234	0.0024912
1246	0.0026832
1258	0.004704
1270	0.0041304
1282	0.0024276
1294	0.0026676
1306	0.0037656
1318	0.0053532
1330	0.0055152
1342	0.0024732
1354	0.000654
1366	0.0002544
1378	0.0001992
1390	4.68e-05
1402	4.2e-05
1414	0.0001944
1426	0.0004944
1438	0.0018384
1450	0.002982
1462	0.0011616
1474	0.0012276
1486	0.0019692
1498	0.0025788
1510	0.0014112
1522	0.0014892
1534	0.001734
1546	0.0022824
1558	0.003354
1570	0.0054324
1582	0.0061044
1594	0.0050004
1606	0.0039132
1618	0.00324
1630	0.0029652
1642	0.003012
1654	0.0044916
1666	0.009126
1678	0.0103872
1690	0.006516
1702	0.0031812
1714	0.001578
1726	0.0010308
1738	0.0007776
1750	0.0006936
1762	0.000648
1774	0.0006516
1786	0.0006192
1798	0.0008892
1810	0.0008304
1822	0.0005412
1834	0.0004296
1846	0.0003828
1858	0.0004068
1870	0.0005436
1882	0.0007116
1894	0.0007188
1906	0.0006852
1918	0.0006024
1930	0.0006672
1942	0.0008748
1954	0.0009852
1966	0.0008388
1978	0.0005916
1990	0.0005136
2002	0.0005292
2014	0.0004932
2026	0.0005172
2038	0.0005196
2050	0.0005544
2062	0.000528
2074	0.0005436
2086	0.0005616
2098	0.00066
2110	0.0007152
2122	0.0005676
2134	0.0005352
2146	0.0005916
2158	0.000516
2170	0.0005616
2182	0.0005664
2194	0.0005712
2206	0.0005568
2218	0.0005904
2230	0.000546
2242	0.0006144
2254	0.0005844
2266	0.0005832
2278	0.0005928
2290	0.0005604
2302	0.0005496
2314	0.0006372
2326	0.000624
2338	0.00066
2350	0.000618
2362	0.0005688
2374	0.0005532
2386	0.0005808
2398	0.0005496
2410	0.0005544
2422	0.0005532
2434	0.0005424
2446	0.000546
2458	0.0005796
2470	0.000558
2482	0.0005616
2494	0.0005292
2506	0.0005472
2518	0.0005688
2530	0.0005568
2542	0.0005436
2554	0.0005748
2566	0.0005352
2578	0.000588
2590	0.0005808
2602	0.0006132
2614	0.0005928
2626	0.0005796
2638	0.000612
2650	0.0005616
2662	0.0005676
2674	0.0005508
2686	0.0005892
2698	0.0005892
2710	0.0005964
2722	0.0005856
2734	0.0005652
2746	0.0006048
2758	0.0006312
2770	0.0006108
2782	0.0006156
2794	0.0006072
2806	0.000678
2818	0.0007176
2830	0.0006528
2842	0.0006504
2854	0.0007092
2866	0.0007488
2878	0.0007308
2890	0.0006708
2902	0.000756
2914	0.000714
2926	0.000762
2938	0.0006528
2950	0.0006528
2962	0.000726
2974	0.0007884
2986	0.000798
2998	0.0008916
3010	0.001296
3022	0.002244
3034	0.0035292
3046	0.0031032
3058	0.0045192
3070	0.0078096
3082	0.0054096
3094	0.0038256
3106	0.0021936
3118	0.0012228
3130	0.000966
3142	0.0008952
3154	0.000918
3166	0.000888
3178	0.0007308
3190	0.00069
3202	0.0008052
3214	0.000798
3226	0.0007896
3238	0.0007656
3250	0.0007236
3262	0.0007596
3274	0.0007056
3286	0.0008076
3298	0.0007908
3310	0.0010332
3322	0.0011136
3334	0.0009384
3346	0.0008148
3358	0.00078
3370	0.0006264
3382	0.0005916
3394	0.0006624
3406	0.0006252
3418	0.000774
3430	0.0008136
3442	0.0011124
3454	0.0015912
3466	0.00195
3478	0.0023496
3490	0.0024588
3502	0.0016632
3514	0.0012816
3526	0.0008856
3538	0.0007212
3550	0.0007152
3562	0.000582
3574	0.000546
3586	0.000558
3598	0.0005508
3610	0.0005868
3622	0.0005976
3634	0.0005736
3646	0.000564
3658	0.0005556
3670	0.0006204
3682	0.0006108
3694	0.0006204
3706	0.0006204
3718	0.0006168
3730	0.0007392
3742	0.0006
3754	0.0006516
3766	0.0006396
3778	0.0006324
3790	0.0006432
3802	0.000618
3814	0.0006192
3826	0.0006
3838	0.0006708
