Infrared Spectrum: Benzyl alcohol, o-amino-
Formula: C7 H9 N O
CAS: 5344-90-1
State: SOLID (SPLIT MULL), FLUOROLUBE FOR 3800-1330 CM^-^1, NUJOL FOR 1330-400 CM^-^1
Class: COBLENTZ II
Instrument: BECKMAN IR-9 (GRATING)
Instrument parameters: ORDER CHANGES: 670, 1200, 2000 CM^-^1
Sampling: TRANSMISSION
Resolution: 2
Origin: DOW CHEMICAL COMPANY
1/CM	TRANSMITTANCE
3812	0.5962
3803	0.5962
3794	0.598
3785	0.6002
3776	0.6037
3767	0.6071
3758	0.609
3749	0.6109
3740	0.6131
3731	0.6154
3722	0.6177
3713	0.62
3704	0.6224
3695	0.6248
3686	0.6272
3677	0.6292
3668	0.6309
3659	0.6326
3650	0.6346
3641	0.6369
3632	0.6398
3623	0.6421
3614	0.6439
3605	0.6445
3596	0.6373
3587	0.634
3578	0.6437
3569	0.6495
3560	0.6535
3551	0.6568
3542	0.6603
3533	0.6626
3524	0.6651
3515	0.6669
3506	0.6688
3497	0.6705
3488	0.6722
3479	0.6739
3470	0.6747
3461	0.6753
3452	0.6754
3443	0.6755
3434	0.6757
3425	0.6708
3416	0.654
3407	0.5462
3398	0.3782
3389	0.2671
3380	0.3995
3371	0.5004
3362	0.5246
3353	0.5518
3344	0.5519
3335	0.5351
3326	0.5001
3317	0.4741
3308	0.4521
3299	0.4551
3290	0.4603
3281	0.4618
3272	0.4614
3263	0.4582
3254	0.4524
3245	0.4449
3236	0.4364
3227	0.4269
3218	0.4173
3209	0.4092
3200	0.4021
3191	0.3979
3182	0.3937
3173	0.3912
3164	0.3896
3155	0.3892
3146	0.3891
3137	0.3897
3128	0.3909
3119	0.393
3110	0.3954
3101	0.3976
3092	0.3995
3083	0.4009
3074	0.406
3065	0.4189
3056	0.4292
3047	0.434
3038	0.432
3029	0.4223
3020	0.4353
3011	0.4558
3002	0.485
2993	0.5006
2984	0.5002
2975	0.4973
2966	0.4984
2957	0.5066
2948	0.5178
2939	0.5183
2930	0.5175
2921	0.5159
2912	0.5131
2903	0.4741
2894	0.4565
2885	0.4769
2876	0.4852
2867	0.502
2858	0.4997
2849	0.4866
2840	0.5067
2831	0.5307
2822	0.5479
2813	0.5592
2804	0.5681
2795	0.5743
2786	0.576
2777	0.5678
2768	0.5625
2759	0.5601
2750	0.5577
2741	0.5581
2732	0.5655
2723	0.5771
2714	0.5884
2705	0.6033
2696	0.6164
2687	0.6238
2678	0.6265
2669	0.6273
2660	0.6236
2651	0.6191
2642	0.6195
2633	0.631
2624	0.6449
2615	0.6549
2606	0.6634
2597	0.6701
2588	0.6744
2579	0.6784
2570	0.6822
2561	0.6856
2552	0.6889
2543	0.6919
2534	0.6949
2525	0.6976
2516	0.7001
2507	0.7025
2498	0.7049
2489	0.7069
2480	0.7092
2471	0.7114
2462	0.7134
2453	0.7151
2444	0.7168
2435	0.7184
2426	0.7198
2417	0.7211
2408	0.7234
2399	0.7268
2390	0.7315
2381	0.7365
2372	0.7398
2363	0.7395
2354	0.7378
2345	0.7371
2336	0.7365
2327	0.7368
2318	0.7371
2309	0.7392
2300	0.7424
2291	0.7456
2282	0.7486
2273	0.7514
2264	0.7542
2255	0.7571
2246	0.7599
2237	0.7628
2228	0.766
2219	0.7689
2210	0.7717
2201	0.7744
2192	0.7771
2183	0.7799
2174	0.7825
2165	0.7854
2156	0.7883
2147	0.7912
2138	0.7945
2129	0.7975
2120	0.8006
2111	0.8037
2102	0.8065
2093	0.8088
2084	0.8111
2075	0.8134
2066	0.8157
2057	0.8178
2048	0.8202
2039	0.8223
2030	0.8244
2021	0.8267
2012	0.8293
2003	0.8308
1994	0.8299
1985	0.8328
1976	0.8364
1967	0.8394
1958	0.8423
1949	0.8467
1940	0.8431
1931	0.8383
1922	0.8467
1913	0.8486
1904	0.8399
1895	0.8437
1886	0.8517
1877	0.8527
1868	0.853
1859	0.8567
1850	0.861
1841	0.8617
1832	0.8621
1823	0.8627
1814	0.8635
1805	0.8637
1796	0.8631
1787	0.8623
1778	0.8651
1769	0.8716
1760	0.8766
1751	0.8811
1742	0.8854
1733	0.8875
1724	0.8875
1715	0.887
1706	0.8862
1697	0.8825
1688	0.8771
1679	0.8634
1670	0.8221
1661	0.8045
1652	0.7728
1643	0.7417
1634	0.7148
1625	0.6808
1616	0.658
1607	0.5874
1598	0.7245
1589	0.6046
1580	0.7447
1571	0.8001
1562	0.8111
1553	0.8221
1544	0.8318
1535	0.8339
1526	0.8228
1517	0.7468
1508	0.6185
1499	0.6037
1490	0.6701
1481	0.7717
1472	0.6951
1463	0.6027
1454	0.5437
1445	0.6438
1436	0.6758
1427	0.7332
1418	0.7642
1409	0.7751
1400	0.7772
1391	0.7821
1382	0.783
1373	0.7812
1364	0.7685
1355	0.618
1346	0.543
1337	0.6356
1328	0.7138
1319	0.6407
1310	0.7261
1301	0.7178
1292	0.7826
1283	0.7862
1274	0.7075
1265	0.3958
1256	0.7193
1247	0.7911
1238	0.8255
1229	0.821
1220	0.7733
1211	0.7003
1202	0.7845
1193	0.8325
1184	0.858
1175	0.8648
1166	0.8542
1157	0.7012
1148	0.8172
1139	0.8483
1130	0.8554
1121	0.8434
1112	0.8913
1103	0.8925
1094	0.8887
1085	0.8609
1076	0.7869
1067	0.814
1058	0.8503
1049	0.8267
1040	0.6958
1031	0.8068
1022	0.809
1013	0.6471
1004	0.0525
995	0.4264
986	0.7205
977	0.6478
968	0.7919
959	0.8101
950	0.8193
941	0.8048
932	0.6219
923	0.7186
914	0.7784
905	0.7619
896	0.7308
887	0.7008
878	0.6747
869	0.5868
860	0.561
851	0.6379
842	0.5726
833	0.6057
824	0.6394
815	0.673
806	0.686
797	0.6736
788	0.6508
779	0.5798
770	0.3887
761	0.4575
752	0.1765
743	0.2712
734	0.5292
725	0.6002
716	0.6465
707	0.6496
698	0.6555
689	0.6967
680	0.7395
671	0.7653
662	0.7868
653	0.8033
644	0.815
635	0.822
626	0.8192
617	0.7519
608	0.6912
599	0.8316
590	0.8583
581	0.8675
572	0.8656
563	0.7557
554	0.8413
545	0.8441
536	0.7717
527	0.7795
518	0.8144
509	0.8146
500	0.809
491	0.7986
482	0.7774
473	0.7615
464	0.5037
455	0.7189
446	0.7096
437	0.6614
428	0.5984
419	0.5729
410	0.5774
401	0.5914
