Infrared Spectrum: 2,6-Dichlorocinnamic acid
Formula: C 9 H 6 Cl 2 O 2
CAS: 5345-89-1
State: gas
Origin: EPA-IR VAPOR PHASE LIBRARY
1/CM	ABSORBANCE
501.5	0.00162
513.074	0.00192
524.648	0.00322
536.222	0.00599
547.796	0.01021
559.37	0.01153
570.944	0.00991
582.518	0.00999
594.092	0.01653
605.666	0.0081
617.24	0.00223
628.814	0.00121
640.388	0.00111
651.962	0.00154
663.536	0.00327
675.11	0.00336
686.684	0.00206
698.258	0.00202
709.832	0.00146
721.406	0.00253
732.98	0.006
744.554	0.0055
756.128	0.00443
767.702	0.01475
779.276	0.03298
790.85	0.01259
802.423	0.00379
813.997	0.00247
825.571	0.00243
837.145	0.00234
848.719	0.00219
860.293	0.00187
871.867	0.00223
883.441	0.00272
895.015	0.0032
906.589	0.00303
918.163	0.00255
929.737	0.00267
941.311	0.0035
952.885	0.00399
964.459	0.00658
976.033	0.00851
987.607	0.0047
999.181	0.00267
1010.76	0.00135
1022.33	0.00126
1033.9	0.00133
1045.48	0.00161
1057.05	0.002
1068.63	0.00304
1080.2	0.00486
1091.77	0.00947
1103.35	0.01926
1114.92	0.04962
1126.49	0.05136
1138.07	0.02616
1149.64	0.02857
1161.22	0.02532
1172.79	0.0149
1184.36	0.01196
1195.94	0.0082
1207.51	0.00568
1219.09	0.00419
1230.66	0.00445
1242.23	0.00609
1253.81	0.00748
1265.38	0.00804
1276.96	0.00831
1288.53	0.00744
1300.1	0.00751
1311.68	0.00698
1323.25	0.00639
1334.83	0.0079
1346.4	0.01239
1357.97	0.01555
1369.55	0.01074
1381.12	0.00455
1392.7	0.00285
1404.27	0.00337
1415.84	0.00848
1427.42	0.02112
1438.99	0.01684
1450.57	0.00445
1462.14	0.0019
1473.71	0.00157
1485.29	0.00157
1496.86	0.00144
1508.44	0.00115
1520.01	0.00101
1531.58	0.0013
1543.16	0.00338
1554.73	0.00889
1566.31	0.00686
1577.88	0.00354
1589.45	0.00159
1601.03	0.00119
1612.6	0.00159
1624.18	0.00274
1635.75	0.0064
1647.32	0.01131
1658.9	0.00537
1670.47	0.00229
1682.05	0.00181
1693.62	0.00234
1705.19	0.00348
1716.77	0.00569
1728.34	0.01109
1739.92	0.02471
1751.49	0.05118
1763.06	0.06814
1774.64	0.02888
1786.21	0.01605
1797.79	0.00916
1809.36	0.0054
1820.93	0.00301
1832.51	0.00181
1844.08	0.00152
1855.66	0.00135
1867.23	0.000914
1878.8	0.0007992
1890.38	0.0006152
1901.95	0.0004161
1913.53	0.0005594
1925.1	0.000989
1936.67	0.0006539
1948.25	0.0002953
1959.82	0.000271
1971.4	0.0002475
1982.97	0.0001599
1994.54	0.0001743
2006.12	0.0001773
2017.69	0.0001377
2029.27	0.0001413
2040.84	0.0002048
2052.41	0.0002553
2063.99	0.0003094
2075.56	0.0001955
2087.14	0.0001253
2098.71	8.22e-05
2110.28	3.925e-05
2121.86	2.795e-05
2133.43	5.452e-05
2145.01	4.304e-05
2156.58	1.168e-05
2168.15	4.365e-05
2179.73	0.0001044
2191.3	0.0001327
2202.88	0.0001555
2214.45	0.0001777
2226.02	0.0002395
2237.6	0.0002266
2249.17	0.000198
2260.74	0.0001329
2272.32	8.664e-05
2283.89	0.0001127
2295.47	0.0001954
2307.04	0.0002231
2318.61	0.0001694
2330.19	0.0001451
2341.76	0.0001671
2353.34	0.0001512
2364.91	0.000181
2376.48	0.0001064
2388.06	7.737e-05
2399.63	0.0001078
2411.21	8.505e-05
2422.78	0.0001284
2434.35	0.0001325
2445.93	0.0001566
2457.5	0.0001662
2469.08	0.0001744
2480.65	0.0001964
2492.22	0.0001977
2503.8	0.0001268
2515.37	9.853e-05
2526.95	8.1e-05
2538.52	0.0001172
2550.09	7.092e-05
2561.67	0.0001219
2573.24	0.0001196
2584.82	0.0001839
2596.39	0.0001681
2607.96	0.0001269
2619.54	0.0001516
2631.11	0.0001391
2642.69	0.0002021
2654.26	0.0002125
2665.83	0.0001587
2677.41	0.0001499
2688.98	0.0001402
2700.56	0.0001356
2712.13	0.0001077
2723.7	5.784e-05
2735.28	7.485e-05
2746.85	0.0001533
2758.43	0.0001556
2770	0.0001449
2781.57	0.0001626
2793.15	0.0001995
2804.72	0.0001922
2816.3	0.0001541
2827.87	9.685e-05
2839.44	0.0001387
2851.02	0.0001291
2862.59	0.0001581
2874.17	0.0002262
2885.74	0.0002067
2897.31	0.00022
2908.89	0.0002141
2920.46	0.0002189
2932.04	0.00016
2943.61	0.000189
2955.18	0.0002912
2966.76	0.000257
2978.33	0.0002941
2989.91	0.0003454
3001.48	0.0004095
3013.05	0.0004033
3024.63	0.0003929
3036.2	0.0005083
3047.78	0.0006692
3059.35	0.00134
3070.92	0.00123
3082.5	0.00122
3094.07	0.0007852
3105.65	0.0006224
3117.22	0.00073
3128.79	0.0005491
3140.37	0.0002992
3151.94	0.0001502
3163.52	0.0001939
3175.09	0.0001875
3186.66	0.0001256
3198.24	0.000206
3209.81	0.000207
3221.39	0.0001282
3232.96	0.0002377
3244.53	0.0001914
3256.11	0.0001574
3267.68	0.0001943
3279.26	0.0002064
3290.83	0.0002458
3302.4	0.0001937
3313.98	0.0001702
3325.55	0.0001615
3337.13	0.0002099
3348.7	0.0002436
3360.27	0.0002393
3371.85	0.0002072
3383.42	0.0002208
3395	0.0002326
3406.57	0.0002585
3418.14	0.0002214
3429.72	0.0003405
3441.29	0.0002089
3452.86	0.0003851
3464.44	0.0004309
3476.01	0.0005203
3487.59	0.0007433
3499.16	0.0009503
3510.73	0.0009039
3522.31	0.0007355
3533.88	0.0006588
3545.46	0.0008014
3557.03	0.00145
3568.6	0.00633
3580.18	0.03011
3591.75	0.01453
3603.33	0.00205
3614.9	0.0007776
3626.47	0.0006597
3638.05	0.0006032
3649.62	0.0005167
3661.2	0.0004033
3672.77	0.0003887
3684.34	0.0002922
3695.92	0.0003354
3707.49	0.0003008
3719.07	0.0002849
3730.64	0.0002824
3742.21	0.0002644
3753.79	0.0002428
3765.36	0.0002875
3776.94	0.000307
3788.51	0.0001834
3800.08	0.0001807
3811.66	0.0002464
3823.23	0.0003359
3834.81	0.0003176
3846.38	0.0002562
3857.95	0.0003421
3869.53	0.0003726
3881.1	0.0002624
3892.68	0.0003568
3904.25	0.000209
3915.82	0.0002864
3927.4	0.0002646
3938.97	0.0003321
3950.55	0.0002743
3962.12	0.0003418
3973.69	0.0003263
3985.27	0.0002787
3996.84	0.0002733
