Infrared Spectrum: CELLOBIOSE OCTAACETATE
Formula: C28 H38 O19
CAS: 5346-90-7
State: SOLID (MINERAL OIL MULL)
Class: COBLENTZ
Instrument: Not specified, most likely a prism, grating, or hybrid spectrometer.
Sampling: TRANSMISSION
Resolution: 4
Origin: WYANDOTTE CHEMICALS CORP., WYANDOTTE, MICHIGAN, USA
MICROMETERS	TRANSMITTANCE
2.053	0.945
2.09279	0.956
2.13258	0.95
2.17237	0.927
2.21217	0.899
2.25196	0.899
2.29175	0.908
2.33154	0.912
2.37133	0.91
2.41112	0.91
2.45092	0.918
2.49071	0.922
2.5305	0.928
2.57029	0.945
2.61008	0.93
2.64987	0.955
2.68966	0.948
2.72946	0.912
2.76925	0.892
2.80904	0.864
2.84883	0.816
2.88862	0.774
2.92841	0.811
2.96821	0.819
3.008	0.829
3.04779	0.842
3.08758	0.852
3.12737	0.852
3.16716	0.855
3.20695	0.857
3.24675	0.847
3.28654	0.778
3.32633	0.534
3.36612	0.052
3.40591	0.067
3.4457	0.149
3.4855	0.145
3.52529	0.385
3.56508	0.799
3.60487	0.865
3.64466	0.884
3.68445	0.875
3.72424	0.894
3.76404	0.9
3.80383	0.903
3.84362	0.917
3.88341	0.928
3.9232	0.94
3.96299	0.96
4.00279	0.96
4.04258	0.951
4.08237	0.938
4.12216	0.938
4.16195	0.938
4.20174	0.935
4.24153	0.938
4.28133	0.925
4.32112	0.948
4.36091	0.98
4.4007	0.99
4.44049	0.971
4.48028	0.958
4.52007	0.968
4.55987	0.97
4.59966	0.971
4.63945	0.968
4.67924	0.961
4.71903	0.945
4.75882	0.918
4.79862	0.927
4.83841	0.95
4.8782	0.958
4.91799	0.958
4.95778	0.96
4.99757	0.956
5.03736	0.958
5.07716	0.951
5.11695	0.951
5.15674	0.947
5.19653	0.93
5.23632	0.915
5.27611	0.927
5.31591	0.923
5.3557	0.912
5.39549	0.899
5.43528	0.869
5.47507	0.844
5.51486	0.789
5.55465	0.677
5.59445	0.597
5.63424	0.448
5.67403	0.064
5.71382	0.038
5.75361	0.041
5.7934	0.158
5.8332	0.355
5.87299	0.443
5.91278	0.612
5.95257	0.69
5.99236	0.715
6.03215	0.698
6.07194	0.728
6.11174	0.763
6.15153	0.812
6.19132	0.826
6.23111	0.839
6.2709	0.844
6.31069	0.844
6.35049	0.832
6.39028	0.824
6.43007	0.802
6.46986	0.807
6.50965	0.806
6.54944	0.799
6.58923	0.789
6.62903	0.794
6.66882	0.773
6.70861	0.72
6.7484	0.602
6.78819	0.359
6.82798	0.271
6.86778	0.259
6.90757	0.273
6.94736	0.269
6.98715	0.331
7.02694	0.448
7.06673	0.516
7.10652	0.528
7.14632	0.486
7.18611	0.246
7.2259	0.048
7.26569	0.051
7.30548	0.084
7.34527	0.274
7.38507	0.475
7.42486	0.579
7.46465	0.632
7.50444	0.63
7.54423	0.528
7.58402	0.465
7.62381	0.548
7.66361	0.552
7.7034	0.5
7.74319	0.428
7.78298	0.299
7.82277	0.205
7.86256	0.104
7.90236	0.043
7.94215	0.033
7.98194	0.031
8.02173	0.031
8.06152	0.031
8.10131	0.029
8.1411	0.029
8.1809	0.031
8.22069	0.033
8.26048	0.069
8.30027	0.187
8.34006	0.294
8.37985	0.374
8.41965	0.405
8.45944	0.312
8.49923	0.311
8.53902	0.248
8.57881	0.165
8.6186	0.264
8.65839	0.261
8.69819	0.183
8.73798	0.129
8.77777	0.147
8.81756	0.284
8.85735	0.394
8.89714	0.418
8.93694	0.422
8.97673	0.278
9.01652	0.177
9.05631	0.288
9.0961	0.392
9.13589	0.427
9.17568	0.399
9.21548	0.306
9.25527	0.175
9.29506	0.104
9.33485	0.066
9.37464	0.043
9.41443	0.038
9.45422	0.036
9.49402	0.036
9.53381	0.036
9.5736	0.034
9.61339	0.034
9.65318	0.033
9.69297	0.041
9.73277	0.072
9.77256	0.076
9.81235	0.071
9.85214	0.14
9.89193	0.279
9.93172	0.384
9.97151	0.432
10.0113	0.418
10.0511	0.389
10.0909	0.443
10.1307	0.495
10.1705	0.518
10.2103	0.516
10.2501	0.572
10.2898	0.644
10.3296	0.665
10.3694	0.634
10.4092	0.642
10.449	0.672
10.4888	0.624
10.5286	0.458
10.5684	0.188
10.6082	0.274
10.648	0.49
10.6878	0.629
10.7276	0.683
10.7673	0.693
10.8071	0.653
10.8469	0.576
10.8867	0.46
10.9265	0.402
10.9663	0.539
11.0061	0.5
11.0459	0.35
11.0857	0.387
11.1255	0.6
11.1653	0.662
11.2051	0.667
11.2448	0.678
11.2846	0.685
11.3244	0.723
11.3642	0.771
11.404	0.801
11.4438	0.807
11.4836	0.821
11.5234	0.816
11.5632	0.817
11.603	0.806
11.6428	0.788
11.6826	0.768
11.7223	0.754
11.7621	0.763
11.8019	0.781
11.8417	0.793
11.8815	0.786
11.9213	0.783
11.9611	0.804
12.0009	0.837
12.0407	0.855
12.0805	0.869
12.1203	0.879
12.16	0.885
12.1998	0.887
12.2396	0.89
12.2794	0.89
12.3192	0.894
12.359	0.895
12.3988	0.897
12.4386	0.899
12.4784	0.899
12.5182	0.9
12.558	0.902
12.5978	0.902
12.6375	0.905
12.6773	0.903
12.7171	0.903
12.7569	0.9
12.7967	0.899
12.8365	0.892
12.8763	0.887
12.9161	0.88
12.9559	0.864
12.9957	0.859
13.0355	0.846
13.0753	0.829
13.115	0.819
13.1548	0.812
13.1946	0.807
13.2344	0.796
13.2742	0.776
13.314	0.759
13.3538	0.763
13.3936	0.786
13.4334	0.814
13.4732	0.832
13.513	0.847
13.5528	0.854
13.5925	0.86
13.6323	0.86
13.6721	0.867
13.7119	0.869
13.7517	0.869
13.7915	0.865
13.8313	0.865
13.8711	0.86
13.9109	0.857
13.9507	0.867
13.9905	0.875
14.0303	0.874
14.07	0.869
14.1098	0.862
14.1496	0.849
14.1894	0.829
14.2292	0.796
14.269	0.766
14.3088	0.75
14.3486	0.75
14.3884	0.771
14.4282	0.789
14.468	0.802
14.5077	0.814
14.5475	0.814
14.5873	0.802
14.6271	0.786
14.6669	0.778
14.7067	0.771
14.7465	0.766
14.7863	0.764
14.8261	0.773
14.8659	0.783
14.9057	0.786
14.9455	0.776
14.9852	0.756
15.025	0.741
15.0648	0.746
15.1046	0.771
15.1444	0.783
15.1842	0.784
15.224	0.781
15.2638	0.781
15.3036	0.788
15.3434	0.786
15.3832	0.781
15.423	0.773
15.4627	0.766
15.5025	0.759
15.5423	0.751
15.5821	0.741
15.6219	0.735
15.6617	0.733
15.7015	0.736
15.7413	0.738
15.7811	0.74
15.8209	0.746
15.8607	0.745
15.9005	0.741
15.9402	0.735
15.98	0.733
