Infrared Spectrum: DIMETHANE SULFONAMIDE
Formula: C2 H7 N O4 S2
CAS: 5347-82-0
State: SOLID (MULL)
Melting point: 151-153 C
Class: COBLENTZ
Instrument: Not specified, most likely a prism, grating, or hybrid spectrometer.
Sampling: TRANSMISSION
Resolution: 4
Origin: WYANDOTTE CHEMICALS CORP., WYANDOTTE, MICHIGAN, USA
MICROMETERS	TRANSMITTANCE
2.081	0.896
2.11983	0.899
2.15867	0.901
2.1975	0.876
2.23634	0.862
2.27517	0.858
2.31401	0.862
2.35284	0.87
2.39168	0.876
2.43051	0.883
2.46935	0.873
2.50818	0.88
2.54702	0.884
2.58585	0.905
2.62468	0.899
2.66352	0.907
2.70235	0.899
2.74119	0.865
2.78002	0.792
2.81886	0.799
2.85769	0.824
2.89653	0.865
2.93536	0.867
2.9742	0.86
3.01303	0.836
3.05187	0.74
3.0907	0.567
3.12954	0.457
3.16837	0.435
3.2072	0.397
3.24604	0.437
3.28487	0.473
3.32371	0.364
3.36254	0.241
3.40138	0.113
3.44021	0.103
3.47905	0.168
3.51788	0.171
3.55672	0.481
3.59555	0.688
3.63439	0.713
3.67322	0.729
3.71205	0.732
3.75089	0.714
3.78972	0.68
3.82856	0.734
3.86739	0.755
3.90623	0.761
3.94506	0.779
3.9839	0.808
4.02273	0.831
4.06157	0.855
4.1004	0.867
4.13924	0.873
4.17807	0.88
4.21691	0.888
4.25574	0.865
4.29457	0.87
4.33341	0.899
4.37224	0.915
4.41108	0.902
4.44991	0.91
4.48875	0.93
4.52758	0.94
4.56642	0.94
4.60525	0.941
4.64409	0.949
4.68292	0.949
4.72176	0.946
4.76059	0.944
4.79942	0.951
4.83826	0.946
4.87709	0.961
4.91593	0.964
4.95476	0.97
4.9936	0.972
5.03243	0.974
5.07127	0.975
5.1101	0.978
5.14894	0.978
5.18777	0.975
5.22661	0.98
5.26544	0.98
5.30427	0.985
5.34311	0.983
5.38194	0.978
5.42078	0.983
5.45961	0.974
5.49845	0.98
5.53728	0.982
5.57612	0.98
5.61495	0.977
5.65379	0.962
5.69262	0.975
5.73146	0.957
5.77029	0.951
5.80913	0.923
5.84796	0.92
5.88679	0.923
5.92563	0.918
5.96446	0.922
6.0033	0.915
6.04213	0.901
6.08097	0.876
6.1198	0.831
6.15864	0.831
6.19747	0.88
6.23631	0.904
6.27514	0.905
6.31398	0.907
6.35281	0.901
6.39164	0.912
6.43048	0.894
6.46931	0.888
6.50815	0.873
6.54698	0.862
6.58582	0.844
6.62465	0.821
6.66349	0.8
6.70232	0.745
6.74116	0.589
6.77999	0.382
6.81883	0.319
6.85766	0.333
6.89649	0.38
6.93533	0.423
6.97416	0.455
7.013	0.376
7.05183	0.29
7.09067	0.385
7.1295	0.4
7.16834	0.4
7.20717	0.29
7.24601	0.213
7.28484	0.183
7.32368	0.15
7.36251	0.132
7.40135	0.121
7.44018	0.145
7.47901	0.157
7.51785	0.171
7.55668	0.175
7.59552	0.239
7.63435	0.275
7.67319	0.322
7.71202	0.38
7.75086	0.423
7.78969	0.461
7.82853	0.5
7.86736	0.533
7.9062	0.565
7.94503	0.583
7.98386	0.596
8.0227	0.604
8.06153	0.611
8.10037	0.619
8.1392	0.623
8.17804	0.623
8.21687	0.62
8.25571	0.612
8.29454	0.606
8.33338	0.601
8.37221	0.591
8.41105	0.572
8.44988	0.52
8.48872	0.44
8.52755	0.29
8.56638	0.223
8.60522	0.202
8.64405	0.188
8.68289	0.175
8.72172	0.179
8.76056	0.27
8.79939	0.384
8.83823	0.45
8.87706	0.51
8.9159	0.542
8.95473	0.573
8.99357	0.596
9.0324	0.612
9.07123	0.628
9.11007	0.633
9.1489	0.643
9.18774	0.645
9.22657	0.651
9.26541	0.659
9.30424	0.666
9.34308	0.67
9.38191	0.67
9.42075	0.674
9.45958	0.682
9.49842	0.682
9.53725	0.685
9.57608	0.692
9.61492	0.695
9.65375	0.7
9.69259	0.701
9.73142	0.705
9.77026	0.7
9.80909	0.703
9.84793	0.705
9.88676	0.701
9.9256	0.693
9.96443	0.662
10.0033	0.562
10.0421	0.442
10.0809	0.395
10.1198	0.416
10.1586	0.401
10.1974	0.356
10.2363	0.329
10.2751	0.32
10.3139	0.325
10.3528	0.444
10.3916	0.559
10.4304	0.625
10.4693	0.645
10.5081	0.643
10.547	0.635
10.5858	0.623
10.6246	0.606
10.6635	0.586
10.7023	0.578
10.7411	0.564
10.78	0.544
10.8188	0.531
10.8576	0.517
10.8965	0.495
10.9353	0.482
10.9741	0.471
11.013	0.455
11.0518	0.421
11.0906	0.38
11.1295	0.351
11.1683	0.322
11.2071	0.304
11.246	0.294
11.2848	0.286
11.3236	0.28
11.3625	0.256
11.4013	0.241
11.4401	0.225
11.479	0.213
11.5178	0.204
11.5567	0.202
11.5955	0.209
11.6343	0.223
11.6732	0.235
11.712	0.252
11.7508	0.275
11.7897	0.282
11.8285	0.288
11.8673	0.293
11.9062	0.303
11.945	0.304
11.9838	0.319
12.0227	0.35
12.0615	0.374
12.1003	0.4
12.1392	0.419
12.178	0.44
12.2168	0.455
12.2557	0.478
12.2945	0.495
12.3333	0.505
12.3722	0.515
12.411	0.531
12.4498	0.539
12.4887	0.551
12.5275	0.555
12.5664	0.564
12.6052	0.573
12.644	0.581
12.6829	0.591
12.7217	0.602
12.7605	0.601
12.7994	0.601
12.8382	0.588
12.877	0.555
12.9159	0.51
12.9547	0.434
12.9935	0.337
13.0324	0.254
13.0712	0.252
13.11	0.293
13.1489	0.35
13.1877	0.411
13.2265	0.47
13.2654	0.515
13.3042	0.544
13.343	0.565
13.3819	0.575
13.4207	0.585
13.4595	0.596
13.4984	0.612
13.5372	0.627
13.5761	0.635
13.6149	0.64
13.6537	0.651
13.6926	0.654
13.7314	0.667
13.7702	0.674
13.8091	0.683
13.8479	0.687
13.8867	0.7
13.9256	0.713
13.9644	0.726
14.0032	0.735
14.0421	0.752
14.0809	0.76
14.1197	0.768
14.1586	0.773
14.1974	0.784
14.2362	0.794
14.2751	0.799
14.3139	0.803
14.3527	0.808
14.3916	0.811
14.4304	0.815
14.4692	0.821
14.5081	0.818
14.5469	0.824
14.5858	0.831
14.6246	0.834
14.6634	0.829
14.7023	0.831
14.7411	0.834
14.7799	0.834
14.8188	0.842
14.8576	0.836
14.8964	0.837
14.9353	0.836
14.9741	0.833
15.0129	0.811
15.0518	0.795
15.0906	0.792
15.1294	0.794
15.1683	0.813
15.2071	0.824
15.2459	0.826
15.2848	0.824
15.3236	0.829
15.3624	0.831
15.4013	0.831
15.4401	0.831
15.4789	0.831
15.5178	0.831
15.5566	0.828
15.5955	0.826
15.6343	0.829
15.6731	0.831
15.712	0.826
15.7508	0.82
15.7896	0.813
15.8285	0.805
15.8673	0.81
15.9061	0.799
15.945	0.784
15.9838	0.782
