Infrared Spectrum: 2,4-Dinitrothiophene
Formula: C 4 H 2 N 2 O 4 S
CAS: 5347-12-6
State: gas
Origin: EPA-IR VAPOR PHASE LIBRARY
1/CM	ABSORBANCE
501.5	0
513.074	0.000141
524.648	0.000262
536.222	0.0006713
547.796	0.001862
559.37	0.0008011
570.944	9.3e-05
582.518	9.4e-05
594.092	0.00025
605.666	0.0005256
617.24	0.0003532
628.814	0.000298
640.388	0.0003627
651.962	0.0009006
663.536	0.0010572
675.11	0.001912
686.684	0.009622
698.258	0.016892
709.832	0.007502
721.406	0.016722
732.98	0.025022
744.554	0.010322
756.128	0.003422
767.702	0.010222
779.276	0.026202
790.85	0.011012
802.423	0.011282
813.997	0.020232
825.571	0.009302
837.145	0.001752
848.719	0.002022
860.293	0.007602
871.867	0.015382
883.441	0.009202
895.015	0.002092
906.589	0.0008711
918.163	0.001752
929.737	0.004362
941.311	0.002782
952.885	0.0008232
964.459	0.00050694
976.033	0.000426023
987.607	0.0008086
999.181	0.001702
1010.76	0.002692
1022.33	0.003592
1033.9	0.009092
1045.48	0.024852
1057.05	0.012652
1068.63	0.002382
1080.2	0.0011867
1091.77	0.0010602
1103.35	0.0007383
1114.92	0.0006548
1126.49	0.0007469
1138.07	0.0007819
1149.64	0.0009048
1161.22	0.001572
1172.79	0.006392
1184.36	0.010712
1195.94	0.004192
1207.51	0.001482
1219.09	0.0011282
1230.66	0.0010545
1242.23	0.001592
1253.81	0.003692
1265.38	0.006032
1276.96	0.005492
1288.53	0.004922
1300.1	0.006812
1311.68	0.016202
1323.25	0.046452
1334.83	0.147032
1346.4	0.161492
1357.97	0.038192
1369.55	0.017952
1381.12	0.014862
1392.7	0.016512
1404.27	0.017202
1415.84	0.011692
1427.42	0.007582
1438.99	0.006622
1450.57	0.006722
1462.14	0.007662
1473.71	0.009382
1485.29	0.010792
1496.86	0.015522
1508.44	0.029412
1520.01	0.054892
1531.58	0.064552
1543.16	0.066432
1554.73	0.115912
1566.31	0.124702
1577.88	0.067872
1589.45	0.032342
1601.03	0.020352
1612.6	0.013262
1624.18	0.008512
1635.75	0.004522
1647.32	0.002492
1658.9	0.001832
1670.47	0.001802
1682.05	0.001832
1693.62	0.001602
1705.19	0.0009044
1716.77	0.0008216
1728.34	0.0012226
1739.92	0.001862
1751.49	0.001632
1763.06	0.0009321
1774.64	0.0005977
1786.21	0.000558
1797.79	0.0006485
1809.36	0.000711
1820.93	0.00053
1832.51	0.00046845
1844.08	0.00047058
1855.66	0.00050933
1867.23	0.000528
1878.8	0.00048913
1890.38	0.00043489
1901.95	0.000426898
1913.53	0.000423384
1925.1	0.000430118
1936.67	0.0003623
1948.25	0.0003375
1959.82	0.0003298
1971.4	0.0003643
1982.97	0.000424057
1994.54	0.00043306
2006.12	0.0003908
2017.69	0.0003737
2029.27	0.000421225
2040.84	0.00047182
2052.41	0.0005811
2063.99	0.0005398
2075.56	0.0005362
2087.14	0.00045975
2098.71	0.000428966
2110.28	0.0003556
2121.86	0.0003615
2133.43	0.0003893
2145.01	0.000346
2156.58	0.0003963
2168.15	0.00041792
2179.73	0.0003885
2191.3	0.0003527
2202.88	0.000427073
2214.45	0.0005943
2226.02	0.0006826
2237.6	0.0005997
2249.17	0.00046981
2260.74	0.00046061
2272.32	0.0004394
2283.89	0.00046772
2295.47	0.0006227
2307.04	0.000805
2318.61	0.0009437
2330.19	0.0010638
2341.76	0.0010118
2353.34	0.0009163
2364.91	0.0010102
2376.48	0.000945
2388.06	0.0008495
2399.63	0.0006368
2411.21	0.0005491
2422.78	0.00049944
2434.35	0.0005338
2445.93	0.0006127
2457.5	0.0008009
2469.08	0.0009083
2480.65	0.0009162
2492.22	0.0008035
2503.8	0.000751
2515.37	0.0006979
2526.95	0.0006269
2538.52	0.00050668
2550.09	0.00048132
2561.67	0.00047403
2573.24	0.000506
2584.82	0.0005528
2596.39	0.0006888
2607.96	0.0007373
2619.54	0.0006905
2631.11	0.0006583
2642.69	0.0007453
2654.26	0.0009653
2665.83	0.0013448
2677.41	0.001542
2688.98	0.0012421
2700.56	0.0010443
2712.13	0.0009371
2723.7	0.0008082
2735.28	0.0008607
2746.85	0.0009307
2758.43	0.0011041
2770	0.0013356
2781.57	0.001296
2793.15	0.0010324
2804.72	0.0009886
2816.3	0.0010484
2827.87	0.0011714
2839.44	0.001492
2851.02	0.002092
2862.59	0.002702
2874.17	0.003122
2885.74	0.003342
2897.31	0.002822
2908.89	0.002012
2920.46	0.001692
2932.04	0.001522
2943.61	0.0012236
2955.18	0.0010644
2966.76	0.0009691
2978.33	0.0008752
2989.91	0.0007446
3001.48	0.000653
3013.05	0.0006643
3024.63	0.0005975
3036.2	0.0006091
3047.78	0.0006896
3059.35	0.0007593
3070.92	0.0008372
3082.5	0.0010973
3094.07	0.001562
3105.65	0.003042
3117.22	0.008982
3128.79	0.018252
3140.37	0.011512
3151.94	0.002222
3163.52	0.0008076
3175.09	0.0005687
3186.66	0.0005272
3198.24	0.00052078
3209.81	0.00046935
3221.39	0.0004475
3232.96	0.00042009
3244.53	0.00045252
3256.11	0.00046798
3267.68	0.00051648
3279.26	0.00048251
3290.83	0.00044656
3302.4	0.000428201
3313.98	0.0003715
3325.55	0.00049314
3337.13	0.00049369
3348.7	0.0003931
3360.27	0.0004749
3371.85	0.00051877
3383.42	0.00049023
3395	0.0005273
3406.57	0.0004932
3418.14	0.00043672
3429.72	0.00043394
3441.29	0.00045775
3452.86	0.00048154
3464.44	0.00051441
3476.01	0.00045678
3487.59	0.0005386
3499.16	0.00051022
3510.73	0.00048178
3522.31	0.00045496
3533.88	0.0005589
3545.46	0.00050393
3557.03	0.00049554
3568.6	0.0005445
3580.18	0.0005391
3591.75	0.00051532
3603.33	0.0005371
3614.9	0.0005432
3626.47	0.00050599
3638.05	0.00046808
3649.62	0.00049503
3661.2	0.0005493
3672.77	0.0005417
3684.34	0.00051007
3695.92	0.0005275
3707.49	0.00050599
3719.07	0.00048713
3730.64	0.000589
3742.21	0.000592
3753.79	0.0006477
3765.36	0.0005439
3776.94	0.0006164
3788.51	0.0005735
3800.08	0.0005146
3811.66	0.0006784
3823.23	0.0006751
3834.81	0.0006657
3846.38	0.000592
3857.95	0.0005522
3869.53	0.0005664
3881.1	0.0005533
3892.68	0.0006225
3904.25	0.0006771
3915.82	0.0006852
3927.4	0.000631
3938.97	0.0006319
3950.55	0.000633
3962.12	0.0006483
3973.69	0.0006761
3985.27	0.0007835
3996.84	0.0007681
