Infrared Spectrum: 5-BROMO-6-METHOXY-8-NITROQUINOLINE
Formula: C10 H7 Br N2 O3
CAS: 5347-15-9
State: SOLID (1.0% IN KBr PELLET)
Melting point: 210 C
Class: COBLENTZ
Instrument: Not specified, most likely a prism, grating, or hybrid spectrometer.
Sampling: TRANSMISSION
Path length: 0.0355 CM THICK
Resolution: 4
Origin: ANDERSON PHYSICAL LABORATORY
1/CM	TRANSMITTANCE
666.667	0.795
675.094	0.786
683.521	0.78
691.948	0.774
700.375	0.751
708.802	0.685
717.229	0.563
725.656	0.703
734.083	0.742
742.51	0.726
750.937	0.669
759.364	0.5631
767.791	0.2523
776.218	0.2279
784.645	0.7709
793.072	0.804
801.499	0.5441
809.926	0.809
818.353	0.781
826.78	0.727
835.207	0.66
843.634	0.2913
852.061	0.7048
860.488	0.754
868.915	0.732
877.342	0.673
885.769	0.508
894.196	0.254
902.623	0.8119
911.05	0.839
919.477	0.815
927.903	0.781
936.33	0.718
944.757	0.551
953.184	0.472
961.611	0.812
970.038	0.79
978.465	0.762
986.892	0.741
995.319	0.708
1003.75	0.604
1012.17	0.43
1020.6	0.678
1029.03	0.5081
1037.45	0.4599
1045.88	0.717
1054.31	0.646
1062.74	0.497
1071.16	0.219
1079.59	0.625
1088.02	0.784
1096.44	0.775
1104.87	0.744
1113.3	0.721
1121.72	0.697
1130.15	0.634
1138.58	0.463
1147.01	0.5929
1155.43	0.738
1163.86	0.703
1172.29	0.645
1180.71	0.5231
1189.14	0.3771
1197.57	0.4158
1205.99	0.703
1214.42	0.675
1222.85	0.627
1231.27	0.551
1239.7	0.443
1248.13	0.285
1256.56	0.15
1264.98	0.4237
1273.41	0.621
1281.84	0.612
1290.26	0.548
1298.69	0.452
1307.12	0.341
1315.54	0.207
1323.97	0.067
1332.4	0.151
1340.83	0.4991
1349.25	0.3533
1357.68	0.3798
1366.11	0.571
1374.53	0.3201
1382.96	0.245
1391.39	0.293
1399.81	0.297
1408.24	0.596
1416.67	0.735
1425.1	0.714
1433.52	0.6301
1441.95	0.473
1450.38	0.436
1458.8	0.365
1467.23	0.401
1475.66	0.434
1484.08	0.347
1492.51	0.148
1500.94	0.165
1509.37	0.195
1517.79	0.135
1526.22	0.112
1534.65	0.1809
1543.07	0.365
1551.5	0.4
1559.93	0.539
1568.35	0.551
1576.78	0.473
1585.21	0.359
1593.64	0.3811
1602.06	0.499
1610.49	0.3891
1618.92	0.3
1627.34	0.6569
1635.77	0.807
1644.2	0.807
1652.62	0.806
1661.05	0.804
1669.48	0.803
1677.91	0.784
1686.33	0.781
1694.76	0.792
1703.19	0.796
1711.61	0.793
1720.04	0.784
1728.47	0.777
1736.89	0.768
1745.32	0.762
1753.75	0.757
1762.17	0.756
1770.6	0.76
1779.03	0.751
1787.46	0.75
1795.88	0.751
1804.31	0.745
1812.74	0.742
1821.16	0.733
1829.59	0.733
1838.02	0.733
1846.44	0.724
1854.87	0.721
1863.3	0.711
1871.73	0.697
1880.15	0.694
1888.58	0.708
1897.01	0.703
1905.43	0.7
1913.86	0.693
1922.29	0.681
1930.71	0.694
1939.14	0.7
1947.57	0.694
1956	0.678
1964.42	0.657
1972.85	0.631
1981.28	0.666
1989.7	0.684
1998.13	0.681
2006.56	0.6723
2014.98	0.669
2023.41	0.6655
2031.84	0.6635
2040.27	0.661
2048.69	0.657
2057.12	0.6535
2065.55	0.6515
2073.97	0.6468
2082.4	0.643
2090.83	0.6415
2099.25	0.639
2107.68	0.6363
2116.11	0.633
2124.54	0.63
2132.96	0.627
2141.39	0.625
2149.82	0.624
2158.24	0.6218
2166.67	0.619
2175.1	0.618
2183.52	0.613
2191.95	0.6085
2200.38	0.6035
2208.81	0.6003
2217.23	0.598
2225.66	0.596
2234.09	0.5955
2242.51	0.595
2250.94	0.59
2259.37	0.589
2267.79	0.588
2276.22	0.587
2284.65	0.584
2293.07	0.583
2301.5	0.581
2309.93	0.58
2318.36	0.578
2326.78	0.577
2335.21	0.575
2343.64	0.574
2352.06	0.571
2360.49	0.5688
2368.92	0.567
2377.34	0.5653
2385.77	0.565
2394.2	0.5615
2402.63	0.558
2411.05	0.556
2419.48	0.554
2427.91	0.5525
2436.33	0.5465
2444.76	0.5425
2453.19	0.539
2461.61	0.538
2470.04	0.536
2478.47	0.535
2486.9	0.533
2495.32	0.5328
2503.75	0.532
2512.18	0.53
2520.6	0.529
2529.03	0.5238
2537.46	0.523
2545.88	0.521
2554.31	0.521
2562.74	0.521
2571.17	0.52
2579.59	0.5185
2588.02	0.517
2596.45	0.5143
2604.87	0.5075
2613.3	0.5053
2621.73	0.503
2630.15	0.502
2638.58	0.501
2647.01	0.499
2655.44	0.497
2663.86	0.494
2672.29	0.494
2680.72	0.4955
2689.14	0.497
2697.57	0.497
2706	0.497
2714.42	0.496
2722.85	0.494
2731.28	0.49
2739.71	0.4865
2748.13	0.4735
2756.56	0.461
2764.99	0.4563
2773.41	0.4495
2781.84	0.4453
2790.27	0.44
2798.69	0.4385
2807.12	0.437
2815.55	0.437
2823.97	0.437
2832.4	0.436
2840.83	0.4315
2849.26	0.4273
2857.68	0.422
2866.11	0.421
2874.54	0.42
2882.96	0.4113
2891.39	0.409
2899.82	0.4085
2908.24	0.408
2916.67	0.4112
2925.1	0.4179
2933.53	0.4205
2941.95	0.414
2950.38	0.4093
2958.81	0.407
2967.23	0.406
2975.66	0.404
2984.09	0.403
2992.51	0.401
3000.94	0.401
3009.37	0.401
3017.8	0.4082
3026.22	0.415
3034.65	0.4132
3043.08	0.3925
3051.5	0.39
3059.93	0.392
3068.36	0.3994
3076.78	0.4154
3085.21	0.427
3093.64	0.428
3102.07	0.4273
3110.49	0.4245
3118.92	0.4225
3127.35	0.422
3135.77	0.4183
3144.2	0.416
3152.63	0.415
3161.05	0.413
3169.48	0.409
3177.91	0.407
3186.34	0.406
3194.76	0.404
3203.19	0.401
3211.62	0.401
3220.04	0.4025
3228.47	0.404
3236.9	0.403
3245.32	0.402
3253.75	0.401
3262.18	0.401
3270.61	0.398
3279.03	0.3945
3287.46	0.387
3295.89	0.381
3304.31	0.38
3312.74	0.3775
3321.17	0.3748
3329.59	0.372
3338.02	0.3673
3346.45	0.3565
3354.87	0.3508
3363.3	0.348
3371.73	0.345
3380.16	0.3475
3388.58	0.3508
3397.01	0.35
3405.44	0.3435
3413.86	0.337
3422.29	0.3353
3430.72	0.336
3439.14	0.345
3447.57	0.347
3456	0.3455
3464.43	0.345
3472.85	0.344
3481.28	0.344
3489.71	0.3472
3498.13	0.351
3506.56	0.353
3514.99	0.353
3523.41	0.3503
3531.84	0.35
3540.27	0.3537
3548.7	0.3605
3557.12	0.363
3565.55	0.366
3573.98	0.368
3582.4	0.37
3590.83	0.3735
3599.26	0.374
3607.68	0.372
3616.11	0.372
3624.54	0.3713
3632.97	0.371
3641.39	0.3688
3649.82	0.368
3658.25	0.3687
3666.67	0.371
3675.1	0.371
3683.53	0.371
3691.95	0.371
3700.38	0.369
3708.81	0.3675
3717.24	0.3631
3725.66	0.359
3734.09	0.356
3742.52	0.3538
3750.94	0.352
3759.37	0.351
3767.8	0.353
3776.22	0.354
3784.65	0.3535
3793.08	0.3503
3801.5	0.348
3809.93	0.3485
3818.36	0.349
3826.79	0.3455
3835.21	0.344
3843.64	0.3465
3852.07	0.3495
3860.49	0.3448
3868.92	0.338
3877.35	0.3358
3885.77	0.334
3894.2	0.3323
3902.63	0.333
3911.06	0.3443
3919.48	0.347
3927.91	0.345
3936.34	0.3361
3944.76	0.3268
3953.19	0.3265
3961.62	0.3364
3970.04	0.342
