Infrared Spectrum: 4-Hydroxy-3-methoxybenzoic acid, n-butyl ester
Formula: C12 H16 O4
CAS: 5348-74-3
State: SOLUTION (10% CCl4 FOR 3800-1330, 10% CS2 FOR 1330-400 CM^-^1)
Class: COBLENTZ III
Instrument: BECKMAN IR-9 (GRATING)
Instrument parameters: ORDER CHANGES: 670, 1200, 2000 CM^-^1
Sampling: TRANSMISSION
Path length: 0.012 CM, 0.011 CM
Resolution: 2
Origin: DOW CHEMICAL COMPANY
1/CM	TRANSMITTANCE
3800	0.8562
3791	0.8564
3782	0.8568
3773	0.8571
3764	0.8578
3755	0.8568
3746	0.8559
3737	0.8551
3728	0.8531
3719	0.8504
3710	0.8471
3701	0.8421
3692	0.8342
3683	0.8303
3674	0.8373
3665	0.8423
3656	0.8446
3647	0.8447
3638	0.8444
3629	0.8436
3620	0.8389
3611	0.8285
3602	0.8171
3593	0.8078
3584	0.7988
3575	0.7715
3566	0.7105
3557	0.4764
3548	0.2111
3539	0.1424
3530	0.2223
3521	0.3771
3512	0.532
3503	0.6392
3494	0.6578
3485	0.661
3476	0.6583
3467	0.648
3458	0.6339
3449	0.6193
3440	0.6072
3431	0.5973
3422	0.5904
3413	0.5887
3404	0.5898
3395	0.5935
3386	0.5994
3377	0.6079
3368	0.6212
3359	0.6349
3350	0.6488
3341	0.6628
3332	0.6768
3323	0.6912
3314	0.7057
3305	0.7205
3296	0.7356
3287	0.7483
3278	0.7608
3269	0.7731
3260	0.7842
3251	0.7939
3242	0.8014
3233	0.8058
3224	0.8056
3215	0.8038
3206	0.8072
3197	0.815
3188	0.822
3179	0.8293
3170	0.836
3161	0.8425
3152	0.8491
3143	0.8542
3134	0.8556
3125	0.8563
3116	0.8558
3107	0.8538
3098	0.8407
3089	0.8096
3080	0.7726
3071	0.7915
3062	0.8158
3053	0.8178
3044	0.8182
3035	0.8065
3026	0.7807
3017	0.7311
3008	0.6181
2999	0.6287
2990	0.6172
2981	0.4336
2972	0.25
2963	0.093
2954	0.1159
2945	0.2489
2936	0.2197
2927	0.2499
2918	0.426
2909	0.446
2900	0.4896
2891	0.5254
2882	0.5182
2873	0.3864
2864	0.541
2855	0.6247
2846	0.5839
2837	0.6497
2828	0.7626
2819	0.7917
2810	0.8154
2801	0.8285
2792	0.8409
2783	0.8455
2774	0.844
2765	0.8434
2756	0.843
2747	0.842
2738	0.8397
2729	0.8478
2720	0.8533
2711	0.8567
2702	0.8571
2693	0.8556
2684	0.8486
2675	0.8308
2666	0.8258
2657	0.8387
2648	0.8516
2639	0.8554
2630	0.8617
2621	0.8661
2612	0.8653
2603	0.8581
2594	0.8533
2585	0.8503
2576	0.8486
2567	0.8483
2558	0.8442
2549	0.8407
2540	0.8432
2531	0.8478
2522	0.8461
2513	0.8414
2504	0.8388
2495	0.8377
2486	0.84
2477	0.8489
2468	0.8521
2459	0.8543
2450	0.8538
2441	0.8514
2432	0.8506
2423	0.8508
2414	0.8512
2405	0.8515
2396	0.8518
2387	0.852
2378	0.8521
2369	0.8523
2360	0.8524
2351	0.8524
2342	0.8518
2333	0.8512
2324	0.8505
2315	0.8496
2306	0.8496
2297	0.8499
2288	0.8525
2279	0.8583
2270	0.8616
2261	0.8623
2252	0.8621
2243	0.8625
2234	0.8628
2225	0.8632
2216	0.8611
2207	0.857
2198	0.8548
2189	0.8544
2180	0.8546
2171	0.8552
2162	0.854
2153	0.8504
2144	0.8481
2135	0.8478
2126	0.8478
2117	0.8478
2108	0.8482
2099	0.8477
2090	0.8458
2081	0.8364
2072	0.821
2063	0.8151
2054	0.8221
2045	0.8359
2036	0.8471
2027	0.8541
2018	0.8556
2009	0.8527
2000	0.8474
1991	0.8495
1982	0.8556
1973	0.8602
1964	0.8587
1955	0.8551
1946	0.8525
1937	0.8511
1928	0.8497
1919	0.8484
1910	0.8437
1901	0.8312
1892	0.8186
1883	0.8165
1874	0.8482
1865	0.8528
1856	0.8518
1847	0.8492
1838	0.847
1829	0.8432
1820	0.8384
1811	0.8338
1802	0.8243
1793	0.8114
1784	0.7982
1775	0.7748
1766	0.7478
1757	0.7253
1748	0.7014
1739	0.6326
1730	0.3286
1721	0.0331
1712	0.0016
1703	0.0217
1694	0.1862
1685	0.3826
1676	0.5221
1667	0.6359
1658	0.6974
1649	0.7198
1640	0.7204
1631	0.7018
1622	0.5788
1613	0.1404
1604	0.1202
1595	0.2262
1586	0.5849
1577	0.7195
1568	0.7771
1559	0.7922
1550	0.7885
1541	0.7643
1532	0.6564
1523	0.4117
1514	0.0109
1505	0.1434
1496	0.5703
1487	0.6389
1478	0.5672
1469	0.2974
1460	0.1328
1451	0.1492
1442	0.4895
1433	0.1627
1424	0.1465
1415	0.5573
1406	0.6199
1397	0.5895
1388	0.3394
1379	0.1704
1370	0.3177
1361	0.5647
1352	0.5481
1343	0.6251
1334	0.6066
1325	0.5297
1316	0.442
1307	0.132
1298	0.0025
1289	0.0002
1280	0.0159
1271	0.1559
1262	0.2102
1253	0.3837
1244	0.3684
1235	0.1721
1226	0.0001
1217	0.0131
1208	0.0105
1199	0.0314
1190	0.1444
1181	0.2339
1172	0.3759
1163	0.5137
1154	0.5618
1145	0.6975
1136	0.6336
1127	0.3409
1118	0.2163
1109	0.0783
1100	0.0556
1091	0.3203
1082	0.6915
1073	0.7425
1064	0.6938
1055	0.7672
1046	0.5416
1037	0.1283
1028	0.463
1019	0.5853
1010	0.7683
1001	0.6749
992	0.7918
983	0.7361
974	0.5656
965	0.6372
956	0.5424
947	0.5436
938	0.7935
929	0.7658
920	0.8034
911	0.8191
902	0.8135
893	0.7658
884	0.4099
875	0.6007
866	0.9093
857	0.9068
848	0.8406
839	0.7611
830	0.6058
821	0.851
812	0.846
803	0.7922
794	0.6772
785	0.5357
776	0.3288
767	0.0364
758	0.568
749	0.7862
740	0.7661
731	0.8051
722	0.6775
713	0.8725
704	0.889
695	0.8909
686	0.89
677	0.888
668	0.8837
659	0.8658
650	0.8377
641	0.6565
632	0.7424
623	0.848
614	0.843
605	0.8351
596	0.8254
587	0.7974
578	0.7425
569	0.6812
560	0.7671
551	0.8017
542	0.7638
533	0.7814
524	0.7743
515	0.7389
506	0.7034
497	0.6538
488	0.5753
479	0.4465
470	0.3708
461	0.4177
452	0.4287
443	0.4926
434	0.6215
425	0.6833
416	0.6539
407	0.624
