Infrared Spectrum: 4,5-Dichloro-o-phenylenediamine
Formula: C 6 H 6 Cl 2 N 2
CAS: 5348-42-5
State: gas
Origin: EPA-IR VAPOR PHASE LIBRARY
1/CM	ABSORBANCE
501.5	0.005443
513.074	0.005823
524.648	0.006213
536.222	0.007163
547.796	0.007873
559.37	0.008993
570.944	0.010723
582.518	0.013643
594.092	0.015783
605.666	0.017343
617.24	0.015243
628.814	0.012483
640.388	0.013943
651.962	0.015643
663.536	0.016323
675.11	0.018483
686.684	0.014353
698.258	0.009343
709.832	0.009733
721.406	0.009713
732.98	0.008943
744.554	0.008253
756.128	0.007883
767.702	0.007793
779.276	0.008083
790.85	0.008363
802.423	0.007763
813.997	0.006193
825.571	0.005153
837.145	0.005873
848.719	0.010653
860.293	0.015793
871.867	0.009603
883.441	0.005423
895.015	0.004183
906.589	0.003793
918.163	0.003663
929.737	0.003583
941.311	0.004293
952.885	0.006593
964.459	0.007873
976.033	0.005403
987.607	0.003823
999.181	0.003293
1010.76	0.003043
1022.33	0.002873
1033.9	0.002933
1045.48	0.003033
1057.05	0.003253
1068.63	0.003443
1080.2	0.004303
1091.77	0.005203
1103.35	0.006153
1114.92	0.007843
1126.49	0.014053
1138.07	0.009613
1149.64	0.003533
1161.22	0.002883
1172.79	0.003073
1184.36	0.003663
1195.94	0.005773
1207.51	0.009393
1219.09	0.010393
1230.66	0.005953
1242.23	0.004203
1253.81	0.007993
1265.38	0.017013
1276.96	0.014653
1288.53	0.004233
1300.1	0.002393
1311.68	0.002113
1323.25	0.002173
1334.83	0.002003
1346.4	0.001823
1357.97	0.001943
1369.55	0.002503
1381.12	0.004163
1392.7	0.007043
1404.27	0.006403
1415.84	0.003483
1427.42	0.002873
1438.99	0.003783
1450.57	0.006883
1462.14	0.010603
1473.71	0.016193
1485.29	0.041483
1496.86	0.053723
1508.44	0.019513
1520.01	0.006823
1531.58	0.005163
1543.16	0.005603
1554.73	0.006213
1566.31	0.008433
1577.88	0.010053
1589.45	0.008103
1601.03	0.007793
1612.6	0.013873
1624.18	0.019553
1635.75	0.013763
1647.32	0.006513
1658.9	0.003513
1670.47	0.002643
1682.05	0.002593
1693.62	0.002643
1705.19	0.002243
1716.77	0.001883
1728.34	0.001553
1739.92	0.0014322
1751.49	0.0013987
1763.06	0.0013777
1774.64	0.0013887
1786.21	0.0014075
1797.79	0.0013795
1809.36	0.0014663
1820.93	0.0013222
1832.51	0.0011558
1844.08	0.0010724
1855.66	0.00096
1867.23	0.0009365
1878.8	0.0009341
1890.38	0.0008667
1901.95	0.0008997
1913.53	0.0008041
1925.1	0.0008229
1936.67	0.0007584
1948.25	0.0007214
1959.82	0.0007656
1971.4	0.0007055
1982.97	0.0007285
1994.54	0.0007009
2006.12	0.0006898
2017.69	0.0006883
2029.27	0.0006516
2040.84	0.0006857
2052.41	0.0007058
2063.99	0.000741
2075.56	0.0006949
2087.14	0.0005958
2098.71	0.0006081
2110.28	0.000532052
2121.86	0.00056571
2133.43	0.00056851
2145.01	0.00057391
2156.58	0.00062574
2168.15	0.0006614
2179.73	0.0006726
2191.3	0.0006787
2202.88	0.00063203
2214.45	0.00061757
2226.02	0.0006589
2237.6	0.00060616
2249.17	0.0005112
2260.74	0.0004453
2272.32	0.00052379
2283.89	0.000489
2295.47	0.0004748
2307.04	0.000425
2318.61	0.000395
2330.19	0.0004474
2341.76	0.0004813
2353.34	0.000536592
2364.91	0.00053992
2376.48	0.000514
2388.06	0.00055317
2399.63	0.00055529
2411.21	0.0004604
2422.78	0.000488
2434.35	0.000409
2445.93	0.000335
2457.5	0.000328
2469.08	0.000313
2480.65	0.000321
2492.22	0.000374
2503.8	0.000313
2515.37	0.000328
2526.95	0.000367
2538.52	0.000371
2550.09	0.00039
2561.67	0.0004409
2573.24	0.0004949
2584.82	0.00059238
2596.39	0.00052363
2607.96	0.000398
2619.54	0.000375
2631.11	0.000305
2642.69	0.00032
2654.26	0.000311
2665.83	0.000369
2677.41	0.000371
2688.98	0.000392
2700.56	0.000422
2712.13	0.000351
2723.7	0.000342
2735.28	0.000295
2746.85	0.000307
2758.43	0.000296
2770	0.000304
2781.57	0.00026
2793.15	0.00026
2804.72	0.000218
2816.3	0.000279
2827.87	0.000352
2839.44	0.000415
2851.02	0.000391
2862.59	0.000385
2874.17	0.000388
2885.74	0.0004433
2897.31	0.000356
2908.89	0.000251
2920.46	0.000191
2932.04	0.000182
2943.61	0.000156
2955.18	0.000134
2966.76	0.000205
2978.33	0.000197
2989.91	0.000231
3001.48	0.000246
3013.05	0.00024
3024.63	0.00058305
3036.2	0.0009191
3047.78	0.0010048
3059.35	0.0011225
3070.92	0.0006981
3082.5	0.00055091
3094.07	0.000428
3105.65	0.000348
3117.22	0.0002
3128.79	0.000131
3140.37	0.00023
3151.94	0.000277
3163.52	0.000228
3175.09	0.000266
3186.66	0.000358
3198.24	0.0005013
3209.81	0.0004758
3221.39	0.0004458
3232.96	0.0004668
3244.53	0.0005057
3256.11	0.000354
3267.68	0.000374
3279.26	0.000292
3290.83	0.000306
3302.4	0.000365
3313.98	0.000241
3325.55	0.000339
3337.13	0.00052619
3348.7	0.0008692
3360.27	0.002353
3371.85	0.004773
3383.42	0.003773
3395	0.002023
3406.57	0.0013219
3418.14	0.0011864
3429.72	0.0012023
3441.29	0.002053
3452.86	0.004113
3464.44	0.004923
3476.01	0.003283
3487.59	0.001963
3499.16	0.0013108
3510.73	0.0009804
3522.31	0.0007305
3533.88	0.0007004
3545.46	0.00056721
3557.03	0.0005118
3568.6	0.000316
3580.18	0.000288
3591.75	0.000245
3603.33	0.000398
3614.9	0.000267
3626.47	0.000206
3638.05	0.000316
3649.62	0.000236
3661.2	0.000176
3672.77	0.000267
3684.34	0.000138
3695.92	0.000214
3707.49	0.000164
3719.07	0.000168
3730.64	0.000176
3742.21	0.000222
3753.79	0.000123
3765.36	0.000125
3776.94	0.000232
3788.51	0.000117
3800.08	0.000187
3811.66	0.000223
3823.23	0.000129
3834.81	3.2e-05
3846.38	0.000102
3857.95	0
3869.53	0.000123
3881.1	7.7e-05
3892.68	0.000126
3904.25	8e-05
3915.82	0.000138
3927.4	0.000102
3938.97	0.00013
3950.55	5e-05
3962.12	0.000232
3973.69	8.7e-05
3985.27	0.000136
3996.84	0.000195
