Infrared Spectrum: Triethyl aconitate
Formula: C12 H18 O6
CAS: 5349-99-5
State: SOLUTION (10% CCl4 FOR 2.7-7.5, 10% CS2 FOR 7.5-26 MICRON) VS SOLVENT
Class: COBLENTZ III
Instrument: DOW KBr FOREPRISM-GRATING
Instrument parameters: BLAZED AT 3.5, 12.0, 20.0 MICRON AND CHANGED AT 5.0, 7.5, 14.9 MICRON
Sampling: TRANSMISSION
Path length: 0.011 CM, 0.011 CM
Resolution: 2
Origin: DOW CHEMICAL COMPANY
1/CM	TRANSMITTANCE
3800	0.8615
3791	0.862
3782	0.8627
3773	0.863
3764	0.8633
3755	0.8637
3746	0.8639
3737	0.8636
3728	0.8633
3719	0.8631
3710	0.864
3701	0.8641
3692	0.8634
3683	0.8613
3674	0.8568
3665	0.854
3656	0.8562
3647	0.858
3638	0.8589
3629	0.8597
3620	0.8603
3611	0.8607
3602	0.8612
3593	0.8615
3584	0.8618
3575	0.8597
3566	0.8565
3557	0.8535
3548	0.851
3539	0.8494
3530	0.8484
3521	0.8482
3512	0.8485
3503	0.849
3494	0.8496
3485	0.8504
3476	0.8509
3467	0.8484
3458	0.8442
3449	0.839
3440	0.8327
3431	0.8265
3422	0.8213
3413	0.8198
3404	0.8295
3395	0.8441
3386	0.8557
3377	0.8585
3368	0.8573
3359	0.8568
3350	0.8568
3341	0.8568
3332	0.8568
3323	0.8567
3314	0.8567
3305	0.8567
3296	0.8568
3287	0.8568
3278	0.8571
3269	0.8574
3260	0.8575
3251	0.8578
3242	0.858
3233	0.8582
3224	0.8585
3215	0.8585
3206	0.8585
3197	0.8585
3188	0.8588
3179	0.8588
3170	0.8583
3161	0.8571
3152	0.8573
3143	0.8554
3134	0.8551
3125	0.8532
3116	0.8507
3107	0.8471
3098	0.8428
3089	0.8381
3080	0.8325
3071	0.8287
3062	0.8292
3053	0.8284
3044	0.8243
3035	0.8103
3026	0.7586
3017	0.7199
3008	0.5601
2999	0.3452
2990	0.1454
2981	0.1405
2972	0.3628
2963	0.3884
2954	0.4659
2945	0.5039
2936	0.4201
2927	0.5403
2918	0.6193
2909	0.525
2900	0.5144
2891	0.6155
2882	0.7103
2873	0.675
2864	0.7074
2855	0.7824
2846	0.8018
2837	0.8098
2828	0.8167
2819	0.822
2810	0.8268
2801	0.8353
2792	0.8468
2783	0.8502
2774	0.8474
2765	0.8451
2756	0.8455
2747	0.8471
2738	0.8488
2729	0.8491
2720	0.8509
2711	0.8556
2702	0.8583
2693	0.86
2684	0.8599
2675	0.859
2666	0.8592
2657	0.8594
2648	0.8593
2639	0.8592
2630	0.8593
2621	0.8594
2612	0.8595
2603	0.8596
2594	0.8596
2585	0.8595
2576	0.8593
2567	0.859
2558	0.8597
2549	0.8609
2540	0.8628
2531	0.8647
2522	0.8663
2513	0.8668
2504	0.8652
2495	0.8638
2486	0.8625
2477	0.8621
2468	0.8635
2459	0.8653
2450	0.8671
2441	0.8681
2432	0.868
2423	0.8666
2414	0.865
2405	0.8625
2396	0.8604
2387	0.8582
2378	0.8561
2369	0.8546
2360	0.8543
2351	0.8548
2342	0.8556
2333	0.8564
2324	0.8582
2315	0.8611
2306	0.8657
2297	0.8675
2288	0.8691
2279	0.8696
2270	0.8701
2261	0.8703
2252	0.8706
2243	0.8725
2234	0.8744
2225	0.876
2216	0.8765
2207	0.8775
2198	0.8774
2189	0.8761
2180	0.8817
2171	0.8796
2162	0.8734
2153	0.8712
2144	0.8698
2135	0.8696
2126	0.8696
2117	0.8702
2108	0.8683
2099	0.8638
2090	0.8602
2081	0.8585
2072	0.8573
2063	0.858
2054	0.8609
2045	0.8653
2036	0.869
2027	0.8705
2018	0.8693
2009	0.8689
2000	0.8715
1991	0.8709
1982	0.8704
1973	0.8711
1964	0.8689
1955	0.8666
1946	0.8649
1937	0.8649
1928	0.8659
1919	0.8631
1910	0.8586
1901	0.8525
1892	0.8474
1883	0.8431
1874	0.842
1865	0.8446
1856	0.8481
1847	0.8494
1838	0.8442
1829	0.8291
1820	0.8053
1811	0.7715
1802	0.7447
1793	0.73
1784	0.7061
1775	0.6622
1766	0.5299
1757	0.3373
1748	0.1157
1739	0.0026
1730	0.0002
1721	0.0001
1712	0
1703	0.1654
1694	0.4216
1685	0.5189
1676	0.586
1667	0.6093
1658	0.3489
1649	0.3459
1640	0.611
1631	0.7251
1622	0.7651
1613	0.7865
1604	0.7981
1595	0.8058
1586	0.8097
1577	0.8101
1568	0.8087
1559	0.8089
1550	0.8144
1541	0.8187
1532	0.816
1523	0.8141
1514	0.8121
1505	0.8039
1496	0.785
1487	0.7104
1478	0.3892
1469	0.3705
1460	0.4841
1451	0.4041
1442	0.5052
1433	0.6314
1424	0.5922
1415	0.3914
1406	0.4723
1397	0.329
1388	0.3946
1379	0.2304
1370	0.0548
1361	0.453
1352	0.4848
1343	0.529
1334	0.4696
1325	0.1468
1316	0.0854
1307	0.2351
1298	0.1641
1289	0.1342
1280	0.0358
1271	0
1262	0.02
1253	0.0851
1244	0.0815
1235	0.101
1226	0.0905
1217	0.0724
1208	0.0762
1199	0.0404
1190	0.0094
1181	0
1172	0.0001
1163	0.0001
1154	0.0259
1145	0.2645
1136	0.3846
1127	0.4386
1118	0.3784
1109	0.3177
1100	0.1151
1091	0.0766
1082	0.334
1073	0.5354
1064	0.5593
1055	0.4971
1046	0.3124
1037	0.0277
1028	0.0343
1019	0.2629
1010	0.4845
1001	0.6136
992	0.6807
983	0.7054
974	0.6303
965	0.6093
956	0.6688
947	0.6226
938	0.6303
929	0.6338
920	0.6097
911	0.5109
902	0.5438
893	0.6386
884	0.6961
875	0.7046
866	0.5286
857	0.5372
848	0.5927
839	0.7234
830	0.7415
821	0.7161
812	0.6236
803	0.5899
794	0.3916
785	0.3674
776	0.5695
767	0.6565
758	0.7044
749	0.7271
740	0.7353
731	0.7425
722	0.7536
713	0.7648
704	0.7742
695	0.7769
686	0.7745
677	0.7667
668	0.7639
659	0.764
650	0.75
641	0.754
632	0.763
623	0.7658
614	0.7658
605	0.7582
596	0.7468
587	0.7346
578	0.7211
569	0.7118
560	0.7112
551	0.7132
542	0.7146
533	0.7168
524	0.7306
515	0.7474
506	0.7555
497	0.754
488	0.7511
479	0.748
470	0.7425
461	0.7347
452	0.726
443	0.7193
434	0.7178
425	0.7172
416	0.7172
407	0.7176
398	0.7168
