Infrared Spectrum: 1-Methyl-3-isopropylbenzene
Formula: C 10 H 14
CAS: 535-77-3
State: gas
Instrument: HP-GC/MS/IRD
Origin: NIST Mass Spectrometry Data Center
1/CM	ABSORBANCE
550	0.0002232
562	7.56e-05
574	0.000306
586	0.0001188
598	0.0002844
610	8.64e-05
622	1.08e-05
634	0.0001404
646	0.0003024
658	0.000378
670	0.000594
682	0.0019044
694	0.0058212
706	0.0079524
718	0.0030024
730	0.0008136
742	0.0005256
754	0.0011988
766	0.0042876
778	0.0092772
790	0.005616
802	0.00162
814	0.0005544
826	0.0004248
838	0.0005796
850	0.000684
862	0.00081
874	0.0014148
886	0.0012456
898	0.0012564
910	0.0017172
922	0.0012852
934	0.00054
946	0.000252
958	0.0002412
970	0.000342
982	0.0005076
994	0.0005112
1006	0.0003852
1018	0.0003636
1030	0.0006444
1042	0.0015264
1054	0.0021096
1066	0.0014544
1078	0.0017856
1090	0.0017568
1102	0.0011916
1114	0.0005868
1126	0.0004392
1138	0.000414
1150	0.0004716
1162	0.0008028
1174	0.0012852
1186	0.0009936
1198	0.0003888
1210	0.0003636
1222	0.0004032
1234	0.0004212
1246	0.0004428
1258	0.000576
1270	0.00108
1282	0.0012492
1294	0.001206
1306	0.0016812
1318	0.0016812
1330	0.0018576
1342	0.001836
1354	0.0018792
1366	0.0027252
1378	0.0031176
1390	0.0029736
1402	0.0020304
1414	0.0018468
1426	0.0024876
1438	0.0035712
1450	0.0044676
1462	0.0054612
1474	0.005886
1486	0.0059868
1498	0.0045072
1510	0.0024408
1522	0.001908
1534	0.0016524
1546	0.0014328
1558	0.0014616
1570	0.0018864
1582	0.0030528
1594	0.005706
1606	0.0072792
1618	0.0038376
1630	0.00117
1642	0.0006444
1654	0.0005904
1666	0.0006984
1678	0.000684
1690	0.0003744
1702	0.0003204
1714	0.00027
1726	0.0002988
1738	0.0004752
1750	0.0006084
1762	0.0006552
1774	0.0006372
1786	0.000432
1798	0.0002844
1810	0.0002448
1822	0.0003024
1834	0.0004752
1846	0.0006336
1858	0.0006624
1870	0.0003888
1882	0.0001908
1894	0.0001908
1906	0.0002592
1918	0.0005328
1930	0.0005832
1942	0.00036
1954	0.0001584
1966	0.000108
1978	9.36e-05
1990	9e-05
2002	7.2e-05
2014	0.0001044
2026	7.56e-05
2038	5.76e-05
2050	7.56e-05
2062	5.04e-05
2074	2.88e-05
2086	5.76e-05
2098	5.04e-05
2110	5.04e-05
2122	1.8e-05
2134	9e-05
2146	3.6e-05
2158	3.6e-05
2170	2.88e-05
2182	0
2194	1.44e-05
2206	3.24e-05
2218	7.2e-05
2230	7.56e-05
2242	3.96e-05
2254	2.52e-05
2266	7.2e-05
2278	8.28e-05
2290	8.28e-05
2302	0.0001044
2314	7.2e-05
2326	7.56e-05
2338	0.0001044
2350	0.0001044
2362	8.64e-05
2374	0.000144
2386	0.0001188
2398	0.0001296
2410	0.0001404
2422	0.000126
2434	0.0001332
2446	9e-05
2458	0.0001296
2470	0.000144
2482	0.0001224
2494	0.000126
2506	0.0001296
2518	0.0001116
2530	9.36e-05
2542	0.0001116
2554	0.0001476
2566	0.0001656
2578	0.0002124
2590	0.0003096
2602	0.0002952
2614	0.0002268
2626	0.0001872
2638	0.00018
2650	0.0001692
2662	0.0001908
2674	0.0001944
2686	0.0001872
2698	0.0002196
2710	0.000324
2722	0.0004932
2734	0.000666
2746	0.0006876
2758	0.0005976
2770	0.000594
2782	0.000594
2794	0.0006588
2806	0.000846
2818	0.0011052
2830	0.0014364
2842	0.0021816
2854	0.0038268
2866	0.007272
2878	0.0116532
2890	0.0122148
2902	0.012618
2914	0.0137628
2926	0.0167184
2938	0.0188676
2950	0.018648
2962	0.031644
2974	0.0326628
2986	0.0133848
2998	0.0077976
3010	0.0081036
3022	0.0101736
3034	0.010962
3046	0.0096444
3058	0.0087732
3070	0.0066276
3082	0.0039636
3094	0.0028404
3106	0.0021816
3118	0.0013824
3130	0.0008208
3142	0.0006516
3154	0.0006336
3166	0.0005328
3178	0.0005328
3190	0.0004896
3202	0.0004968
3214	0.0004212
3226	0.0003528
3238	0.0002412
3250	0.0001908
3262	0.0001836
3274	0.0001872
3286	0.000162
3298	0.0001584
3310	0.0001008
3322	0.0001044
3334	8.28e-05
3346	9.72e-05
3358	0.0001224
3370	3.24e-05
3382	9e-05
3394	7.2e-05
3406	7.56e-05
3418	0.0001044
3430	0.0001548
3442	8.28e-05
3454	0.0001044
3466	0.0001116
3478	8.28e-05
3490	7.92e-05
3502	7.56e-05
3514	0.0001008
3526	0.0001152
3538	9e-05
3550	7.92e-05
3562	9.72e-05
3574	0.000108
3586	0.0001548
3598	8.64e-05
3610	0.000108
3622	1.8e-05
3634	9.36e-05
3646	0.0001332
3658	0.0001188
3670	0.0001404
3682	7.2e-05
3694	9.36e-05
3706	0.0001188
3718	0.000108
3730	0.0001332
3742	0.0002232
3754	0.0001728
3766	0.0001656
3778	8.28e-05
3790	0.0001008
3802	0.0001836
3814	0.00018
3826	0.0001692
3838	0.0001512
