Infrared Spectrum: 5-Methyl-3-heptene
Formula: C 8 H 16
CAS: 53510-18-2
State: gas
Instrument: HP-GC/MS/IRD
Origin: NIST Mass Spectrometry Data Center
1/CM	ABSORBANCE
550	0.0001975
562	7.25e-05
574	0.0001775
586	0.000205
598	8.75e-05
610	0.0001525
622	0.00011
634	0.0001
646	0.00014
658	7.5e-05
670	8e-05
682	0.0001525
694	0.0001775
706	0.00013
718	0.0001325
730	0.00018
742	0.000275
754	0.000285
766	0.0004375
778	0.0004875
790	0.00055
802	0.0004275
814	0.000315
826	0.00025
838	0.0002175
850	0.000245
862	0.0002575
874	0.0003025
886	0.0003975
898	0.000645
910	0.000865
922	0.0008775
934	0.0009025
946	0.00163
958	0.00316
970	0.0038975
982	0.00266
994	0.0015025
1006	0.0011775
1018	0.001075
1030	0.0007925
1042	0.0004875
1054	0.0004975
1066	0.000585
1078	0.0006125
1090	0.0005975
1102	0.00046
1114	0.000325
1126	0.0002975
1138	0.0002725
1150	0.0003375
1162	0.0003175
1174	0.000265
1186	0.0002275
1198	0.00018
1210	0.0001875
1222	0.000275
1234	0.0003725
1246	0.0003675
1258	0.000455
1270	0.0005275
1282	0.0007125
1294	0.0008075
1306	0.000845
1318	0.000925
1330	0.00105
1342	0.001085
1354	0.0010875
1366	0.001285
1378	0.001745
1390	0.0015775
1402	0.0008975
1414	0.00072
1426	0.000865
1438	0.0013725
1450	0.0024175
1462	0.0030575
1474	0.0022575
1486	0.0011
1498	0.00059
1510	0.000355
1522	0.0002725
1534	0.0002325
1546	0.000225
1558	0.000215
1570	0.0002125
1582	0.0001725
1594	0.00019
1606	0.0002
1618	0.000145
1630	0.0001575
1642	0.000175
1654	0.0001975
1666	0.00019
1678	0.0001825
1690	0.000165
1702	0.000175
1714	0.0001575
1726	0.0001575
1738	0.0001625
1750	0.0001525
1762	0.0001775
1774	0.0002175
1786	0.00023
1798	0.000235
1810	0.0001575
1822	0.00014
1834	8.75e-05
1846	7.25e-05
1858	7.25e-05
1870	7.5e-05
1882	7e-05
1894	6.75e-05
1906	5.5e-05
1918	5e-05
1930	4.5e-05
1942	1.5e-05
1954	5.25e-05
1966	5.5e-05
1978	7e-05
1990	1e-05
2002	3.75e-05
2014	4.25e-05
2026	5e-05
2038	5.75e-05
2050	4e-05
2062	3.75e-05
2074	4e-05
2086	4.25e-05
2098	1.25e-05
2110	4.25e-05
2122	2.25e-05
2134	2.75e-05
2146	3.75e-05
2158	2.5e-05
2170	2.25e-05
2182	5.5e-05
2194	4.75e-05
2206	2.5e-05
2218	3.5e-05
2230	3.5e-05
2242	3.75e-05
2254	5.75e-05
2266	4e-05
2278	5.5e-05
2290	5.75e-05
2302	5.5e-05
2314	6.25e-05
2326	4.75e-05
2338	8e-05
2350	8.25e-05
2362	0.0001075
2374	8e-05
2386	9.5e-05
2398	9.75e-05
2410	9.5e-05
2422	9.25e-05
2434	5e-05
2446	6.5e-05
2458	6e-05
2470	6.25e-05
2482	6.5e-05
2494	9.5e-05
2506	7.25e-05
2518	9.5e-05
2530	0.0001125
2542	0.000105
2554	0.00012
2566	0.0001525
2578	0.00014
2590	0.0001675
2602	0.0001925
2614	0.00015
2626	0.000175
2638	0.0001575
2650	0.0002
2662	0.00021
2674	0.0002175
2686	0.0002225
2698	0.000235
2710	0.0002925
2722	0.000345
2734	0.0004425
2746	0.00052
2758	0.000455
2770	0.0004575
2782	0.0005425
2794	0.000665
2806	0.000855
2818	0.001095
2830	0.00147
2842	0.0023075
2854	0.004425
2866	0.00731
2878	0.0096975
2890	0.0099
2902	0.008955
2914	0.0106225
2926	0.0133625
2938	0.014525
2950	0.014935
2962	0.0214925
2974	0.02381
2986	0.012455
2998	0.00559
3010	0.003635
3022	0.0027825
3034	0.002125
3046	0.0015675
3058	0.00119
3070	0.001
3082	0.000885
3094	0.0007525
3106	0.0006975
3118	0.0005925
3130	0.0005725
3142	0.0004725
3154	0.000445
3166	0.000445
3178	0.0003675
3190	0.0003275
3202	0.000305
3214	0.000265
3226	0.000225
3238	0.0001525
3250	0.0001425
3262	0.0001275
3274	0.0001075
3286	0.000125
3298	0.0001375
3310	0.00011
3322	0.0001325
3334	0.0001
3346	0.000105
3358	0.00011
3370	0.0001225
3382	0.00012
3394	8.75e-05
3406	0.0001125
3418	0.0001225
3430	7.75e-05
3442	6e-05
3454	5.75e-05
3466	0.0001125
3478	8.25e-05
3490	0.00011
3502	6.25e-05
3514	0.0001125
3526	0.000125
3538	6.5e-05
3550	9.75e-05
3562	6.25e-05
3574	9e-05
3586	3.75e-05
3598	5.5e-05
3610	0.00013
3622	0.000105
3634	0.000115
3646	0.0001325
3658	0.0001175
3670	0.0001125
3682	0.0001225
3694	0.0001125
3706	8.75e-05
3718	0.00016
3730	6e-05
3742	0.0001225
3754	0.00013
3766	0.000115
3778	0.00014
3790	0.000125
3802	0.000135
3814	0.0001325
3826	0.0001475
3838	0.000185
