Infrared Spectrum: p-Hydroxybenzoic acid, hydrazide
Formula: C7 H8 N2 O2
CAS: 5351-23-5
State: SOLID (SPLIT MULL), FLUOROLUBE FOR 3800-1330 CM^-^1, NUJOL FOR 1330-460 CM^-^1
Class: COBLENTZ III
Instrument: DOW KBr FOREPRISM-GRATING
Instrument parameters: BLAZED AT 3.5, 12.0, 20.0 MICRON AND CHANGED AT 5.0, 7.5, 14.9 MICRON
Sampling: TRANSMISSION
Resolution: 2
Origin: DOW CHEMICAL COMPANY
1/CM	TRANSMITTANCE
3796	0.6607
3787	0.6653
3778	0.6693
3769	0.6735
3760	0.676
3751	0.6783
3742	0.6807
3733	0.6832
3724	0.6854
3715	0.6864
3706	0.6871
3697	0.6871
3688	0.6868
3679	0.6862
3670	0.6878
3661	0.6914
3652	0.6956
3643	0.6985
3634	0.7014
3625	0.7037
3616	0.7057
3607	0.7076
3598	0.7098
3589	0.7118
3580	0.714
3571	0.716
3562	0.7181
3553	0.7201
3544	0.7221
3535	0.7247
3526	0.7278
3517	0.7308
3508	0.7337
3499	0.7365
3490	0.7395
3481	0.7418
3472	0.7441
3463	0.7464
3454	0.7485
3445	0.7505
3436	0.7525
3427	0.7546
3418	0.7567
3409	0.7581
3400	0.7568
3391	0.7526
3382	0.7453
3373	0.7365
3364	0.7226
3355	0.6991
3346	0.6421
3337	0.5324
3328	0.4148
3319	0.2703
3310	0.2056
3301	0.2663
3292	0.3309
3283	0.3957
3274	0.4
3265	0.3873
3256	0.4591
3247	0.5341
3238	0.5652
3229	0.581
3220	0.5905
3211	0.5907
3202	0.4504
3193	0.3636
3184	0.4259
3175	0.489
3166	0.5156
3157	0.5335
3148	0.5434
3139	0.5489
3130	0.5505
3121	0.5512
3112	0.5478
3103	0.5473
3094	0.549
3085	0.5446
3076	0.5433
3067	0.5384
3058	0.5378
3049	0.5405
3040	0.5319
3031	0.5391
3022	0.5472
3013	0.5129
3004	0.5087
2995	0.5127
2986	0.524
2977	0.537
2968	0.5483
2959	0.5495
2950	0.5412
2941	0.5435
2932	0.5543
2923	0.5632
2914	0.5652
2905	0.5556
2896	0.5531
2887	0.5536
2878	0.5569
2869	0.5718
2860	0.586
2851	0.5997
2842	0.6035
2833	0.6019
2824	0.585
2815	0.5577
2806	0.5382
2797	0.5295
2788	0.5596
2779	0.5784
2770	0.5854
2761	0.5823
2752	0.5727
2743	0.5774
2734	0.5916
2725	0.6043
2716	0.6142
2707	0.6093
2698	0.5519
2689	0.5227
2680	0.5124
2671	0.523
2662	0.5527
2653	0.5735
2644	0.588
2635	0.591
2626	0.5524
2617	0.5417
2608	0.55
2599	0.564
2590	0.5783
2581	0.593
2572	0.6094
2563	0.6257
2554	0.6399
2545	0.6525
2536	0.6587
2527	0.6458
2518	0.6393
2509	0.6522
2500	0.6576
2491	0.6584
2482	0.6653
2473	0.6794
2464	0.6919
2455	0.7012
2446	0.7092
2437	0.7162
2428	0.7234
2419	0.7304
2410	0.7365
2401	0.7422
2392	0.7482
2383	0.7542
2374	0.7603
2365	0.7664
2356	0.7725
2347	0.7782
2338	0.7833
2329	0.7883
2320	0.7928
2311	0.7967
2302	0.8006
2293	0.8045
2284	0.8086
2275	0.8125
2266	0.8165
2257	0.8208
2248	0.8251
2239	0.8294
2230	0.8335
2221	0.837
2212	0.8406
2203	0.8441
2194	0.8474
2185	0.8505
2176	0.8538
2167	0.8563
2158	0.8588
2149	0.8612
2140	0.8636
2131	0.8663
2122	0.8685
2113	0.8704
2104	0.8706
2095	0.8683
2086	0.8703
2077	0.8735
2068	0.8773
2059	0.881
2050	0.8845
2041	0.887
2032	0.8892
2023	0.8905
2014	0.893
2005	0.8962
1996	0.879
1987	0.8603
1978	0.8638
1969	0.8654
1960	0.8685
1951	0.8654
1942	0.8665
1933	0.8685
1924	0.8706
1915	0.8684
1906	0.8653
1897	0.8641
1888	0.861
1879	0.8663
1870	0.8659
1861	0.8723
1852	0.8759
1843	0.8765
1834	0.8755
1825	0.8752
1816	0.8762
1807	0.8792
1798	0.8818
1789	0.8841
1780	0.885
1771	0.8855
1762	0.8857
1753	0.8862
1744	0.8852
1735	0.8854
1726	0.8846
1717	0.8746
1708	0.8814
1699	0.88
1690	0.8794
1681	0.8851
1672	0.8823
1663	0.8543
1654	0.8363
1645	0.7568
1636	0.5928
1627	0.2728
1618	0.0909
1609	0.1893
1600	0.2349
1591	0.1866
1582	0.3228
1573	0.5638
1564	0.6568
1555	0.6976
1546	0.634
1537	0.3975
1528	0.5409
1519	0.6664
1510	0.2638
1501	0.4495
1492	0.5628
1483	0.5762
1474	0.5346
1465	0.3823
1456	0.546
1447	0.6648
1438	0.698
1429	0.7591
1420	0.7805
1411	0.7946
1402	0.7911
1393	0.5909
1384	0.6771
1375	0.746
1366	0.7548
1357	0.714
1348	0.6068
1339	0.4118
1330	0.3892
1321	0.4284
1312	0.673
1303	0.7089
1294	0.693
1285	0.4174
1276	0.1241
1267	0.4137
1258	0.3303
1249	0.4637
1240	0.6231
1231	0.6975
1222	0.7347
1213	0.7615
1204	0.7776
1195	0.7871
1186	0.7061
1177	0.571
1168	0.6878
1159	0.7743
1150	0.7926
1141	0.7955
1132	0.7671
1123	0.6229
1114	0.7954
1105	0.8068
1096	0.8312
1087	0.8394
1078	0.8401
1069	0.8359
1060	0.8411
1051	0.8423
1042	0.8444
1033	0.8459
1024	0.8454
1015	0.8388
1006	0.8308
997	0.6655
988	0.5895
979	0.7662
970	0.7965
961	0.8061
952	0.805
943	0.8117
934	0.7854
925	0.8011
916	0.7946
907	0.7742
898	0.6521
889	0.7788
880	0.8268
871	0.8097
862	0.8044
853	0.5059
844	0.6653
835	0.7707
826	0.8139
817	0.7887
808	0.8368
799	0.8494
790	0.857
781	0.859
772	0.6946
763	0.6676
754	0.809
745	0.8309
736	0.8373
727	0.8325
718	0.822
709	0.8575
700	0.8575
691	0.8606
682	0.857
673	0.8439
664	0.8193
655	0.7824
646	0.7214
637	0.8278
628	0.798
619	0.4092
610	0.6187
601	0.7441
592	0.7871
583	0.803
574	0.8106
565	0.8174
556	0.8228
547	0.8209
538	0.8143
529	0.796
520	0.795
511	0.8121
502	0.8135
493	0.7998
484	0.6601
475	0.7751
466	0.7858
457	0.7888
