Infrared Spectrum: HEXANOIC ACID, 4-PHENYL-
Formula: C12 H16 O2
CAS: 5354-04-1
State: LIQUID (NEAT)
Class: COBLENTZ III
Instrument: PERKIN-ELMER 21 (GRATING)
Instrument parameters: FILTER AT ABOUT 10 MICRONS
Sampling: TRANSMISSION
Path length: CAPILLARY
Resolution: 2
1/CM	TRANSMITTANCE
4000	0.8638
3991	0.8649
3982	0.866
3973	0.8671
3964	0.8682
3955	0.869
3946	0.87
3937	0.8709
3928	0.8717
3919	0.8725
3910	0.8732
3901	0.8736
3892	0.8741
3883	0.8745
3874	0.8749
3865	0.8755
3856	0.8759
3847	0.8761
3838	0.8763
3829	0.8764
3820	0.8766
3811	0.8767
3802	0.8768
3793	0.877
3784	0.8771
3775	0.8773
3766	0.8773
3757	0.8773
3748	0.8774
3739	0.8774
3730	0.8773
3721	0.8771
3712	0.8768
3703	0.8765
3694	0.8763
3685	0.876
3676	0.8756
3667	0.8754
3658	0.8752
3649	0.8749
3640	0.8747
3631	0.8744
3622	0.8742
3613	0.8738
3604	0.8734
3595	0.873
3586	0.8725
3577	0.8718
3568	0.871
3559	0.8684
3550	0.8646
3541	0.8611
3532	0.8602
3523	0.8593
3514	0.8578
3505	0.8551
3496	0.8518
3487	0.8482
3478	0.844
3469	0.8375
3460	0.8311
3451	0.8248
3442	0.8191
3433	0.8135
3424	0.8074
3415	0.801
3406	0.7926
3397	0.7744
3388	0.7611
3379	0.7504
3370	0.738
3361	0.7244
3352	0.7131
3343	0.7047
3334	0.6964
3325	0.688
3316	0.6797
3307	0.6704
3298	0.6597
3289	0.6497
3280	0.6399
3271	0.6297
3262	0.6179
3253	0.6083
3244	0.5988
3235	0.5883
3226	0.5742
3217	0.5586
3208	0.5414
3199	0.5297
3190	0.5185
3181	0.5079
3172	0.498
3163	0.4883
3154	0.4785
3145	0.4681
3136	0.4568
3127	0.4441
3118	0.4307
3109	0.4177
3100	0.4071
3091	0.3971
3082	0.3873
3073	0.3773
3064	0.3688
3055	0.3626
3046	0.3453
3037	0.3403
3028	0.3445
3019	0.3566
3010	0.3632
3001	0.3628
2992	0.3375
2983	0.2935
2974	0.2534
2965	0.2483
2956	0.2476
2947	0.2434
2938	0.2338
2929	0.2312
2920	0.243
2911	0.268
2902	0.293
2893	0.3131
2884	0.3131
2875	0.3141
2866	0.3214
2857	0.3399
2848	0.3734
2839	0.4265
2830	0.4682
2821	0.4994
2812	0.5192
2803	0.533
2794	0.542
2785	0.5501
2776	0.5575
2767	0.5623
2758	0.5664
2749	0.57
2740	0.5731
2731	0.5755
2722	0.5762
2713	0.576
2704	0.5755
2695	0.5743
2686	0.5715
2677	0.5645
2668	0.5589
2659	0.5579
2650	0.5588
2641	0.562
2632	0.5689
2623	0.5775
2614	0.5847
2605	0.5887
2596	0.5899
2587	0.5912
2578	0.5932
2569	0.5953
2560	0.6004
2551	0.6073
2542	0.6151
2533	0.6264
2524	0.639
2515	0.6532
2506	0.6667
2497	0.679
2488	0.6904
2479	0.7017
2470	0.7138
2461	0.7251
2452	0.7334
2443	0.7415
2434	0.7494
2425	0.7549
2416	0.76
2407	0.7651
2398	0.7718
2389	0.7781
2380	0.7807
2371	0.7807
2362	0.781
2353	0.7828
2344	0.7865
2335	0.7911
2326	0.796
2317	0.8007
2308	0.8054
2299	0.8085
2290	0.8087
2281	0.8092
2272	0.8101
2263	0.8125
2254	0.8148
2245	0.8175
2236	0.8203
2227	0.8217
2218	0.8233
2209	0.8247
2200	0.826
2191	0.8282
2182	0.8305
2173	0.8325
2164	0.8346
2155	0.8365
2146	0.8362
2137	0.8351
2128	0.8345
2119	0.8344
2110	0.8378
2101	0.8381
2092	0.8358
2083	0.8364
2074	0.8383
2065	0.8382
2056	0.8374
2047	0.8377
2038	0.8384
2029	0.8381
2020	0.8373
2011	0.8359
2002	0.8343
1993	0.8318
1984	0.8283
1975	0.8242
1966	0.819
1957	0.8133
1948	0.8088
1939	0.81
1930	0.8138
1921	0.8167
1912	0.8175
1903	0.8128
1894	0.8061
1885	0.8026
1876	0.7938
1867	0.7901
1858	0.7915
1849	0.7918
1840	0.7897
1831	0.7826
1822	0.7734
1813	0.7645
1804	0.753
1795	0.7306
1786	0.6975
1777	0.6875
1768	0.6615
1759	0.6129
1750	0.4901
1741	0.4336
1732	0.3382
1723	0.1784
1714	0.0481
1705	0.0638
1696	0.2676
1687	0.415
1678	0.5667
1669	0.645
1660	0.6784
1651	0.7128
1642	0.7439
1633	0.771
1624	0.7788
1615	0.7817
1606	0.7025
1597	0.7722
1588	0.7858
1579	0.796
1570	0.8224
1561	0.8299
1552	0.822
1543	0.8201
1534	0.8249
1525	0.8249
1516	0.8192
1507	0.8055
1498	0.5141
1489	0.7284
1480	0.7525
1471	0.6881
1462	0.488
1453	0.3512
1444	0.4936
1435	0.5022
1426	0.4707
1417	0.429
1408	0.4612
1399	0.5825
1390	0.6605
1381	0.6292
1372	0.6844
1363	0.6747
1354	0.684
1345	0.6511
1336	0.6306
1327	0.6076
1318	0.5356
1309	0.4698
1300	0.4577
1291	0.441
1282	0.4393
1273	0.4629
1264	0.4869
1255	0.4888
1246	0.4491
1237	0.4948
1228	0.5706
1219	0.523
1210	0.5142
1201	0.5772
1192	0.5998
1183	0.6268
1174	0.6321
1165	0.6251
1156	0.623
1147	0.6484
1138	0.7039
1129	0.7525
1120	0.7678
1111	0.744
1102	0.7345
1093	0.7593
1084	0.7665
1075	0.745
1066	0.7784
1057	0.7619
1048	0.7615
1039	0.7758
1030	0.7103
1021	0.7522
1012	0.7715
1003	0.7321
994	0.7231
985	0.7218
976	0.7087
967	0.6685
958	0.6373
949	0.5985
940	0.5747
931	0.5666
922	0.571
913	0.601
904	0.6062
895	0.6436
886	0.6669
877	0.691
868	0.7072
859	0.7382
850	0.7275
841	0.7065
832	0.7194
823	0.7468
814	0.7706
805	0.7786
796	0.769
787	0.7551
778	0.7228
769	0.6945
760	0.4891
751	0.5225
742	0.6635
733	0.6919
724	0.7522
715	0.7418
706	0.56
697	0.2712
688	0.6694
679	0.684
670	0.6558
661	0.6441
652	0.6267
