Infrared Spectrum: 1-Isopropyl-4-piperidone
Formula: C 8 H 15 N O
CAS: 5355-68-0
State: gas
Origin: EPA-IR VAPOR PHASE LIBRARY
1/CM	ABSORBANCE
549.9	0.001308
559.547	0.001037
569.193	0.000527
578.84	0.0002
588.486	0.00012
598.133	0.00019
607.779	0.00027
617.426	0.00036
627.072	0.00043
636.719	0.00033
646.365	0.00035
656.012	0.00043
665.658	0.000684
675.305	0.0014944
684.951	0.0018597
694.598	0.0016627
704.245	0.0014547
713.891	0.0018664
723.538	0.00307
733.184	0.00461
742.831	0.00491
752.477	0.00479
762.124	0.00627
771.77	0.00705
781.417	0.00495
791.063	0.002377
800.71	0.0014517
810.356	0.001177
820.003	0.0012
829.649	0.001114
839.296	0.0014141
848.943	0.002018
858.589	0.0024256
868.236	0.0019636
877.882	0.001184
887.529	0.000978
897.175	0.001125
906.822	0.001394
916.468	0.0019259
926.115	0.00255
935.761	0.00358
945.408	0.00484
955.054	0.0063
964.701	0.00679
974.347	0.00585
983.994	0.00645
993.64	0.00866
1003.29	0.0085
1012.93	0.00572
1022.58	0.00408
1032.23	0.00498
1041.87	0.00979
1051.52	0.01139
1061.17	0.00724
1070.81	0.00592
1080.46	0.00935
1090.11	0.01066
1099.75	0.01
1109.4	0.01259
1119.05	0.01492
1128.69	0.01626
1138.34	0.01737
1147.99	0.01743
1157.63	0.02384
1167.28	0.04005
1176.92	0.04068
1186.57	0.02341
1196.22	0.01832
1205.86	0.02858
1215.51	0.04145
1225.16	0.03932
1234.8	0.02445
1244.45	0.01537
1254.1	0.01057
1263.74	0.00793
1273.39	0.00901
1283.04	0.01339
1292.68	0.01408
1302.33	0.01173
1311.98	0.01459
1321.62	0.01848
1331.27	0.02402
1340.92	0.03336
1350.56	0.0321
1360.21	0.02741
1369.86	0.02527
1379.5	0.02844
1389.15	0.02986
1398.79	0.0196
1408.44	0.01493
1418.09	0.01612
1427.73	0.01339
1437.38	0.00855
1447.03	0.00738
1456.67	0.00904
1466.32	0.01123
1475.97	0.01101
1485.61	0.00755
1495.26	0.00417
1504.91	0.00303
1514.55	0.0024575
1524.2	0.0020416
1533.85	0.0018361
1543.49	0.0017168
1553.14	0.0016827
1562.79	0.0017403
1572.43	0.0018164
1582.08	0.0020797
1591.73	0.00268
1601.37	0.00293
1611.02	0.00256
1620.67	0.0024029
1630.31	0.00274
1639.96	0.00312
1649.6	0.00373
1659.25	0.00458
1668.9	0.00621
1678.54	0.00897
1688.19	0.01194
1697.84	0.01513
1707.48	0.02226
1717.13	0.04182
1726.78	0.09178
1736.42	0.142
1746.07	0.11071
1755.72	0.03867
1765.36	0.01303
1775.01	0.00814
1784.66	0.00627
1794.3	0.00486
1803.95	0.00353
1813.6	0.00251
1823.24	0.0019422
1832.89	0.001717
1842.54	0.00159783
1852.18	0.0016168
1861.83	0.00152287
1871.47	0.00152976
1881.12	0.00160251
1890.77	0.0016523
1900.41	0.0017881
1910.06	0.0016947
1919.71	0.0014459
1929.35	0.001285
1939	0.00129
1948.65	0.001234
1958.29	0.00123
1967.94	0.001227
1977.59	0.001267
1987.23	0.001308
1996.88	0.001205
2006.53	0.001219
2016.17	0.001317
2025.82	0.0014295
2035.47	0.001324
2045.11	0.001289
2054.76	0.001356
2064.41	0.001403
2074.05	0.0014597
2083.7	0.0014503
2093.35	0.001359
2102.99	0.001264
2112.64	0.001269
2122.28	0.001194
2131.93	0.001122
2141.58	0.00111
2151.22	0.00115
2160.87	0.00122
2170.52	0.001232
2180.16	0.001221
2189.81	0.001195
2199.46	0.001158
2209.1	0.001233
2218.75	0.001321
2228.4	0.001284
2238.04	0.001303
2247.69	0.001324
2257.34	0.001286
2266.98	0.001224
2276.63	0.00127
2286.28	0.00127
2295.92	0.001254
2305.57	0.001245
2315.22	0.001275
2324.86	0.001289
2334.51	0.001278
2344.16	0.001268
2353.8	0.001276
2363.45	0.00131
2373.09	0.00127
2382.74	0.001253
2392.39	0.001259
2402.03	0.001245
2411.68	0.001326
2421.33	0.001391
2430.97	0.001375
2440.62	0.00132
2450.27	0.001263
2459.91	0.001312
2469.56	0.001396
2479.21	0.001406
2488.85	0.001359
2498.5	0.001396
2508.15	0.001343
2517.79	0.001396
2527.44	0.001359
2537.09	0.0014642
2546.73	0.0014847
2556.38	0.00160024
2566.03	0.0018138
2575.67	0.0019871
2585.32	0.0021875
2594.96	0.00264
2604.61	0.00318
2614.26	0.00355
2623.9	0.00372
2633.55	0.00372
2643.2	0.00381
2652.84	0.00415
2662.49	0.0045
2672.14	0.00498
2681.78	0.0057
2691.43	0.0062
2701.08	0.00661
2710.72	0.00709
2720.37	0.00782
2730.02	0.00895
2739.66	0.01074
2749.31	0.0131
2758.96	0.01468
2768.6	0.01542
2778.25	0.01804
2787.9	0.02666
2797.54	0.04186
2807.19	0.05323
2816.84	0.04771
2826.48	0.03091
2836.13	0.01753
2845.77	0.01189
2855.42	0.01045
2865.07	0.01196
2874.71	0.01596
2884.36	0.01972
2894.01	0.02273
2903.65	0.03074
2913.3	0.04175
2922.95	0.04453
2932.59	0.04164
2942.24	0.04214
2951.89	0.04691
2961.53	0.07338
2971.18	0.10847
2980.83	0.09693
2990.47	0.05102
3000.12	0.02337
3009.77	0.01175
3019.41	0.00664
3029.06	0.00467
3038.71	0.00362
3048.35	0.00304
3058	0.0027
3067.64	0.0022266
3077.29	0.0020092
3086.94	0.0017839
3096.58	0.0017324
3106.23	0.00159887
3115.88	0.001632
3125.52	0.0014662
3135.17	0.001398
3144.82	0.001271
3154.46	0.00101
3164.11	0.001093
3173.76	0.001063
3183.4	0.001065
3193.05	0.000917
3202.7	0.000894
3212.34	0.000732
3221.99	0.000682
3231.64	0.000637
3241.28	0.00043
3250.93	0.000555
3260.58	0.00042
3270.22	0.00022
3279.87	0.00036
3289.52	0.00031
3299.16	0.00025
3308.81	0.00024
3318.45	0.0002
3328.1	7e-05
3337.75	0.00027
3347.39	0.00023
3357.04	0.00031
3366.69	0.0003
3376.33	0.00042
3385.98	0.00034
3395.63	0.00047
3405.27	0.000725
3414.92	0.000741
3424.57	0.001077
3434.21	0.00137
3443.86	0.0019298
3453.51	0.0023167
3463.15	0.0019066
3472.8	0.0014
3482.45	0.000735
3492.09	0.00044
3501.74	0.00036
3511.39	0.00037
3521.03	0.00044
3530.68	0.00024
3540.33	0.00031
3549.97	0.00023
3559.62	0.00019
3569.26	0.00023
3578.91	0.0002
3588.56	0.00041
3598.2	0.00033
3607.85	0.00023
3617.5	0.00028
3627.14	0.0003
3636.79	0.0005
3646.44	0.00033
3656.08	0.00048
3665.73	0.00044
3675.38	0.0003
3685.02	0.00048
3694.67	0.00045
3704.32	0.00048
3713.96	0.0004
3723.61	0.00046
3733.26	0.000565
3742.9	0.00057
3752.55	0.00049
3762.2	0.00047
3771.84	0.00058
3781.49	0.000597
3791.13	0.000575
3800.78	0.000523
3810.43	0.00069
3820.07	0.000585
3829.72	0.000562
3839.37	0.000669
3849.01	0.000711
3858.66	0.000712
3868.31	0.000797
3877.95	0.000789
3887.6	0.000814
3897.25	0.000822
3906.89	0.000889
3916.54	0.000932
3926.19	0.000899
3935.83	0.000811
3945.48	0.000902
3955.13	0.001001
3964.77	0.00094
3974.42	0.001004
3984.07	0.000915
3993.71	0.00105
