Infrared Spectrum: DIMETHYLETHOXYVINYLSILANE
Formula: C6 H14 O Si
CAS: 5356-83-2
State: SOLID (BETWEEN SALTS)
Class: COBLENTZ
Instrument: BECKMAN IR-4 (HYBRID PRISM-GRATING)
Sampling: TRANSMISSION
Resolution: 4
Origin: PENINSULAR CHEMRESEARCH, INC., GAINESVILLE, FLORIDA
MICROMETERS	TRANSMITTANCE
2.02	0.88
2.05497	0.876
2.08994	0.878
2.12491	0.87
2.15988	0.868
2.19485	0.857
2.22982	0.847
2.26479	0.853
2.29976	0.858
2.33473	0.862
2.3697	0.862
2.40467	0.856
2.43964	0.852
2.47462	0.871
2.50959	0.866
2.54456	0.859
2.57953	0.853
2.6145	0.843
2.64947	0.832
2.68444	0.831
2.71941	0.831
2.75438	0.825
2.78935	0.823
2.82432	0.815
2.85929	0.821
2.89426	0.824
2.92923	0.824
2.9642	0.823
2.99917	0.826
3.03414	0.83
3.06911	0.833
3.10408	0.836
3.13905	0.827
3.17402	0.807
3.20899	0.755
3.24396	0.661
3.27893	0.631
3.3139	0.45
3.34888	0.385
3.38385	0.519
3.41882	0.526
3.45379	0.616
3.48876	0.768
3.52373	0.818
3.5587	0.836
3.59367	0.836
3.62864	0.846
3.66361	0.871
3.69858	0.88
3.73355	0.874
3.76852	0.875
3.80349	0.883
3.83846	0.884
3.87343	0.884
3.9084	0.888
3.94337	0.884
3.97834	0.881
4.01331	0.882
4.04828	0.885
4.08325	0.885
4.11822	0.889
4.15319	0.874
4.18816	0.845
4.22313	0.849
4.25811	0.858
4.29308	0.869
4.32805	0.875
4.36302	0.871
4.39799	0.875
4.43296	0.881
4.46793	0.888
4.5029	0.888
4.53787	0.881
4.57284	0.888
4.60781	0.885
4.64278	0.889
4.67775	0.888
4.71272	0.883
4.74769	0.884
4.78266	0.889
4.81763	0.888
4.8526	0.889
4.88757	0.885
4.92254	0.88
4.95751	0.883
4.99248	0.888
5.02745	0.882
5.06242	0.874
5.09739	0.87
5.13237	0.859
5.16734	0.845
5.20231	0.846
5.23728	0.88
5.27225	0.89
5.30722	0.893
5.34219	0.885
5.37716	0.882
5.41213	0.877
5.4471	0.878
5.48207	0.882
5.51704	0.869
5.55201	0.874
5.58698	0.88
5.62195	0.884
5.65692	0.882
5.69189	0.877
5.72686	0.878
5.76183	0.88
5.7968	0.875
5.83177	0.871
5.86674	0.871
5.90171	0.871
5.93668	0.877
5.97165	0.882
6.00663	0.885
6.0416	0.89
6.07657	0.897
6.11154	0.899
6.14651	0.888
6.18148	0.88
6.21645	0.812
6.25142	0.783
6.28639	0.88
6.32136	0.895
6.35633	0.891
6.3913	0.881
6.42627	0.872
6.46124	0.849
6.49621	0.85
6.53118	0.852
6.56615	0.852
6.60112	0.847
6.63609	0.847
6.67106	0.838
6.70603	0.825
6.741	0.823
6.77597	0.809
6.81094	0.762
6.84591	0.742
6.88089	0.71
6.91586	0.731
6.95083	0.736
6.9858	0.701
7.02077	0.584
7.05574	0.461
7.09071	0.494
7.12568	0.538
7.16065	0.579
7.19562	0.711
7.23059	0.764
7.26556	0.783
7.30053	0.807
7.3355	0.821
7.37047	0.838
7.40544	0.846
7.44041	0.852
7.47538	0.855
7.51035	0.853
7.54532	0.843
7.58029	0.845
7.61526	0.833
7.65023	0.793
7.6852	0.748
7.72017	0.742
7.75514	0.739
7.79012	0.692
7.82509	0.647
7.86006	0.576
7.89503	0.381
7.93	0.203
7.96497	0.241
7.99994	0.51
8.03491	0.709
8.06988	0.794
8.10485	0.826
8.13982	0.844
8.17479	0.849
8.20976	0.85
8.24473	0.847
8.2797	0.84
8.31467	0.834
8.34964	0.825
8.38461	0.811
8.41958	0.77
8.45455	0.725
8.48952	0.65
8.52449	0.585
8.55946	0.568
8.59443	0.593
8.6294	0.635
8.66438	0.646
8.69935	0.638
8.73432	0.622
8.76929	0.583
8.80426	0.529
8.83923	0.463
8.8742	0.376
8.90917	0.276
8.94414	0.19
8.97911	0.111
9.01408	0.112
9.04905	0.178
9.08402	0.264
9.11899	0.261
9.15396	0.2
9.18893	0.163
9.2239	0.15
9.25887	0.162
9.29384	0.205
9.32881	0.266
9.36378	0.312
9.39875	0.361
9.43372	0.394
9.46869	0.418
9.50366	0.439
9.53864	0.475
9.57361	0.527
9.60858	0.562
9.64355	0.6
9.67852	0.631
9.71349	0.65
9.74846	0.649
9.78343	0.624
9.8184	0.545
9.85337	0.437
9.88834	0.383
9.92331	0.421
9.95828	0.522
9.99325	0.635
10.0282	0.723
10.0632	0.767
10.0982	0.793
10.1331	0.796
10.1681	0.798
10.2031	0.788
10.238	0.771
10.273	0.733
10.308	0.675
10.343	0.566
10.3779	0.456
10.4129	0.356
10.4479	0.299
10.4828	0.292
10.5178	0.294
10.5528	0.305
10.5877	0.34
10.6227	0.385
10.6577	0.428
10.6927	0.475
10.7276	0.548
10.7626	0.615
10.7976	0.682
10.8325	0.741
10.8675	0.787
10.9025	0.809
10.9375	0.826
10.9724	0.824
11.0074	0.85
11.0424	0.828
11.0773	0.807
11.1123	0.781
11.1473	0.751
11.1822	0.737
11.2172	0.716
11.2522	0.687
11.2872	0.673
11.3221	0.661
11.3571	0.656
11.3921	0.652
11.427	0.648
11.462	0.638
11.497	0.625
11.5319	0.614
11.5669	0.577
11.6019	0.547
11.6369	0.5
11.6718	0.451
11.7068	0.395
11.7418	0.324
11.7767	0.232
11.8117	0.167
11.8467	0.112
11.8817	0.067
11.9166	0.053
11.9516	0.049
11.9866	0.054
12.0215	0.077
12.0565	0.099
12.0915	0.146
12.1264	0.206
12.1614	0.277
12.1964	0.34
12.2314	0.406
12.2663	0.448
12.3013	0.48
12.3363	0.491
12.3712	0.49
12.4062	0.478
12.4412	0.452
12.4761	0.435
12.5111	0.414
12.5461	0.358
12.5811	0.293
12.616	0.21
12.651	0.129
12.686	0.095
12.7209	0.095
12.7559	0.114
12.7909	0.154
12.8259	0.211
12.8608	0.282
12.8958	0.358
12.9308	0.438
12.9657	0.522
13.0007	0.603
13.0357	0.675
13.0706	0.731
13.1056	0.792
13.1406	0.828
13.1756	0.85
13.2105	0.859
13.2455	0.857
13.2805	0.853
13.3154	0.843
13.3504	0.826
13.3854	0.817
13.4203	0.796
13.4553	0.771
13.4903	0.756
13.5253	0.747
13.5602	0.732
13.5952	0.713
13.6302	0.687
13.6651	0.665
13.7001	0.65
13.7351	0.64
13.7701	0.636
13.805	0.643
13.84	0.661
13.875	0.676
13.9099	0.703
13.9449	0.718
13.9799	0.732
14.0148	0.739
14.0498	0.739
14.0848	0.737
14.1198	0.733
14.1547	0.713
14.1897	0.694
14.2247	0.668
14.2596	0.634
14.2946	0.598
14.3296	0.541
14.3645	0.504
14.3995	0.479
14.4345	0.48
14.4695	0.485
14.5044	0.511
14.5394	0.53
14.5744	0.546
14.6093	0.565
14.6443	0.589
14.6793	0.616
14.7143	0.649
14.7492	0.672
14.7842	0.688
14.8192	0.692
14.8541	0.679
14.8891	0.669
14.9241	0.668
14.959	0.666
14.994	0.666
