Infrared Spectrum: Diethyl 1-naphthylmethylphosphonate
Formula: C 15 H 19 O 3 P
CAS: 53575-08-9
State: gas
Origin: EPA-IR VAPOR PHASE LIBRARY
1/CM	ABSORBANCE
549.9	0.04531
559.547	0.05385
569.193	0.01749
578.84	0.01045
588.486	0.01035
598.133	0.0104
607.779	0.00726
617.426	0.00664
627.072	0.00897
636.719	0.02093
646.365	0.01178
656.012	0.00795
665.658	0.00784
675.305	0.00887
684.951	0.01162
694.598	0.01631
704.245	0.02008
713.891	0.02504
723.538	0.03488
733.184	0.02541
742.831	0.02157
752.477	0.03822
762.124	0.10573
771.77	0.27341
781.417	0.1666
791.063	0.10666
800.71	0.09287
810.356	0.07252
820.003	0.04781
829.649	0.04012
839.296	0.04886
848.943	0.04267
858.589	0.03611
868.236	0.03317
877.882	0.04022
887.529	0.0253
897.175	0.02699
906.822	0.0357
916.468	0.05227
926.115	0.08937
935.761	0.16956
945.408	0.25559
955.054	0.25881
964.701	0.19523
974.347	0.11666
983.994	0.07515
993.64	0.07062
1003.29	0.10391
1012.93	0.18201
1022.58	0.2952
1032.23	0.44909
1041.87	0.44749
1051.52	0.3893
1061.17	0.366
1070.81	0.24692
1080.46	0.15239
1090.11	0.12931
1099.75	0.134
1109.4	0.08746
1119.05	0.06106
1128.69	0.05043
1138.34	0.04758
1147.99	0.04697
1157.63	0.04615
1167.28	0.04983
1176.92	0.03835
1186.57	0.02943
1196.22	0.0247
1205.86	0.03146
1215.51	0.04823
1225.16	0.04584
1234.8	0.03448
1244.45	0.04418
1254.1	0.06752
1263.74	0.15718
1273.39	0.21217
1283.04	0.1509
1292.68	0.09123
1302.33	0.04589
1311.98	0.02624
1321.62	0.0175
1331.27	0.01378
1340.92	0.01382
1350.56	0.01509
1360.21	0.01705
1369.86	0.02527
1379.5	0.03014
1389.15	0.0568
1398.79	0.07026
1408.44	0.03701
1418.09	0.03311
1427.73	0.02251
1437.38	0.0179
1447.03	0.01876
1456.67	0.01588
1466.32	0.01509
1475.97	0.01272
1485.61	0.01269
1495.26	0.01436
1504.91	0.01974
1514.55	0.01958
1524.2	0.011
1533.85	0.0072
1543.49	0.00598
1553.14	0.00541
1562.79	0.00596
1572.43	0.00957
1582.08	0.01236
1591.73	0.01616
1601.37	0.01325
1611.02	0.00561
1620.67	0.00612
1630.31	0.00629
1639.96	0.00576
1649.6	0.00572
1659.25	0.00616
1668.9	0.00761
1678.54	0.00805
1688.19	0.00836
1697.84	0.00719
1707.48	0.00709
1717.13	0.00817
1726.78	0.00804
1736.42	0.00811
1746.07	0.00812
1755.72	0.00841
1765.36	0.00787
1775.01	0.00725
1784.66	0.00764
1794.3	0.00972
1803.95	0.01051
1813.6	0.00871
1823.24	0.00873
1832.89	0.00797
1842.54	0.00734
1852.18	0.00763
1861.83	0.00814
1871.47	0.00673
1881.12	0.00588
1890.77	0.00577
1900.41	0.00652
1910.06	0.00865
1919.71	0.0085
1929.35	0.00828
1939	0.00741
1948.65	0.0046893
1958.29	0.003412
1967.94	0.003208
1977.59	0.003103
1987.23	0.00291
1996.88	0.00286
2006.53	0.00278
2016.17	0.00257
2025.82	0.00249
2035.47	0.00245
2045.11	0.00248
2054.76	0.0025
2064.41	0.00252
2074.05	0.00249
2083.7	0.00246
2093.35	0.00247
2102.99	0.00246
2112.64	0.00248
2122.28	0.00248
2131.93	0.00242
2141.58	0.00237
2151.22	0.00238
2160.87	0.00241
2170.52	0.00235
2180.16	0.00237
2189.81	0.00229
2199.46	0.00227
2209.1	0.00223
2218.75	0.00225
2228.4	0.00231
2238.04	0.00233
2247.69	0.00247
2257.34	0.00244
2266.98	0.00245
2276.63	0.00247
2286.28	0.00261
2295.92	0.00263
2305.57	0.0026
2315.22	0.00268
2324.86	0.0028
2334.51	0.00317
2344.16	0.00276
2353.8	0.00236
2363.45	0.00219
2373.09	0.00213
2382.74	0.0022
2392.39	0.00206
2402.03	0.00227
2411.68	0.00268
2421.33	0.00267
2430.97	0.00266
2440.62	0.00255
2450.27	0.0025
2459.91	0.00249
2469.56	0.00233
2479.21	0.00222
2488.85	0.00213
2498.5	0.00206
2508.15	0.00201
2517.79	0.00203
2527.44	0.0021
2537.09	0.00208
2546.73	0.00199
2556.38	0.00188
2566.03	0.00185
2575.67	0.0018
2585.32	0.00188
2594.96	0.00177
2604.61	0.00183
2614.26	0.00193
2623.9	0.0021
2633.55	0.00234
2643.2	0.0021
2652.84	0.00196
2662.49	0.00179
2672.14	0.00171
2681.78	0.00167
2691.43	0.0017
2701.08	0.00191
2710.72	0.00214
2720.37	0.0025
2730.02	0.003155
2739.66	0.003076
2749.31	0.003125
2758.96	0.003384
2768.6	0.003806
2778.25	0.0042409
2787.9	0.0039101
2797.54	0.003874
2807.19	0.0041703
2816.84	0.0047249
2826.48	0.0054
2836.13	0.00609
2845.77	0.00709
2855.42	0.00897
2865.07	0.01267
2874.71	0.01924
2884.36	0.02444
2894.01	0.02692
2903.65	0.03669
2913.3	0.04756
2922.95	0.05267
2932.59	0.0719
2942.24	0.0805
2951.89	0.0599
2961.53	0.05837
2971.18	0.07208
2980.83	0.10602
2990.47	0.10142
3000.12	0.06995
3009.77	0.05068
3019.41	0.03805
3029.06	0.03149
3038.71	0.0388
3048.35	0.06672
3058	0.07583
3067.64	0.07203
3077.29	0.04435
3086.94	0.03454
3096.58	0.02364
3106.23	0.01242
3115.88	0.00561
3125.52	0.003464
3135.17	0.00253
3144.82	0.00221
3154.46	0.00209
3164.11	0.00196
3173.76	0.00214
3183.4	0.00167
3193.05	0.00153
3202.7	0.00116
3212.34	0.00134
3221.99	0.00119
3231.64	0.00085
3241.28	0.00057
3250.93	0.00052
3260.58	0.00028
3270.22	0.00018
3279.87	6e-05
3289.52	0.00011
3299.16	0.00032
3308.81	0.0002
3318.45	6e-05
3328.1	6e-05
3337.75	0.0001
3347.39	4e-05
3357.04	0.00014
3366.69	0.00026
3376.33	0.00017
3385.98	0.0002
3395.63	0.00027
3405.27	0.00043
3414.92	0.00038
3424.57	0.00039
3434.21	0.00031
3443.86	0.00055
3453.51	0.00059
3463.15	0.00044
3472.8	0.00047
3482.45	0.00055
3492.09	0.0005
3501.74	0.00077
3511.39	0.00074
3521.03	0.00089
3530.68	0.0009
3540.33	0.00083
3549.97	0.00091
3559.62	0.00089
3569.26	0.00095
3578.91	0.00117
3588.56	0.00109
3598.2	0.00102
3607.85	0.00107
3617.5	0.00099
3627.14	0.00111
3636.79	0.0012
3646.44	0.00127
3656.08	0.00141
3665.73	0.0013
3675.38	0.00117
3685.02	0.00136
3694.67	0.00147
3704.32	0.00148
3713.96	0.00156
3723.61	0.00156
3733.26	0.00153
3742.9	0.00147
3752.55	0.00168
3762.2	0.00175
3771.84	0.00183
3781.49	0.00192
3791.13	0.00192
3800.78	0.0021
3810.43	0.00212
3820.07	0.00188
3829.72	0.00191
3839.37	0.00217
3849.01	0.00248
3858.66	0.00241
3868.31	0.00223
3877.95	0.00214
3887.6	0.00212
3897.25	0.00219
3906.89	0.00217
3916.54	0.00235
3926.19	0.00243
3935.83	0.00253
3945.48	0.00243
3955.13	0.00236
3964.77	0.00239
3974.42	0.00221
3984.07	0.00231
3993.71	0.00228
