Infrared Spectrum: METHANE, BIS(DIMETHYLCHLOROSILYL)-
Formula: C5 H14 Cl2 Si2
CAS: 5357-38-0
State: SOLUTION (10% CCl4 FOR 3800-1300, 6% CS2 FOR 1300-630, AND 10% CCl4 FOR 630-260) VS SOLVENT
Boiling point: 58 C AT 10 mmHg
Class: COBLENTZ III
Instrument: PERKIN-ELMER 521 (GRATING)
Instrument parameters: FILTERS AT 3150, 2500, 2000, 1150, 700, 410. GRATING CHANGES: 2000, 630
Sampling: TRANSMISSION
Path length: 0.012 CM, 0.012 CM, AND 0.010 CM
Resolution: 2
Origin: DOW CORNING CORP.
1/CM	TRANSMITTANCE
3822	0.9255
3813	0.9256
3804	0.9255
3795	0.925
3786	0.9239
3777	0.922
3768	0.918
3759	0.9082
3750	0.9018
3741	0.9014
3732	0.9039
3723	0.906
3714	0.9057
3705	0.9053
3696	0.905
3687	0.905
3678	0.9053
3669	0.9055
3660	0.9059
3651	0.9106
3642	0.9141
3633	0.9174
3624	0.9211
3615	0.9228
3606	0.9244
3597	0.926
3588	0.9268
3579	0.9278
3570	0.9283
3561	0.9285
3552	0.9288
3543	0.9286
3534	0.9283
3525	0.9278
3516	0.9273
3507	0.9264
3498	0.9252
3489	0.9239
3480	0.9228
3471	0.9225
3462	0.9224
3453	0.9225
3444	0.9225
3435	0.9225
3426	0.9227
3417	0.9227
3408	0.9227
3399	0.9221
3390	0.9215
3381	0.9204
3372	0.9194
3363	0.9183
3354	0.9174
3345	0.9161
3336	0.9148
3327	0.9134
3318	0.9132
3309	0.9137
3300	0.9155
3291	0.9178
3282	0.9206
3273	0.9218
3264	0.9203
3255	0.9184
3246	0.9157
3237	0.9111
3228	0.9036
3219	0.9013
3210	0.8997
3201	0.8996
3192	0.8978
3183	0.8961
3174	0.8942
3165	0.892
3156	0.8915
3147	0.8949
3138	0.8921
3129	0.8906
3120	0.8891
3111	0.8878
3102	0.8868
3093	0.8858
3084	0.8851
3075	0.8846
3066	0.8796
3057	0.8808
3048	0.8802
3039	0.8793
3030	0.8785
3021	0.8771
3012	0.8678
3003	0.8338
2994	0.7945
2985	0.5923
2976	0.3682
2967	0.4576
2958	0.6868
2949	0.7412
2940	0.7658
2931	0.781
2922	0.7808
2913	0.7275
2904	0.7193
2895	0.7808
2886	0.7974
2877	0.8071
2868	0.8192
2859	0.8393
2850	0.8562
2841	0.867
2832	0.8754
2823	0.8785
2814	0.8809
2805	0.882
2796	0.8795
2787	0.8787
2778	0.8892
2769	0.8992
2760	0.9067
2751	0.9102
2742	0.9136
2733	0.9165
2724	0.9193
2715	0.9218
2706	0.9239
2697	0.9259
2688	0.9277
2679	0.9278
2670	0.928
2661	0.9278
2652	0.9268
2643	0.9258
2634	0.9251
2625	0.9246
2616	0.9241
2607	0.9235
2598	0.9236
2589	0.9237
2580	0.9238
2571	0.9239
2562	0.924
2553	0.9241
2544	0.9245
2535	0.9253
2526	0.926
2517	0.9249
2508	0.9233
2499	0.9217
2490	0.9216
2481	0.9224
2472	0.9236
2463	0.9247
2454	0.9252
2445	0.9254
2436	0.9258
2427	0.926
2418	0.9263
2409	0.9264
2400	0.9267
2391	0.9268
2382	0.9268
2373	0.9268
2364	0.9268
2355	0.9268
2346	0.9265
2337	0.9262
2328	0.9259
2319	0.9255
2310	0.9253
2301	0.9249
2292	0.9246
2283	0.9243
2274	0.9239
2265	0.9234
2256	0.9228
2247	0.9224
2238	0.922
2229	0.9217
2220	0.9214
2211	0.921
2202	0.921
2193	0.921
2184	0.921
2175	0.9206
2166	0.9203
2157	0.9199
2148	0.9187
2139	0.9174
2130	0.9145
2121	0.9114
2112	0.908
2103	0.9058
2094	0.9054
2085	0.9048
2076	0.9042
2067	0.9044
2058	0.9049
2049	0.9054
2040	0.9058
2031	0.9064
2022	0.909
2013	0.9128
2004	0.9162
1995	0.8903
1986	0.894
1977	0.8971
1968	0.8971
1959	0.8921
1950	0.8692
1941	0.8712
1932	0.877
1923	0.8821
1914	0.8781
1905	0.8813
1896	0.8952
1887	0.9007
1878	0.9036
1869	0.9045
1860	0.9036
1851	0.9006
1842	0.8983
1833	0.8995
1824	0.9006
1815	0.9018
1806	0.9033
1797	0.9045
1788	0.9056
1779	0.9061
1770	0.9059
1761	0.9044
1752	0.9038
1743	0.9033
1734	0.9031
1725	0.9031
1716	0.9025
1707	0.902
1698	0.9013
1689	0.9007
1680	0.9009
1671	0.9008
1662	0.8975
1653	0.881
1644	0.8764
1635	0.883
1626	0.8978
1617	0.8982
1608	0.898
1599	0.8987
1590	0.8982
1581	0.891
1572	0.8828
1563	0.8741
1554	0.8673
1545	0.8615
1536	0.8598
1527	0.8601
1518	0.8613
1509	0.8636
1500	0.8653
1491	0.8661
1482	0.8657
1473	0.8636
1464	0.8532
1455	0.8288
1446	0.8146
1437	0.8128
1428	0.7921
1419	0.7292
1410	0.6052
1401	0.4947
1392	0.613
1383	0.7149
1374	0.7804
1365	0.7868
1356	0.7588
1347	0.6362
1338	0.7696
1329	0.8286
1320	0.8343
1311	0.8364
1302	0.8342
1293	0.8449
1284	0.8366
1275	0.8033
1266	0.7312
1257	0.2768
1248	0.0778
1239	0.6195
1230	0.7584
1221	0.8317
1212	0.8694
1203	0.8788
1194	0.885
1185	0.8896
1176	0.8918
1167	0.892
1158	0.8913
1149	0.8817
1140	0.8809
1131	0.8792
1122	0.8751
1113	0.864
1104	0.8281
1095	0.7748
1086	0.6889
1077	0.6329
1068	0.451
1059	0.159
1050	0.147
1041	0.4753
1032	0.6412
1023	0.7164
1014	0.7643
1005	0.7934
996	0.8008
987	0.8128
978	0.8446
969	0.8607
960	0.868
951	0.8704
942	0.8699
933	0.8645
924	0.8544
915	0.847
906	0.8375
897	0.8139
888	0.7749
879	0.7065
870	0.6384
861	0.5514
852	0.165
843	0.1223
834	0.0282
825	0.0444
816	0.0033
807	0.0397
798	0.1692
789	0.2917
780	0.4095
771	0.3553
762	0.4969
753	0.5269
744	0.7098
735	0.7736
726	0.8047
717	0.813
708	0.7806
699	0.7283
690	0.6326
681	0.7081
672	0.7534
663	0.4365
654	0.4442
645	0.7832
636	0.8675
627	0.8928
618	0.8932
609	0.7892
600	0.625
591	0.5254
582	0.6244
573	0.8425
564	0.8745
555	0.8839
546	0.8866
537	0.8814
528	0.867
519	0.8577
510	0.8342
501	0.7135
492	0.5173
483	0.2071
474	0.1761
465	0.24
456	0.5004
447	0.7322
438	0.805
429	0.8108
420	0.8108
411	0.8305
402	0.8452
393	0.8442
384	0.8462
375	0.8486
366	0.8536
357	0.8568
348	0.8664
339	0.87
330	0.8703
321	0.868
312	0.8635
303	0.8623
294	0.8645
285	0.8612
276	0.8605
267	0.8623
258	0.8628
