Infrared Spectrum: Benzyl alcohol, Alpha-(aminomethyl)-m-hydroxy-
Formula: C8 H11 N O2
CAS: 536-21-0
State: SOLID (KBr DISC)
Class: COBLENTZ
Instrument: BECKMAN IR-4 (HYBRID PRISM-GRATING)
Sampling: TRANSMISSION
Resolution: 2
Origin: UNIVERSITY OF FLORIDA
1/CM	TRANSMITTANCE
667	0.5758
676	0.5728
685	0.5451
694	0.576
703	0.4281
712	0.6287
721	0.6467
730	0.6415
739	0.6402
748	0.6332
757	0.5985
766	0.4628
775	0.5718
784	0.6151
793	0.5471
802	0.339
811	0.6481
820	0.6864
829	0.6684
838	0.6458
847	0.5908
856	0.5953
865	0.6005
874	0.4468
883	0.5448
892	0.6808
901	0.6353
910	0.6599
919	0.6406
928	0.6059
937	0.4676
946	0.599
955	0.6424
964	0.6457
973	0.609
982	0.6078
991	0.5994
1000	0.5409
1009	0.4538
1018	0.4881
1027	0.6116
1036	0.592
1045	0.4979
1054	0.3873
1063	0.5675
1072	0.6189
1081	0.5775
1090	0.5629
1099	0.4218
1108	0.5783
1117	0.6157
1126	0.5734
1135	0.4802
1144	0.6212
1153	0.6257
1162	0.6003
1171	0.5666
1180	0.6245
1189	0.6168
1198	0.5929
1207	0.5631
1216	0.5302
1225	0.4926
1234	0.4482
1243	0.4848
1252	0.5236
1261	0.5187
1270	0.4065
1279	0.4229
1288	0.4595
1297	0.4552
1306	0.5386
1315	0.6222
1324	0.624
1333	0.5801
1342	0.6253
1351	0.6224
1360	0.5111
1369	0.412
1378	0.5545
1387	0.4941
1396	0.5858
1405	0.6468
1414	0.6109
1423	0.5589
1432	0.5189
1441	0.5547
1450	0.5708
1459	0.575
1468	0.5704
1477	0.5011
1486	0.3838
1495	0.3071
1504	0.3441
1513	0.4298
1522	0.5236
1531	0.6198
1540	0.6768
1549	0.6829
1558	0.6861
1567	0.6345
1576	0.5434
1585	0.4644
1594	0.3923
1603	0.4491
1612	0.5217
1621	0.545
1630	0.7024
1639	0.7286
1648	0.7407
1657	0.7569
1666	0.7775
1675	0.7833
1684	0.7842
1693	0.785
1702	0.786
1711	0.7897
1720	0.7953
1729	0.7951
1738	0.7937
1747	0.7913
1756	0.7791
1765	0.7726
1774	0.774
1783	0.7755
1792	0.7786
1801	0.7772
1810	0.7733
1819	0.7714
1828	0.7759
1837	0.7761
1846	0.7747
1855	0.7711
1864	0.7667
1873	0.7611
1882	0.759
1891	0.7577
1900	0.7572
1909	0.756
1918	0.7541
1927	0.7518
1936	0.7465
1945	0.7363
1954	0.725
1963	0.7254
1972	0.7314
1981	0.7393
1990	0.7476
1999	0.7556
2008	0.758
2017	0.7592
2026	0.7618
2035	0.7634
2044	0.7638
2053	0.7634
2062	0.7628
2071	0.7625
2080	0.762
2089	0.7615
2098	0.7609
2107	0.7603
2116	0.759
2125	0.7578
2134	0.7567
2143	0.7561
2152	0.7555
2161	0.7549
2170	0.7544
2179	0.7537
2188	0.7531
2197	0.7523
2206	0.7511
2215	0.7499
2224	0.7486
2233	0.7479
2242	0.7475
2251	0.7471
2260	0.7468
2269	0.7458
2278	0.7447
2287	0.7437
2296	0.7426
2305	0.7412
2314	0.7393
2323	0.7374
2332	0.7356
2341	0.7336
2350	0.7316
2359	0.7296
2368	0.7279
2377	0.7264
2386	0.7224
2395	0.718
2404	0.7142
2413	0.7105
2422	0.7068
2431	0.7023
2440	0.698
2449	0.6945
2458	0.6919
2467	0.6898
2476	0.6878
2485	0.6865
2494	0.6853
2503	0.6843
2512	0.6794
2521	0.6732
2530	0.6675
2539	0.6627
2548	0.6582
2557	0.6541
2566	0.6469
2575	0.6398
2584	0.633
2593	0.6231
2602	0.6193
2611	0.6216
2620	0.6295
2629	0.6348
2638	0.6352
2647	0.6344
2656	0.6321
2665	0.6279
2674	0.6229
2683	0.6187
2692	0.614
2701	0.6099
2710	0.6062
2719	0.6034
2728	0.602
2737	0.6026
2746	0.6021
2755	0.5993
2764	0.5956
2773	0.5886
2782	0.5805
2791	0.5725
2800	0.5653
2809	0.5569
2818	0.5485
2827	0.5413
2836	0.5338
2845	0.5259
2854	0.5166
2863	0.5048
2872	0.4931
2881	0.4836
2890	0.4751
2899	0.4667
2908	0.458
2917	0.447
2926	0.4375
2935	0.4304
2944	0.4247
2953	0.4215
2962	0.4224
2971	0.4237
2980	0.4213
2989	0.4157
2998	0.406
3007	0.3948
3016	0.3837
3025	0.3711
3034	0.369
3043	0.3702
3052	0.3752
3061	0.3843
3070	0.3932
3079	0.4016
3088	0.4065
3097	0.4098
3106	0.4117
3115	0.4118
3124	0.4089
3133	0.4014
3142	0.4002
3151	0.4006
3160	0.4019
3169	0.4041
3178	0.4094
3187	0.4239
3196	0.4454
3205	0.4669
3214	0.4882
3223	0.5095
3232	0.5306
3241	0.5516
3250	0.5725
3259	0.5932
3268	0.6139
3277	0.6344
3286	0.6548
3295	0.6704
3304	0.6793
3313	0.6888
3322	0.6969
3331	0.6995
3340	0.7006
3349	0.7007
3358	0.7
3367	0.698
3376	0.6764
3385	0.6391
3394	0.602
3403	0.5651
3412	0.5284
3421	0.4919
3430	0.4556
3439	0.4354
3448	0.4478
3457	0.4952
3466	0.5431
3475	0.5908
3484	0.6382
3493	0.6854
3502	0.7307
3511	0.7519
3520	0.7725
3529	0.7964
3538	0.816
3547	0.8414
3556	0.855
3565	0.8685
3574	0.8834
3583	0.8952
3592	0.9009
3601	0.9064
3610	0.9124
3619	0.9183
3628	0.9227
3637	0.9267
3646	0.9289
3655	0.9308
3664	0.9324
3673	0.934
3682	0.9355
3691	0.9369
3700	0.9383
3709	0.9398
3718	0.9409
3727	0.9411
3736	0.9413
3745	0.9415
3754	0.9416
3763	0.9415
3772	0.9415
3781	0.9414
3790	0.9412
3799	0.9411
3808	0.9409
3817	0.9407
3826	0.9402
3835	0.9397
3844	0.9392
3853	0.9389
3862	0.9386
3871	0.9384
3880	0.9382
3889	0.938
3898	0.9379
3907	0.9378
3916	0.9376
3925	0.9371
3934	0.9366
3943	0.9361
3952	0.9353
3961	0.9338
3970	0.9321
3979	0.9304
3988	0.9286
3997	0.9268
