Infrared Spectrum: P-ISOPROPYL BENZYL ALCOHOL
Formula: C10 H14 O
CAS: 536-60-7
State: LIQUID
Boiling point: 94 C AT 5 mmHg
Class: COBLENTZ
Instrument: Not specified, most likely a prism, grating, or hybrid spectrometer.
Sampling: TRANSMISSION
Path length: 0.003 CM
Resolution: 4
Origin: WYANDOTTE CHEMICALS CORP., WYANDOTTE, MICHIGAN, USA
MICROMETERS	TRANSMITTANCE
2.005	0.956
2.04375	0.954
2.08251	0.946
2.12126	0.956
2.16001	0.953
2.19876	0.943
2.23752	0.935
2.27627	0.935
2.31502	0.94
2.35377	0.941
2.39253	0.927
2.43128	0.933
2.47003	0.94
2.50879	0.938
2.54754	0.944
2.58629	0.94
2.62504	0.949
2.6638	0.946
2.70255	0.925
2.7413	0.872
2.78005	0.749
2.81881	0.597
2.85756	0.517
2.89631	0.385
2.93507	0.278
2.97382	0.213
3.01257	0.153
3.05132	0.161
3.09008	0.224
3.12883	0.317
3.16758	0.457
3.20633	0.564
3.24509	0.595
3.28384	0.535
3.32259	0.501
3.36135	0.168
3.4001	0.181
3.43885	0.26
3.4776	0.234
3.51636	0.441
3.55511	0.658
3.59386	0.736
3.63261	0.792
3.67137	0.802
3.71012	0.822
3.74887	0.859
3.78763	0.864
3.82638	0.864
3.86513	0.872
3.90388	0.889
3.94264	0.906
3.98139	0.919
4.02014	0.92
4.05889	0.923
4.09765	0.923
4.1364	0.923
4.17515	0.928
4.21391	0.923
4.25266	0.943
4.29141	0.944
4.33016	0.953
4.36892	0.951
4.40767	0.951
4.44642	0.949
4.48517	0.953
4.52393	0.953
4.56268	0.957
4.60143	0.954
4.64019	0.954
4.67894	0.961
4.71769	0.959
4.75644	0.961
4.7952	0.967
4.83395	0.962
4.8727	0.964
4.91145	0.954
4.95021	0.953
4.98896	0.948
5.02771	0.948
5.06647	0.941
5.10522	0.946
5.14397	0.951
5.18272	0.936
5.22148	0.932
5.26023	0.909
5.29898	0.896
5.33773	0.94
5.37649	0.946
5.41524	0.953
5.45399	0.953
5.49275	0.949
5.5315	0.936
5.57025	0.915
5.609	0.923
5.64776	0.932
5.68651	0.928
5.72526	0.93
5.76401	0.896
5.80277	0.888
5.84152	0.781
5.88027	0.715
5.91903	0.755
5.95778	0.765
5.99653	0.82
6.03528	0.833
6.07404	0.836
6.11279	0.839
6.15154	0.75
6.19029	0.745
6.22905	0.867
6.2678	0.847
6.30655	0.847
6.34531	0.894
6.38406	0.878
6.42281	0.878
6.46156	0.857
6.50032	0.83
6.53907	0.652
6.57782	0.449
6.61657	0.721
6.65533	0.653
6.69408	0.611
6.73283	0.582
6.77159	0.351
6.81034	0.292
6.84909	0.359
6.88784	0.456
6.9266	0.498
6.96535	0.432
7.0041	0.339
7.04285	0.402
7.08161	0.472
7.12036	0.525
7.15911	0.525
7.19787	0.423
7.23662	0.498
7.27537	0.517
7.31412	0.422
7.35288	0.564
7.39163	0.614
7.43038	0.611
7.46913	0.619
7.50789	0.647
7.54664	0.665
7.58539	0.656
7.62415	0.632
7.6629	0.64
7.70165	0.64
7.7404	0.635
7.77916	0.627
7.81791	0.648
7.85666	0.694
7.89541	0.718
7.93417	0.729
7.97292	0.728
8.01167	0.718
8.05043	0.699
8.08918	0.671
8.12793	0.627
8.16668	0.553
8.20544	0.454
8.24419	0.488
8.28294	0.537
8.32169	0.624
8.36045	0.663
8.3992	0.637
8.43795	0.627
8.47671	0.677
8.51546	0.716
8.55421	0.763
8.59296	0.805
8.63172	0.815
8.67047	0.822
8.70922	0.791
8.74797	0.802
8.78673	0.826
8.82548	0.834
8.86423	0.81
8.90299	0.77
8.94174	0.723
8.98049	0.684
9.01924	0.668
9.058	0.671
9.09675	0.694
9.1355	0.689
9.17425	0.702
9.21301	0.721
9.25176	0.697
9.29051	0.655
9.32927	0.595
9.36802	0.488
9.40677	0.325
9.44552	0.299
9.48428	0.343
9.52303	0.304
9.56178	0.265
9.60053	0.229
9.63929	0.2
9.67804	0.229
9.71679	0.241
9.75555	0.257
9.7943	0.205
9.83305	0.148
9.8718	0.163
9.91056	0.179
9.94931	0.207
9.98806	0.249
10.0268	0.331
10.0656	0.381
10.1043	0.453
10.1431	0.512
10.1818	0.563
10.2206	0.606
10.2593	0.629
10.2981	0.648
10.3368	0.658
10.3756	0.671
10.4143	0.69
10.4531	0.71
10.4918	0.723
10.5306	0.726
10.5694	0.699
10.6081	0.681
10.6469	0.707
10.6856	0.752
10.7244	0.789
10.7631	0.799
10.8019	0.799
10.8406	0.788
10.8794	0.776
10.9181	0.799
10.9569	0.818
10.9956	0.831
11.0344	0.83
11.0731	0.828
11.1119	0.831
11.1506	0.807
11.1894	0.799
11.2281	0.776
11.2669	0.794
11.3057	0.81
11.3444	0.817
11.3832	0.82
11.4219	0.807
11.4607	0.796
11.4994	0.792
11.5382	0.789
11.5769	0.789
11.6157	0.776
11.6544	0.754
11.6932	0.707
11.7319	0.64
11.7707	0.564
11.8094	0.478
11.8482	0.406
11.8869	0.385
11.9257	0.386
11.9645	0.417
12.0032	0.441
12.042	0.454
12.0807	0.446
12.1195	0.43
12.1582	0.407
12.197	0.352
12.2357	0.276
12.2745	0.237
12.3132	0.255
12.352	0.313
12.3907	0.36
12.4295	0.409
12.4682	0.485
12.507	0.555
12.5457	0.58
12.5845	0.584
12.6232	0.616
12.662	0.666
12.7008	0.694
12.7395	0.707
12.7783	0.695
12.817	0.69
12.8558	0.686
12.8945	0.668
12.9333	0.648
12.972	0.605
13.0108	0.542
13.0495	0.469
13.0883	0.377
13.127	0.338
13.1658	0.336
13.2045	0.388
13.2433	0.461
13.282	0.512
13.3208	0.559
13.3595	0.601
13.3983	0.621
13.4371	0.637
13.4758	0.645
13.5146	0.658
13.5533	0.653
13.5921	0.652
13.6308	0.648
13.6696	0.637
13.7083	0.632
13.7471	0.616
13.7858	0.608
13.8246	0.595
13.8633	0.585
13.9021	0.584
13.9408	0.598
13.9796	0.606
14.0183	0.614
14.0571	0.627
14.0959	0.631
14.1346	0.624
14.1734	0.598
14.2121	0.59
14.2509	0.577
14.2896	0.566
14.3284	0.564
14.3671	0.566
14.4059	0.584
14.4446	0.605
14.4834	0.629
14.5221	0.644
14.5609	0.66
14.5996	0.665
14.6384	0.676
14.6771	0.682
14.7159	0.686
14.7546	0.684
14.7934	0.681
14.8322	0.687
14.8709	0.692
14.9097	0.686
14.9484	0.684
14.9872	0.681
15.0259	0.686
15.0647	0.687
15.1034	0.684
15.1422	0.679
15.1809	0.682
15.2197	0.677
15.2584	0.686
15.2972	0.684
15.3359	0.687
15.3747	0.69
15.4134	0.687
15.4522	0.687
15.4909	0.695
15.5297	0.687
15.5685	0.69
15.6072	0.69
15.646	0.686
15.6847	0.699
15.7235	0.695
15.7622	0.69
15.801	0.695
15.8397	0.692
15.8785	0.694
15.9172	0.699
15.956	0.7
