Infrared Spectrum: m-Anisidine
Formula: C 7 H 9 N O
CAS: 536-90-3
State: gas
Instrument: HP-GC/MS/IRD
Origin: NIST Mass Spectrometry Data Center
1/CM	ABSORBANCE
550	0.0014064
562	0.0013224
574	0.0015048
586	0.0011568
598	0.000828
610	0.0007344
622	0.0009024
634	0.0014832
646	0.0028944
658	0.0055632
670	0.007932
682	0.0082896
694	0.004476
706	0.0021888
718	0.0016392
730	0.002484
742	0.0037272
754	0.004968
766	0.0048624
778	0.0027984
790	0.0014616
802	0.0011448
814	0.001752
826	0.00282
838	0.0034632
850	0.0027888
862	0.0013704
874	0.0005136
886	0.0002376
898	0.0002592
910	0.0005688
922	0.0011616
934	0.0015768
946	0.0011616
958	0.0003528
970	0.0001344
982	0.000348
994	0.0005208
1006	0.0005208
1018	0.0012624
1030	0.0039456
1042	0.006684
1054	0.0056832
1066	0.0033072
1078	0.0027264
1090	0.0021408
1102	0.0012528
1114	0.0008208
1126	0.0011232
1138	0.0036864
1150	0.0132816
1162	0.0176472
1174	0.0110304
1186	0.008544
1198	0.0138744
1210	0.013812
1222	0.0046176
1234	0.0011136
1246	0.0009432
1258	0.0017712
1270	0.0044448
1282	0.0085992
1294	0.0101712
1306	0.0080136
1318	0.0058272
1330	0.0034944
1342	0.0011952
1354	0.0002112
1366	2.16e-05
1378	4.32e-05
1390	0.0002616
1402	0.0005064
1414	0.0008784
1426	0.0020016
1438	0.0038664
1450	0.0050208
1462	0.0066744
1474	0.0078048
1486	0.0131784
1498	0.0149832
1510	0.0071928
1522	0.003024
1534	0.0025632
1546	0.0026064
1558	0.0034848
1570	0.0063312
1582	0.0130032
1594	0.02106
1606	0.0232944
1618	0.024
1630	0.0203448
1642	0.009648
1654	0.0038664
1666	0.0021144
1678	0.0014112
1690	0.00102
1702	0.0007368
1714	0.0005592
1726	0.000432
1738	0.0002928
1750	0.0001416
1762	8.16e-05
1774	0.0001368
1786	0.0001152
1798	8.16e-05
1810	5.28e-05
1822	1.2e-05
1834	2.16e-05
1846	4.32e-05
1858	6e-05
1870	0.0001656
1882	0.00036
1894	0.00054
1906	0.0004176
1918	0.0002376
1930	0.0002016
1942	0.0001968
1954	0.0001248
1966	0.0001344
1978	0.0001104
1990	9.84e-05
2002	0.000108
2014	0.0001296
2026	0.0001872
2038	0.0002232
2050	0.0002232
2062	0.0002808
2074	0.0003048
2086	0.0003168
2098	0.0002352
2110	0.0002088
2122	0.0002184
2134	0.00018
2146	0.0001992
2158	0.0001704
2170	0.0001296
2182	0.0001368
2194	0.0001944
2206	0.0002736
2218	0.0003168
2230	0.0002736
2242	0.0002256
2254	0.00018
2266	0.0001296
2278	0.0001272
2290	0.0001224
2302	0.0001368
2314	0.0001536
2326	0.000204
2338	0.0002136
2350	0.0002064
2362	0.0002112
2374	0.0002136
2386	0.0001752
2398	0.0001656
2410	0.0001608
2422	0.0001464
2434	0.0001776
2446	0.0002136
2458	0.000228
2470	0.000216
2482	0.0002448
2494	0.0002256
2506	0.0002064
2518	0.000192
2530	0.0001368
2542	0.0001416
2554	0.0001368
2566	0.0001512
2578	0.0001728
2590	0.0002184
2602	0.0002472
2614	0.000252
2626	0.000204
2638	0.0001704
2650	0.0001536
2662	0.0001584
2674	0.0001776
2686	0.0001608
2698	0.0001344
2710	0.0001872
2722	0.0001776
2734	0.0001848
2746	0.0002448
2758	0.0002832
2770	0.0003504
2782	0.000384
2794	0.00048
2806	0.0005376
2818	0.0009
2830	0.0018888
2842	0.0031632
2854	0.0027528
2866	0.001488
2878	0.0013968
2890	0.0017832
2902	0.0024144
2914	0.0030816
2926	0.0033072
2938	0.0043704
2950	0.0052008
2962	0.0043536
2974	0.0028056
2986	0.0026112
2998	0.0039528
3010	0.0040464
3022	0.002988
3034	0.0033168
3046	0.0038544
3058	0.003696
3070	0.0028248
3082	0.0021456
3094	0.001788
3106	0.0012408
3118	0.0007488
3130	0.0004392
3142	0.0003408
3154	0.0002352
3166	0.0002064
3178	0.0002232
3190	0.0002448
3202	0.0003168
3214	0.0003792
3226	0.0003696
3238	0.0003384
3250	0.0002376
3262	0.0002064
3274	0.0001272
3286	0.0001224
3298	0.00012
3310	0.0001128
3322	0.0001488
3334	0.000132
3346	0.0001128
3358	0.0001584
3370	0.0002664
3382	0.0004296
3394	0.0008808
3406	0.0014232
3418	0.001392
3430	0.0008928
3442	0.000516
3454	0.0004104
3466	0.0005184
3478	0.0009048
3490	0.0012696
3502	0.0011376
3514	0.0007824
3526	0.0005184
3538	0.0003216
3550	0.0002496
3562	0.0001848
3574	0.0002112
3586	0.0002088
3598	0.0002256
3610	0.0001752
3622	0.0002256
3634	0.0002064
3646	0.0002064
3658	0.0001728
3670	0.0001896
3682	0.0001392
3694	0.0001656
3706	0.0001752
3718	0.0001512
3730	0.000216
3742	0.0002376
3754	0.0002448
3766	0.0002736
3778	0.0001992
3790	0.000204
3802	0.0002232
3814	0.000204
3826	0.0002136
3838	0.000312
