Infrared Spectrum: 3-Chlorobenzhydrazide
Formula: C 7 H 7 Cl N 2 O
CAS: 536-40-3
State: gas
Origin: EPA-IR VAPOR PHASE LIBRARY
1/CM	ABSORBANCE
549.8	0.003523
559.445	0.003103
569.09	0.002923
578.734	0.003073
588.379	0.002993
598.024	0.002643
607.669	0.002783
617.313	0.002503
626.958	0.002493
636.603	0.002653
646.248	0.002983
655.893	0.003453
665.537	0.004513
675.182	0.006453
684.827	0.006483
694.472	0.004633
704.116	0.003713
713.761	0.004343
723.406	0.006903
733.051	0.013373
742.695	0.025013
752.34	0.023463
761.985	0.013343
771.63	0.008033
781.275	0.006813
790.919	0.007833
800.564	0.008223
810.209	0.005103
819.854	0.003373
829.498	0.003483
839.143	0.003543
848.788	0.004303
858.433	0.005133
868.078	0.006893
877.722	0.009083
887.367	0.009283
897.012	0.008603
906.657	0.007943
916.301	0.007463
925.946	0.010483
935.591	0.016703
945.236	0.020123
954.88	0.014673
964.525	0.006983
974.17	0.003763
983.815	0.002883
993.46	0.002893
1003.1	0.002453
1012.75	0.001563
1022.39	0.001703
1032.04	0.001483
1041.68	0.002043
1051.33	0.002283
1060.97	0.003293
1070.62	0.005253
1080.26	0.007193
1089.91	0.008423
1099.55	0.007693
1109.2	0.004573
1118.84	0.002693
1128.49	0.002213
1138.13	0.001723
1147.78	0.0010466
1157.42	0.002043
1167.07	0.003113
1176.71	0.004013
1186.36	0.003193
1196	0.002623
1205.64	0.002573
1215.29	0.002233
1224.93	0.002983
1234.58	0.004283
1244.22	0.007223
1253.87	0.014943
1263.51	0.023643
1273.16	0.025463
1282.8	0.030093
1292.45	0.025933
1302.09	0.013873
1311.74	0.006413
1321.38	0.004093
1331.03	0.003403
1340.67	0.003143
1350.32	0.003053
1359.96	0.002833
1369.61	0.002643
1379.25	0.002823
1388.9	0.003573
1398.54	0.005583
1408.18	0.009173
1417.83	0.013203
1427.47	0.020613
1437.12	0.034273
1446.76	0.042803
1456.41	0.035823
1466.05	0.026303
1475.7	0.022173
1485.34	0.020543
1494.99	0.016233
1504.63	0.010643
1514.28	0.007163
1523.92	0.005493
1533.57	0.004773
1543.21	0.005253
1552.86	0.007873
1562.5	0.013383
1572.15	0.016353
1581.79	0.012133
1591.44	0.008813
1601.08	0.007933
1610.73	0.007843
1620.37	0.009933
1630.01	0.013803
1639.66	0.014333
1649.3	0.010413
1658.95	0.008013
1668.59	0.009153
1678.24	0.013033
1687.88	0.021683
1697.53	0.050013
1707.17	0.059063
1716.82	0.027743
1726.46	0.014023
1736.11	0.010073
1745.75	0.005493
1755.4	0.003023
1765.04	0.002253
1774.69	0.001843
1784.33	0.001563
1793.98	0.001553
1803.62	0.001573
1813.27	0.001683
1822.91	0.001463
1832.55	0.001383
1842.2	0.001001
1851.84	0.0009903
1861.49	0.0010085
1871.13	0.0010378
1880.78	0.0009927
1890.42	0.000961
1900.07	0.0008462
1909.71	0.0007602
1919.36	0.0007181
1929	0.0008167
1938.65	0.0009262
1948.29	0.0007846
1957.94	0.0007371
1967.58	0.0004831
1977.23	0.0005259
1986.87	0.0004806
1996.52	0.0003837
2006.16	0.0003273
2015.81	0.0003768
2025.45	0.0004096
2035.1	0.00032466
2044.74	0.00032366
2054.38	0.00028539
2064.03	0.0003059
2073.67	0.00035277
2083.32	0.000232
2092.96	0.0004303
2102.61	0.00030386
2112.25	0.00026729
2121.9	0.0002336
2131.54	0.0002392
2141.19	0.0003662
2150.83	0.00026708
2160.48	0.00031397
2170.12	0.00033879
2179.77	0.00034943
2189.41	0.00033313
2199.06	0.000373
2208.7	0.0004083
2218.35	0.0003876
2227.99	0.0004006
2237.64	0.0004244
2247.28	0.0003782
2256.92	0.0004533
2266.57	0.0004286
2276.21	0.0004456
2285.86	0.0003821
2295.5	0.0003548
2305.15	0.00032877
2314.79	0.00033183
2324.44	0.0003331
2334.08	0.0004695
2343.73	0.0003802
2353.37	0.0005185
2363.02	0.0003591
2372.66	0.0003741
2382.31	0.00034714
2391.95	0.0003647
2401.6	0.00030394
2411.24	0.0002408
2420.89	0.00024503
2430.53	0.000257271
2440.18	0.00033177
2449.82	0.0003538
2459.47	0.00032223
2469.11	0.00030722
2478.75	0.000257175
2488.4	0.00034837
2498.04	0.0003827
2507.69	0.0004305
2517.33	0.0004292
2526.98	0.0004094
2536.62	0.00033946
2546.27	0.0004283
2555.91	0.0003932
2565.56	0.0005286
2575.2	0.0004526
2584.85	0.0004669
2594.49	0.0004085
2604.14	0.0002391
2613.78	0.000254966
2623.43	0.000235
2633.07	0.00027745
2642.72	0.00024644
2652.36	0.0001865
2662.01	0.00029119
2671.65	0.00035199
2681.29	0.00031568
2690.94	0.00025004
2700.58	0.0002882
2710.23	0.0003732
2719.87	0.00033221
2729.52	0.0004732
2739.16	0.0003228
2748.81	0.0004099
2758.45	0.0004024
2768.1	0.0004185
2777.74	0.00028252
2787.39	0.000346
2797.03	0.00035256
2806.68	0.00030865
2816.32	0.00031723
2825.97	0.0003645
2835.61	0.00033186
2845.26	0.000262058
2854.9	0.000260756
2864.55	0.000413
2874.19	0.0003947
2883.84	0.0003941
2893.48	0.0003642
2903.12	0.00028135
2912.77	0.0001959
2922.41	0.0002168
2932.06	0.00025108
2941.7	0.0004802
2951.35	0.0003589
2960.99	0.0005773
2970.64	0.00034678
2980.28	0.00034275
2989.93	0.0005387
2999.57	0.0003732
3009.22	0.0004447
3018.86	0.0005587
3028.51	0.0008981
3038.15	0.0009867
3047.8	0.0009663
3057.44	0.001743
3067.09	0.003173
3076.73	0.004143
3086.38	0.003293
3096.02	0.001933
3105.67	0.0010565
3115.31	0.0005627
3124.95	0.0005044
3134.6	0.0003717
3144.24	0.0004988
3153.89	0.00031716
3163.53	0.0004048
3173.18	0.0005128
3182.82	0.0005384
3192.47	0.000693
3202.11	0.0009983
3211.76	0.0008513
3221.4	0.0007892
3231.05	0.000711
3240.69	0.0005918
3250.34	0.0004494
3259.98	0.0003473
3269.63	0.0004843
3279.27	0.0004071
3288.92	0.0005281
3298.56	0.0005589
3308.21	0.0006804
3317.85	0.0005792
3327.49	0.0008403
3337.14	0.0007318
3346.78	0.000966
3356.43	0.0007995
3366.07	0.0009247
3375.72	0.0006895
3385.36	0.001051
3395.01	0.0012035
3404.65	0.0008916
3414.3	0.0010173
3423.94	0.001393
3433.59	0.002033
3443.23	0.002933
3452.88	0.004403
3462.52	0.007123
3472.17	0.009043
3481.81	0.007133
3491.46	0.003873
3501.1	0.002303
3510.75	0.001323
3520.39	0.0009073
3530.04	0.0004629
3539.68	0.000597
3549.32	0.00032651
3558.97	0.0003745
3568.61	0.0003925
3578.26	0.0005109
3587.9	0.0004132
3597.55	0.00024472
3607.19	0.0003769
3616.84	0.00028473
3626.48	0.00030066
3636.13	0.0002168
3645.77	0.00030876
3655.42	0.00029229
3665.06	0.0002333
3674.71	0.00029439
3684.35	0.00024966
3694	0.000256852
3703.64	0.00033474
3713.29	0.000133
3722.93	0.00033707
3732.58	0.0004214
3742.22	0.0004578
3751.86	0.00032651
3761.51	0.00032469
3771.15	0.00033422
3780.8	0.0001969
3790.44	0.0001711
3800.09	0.000252874
3809.73	0.0003651
3819.38	0.0004606
3829.02	0.000255738
3838.67	0.0002134
3848.31	0.0005023
3857.96	0.0004378
3867.6	0.00024483
3877.25	0.00031958
3886.89	0.000141
3896.54	0.0002938
3906.18	0.0001952
3915.83	0.0002208
3925.47	0.0002095
3935.12	0.0002132
3944.76	0.0003633
3954.41	0.00028132
3964.05	0.00027281
3973.69	0.00027132
3983.34	0
3992.98	0.0002082
