Infrared Spectrum: Benzoic acid, 3-amino-4-hydroxy, methyl ester
Formula: C8 H9 N O3
CAS: 536-25-4
State: SOLID (SPLIT MULL), FLUOROLUBE FOR 3800-1330 CM^-^1, NUJOL FOR 1330-400 CM^-^1
Class: COBLENTZ II
Instrument: DOW KBr FOREPRISM-GRATING
Instrument parameters: BLAZED AT 3.5, 12.0, 20.0 MICRON AND CHANGED AT 5.0, 7.5, 14.9 MICRON
Sampling: TRANSMISSION
Resolution: 2
Origin: DOW CHEMICAL COMPANY
1/CM	TRANSMITTANCE
3800	0.636
3791	0.6384
3782	0.6411
3773	0.6432
3764	0.645
3755	0.6465
3746	0.6482
3737	0.6496
3728	0.6511
3719	0.6525
3710	0.6548
3701	0.6568
3692	0.6591
3683	0.6618
3674	0.6645
3665	0.6674
3656	0.6704
3647	0.6733
3638	0.6761
3629	0.6786
3620	0.6811
3611	0.6837
3602	0.6865
3593	0.6878
3584	0.6875
3575	0.6875
3566	0.6888
3557	0.69
3548	0.6911
3539	0.6928
3530	0.6943
3521	0.6958
3512	0.6971
3503	0.6985
3494	0.7004
3485	0.7024
3476	0.7045
3467	0.7068
3458	0.7096
3449	0.7126
3440	0.7168
3431	0.7222
3422	0.7275
3413	0.7312
3404	0.7325
3395	0.7281
3386	0.2417
3377	0.4835
3368	0.5992
3359	0.6347
3350	0.6557
3341	0.6665
3332	0.6689
3323	0.5228
3314	0.2843
3305	0.4227
3296	0.5538
3287	0.5891
3278	0.6055
3269	0.6142
3260	0.6196
3251	0.623
3242	0.6256
3233	0.6256
3224	0.6232
3215	0.6196
3206	0.6136
3197	0.6062
3188	0.5976
3179	0.588
3170	0.579
3161	0.5688
3152	0.556
3143	0.5438
3134	0.5316
3125	0.5176
3116	0.5052
3107	0.4935
3098	0.4812
3089	0.4673
3080	0.4569
3071	0.463
3062	0.4839
3053	0.4705
3044	0.4517
3035	0.4391
3026	0.4462
3017	0.4542
3008	0.4393
2999	0.4471
2990	0.4512
2981	0.4497
2972	0.4392
2963	0.4145
2954	0.3891
2945	0.4209
2936	0.4526
2927	0.471
2918	0.4764
2909	0.4673
2900	0.4687
2891	0.4844
2882	0.5024
2873	0.5215
2864	0.5309
2855	0.5198
2846	0.5005
2837	0.4994
2828	0.4992
2819	0.5121
2810	0.5238
2801	0.5268
2792	0.5198
2783	0.4944
2774	0.471
2765	0.4524
2756	0.4455
2747	0.4473
2738	0.465
2729	0.4749
2720	0.4809
2711	0.4686
2702	0.4465
2693	0.4545
2684	0.4736
2675	0.4902
2666	0.5037
2657	0.5
2648	0.4695
2639	0.4586
2630	0.4638
2621	0.475
2612	0.4797
2603	0.4784
2594	0.4628
2585	0.4551
2576	0.4647
2567	0.479
2558	0.4912
2549	0.4993
2540	0.5049
2531	0.5235
2522	0.5371
2513	0.5435
2504	0.5486
2495	0.5566
2486	0.5717
2477	0.5832
2468	0.5874
2459	0.5918
2450	0.597
2441	0.6078
2432	0.6241
2423	0.6279
2414	0.6302
2405	0.6349
2396	0.6431
2387	0.6543
2378	0.6622
2369	0.6668
2360	0.6714
2351	0.6761
2342	0.6815
2333	0.6875
2324	0.694
2315	0.7015
2306	0.7104
2297	0.7189
2288	0.7258
2279	0.7314
2270	0.7361
2261	0.7408
2252	0.7457
2243	0.7512
2234	0.7576
2225	0.7642
2216	0.771
2207	0.7778
2198	0.783
2189	0.7875
2180	0.7921
2171	0.7967
2162	0.8012
2153	0.8058
2144	0.8101
2135	0.8145
2126	0.8186
2117	0.8227
2108	0.8261
2099	0.8284
2090	0.8313
2081	0.8336
2072	0.8361
2063	0.8392
2054	0.8432
2045	0.8487
2036	0.8549
2027	0.8596
2018	0.8625
2009	0.8652
2000	0.8657
1991	0.8584
1982	0.8681
1973	0.8738
1964	0.8783
1955	0.878
1946	0.8795
1937	0.8821
1928	0.8841
1919	0.884
1910	0.8871
1901	0.8912
1892	0.8943
1883	0.8957
1874	0.8962
1865	0.8907
1856	0.8686
1847	0.8745
1838	0.8847
1829	0.8915
1820	0.8942
1811	0.8971
1802	0.897
1793	0.8949
1784	0.8945
1775	0.8965
1766	0.9009
1757	0.9028
1748	0.8999
1739	0.8989
1730	0.9007
1721	0.8816
1712	0.8214
1703	0.6493
1694	0.1706
1685	0.0675
1676	0.2988
1667	0.5765
1658	0.6734
1649	0.7105
1640	0.735
1631	0.7404
1622	0.681
1613	0.3157
1604	0.1586
1595	0.318
1586	0.4437
1577	0.5239
1568	0.6009
1559	0.6854
1550	0.7487
1541	0.7675
1532	0.7683
1523	0.2909
1514	0.4789
1505	0.6669
1496	0.7164
1487	0.7354
1478	0.7411
1469	0.6636
1460	0.5933
1451	0.6662
1442	0.0613
1433	0.5991
1424	0.6938
1415	0.6736
1406	0.4981
1397	0.5148
1388	0.606
1379	0.6558
1370	0.7341
1361	0.7435
1352	0.6846
1343	0.3503
1334	0.3507
1325	0.2735
1316	0.1471
1307	0.0689
1298	0.2703
1289	0.348
1280	0.5371
1271	0.6469
1262	0.6572
1253	0.4534
1244	0.5793
1235	0.6028
1226	0.4568
1217	0.2395
1208	0.0942
1199	0.3088
1190	0.4667
1181	0.5385
1172	0.5491
1163	0.5554
1154	0.4683
1145	0.398
1136	0.5408
1127	0.5831
1118	0.3089
1109	0.568
1100	0.6643
1091	0.6753
1082	0.6704
1073	0.6373
1064	0.6628
1055	0.6655
1046	0.6661
1037	0.6658
1028	0.6528
1019	0.6783
1010	0.7147
1001	0.7334
992	0.7319
983	0.6575
974	0.6018
965	0.4821
956	0.4304
947	0.5175
938	0.4982
929	0.5922
920	0.5674
911	0.3057
902	0.36
893	0.4359
884	0.4964
875	0.571
866	0.6448
857	0.6897
848	0.7274
839	0.7611
830	0.7688
821	0.7368
812	0.674
803	0.6971
794	0.8182
785	0.7167
776	0.313
767	0.3621
758	0.741
749	0.8377
740	0.8584
731	0.8666
722	0.8575
713	0.8632
704	0.8761
695	0.8808
686	0.8846
677	0.8875
668	0.8841
659	0.8852
650	0.8858
641	0.7433
632	0.8097
623	0.8897
614	0.8587
605	0.8008
596	0.7828
587	0.7904
578	0.83
569	0.8659
560	0.8738
551	0.8941
542	0.8971
533	0.8731
524	0.8724
515	0.8839
506	0.8793
497	0.8681
488	0.8528
479	0.8394
470	0.8385
461	0.8365
452	0.7249
443	0.7621
434	0.7738
425	0.7151
416	0.6845
407	0.69
398	0.6911
