Infrared Spectrum: p-Methylsulfonylbenzyl chloride
Formula: C8 H9 Cl O2 S
CAS: 53606-06-7
State: gas
Origin: EPA-IR VAPOR PHASE LIBRARY
1/CM	ABSORBANCE
549.8	0.019637
559.445	0.007737
569.09	0.002697
578.734	0.002047
588.379	0.002007
598.024	0.002137
607.669	0.003067
617.313	0.005787
626.958	0.012677
636.603	0.025597
646.248	0.018857
655.893	0.007037
665.537	0.005557
675.182	0.007387
684.827	0.010707
694.472	0.016247
704.116	0.016747
713.761	0.019357
723.406	0.034247
733.051	0.052777
742.695	0.058487
752.34	0.068797
761.985	0.051157
771.63	0.019167
781.275	0.009227
790.919	0.006107
800.564	0.005637
810.209	0.006637
819.854	0.008847
829.498	0.009487
839.143	0.007807
848.788	0.004687
858.433	0.002887
868.078	0.002547
877.722	0.002697
887.367	0.002887
897.012	0.002817
906.657	0.002837
916.301	0.002767
925.946	0.003457
935.591	0.006277
945.236	0.022587
954.88	0.053357
964.525	0.018257
974.17	0.004367
983.815	0.002407
993.46	0.002117
1003.1	0.001897
1012.75	0.004537
1022.39	0.005397
1032.04	0.001667
1041.68	0.00124
1051.33	0.001707
1060.97	0.002577
1070.62	0.004947
1080.26	0.010067
1089.91	0.019977
1099.55	0.015997
1109.2	0.008967
1118.84	0.006497
1128.49	0.007547
1138.13	0.015407
1147.78	0.046537
1157.42	0.141627
1167.07	0.155197
1176.71	0.043807
1186.36	0.017437
1196	0.013967
1205.64	0.009457
1215.29	0.004577
1224.93	0.003537
1234.58	0.004367
1244.22	0.005997
1253.87	0.012117
1263.51	0.021607
1273.16	0.021587
1282.8	0.013777
1292.45	0.011027
1302.09	0.014647
1311.74	0.024867
1321.38	0.034517
1331.03	0.047197
1340.67	0.091227
1350.32	0.122867
1359.96	0.075387
1369.61	0.023667
1379.25	0.011267
1388.9	0.010947
1398.54	0.013997
1408.18	0.014987
1417.83	0.010897
1427.47	0.006087
1437.12	0.004607
1446.76	0.005037
1456.41	0.003407
1466.05	0.002367
1475.7	0.001997
1485.34	0.002737
1494.99	0.003637
1504.63	0.002477
1514.28	0.0013066
1523.92	0.0009661
1533.57	0.0008836
1543.21	0.0009315
1552.86	0.0010259
1562.5	0.001366
1572.15	0.001727
1581.79	0.002107
1591.44	0.003537
1601.08	0.006267
1610.73	0.003857
1620.37	0.001527
1630.01	0.0011385
1639.66	0.001191
1649.3	0.0012808
1658.95	0.001517
1668.59	0.001467
1678.24	0.0010354
1687.88	0.0007137
1697.53	0.0006071
1707.17	0.0006117
1716.82	0.000665
1726.46	0.0008555
1736.11	0.0007939
1745.75	0.0006622
1755.4	0.0006187
1765.04	0.0007223
1774.69	0.0009284
1784.33	0.0013616
1793.98	0.001957
1803.62	0.001897
1813.27	0.0009055
1822.91	0.0006054
1832.55	0.0006444
1842.2	0.0005279
1851.84	0.0006331
1861.49	0.0005612
1871.13	0.0005907
1880.78	0.0006406
1890.42	0.0008738
1900.07	0.0012904
1909.71	0.001867
1919.36	0.002287
1929	0.001817
1938.65	0.0010901
1948.29	0.0006974
1957.94	0.0005307
1967.58	0.0005198
1977.23	0.0005542
1986.87	0.0003884
1996.52	0.000525
2006.16	0.000301
2015.81	0.0003855
2025.45	0.00044114
2035.1	0.0005217
2044.74	0.0006376
2054.38	0.0007006
2064.03	0.0008004
2073.67	0.0007788
2083.32	0.0007034
2092.96	0.0005679
2102.61	0.0005999
2112.25	0.0005784
2121.9	0.0005318
2131.54	0.0003211
2141.19	0.0003727
2150.83	0.00041985
2160.48	0.00043631
2170.12	0.00041867
2179.77	0.0004717
2189.41	0.0005129
2199.06	0.00042726
2208.7	0.00045399
2218.35	0.00045997
2227.99	0.0005734
2237.64	0.0007507
2247.28	0.0010995
2256.92	0.0010395
2266.57	0.0009235
2276.21	0.0009147
2285.86	0.0008853
2295.5	0.0009865
2305.15	0.0009998
2314.79	0.000931
2324.44	0.0008767
2334.08	0.0008461
2343.73	0.0005778
2353.37	0.0006953
2363.02	0.0005929
2372.66	0.0005856
2382.31	0.0004944
2391.95	0.0005656
2401.6	0.0005234
2411.24	0.0004715
2420.89	0.0005445
2430.53	0.0006477
2440.18	0.0005914
2449.82	0.0005483
2459.47	0.0005648
2469.11	0.000595
2478.75	0.0007012
2488.4	0.0007655
2498.04	0.0009394
2507.69	0.0009033
2517.33	0.0008189
2526.98	0.00049864
2536.62	0.00043817
2546.27	0.00050018
2555.91	0.00041864
2565.56	0.0005335
2575.2	0.0006725
2584.85	0.0007322
2594.49	0.0006906
2604.14	0.000665
2613.78	0.0007682
2623.43	0.0007329
2633.07	0.0005399
2642.72	0.00045555
2652.36	0.00045503
2662.01	0.00046174
2671.65	0.0005134
2681.29	0.000632
2690.94	0.0007732
2700.58	0.0007772
2710.23	0.0005076
2719.87	0.0005529
2729.52	0.0005623
2739.16	0.000412407
2748.81	0.00040106
2758.45	0.00042542
2768.1	0.00042253
2777.74	0.000410776
2787.39	0.0005981
2797.03	0.0006811
2806.68	0.0005538
2816.32	0.0007058
2825.97	0.0005259
2835.61	0.0005675
2845.26	0.0007842
2854.9	0.0009657
2864.55	0.0010439
2874.19	0.0010833
2883.84	0.0012305
2893.48	0.0011332
2903.12	0.0006913
2912.77	0.0007783
2922.41	0.0010697
2932.06	0.001527
2941.7	0.002737
2951.35	0.003247
2960.99	0.004107
2970.64	0.005057
2980.28	0.004297
2989.93	0.003257
2999.57	0.002967
3009.22	0.003197
3018.86	0.003357
3028.51	0.003667
3038.15	0.004067
3047.8	0.004297
3057.44	0.004467
3067.09	0.005247
3076.73	0.003837
3086.38	0.002087
3096.02	0.001827
3105.67	0.0012983
3115.31	0.0009149
3124.95	0.0008913
3134.6	0.0005753
3144.24	0.00046769
3153.89	0.00043858
3163.53	0.0004406
3173.18	0.00046262
3182.82	0.0003959
3192.47	0.000411593
3202.11	0.000341
3211.76	0.0003486
3221.4	0.000285
3231.05	0.0003225
3240.69	0.0003836
3250.34	0.0003805
3259.98	0.000263
3269.63	0.00043483
3279.27	0.000368
3288.92	0.000189
3298.56	0.00041824
3308.21	0.000248
3317.85	0.000258
3327.49	0.000254
3337.14	0.0003632
3346.78	7.8e-05
3356.43	0.000197
3366.07	0.0003599
3375.72	0.000414716
3385.36	0.000192
3395.01	0.000198
3404.65	0.000288
3414.3	0.000255
3423.94	0.000305
3433.59	0.000133
3443.23	0.0004606
3452.88	0.000386
3462.52	0.000121
3472.17	0.000225
3481.81	0.000175
3491.46	0.0003355
3501.1	0.0003372
3510.75	0.000298
3520.39	0.00024
3530.04	0.000247
3539.68	0.0003771
3549.32	0.00043903
3558.97	5.4e-05
3568.61	0.000263
3578.26	0.000246
3587.9	0.00024
3597.55	0.000235
3607.19	0.000217
3616.84	0.0003383
3626.48	0.00039991
3636.13	0.0003861
3645.77	0.00048009
3655.42	0.0005655
3665.06	0.000338
3674.71	0.00045309
3684.35	0.00048006
3694	0.00043647
3703.64	0.0006688
3713.29	0.000412293
3722.93	0.000407128
3732.58	0.0003687
3742.22	0.000221
3751.86	0.0003822
3761.51	0.000254
3771.15	0.000296
3780.8	0.0003788
3790.44	0.000293
3800.09	0.000205
3809.73	0.000298
3819.38	0.000197
3829.02	0.00043443
3838.67	0.0003113
3848.31	0.00041807
3857.96	0.0003086
3867.6	0.00018
3877.25	0.00047228
3886.89	0.0006368
3896.54	0.0005808
3906.18	0.00019
3915.83	0.000291
3925.47	0.0003209
3935.12	0.0003141
3944.76	0.000218
3954.41	0.0006235
3964.05	0.0005603
3973.69	0.0005249
3983.34	0.0005136
3992.98	0.0004418
