Infrared Spectrum: 4-Dimethylamino-3,5-dinitrobenzoic acid
Formula: C 9 H 9 N 3 O 6
CAS: 53639-29-5
State: gas
Origin: EPA-IR VAPOR PHASE LIBRARY
1/CM	ABSORBANCE
501.5	0.0004911
513.074	0.00107
524.648	0.00111
536.222	0.0005809
547.796	0.0006383
559.37	0.000727
570.944	0.0005516
582.518	0.0006076
594.092	0.0007141
605.666	0.00101
617.24	0.00104
628.814	0.00104
640.388	0.0009448
651.962	0.0005271
663.536	0.0004024
675.11	0.0004711
686.684	0.0006987
698.258	0.001
709.832	0.00206
721.406	0.00191
732.98	0.0007001
744.554	0.0006678
756.128	0.00121
767.702	0.00113
779.276	0.0005583
790.85	0.000337
802.423	0.0002586
813.997	0.0001476
825.571	0.0001489
837.145	0.0001715
848.719	0.0001051
860.293	0.0001464
871.867	0.0001634
883.441	0.000193
895.015	0.000535
906.589	0.0007946
918.163	0.00112
929.737	0.0006121
941.311	0.0008142
952.885	0.00137
964.459	0.0006458
976.033	0.0003281
987.607	0.0003216
999.181	0.0003275
1010.76	0.0002575
1022.33	0.0002948
1033.9	0.0004772
1045.48	0.0004034
1057.05	0.0006839
1068.63	0.0011
1080.2	0.00124
1091.77	0.00186
1103.35	0.00335
1114.92	0.00868
1126.49	0.00835
1138.07	0.00251
1149.64	0.0012
1161.22	0.00112
1172.79	0.00119
1184.36	0.00142
1195.94	0.00199
1207.51	0.00276
1219.09	0.00152
1230.66	0.0008515
1242.23	0.0006663
1253.81	0.0007672
1265.38	0.0008635
1276.96	0.00163
1288.53	0.00164
1300.1	0.0016
1311.68	0.00197
1323.25	0.00281
1334.83	0.00414
1346.4	0.0065
1357.97	0.00741
1369.55	0.00517
1381.12	0.00364
1392.7	0.00203
1404.27	0.00174
1415.84	0.00136
1427.42	0.00114
1438.99	0.00132
1450.57	0.00126
1462.14	0.00142
1473.71	0.00128
1485.29	0.00126
1496.86	0.00157
1508.44	0.00228
1520.01	0.00316
1531.58	0.00443
1543.16	0.009
1554.73	0.0117
1566.31	0.00571
1577.88	0.00255
1589.45	0.00213
1601.03	0.00281
1612.6	0.00459
1624.18	0.0042
1635.75	0.00201
1647.32	0.0009925
1658.9	0.0005389
1670.47	0.0003541
1682.05	0.0002541
1693.62	0.0002234
1705.19	0.0004433
1716.77	0.0007434
1728.34	0.0007202
1739.92	0.0008401
1751.49	0.00249
1763.06	0.01251
1774.64	0.00763
1786.21	0.00109
1797.79	0.0005586
1809.36	0.0007181
1820.93	0.0008394
1832.51	0.0004224
1844.08	0.0002683
1855.66	0.0002702
1867.23	0.0001957
1878.8	0.0001939
1890.38	0.000242
1901.95	0.0002338
1913.53	0.0001703
1925.1	0.0002138
1936.67	0.0001851
1948.25	0.0001623
1959.82	0.0001723
1971.4	0.0001732
1982.97	0.0002182
1994.54	0.0001926
2006.12	0.0002092
2017.69	0.0002214
2029.27	0.0002127
2040.84	0.0002121
2052.41	0.0001973
2063.99	0.0001966
2075.56	0.0002311
2087.14	0.0002042
2098.71	0.0002438
2110.28	0.000219
2121.86	0.000207
2133.43	0.0001945
2145.01	0.0001835
2156.58	0.0002038
2168.15	0.0002132
2179.73	0.0001958
2191.3	0.0002402
2202.88	0.0002623
2214.45	0.0002425
2226.02	0.0002526
2237.6	0.0002462
2249.17	0.0002482
2260.74	0.0002215
2272.32	0.000246
2283.89	0.0002887
2295.47	0.0002462
2307.04	0.0002717
2318.61	0.0002313
2330.19	0.0002407
2341.76	0.0002994
2353.34	0.0002903
2364.91	0.0002622
2376.48	0.0003043
2388.06	0.0002317
2399.63	0.000274
2411.21	0.000302
2422.78	0.0003025
2434.35	0.0002979
2445.93	0.0002997
2457.5	0.0002717
2469.08	0.0002874
2480.65	0.0003048
2492.22	0.0002652
2503.8	0.0002577
2515.37	0.0002644
2526.95	0.0002988
2538.52	0.0003257
2550.09	0.0002991
2561.67	0.0003866
2573.24	0.0003792
2584.82	0.0003224
2596.39	0.0003313
2607.96	0.0003294
2619.54	0.0003397
2631.11	0.0003476
2642.69	0.000368
2654.26	0.0003953
2665.83	0.000364
2677.41	0.0004265
2688.98	0.0003812
2700.56	0.0004076
2712.13	0.0004156
2723.7	0.0004066
2735.28	0.0004411
2746.85	0.0004483
2758.43	0.0005031
2770	0.000439
2781.57	0.0004995
2793.15	0.0005774
2804.72	0.0006972
2816.3	0.0009394
2827.87	0.00101
2839.44	0.0007178
2851.02	0.0007796
2862.59	0.0009693
2874.17	0.00111
2885.74	0.00134
2897.31	0.00154
2908.89	0.00163
2920.46	0.0015
2932.04	0.00153
2943.61	0.00178
2955.18	0.00162
2966.76	0.00103
2978.33	0.000808
2989.91	0.0008047
3001.48	0.0008396
3013.05	0.0006121
3024.63	0.0005328
3036.2	0.0005065
3047.78	0.0003729
3059.35	0.0004536
3070.92	0.0004937
3082.5	0.0006076
3094.07	0.0006117
3105.65	0.0004985
3117.22	0.0004285
3128.79	0.0004334
3140.37	0.0003792
3151.94	0.0003859
3163.52	0.0004038
3175.09	0.0003984
3186.66	0.00038
3198.24	0.0003103
3209.81	0.0003755
3221.39	0.000395
3232.96	0.0003359
3244.53	0.0002926
3256.11	0.0004033
3267.68	0.000316
3279.26	0.00029
3290.83	0.0002896
3302.4	0.0002983
3313.98	0.0002531
3325.55	0.0002812
3337.13	0.0003115
3348.7	0.0003531
3360.27	0.0003247
3371.85	0.0002953
3383.42	0.0003267
3395	0.0002676
3406.57	0.0002499
3418.14	0.0003528
3429.72	0.0003125
3441.29	0.0002061
3452.86	0.000281
3464.44	0.0002931
3476.01	0.000287
3487.59	0.0003721
3499.16	0.0003697
3510.73	0.0003333
3522.31	0.0003172
3533.88	0.0003452
3545.46	0.0004119
3557.03	0.0003754
3568.6	0.00107
3580.18	0.00562
3591.75	0.00236
3603.33	0.0005269
3614.9	0.0003283
3626.47	0.0003067
3638.05	0.0002649
3649.62	0.0003048
3661.2	0.0002751
3672.77	0.0003548
3684.34	0.0002662
3695.92	0.0003574
3707.49	0.0003124
3719.07	0.0002908
3730.64	0.0002566
3742.21	0.0002522
3753.79	0.0002783
3765.36	0.0004164
3776.94	0.0003227
3788.51	0.0003324
3800.08	0.0002044
3811.66	0.0003677
3823.23	0.0001791
3834.81	0.0001776
3846.38	0.0002806
3857.95	0.0003657
3869.53	0.0003764
3881.1	0.0003172
3892.68	0.0003388
3904.25	0.0002971
3915.82	0.0003979
3927.4	0.0002991
3938.97	0.0002775
3950.55	0.0002497
3962.12	0.00035
3973.69	0.0003477
3985.27	0.0003123
3996.84	0.0003307
