Infrared Spectrum: PHENYL PROPANOLAMINE HYDROCHLORIDE
Formula: C9 H13 N O  * H Cl
CAS: 53631-70-2
State: SOLID (1.5 mg / 100 mg KBr PELLET)
Class: COBLENTZ
Instrument: Not specified, most likely a grating spectrometer.
Sampling: TRANSMISSION
Resolution: 4
Origin: CITRUS EXPERIMENT STATION, UNIVERSITY OF FLORIDA (G. EDWARDS)
MICROMETERS	TRANSMITTANCE
2.006	0.463
2.0422	0.468
2.07839	0.474
2.11459	0.48
2.15078	0.491
2.18698	0.5
2.22317	0.503
2.25937	0.507
2.29556	0.519
2.33176	0.526
2.36795	0.536
2.40415	0.539
2.44034	0.549
2.47654	0.555
2.51273	0.56
2.54893	0.57
2.58512	0.579
2.62132	0.583
2.65751	0.584
2.69371	0.582
2.72991	0.578
2.7661	0.573
2.8023	0.56
2.83849	0.537
2.87469	0.491
2.91088	0.444
2.94708	0.393
2.98327	0.386
3.01947	0.42
3.05566	0.476
3.09186	0.476
3.12805	0.455
3.16425	0.449
3.20044	0.423
3.23664	0.393
3.27283	0.349
3.30903	0.315
3.34522	0.331
3.38142	0.33
3.41762	0.363
3.45381	0.411
3.49001	0.458
3.5262	0.502
3.5624	0.521
3.59859	0.55
3.63479	0.57
3.67098	0.577
3.70718	0.593
3.74337	0.608
3.77957	0.61
3.81576	0.606
3.85196	0.605
3.88815	0.622
3.92435	0.647
3.96054	0.653
3.99674	0.648
4.03293	0.654
4.06913	0.665
4.10532	0.691
4.14152	0.699
4.17772	0.708
4.21391	0.71
4.25011	0.716
4.2863	0.723
4.3225	0.731
4.35869	0.736
4.39489	0.739
4.43108	0.744
4.46728	0.753
4.50347	0.757
4.53967	0.761
4.57586	0.762
4.61206	0.763
4.64825	0.771
4.68445	0.772
4.72064	0.774
4.75684	0.776
4.79303	0.774
4.82923	0.772
4.86543	0.772
4.90162	0.762
4.93782	0.745
4.97401	0.738
5.01021	0.734
5.0464	0.739
5.0826	0.742
5.11879	0.759
5.15499	0.765
5.19118	0.771
5.22738	0.783
5.26357	0.79
5.29977	0.801
5.33596	0.809
5.37216	0.813
5.40835	0.817
5.44455	0.818
5.48074	0.823
5.51694	0.823
5.55314	0.825
5.58933	0.828
5.62553	0.819
5.66172	0.812
5.69792	0.812
5.73411	0.82
5.77031	0.829
5.8065	0.829
5.8427	0.828
5.87889	0.835
5.91509	0.831
5.95128	0.83
5.98748	0.83
6.02367	0.811
6.05987	0.8
6.09606	0.771
6.13226	0.733
6.16845	0.722
6.20465	0.685
6.24085	0.618
6.27704	0.605
6.31324	0.645
6.34943	0.731
6.38563	0.774
6.42182	0.776
6.45802	0.763
6.49421	0.751
6.53041	0.691
6.5666	0.669
6.6028	0.617
6.63899	0.592
6.67519	0.571
6.71138	0.582
6.74758	0.646
6.78377	0.693
6.81997	0.667
6.85616	0.605
6.89236	0.679
6.92856	0.725
6.96475	0.754
7.00095	0.772
7.03714	0.786
7.07334	0.773
7.10953	0.734
7.14573	0.709
7.18192	0.707
7.21812	0.763
7.25431	0.772
7.29051	0.795
7.3267	0.801
7.3629	0.811
7.39909	0.813
7.43529	0.756
7.47148	0.691
7.50768	0.694
7.54387	0.776
7.58007	0.815
7.61626	0.826
7.65246	0.841
7.68866	0.838
7.72485	0.853
7.76105	0.86
7.79724	0.859
7.83344	0.846
7.86963	0.814
7.90583	0.779
7.94202	0.771
7.97822	0.76
8.01441	0.723
8.05061	0.73
8.0868	0.784
8.123	0.824
8.15919	0.824
8.19539	0.801
8.23158	0.731
8.26778	0.679
8.30397	0.685
8.34017	0.708
8.37637	0.766
8.41256	0.801
8.44876	0.786
8.48495	0.805
8.52115	0.83
8.55734	0.835
8.59354	0.843
8.62973	0.846
8.66593	0.848
8.70212	0.858
8.73832	0.847
8.77451	0.829
8.81071	0.824
8.8469	0.79
8.8831	0.797
8.91929	0.841
8.95549	0.855
8.99168	0.859
9.02788	0.849
9.06408	0.84
9.10027	0.837
9.13647	0.822
9.17266	0.754
9.20886	0.753
9.24505	0.802
9.28125	0.8
9.31744	0.812
9.35364	0.837
9.38983	0.813
9.42603	0.704
9.46222	0.577
9.49842	0.645
9.53461	0.745
9.57081	0.751
9.607	0.726
9.6432	0.652
9.67939	0.554
9.71559	0.553
9.75179	0.623
9.78798	0.659
9.82418	0.708
9.86037	0.771
9.89657	0.8
9.93276	0.805
9.96896	0.782
10.0052	0.754
10.0413	0.746
10.0775	0.754
10.1137	0.78
10.1499	0.828
10.1861	0.848
10.2223	0.848
10.2585	0.842
10.2947	0.841
10.3309	0.842
10.3671	0.858
10.4033	0.881
10.4395	0.897
10.4757	0.907
10.5119	0.914
10.5481	0.917
10.5843	0.911
10.6205	0.893
10.6567	0.875
10.6929	0.877
10.7291	0.904
10.7653	0.91
10.8014	0.907
10.8376	0.912
10.8738	0.903
10.91	0.892
10.9462	0.904
10.9824	0.918
11.0186	0.926
11.0548	0.937
11.091	0.941
11.1272	0.946
11.1634	0.952
11.1996	0.955
11.2358	0.956
11.272	0.958
11.3082	0.96
11.3444	0.961
11.3806	0.962
11.4168	0.962
11.453	0.963
11.4892	0.967
11.5254	0.967
11.5615	0.964
11.5977	0.964
11.6339	0.964
11.6701	0.961
11.7063	0.941
11.7425	0.912
11.7787	0.865
11.8149	0.841
11.8511	0.859
11.8873	0.905
11.9235	0.933
11.9597	0.953
11.9959	0.961
12.0321	0.963
12.0683	0.966
12.1045	0.964
12.1407	0.962
12.1769	0.952
12.2131	0.926
12.2493	0.916
12.2855	0.934
12.3216	0.957
12.3578	0.961
12.394	0.953
12.4302	0.943
12.4664	0.951
12.5026	0.962
12.5388	0.967
12.575	0.97
12.6112	0.973
12.6474	0.975
12.6836	0.975
12.7198	0.976
12.756	0.975
12.7922	0.975
12.8284	0.976
12.8646	0.972
12.9008	0.969
12.937	0.963
12.9732	0.961
13.0094	0.951
13.0456	0.926
13.0817	0.904
13.1179	0.86
13.1541	0.808
13.1903	0.748
13.2265	0.681
13.2627	0.651
13.2989	0.627
13.3351	0.572
13.3713	0.514
13.4075	0.516
13.4437	0.575
13.4799	0.668
13.5161	0.74
13.5523	0.799
13.5885	0.837
13.6247	0.875
13.6609	0.9
13.6971	0.907
13.7333	0.914
13.7695	0.922
13.8057	0.923
13.8418	0.923
13.878	0.923
13.9142	0.917
13.9504	0.9
13.9866	0.864
14.0228	0.792
14.059	0.714
14.0952	0.631
14.1314	0.573
14.1676	0.543
14.2038	0.512
14.24	0.514
14.2762	0.554
14.3124	0.634
14.3486	0.702
14.3848	0.754
14.421	0.785
14.4572	0.805
14.4934	0.814
14.5296	0.826
14.5658	0.841
14.6019	0.843
14.6381	0.843
14.6743	0.843
14.7105	0.842
14.7467	0.841
14.7829	0.837
14.8191	0.829
14.8553	0.815
14.8915	0.789
14.9277	0.776
14.9639	0.795
