Infrared Spectrum: 2,2-Dichlorocyclopropylacetonitrile
Formula: C 5 H 5 Cl 2 N
CAS: 5365-25-3
State: gas
Origin: EPA-IR VAPOR PHASE LIBRARY
1/CM	ABSORBANCE
549.8	0.004015
559.445	0.003645
569.09	0.006635
578.734	0.007895
588.379	0.005055
598.024	0.002435
607.669	0.002235
617.313	0.0012264
626.958	0.001925
636.603	0.001655
646.248	0.001575
655.893	0.0007817
665.537	0.002375
675.182	0.002065
684.827	0.002485
694.472	0.003055
704.116	0.003505
713.761	0.004255
723.406	0.006795
733.051	0.018115
742.695	0.043325
752.34	0.066985
761.985	0.060355
771.63	0.033495
781.275	0.012885
790.919	0.007875
800.564	0.009485
810.209	0.009805
819.854	0.006485
829.498	0.003605
839.143	0.003765
848.788	0.004835
858.433	0.005415
868.078	0.006055
877.722	0.006155
887.367	0.004315
897.012	0.004145
906.657	0.003485
916.301	0.005095
925.946	0.006245
935.591	0.006905
945.236	0.005815
954.88	0.005545
964.525	0.007135
974.17	0.010535
983.815	0.010345
993.46	0.008035
1003.1	0.005175
1012.75	0.008405
1022.39	0.012555
1032.04	0.013085
1041.68	0.012545
1051.33	0.019315
1060.97	0.017885
1070.62	0.009575
1080.26	0.011845
1089.91	0.018085
1099.55	0.034535
1109.2	0.038525
1118.84	0.039185
1128.49	0.034845
1138.13	0.016715
1147.78	0.005455
1157.42	0.004605
1167.07	0.003375
1176.71	0.002635
1186.36	0.003175
1196	0.005625
1205.64	0.006225
1215.29	0.012965
1224.93	0.021495
1234.58	0.020155
1244.22	0.010835
1253.87	0.005585
1263.51	0.002615
1273.16	0.001945
1282.8	0.001985
1292.45	0.002935
1302.09	0.003605
1311.74	0.002635
1321.38	0.001845
1331.03	0.001845
1340.67	0.001995
1350.32	0.001745
1359.96	0.002395
1369.61	0.003595
1379.25	0.004065
1388.9	0.004265
1398.54	0.004985
1408.18	0.007955
1417.83	0.016305
1427.47	0.026885
1437.12	0.025585
1446.76	0.014545
1456.41	0.006685
1466.05	0.004055
1475.7	0.003335
1485.34	0.002875
1494.99	0.002455
1504.63	0.002545
1514.28	0.002335
1523.92	0.001885
1533.57	0.001895
1543.21	0.001705
1552.86	0.001655
1562.5	0.002155
1572.15	0.001615
1581.79	0.0013981
1591.44	0.0011617
1601.08	0.0010503
1610.73	0.0007778
1620.37	0.0010059
1630.01	0.0008308
1639.66	0.0008739
1649.3	0.000909
1658.95	0.0007509
1668.59	0.0007985
1678.24	0.0006974
1687.88	0.0008382
1697.53	0.0010375
1707.17	0.0005196
1716.82	0.0007463
1726.46	0.0008519
1736.11	0.0007238
1745.75	0.0009858
1755.4	0.0008167
1765.04	0.0009233
1774.69	0.0012594
1784.33	0.0014809
1793.98	0.0011667
1803.62	0.001755
1813.27	0.001233
1822.91	0.001565
1832.55	0.001635
1842.2	0.001735
1851.84	0.001725
1861.49	0.001855
1871.13	0.001755
1880.78	0.001685
1890.42	0.001635
1900.07	0.0015306
1909.71	0.001625
1919.36	0.001575
1929	0.0012409
1938.65	0.001
1948.29	0.00142
1957.94	0.0011989
1967.58	0.0012185
1977.23	0.0014581
1986.87	0.0013694
1996.52	0.0014021
2006.16	0.001324
2015.81	0.0015048
2025.45	0.001243
2035.1	0.0013091
2044.74	0.001735
2054.38	0.001765
2064.03	0.002115
2073.67	0.001945
2083.32	0.002605
2092.96	0.002635
2102.61	0.002385
2112.25	0.002065
2121.9	0.0015253
2131.54	0.001695
2141.19	0.001605
2150.83	0.001555
2160.48	0.001555
2170.12	0.0014781
2179.77	0.0015255
2189.41	0.001645
2199.06	0.001675
2208.7	0.0013541
2218.35	0.0013885
2227.99	0.001555
2237.64	0.001955
2247.28	0.002755
2256.92	0.003075
2266.57	0.002375
2276.21	0.001625
2285.86	0.001605
2295.5	0.001775
2305.15	0.0014775
2314.79	0.001625
2324.44	0.0014226
2334.08	0.0015003
2343.73	0.001805
2353.37	0.0013463
2363.02	0.0014177
2372.66	0.0013576
2382.31	0.0013413
2391.95	0.0013882
2401.6	0.0012493
2411.24	0.0010015
2420.89	0.0011412
2430.53	0.0014332
2440.18	0.0015042
2449.82	0.001835
2459.47	0.001595
2469.11	0.0010454
2478.75	0.0013258
2488.4	0.0012068
2498.04	0.0013752
2507.69	0.001585
2517.33	0.001645
2526.98	0.0013816
2536.62	0.0011415
2546.27	0.0012508
2555.91	0.0014852
2565.56	0.001685
2575.2	0.0010284
2584.85	0.0015121
2594.49	0.001755
2604.14	0.001705
2613.78	0.001655
2623.43	0.0013616
2633.07	0.0010195
2642.72	0.0014084
2652.36	0.001735
2662.01	0.001735
2671.65	0.0014946
2681.29	0.0007433
2690.94	0.0014367
2700.58	0.0014346
2710.23	0.0010617
2719.87	0.0013553
2729.52	0.001655
2739.16	0.0010195
2748.81	0.0015049
2758.45	0.0010777
2768.1	0.0013812
2777.74	0.0007099
2787.39	0.0009894
2797.03	0.0012687
2806.68	0.0014022
2816.32	0.0012883
2825.97	0.0015255
2835.61	0.001735
2845.26	0.001585
2854.9	0.001805
2864.55	0.0010919
2874.19	0.001575
2883.84	0.001299
2893.48	0.0014351
2903.12	0.0010777
2912.77	0.001685
2922.41	0.003045
2932.06	0.006135
2941.7	0.007765
2951.35	0.005135
2960.99	0.002565
2970.64	0.001705
2980.28	0.001585
2989.93	0.001755
2999.57	0.001755
3009.22	0.002415
3018.86	0.003155
3028.51	0.003215
3038.15	0.002705
3047.8	0.002325
3057.44	0.0013449
3067.09	0.0012476
3076.73	0.0009136
3086.38	0.0014511
3096.02	0.0014647
3105.67	0.002155
3115.31	0.0013118
3124.95	0.0014855
3134.6	0.0012314
3144.24	0.002195
3153.89	0.0011399
3163.53	0.001655
3173.18	0.0015111
3182.82	0.001825
3192.47	0.0013993
3202.11	0.0013254
3211.76	0.0014306
3221.4	0.0011312
3231.05	0.0014305
3240.69	0.00064307
3250.34	0.000856
3259.98	0.0012005
3269.63	0.0011431
3279.27	0.0010519
3288.92	0.0008219
3298.56	0.0009796
3308.21	0.0005324
3317.85	0.001695
3327.49	0.0009303
3337.14	0.0007556
3346.78	0.0015323
3356.43	0.0009927
3366.07	0.001133
3375.72	0.0013496
3385.36	0.0015232
3395.01	0.0010645
3404.65	0.0009472
3414.3	0.0006967
3423.94	0.0012361
3433.59	0.0010524
3443.23	0.0013259
3452.88	0.0010452
3462.52	0.0011276
3472.17	0.0007545
3481.81	0.0012419
3491.46	0.0013364
3501.1	0.0008797
3510.75	0.0010196
3520.39	0.0014975
3530.04	0.0015223
3539.68	0.0006595
3549.32	0.0010222
3558.97	0.0009787
3568.61	0.0011346
3578.26	0.0014543
3587.9	0.001665
3597.55	0.0004856
3607.19	0.0008858
3616.84	0.001317
3626.48	0.0006556
3636.13	0.0013262
3645.77	0.0007476
3655.42	0.000741
3665.06	0.00060036
3674.71	0.00063095
3684.35	0.0007159
3694	0.001156
3703.64	0.0012366
3713.29	0.000904
3722.93	0.0008162
3732.58	0.0013076
3742.22	0.0012049
3751.86	0.0015229
3761.51	0.0012224
3771.15	0.001705
3780.8	0.000388
3790.44	0.0013932
3800.09	0.0010229
3809.73	0.0010477
3819.38	0.000366
3829.02	0.0008374
3838.67	0.001258
3848.31	0.0014225
3857.96	0.0010984
3867.6	0.0012415
3877.25	0.0011802
3886.89	0.0012746
3896.54	0.0009592
3906.18	0.0015001
3915.83	0.001675
3925.47	0.0009355
3935.12	0.0010847
3944.76	0.0011167
3954.41	0.0006895
3964.05	0.0014214
3973.69	0.0010564
3983.34	0.001675
3992.98	0.001955
