Infrared Spectrum: 3-PHENYL-2-PIPERAZINENE
Formula: C10 H12 N2 O
CAS: 5368-28-5
State: SOLUTION (8% CHCl3)
Class: COBLENTZ
Instrument: Not specified, most likely a grating spectrometer.
Sampling: TRANSMISSION
Path length: 0.010 CM CELL
Resolution: 4
Origin: ABBOTT LABORATORIES
MICROMETERS	TRANSMITTANCE
2.033	0.986
2.07308	0.981
2.11316	0.977
2.15324	0.975
2.19332	0.975
2.2334	0.972
2.27348	0.968
2.31356	0.968
2.35364	0.965
2.39372	0.962
2.4338	0.959
2.47388	0.955
2.51396	0.96
2.55404	0.963
2.59412	0.96
2.6342	0.96
2.67428	0.962
2.71436	0.963
2.75444	0.97
2.79452	0.95
2.8346	0.908
2.87468	0.801
2.91476	0.692
2.95484	0.715
2.99492	0.689
3.035	0.641
3.07508	0.569
3.11516	0.615
3.15524	0.667
3.19532	0.62
3.2354	0.603
3.27548	0.458
3.31556	0.402
3.35564	0.471
3.39572	0.581
3.4358	0.6
3.47588	0.644
3.51596	0.7
3.55604	0.777
3.59612	0.839
3.6362	0.872
3.67628	0.875
3.71636	0.885
3.75644	0.903
3.79652	0.903
3.8366	0.903
3.87668	0.908
3.91676	0.903
3.95684	0.895
3.99692	0.883
4.037	0.877
4.07708	0.88
4.11716	0.898
4.15724	0.918
4.19732	0.919
4.2374	0.913
4.27748	0.921
4.31756	0.918
4.35764	0.923
4.39772	0.919
4.4378	0.919
4.47788	0.921
4.51796	0.919
4.55804	0.918
4.59812	0.923
4.6382	0.919
4.67828	0.924
4.71836	0.918
4.75844	0.918
4.79852	0.919
4.8386	0.919
4.87868	0.921
4.91876	0.913
4.95884	0.916
4.99892	0.918
5.039	0.905
5.07908	0.891
5.11916	0.893
5.15924	0.908
5.19932	0.906
5.2394	0.903
5.27948	0.893
5.31956	0.891
5.35964	0.9
5.39972	0.896
5.4398	0.888
5.47988	0.869
5.51996	0.87
5.56004	0.88
5.60012	0.867
5.6402	0.859
5.68028	0.852
5.72036	0.841
5.76044	0.821
5.80052	0.787
5.8406	0.666
5.88068	0.342
5.92076	0.021
5.96084	0.018
6.00092	0.111
6.041	0.382
6.08108	0.556
6.12116	0.693
6.16124	0.743
6.20132	0.747
6.2414	0.779
6.28148	0.785
6.32156	0.821
6.36164	0.842
6.40172	0.851
6.4418	0.847
6.48188	0.849
6.52196	0.857
6.56204	0.849
6.60212	0.811
6.6422	0.653
6.68228	0.343
6.72236	0.309
6.76244	0.62
6.80252	0.672
6.8426	0.502
6.88268	0.412
6.92276	0.559
6.96284	0.711
7.00292	0.733
7.043	0.671
7.08308	0.623
7.12316	0.695
7.16324	0.723
7.20332	0.716
7.2434	0.736
7.28348	0.674
7.32356	0.697
7.36364	0.705
7.40372	0.599
7.4438	0.382
7.48388	0.176
7.52396	0.165
7.56404	0.369
7.60412	0.517
7.6442	0.587
7.68428	0.545
7.72436	0.563
7.76444	0.54
7.80452	0.551
7.8446	0.589
7.88468	0.561
7.92476	0.599
7.96484	0.597
8.00492	0.564
8.045	0.53
8.08508	0.477
8.12516	0.479
8.16524	0.513
8.20532	0.543
8.2454	0.553
8.28548	0.581
8.32556	0.641
8.36564	0.728
8.40572	0.731
8.4458	0.734
8.48588	0.749
8.52596	0.77
8.56604	0.783
8.60612	0.787
8.6462	0.774
8.68628	0.752
8.72636	0.715
8.76644	0.679
8.80652	0.649
8.8466	0.613
8.88668	0.595
8.92676	0.641
8.96684	0.698
9.00692	0.692
9.047	0.716
9.08708	0.751
9.12716	0.749
9.16724	0.693
9.20732	0.697
9.2474	0.729
9.28748	0.716
9.32756	0.743
9.36764	0.819
9.40772	0.851
9.4478	0.87
9.48788	0.862
9.52796	0.847
9.56804	0.849
9.60812	0.854
9.6482	0.859
9.68828	0.744
9.72836	0.777
9.76844	0.78
9.80852	0.743
9.8486	0.667
9.88868	0.638
9.92876	0.628
9.96884	0.656
10.0089	0.708
10.049	0.674
10.0891	0.608
10.1292	0.597
10.1692	0.646
10.2093	0.725
10.2494	0.767
10.2895	0.78
10.3296	0.797
10.3696	0.81
10.4097	0.816
10.4498	0.829
10.4899	0.836
10.53	0.834
10.57	0.839
10.6101	0.842
10.6502	0.842
10.6903	0.847
10.7304	0.847
10.7704	0.813
10.8105	0.762
10.8506	0.739
10.8907	0.754
10.9308	0.769
10.9708	0.782
11.0109	0.783
11.051	0.79
11.0911	0.78
11.1312	0.772
11.1712	0.757
11.2113	0.734
11.2514	0.705
11.2915	0.675
11.3316	0.651
11.3716	0.623
11.4117	0.608
11.4518	0.599
11.4919	0.582
11.532	0.574
11.572	0.589
11.6121	0.638
11.6522	0.677
11.6923	0.693
11.7324	0.703
11.7724	0.711
11.8125	0.707
11.8526	0.697
11.8927	0.689
11.9328	0.68
11.9728	0.675
12.0129	0.679
12.053	0.672
12.0931	0.662
12.1332	0.661
12.1732	0.654
12.2133	0.646
12.2534	0.63
12.2935	0.626
12.3336	0.617
12.3736	0.615
12.4137	0.62
12.4538	0.62
12.4939	0.62
12.534	0.618
12.574	0.623
12.6141	0.638
12.6542	0.648
12.6943	0.657
12.7344	0.671
12.7744	0.68
12.8145	0.68
12.8546	0.698
12.8947	0.707
12.9348	0.725
12.9748	0.723
13.0149	0.725
13.055	0.731
13.0951	0.743
13.1352	0.754
13.1752	0.77
13.2153	0.783
13.2554	0.793
13.2955	0.798
13.3356	0.8
13.3756	0.801
13.4157	0.813
13.4558	0.818
13.4959	0.824
13.536	0.828
13.576	0.829
13.6161	0.833
13.6562	0.834
13.6963	0.841
13.7364	0.851
13.7764	0.859
13.8165	0.859
13.8566	0.854
13.8967	0.842
13.9368	0.819
13.9768	0.797
14.0169	0.78
14.057	0.752
14.0971	0.718
14.1372	0.669
14.1772	0.612
14.2173	0.541
14.2574	0.384
14.2975	0.271
14.3376	0.201
14.3776	0.211
14.4177	0.276
14.4578	0.391
14.4979	0.456
14.538	0.502
14.578	0.522
14.6181	0.538
14.6582	0.558
14.6983	0.608
14.7384	0.641
14.7784	0.669
14.8185	0.692
14.8586	0.72
14.8987	0.729
14.9388	0.741
14.9788	0.738
15.0189	0.733
15.059	0.721
15.0991	0.669
15.1392	0.533
15.1792	0.453
15.2193	0.469
15.2594	0.525
15.2995	0.574
15.3396	0.617
15.3796	0.633
15.4197	0.643
