Infrared Spectrum: N-ACETYL-2-ETHOXY-5-CHLORO ANILINE
Formula: C10 H12 Cl N O2
CAS: 53689-25-1
State: SOLID (NUJOL MULL)
Class: COBLENTZ
Instrument: Not specified, most likely a prism, grating, or hybrid spectrometer.
Sampling: TRANSMISSION
Resolution: 4
Origin: TENNESSEE EASTMAN COMPANY, RESEARCH LABORATORIES
MICROMETERS	TRANSMITTANCE
2.036	0.639
2.0759	0.641
2.11581	0.646
2.15571	0.654
2.19561	0.659
2.23551	0.667
2.27542	0.667
2.31532	0.667
2.35522	0.667
2.39513	0.672
2.43503	0.682
2.47493	0.684
2.51484	0.689
2.55474	0.706
2.59464	0.721
2.63454	0.726
2.67445	0.732
2.71435	0.741
2.75425	0.751
2.79416	0.751
2.83406	0.759
2.87396	0.771
2.91387	0.784
2.95377	0.792
2.99367	0.696
3.03357	0.494
3.07348	0.582
3.11338	0.634
3.15328	0.674
3.19319	0.691
3.23309	0.694
3.27299	0.699
3.3129	0.674
3.3528	0.49
3.3927	0.17
3.4326	0.071
3.47251	0.2
3.51241	0.193
3.55231	0.666
3.59222	0.782
3.63212	0.803
3.67202	0.813
3.71193	0.813
3.75183	0.818
3.79173	0.823
3.83163	0.829
3.87154	0.833
3.91144	0.841
3.95134	0.843
3.99125	0.851
4.03115	0.863
4.07105	0.868
4.11096	0.869
4.15086	0.878
4.19076	0.879
4.23066	0.883
4.27057	0.913
4.31047	0.918
4.35037	0.918
4.39028	0.918
4.43018	0.918
4.47008	0.916
4.50999	0.921
4.54989	0.926
4.58979	0.928
4.62969	0.933
4.6696	0.938
4.7095	0.943
4.7494	0.944
4.78931	0.951
4.82921	0.959
4.86911	0.959
4.90902	0.959
4.94892	0.959
4.98882	0.963
5.02872	0.969
5.06863	0.973
5.10853	0.971
5.14843	0.973
5.18834	0.973
5.22824	0.974
5.26814	0.984
5.30805	0.988
5.34795	0.991
5.38785	1.001
5.42775	1
5.46766	1.001
5.50756	1.003
5.54746	1.008
5.58737	1.011
5.62727	1.013
5.66717	1.015
5.70708	1.013
5.74698	0.998
5.78688	0.993
5.82678	1.001
5.86669	0.968
5.90659	0.926
5.94649	0.746
5.9864	0.42
6.0263	0.328
6.0662	0.582
6.10611	0.684
6.14601	0.754
6.18591	0.814
6.22581	0.777
6.26572	0.577
6.30562	0.527
6.34552	0.764
6.38543	0.833
6.42533	0.818
6.46523	0.669
6.50514	0.465
6.54504	0.445
6.58494	0.54
6.62484	0.646
6.66475	0.669
6.70465	0.467
6.74455	0.564
6.78446	0.449
6.82436	0.18
6.86426	0.308
6.90417	0.409
6.94407	0.517
6.98397	0.661
7.02387	0.58
7.06378	0.325
7.10368	0.572
7.14358	0.684
7.18349	0.58
7.22339	0.542
7.26329	0.48
7.3032	0.48
7.3431	0.579
7.383	0.712
7.4229	0.762
7.46281	0.794
7.50271	0.804
7.54261	0.806
7.58252	0.706
7.62242	0.657
7.66232	0.777
7.70223	0.819
7.74213	0.838
7.78203	0.844
7.82193	0.851
7.86184	0.687
7.90174	0.417
7.94164	0.514
7.98155	0.505
8.02145	0.484
8.06135	0.427
8.10126	0.56
8.14116	0.706
8.18106	0.761
8.22096	0.669
8.26087	0.425
8.30077	0.462
8.34067	0.602
8.38058	0.696
8.42048	0.746
8.46038	0.769
8.50029	0.784
8.54019	0.801
8.58009	0.824
8.61999	0.833
8.6599	0.831
8.6998	0.841
8.7397	0.851
8.77961	0.664
8.81951	0.407
8.85941	0.575
8.89932	0.734
8.93922	0.777
8.97912	0.779
9.01902	0.747
9.05893	0.818
9.09883	0.849
9.13873	0.858
9.17864	0.869
9.21854	0.881
9.25844	0.891
9.29835	0.901
9.33825	0.906
9.37815	0.909
9.41805	0.913
9.45796	0.904
9.49786	0.843
9.53776	0.702
9.57767	0.514
9.61757	0.45
9.65747	0.535
9.69738	0.642
9.73728	0.701
9.77718	0.721
9.81708	0.749
9.85699	0.797
9.89689	0.823
9.93679	0.844
9.9767	0.858
10.0166	0.874
10.0565	0.881
10.0964	0.893
10.1363	0.898
10.1762	0.899
10.2161	0.899
10.256	0.899
10.2959	0.899
10.3358	0.901
10.3757	0.896
10.4156	0.891
10.4555	0.896
10.4954	0.904
10.5353	0.913
10.5752	0.924
10.6151	0.931
10.655	0.931
10.695	0.933
10.7349	0.933
10.7748	0.926
10.8147	0.868
10.8546	0.831
10.8945	0.851
10.9344	0.891
10.9743	0.918
11.0142	0.931
11.0541	0.929
11.094	0.869
11.1339	0.711
11.1738	0.694
11.2137	0.779
11.2536	0.831
11.2935	0.849
11.3334	0.858
11.3733	0.854
11.4132	0.759
11.4531	0.631
11.493	0.736
11.5329	0.868
11.5728	0.921
11.6127	0.948
11.6526	0.961
11.6925	0.963
11.7324	0.966
11.7723	0.969
11.8122	0.969
11.8521	0.969
11.892	0.971
11.9319	0.971
11.9718	0.971
12.0117	0.969
12.0517	0.969
12.0916	0.969
12.1315	0.969
12.1714	0.971
12.2113	0.973
12.2512	0.971
12.2911	0.966
12.331	0.959
12.3709	0.943
12.4108	0.901
12.4507	0.806
12.4906	0.585
12.5305	0.412
12.5704	0.56
12.6103	0.774
12.6502	0.879
12.6901	0.921
12.73	0.939
12.7699	0.953
12.8098	0.954
12.8497	0.956
12.8896	0.958
12.9295	0.958
12.9694	0.958
13.0093	0.958
13.0492	0.958
13.0891	0.958
13.129	0.958
13.1689	0.958
13.2088	0.954
13.2487	0.951
13.2886	0.931
13.3285	0.921
13.3685	0.921
13.4084	0.921
13.4483	0.921
13.4882	0.916
13.5281	0.909
13.568	0.904
13.6079	0.899
13.6478	0.889
13.6877	0.883
13.7276	0.871
13.7675	0.854
13.8074	0.833
13.8473	0.833
13.8872	0.838
13.9271	0.838
13.967	0.838
14.0069	0.838
14.0468	0.834
14.0867	0.828
14.1266	0.806
14.1665	0.792
14.2064	0.771
14.2463	0.751
14.2862	0.732
14.3261	0.712
14.366	0.696
14.4059	0.682
14.4458	0.676
14.4857	0.674
14.5256	0.674
14.5655	0.674
14.6054	0.674
14.6453	0.674
14.6853	0.669
14.7252	0.654
14.7651	0.632
14.805	0.607
14.8449	0.594
14.8848	0.592
14.9247	0.595
14.9646	0.606
15.0045	0.634
15.0444	0.654
15.0843	0.671
15.1242	0.676
15.1641	0.682
15.204	0.686
15.2439	0.686
15.2838	0.684
15.3237	0.682
15.3636	0.674
15.4035	0.672
15.4434	0.676
15.4833	0.681
15.5232	0.687
15.5631	0.692
15.603	0.699
15.6429	0.709
15.6828	0.711
15.7227	0.714
15.7626	0.716
15.8025	0.719
15.8424	0.722
15.8823	0.726
15.9222	0.727
15.9621	0.729
16.002	0.729
