Infrared Spectrum: 4-Heptadecanone
Formula: C 17 H 34 O
CAS: 53685-77-1
State: gas
Origin: EPA-IR VAPOR PHASE LIBRARY
1/CM	ABSORBANCE
549.9	0.001023
559.547	0.00056
569.193	0.00059
578.84	0.00049
588.486	0.00049
598.133	0.00067
607.779	0.001146
617.426	0.001509
627.072	0.001768
636.719	0.001706
646.365	0.001345
656.012	0.001072
665.658	0.00105
675.305	0.00128
684.951	0.0018737
694.598	0.0032
704.245	0.00557
713.891	0.00832
723.538	0.00915
733.184	0.00819
742.831	0.00723
752.477	0.00661
762.124	0.00623
771.77	0.00574
781.417	0.00521
791.063	0.00463
800.71	0.00427
810.356	0.00382
820.003	0.00363
829.649	0.00341
839.296	0.00334
848.943	0.00344
858.589	0.00351
868.236	0.00391
877.882	0.00444
887.529	0.00504
897.175	0.00512
906.822	0.00417
916.468	0.00329
926.115	0.0029076
935.761	0.0029186
945.408	0.00305
955.054	0.00358
964.701	0.00424
974.347	0.0052
983.994	0.00673
993.64	0.00905
1003.29	0.01156
1012.93	0.0131
1022.58	0.01357
1032.23	0.01394
1041.87	0.01475
1051.52	0.01505
1061.17	0.01386
1070.81	0.01232
1080.46	0.01138
1090.11	0.01079
1099.75	0.01088
1109.4	0.01377
1119.05	0.02006
1128.69	0.02411
1138.34	0.0221
1147.99	0.01976
1157.63	0.01919
1167.28	0.01768
1176.92	0.01557
1186.57	0.01377
1196.22	0.01259
1205.86	0.01151
1215.51	0.01047
1225.16	0.01102
1234.8	0.01153
1244.45	0.01207
1254.1	0.01356
1263.74	0.01622
1273.39	0.01814
1283.04	0.019
1292.68	0.02031
1302.33	0.02071
1311.98	0.01979
1321.62	0.01929
1331.27	0.02223
1340.92	0.03039
1350.56	0.0417
1360.21	0.04463
1369.86	0.03558
1379.5	0.02536
1389.15	0.0198
1398.79	0.0168
1408.44	0.01848
1418.09	0.02164
1427.73	0.02259
1437.38	0.02661
1447.03	0.03719
1456.67	0.04996
1466.32	0.04751
1475.97	0.02771
1485.61	0.01464
1495.26	0.00915
1504.91	0.0066
1514.55	0.00507
1524.2	0.00404
1533.85	0.0035
1543.49	0.00311
1553.14	0.0028096
1562.79	0.0026182
1572.43	0.0024729
1582.08	0.0024506
1591.73	0.0024076
1601.37	0.0024838
1611.02	0.002565
1620.67	0.002816
1630.31	0.00301
1639.96	0.00332
1649.6	0.00383
1659.25	0.00471
1668.9	0.00633
1678.54	0.0094
1688.19	0.01486
1697.84	0.02647
1707.48	0.05209
1717.13	0.0945
1726.78	0.11672
1736.42	0.069
1746.07	0.03038
1755.72	0.0146
1765.36	0.00822
1775.01	0.00538
1784.66	0.00389
1794.3	0.003
1803.95	0.0025305
1813.6	0.0022657
1823.24	0.00201517
1832.89	0.001836
1842.54	0.001733
1852.18	0.001582
1861.83	0.001531
1871.47	0.001443
1881.12	0.001339
1890.77	0.001346
1900.41	0.001303
1910.06	0.00124
1919.71	0.001214
1929.35	0.001156
1939	0.001159
1948.65	0.00108
1958.29	0.001128
1967.94	0.001139
1977.59	0.001181
1987.23	0.001142
1996.88	0.001205
2006.53	0.001341
2016.17	0.001541
2025.82	0.001684
2035.47	0.001713
2045.11	0.001715
2054.76	0.001669
2064.41	0.001586
2074.05	0.001563
2083.7	0.001481
2093.35	0.001428
2102.99	0.001405
2112.64	0.001384
2122.28	0.001439
2131.93	0.001503
2141.58	0.001544
2151.22	0.001564
2160.87	0.001604
2170.52	0.00161
2180.16	0.001625
2189.81	0.001568
2199.46	0.001579
2209.1	0.001576
2218.75	0.001575
2228.4	0.001549
2238.04	0.001561
2247.69	0.001538
2257.34	0.001541
2266.98	0.00159
2276.63	0.001638
2286.28	0.001629
2295.92	0.001627
2305.57	0.001645
2315.22	0.001681
2324.86	0.001709
2334.51	0.001663
2344.16	0.001635
2353.8	0.001682
2363.45	0.001673
2373.09	0.001727
2382.74	0.001678
2392.39	0.001764
2402.03	0.00172
2411.68	0.001717
2421.33	0.001746
2430.97	0.001698
2440.62	0.001609
2450.27	0.001554
2459.91	0.001633
2469.56	0.001636
2479.21	0.001633
2488.85	0.001784
2498.5	0.001829
2508.15	0.0019265
2517.79	0.00202484
2527.44	0.0021929
2537.09	0.0023055
2546.73	0.002382
2556.38	0.0024247
2566.03	0.0025531
2575.67	0.0027013
2585.32	0.00298
2594.96	0.00312
2604.61	0.0033
2614.26	0.00355
2623.9	0.00386
2633.55	0.00422
2643.2	0.00452
2652.84	0.00495
2662.49	0.00556
2672.14	0.00603
2681.78	0.00637
2691.43	0.00615
2701.08	0.00585
2710.72	0.00573
2720.37	0.00584
2730.02	0.00627
2739.66	0.00713
2749.31	0.00766
2758.96	0.00796
2768.6	0.00866
2778.25	0.01006
2787.9	0.01219
2797.54	0.01498
2807.19	0.01865
2816.84	0.02339
2826.48	0.02984
2836.13	0.0414
2845.77	0.07061
2855.42	0.15302
2865.07	0.21247
2874.71	0.16597
2884.36	0.14693
2894.01	0.14693
2903.65	0.18358
2913.3	0.26097
2922.95	0.4227
2932.59	0.59727
2942.24	0.45854
2951.89	0.28897
2961.53	0.23192
2971.18	0.20419
2980.83	0.12166
2990.47	0.06807
3000.12	0.04198
3009.77	0.02867
3019.41	0.02094
3029.06	0.01599
3038.71	0.01285
3048.35	0.0104
3058	0.00879
3067.64	0.00741
3077.29	0.00662
3086.94	0.00582
3096.58	0.0055
3106.23	0.0048
3115.88	0.00424
3125.52	0.00406
3135.17	0.00376
3144.82	0.00356
3154.46	0.0033
3164.11	0.00321
3173.76	0.0026974
3183.4	0.0025922
3193.05	0.002254
3202.7	0.00203306
3212.34	0.001755
3221.99	0.00134
3231.64	0.001275
3241.28	0.00092
3250.93	0.0009
3260.58	0.001005
3270.22	0.00084
3279.87	0.00074
3289.52	0.00082
3299.16	0.00078
3308.81	0.00063
3318.45	0.00064
3328.1	0.00082
3337.75	0.00058
3347.39	0.00079
3357.04	0.00086
3366.69	0.000981
3376.33	0.00086
3385.98	0.001109
3395.63	0.00129
3405.27	0.001485
3414.92	0.00204579
3424.57	0.0022988
3434.21	0.0024751
3443.86	0.001734
3453.51	0.001234
3463.15	0.0009
3472.8	0.0005
3482.45	0.00045
3492.09	0.00036
3501.74	0.00026
3511.39	0.00035
3521.03	0.00015
3530.68	0.0003
3540.33	0.00025
3549.97	0.00015
3559.62	0.00013
3569.26	0.00026
3578.91	0.00045
3588.56	0.00035
3598.2	0.00053
3607.85	0.00077
3617.5	0.00073
3627.14	0.00086
3636.79	0.00095
3646.44	0.001009
3656.08	0.001046
3665.73	0.00105
3675.38	0.0009
3685.02	0.001102
3694.67	0.00099
3704.32	0.00094
3713.96	0.000992
3723.61	0.001039
3733.26	0.000981
3742.9	0.001066
3752.55	0.001098
3762.2	0.001112
3771.84	0.001118
3781.49	0.001079
3791.13	0.001144
3800.78	0.00111
3810.43	0.001024
3820.07	0.001196
3829.72	0.001228
3839.37	0.001098
3849.01	0.001077
3858.66	0.001186
3868.31	0.001131
3877.95	0.001208
3887.6	0.001241
3897.25	0.001325
3906.89	0.001208
3916.54	0.001305
3926.19	0.001361
3935.83	0.001381
3945.48	0.001445
3955.13	0.001502
3964.77	0.001581
3974.42	0.001725
3984.07	0.0019219
3993.71	0.0018697
