Infrared Spectrum: ANILINE, m-tert-BUTYL-,
Formula: C10 H15 N
CAS: 5369-19-7
State: LIQUID (NEAT)
Boiling point: 118 C AT 15 mmHg
Class: COBLENTZ III
Instrument: BECKMAN IR-4 (HYBRID PRISM-GRATING)
Instrument parameters: NaCl PRISM
Sampling: TRANSMISSION
Path length: CAPILLARY
Resolution: 2
Origin: MONSANTO (J. FREEMAN)
1/CM	TRANSMITTANCE
3929.27	0.859
3920.46	0.8601
3911.65	0.8613
3902.84	0.8624
3894.03	0.8637
3885.22	0.8647
3876.41	0.8656
3867.59	0.866
3858.78	0.8664
3849.97	0.8668
3841.16	0.8671
3832.35	0.8671
3823.54	0.8671
3814.73	0.867
3805.92	0.8668
3797.11	0.8667
3788.3	0.8664
3779.49	0.8661
3770.68	0.8658
3761.87	0.8655
3753.06	0.8652
3744.24	0.8648
3735.43	0.8644
3726.62	0.8638
3717.81	0.8633
3709	0.8625
3700.19	0.862
3691.38	0.8614
3682.57	0.8607
3673.76	0.8601
3664.95	0.8594
3656.14	0.8587
3647.33	0.8581
3638.52	0.8574
3629.7	0.8566
3620.89	0.8556
3612.08	0.8545
3603.27	0.8533
3594.46	0.8521
3585.65	0.8508
3576.84	0.8495
3568.03	0.8476
3559.22	0.8459
3550.41	0.8431
3541.6	0.8385
3532.79	0.832
3523.98	0.8204
3515.17	0.8005
3506.35	0.7847
3497.54	0.7718
3488.73	0.7574
3479.92	0.6884
3471.11	0.6469
3462.3	0.6051
3453.49	0.5629
3444.68	0.5206
3435.87	0.4912
3427.06	0.4913
3418.25	0.492
3409.44	0.4933
3400.63	0.4947
3391.81	0.4952
3383	0.4696
3374.19	0.4413
3365.38	0.4127
3356.57	0.3869
3347.76	0.3818
3338.95	0.382
3330.14	0.3891
3321.33	0.4252
3312.52	0.4665
3303.71	0.508
3294.9	0.5496
3286.09	0.5914
3277.27	0.6336
3268.46	0.6759
3259.65	0.6892
3250.84	0.6896
3242.03	0.6788
3233.22	0.663
3224.41	0.6473
3215.6	0.6407
3206.79	0.6443
3197.98	0.67
3189.17	0.6963
3180.36	0.7227
3171.55	0.7492
3162.74	0.776
3153.92	0.8028
3145.11	0.825
3136.3	0.8267
3127.49	0.8189
3118.68	0.7934
3109.87	0.7676
3101.06	0.7418
3092.25	0.7159
3083.44	0.6898
3074.63	0.6636
3065.82	0.6372
3057.01	0.6106
3048.2	0.584
3039.38	0.5767
3030.57	0.5818
3021.76	0.591
3012.95	0.5969
3004.14	0.5927
2995.33	0.5152
2986.52	0.435
2977.71	0.3544
2968.9	0.2733
2960.09	0.1918
2951.28	0.1648
2942.47	0.1727
2933.66	0.2303
2924.85	0.2922
2916.03	0.3477
2907.22	0.3608
2898.41	0.3729
2889.6	0.3901
2880.79	0.4081
2871.98	0.424
2863.17	0.4534
2854.36	0.5778
2845.55	0.7265
2836.74	0.82
2827.93	0.8404
2819.12	0.8556
2810.31	0.8712
2801.49	0.8816
2792.68	0.8855
2783.87	0.8865
2775.06	0.8871
2766.25	0.8875
2757.44	0.888
2748.63	0.8891
2739.82	0.8901
2731.01	0.8913
2722.2	0.8928
2713.39	0.8953
2704.58	0.8979
2695.77	0.9013
2686.96	0.9053
2678.14	0.9093
2669.33	0.9126
2660.52	0.9156
2651.71	0.9179
2642.9	0.9184
2634.09	0.9186
2625.28	0.9181
2616.47	0.9178
2607.66	0.9184
2598.85	0.9193
2590.04	0.9223
2581.23	0.9262
2572.42	0.928
2563.6	0.9285
2554.79	0.929
2545.98	0.9296
2537.17	0.9302
2528.36	0.9312
2519.55	0.9325
2510.74	0.9339
2501.93	0.9352
2493.12	0.9363
2484.31	0.9375
2475.5	0.9389
2466.69	0.9399
2457.88	0.9391
2449.07	0.937
2440.25	0.9355
2431.44	0.9341
2422.63	0.9326
2413.82	0.9311
2405.01	0.9293
2396.2	0.9281
2387.39	0.9282
2378.58	0.9307
2369.77	0.9326
2360.96	0.9343
2352.15	0.9346
2343.34	0.9347
2334.53	0.9344
2325.71	0.9342
2316.9	0.9339
2308.09	0.9328
2299.28	0.933
2290.47	0.935
2281.66	0.9373
2272.85	0.9387
2264.04	0.9395
2255.23	0.9398
2246.42	0.9396
2237.61	0.9372
2228.8	0.9353
2219.99	0.9333
2211.17	0.9313
2202.36	0.93
2193.55	0.9296
2184.74	0.9295
2175.93	0.9297
2167.12	0.9314
2158.31	0.9331
2149.5	0.9354
2140.69	0.9362
2131.88	0.9374
2123.07	0.9386
2114.26	0.939
2105.45	0.9391
2096.64	0.9391
2087.82	0.939
2079.01	0.9387
2070.2	0.9383
2061.39	0.9374
2052.58	0.9361
2043.77	0.9338
2034.96	0.9321
2026.15	0.9305
2017.34	0.9289
2008.53	0.9298
1999.72	0.9309
1990.91	0.9321
1982.1	0.9318
1973.28	0.9301
1964.47	0.9273
1955.66	0.9244
1946.85	0.9185
1938.04	0.9089
1929.23	0.8986
1920.42	0.8768
1911.61	0.8859
1902.8	0.9093
1893.99	0.924
1885.18	0.9314
1876.37	0.9317
1867.56	0.9308
1858.75	0.9272
1849.93	0.9134
1841.12	0.9027
1832.31	0.9007
1823.5	0.9047
1814.69	0.911
1805.88	0.9199
1797.07	0.9266
1788.26	0.9275
1779.45	0.9265
1770.64	0.9268
1761.83	0.9263
1753.02	0.9185
1744.21	0.9036
1735.39	0.8931
1726.58	0.892
1717.77	0.8952
1708.96	0.8987
1700.15	0.8986
1691.34	0.8951
1682.53	0.8729
1673.72	0.8398
1664.91	0.8062
1656.1	0.6825
1647.29	0.5545
1638.48	0.4268
1629.67	0.2975
1620.86	0.167
1612.04	0.1217
1603.23	0.1249
1594.42	0.1859
1585.61	0.2171
1576.8	0.4392
1567.99	0.5966
1559.18	0.7331
1550.37	0.7777
1541.56	0.7837
1532.75	0.776
1523.94	0.7268
1515.13	0.6234
1506.32	0.4427
1497.5	0.3142
1488.69	0.319
1479.88	0.371
1471.07	0.4314
1462.26	0.3418
1453.45	0.2415
1444.64	0.3737
1435.83	0.5454
1427.02	0.6895
1418.21	0.7587
1409.4	0.8145
1400.59	0.7703
1391.78	0.6852
1382.97	0.8238
1374.15	0.6705
1365.34	0.3969
1356.53	0.669
1347.72	0.834
1338.91	0.8286
1330.1	0.7874
1321.29	0.6321
1312.48	0.4404
1303.67	0.3073
1294.86	0.2433
1286.05	0.412
1277.24	0.6709
1268.43	0.7817
1259.61	0.7853
1250.8	0.6783
1241.99	0.4556
1233.18	0.5259
1224.37	0.7517
1215.56	0.7783
1206.75	0.5893
1197.94	0.636
1189.13	0.8396
1180.32	0.7442
1171.51	0.6298
1162.7	0.8154
1153.89	0.887
1145.07	0.8968
1136.26	0.89
1127.45	0.8744
1118.64	0.8803
1109.83	0.8669
1101.02	0.7844
1092.21	0.7035
1083.4	0.7381
1074.59	0.7853
1065.78	0.848
1056.97	0.8825
1048.16	0.8941
1039.35	0.8934
1030.54	0.8766
1021.72	0.8021
1012.91	0.8666
1004.1	0.8866
995.292	0.7302
986.482	0.8238
977.671	0.8632
968.86	0.861
960.049	0.8488
951.239	0.8469
942.428	0.8385
933.617	0.768
924.806	0.6945
915.996	0.4964
907.185	0.54
898.374	0.7333
889.563	0.7327
880.753	0.6607
871.942	0.5072
863.131	0.3603
854.32	0.4955
845.51	0.722
836.699	0.74
827.888	0.7223
819.077	0.6848
810.267	0.6809
801.456	0.612
792.645	0.4679
783.834	0.211
775.024	0.212
766.213	0.5164
757.402	0.5828
748.591	0.5728
739.781	0.5561
730.97	0.5366
722.159	0.5165
713.348	0.484
704.538	0.2831
695.727	0.1928
686.916	0.4048
678.105	0.4287
669.295	0.448
660.484	0.4653
651.673	0.5131
642.863	0.5447
634.052	0.555
