Infrared Spectrum: Evernic acid, pruiss
Formula: C17 H16 O7
CAS: 537-09-7
State: SOLID (SPLIT MULL), FLUOROLUBE FOR 3800-1330 CM^-^1, NUJOL FOR 1330-400 CM^-^1
Class: COBLENTZ III
Instrument: DOW KBr FOREPRISM-GRATING
Instrument parameters: BLAZED AT 3.5, 12.0, 20.0 MICRON AND CHANGED AT 5.0, 7.5, 14.9 MICRON
Sampling: TRANSMISSION
Resolution: 2
Origin: DOW CHEMICAL COMPANY
1/CM	TRANSMITTANCE
435	1.0225
444	0.9809
453	0.8846
462	0.9698
471	0.9599
480	0.856
489	0.9221
498	0.9634
507	0.9731
516	0.9592
525	0.8565
534	0.8345
543	0.9097
552	0.8841
561	0.8652
570	0.888
579	0.7675
588	0.7972
597	0.8756
606	0.7971
615	0.8505
624	0.8563
633	0.893
642	0.8653
651	0.6999
660	0.862
669	0.78
678	0.6676
687	0.4896
696	0.5835
705	0.5692
714	0.5085
723	0.4782
732	0.6578
741	0.7825
750	0.8325
759	0.8484
768	0.8383
777	0.8148
786	0.5252
795	0.7612
804	0.5612
813	0.6922
822	0.5656
831	0.4489
840	0.2485
849	0.6778
858	0.7058
867	0.7071
876	0.5653
885	0.634
894	0.6517
903	0.6961
912	0.7491
921	0.7949
930	0.7894
939	0.8026
948	0.7619
957	0.7501
966	0.7661
975	0.7371
984	0.7815
993	0.4557
1002	0.7749
1011	0.7595
1020	0.418
1029	0.576
1038	0.6421
1047	0.6958
1056	0.4242
1065	0.4831
1074	0.4888
1083	0.6715
1092	0.7432
1101	0.6968
1110	0.571
1119	0.5591
1128	0.6069
1137	0.4405
1146	0.1934
1155	0.0774
1164	0.0337
1173	0.4665
1182	0.4259
1191	0.1794
1200	0.2526
1209	0.0658
1218	0.0431
1227	0.4123
1236	0.4118
1245	0.2629
1254	0.0922
1263	0.0292
1272	0.0446
1281	0.1108
1290	0.1437
1299	0.0551
1308	0.0767
1317	0.2319
1326	0.301
1335	0.398
1344	0.3494
1353	0.3509
1362	0.411
1371	0.4564
1380	0.3692
1389	0.4529
1398	0.4521
1407	0.2732
1416	0.1901
1425	0.3031
1434	0.3958
1443	0.2327
1452	0.2016
1461	0.2395
1470	0.3412
1479	0.4576
1488	0.4494
1497	0.435
1506	0.3486
1515	0.3996
1524	0.4762
1533	0.4699
1542	0.4506
1551	0.4151
1560	0.3566
1569	0.2417
1578	0.1481
1587	0.2446
1596	0.2785
1605	0.1567
1614	0.0573
1623	0.088
1632	0.0966
1641	0.0601
1650	0.0436
1659	0.0313
1668	0.0523
1677	0.1768
1686	0.4132
1695	0.5887
1704	0.6918
1713	0.7668
1722	0.8042
1731	0.7962
1740	0.8525
1749	0.8701
1758	0.8771
1767	0.878
1776	0.8758
1785	0.8734
1794	0.8701
1803	0.8678
1812	0.8655
1821	0.8634
1830	0.8614
1839	0.8581
1848	0.8556
1857	0.854
1866	0.8517
1875	0.8493
1884	0.8467
1893	0.8437
1902	0.8407
1911	0.8378
1920	0.8352
1929	0.8324
1938	0.8301
1947	0.8283
1956	0.8314
1965	0.8137
1974	0.8118
1983	0.8141
1992	0.8215
2001	0.8184
2010	0.8126
2019	0.8099
2028	0.8068
2037	0.8031
2046	0.7987
2055	0.7941
2064	0.7895
2073	0.7841
2082	0.7784
2091	0.7725
2100	0.7668
2109	0.7611
2118	0.7558
2127	0.7507
2136	0.7456
2145	0.741
2154	0.7369
2163	0.7328
2172	0.7288
2181	0.724
2190	0.7192
2199	0.7144
2208	0.7085
2217	0.7021
2226	0.6948
2235	0.6872
2244	0.6811
2253	0.6751
2262	0.6692
2271	0.6644
2280	0.6597
2289	0.6549
2298	0.6508
2307	0.6468
2316	0.643
2325	0.6401
2334	0.6385
2343	0.6369
2352	0.6364
2361	0.6357
2370	0.6339
2379	0.6307
2388	0.6276
2397	0.6239
2406	0.6191
2415	0.6143
2424	0.6097
2433	0.605
2442	0.6006
2451	0.5949
2460	0.5884
2469	0.5818
2478	0.5751
2487	0.5684
2496	0.5619
2505	0.5554
2514	0.549
2523	0.5412
2532	0.5331
2541	0.52
2550	0.511
2559	0.512
2568	0.5154
2577	0.5129
2586	0.5088
2595	0.502
2604	0.4952
2613	0.4921
2622	0.4929
2631	0.4923
2640	0.4882
2649	0.4853
2658	0.4817
2667	0.4784
2676	0.4753
2685	0.4716
2694	0.4682
2703	0.4659
2712	0.4637
2721	0.4597
2730	0.4528
2739	0.4466
2748	0.4432
2757	0.4403
2766	0.4372
2775	0.4323
2784	0.4264
2793	0.4182
2802	0.41
2811	0.4002
2820	0.3896
2829	0.3752
2838	0.3599
2847	0.3478
2856	0.3407
2865	0.3398
2874	0.3406
2883	0.3378
2892	0.3312
2901	0.3245
2910	0.3171
2919	0.31
2928	0.3044
2937	0.2995
2946	0.2982
2955	0.2969
2964	0.2941
2973	0.2814
2982	0.2812
2991	0.2858
3000	0.2963
3009	0.3074
3018	0.3117
3027	0.3117
3036	0.3106
3045	0.3082
3054	0.3051
3063	0.303
3072	0.3064
3081	0.3102
3090	0.315
3099	0.3204
3108	0.3272
3117	0.3343
3126	0.3437
3135	0.3548
3144	0.3662
3153	0.3764
3162	0.3874
3171	0.3993
3180	0.4185
3189	0.4343
3198	0.4449
3207	0.4505
3216	0.4562
3225	0.4643
3234	0.4729
3243	0.4825
3252	0.4919
3261	0.4982
3270	0.5041
3279	0.5093
3288	0.5119
3297	0.5135
3306	0.515
3315	0.5162
3324	0.5176
3333	0.5187
3342	0.5193
3351	0.5198
3360	0.5196
3369	0.5183
3378	0.5172
3387	0.5157
3396	0.5135
3405	0.511
3414	0.5068
3423	0.5024
3432	0.4962
3441	0.4924
3450	0.496
3459	0.506
3468	0.5087
3477	0.5075
3486	0.5058
3495	0.5041
3504	0.503
3513	0.5017
3522	0.5006
3531	0.4994
3540	0.4982
3549	0.4968
3558	0.4955
3567	0.4941
3576	0.4931
3585	0.4921
3594	0.4912
3603	0.4903
3612	0.4894
3621	0.4884
3630	0.4874
3639	0.4864
3648	0.4854
3657	0.4844
3666	0.4835
3675	0.4823
3684	0.4806
3693	0.4788
3702	0.4771
3711	0.4754
3720	0.4737
3729	0.472
3738	0.4705
3747	0.4689
3756	0.4675
3765	0.4665
3774	0.4656
3783	0.4644
3792	0.4609
