Infrared Spectrum: 3-Hydroxy-4-methoxycinnamic acid
Formula: C 10 H 10 O 4
CAS: 537-73-5
State: gas
Origin: EPA-IR VAPOR PHASE LIBRARY
1/CM	ABSORBANCE
549.8	0.006684
559.445	0.006704
569.09	0.004114
578.734	0.003344
588.379	0.004144
598.024	0.004434
607.669	0.004234
617.313	0.003244
626.958	0.003494
636.603	0.003144
646.248	0.002914
655.893	0.0010691
665.537	0.0010701
675.182	0.0013022
684.827	0.0009888
694.472	0.001047
704.116	0.001168
713.761	0.0006912
723.406	0.0008814
733.051	0.0012779
742.695	0.0013711
752.34	0.003004
761.985	0.003254
771.63	0.002284
781.275	0.001914
790.919	0.002844
800.564	0.004414
810.209	0.002984
819.854	0.001894
829.498	0.001564
839.143	0.0012756
848.788	0.002454
858.433	0.003474
868.078	0.002474
877.722	0.002004
887.367	0.001964
897.012	0.0014479
906.657	0.001624
916.301	0.001794
925.946	0.001624
935.591	0.002074
945.236	0.002534
954.88	0.002904
964.525	0.004104
974.17	0.006214
983.815	0.005464
993.46	0.003494
1003.1	0.002974
1012.75	0.003504
1022.39	0.004344
1032.04	0.005534
1041.68	0.003864
1051.33	0.002614
1060.97	0.002144
1070.62	0.002464
1080.26	0.003284
1089.91	0.004614
1099.55	0.012284
1109.2	0.034714
1118.84	0.032674
1128.49	0.015194
1138.13	0.010394
1147.78	0.013794
1157.42	0.016064
1167.07	0.011114
1176.71	0.006894
1186.36	0.005814
1196	0.005064
1205.64	0.007634
1215.29	0.009074
1224.93	0.007874
1234.58	0.011074
1244.22	0.014814
1253.87	0.019324
1263.51	0.025034
1273.16	0.023814
1282.8	0.020064
1292.45	0.012934
1302.09	0.008964
1311.74	0.006694
1321.38	0.005144
1331.03	0.005754
1340.67	0.006204
1350.32	0.006854
1359.96	0.007594
1369.61	0.005814
1379.25	0.003124
1388.9	0.001884
1398.54	0.001774
1408.18	0.001724
1417.83	0.001884
1427.47	0.002404
1437.12	0.003614
1446.76	0.006164
1456.41	0.005784
1466.05	0.005214
1475.7	0.004324
1485.34	0.005034
1494.99	0.007884
1504.63	0.018734
1514.28	0.018924
1523.92	0.007594
1533.57	0.003914
1543.21	0.002584
1552.86	0.002164
1562.5	0.002664
1572.15	0.004164
1581.79	0.006264
1591.44	0.005164
1601.08	0.003864
1610.73	0.004594
1620.37	0.005644
1630.01	0.007254
1639.66	0.012624
1649.3	0.006704
1658.95	0.001734
1668.59	0.001494
1678.24	0.001574
1687.88	0.001634
1697.53	0.002084
1707.17	0.002994
1716.82	0.004004
1726.46	0.005444
1736.11	0.010634
1745.75	0.026704
1755.4	0.032904
1765.04	0.016934
1774.69	0.007344
1784.33	0.005924
1793.98	0.004154
1803.62	0.002544
1813.27	0.001694
1822.91	0.001402
1832.55	0.0013286
1842.2	0.0011077
1851.84	0.0009205
1861.49	0.0009613
1871.13	0.0009716
1880.78	0.0009216
1890.42	0.0009316
1900.07	0.0008047
1909.71	0.0007091
1919.36	0.0007813
1929	0.0007478
1938.65	0.0008704
1948.29	0.0007179
1957.94	0.000734
1967.58	0.0007077
1977.23	0.0006924
1986.87	0.0007873
1996.52	0.0008539
2006.16	0.0007998
2015.81	0.000805
2025.45	0.000857
2035.1	0.0010022
2044.74	0.0009244
2054.38	0.0009601
2064.03	0.00078
2073.67	0.000705
2083.32	0.00048124
2092.96	0.0007211
2102.61	0.0006497
2112.25	0.00047625
2121.9	0.00054743
2131.54	0.0005983
2141.19	0.00054323
2150.83	0.0005721
2160.48	0.0005773
2170.12	0.0007832
2179.77	0.0006402
2189.41	0.0005784
2199.06	0.0006016
2208.7	0.0006377
2218.35	0.0006285
2227.99	0.000649
2237.64	0.0006816
2247.28	0.0006985
2256.92	0.0007098
2266.57	0.0007242
2276.21	0.0006094
2285.86	0.0006903
2295.5	0.00050506
2305.15	0.0007854
2314.79	0.0007585
2324.44	0.00053678
2334.08	0.000585
2343.73	0.0006555
2353.37	0.0004866
2363.02	0.0006848
2372.66	0.0007866
2382.31	0.0006705
2391.95	0.0005906
2401.6	0.00054631
2411.24	0.0007754
2420.89	0.00049541
2430.53	0.000635
2440.18	0.00055162
2449.82	0.0007019
2459.47	0.0007078
2469.11	0.0006737
2478.75	0.00048616
2488.4	0.0006005
2498.04	0.0006301
2507.69	0.0007389
2517.33	0.0007016
2526.98	0.0008161
2536.62	0.0007956
2546.27	0.0008187
2555.91	0.0007619
2565.56	0.0009236
2575.2	0.0008139
2584.85	0.0006548
2594.49	0.0007414
2604.14	0.0007223
2613.78	0.0006017
2623.43	0.0008026
2633.07	0.000727
2642.72	0.00064
2652.36	0.0006156
2662.01	0.0006792
2671.65	0.00053652
2681.29	0.0006102
2690.94	0.0007135
2700.58	0.0005774
2710.23	0.00033
2719.87	0.00046688
2729.52	0.0005816
2739.16	0.0008302
2748.81	0.0007307
2758.45	0.0007167
2768.1	0.00051615
2777.74	0.0007407
2787.39	0.00049156
2797.03	0.0006636
2806.68	0.0007366
2816.32	0.0008095
2825.97	0.0008732
2835.61	0.0012068
2845.26	0.002124
2854.9	0.002214
2864.55	0.001435
2874.19	0.0012273
2883.84	0.0009254
2893.48	0.0011636
2903.12	0.0012731
2912.77	0.001754
2922.41	0.001634
2932.06	0.001974
2941.7	0.002614
2951.35	0.003464
2960.99	0.002964
2970.64	0.002504
2980.28	0.002064
2989.93	0.001734
2999.57	0.001844
3009.22	0.002784
3018.86	0.002364
3028.51	0.0014221
3038.15	0.001554
3047.8	0.001724
3057.44	0.001504
3067.09	0.001554
3076.73	0.001564
3086.38	0.001235
3096.02	0.0010096
3105.67	0.000712
3115.31	0.00084
3124.95	0.00049309
3134.6	0.0007775
3144.24	0.00049403
3153.89	0.0006828
3163.53	0.0006057
3173.18	0.00053468
3182.82	0.0003848
3192.47	0.0005252
3202.11	0.0007148
3211.76	0.0006091
3221.4	0.0005954
3231.05	0.0007703
3240.69	0.00050366
3250.34	0.00051537
3259.98	0.0006204
3269.63	0.0003807
3279.27	0.0005416
3288.92	0.000178
3298.56	0.0006357
3308.21	0.000367
3317.85	0.0003953
3327.49	0.0004397
3337.14	0.0003785
3346.78	0.0004315
3356.43	0.00048505
3366.07	0.0004327
3375.72	0.0005641
3385.36	0.000121
3395.01	0.0003806
3404.65	0.000279
3414.3	0.000460258
3423.94	0.0005686
3433.59	0.00051343
3443.23	0.000349
3452.88	0.000208
3462.52	2e-06
3472.17	0.0005716
3481.81	0.00049177
3491.46	0.0005939
3501.1	0.0007353
3510.75	0.0005651
3520.39	0.0006818
3530.04	0.0009421
3539.68	0.0006271
3549.32	0.0007894
3558.97	0.0008973
3568.61	0.003044
3578.26	0.015694
3587.9	0.022604
3597.55	0.007164
3607.19	0.0013164
3616.84	0.0009926
3626.48	0.0007333
3636.13	0.0007867
3645.77	0.0007561
3655.42	0.0005755
3665.06	0.0005727
3674.71	0.000227
3684.35	0.000328
3694	0.0005955
3703.64	0.00034
3713.29	0.0005023
3722.93	0.000262
3732.58	0
3742.22	0.0003547
3751.86	0.000353
3761.51	0.000312
3771.15	0.000104
3780.8	0.00053522
3790.44	0.00054735
3800.09	9.1e-05
3809.73	0.0005777
3819.38	0.00032
3829.02	0.0003575
3838.67	8.7e-05
3848.31	0.0005611
3857.96	0.000336
3867.6	0.000157
3877.25	0.0004309
3886.89	0.0004061
3896.54	0.00053105
3906.18	0.0005692
3915.83	0.000336
3925.47	0.000338
3935.12	0.000299
3944.76	0.000129
3954.41	0.000455493
3964.05	0.000197
3973.69	0.0003661
3983.34	0.00050489
3992.98	0.0004224
