Infrared Spectrum: Methamphetamine
Formula: C 10 H 15 N
CAS: 537-46-2
State: gas
Instrument: HP-GC/MS/IRD
Origin: NIST Mass Spectrometry Data Center
1/CM	ABSORBANCE
550	0.0004952
562	0.0003312
574	0.000436
586	0.0006112
598	0.0008416
610	0.00076
622	0.0006712
634	0.0009832
646	0.00116
658	0.0015904
670	0.0022656
682	0.0033376
694	0.0057376
706	0.0051208
718	0.0033368
730	0.0038192
742	0.0039104
754	0.0019696
766	0.0008488
778	0.000504
790	0.000432
802	0.0003144
814	0.000216
826	0.0003032
838	0.0002408
850	0.0001896
862	0.0001768
874	0.0001712
886	0.0001624
898	0.0002328
910	0.0002816
922	0.0001512
934	8.8e-05
946	5.52e-05
958	3.68e-05
970	1.6e-05
982	6.4e-05
994	0.0001328
1006	0.000244
1018	0.0004896
1030	0.000948
1042	0.0007048
1054	0.0007568
1066	0.0010696
1078	0.0012336
1090	0.0011432
1102	0.0012928
1114	0.0018048
1126	0.0023944
1138	0.0025608
1150	0.0026536
1162	0.0022072
1174	0.0014072
1186	0.0009664
1198	0.0007728
1210	0.0007064
1222	0.0006184
1234	0.0003824
1246	0.0002896
1258	0.0003
1270	0.0003624
1282	0.0003736
1294	0.000372
1306	0.0004104
1318	0.0006536
1330	0.0010824
1342	0.0015584
1354	0.0013816
1366	0.0013952
1378	0.0016168
1390	0.0010128
1402	0.00054
1414	0.000592
1426	0.0009968
1438	0.002004
1450	0.0030216
1462	0.002804
1474	0.002564
1486	0.0026848
1498	0.0022248
1510	0.0008128
1522	0.0003544
1534	0.0002944
1546	0.000228
1558	0.0002448
1570	0.000308
1582	0.000508
1594	0.000868
1606	0.0009136
1618	0.0003904
1630	0.0001976
1642	0.0001832
1654	0.0001488
1666	0.000116
1678	0.0001272
1690	9.76e-05
1702	9.68e-05
1714	8.8e-05
1726	9.76e-05
1738	0.0001592
1750	0.000156
1762	0.0001648
1774	0.0001872
1786	0.0002272
1798	0.0003224
1810	0.0001984
1822	0.0001216
1834	9.04e-05
1846	0.0001176
1858	0.0002024
1870	0.0002424
1882	0.000208
1894	0.0001056
1906	5.6e-05
1918	0.0001328
1930	0.0002176
1942	0.0002848
1954	0.000248
1966	8.72e-05
1978	4.64e-05
1990	1.04e-05
2002	1.36e-05
2014	4.88e-05
2026	3.6e-05
2038	4.8e-05
2050	1.84e-05
2062	1.2e-05
2074	2e-05
2086	1.52e-05
2098	3.04e-05
2110	2.32e-05
2122	1.6e-06
2134	3.84e-05
2146	3.12e-05
2158	5.6e-05
2170	2.16e-05
2182	2.72e-05
2194	5.52e-05
2206	4.56e-05
2218	7.6e-05
2230	4.32e-05
2242	2.16e-05
2254	3.52e-05
2266	4.24e-05
2278	8.8e-06
2290	3.6e-05
2302	3.04e-05
2314	6.88e-05
2326	5.92e-05
2338	6e-05
2350	5.04e-05
2362	0.0001
2374	6.24e-05
2386	1.52e-05
2398	3.52e-05
2410	4.4e-05
2422	4.08e-05
2434	3.84e-05
2446	5.44e-05
2458	6.88e-05
2470	7.2e-05
2482	5.68e-05
2494	7.2e-05
2506	7.6e-05
2518	8.32e-05
2530	9.36e-05
2542	0.0001592
2554	0.000156
2566	0.000156
2578	0.00018
2590	0.0002392
2602	0.000272
2614	0.0003136
2626	0.000296
2638	0.0003048
2650	0.000332
2662	0.0002832
2674	0.0002904
2686	0.0002512
2698	0.000296
2710	0.0003208
2722	0.000396
2734	0.0004696
2746	0.00056
2758	0.000816
2770	0.001272
2782	0.0022664
2794	0.0037752
2806	0.0038896
2818	0.00282
2830	0.0024744
2842	0.0029168
2854	0.0037808
2866	0.0039528
2878	0.003872
2890	0.0040968
2902	0.0045472
2914	0.0054536
2926	0.0065888
2938	0.0069048
2950	0.0063336
2962	0.0071976
2974	0.0079752
2986	0.005004
2998	0.002104
3010	0.0017872
3022	0.00292
3034	0.0040664
3046	0.0026672
3058	0.0025552
3070	0.0037704
3082	0.0028248
3094	0.0018304
3106	0.0010328
3118	0.0006192
3130	0.0003488
3142	0.0002784
3154	0.000236
3166	0.0002392
3178	0.000204
3190	0.0001328
3202	0.00016
3214	0.000148
3226	0.0001144
3238	9.92e-05
3250	0.0001008
3262	7.04e-05
3274	8.08e-05
3286	8.64e-05
3298	8.96e-05
3310	6.8e-05
3322	7.84e-05
3334	5.44e-05
3346	0.0001152
3358	0.0001912
3370	0.0001944
3382	0.0001256
3394	9.28e-05
3406	5.6e-05
3418	0.000132
3430	9.68e-05
3442	0.00012
3454	9.52e-05
3466	5.36e-05
3478	7.44e-05
3490	6.16e-05
3502	8.32e-05
3514	4.4e-05
3526	8.08e-05
3538	8.8e-05
3550	8.72e-05
3562	7.04e-05
3574	0.0001048
3586	5.68e-05
3598	4.8e-05
3610	0.0001016
3622	9.92e-05
3634	4.24e-05
3646	9.68e-05
3658	8.4e-05
3670	9.04e-05
3682	5.92e-05
3694	0.0001032
3706	0.0001184
3718	5.52e-05
3730	0.0001216
3742	8.48e-05
3754	0.0001264
3766	0.000112
3778	0.0001232
3790	0.0001464
3802	0.0001672
3814	0.0001776
3826	0.0001296
3838	9.52e-05
