Infrared Spectrum: DI-P-TOLYL MERCURY
Formula: C14 H14 Hg
CAS: 537-64-4
State: SOLID (MINERAL OIL MULL)
Melting point: 243.5-248 C
Class: COBLENTZ
Instrument: Not specified, most likely a prism, grating, or hybrid spectrometer.
Sampling: TRANSMISSION
Resolution: 4
Origin: WYANDOTTE CHEMICALS CORP., WYANDOTTE, MICHIGAN, USA
MICROMETERS	TRANSMITTANCE
2.023	0.548
2.06287	0.543
2.10274	0.556
2.14261	0.558
2.18247	0.578
2.22234	0.591
2.26221	0.593
2.30208	0.611
2.34195	0.64
2.38182	0.655
2.42169	0.666
2.46155	0.686
2.50142	0.721
2.54129	0.755
2.58116	0.78
2.62103	0.801
2.6609	0.81
2.70077	0.851
2.74063	0.866
2.7805	0.89
2.82037	0.906
2.86024	0.911
2.90011	0.911
2.93998	0.911
2.97985	0.926
3.01972	0.933
3.05958	0.946
3.09945	0.958
3.13932	0.968
3.17919	0.973
3.21906	0.963
3.25893	0.926
3.2988	0.713
3.33866	0.426
3.37853	0.033
3.4184	0.023
3.45827	0.021
3.49814	0.031
3.53801	0.041
3.57788	0.271
3.61774	0.381
3.65761	0.411
3.69748	0.408
3.73735	0.421
3.77722	0.431
3.81709	0.44
3.85696	0.45
3.89682	0.463
3.93669	0.476
3.97656	0.498
4.01643	0.506
4.0563	0.515
4.09617	0.528
4.13604	0.531
4.1759	0.531
4.21577	0.528
4.25564	0.53
4.29551	0.513
4.33538	0.535
4.37525	0.553
4.41512	0.58
4.45498	0.586
4.49485	0.591
4.53472	0.598
4.57459	0.605
4.61446	0.61
4.65433	0.616
4.6942	0.621
4.73406	0.626
4.77393	0.635
4.8138	0.641
4.85367	0.653
4.89354	0.655
4.93341	0.656
4.97328	0.663
5.01315	0.666
5.05301	0.668
5.09288	0.668
5.13275	0.668
5.17262	0.668
5.21249	0.675
5.25236	0.686
5.29223	0.685
5.33209	0.5
5.37196	0.668
5.41183	0.688
5.4517	0.701
5.49157	0.708
5.53144	0.708
5.57131	0.651
5.61117	0.653
5.65104	0.695
5.69091	0.715
5.73078	0.696
5.77065	0.69
5.81052	0.646
5.85039	0.655
5.89025	0.673
5.93012	0.656
5.96999	0.67
6.00986	0.681
6.04973	0.651
6.0896	0.583
6.12947	0.601
6.16933	0.663
6.2092	0.651
6.24907	0.443
6.28894	0.515
6.32881	0.608
6.36868	0.628
6.40855	0.648
6.44841	0.636
6.48828	0.64
6.52815	0.63
6.56802	0.63
6.60789	0.613
6.64776	0.321
6.68763	0.153
6.72749	0.446
6.76736	0.333
6.80723	0.108
6.8471	0.106
6.88697	0.135
6.92684	0.195
6.96671	0.346
7.00658	0.505
7.04644	0.561
7.08631	0.58
7.12618	0.588
7.16605	0.5
7.20592	0.401
7.24579	0.263
7.28566	0.29
7.32552	0.405
7.36539	0.568
7.40526	0.605
7.44513	0.613
7.485	0.621
7.52487	0.648
7.56474	0.666
7.6046	0.585
7.64447	0.611
7.68434	0.665
7.72421	0.705
7.76408	0.715
7.80395	0.686
7.84382	0.676
7.88368	0.68
7.92355	0.655
7.96342	0.696
8.00329	0.713
8.04316	0.731
8.08303	0.673
8.1229	0.693
8.16276	0.733
8.20263	0.745
8.2425	0.468
8.28237	0.663
8.32224	0.753
8.36211	0.618
8.40198	0.421
8.44184	0.701
8.48171	0.755
8.52158	0.751
8.56145	0.74
8.60132	0.721
8.64119	0.746
8.68106	0.771
8.72093	0.79
8.76079	0.8
8.80066	0.811
8.84053	0.823
8.8804	0.825
8.92027	0.803
8.96014	0.7
9.00001	0.805
9.03987	0.825
9.07974	0.83
9.11961	0.811
9.15948	0.8
9.19935	0.776
9.23922	0.328
9.27909	0.525
9.31895	0.696
9.35882	0.73
9.39869	0.743
9.43856	0.741
9.47843	0.72
9.5183	0.693
9.55817	0.613
9.59803	0.48
9.6379	0.353
9.67777	0.395
9.71764	0.498
9.75751	0.46
9.79738	0.205
9.83725	0.625
9.87711	0.708
9.91698	0.751
9.95685	0.776
9.99672	0.791
10.0366	0.796
10.0765	0.795
10.1163	0.786
10.1562	0.788
10.1961	0.803
10.2359	0.803
10.2758	0.8
10.3157	0.773
10.3555	0.801
10.3954	0.803
10.4353	0.806
10.4751	0.823
10.515	0.823
10.5549	0.828
10.5947	0.836
10.6346	0.841
10.6745	0.843
10.7144	0.821
10.7542	0.841
10.7941	0.851
10.834	0.86
10.8738	0.866
10.9137	0.861
10.9536	0.873
10.9934	0.881
11.0333	0.888
11.0732	0.895
11.113	0.905
11.1529	0.901
11.1928	0.905
11.2326	0.903
11.2725	0.901
11.3124	0.906
11.3523	0.91
11.3921	0.911
11.432	0.91
11.4719	0.908
11.5117	0.905
11.5516	0.896
11.5915	0.893
11.6313	0.89
11.6712	0.89
11.7111	0.893
11.7509	0.896
11.7908	0.905
11.8307	0.906
11.8705	0.89
11.9104	0.82
11.9503	0.901
11.9902	0.936
12.03	0.943
12.0699	0.936
12.1098	0.926
12.1496	0.943
12.1895	0.941
12.2294	0.911
12.2692	0.911
12.3091	0.921
12.349	0.923
12.3888	0.91
12.4287	0.888
12.4686	0.83
12.5084	0.623
12.5483	0.346
12.5882	0.276
12.628	0.073
12.6679	0.026
12.7078	0.075
12.7477	0.355
12.7875	0.583
12.8274	0.688
12.8673	0.758
12.9071	0.793
12.947	0.806
12.9869	0.823
13.0267	0.836
13.0666	0.856
13.1065	0.871
13.1463	0.88
13.1862	0.885
13.2261	0.89
13.2659	0.891
13.3058	0.893
13.3457	0.893
13.3856	0.886
13.4254	0.881
13.4653	0.873
13.5052	0.858
13.545	0.851
13.5849	0.846
13.6248	0.845
13.6646	0.841
13.7045	0.843
13.7444	0.845
13.7842	0.843
13.8241	0.833
13.864	0.828
13.9038	0.828
13.9437	0.84
13.9836	0.861
14.0234	0.878
14.0633	0.891
14.1032	0.903
14.1431	0.915
14.1829	0.92
14.2228	0.925
14.2627	0.928
14.3025	0.935
14.3424	0.938
14.3823	0.938
14.4221	0.938
14.462	0.935
14.5019	0.935
14.5417	0.928
14.5816	0.923
14.6215	0.913
14.6613	0.911
14.7012	0.903
14.7411	0.895
14.781	0.886
14.8208	0.88
14.8607	0.868
14.9006	0.856
14.9404	0.85
14.9803	0.833
15.0202	0.795
15.06	0.743
15.0999	0.731
15.1398	0.788
15.1796	0.811
15.2195	0.81
15.2594	0.796
15.2992	0.776
15.3391	0.761
15.379	0.743
15.4189	0.731
15.4587	0.721
15.4986	0.71
15.5385	0.688
15.5783	0.681
15.6182	0.67
15.6581	0.661
15.6979	0.651
15.7378	0.63
15.7777	0.6
15.8175	0.59
15.8574	0.581
15.8973	0.578
15.9371	0.555
15.977	0.546
