Infrared Spectrum: BENZENAMINE, N-PHENYL-, HYDROCHLORIDE
Formula: C12 H12 Cl N
CAS: 537-67-7
State: SOLID (KBr DISC)
Class: COBLENTZ III
Instrument: PERKIN-ELMER 157
Sampling: TRANSMISSION
Resolution: 2
Origin: BRITISH PETROLEUM CO. LTD., ENGLAND
1/CM	TRANSMITTANCE
667	0.3401
676	0.175
685	0.1648
694	0.0661
703	0.2405
712	0.6941
721	0.5023
730	0.1884
739	0.0215
748	0.3143
757	0.0352
766	0.653
775	0.7997
784	0.8001
793	0.7608
802	0.5435
811	0.3797
820	0.5952
829	0.653
838	0.4941
847	0.7415
856	0.7268
865	0.7048
874	0.6644
883	0.6503
892	0.6235
901	0.5051
910	0.6474
919	0.6173
928	0.4807
937	0.6256
946	0.5931
955	0.5604
964	0.5463
973	0.473
982	0.4951
991	0.4258
1000	0.4344
1009	0.5544
1018	0.3953
1027	0.394
1036	0.6163
1045	0.5993
1054	0.576
1063	0.5354
1072	0.3865
1081	0.4199
1090	0.5694
1099	0.5399
1108	0.5338
1117	0.5258
1126	0.5154
1135	0.4769
1144	0.4647
1153	0.3571
1162	0.2254
1171	0.2584
1180	0.2578
1189	0.4245
1198	0.2362
1207	0.3902
1216	0.4849
1225	0.4787
1234	0.4601
1243	0.4497
1252	0.4489
1261	0.4445
1270	0.3598
1279	0.3869
1288	0.3771
1297	0.2919
1306	0.267
1315	0.3236
1324	0.3413
1333	0.3215
1342	0.3523
1351	0.3569
1360	0.2975
1369	0.2577
1378	0.2671
1387	0.2533
1396	0.2212
1405	0.1798
1414	0.0739
1423	0.1276
1432	0.3045
1441	0.2478
1450	0.1642
1459	0.0609
1468	0.0371
1477	0.0363
1486	0.0388
1495	0.0819
1504	0.2774
1513	0.3886
1522	0.3912
1531	0.3834
1540	0.2821
1549	0.1537
1558	0.1024
1567	0.153
1576	0.3111
1585	0.2037
1594	0.0891
1603	0.1894
1612	0.3619
1621	0.3998
1630	0.3968
1639	0.4176
1648	0.4376
1657	0.4393
1666	0.4383
1675	0.4306
1684	0.4234
1693	0.4179
1702	0.4056
1711	0.4045
1720	0.391
1729	0.3911
1738	0.3912
1747	0.3827
1756	0.3622
1765	0.3338
1774	0.3202
1783	0.3286
1792	0.3407
1801	0.3462
1810	0.3448
1819	0.3345
1828	0.3238
1837	0.3221
1846	0.3081
1855	0.2917
1864	0.2837
1873	0.275
1882	0.2574
1891	0.2432
1900	0.2314
1909	0.2315
1918	0.227
1927	0.2038
1936	0.1787
1945	0.1251
1954	0.0981
1963	0.0934
1972	0.0931
1981	0.1284
1990	0.1937
1999	0.211
2008	0.1918
2017	0.1571
2026	0.1227
2035	0.107
2044	0.16
2053	0.2138
2062	0.2117
2071	0.1961
2080	0.1751
2089	0.1642
2098	0.1606
2107	0.1491
2116	0.1442
2125	0.1332
2134	0.114
2143	0.0927
2152	0.0785
2161	0.0707
2170	0.0645
2179	0.0613
2188	0.0584
2197	0.0494
2206	0.0369
2215	0.035
2224	0.0311
2233	0.017
2242	0.0149
2251	0.0139
2260	0.0131
2269	0.0125
2278	0.0124
2287	0.0124
2296	0.0124
2305	0.0125
2314	0.0125
2323	0.0125
2332	0.0125
2341	0.0125
2350	0.0125
2359	0.0126
2368	0.0126
2377	0.0126
2386	0.0126
2395	0.0126
2404	0.0126
2413	0.0127
2422	0.0127
2431	0.0127
2440	0.0127
2449	0.0127
2458	0.0127
2467	0.0127
2476	0.0128
2485	0.0128
2494	0.0128
2503	0.0128
2512	0.0128
2521	0.0128
2530	0.0128
2539	0.0129
2548	0.0129
2557	0.0129
2566	0.0129
2575	0.0129
2584	0.0132
2593	0.0151
2602	0.0214
2611	0.0248
2620	0.0256
2629	0.026
2638	0.0263
2647	0.0308
2656	0.0342
2665	0.039
2674	0.0485
2683	0.0557
2692	0.0656
2701	0.0733
2710	0.0777
2719	0.0792
2728	0.0813
2737	0.0914
2746	0.1022
2755	0.1056
2764	0.1066
2773	0.1083
2782	0.1258
2791	0.1449
2800	0.1616
2809	0.1622
2818	0.1624
2827	0.1641
2836	0.1775
2845	0.2043
2854	0.2233
2863	0.2308
2872	0.2358
2881	0.254
2890	0.2747
2899	0.2952
2908	0.3155
2917	0.3357
2926	0.3509
2935	0.3563
2944	0.3613
2953	0.3682
2962	0.3742
2971	0.3774
2980	0.3777
2989	0.3745
2998	0.3686
3007	0.3498
3016	0.3378
3025	0.3369
3034	0.3529
3043	0.3635
3052	0.372
3061	0.3788
3070	0.3832
3079	0.3862
3088	0.3905
3097	0.398
3106	0.413
3115	0.4145
3124	0.4134
3133	0.4121
3142	0.4107
3151	0.4091
3160	0.4074
3169	0.4058
3178	0.4042
3187	0.4027
3196	0.4011
3205	0.3996
3214	0.398
3223	0.3963
3232	0.3939
3241	0.3915
3250	0.389
3259	0.3852
3268	0.3809
3277	0.3766
3286	0.3719
3295	0.367
3304	0.3599
3313	0.3526
3322	0.3454
3331	0.3387
3340	0.3321
3349	0.3222
3358	0.3164
3367	0.3134
3376	0.3127
3385	0.3122
3394	0.3122
3403	0.3123
3412	0.3125
3421	0.313
3430	0.3135
3439	0.314
3448	0.3143
3457	0.315
3466	0.3159
3475	0.3169
3484	0.3179
3493	0.3195
3502	0.3219
3511	0.3246
3520	0.3273
3529	0.3301
3538	0.3324
3547	0.3346
3556	0.3367
3565	0.3389
3574	0.341
3583	0.3427
3592	0.3446
3601	0.3461
3610	0.3466
3619	0.3471
3628	0.3474
3637	0.3474
3646	0.3473
3655	0.3472
3664	0.3472
3673	0.3471
3682	0.3468
3691	0.3466
3700	0.3463
3709	0.3457
3718	0.3439
3727	0.3422
3736	0.3403
3745	0.3372
3754	0.3344
3763	0.3317
3772	0.3292
3781	0.3268
3790	0.3248
3799	0.3228
3808	0.321
3817	0.3195
3826	0.318
3835	0.3167
3844	0.3152
3853	0.3139
3862	0.3129
3871	0.3117
3880	0.3107
3889	0.3097
3898	0.3089
3907	0.3082
3916	0.3078
3925	0.3074
3934	0.3071
3943	0.3069
3952	0.3066
3961	0.3063
3970	0.306
3979	0.3056
3988	0.3053
3997	0.3051
