Infrared Spectrum: Aminoterephthalic acid, dimethyl ester
Formula: C10 H11 N O4
CAS: 5372-81-6
State: SOLID (SPLIT MULL), FLUOROLUBE FOR 3800-1330 CM^-^1, NUJOL FOR 1330-400 CM^-^1
Melting point: 134 C
Class: COBLENTZ III
Instrument: BECKMAN IR-9 (GRATING)
Instrument parameters: ORDER CHANGES: 670, 1200, 2000 CM^-^1
Sampling: TRANSMISSION
Resolution: 2
Origin: DOW CHEMICAL COMPANY
1/CM	TRANSMITTANCE
401	0.2678
410	0.2372
419	0.2406
428	0.3154
437	0.4079
446	0.4009
455	0.4651
464	0.5187
473	0.5645
482	0.6024
491	0.6217
500	0.6464
509	0.6728
518	0.693
527	0.704
536	0.6961
545	0.5775
554	0.3122
563	0.533
572	0.5715
581	0.8021
590	0.827
599	0.8459
608	0.8559
617	0.8585
626	0.8594
635	0.86
644	0.8594
653	0.8564
662	0.8513
671	0.823
680	0.7822
689	0.3612
698	0.5878
707	0.7288
716	0.6669
725	0.6377
734	0.621
743	0.3275
752	0
761	0.3118
770	0.4938
779	0.599
788	0.6012
797	0.5224
806	0.5122
815	0.2223
824	0.6337
833	0.639
842	0.6581
851	0.6594
860	0.6561
869	0.6455
878	0.6406
887	0.5949
896	0.134
905	0.3942
914	0.7126
923	0.7255
932	0.7084
941	0.6907
950	0.6711
959	0.3055
968	0.4
977	0.6284
986	0.3528
995	0.0475
1004	0.5294
1013	0.6621
1022	0.709
1031	0.7204
1040	0.7183
1049	0.7021
1058	0.6769
1067	0.5789
1076	0.5932
1085	0.5281
1094	0.3723
1103	0.0753
1112	0.012
1121	0.0768
1130	0.3055
1139	0.4828
1148	0.531
1157	0.5195
1166	0.4604
1175	0.4364
1184	0.0767
1193	0.2052
1202	0.4
1211	0.431
1220	0.2837
1229	0.0903
1238	0.0149
1247	0.0032
1256	0.0002
1265	0.0002
1274	0.0613
1283	0.32
1292	0.1677
1301	0.0585
1310	0.0035
1319	0.0202
1328	0.3025
1337	0.5499
1346	0.5716
1355	0.4309
1364	0.6785
1373	0.7022
1382	0.7033
1391	0.6955
1400	0.6755
1409	0.6297
1418	0.502
1427	0.0603
1436	0.1146
1445	0.1004
1454	0.2783
1463	0.5909
1472	0.7158
1481	0.7218
1490	0.5274
1499	0.6587
1508	0.6819
1517	0.6861
1526	0.6961
1535	0.6279
1544	0.5117
1553	0.3545
1562	0.2483
1571	0.4458
1580	0.3741
1589	0.1277
1598	0.2851
1607	0.464
1616	0.4989
1625	0.3052
1634	0.4821
1643	0.574
1652	0.5347
1661	0.4835
1670	0.4082
1679	0.2672
1688	0.059
1697	0.0168
1706	0.1546
1715	0.0062
1724	0.3004
1733	0.6253
1742	0.7708
1751	0.8054
1760	0.8089
1769	0.8106
1778	0.8055
1787	0.7554
1796	0.7742
1805	0.8172
1814	0.8327
1823	0.8433
1832	0.8512
1841	0.8494
1850	0.8449
1859	0.8375
1868	0.8298
1877	0.8283
1886	0.8281
1895	0.8263
1904	0.8221
1913	0.8078
1922	0.7811
1931	0.7787
1940	0.8078
1949	0.8083
1958	0.804
1967	0.7982
1976	0.7919
1985	0.7858
1994	0.783
2003	0.786
2012	0.7849
2021	0.783
2030	0.7814
2039	0.7808
2048	0.7778
2057	0.7651
2066	0.7621
2075	0.7628
2084	0.7626
2093	0.7611
2102	0.7583
2111	0.7547
2120	0.7511
2129	0.7476
2138	0.744
2147	0.7399
2156	0.7338
2165	0.726
2174	0.7186
2183	0.7182
2192	0.7219
2201	0.7172
2210	0.7131
2219	0.7087
2228	0.7032
2237	0.6968
2246	0.6919
2255	0.6875
2264	0.6839
2273	0.6805
2282	0.6783
2291	0.6761
2300	0.6749
2309	0.6739
2318	0.6739
2327	0.6739
2336	0.6739
2345	0.6739
2354	0.6738
2363	0.674
2372	0.6748
2381	0.6656
2390	0.6538
2399	0.6512
2408	0.6501
2417	0.6489
2426	0.6478
2435	0.6468
2444	0.6458
2453	0.6441
2462	0.6406
2471	0.6379
2480	0.6356
2489	0.6333
2498	0.631
2507	0.6294
2516	0.6286
2525	0.6252
2534	0.6217
2543	0.623
2552	0.6254
2561	0.6266
2570	0.6237
2579	0.6205
2588	0.6173
2597	0.6138
2606	0.6101
2615	0.6065
2624	0.6028
2633	0.599
2642	0.5953
2651	0.5916
2660	0.5885
2669	0.5862
2678	0.5834
2687	0.5801
2696	0.576
2705	0.5703
2714	0.5712
2723	0.5737
2732	0.5745
2741	0.5724
2750	0.57
2759	0.5655
2768	0.5622
2777	0.5574
2786	0.5444
2795	0.5379
2804	0.5372
2813	0.5391
2822	0.5367
2831	0.5224
2840	0.503
2849	0.4939
2858	0.5094
2867	0.5073
2876	0.5029
2885	0.4942
2894	0.4818
2903	0.4793
2912	0.4788
2921	0.4734
2930	0.4647
2939	0.4542
2948	0.4068
2957	0.2565
2966	0.4575
2975	0.4842
2984	0.485
2993	0.4672
3002	0.3775
3011	0.448
3020	0.4795
3029	0.4798
3038	0.4609
3047	0.4812
3056	0.473
3065	0.4744
3074	0.4816
3083	0.4862
3092	0.4854
3101	0.482
3110	0.4778
3119	0.473
3128	0.4674
3137	0.4617
3146	0.4569
3155	0.4564
3164	0.456
3173	0.4459
3182	0.4452
3191	0.4462
3200	0.4491
3209	0.4474
3218	0.4428
3227	0.439
3236	0.4344
3245	0.4304
3254	0.4256
3263	0.4207
3272	0.4165
3281	0.4121
3290	0.4077
3299	0.403
3308	0.395
3317	0.3874
3326	0.378
3335	0.3649
3344	0.3478
3353	0.3149
3362	0.2051
3371	0.0801
3380	0.2222
3389	0.4183
3398	0.4203
3407	0.4135
3416	0.4046
3425	0.3923
3434	0.3738
3443	0.3523
3452	0.3208
3461	0.2814
3470	0.2033
3479	0.0993
3488	0.0201
3497	0.3075
3506	0.4931
3515	0.4979
3524	0.4933
3533	0.482
3542	0.4738
3551	0.4674
3560	0.4619
3569	0.457
3578	0.4523
3587	0.4476
3596	0.4434
3605	0.4393
3614	0.4365
3623	0.4338
3632	0.4312
3641	0.4287
3650	0.4262
3659	0.4234
3668	0.4207
3677	0.4179
3686	0.4156
3695	0.4131
3704	0.4108
3713	0.4086
3722	0.4064
3731	0.4043
3740	0.4024
3749	0.4006
3758	0.3988
3767	0.397
3776	0.3953
3785	0.393
3794	0.3904
