Infrared Spectrum: 5-Octyn-3-ol
Formula: C 8 H 14 O
CAS: 53723-18-5
State: gas
Origin: EPA-IR VAPOR PHASE LIBRARY
1/CM	ABSORBANCE
549.8	0.0037
559.445	0.00265
569.09	0.00331
578.734	0.0019727
588.379	0.00311
598.024	0.0019873
607.669	0.00327
617.313	0.00407
626.958	0.00249
636.603	0.0016024
646.248	0.0018481
655.893	0.0015573
665.537	0.0019111
675.182	0.00248
684.827	0.00251
694.472	0.0014887
704.116	0.00242
713.761	0.00287
723.406	0.00225
733.051	0.0019508
742.695	0.00297
752.34	0.00295
761.985	0.00264
771.63	0.00239
781.275	0.00326
790.919	0.00299
800.564	0.00304
810.209	0.00293
819.854	0.00249
829.498	0.0031
839.143	0.00311
848.788	0.00341
858.433	0.00351
868.078	0.00375
877.722	0.00367
887.367	0.00367
897.012	0.00354
906.657	0.00472
916.301	0.00484
925.946	0.00397
935.591	0.00431
945.236	0.00561
954.88	0.00715
964.525	0.00911
974.17	0.01452
983.815	0.01568
993.46	0.01428
1003.1	0.01376
1012.75	0.0117
1022.39	0.01251
1032.04	0.01297
1041.68	0.01188
1051.33	0.01301
1060.97	0.01273
1070.62	0.01238
1080.26	0.00974
1089.91	0.01005
1099.55	0.01458
1109.2	0.0112
1118.84	0.01027
1128.49	0.00722
1138.13	0.00632
1147.78	0.00478
1157.42	0.00361
1167.07	0.00253
1176.71	0.00435
1186.36	0.00327
1196	0.00602
1205.64	0.00479
1215.29	0.00669
1224.93	0.00728
1234.58	0.00756
1244.22	0.00899
1253.87	0.0093
1263.51	0.0079
1273.16	0.00834
1282.8	0.00816
1292.45	0.00904
1302.09	0.00979
1311.74	0.01379
1321.38	0.01802
1331.03	0.01355
1340.67	0.0088
1350.32	0.0084
1359.96	0.00952
1369.61	0.01006
1379.25	0.01115
1388.9	0.01169
1398.54	0.01054
1408.18	0.0083
1417.83	0.00778
1427.47	0.00932
1437.12	0.01024
1446.76	0.00982
1456.41	0.00968
1466.05	0.01009
1475.7	0.00803
1485.34	0.00498
1494.99	0.00384
1504.63	0.00306
1514.28	0.00276
1523.92	0.00253
1533.57	0.00229
1543.21	0.00241
1552.86	0.00237
1562.5	0.0023
1572.15	0.00227
1581.79	0.0017799
1591.44	0.0020371
1601.08	0.002042
1610.73	0.0018671
1620.37	0.0018408
1630.01	0.00215
1639.66	0.0019159
1649.3	0.00223
1658.95	0.0019034
1668.59	0.0015535
1678.24	0.001672
1687.88	0.0017977
1697.53	0.0016561
1707.17	0.0015498
1716.82	0.0012707
1726.46	0.0013086
1736.11	0.0015199
1745.75	0.0014083
1755.4	0.0015517
1765.04	0.001735
1774.69	0.0016803
1784.33	0.001394
1793.98	0.0012411
1803.62	0.00108064
1813.27	0.0012524
1822.91	0.0013824
1832.55	0.0014272
1842.2	0.0016001
1851.84	0.0014689
1861.49	0.0016173
1871.13	0.0015595
1880.78	0.0015506
1890.42	0.0016122
1900.07	0.0015458
1909.71	0.0013217
1919.36	0.0012187
1929	0.001587
1938.65	0.0014307
1948.29	0.00113768
1957.94	0.0015184
1967.58	0.0014828
1977.23	0.0012818
1986.87	0.0017818
1996.52	0.0013196
2006.16	0.0013972
2015.81	0.0013226
2025.45	0.0014705
2035.1	0.0016125
2044.74	0.0016692
2054.38	0.0016017
2064.03	0.0017547
2073.67	0.001735
2083.32	0.0018488
2092.96	0.0016169
2102.61	0.00179
2112.25	0.001723
2121.9	0.0015774
2131.54	0.0013094
2141.19	0.0015499
2150.83	0.001324
2160.48	0.001677
2170.12	0.0016556
2179.77	0.0015429
2189.41	0.0014922
2199.06	0.0017649
2208.7	0.002004
2218.35	0.0016876
2227.99	0.0017581
2237.64	0.0017858
2247.28	0.001818
2256.92	0.0019163
2266.57	0.0014476
2276.21	0.0010206
2285.86	0.0013778
2295.5	0.0015538
2305.15	0.0015101
2314.79	0.0015896
2324.44	0.0017862
2334.08	0.0018524
2343.73	0.0015175
2353.37	0.0016352
2363.02	0.0016943
2372.66	0.0019069
2382.31	0.0015297
2391.95	0.00215
2401.6	0.0020296
2411.24	0.00212
2420.89	0.0019996
2430.53	0.0016557
2440.18	0.001883
2449.82	0.0016598
2459.47	0.00207
2469.11	0.0012615
2478.75	0.001928
2488.4	0.0014753
2498.04	0.0019506
2507.69	0.0018211
2517.33	0.0017602
2526.98	0.0016737
2536.62	0.001538
2546.27	0.00212
2555.91	0.0021
2565.56	0.0016028
2575.2	0.00217
2584.85	0.0017975
2594.49	0.0018803
2604.14	0.00235
2613.78	0.00212
2623.43	0.0019683
2633.07	0.0023
2642.72	0.00226
2652.36	0.00251
2662.01	0.0020072
2671.65	0.00207
2681.29	0.00237
2690.94	0.00232
2700.58	0.00242
2710.23	0.0019281
2719.87	0.00213
2729.52	0.00225
2739.16	0.00277
2748.81	0.00293
2758.45	0.0036
2768.1	0.00249
2777.74	0.00338
2787.39	0.00333
2797.03	0.00333
2806.68	0.00366
2816.32	0.00409
2825.97	0.00536
2835.61	0.00757
2845.26	0.00981
2854.9	0.01236
2864.55	0.01703
2874.19	0.02075
2883.84	0.02668
2893.48	0.02907
2903.12	0.03015
2912.77	0.03547
2922.41	0.04243
2932.06	0.04889
2941.7	0.05299
2951.35	0.04591
2960.99	0.03828
2970.64	0.04541
2980.28	0.04858
2989.93	0.0341
2999.57	0.01723
3009.22	0.01102
3018.86	0.00845
3028.51	0.00568
3038.15	0.00466
3047.8	0.0039
3057.44	0.00259
3067.09	0.0033
3076.73	0.00317
3086.38	0.00279
3096.02	0.00271
3105.67	0.0025
3115.31	0.00277
3124.95	0.00249
3134.6	0.00221
3144.24	0.00275
3153.89	0.00252
3163.53	0.00288
3173.18	0.00235
3182.82	0.0015347
3192.47	0.0018272
3202.11	0.0014912
3211.76	0.00238
3221.4	0.0020142
3231.05	0.0017376
3240.69	0.001879
3250.34	0.0023
3259.98	0.0022
3269.63	0.0017473
3279.27	0.00207
3288.92	0.0020129
3298.56	0.0017366
3308.21	0.0017637
3317.85	0.0017607
3327.49	0.0018165
3337.14	0.0018492
3346.78	0.00115999
3356.43	0.00228
3366.07	0.001529
3375.72	0.00233
3385.36	0.0015204
3395.01	0.0018803
3404.65	0.00311
3414.3	0.00209
3423.94	0.0015442
3433.59	0.0017929
3443.23	0.0013425
3452.88	0.0016459
3462.52	0.001744
3472.17	0.0017678
3481.81	0.0012169
3491.46	0.00225
3501.1	0.0023
3510.75	0.001934
3520.39	0.0019824
3530.04	0.0019049
3539.68	0.0014306
3549.32	0.00262
3558.97	0.0031
3568.61	0.00335
3578.26	0.00379
3587.9	0.00519
3597.55	0.00659
3607.19	0.00982
3616.84	0.0076
3626.48	0.00432
3636.13	0.00463
3645.77	0.00442
3655.42	0.00458
3665.06	0.00423
3674.71	0.00346
3684.35	0.00298
3694	0.0025
3703.64	0.00212
3713.29	0.0013367
3722.93	0.0017787
3732.58	0.0017176
3742.22	0.00085
3751.86	0.00217
3761.51	0.0015482
3771.15	0.00231
3780.8	0.0020241
3790.44	0.001799
3800.09	0.00243
3809.73	0.0018848
3819.38	0.00235
3829.02	0.0017185
3838.67	0.00209
3848.31	0.0013919
3857.96	0.0019732
3867.6	0.00214
3877.25	0.00207
3886.89	0.0015714
3896.54	0.0019797
3906.18	0.0018209
3915.83	0.00262
3925.47	0.00285
3935.12	0.0016422
3944.76	0.0017028
3954.41	0.0018406
3964.05	0.0020497
3973.69	0.0016759
3983.34	0.00223
3992.98	0.00244
