Infrared Spectrum: 2,2,2-TRICHLORO-N,N'-BIS(3,4-DICHLOROPHENYL) ETHYLIDENE DIAMINE
Formula: C14 H9 Cl7 N2
CAS: 53723-87-8
State: SOLID (MINERAL OIL MULL)
Class: COBLENTZ
Instrument: Not specified, most likely a prism, grating, or hybrid spectrometer.
Sampling: TRANSMISSION
Resolution: 4
Origin: DOW CHEMICAL COMPANY
MICROMETERS	TRANSMITTANCE
2.034	0.412
2.07506	0.42
2.11611	0.425
2.15717	0.439
2.19823	0.448
2.23929	0.451
2.28034	0.454
2.3214	0.463
2.36246	0.477
2.40351	0.482
2.44457	0.499
2.48563	0.511
2.52669	0.524
2.56774	0.536
2.6088	0.543
2.64986	0.553
2.69091	0.567
2.73197	0.57
2.77303	0.584
2.81408	0.591
2.85514	0.594
2.8962	0.575
2.93726	0.4
2.97831	0.568
3.01937	0.557
3.06043	0.582
3.10148	0.584
3.14254	0.582
3.1836	0.589
3.22466	0.58
3.26571	0.553
3.30677	0.524
3.34783	0.381
3.38888	0.095
3.42994	0.028
3.471	0.073
3.51206	0.163
3.55311	0.604
3.59417	0.66
3.63523	0.689
3.67628	0.679
3.71734	0.695
3.7584	0.706
3.79946	0.713
3.84051	0.713
3.88157	0.722
3.92263	0.735
3.96368	0.756
4.00474	0.771
4.0458	0.778
4.08686	0.792
4.12791	0.793
4.16897	0.8
4.21003	0.805
4.25108	0.81
4.29214	0.821
4.3332	0.822
4.37425	0.824
4.41531	0.826
4.45637	0.826
4.49743	0.829
4.53848	0.836
4.57954	0.841
4.6206	0.844
4.66165	0.85
4.70271	0.853
4.74377	0.862
4.78483	0.867
4.82588	0.868
4.86694	0.87
4.908	0.877
4.94905	0.88
4.99011	0.882
5.03117	0.885
5.07223	0.89
5.11328	0.892
5.15434	0.89
5.1954	0.896
5.23645	0.899
5.27751	0.909
5.31857	0.882
5.35963	0.885
5.40068	0.896
5.44174	0.914
5.4828	0.921
5.52385	0.931
5.56491	0.925
5.60597	0.936
5.64702	0.93
5.68808	0.935
5.72914	0.93
5.7702	0.928
5.81125	0.935
5.85231	0.933
5.89337	0.933
5.93442	0.93
5.97548	0.914
6.01654	0.914
6.0576	0.909
6.09865	0.856
6.13971	0.751
6.18077	0.691
6.22182	0.557
6.26288	0.189
6.30394	0.386
6.345	0.533
6.38605	0.596
6.42711	0.746
6.46817	0.824
6.50922	0.819
6.55028	0.754
6.59134	0.662
6.6324	0.465
6.67345	0.212
6.71451	0.255
6.75557	0.163
6.79662	0.141
6.83768	0.172
6.87874	0.291
6.91979	0.473
6.96085	0.611
7.00191	0.706
7.04297	0.689
7.08402	0.787
7.12508	0.819
7.16614	0.735
7.20719	0.599
7.24825	0.449
7.28931	0.454
7.33037	0.64
7.37142	0.77
7.41248	0.805
7.45354	0.805
7.49459	0.785
7.53565	0.742
7.57671	0.597
7.61777	0.499
7.65882	0.509
7.69988	0.304
7.74094	0.473
7.78199	0.647
7.82305	0.775
7.86411	0.788
7.90517	0.749
7.94622	0.72
7.98728	0.746
8.02834	0.763
8.06939	0.599
8.11045	0.432
8.15151	0.756
8.19257	0.844
8.23362	0.882
8.27468	0.889
8.31574	0.902
8.35679	0.909
8.39785	0.913
8.43891	0.908
8.47996	0.892
8.52102	0.863
8.56208	0.804
8.60314	0.727
8.64419	0.671
8.68525	0.679
8.72631	0.715
8.76736	0.688
8.80842	0.524
8.84948	0.385
8.89054	0.35
8.93159	0.396
8.97265	0.482
9.01371	0.582
9.05476	0.62
9.09582	0.689
9.13688	0.78
9.17794	0.827
9.21899	0.85
9.26005	0.863
9.30111	0.872
9.34216	0.88
9.38322	0.899
9.42428	0.901
9.46534	0.906
9.50639	0.919
9.54745	0.916
9.58851	0.914
9.62956	0.904
9.67062	0.896
9.71168	0.855
9.75273	0.741
9.79379	0.635
9.83485	0.705
9.87591	0.805
9.91696	0.85
9.95802	0.867
9.99908	0.846
10.0401	0.829
10.0812	0.889
10.1222	0.928
10.1633	0.933
10.2044	0.948
10.2454	0.95
10.2865	0.95
10.3275	0.952
10.3686	0.952
10.4096	0.95
10.4507	0.95
10.4918	0.948
10.5328	0.948
10.5739	0.943
10.6149	0.909
10.656	0.867
10.697	0.776
10.7381	0.771
10.7792	0.824
10.8202	0.882
10.8613	0.901
10.9023	0.884
10.9434	0.851
10.9844	0.805
11.0255	0.802
11.0666	0.819
11.1076	0.817
11.1487	0.804
11.1897	0.86
11.2308	0.899
11.2718	0.902
11.3129	0.908
11.354	0.926
11.395	0.921
11.4361	0.921
11.4771	0.926
11.5182	0.931
11.5592	0.926
11.6003	0.902
11.6414	0.855
11.6824	0.809
11.7235	0.81
11.7645	0.814
11.8056	0.751
11.8466	0.597
11.8877	0.451
11.9288	0.521
11.9698	0.499
12.0109	0.632
12.0519	0.71
12.093	0.586
12.134	0.35
12.1751	0.236
12.2162	0.373
12.2572	0.47
12.2983	0.345
12.3393	0.281
12.3804	0.507
12.4214	0.548
12.4625	0.485
12.5036	0.425
12.5446	0.398
12.5857	0.55
12.6267	0.71
12.6678	0.792
12.7088	0.829
12.7499	0.851
12.791	0.86
12.832	0.867
12.8731	0.87
12.9141	0.872
12.9552	0.879
12.9962	0.877
13.0373	0.87
13.0784	0.868
13.1194	0.867
13.1605	0.875
13.2015	0.877
13.2426	0.875
13.2836	0.87
13.3247	0.87
13.3658	0.863
13.4068	0.855
13.4479	0.848
13.4889	0.836
13.53	0.821
13.571	0.798
13.6121	0.756
13.6532	0.698
13.6942	0.659
13.7353	0.652
13.7763	0.671
13.8174	0.698
13.8584	0.712
13.8995	0.717
13.9406	0.729
13.9816	0.742
14.0227	0.749
14.0637	0.751
14.1048	0.752
14.1458	0.756
14.1869	0.744
14.228	0.727
14.269	0.706
14.3101	0.701
14.3511	0.7
14.3922	0.7
14.4332	0.701
14.4743	0.705
14.5154	0.686
14.5564	0.628
14.5975	0.568
14.6385	0.504
14.6796	0.485
14.7206	0.5
14.7617	0.524
14.8028	0.534
14.8438	0.519
14.8849	0.492
14.9259	0.487
14.967	0.495
15.008	0.529
15.0491	0.57
15.0902	0.587
15.1312	0.592
15.1723	0.594
15.2133	0.594
15.2544	0.591
15.2954	0.587
15.3365	0.58
15.3776	0.57
15.4186	0.553
15.4597	0.536
15.5007	0.519
15.5418	0.502
15.5828	0.494
15.6239	0.483
15.665	0.48
15.706	0.478
15.7471	0.477
15.7881	0.477
15.8292	0.475
15.8702	0.471
15.9113	0.47
15.9524	0.47
