Infrared Spectrum: p-Decyloxybenzylidene p-toluidine
Formula: C 24 H 33 N O
CAS: 53764-62-8
State: gas
Origin: EPA-IR VAPOR PHASE LIBRARY
1/CM	ABSORBANCE
549.8	0.001895
559.445	0.0009879
569.09	0.0008559
578.734	0.0010972
588.379	0.0010255
598.024	0.001465
607.669	0.001605
617.313	0.001235
626.958	0.0007176
636.603	0.0004723
646.248	0.0006307
655.893	0.000476
665.537	0.00018455
675.182	0.0003625
684.827	0.00022812
694.472	0.00047
704.116	0.0008189
713.761	0.0009526
723.406	0.0010978
733.051	0.0010688
742.695	0.0010124
752.34	0.0009835
761.985	0.0008278
771.63	0.0009168
781.275	0.0010133
790.919	0.001645
800.564	0.002825
810.209	0.004405
819.854	0.005085
829.498	0.006925
839.143	0.005855
848.788	0.002865
858.433	0.002205
868.078	0.002035
877.722	0.003555
887.367	0.005125
897.012	0.002215
906.657	0.001605
916.301	0.001275
925.946	0.001405
935.591	0.001625
945.236	0.001715
954.88	0.001595
964.525	0.001915
974.17	0.002325
983.815	0.002405
993.46	0.003085
1003.1	0.003875
1012.75	0.005575
1022.39	0.005145
1032.04	0.005225
1041.68	0.004595
1051.33	0.004295
1060.97	0.003335
1070.62	0.002485
1080.26	0.002105
1089.91	0.002095
1099.55	0.002505
1109.2	0.002945
1118.84	0.002215
1128.49	0.001865
1138.13	0.002465
1147.78	0.003385
1157.42	0.014335
1167.07	0.027135
1176.71	0.005205
1186.36	0.007245
1196	0.006165
1205.64	0.007365
1215.29	0.011085
1224.93	0.016015
1234.58	0.023115
1244.22	0.029355
1253.87	0.022085
1263.51	0.010645
1273.16	0.007035
1282.8	0.006715
1292.45	0.008235
1302.09	0.010375
1311.74	0.006545
1321.38	0.003815
1331.03	0.002905
1340.67	0.002715
1350.32	0.002645
1359.96	0.002605
1369.61	0.002735
1379.25	0.003115
1388.9	0.003475
1398.54	0.002405
1408.18	0.002335
1417.83	0.004475
1427.47	0.002765
1437.12	0.002475
1446.76	0.003115
1456.41	0.004305
1466.05	0.005565
1475.7	0.006835
1485.34	0.004185
1494.99	0.006865
1504.63	0.023065
1514.28	0.025965
1523.92	0.006915
1533.57	0.003195
1543.21	0.002395
1552.86	0.002495
1562.5	0.003855
1572.15	0.009055
1581.79	0.008185
1591.44	0.013985
1601.08	0.027955
1610.73	0.014135
1620.37	0.008045
1630.01	0.015455
1639.66	0.009105
1649.3	0.003945
1658.95	0.002515
1668.59	0.001805
1678.24	0.001355
1687.88	0.0011597
1697.53	0.0008367
1707.17	0.0008384
1716.82	0.0006615
1726.46	0.0007271
1736.11	0.0006679
1745.75	0.0007582
1755.4	0.0008623
1765.04	0.0009636
1774.69	0.0008245
1784.33	0.000655
1793.98	0.0005581
1803.62	0.0005601
1813.27	0.000451
1822.91	0.0004992
1832.55	0.0004413
1842.2	0.0004921
1851.84	0.0005708
1861.49	0.0006236
1871.13	0.000729
1880.78	0.0008663
1890.42	0.0008111
1900.07	0.0007191
1909.71	0.0006565
1919.36	0.0005909
1929	0.0006082
1938.65	0.0006642
1948.29	0.0006127
1957.94	0.0005576
1967.58	0.0005302
1977.23	0.0005416
1986.87	0.0005562
1996.52	0.0005967
2006.16	0.0006107
2015.81	0.0006919
2025.45	0.0006918
2035.1	0.0007088
2044.74	0.0006792
2054.38	0.0006646
2064.03	0.0006567
2073.67	0.0005877
2083.32	0.0005564
2092.96	0.0005296
2102.61	0.000529
2112.25	0.0004445
2121.9	0.0004444
2131.54	0.0003807
2141.19	0.000359
2150.83	0.0003289
2160.48	0.0004275
2170.12	0.0003189
2179.77	0.0002804
2189.41	0.0003127
2199.06	0.0002831
2208.7	0.0002825
2218.35	0.0002708
2227.99	0.0003844
2237.64	0.0003167
2247.28	0.0003287
2256.92	0.0003416
2266.57	0.0003595
2276.21	0.0003479
2285.86	0.0003405
2295.5	0.0003846
2305.15	0.0004232
2314.79	0.0004201
2324.44	0.0005213
2334.08	0.000457
2343.73	0.0004035
2353.37	0.0003884
2363.02	0.0004583
2372.66	0.0003927
2382.31	0.000475
2391.95	0.0004483
2401.6	0.0004729
2411.24	0.000489
2420.89	0.0005345
2430.53	0.0004236
2440.18	0.0004718
2449.82	0.0005356
2459.47	0.0006227
2469.11	0.0006395
2478.75	0.0006891
2488.4	0.0006315
2498.04	0.0006431
2507.69	0.0006277
2517.33	0.0007413
2526.98	0.0007236
2536.62	0.0008198
2546.27	0.0007492
2555.91	0.0007016
2565.56	0.0007175
2575.2	0.0007004
2584.85	0.0007206
2594.49	0.0006387
2604.14	0.0006048
2613.78	0.0005733
2623.43	0.0005436
2633.07	0.0006288
2642.72	0.0005642
2652.36	0.0006029
2662.01	0.000575
2671.65	0.0006778
2681.29	0.0006316
2690.94	0.0007626
2700.58	0.0007318
2710.23	0.0006825
2719.87	0.0007844
2729.52	0.0008418
2739.16	0.0009993
2748.81	0.0011542
2758.45	0.0010268
2768.1	0.0010143
2777.74	0.0011309
2787.39	0.001205
2797.03	0.001225
2806.68	0.001485
2816.32	0.001865
2825.97	0.002425
2835.61	0.003435
2845.26	0.005575
2854.9	0.010585
2864.55	0.015215
2874.19	0.013845
2883.84	0.012005
2893.48	0.010295
2903.12	0.011435
2912.77	0.016125
2922.41	0.024655
2932.06	0.034955
2941.7	0.029295
2951.35	0.019735
2960.99	0.015115
2970.64	0.012625
2980.28	0.007395
2989.93	0.005015
2999.57	0.004425
3009.22	0.003955
3018.86	0.004345
3028.51	0.006845
3038.15	0.004595
3047.8	0.003105
3057.44	0.002945
3067.09	0.003055
3076.73	0.003355
3086.38	0.002455
3096.02	0.001905
3105.67	0.001495
3115.31	0.001235
3124.95	0.0009365
3134.6	0.0006332
3144.24	0.0005783
3153.89	0.0004886
3163.53	0.0004484
3173.18	0.0005364
3182.82	0.0004926
3192.47	0.0003809
3202.11	0.0004001
3211.76	0.0005089
3221.4	0.0003712
3231.05	0.0004693
3240.69	0.0004335
3250.34	0.0004209
3259.98	0.0004138
3269.63	0.0003308
3279.27	0.00039
3288.92	0.0003832
3298.56	0.0002925
3308.21	0.00018199
3317.85	0.00025312
3327.49	0.00026444
3337.14	0.0004215
3346.78	0.00023132
3356.43	0.0002828
3366.07	0.00020083
3375.72	0.0002699
3385.36	0.0002804
3395.01	0.0004047
3404.65	0.0002931
3414.3	0.00025421
3423.94	0.00024744
3433.59	9.88e-05
3443.23	0.00018629
3452.88	0.00015715
3462.52	0.00017754
3472.17	0.0001428
3481.81	0.00026167
3491.46	0.000119
3501.1	0.0001197
3510.75	0.0003102
3520.39	0.0001516
3530.04	0.00021374
3539.68	0.00016397
3549.32	0.00018168
3558.97	0.0001465
3568.61	0.0003613
3578.26	0.00019507
3587.9	0.0002542
3597.55	0.00020077
3607.19	0.000201
3616.84	0
3626.48	0.0002922
3636.13	0.00023775
3645.77	0.0003293
3655.42	0.0003414
3665.06	6.57e-05
3674.71	0.00018198
3684.35	0.0002751
3694	0.00021693
3703.64	0.0002698
3713.29	0.00017861
3722.93	0.0004327
3732.58	0.0001455
3742.22	0.0003666
3751.86	0.0003325
3761.51	0.0003669
3771.15	0.00024176
3780.8	0.00026018
3790.44	0.00022536
3800.09	0.0002779
3809.73	0.00025043
3819.38	0.00026146
3829.02	0.00022639
3838.67	0.00021019
3848.31	0.00025872
3857.96	0.0003169
3867.6	0.0003226
3877.25	0.0003546
3886.89	0.0003984
3896.54	0.0002782
3906.18	0.00020992
3915.83	0.0003812
3925.47	0.00022489
3935.12	0.00025421
3944.76	0.00023701
3954.41	0.0003426
3964.05	0.00018294
3973.69	0.0002083
3983.34	0.0003004
3992.98	0.0004069
