Infrared Spectrum: 1-AMINOTETRAZOLE
Formula: C H3 N5
CAS: 5378-49-4
Class: COBLENTZ
Instrument: Not specified, most likely a prism, grating, or hybrid spectrometer.
Sampling: TRANSMISSION
Resolution: 4
Origin: DR. ILSE HAGEDORN, U. FREIBURG
MICROMETERS	TRANSMITTANCE
2.495	0.928
2.52682	0.932
2.55864	0.936
2.59046	0.938
2.62228	0.938
2.6541	0.937
2.68591	0.933
2.71773	0.925
2.74955	0.901
2.78137	0.857
2.81319	0.85
2.84501	0.841
2.87683	0.834
2.90865	0.812
2.94047	0.786
2.97229	0.705
3.00411	0.343
3.03592	0.244
3.06774	0.282
3.09956	0.366
3.13138	0.357
3.1632	0.34
3.19502	0.322
3.22684	0.461
3.25866	0.611
3.29048	0.715
3.3223	0.797
3.35412	0.796
3.38593	0.794
3.41775	0.823
3.44957	0.853
3.48139	0.877
3.51321	0.896
3.54503	0.909
3.57685	0.917
3.60867	0.922
3.64049	0.925
3.67231	0.929
3.70413	0.932
3.73594	0.935
3.76776	0.937
3.79958	0.94
3.8314	0.941
3.86322	0.943
3.89504	0.944
3.92686	0.946
3.95868	0.947
3.9905	0.947
4.02232	0.947
4.05414	0.947
4.08595	0.947
4.11777	0.947
4.14959	0.947
4.18141	0.947
4.21323	0.947
4.24505	0.948
4.27687	0.948
4.30869	0.948
4.34051	0.948
4.37233	0.949
4.40415	0.95
4.43596	0.951
4.46778	0.951
4.4996	0.95
4.53142	0.948
4.56324	0.948
4.59506	0.947
4.62688	0.946
4.6587	0.946
4.69052	0.949
4.72234	0.951
4.75416	0.954
4.78597	0.958
4.81779	0.958
4.84961	0.956
4.88143	0.953
4.91325	0.952
4.94507	0.954
4.97689	0.956
5.00871	0.957
5.04053	0.957
5.07235	0.957
5.10417	0.956
5.13598	0.955
5.1678	0.954
5.19962	0.954
5.23144	0.953
5.26326	0.953
5.29508	0.954
5.3269	0.956
5.35872	0.957
5.39054	0.958
5.42236	0.957
5.45418	0.956
5.48599	0.955
5.51781	0.952
5.54963	0.951
5.58145	0.949
5.61327	0.945
5.64509	0.938
5.67691	0.925
5.70873	0.915
5.74055	0.914
5.77237	0.913
5.80419	0.914
5.836	0.917
5.86782	0.916
5.89964	0.907
5.93146	0.889
5.96328	0.861
5.9951	0.819
6.02692	0.75
6.05874	0.667
6.09056	0.586
6.12238	0.526
6.1542	0.554
6.18601	0.617
6.21783	0.69
6.24965	0.747
6.28147	0.828
6.31329	0.864
6.34511	0.892
6.37693	0.904
6.40875	0.912
6.44057	0.92
6.47239	0.924
6.50421	0.928
6.53602	0.929
6.56784	0.93
6.59966	0.931
6.63148	0.924
6.6633	0.898
6.69512	0.844
6.72694	0.825
6.75876	0.854
6.79058	0.88
6.8224	0.895
6.85422	0.895
6.88603	0.888
6.91785	0.875
6.94967	0.837
6.98149	0.766
7.01331	0.726
7.04513	0.816
7.07695	0.852
7.10877	0.874
7.14059	0.893
7.17241	0.896
7.20423	0.896
7.23604	0.892
7.26786	0.887
7.29968	0.883
7.3315	0.88
7.36332	0.877
7.39514	0.875
7.42696	0.874
7.45878	0.873
7.4906	0.874
7.52242	0.877
7.55424	0.884
7.58605	0.893
7.61787	0.899
7.64969	0.904
7.68151	0.902
7.71333	0.891
7.74515	0.844
7.77697	0.805
7.80879	0.796
7.84061	0.792
7.87243	0.786
7.90425	0.807
7.93606	0.855
7.96788	0.883
7.9997	0.907
8.03152	0.916
8.06334	0.922
8.09516	0.924
8.12698	0.927
8.1588	0.925
8.19062	0.921
8.22244	0.907
8.25426	0.896
8.28607	0.867
8.31789	0.789
8.34971	0.65
8.38153	0.497
8.41335	0.353
8.44517	0.37
8.47699	0.472
8.50881	0.562
8.54063	0.635
8.57245	0.737
8.60427	0.815
8.63608	0.846
8.6679	0.869
8.69972	0.884
8.73154	0.891
8.76336	0.897
8.79518	0.9
8.827	0.901
8.85882	0.898
8.89064	0.894
8.92246	0.881
8.95428	0.835
8.98609	0.772
9.01791	0.564
9.04973	0.334
9.08155	0.234
9.11337	0.287
9.14519	0.462
9.17701	0.702
9.20883	0.802
9.24065	0.845
9.27247	0.854
9.30429	0.859
9.3361	0.86
9.36792	0.857
9.39974	0.853
9.43156	0.848
9.46338	0.841
9.4952	0.818
9.52702	0.803
9.55884	0.785
9.59066	0.774
9.62248	0.749
9.6543	0.722
9.68611	0.688
9.71793	0.66
9.74975	0.633
9.78157	0.615
9.81339	0.616
9.84521	0.614
9.87703	0.611
9.90885	0.608
9.94067	0.607
9.97249	0.604
10.0043	0.599
10.0361	0.588
10.0679	0.572
10.0998	0.556
10.1316	0.547
10.1634	0.532
10.1952	0.507
10.227	0.494
10.2589	0.466
10.2907	0.452
10.3225	0.443
10.3543	0.437
10.3861	0.443
10.418	0.466
10.4498	0.503
10.4816	0.543
10.5134	0.568
10.5452	0.582
10.577	0.593
10.6089	0.604
10.6407	0.611
10.6725	0.619
10.7043	0.628
10.7361	0.635
10.768	0.648
10.7998	0.656
10.8316	0.662
10.8634	0.669
10.8952	0.677
10.9271	0.684
10.9589	0.69
10.9907	0.694
11.0225	0.699
11.0543	0.703
11.0862	0.704
11.118	0.703
11.1498	0.701
11.1816	0.697
11.2134	0.685
11.2453	0.677
11.2771	0.66
11.3089	0.646
11.3407	0.631
11.3725	0.617
11.4043	0.612
11.4362	0.61
11.468	0.614
11.4998	0.626
11.5316	0.655
11.5634	0.676
11.5953	0.709
11.6271	0.738
11.6589	0.765
11.6907	0.792
11.7225	0.815
11.7544	0.832
11.7862	0.849
11.818	0.864
11.8498	0.874
11.8816	0.886
11.9135	0.896
11.9453	0.903
11.9771	0.91
12.0089	0.916
12.0407	0.922
12.0725	0.927
12.1044	0.932
12.1362	0.935
12.168	0.938
12.1998	0.941
12.2316	0.944
12.2635	0.946
12.2953	0.948
12.3271	0.95
12.3589	0.951
12.3907	0.952
12.4226	0.954
12.4544	0.956
12.4862	0.957
12.518	0.958
12.5498	0.959
12.5817	0.959
12.6135	0.959
12.6453	0.959
12.6771	0.959
12.7089	0.96
12.7407	0.961
12.7726	0.961
12.8044	0.961
12.8362	0.961
12.868	0.961
12.8998	0.961
12.9317	0.961
12.9635	0.961
12.9953	0.961
13.0271	0.961
13.0589	0.961
13.0908	0.961
13.1226	0.961
13.1544	0.961
13.1862	0.961
13.218	0.961
13.2499	0.96
13.2817	0.959
13.3135	0.958
13.3453	0.958
13.3771	0.958
13.4089	0.958
13.4408	0.956
13.4726	0.954
13.5044	0.952
13.5362	0.951
13.568	0.948
13.5999	0.945
13.6317	0.938
13.6635	0.926
13.6953	0.903
13.7271	0.881
13.759	0.807
13.7908	0.709
13.8226	0.706
13.8544	0.766
13.8862	0.843
13.9181	0.88
13.9499	0.89
13.9817	0.896
14.0135	0.9
14.0453	0.902
14.0771	0.904
14.109	0.902
14.1408	0.897
14.1726	0.891
14.2044	0.869
14.2362	0.842
14.2681	0.816
14.2999	0.775
14.3317	0.752
14.3635	0.738
14.3953	0.729
14.4272	0.736
14.459	0.748
14.4908	0.776
14.5226	0.804
14.5544	0.818
14.5863	0.83
14.6181	0.84
14.6499	0.845
14.6817	0.848
14.7135	0.849
14.7454	0.85
14.7772	0.851
14.809	0.852
14.8408	0.853
14.8726	0.851
