Infrared Spectrum: ANILINE, N-BENZYLIDENE
Formula: C13 H11 N
CAS: 538-51-2
State: SOLUTION (10% IN CCl4 FOR 3800-1340, 10% IN CS2 FOR 1340-400 CM^-^1) VS. SOLVENT
Class: COBLENTZ III
Instrument: DOW KBr FOREPRISM-GRATING
Instrument parameters: BLAZED AT 3.5, 12.0, 20.0 MICRONS AND CHANGED AT 5.0, 7.5, 14.9 MICRONS
Sampling: TRANSMISSION
Path length: 0.011 CM, 0.011 CM
Resolution: 2
Origin: DOW CHEMICAL COMPANY
1/CM	TRANSMITTANCE
382.786	1.002
391.393	1.002
400	1.004
408.606	1.004
417.213	1.005
425.82	1.001
434.427	0.975
443.034	0.942
451.64	0.901
460.247	0.924
468.854	1.01
477.461	1.018
486.068	1.018
494.675	1.01
503.281	0.983
511.888	0.931
520.495	0.866
529.102	0.834
537.709	0.561
546.315	0.33
554.922	0.895
563.529	0.994
572.136	1.012
580.743	1.018
589.349	1.03
597.956	1.036
606.563	1.036
615.17	1.034
623.777	1.04
632.384	1.044
640.99	1.037
649.597	0.986
658.204	0.8601
666.811	0.927
675.418	0.93
684.024	0.823
692.631	0.01
701.238	0.114
709.845	0.729
718.452	0.947
727.058	0.958
735.665	0.939
744.272	0.846
752.879	0.448
761.486	0.439
770.092	0.0559
778.699	0.4191
787.306	0.868
795.913	0.95
804.52	0.959
813.127	0.946
821.733	0.904
830.34	0.853
838.947	0.887
847.554	0.93
856.161	0.936
864.767	0.887
873.374	0.501
881.981	0.743
890.588	0.889
899.195	0.861
907.801	0.559
916.408	0.7
925.015	0.821
933.622	0.928
942.229	0.93
950.835	0.92
959.442	0.884
968.049	0.7779
976.656	0.3882
985.263	0.829
993.87	0.94
1002.48	0.834
1011.08	0.94
1019.69	0.865
1028.3	0.541
1036.9	0.994
1045.51	1.006
1054.12	1.001
1062.72	0.952
1071.33	0.7
1079.94	0.7551
1088.54	0.985
1097.15	0.979
1105.76	0.963
1114.36	0.989
1122.97	0.991
1131.58	0.99
1140.19	0.948
1148.79	0.889
1157.4	0.736
1166.01	0.657
1174.61	0.4563
1183.22	0.791
1191.83	0.106
1200.43	0.5721
1209.04	0.888
1217.65	0.919
1226.25	0.913
1234.86	0.901
1243.47	0.913
1252.07	0.951
1260.68	0.95
1269.29	0.926
1277.89	0.872
1286.5	0.83
1295.11	0.848
1303.71	0.818
1312.32	0.6409
1320.93	0.7991
1329.54	0.85
1338.14	0.939
1346.75	0.952
1355.36	0.932
1363.96	0.857
1372.57	0.7861
1381.18	0.93
1389.78	0.939
1398.39	0.959
1407	0.959
1415.6	0.952
1424.21	0.947
1432.82	0.928
1441.42	0.892
1450.03	0.6376
1458.64	0.7202
1467.24	0.922
1475.85	0.889
1484.46	0.4607
1493.06	0.373
1501.67	0.736
1510.28	0.891
1518.88	0.911
1527.49	0.919
1536.1	0.952
1544.71	0.966
1553.31	0.961
1561.92	0.912
1570.53	0.8048
1579.13	0.2705
1587.74	0.436
1596.35	0.11
1604.95	0.6552
1613.56	0.7549
1622.17	0.409
1630.77	0.065
1639.38	0.2931
1647.99	0.5911
1656.59	0.825
1665.2	0.846
1673.81	0.87
1682.41	0.918
1691.02	0.92
1699.63	0.913
1708.23	0.909
1716.84	0.912
1725.45	0.899
1734.06	0.879
1742.66	0.887
1751.27	0.904
1759.88	0.912
1768.48	0.926
1777.09	0.927
1785.7	0.918
1794.3	0.944
1802.91	0.935
1811.52	0.896
1820.12	0.931
1828.73	0.939
1837.34	0.954
1845.94	0.956
1854.55	0.956
1863.16	0.938
1871.76	0.931
1880.37	0.918
1888.98	0.903
1897.58	0.934
1906.19	0.94
1914.8	0.955
1923.41	0.955
1932.01	0.9419
1940.62	0.872
1949.23	0.893
1957.83	0.858
1966.44	0.934
1975.05	0.939
1983.65	0.962
1992.26	0.963
2000.87	0.965
2009.47	0.961
2018.08	0.955
2026.69	0.954
2035.29	0.952
2043.9	0.9503
2052.51	0.947
2061.11	0.946
2069.72	0.946
2078.33	0.9518
2086.93	0.9579
2095.54	0.958
2104.15	0.958
2112.75	0.9592
2121.36	0.961
2129.97	0.961
2138.58	0.959
2147.18	0.959
2155.79	0.959
2164.4	0.959
2173	0.9598
2181.61	0.962
2190.22	0.963
2198.82	0.963
2207.43	0.963
2216.04	0.963
2224.64	0.963
2233.25	0.9617
2241.86	0.958
2250.46	0.959
2259.07	0.962
2267.68	0.965
2276.28	0.966
2284.89	0.966
2293.5	0.965
2302.1	0.965
2310.71	0.9618
2319.32	0.952
2327.93	0.952
2336.53	0.958
2345.14	0.959
2353.75	0.959
2362.35	0.958
2370.96	0.958
2379.57	0.958
2388.17	0.959
2396.78	0.959
2405.39	0.959
2413.99	0.959
2422.6	0.959
2431.21	0.959
2439.81	0.959
2448.42	0.958
2457.03	0.956
2465.63	0.956
2474.24	0.956
2482.85	0.958
2491.45	0.959
2500.06	0.959
2508.67	0.959
2517.28	0.959
2525.88	0.959
2534.49	0.959
2543.1	0.958
2551.7	0.956
2560.31	0.956
2568.92	0.956
2577.52	0.955
2586.13	0.955
2594.74	0.955
2603.34	0.956
2611.95	0.9575
2620.56	0.959
2629.16	0.961
2637.77	0.961
2646.38	0.961
2654.98	0.961
2663.59	0.961
2672.2	0.962
2680.8	0.962
2689.41	0.963
2698.02	0.962
2706.62	0.959
2715.23	0.9547
2723.84	0.952
2732.45	0.954
2741.05	0.955
2749.66	0.955
2758.27	0.955
2766.87	0.955
2775.48	0.9544
2784.09	0.9513
2792.69	0.948
2801.3	0.947
2809.91	0.94
2818.51	0.923
2827.12	0.92
2835.73	0.9111
2844.33	0.862
2852.94	0.7549
2861.55	0.751
2870.15	0.7235
2878.76	0.6717
2887.37	0.6589
2895.97	0.7801
2904.58	0.8691
2913.19	0.8937
2921.8	0.9044
2930.4	0.9084
2939.01	0.909
2947.62	0.9085
2956.22	0.9102
2964.83	0.913
2973.44	0.913
2982.04	0.9089
2990.65	0.8919
2999.26	0.8278
3007.86	0.805
3016.47	0.7985
3025.08	0.7016
3033.68	0.506
3042.29	0.6378
3050.9	0.7309
3059.5	0.6389
3068.11	0.5061
3076.72	0.5093
3085.32	0.5597
3093.93	0.6244
3102.54	0.7805
3111.14	0.8667
3119.75	0.926
3128.36	0.943
3136.97	0.944
3145.57	0.9434
3154.18	0.9394
3162.79	0.938
3171.39	0.9517
3180	0.954
3188.61	0.9524
3197.21	0.951
3205.82	0.951
3214.43	0.954
3223.03	0.954
3231.64	0.952
3240.25	0.9439
3248.85	0.9391
3257.46	0.9472
3266.07	0.9595
3274.67	0.9653
3283.28	0.9676
3291.89	0.9694
3300.49	0.97
3309.1	0.971
3317.71	0.973
3326.32	0.973
3334.92	0.973
3343.53	0.971
3352.14	0.971
3360.74	0.971
3369.35	0.9726
3377.96	0.973
3386.56	0.974
3395.17	0.974
3403.78	0.975
3412.38	0.977
3420.99	0.978
3429.6	0.978
3438.2	0.978
3446.81	0.978
3455.42	0.978
3464.02	0.978
3472.63	0.978
3481.24	0.978
3489.84	0.978
3498.45	0.979
3507.06	0.979
3515.67	0.979
3524.27	0.979
3532.88	0.979
3541.49	0.981
3550.09	0.981
3558.7	0.981
3567.31	0.981
3575.91	0.981
3584.52	0.979
3593.13	0.979
3601.73	0.979
3610.34	0.979
3618.95	0.979
3627.55	0.978
3636.16	0.978
3644.77	0.978
3653.37	0.978
3661.98	0.9797
3670.59	0.981
3679.19	0.9802
3687.8	0.979
3696.41	0.979
3705.01	0.9801
3713.62	0.981
3722.23	0.9827
3730.84	0.983
3739.44	0.983
3748.05	0.985
3756.66	0.985
3765.26	0.985
3773.87	0.985
3782.48	0.985
3791.08	0.985
3799.69	0.985
3808.3	0.985
