Infrared Spectrum: DISTYRYL KETONE
Formula: C17 H14 O
CAS: 538-58-9
State: SOLID (1.0% IN KBr PELLET)
Class: COBLENTZ
Instrument: Not specified, most likely a prism, grating, or hybrid spectrometer.
Sampling: TRANSMISSION
Path length: 0.0355 CM THICK
Resolution: 4
Origin: ANDERSON PHYSICAL LABORATORY
1/CM	TRANSMITTANCE
667.082	0.523
675.483	0.508
683.884	0.3093
692.284	0.071
700.685	0.4038
709.086	0.8019
717.487	0.866
725.887	0.797
734.288	0.802
742.689	0.648
751.09	0.288
759.49	0.1229
767.891	0.5036
776.292	0.8559
784.693	0.946
793.094	0.949
801.494	0.962
809.895	0.976
818.296	0.988
826.697	0.982
835.097	0.94
843.498	0.88
851.899	0.802
860.3	0.8739
868.701	0.932
877.101	0.836
885.502	0.513
893.903	0.932
902.304	0.938
910.704	0.895
919.105	0.826
927.506	0.7689
935.907	0.902
944.307	0.884
952.708	0.841
961.109	0.7471
969.51	0.571
977.911	0.22
986.311	0.197
994.712	0.4161
1003.11	0.7521
1011.51	0.884
1019.91	0.872
1028.32	0.8001
1036.72	0.88
1045.12	0.875
1053.52	0.853
1061.92	0.82
1070.32	0.702
1078.72	0.733
1087.12	0.781
1095.52	0.7111
1103.92	0.594
1112.32	0.7879
1120.72	0.833
1129.12	0.826
1137.53	0.806
1145.93	0.764
1154.33	0.673
1162.73	0.648
1171.13	0.622
1179.53	0.4771
1187.93	0.312
1196.33	0.197
1204.73	0.4939
1213.13	0.727
1221.53	0.76
1229.93	0.904
1238.33	0.889
1246.74	0.848
1255.14	0.793
1263.54	0.748
1271.94	0.797
1280.34	0.705
1288.74	0.645
1297.14	0.672
1305.54	0.594
1313.94	0.621
1322.34	0.54
1330.74	0.4369
1339.14	0.2989
1347.54	0.247
1355.95	0.748
1364.35	0.898
1372.75	0.884
1381.15	0.869
1389.55	0.851
1397.95	0.824
1406.35	0.817
1414.75	0.815
1423.15	0.799
1431.55	0.781
1439.95	0.699
1448.35	0.471
1456.75	0.568
1465.16	0.808
1473.56	0.778
1481.96	0.745
1490.36	0.6519
1498.76	0.4891
1507.16	0.758
1515.56	0.738
1523.96	0.703
1532.36	0.676
1540.76	0.607
1549.16	0.576
1557.56	0.467
1565.96	0.357
1574.37	0.218
1582.77	0.2149
1591.17	0.115
1599.57	0.173
1607.97	0.4199
1616.37	0.486
1624.77	0.327
1633.17	0.5
1641.57	0.3299
1649.97	0.196
1658.37	0.4801
1666.77	0.7659
1675.17	0.7782
1683.58	0.916
1691.98	0.926
1700.38	0.947
1708.78	0.947
1717.18	0.959
1725.58	0.962
1733.98	0.959
1742.38	0.952
1750.78	0.937
1759.18	0.917
1767.58	0.917
1775.98	0.925
1784.38	0.925
1792.79	0.911
1801.19	0.886
1809.59	0.869
1817.99	0.871
1826.39	0.865
1834.79	0.871
1843.19	0.881
1851.59	0.875
1859.99	0.86
1868.39	0.851
1876.79	0.835
1885.19	0.79
1893.59	0.772
1902	0.748
1910.4	0.729
1918.8	0.703
1927.2	0.693
1935.6	0.682
1944	0.634
1952.4	0.622
1960.8	0.616
1969.2	0.625
1977.6	0.63
1986	0.636
1994.4	0.643
2002.8	0.6405
2011.21	0.637
2019.61	0.631
2028.01	0.629
2036.41	0.6255
2044.81	0.625
2053.21	0.6235
2061.61	0.6185
2070.01	0.618
2078.41	0.616
2086.81	0.6127
2095.21	0.608
2103.61	0.606
2112.01	0.603
2120.42	0.603
2128.82	0.602
2137.22	0.6002
2145.62	0.595
2154.02	0.5887
2162.42	0.588
2170.82	0.5865
2179.22	0.582
2187.62	0.582
2196.02	0.5809
2204.42	0.5792
2212.82	0.577
2221.22	0.5737
2229.63	0.5705
2238.03	0.568
2246.43	0.567
2254.83	0.567
2263.23	0.5645
2271.63	0.5612
2280.03	0.556
2288.43	0.5527
2296.83	0.5454
2305.23	0.5384
2313.63	0.537
2322.03	0.537
2330.43	0.537
2338.84	0.535
2347.24	0.5371
2355.64	0.538
2364.04	0.54
2372.44	0.5384
2380.84	0.538
2389.24	0.5364
2397.64	0.5344
2406.04	0.5324
2414.44	0.5278
2422.84	0.5227
2431.24	0.522
2439.64	0.5204
2448.05	0.5158
2456.45	0.5137
2464.85	0.5119
2473.25	0.511
2481.65	0.5109
2490.05	0.5093
2498.45	0.508
2506.85	0.5072
2515.25	0.5039
2523.65	0.4996
2532.05	0.4928
2540.45	0.4893
2548.86	0.488
2557.26	0.488
2565.66	0.488
2574.06	0.488
2582.46	0.488
2590.86	0.4873
2599.26	0.4854
2607.66	0.4805
2616.06	0.479
2624.46	0.479
2632.86	0.4778
2641.26	0.473
2649.66	0.47
2658.07	0.4704
2666.47	0.471
2674.87	0.471
2683.27	0.4679
2691.67	0.465
2700.07	0.4644
2708.47	0.4611
2716.87	0.4608
2725.27	0.4586
2733.67	0.4542
2742.07	0.4473
2750.47	0.446
2758.87	0.4453
2767.28	0.4404
2775.68	0.4353
2784.08	0.435
2792.48	0.435
2800.88	0.434
2809.28	0.4323
2817.68	0.4308
2826.08	0.426
2834.48	0.425
2842.88	0.4204
2851.28	0.4187
2859.68	0.414
2868.08	0.413
2876.49	0.4101
2884.89	0.408
2893.29	0.408
2901.69	0.408
2910.09	0.408
2918.49	0.407
2926.89	0.407
2935.29	0.4043
2943.69	0.3983
2952.09	0.3936
2960.49	0.3738
2968.89	0.3664
2977.29	0.3564
2985.7	0.3495
2994.1	0.3462
3002.5	0.3463
3010.9	0.3479
3019.3	0.3513
3027.7	0.3572
3036.1	0.3719
3044.5	0.3836
3052.9	0.3933
3061.3	0.3968
3069.7	0.3987
3078.1	0.4008
3086.5	0.401
3094.91	0.3977
3103.31	0.3953
3111.71	0.395
3120.11	0.395
3128.51	0.395
3136.91	0.3923
3145.31	0.39
3153.71	0.3796
3162.11	0.3761
3170.51	0.375
3178.91	0.375
3187.31	0.374
3195.71	0.374
3204.12	0.374
3212.52	0.374
3220.92	0.372
3229.32	0.372
3237.72	0.371
3246.12	0.3661
3254.52	0.363
3262.92	0.36
3271.32	0.359
3279.72	0.3561
3288.12	0.3526
3296.52	0.3505
3304.92	0.3449
3313.33	0.341
3321.73	0.3388
3330.13	0.3341
3338.53	0.332
3346.93	0.327
3355.33	0.3233
3363.73	0.3191
3372.13	0.317
3380.53	0.315
3388.93	0.315
3397.33	0.315
3405.73	0.315
3414.13	0.315
3422.54	0.3155
3430.94	0.317
3439.34	0.318
3447.74	0.321
3456.14	0.323
3464.54	0.325
3472.94	0.327
3481.34	0.329
3489.74	0.329
3498.14	0.329
3506.54	0.329
3514.94	0.33
3523.34	0.3322
3531.75	0.333
3540.15	0.333
3548.55	0.333
3556.95	0.333
3565.35	0.335
3573.75	0.3358
3582.15	0.336
3590.55	0.3383
3598.95	0.339
3607.35	0.339
3615.75	0.339
3624.15	0.3395
3632.55	0.34
3640.96	0.3382
3649.36	0.336
3657.76	0.335
3666.16	0.335
3674.56	0.333
3682.96	0.332
3691.36	0.332
3699.76	0.33
3708.16	0.3292
3716.56	0.327
3724.96	0.327
3733.36	0.327
3741.76	0.327
3750.17	0.327
3758.57	0.327
3766.97	0.327
3775.37	0.327
3783.77	0.324
3792.17	0.3224
3800.57	0.3205
3808.97	0.318
3817.37	0.3169
3825.77	0.315
3834.17	0.315
3842.57	0.315
3850.97	0.315
3859.38	0.315
3867.78	0.315
3876.18	0.3166
3884.58	0.317
3892.98	0.317
3901.38	0.317
3909.78	0.317
3918.18	0.317
3926.58	0.317
3934.98	0.317
3943.38	0.315
3951.78	0.3139
3960.18	0.311
3968.59	0.309
3976.99	0.309
