Infrared Spectrum: Pyridine, 2-styryl-, (trans)
Formula: C13 H11 N
CAS: 538-49-8
State: SOLUTION (10% CCl4 FOR 3800-1335, 10% CS2 FOR 1335-450 CM^-^1)
Melting point: 90 C
Class: COBLENTZ III
Instrument: DOW KBr FOREPRISM-GRATING
Instrument parameters: BLAZED AT 3.5, 12.0, 20.0 MICRON AND CHANGED AT 5.0, 7.5, 14.9 MICRON
Sampling: TRANSMISSION
Path length: 0.011 CM, 0.011 CM
Resolution: 2
Origin: DOW CHEMICAL COMPANY
1/CM	TRANSMITTANCE
3798	0.9096
3789	0.9116
3780	0.9121
3771	0.9125
3762	0.9131
3753	0.9137
3744	0.9145
3735	0.9158
3726	0.9142
3717	0.9116
3708	0.9101
3699	0.9076
3690	0.904
3681	0.9012
3672	0.9
3663	0.9
3654	0.9
3645	0.9004
3636	0.9009
3627	0.9035
3618	0.9052
3609	0.9054
3600	0.8993
3591	0.9064
3582	0.9085
3573	0.8995
3564	0.9043
3555	0.9105
3546	0.9102
3537	0.9086
3528	0.9062
3519	0.9049
3510	0.9036
3501	0.9027
3492	0.9021
3483	0.9016
3474	0.9009
3465	0.9003
3456	0.8999
3447	0.8995
3438	0.8992
3429	0.8989
3420	0.8985
3411	0.8984
3402	0.8984
3393	0.8982
3384	0.8982
3375	0.898
3366	0.8982
3357	0.8983
3348	0.8984
3339	0.8994
3330	0.9008
3321	0.9022
3312	0.905
3303	0.9049
3294	0.906
3285	0.9066
3276	0.9079
3267	0.9096
3258	0.9104
3249	0.9105
3240	0.9105
3231	0.9108
3222	0.9114
3213	0.9119
3204	0.9103
3195	0.9109
3186	0.9082
3177	0.9047
3168	0.8995
3159	0.893
3150	0.8908
3141	0.8895
3132	0.8766
3123	0.8712
3114	0.8718
3105	0.8042
3096	0.799
3087	0.5977
3078	0.5094
3069	0.4963
3060	0.4798
3051	0.5592
3042	0.5516
3033	0.5049
3024	0.5433
3015	0.6361
3006	0.545
2997	0.7178
2988	0.8225
2979	0.8522
2970	0.8634
2961	0.8721
2952	0.8683
2943	0.8721
2934	0.87
2925	0.8667
2916	0.8754
2907	0.8864
2898	0.8907
2889	0.8964
2880	0.9002
2871	0.9038
2862	0.9073
2853	0.9089
2844	0.9134
2835	0.9156
2826	0.9205
2817	0.9185
2808	0.9178
2799	0.9174
2790	0.9178
2781	0.9184
2772	0.9205
2763	0.9219
2754	0.9233
2745	0.9235
2736	0.9238
2727	0.9241
2718	0.9246
2709	0.925
2700	0.9259
2691	0.9268
2682	0.9276
2673	0.9277
2664	0.9275
2655	0.9288
2646	0.9282
2637	0.9259
2628	0.9265
2619	0.9254
2610	0.9243
2601	0.9228
2592	0.9238
2583	0.9259
2574	0.9264
2565	0.9269
2556	0.9281
2547	0.9279
2538	0.9274
2529	0.9264
2520	0.9261
2511	0.9281
2502	0.9295
2493	0.9289
2484	0.928
2475	0.9285
2466	0.9288
2457	0.9289
2448	0.9312
2439	0.9328
2430	0.9337
2421	0.9315
2412	0.9273
2403	0.929
2394	0.9301
2385	0.9328
2376	0.9394
2367	0.9397
2358	0.9432
2349	0.9445
2340	0.9451
2331	0.942
2322	0.9397
2313	0.9316
2304	0.9238
2295	0.9264
2286	0.9286
2277	0.9302
2268	0.9303
2259	0.9311
2250	0.93
2241	0.9306
2232	0.9309
2223	0.9324
2214	0.9318
2205	0.9306
2196	0.9275
2187	0.9229
2178	0.9268
2169	0.9286
2160	0.9277
2151	0.9268
2142	0.9263
2133	0.9264
2124	0.9259
2115	0.9254
2106	0.9246
2097	0.9224
2088	0.9236
2079	0.9232
2070	0.9231
2061	0.9227
2052	0.9231
2043	0.9213
2034	0.9204
2025	0.9201
2016	0.9194
2007	0.9185
1998	0.908
1989	0.9069
1980	0.8986
1971	0.8685
1962	0.8571
1953	0.8698
1944	0.7992
1935	0.8557
1926	0.8853
1917	0.8763
1908	0.8931
1899	0.8997
1890	0.884
1881	0.8728
1872	0.8455
1863	0.8774
1854	0.8842
1845	0.8592
1836	0.8674
1827	0.8668
1818	0.8401
1809	0.8742
1800	0.869
1791	0.8822
1782	0.8998
1773	0.8776
1764	0.8822
1755	0.8743
1746	0.8636
1737	0.8737
1728	0.8895
1719	0.8897
1710	0.8827
1701	0.8816
1692	0.8851
1683	0.8912
1674	0.8921
1665	0.8637
1656	0.8377
1647	0.7723
1638	0.411
1629	0.744
1620	0.797
1611	0.7968
1602	0.612
1593	0.573
1584	0.0012
1575	0.5239
1566	0.3565
1557	0.6889
1548	0.8035
1539	0.865
1530	0.8592
1521	0.8394
1512	0.8419
1503	0.7927
1494	0.3203
1485	0.757
1476	0.4449
1467	0.2077
1458	0.7324
1449	0.4032
1440	0.7614
1431	0.3199
1422	0.7696
1413	0.8781
1404	0.9077
1395	0.9032
1386	0.9001
1377	0.8994
1368	0.8934
1359	0.888
1350	0.9004
1341	0.8815
1332	0.6721
1323	0.6447
1314	0.7759
1305	0.6898
1296	0.7329
1287	0.7456
1278	0.7866
1269	0.7785
1260	0.8177
1251	0.8199
1242	0.8049
1233	0.7931
1224	0.8248
1215	0.8193
1206	0.7327
1197	0.463
1188	0.754
1179	0.7146
1170	0.7484
1161	0.752
1152	0.6706
1143	0.4519
1134	0.7347
1125	0.7476
1116	0.7781
1107	0.7816
1098	0.7492
1089	0.6315
1080	0.7502
1071	0.5729
1062	0.7176
1053	0.7473
1044	0.5923
1035	0.7701
1026	0.6704
1017	0.7654
1008	0.7708
999	0.732
990	0.5832
981	0.4198
972	0.3348
963	0.0809
954	0.5298
945	0.756
936	0.8007
927	0.814
918	0.8182
909	0.7906
900	0.814
891	0.8112
882	0.6341
873	0.7659
864	0.8027
855	0.6393
846	0.7982
837	0.7883
828	0.7577
819	0.815
810	0.8245
801	0.8049
792	0.7833
783	0.6031
774	0.0259
765	0.4394
756	0.7048
747	0.6483
738	0.3563
729	0.1546
720	0.7276
711	0.7887
702	0.6728
693	0.2646
684	0.2257
675	0.7653
666	0.7538
657	0.7712
648	0.7947
639	0.8041
630	0.8004
621	0.6937
612	0.7931
603	0.8041
594	0.805
585	0.8013
576	0.7935
567	0.7817
558	0.5734
549	0.4994
540	0.6111
531	0.1315
522	0.6975
513	0.7455
504	0.7451
495	0.7181
486	0.694
477	0.6867
468	0.6862
459	0.6862
