Infrared Spectrum: 1,2-Di(p-tolyl)ethane
Formula: C 16 H 18
CAS: 538-39-6
State: gas
Origin: EPA-IR VAPOR PHASE LIBRARY
1/CM	ABSORBANCE
549.8	0.003172
559.445	0.006882
569.09	0.004252
578.734	0.001382
588.379	0.0006667
598.024	0.0002659
607.669	0.0003116
617.313	0.0004941
626.958	0.0002471
636.603	0.0003377
646.248	0.0005229
655.893	0.0004124
665.537	0.0004279
675.182	0.0003423
684.827	0.0003092
694.472	0.000605
704.116	0.001242
713.761	0.002262
723.406	0.002422
733.051	0.001692
742.695	0.001482
752.34	0.001812
761.985	0.002652
771.63	0.003962
781.275	0.006102
790.919	0.013892
800.564	0.025012
810.209	0.021272
819.854	0.013122
829.498	0.006082
839.143	0.002892
848.788	0.001762
858.433	0.001342
868.078	0.0008094
877.722	0.0009237
887.367	0.0009385
897.012	0.001182
906.657	0.001342
916.301	0.001452
925.946	0.001152
935.591	0.001712
945.236	0.002282
954.88	0.001312
964.525	0.0010488
974.17	0.0010566
983.815	0.0008594
993.46	0.0008516
1003.1	0.001272
1012.75	0.002582
1022.39	0.005932
1032.04	0.002162
1041.68	0.001782
1051.33	0.002262
1060.97	0.001642
1070.62	0.001542
1080.26	0.002002
1089.91	0.002152
1099.55	0.003662
1109.2	0.003712
1118.84	0.003342
1128.49	0.002352
1138.13	0.001752
1147.78	0.001602
1157.42	0.001202
1167.07	0.0009059
1176.71	0.001582
1186.36	0.002202
1196	0.001782
1205.64	0.002592
1215.29	0.003002
1224.93	0.002182
1234.58	0.002332
1244.22	0.001582
1253.87	0.0010166
1263.51	0.0007488
1273.16	0.0009441
1282.8	0.001152
1292.45	0.0010592
1302.09	0.001362
1311.74	0.001592
1321.38	0.001832
1331.03	0.002902
1340.67	0.004152
1350.32	0.002832
1359.96	0.002002
1369.61	0.001942
1379.25	0.002312
1388.9	0.002422
1398.54	0.002502
1408.18	0.003342
1417.83	0.004462
1427.47	0.004662
1437.12	0.005082
1446.76	0.007082
1456.41	0.006192
1466.05	0.004722
1475.7	0.004262
1485.34	0.004822
1494.99	0.007572
1504.63	0.016902
1514.28	0.035442
1523.92	0.015732
1533.57	0.004512
1543.21	0.002972
1552.86	0.002152
1562.5	0.001762
1572.15	0.001692
1581.79	0.001732
1591.44	0.001652
1601.08	0.001612
1610.73	0.001962
1620.37	0.002232
1630.01	0.002252
1639.66	0.001962
1649.3	0.001342
1658.95	0.0008785
1668.59	0.0007091
1678.24	0.0005808
1687.88	0.0005103
1697.53	0.0005976
1707.17	0.000509
1716.82	0.0005579
1726.46	0.0005245
1736.11	0.0008173
1745.75	0.0008491
1755.4	0.0008867
1765.04	0.0010909
1774.69	0.001692
1784.33	0.002342
1793.98	0.0010469
1803.62	0.0005254
1813.27	0.0005693
1822.91	0.0005331
1832.55	0.0006179
1842.2	0.0007334
1851.84	0.0008402
1861.49	0.0011069
1871.13	0.001652
1880.78	0.002332
1890.42	0.002672
1900.07	0.001912
1909.71	0.0011309
1919.36	0.0008154
1929	0.000609
1938.65	0.0005062
1948.29	0.0004316
1957.94	0.0004258
1967.58	0.0004663
1977.23	0.0004612
1986.87	0.0004387
1996.52	0.0004553
2006.16	0.0003791
2015.81	0.0004838
2025.45	0.000441
2035.1	0.0003978
2044.74	0.0004382
2054.38	0.0003389
2064.03	0.0003526
2073.67	0.0004023
2083.32	0.0004099
2092.96	0.0004147
2102.61	0.0004734
2112.25	0.0003493
2121.9	0.0003912
2131.54	0.0003332
2141.19	0.0004602
2150.83	0.0004534
2160.48	0.0003628
2170.12	0.0003423
2179.77	0.0004971
2189.41	0.0003066
2199.06	0.0004167
2208.7	0.0004046
2218.35	0.0003024
2227.99	0.0003579
2237.64	0.000375
2247.28	0.0003386
2256.92	0.0003739
2266.57	0.0003482
2276.21	0.0003846
2285.86	0.0004967
2295.5	0.0005503
2305.15	0.000606
2314.79	0.000575
2324.44	0.0006121
2334.08	0.0004983
2343.73	0.0005308
2353.37	0.0004947
2363.02	0.0005959
2372.66	0.0004874
2382.31	0.0004925
2391.95	0.0004688
2401.6	0.0004166
2411.24	0.0004895
2420.89	0.000407
2430.53	0.0004447
2440.18	0.0004688
2449.82	0.0004309
2459.47	0.0003658
2469.11	0.0004781
2478.75	0.000364
2488.4	0.0004267
2498.04	0.0004427
2507.69	0.0004542
2517.33	0.0004947
2526.98	0.0004569
2536.62	0.0004085
2546.27	0.0004093
2555.91	0.0004413
2565.56	0.000471
2575.2	0.0007279
2584.85	0.0007815
2594.49	0.0008728
2604.14	0.0007141
2613.78	0.0006329
2623.43	0.0006572
2633.07	0.0005686
2642.72	0.0005175
2652.36	0.0006255
2662.01	0.0007067
2671.65	0.0007571
2681.29	0.0006269
2690.94	0.0006825
2700.58	0.0006499
2710.23	0.0007108
2719.87	0.0007865
2729.52	0.001066
2739.16	0.001722
2748.81	0.001432
2758.45	0.0010184
2768.1	0.000843
2777.74	0.000982
2787.39	0.0011235
2797.03	0.001162
2806.68	0.001572
2816.32	0.001852
2825.97	0.002572
2835.61	0.003572
2845.26	0.005542
2854.9	0.010262
2864.55	0.016892
2874.19	0.018512
2883.84	0.016012
2893.48	0.013612
2903.12	0.014192
2912.77	0.019842
2922.41	0.033412
2932.06	0.045832
2941.7	0.037382
2951.35	0.021542
2960.99	0.012422
2970.64	0.010072
2980.28	0.011452
2989.93	0.014132
2999.57	0.018082
3009.22	0.022982
3018.86	0.033742
3028.51	0.033162
3038.15	0.019802
3047.8	0.020162
3057.44	0.017502
3067.09	0.011582
3076.73	0.008272
3086.38	0.007192
3096.02	0.005752
3105.67	0.003842
3115.31	0.002792
3124.95	0.002282
3134.6	0.002182
3144.24	0.001342
3153.89	0.0008436
3163.53	0.0005201
3173.18	0.0004195
3182.82	0.00022669
3192.47	0.000468
3202.11	0.0003531
3211.76	0.0004933
3221.4	0.0003638
3231.05	0.0004729
3240.69	0.0004013
3250.34	0.0004632
3259.98	0.0003991
3269.63	0.0004765
3279.27	0.0003915
3288.92	0.0002779
3298.56	0.0003589
3308.21	0.0004245
3317.85	0.0003676
3327.49	0.0003584
3337.14	0.0003526
3346.78	0.0002685
3356.43	0.0003343
3366.07	0.0002869
3375.72	0.00021911
3385.36	0.000368
3395.01	0.0002973
3404.65	0.0003542
3414.3	0.0002825
3423.94	0.0004751
3433.59	0.0004333
3443.23	0.000467
3452.88	0.000141972
3462.52	0.000249
3472.17	8.95e-05
3481.81	0.0002813
3491.46	0.0003176
3501.1	0.000173
3510.75	0.00019696
3520.39	0.0002798
3530.04	0.000175
3539.68	0.0003514
3549.32	0.0003519
3558.97	0.0002381
3568.61	0.0002747
3578.26	0.00018668
3587.9	0.00022605
3597.55	0.0002778
3607.19	0.0003003
3616.84	0.00020376
3626.48	0.0003753
3636.13	0.0003975
3645.77	0.0002825
3655.42	0.0004067
3665.06	0.0003764
3674.71	0.0005057
3684.35	0.0005747
3694	0.0004185
3703.64	0.0003646
3713.29	0.0004112
3722.93	0.0005128
3732.58	0.0005623
3742.22	0.0005488
3751.86	0.0004106
3761.51	0.0003938
3771.15	0.0003117
3780.8	0.0003826
3790.44	0.0005382
3800.09	0.0004201
3809.73	0.0003864
3819.38	0.0004987
3829.02	0.0005321
3838.67	0.00045
3848.31	0.0005426
3857.96	0.0003637
3867.6	0.000371
3877.25	0.0004277
3886.89	0.0005226
3896.54	0.0004523
3906.18	0.0006259
3915.83	0.0006708
3925.47	0.0003776
3935.12	0.0004848
3944.76	0.0005003
3954.41	0.0004125
3964.05	0.0003144
3973.69	0.0003246
3983.34	0.0003372
3992.98	0.0004026
