Infrared Spectrum: Benzyl sulfide
Formula: C 14 H 14 S
CAS: 538-74-9
State: gas
Instrument: HP-GC/MS/IRD
Origin: NIST Mass Spectrometry Data Center
1/CM	ABSORBANCE
550	0.0006356
562	0.0010038
574	0.0005474
586	0.000189
598	0.0001078
610	4.2e-05
622	1.82e-05
634	0.000259
646	0.0003556
658	0.000987
670	0.0021672
682	0.0044478
694	0.0111958
706	0.0138488
718	0.0091042
730	0.0039802
742	0.0021448
754	0.0022372
766	0.0023758
778	0.0012432
790	0.0006608
802	0.000532
814	0.000504
826	0.0004354
838	0.0002982
850	0.0001302
862	0.0001694
874	0.0002576
886	0.0003318
898	0.0003822
910	0.0007406
922	0.0005894
934	0.0003556
946	6.58e-05
958	2.8e-05
970	3.36e-05
982	5.18e-05
994	4.2e-05
1006	0.0001918
1018	0.0006286
1030	0.001645
1042	0.0004046
1054	0.0005852
1066	0.0014742
1078	0.0009548
1090	0.0003948
1102	0.0003416
1114	0.00021
1126	0.000224
1138	0.0003038
1150	0.0003976
1162	0.0005404
1174	0.0006818
1186	0.0012782
1198	0.0012334
1210	0.000917
1222	0.001995
1234	0.0033054
1246	0.0018396
1258	0.0007966
1270	0.0005348
1282	0.0004648
1294	0.0003668
1306	0.0004396
1318	0.0005082
1330	0.0003976
1342	0.0002562
1354	0.0002058
1366	0.000224
1378	0.0002968
1390	0.0002716
1402	0.0004228
1414	0.000931
1426	0.0014406
1438	0.0016016
1450	0.0025242
1462	0.0015806
1474	0.0008204
1486	0.002597
1498	0.0044198
1510	0.0007084
1522	0.0002324
1534	0.0002926
1546	0.0002366
1558	0.000231
1570	0.0004522
1582	0.0009212
1594	0.0019166
1606	0.00196
1618	0.0006286
1630	0.0002674
1642	0.000217
1654	0.0001134
1666	0.0002044
1678	0.0001946
1690	0.0001512
1702	8.54e-05
1714	0.0001288
1726	0.000196
1738	0.0002296
1750	0.0002296
1762	0.0002338
1774	0.000308
1786	0.0004998
1798	0.0006244
1810	0.0003682
1822	0.00021
1834	0.0001918
1846	0.0002044
1858	0.0003206
1870	0.0003766
1882	0.0004396
1894	0.0003528
1906	0.0002562
1918	0.0002744
1930	0.0004928
1942	0.0006566
1954	0.0006342
1966	0.0002548
1978	0.0001232
1990	0.0001274
2002	0.0001372
2014	9.24e-05
2026	8.68e-05
2038	8.54e-05
2050	6.02e-05
2062	7.28e-05
2074	3.08e-05
2086	5.6e-05
2098	4.9e-05
2110	4.9e-05
2122	5.04e-05
2134	7e-05
2146	3.36e-05
2158	2.8e-05
2170	6.58e-05
2182	3.64e-05
2194	2.66e-05
2206	5.46e-05
2218	5.18e-05
2230	6.3e-05
2242	4.9e-05
2254	7.14e-05
2266	5.6e-05
2278	4.9e-05
2290	5.88e-05
2302	0.0001022
2314	0.0001414
2326	0.0001022
2338	0.0001176
2350	9.1e-05
2362	6.58e-05
2374	5.74e-05
2386	5.74e-05
2398	3.92e-05
2410	7e-05
2422	3.78e-05
2434	4.9e-05
2446	3.08e-05
2458	2.8e-05
2470	3.08e-05
2482	1.4e-05
2494	2.38e-05
2506	2.66e-05
2518	3.36e-05
2530	2.52e-05
2542	4.2e-06
2554	8.4e-06
2566	2.52e-05
2578	4.2e-05
2590	0.0001064
2602	9.24e-05
2614	6.44e-05
2626	0.0001078
2638	5.46e-05
2650	8.96e-05
2662	7.14e-05
2674	9.66e-05
2686	4.48e-05
2698	4.2e-05
2710	2.24e-05
2722	5.6e-05
2734	3.22e-05
2746	1.68e-05
2758	2.38e-05
2770	7.14e-05
2782	0.0001596
2794	0.0001316
2806	0.000182
2818	0.0003514
2830	0.0004228
2842	0.000441
2854	0.0004718
2866	0.000469
2878	0.0004494
2890	0.0006594
2902	0.001281
2914	0.0029246
2926	0.0034188
2938	0.0021378
2950	0.0017976
2962	0.0010556
2974	0.0006174
2986	0.0005838
2998	0.0007714
3010	0.0017304
3022	0.003871
3034	0.0068796
3046	0.0044912
3058	0.0047306
3070	0.0083594
3082	0.0055958
3094	0.0035434
3106	0.0019544
3118	0.000861
3130	0.0003066
3142	0.0002758
3154	0.000224
3166	0.000217
3178	9.1e-05
3190	0.0001064
3202	7.14e-05
3214	4.62e-05
3226	6.02e-05
3238	3.64e-05
3250	4.62e-05
3262	4.76e-05
3274	5.46e-05
3286	6.58e-05
3298	0.0001176
3310	9.66e-05
3322	3.64e-05
3334	5.18e-05
3346	7e-05
3358	4.2e-05
3370	8.96e-05
3382	7.56e-05
3394	7.84e-05
3406	6.3e-05
3418	5.74e-05
3430	7.14e-05
3442	7.56e-05
3454	7.7e-05
3466	4.2e-05
3478	7.84e-05
3490	9.1e-05
3502	0.0001008
3514	0.000105
3526	7.98e-05
3538	0.0001484
3550	6.72e-05
3562	8.4e-05
3574	8.82e-05
3586	9.24e-05
3598	0.0001204
3610	8.82e-05
3622	0.0001302
3634	0.0001526
3646	0.0001582
3658	0.0001218
3670	8.68e-05
3682	0.0001386
3694	0.0001358
3706	0.0001582
3718	8.82e-05
3730	2.66e-05
3742	1.26e-05
3754	2.8e-06
3766	6.02e-05
3778	0.000182
3790	0.0001288
3802	8.68e-05
3814	0.0001512
3826	9.94e-05
3838	0.0001246
