Infrared Spectrum: DODECANOIC ACID, TRI-ESTER WITH GLYCEROL
Formula: C39 H74 O6
CAS: 538-24-9
State: SOLID (MELT BETWEEN PLATES)
Class: COBLENTZ
Instrument: PERKIN-ELMER 21 (GRATING)
Instrument parameters: NaCl PRISM
Sampling: TRANSMISSION
Resolution: 4
Origin: E. REGION RESEARCH LAB.
1/CM	TRANSMITTANCE
646.71	0.708
655.825	0.751
664.941	0.767
674.056	0.774
683.172	0.766
692.287	0.781
701.403	0.781
710.518	0.738
719.634	0.654
728.749	0.731
737.864	0.784
746.98	0.793
756.095	0.825
765.211	0.832
774.326	0.787
783.442	0.829
792.557	0.829
801.672	0.842
810.788	0.839
819.903	0.829
829.019	0.839
838.134	0.832
847.25	0.822
856.365	0.815
865.481	0.804
874.596	0.798
883.711	0.758
892.827	0.663
901.942	0.794
911.058	0.762
920.173	0.808
929.289	0.821
938.404	0.831
947.519	0.821
956.635	0.798
965.75	0.811
974.866	0.798
983.981	0.772
993.097	0.752
1002.21	0.769
1011.33	0.713
1020.44	0.746
1029.56	0.744
1038.67	0.751
1047.79	0.745
1056.9	0.724
1066.02	0.729
1075.14	0.718
1084.25	0.677
1093.37	0.668
1102.48	0.69
1111.6	0.535
1120.71	0.5989
1129.83	0.699
1138.94	0.701
1148.06	0.658
1157.17	0.582
1166.29	0.528
1175.41	0.437
1184.52	0.388
1193.64	0.565
1202.75	0.644
1211.87	0.533
1220.98	0.649
1230.1	0.697
1239.21	0.547
1248.33	0.558
1257.44	0.651
1266.56	0.483
1275.68	0.573
1284.79	0.658
1293.91	0.593
1303.02	0.648
1312.14	0.694
1321.25	0.707
1330.37	0.683
1339.48	0.686
1348.6	0.714
1357.71	0.691
1366.83	0.669
1375.95	0.63
1385.06	0.628
1394.18	0.579
1403.29	0.632
1412.41	0.599
1421.52	0.573
1430.64	0.718
1439.75	0.727
1448.87	0.682
1457.98	0.642
1467.1	0.582
1476.21	0.396
1485.33	0.6489
1494.45	0.777
1503.56	0.804
1512.68	0.815
1521.79	0.827
1530.91	0.827
1540.02	0.825
1549.14	0.824
1558.25	0.822
1567.37	0.818
1576.48	0.815
1585.6	0.814
1594.72	0.812
1603.83	0.812
1612.95	0.811
1622.06	0.807
1631.18	0.803
1640.29	0.803
1649.41	0.805
1658.52	0.796
1667.64	0.789
1676.75	0.777
1685.87	0.731
1694.99	0.689
1704.1	0.627
1713.22	0.566
1722.33	0.348
1731.45	0.327
1740.56	0.281
1749.68	0.51
1758.79	0.652
1767.91	0.738
1777.02	0.766
1786.14	0.78
1795.26	0.791
1804.37	0.798
1813.49	0.804
1822.6	0.811
1831.72	0.815
1840.83	0.821
1849.95	0.819
1859.06	0.822
1868.18	0.825
1877.29	0.825
1886.41	0.825
1895.52	0.825
1904.64	0.825
1913.76	0.825
1922.87	0.828
1931.99	0.828
1941.1	0.825
1950.22	0.829
1959.33	0.829
1968.45	0.829
1977.56	0.828
1986.68	0.831
1995.79	0.829
2004.91	0.8255
2014.03	0.824
2023.14	0.824
2032.26	0.8244
2041.37	0.825
2050.49	0.827
2059.6	0.8271
2068.72	0.828
2077.83	0.8286
2086.95	0.829
2096.06	0.831
2105.18	0.831
2114.3	0.831
2123.41	0.831
2132.53	0.831
2141.64	0.831
2150.76	0.8314
2159.87	0.832
2168.99	0.832
2178.1	0.834
2187.22	0.834
2196.33	0.834
2205.45	0.834
2214.57	0.834
2223.68	0.8335
2232.8	0.832
2241.91	0.832
2251.03	0.8338
2260.14	0.832
2269.26	0.832
2278.37	0.831
2287.49	0.831
2296.6	0.831
2305.72	0.832
2314.84	0.8331
2323.95	0.8358
2333.07	0.839
2342.18	0.8348
2351.3	0.8301
2360.41	0.8304
2369.53	0.832
2378.64	0.832
2387.76	0.832
2396.87	0.8314
2405.99	0.831
2415.1	0.8311
2424.22	0.832
2433.34	0.832
2442.45	0.831
2451.57	0.831
2460.68	0.829
2469.8	0.829
2478.91	0.829
2488.03	0.829
2497.14	0.829
2506.26	0.829
2515.37	0.829
2524.49	0.829
2533.61	0.829
2542.72	0.8287
2551.84	0.827
2560.95	0.8243
2570.07	0.8191
2579.18	0.817
2588.3	0.814
2597.41	0.8127
2606.53	0.812
2615.64	0.8109
2624.76	0.8093
2633.88	0.8074
2642.99	0.807
2652.11	0.807
2661.22	0.8073
2670.34	0.811
2679.45	0.8086
2688.57	0.807
2697.68	0.804
2706.8	0.8006
2715.91	0.796
2725.03	0.7931
2734.15	0.791
2743.26	0.789
2752.38	0.7835
2761.49	0.7777
2770.61	0.773
2779.72	0.7661
2788.84	0.7471
2797.95	0.7338
2807.07	0.7048
2816.18	0.6677
2825.3	0.6019
2834.41	0.5388
2843.53	0.3945
2852.65	0.3382
2861.76	0.3634
2870.88	0.3971
2879.99	0.4085
2889.11	0.3881
2898.22	0.3316
2907.34	0.2795
2916.45	0.2081
2925.57	0.2135
2934.68	0.2423
2943.8	0.2994
2952.92	0.3569
2962.03	0.3965
2971.15	0.4836
2980.26	0.5932
2989.38	0.6516
2998.49	0.6891
3007.61	0.7208
3016.72	0.7339
3025.84	0.7527
3034.95	0.7597
3044.07	0.7688
3053.19	0.7721
3062.3	0.776
3071.42	0.779
3080.53	0.7798
3089.65	0.7841
3098.76	0.789
3107.88	0.7905
3116.99	0.791
3126.11	0.791
3135.22	0.7932
3144.34	0.7948
3153.46	0.796
3162.57	0.796
3171.69	0.796
3180.8	0.796
3189.92	0.796
3199.03	0.796
3208.15	0.796
3217.26	0.796
3226.38	0.796
3235.49	0.796
3244.61	0.797
3253.73	0.797
3262.84	0.797
3271.96	0.797
3281.07	0.797
3290.19	0.794
3299.3	0.793
3308.42	0.793
3317.53	0.791
3326.65	0.793
3335.76	0.793
3344.88	0.793
3353.99	0.7903
3363.11	0.789
3372.23	0.789
3381.34	0.787
3390.46	0.7906
3399.57	0.7913
3408.69	0.789
3417.8	0.787
3426.92	0.786
3436.03	0.7815
3445.15	0.779
3454.26	0.776
3463.38	0.7779
3472.5	0.7807
3481.61	0.7839
3490.73	0.787
3499.84	0.7894
3508.96	0.791
3518.07	0.793
3527.19	0.793
3536.3	0.793
3545.42	0.793
3554.53	0.796
3563.65	0.798
3572.77	0.8
3581.88	0.8
3591	0.8007
3600.11	0.801
3609.23	0.8031
3618.34	0.8043
3627.46	0.805
3636.57	0.8042
3645.69	0.804
3654.8	0.804
3663.92	0.804
3673.04	0.8033
3682.15	0.803
3691.27	0.804
3700.38	0.8062
3709.5	0.81
3718.61	0.81
3727.73	0.8098
3736.84	0.8077
3745.96	0.807
3755.07	0.8078
3764.19	0.808
3773.31	0.808
3782.42	0.808
3791.54	0.808
3800.65	0.807
3809.77	0.807
3818.88	0.805
3828	0.8044
3837.11	0.804
3846.23	0.803
3855.34	0.803
3864.46	0.801
3873.57	0.8
3882.69	0.8
3891.81	0.8
3900.92	0.8
3910.04	0.7973
3919.15	0.797
3928.27	0.797
3937.38	0.798
3946.5	0.8
3955.61	0.8
3964.73	0.798
3973.84	0.798
3982.96	0.7975
3992.08	0.797
4001.19	0.796
4010.31	0.796
