Infrared Spectrum: DIALLYLCYANAMIDE
Formula: C7 H10 N2
CAS: 538-08-9
State: LIQUID (NEAT)
Class: COBLENTZ III
Instrument: PERKIN-ELMER 521 (GRATING)
Instrument parameters: GRATING CHANGES AT 2000, 630 CM^-^1
Sampling: TRANSMISSION
Path length: SMEAR, KBr CRYSTALS
Resolution: 4
Origin: STANDARD OIL OF OHIO
1/CM	TRANSMITTANCE
351.711	0.426
361.217	0.446
370.722	0.494
380.228	0.535
389.734	0.61
399.24	0.65
408.745	0.674
418.251	0.723
427.757	0.745
437.262	0.774
446.768	0.808
456.274	0.842
465.779	0.86
475.285	0.862
484.791	0.867
494.297	0.866
503.802	0.85
513.308	0.776
522.814	0.672
532.319	0.603
541.825	0.627
551.331	0.629
560.836	0.639
570.342	0.72
579.848	0.751
589.354	0.707
598.859	0.69
608.365	0.732
617.871	0.786
627.376	0.819
636.882	0.825
646.388	0.818
655.894	0.796
665.399	0.748
674.905	0.672
684.411	0.633
693.916	0.665
703.422	0.697
712.928	0.701
722.433	0.725
731.939	0.779
741.445	0.809
750.951	0.813
760.456	0.798
769.962	0.789
779.468	0.772
788.973	0.728
798.479	0.657
807.985	0.609
817.491	0.688
826.996	0.784
836.502	0.809
846.008	0.81
855.513	0.808
865.019	0.793
874.525	0.781
884.03	0.758
893.536	0.694
903.042	0.55
912.548	0.385
922.053	0.246
931.559	0.187
941.065	0.204
950.57	0.286
960.076	0.388
969.582	0.447
979.087	0.45
988.593	0.252
998.099	0.308
1007.6	0.533
1017.11	0.655
1026.62	0.688
1036.12	0.67
1045.63	0.633
1055.13	0.609
1064.64	0.584
1074.14	0.496
1083.65	0.433
1093.16	0.39
1102.66	0.388
1112.17	0.398
1121.67	0.415
1131.18	0.426
1140.68	0.385
1150.19	0.406
1159.7	0.459
1169.2	0.492
1178.71	0.447
1188.21	0.409
1197.72	0.47
1207.22	0.623
1216.73	0.708
1226.24	0.733
1235.74	0.726
1245.25	0.689
1254.75	0.63
1264.26	0.562
1273.76	0.529
1283.27	0.502
1292.78	0.503
1302.28	0.518
1311.79	0.542
1321.29	0.563
1330.8	0.511
1340.3	0.491
1349.81	0.503
1359.32	0.481
1368.82	0.438
1378.33	0.424
1387.83	0.515
1397.34	0.588
1406.84	0.501
1416.35	0.3449
1425.86	0.345
1435.36	0.385
1444.87	0.383
1454.37	0.522
1463.88	0.552
1473.38	0.624
1482.89	0.677
1492.4	0.75
1501.9	0.783
1511.41	0.787
1520.91	0.791
1530.42	0.784
1539.92	0.796
1549.43	0.805
1558.94	0.813
1568.44	0.806
1577.95	0.778
1587.45	0.733
1596.96	0.68
1606.46	0.662
1615.97	0.611
1625.48	0.593
1634.98	0.63
1644.49	0.4441
1653.99	0.654
1663.5	0.606
1673	0.622
1682.51	0.746
1692.02	0.785
1701.52	0.816
1711.03	0.825
1720.53	0.835
1730.04	0.844
1739.54	0.863
1749.05	0.876
1758.56	0.881
1768.06	0.883
1777.57	0.885
1787.07	0.885
1796.58	0.883
1806.08	0.881
1815.59	0.875
1825.1	0.868
1834.6	0.859
1844.11	0.838
1853.61	0.806
1863.12	0.786
1872.62	0.783
1882.13	0.785
1891.64	0.802
1901.14	0.825
1910.65	0.848
1920.15	0.861
1929.66	0.868
1939.16	0.873
1948.67	0.874
1958.18	0.869
1967.68	0.866
1977.19	0.863
1986.69	0.867
1996.2	0.872
2005.7	0.873
2015.21	0.874
2024.71	0.875
2034.22	0.875
2043.73	0.874
2053.23	0.873
2062.74	0.87
2072.24	0.869
2081.75	0.866
2091.25	0.8619
2100.76	0.8547
2110.27	0.845
2119.77	0.8356
2129.28	0.8128
2138.78	0.7909
2148.29	0.736
2157.79	0.6639
2167.3	0.6473
2176.81	0.5533
2186.31	0.4044
2195.82	0.2495
2205.32	0.0971
2214.83	0.0637
2224.33	0.1796
2233.84	0.3806
2243.35	0.5247
2252.85	0.6222
2262.36	0.6865
2271.86	0.7204
2281.37	0.7471
2290.87	0.7614
2300.38	0.774
2309.89	0.784
2319.39	0.8042
2328.9	0.8112
2338.4	0.8227
2347.91	0.8327
2357.41	0.836
2366.92	0.836
2376.43	0.8372
2385.93	0.8413
2395.44	0.8535
2404.94	0.859
2414.45	0.859
2423.95	0.8603
2433.46	0.863
2442.97	0.864
2452.47	0.864
2461.98	0.864
2471.48	0.8646
2480.99	0.866
2490.49	0.867
2500	0.867
2509.51	0.868
2519.01	0.868
2528.52	0.868
2538.02	0.867
2547.53	0.866
2557.03	0.8653
2566.54	0.863
2576.05	0.8674
2585.55	0.869
2595.06	0.869
2604.56	0.868
2614.07	0.869
2623.57	0.869
2633.08	0.869
2642.59	0.869
2652.09	0.868
2661.6	0.868
2671.1	0.8676
2680.61	0.867
2690.11	0.8625
2699.62	0.8615
2709.13	0.8605
2718.63	0.8485
2728.14	0.846
2737.64	0.842
2747.15	0.839
2756.65	0.8345
2766.16	0.8305
2775.67	0.825
2785.17	0.8155
2794.68	0.8085
2804.18	0.7929
2813.69	0.7854
2823.19	0.7669
2832.7	0.7324
2842.21	0.6859
2851.71	0.6214
2861.22	0.5516
2870.72	0.5407
2880.23	0.5791
2889.73	0.604
2899.24	0.5844
2908.75	0.5292
2918.25	0.4876
2927.76	0.4941
2937.26	0.5417
2946.77	0.5954
2956.27	0.6309
2965.78	0.637
2975.29	0.594
2984.79	0.4841
2994.3	0.5632
3003.8	0.6233
3013.31	0.5733
3022.81	0.6068
3032.32	0.6923
3041.83	0.726
3051.33	0.7239
3060.84	0.7012
3070.34	0.6185
3079.85	0.5342
3089.35	0.512
3098.86	0.6612
3108.37	0.7551
3117.87	0.784
3127.38	0.7908
3136.88	0.7983
3146.39	0.8015
3155.89	0.802
3165.4	0.802
3174.91	0.8048
3184.41	0.8058
3193.92	0.81
3203.42	0.8158
3212.93	0.8168
3222.43	0.8188
3231.94	0.821
3241.45	0.824
3250.95	0.825
3260.46	0.828
3269.96	0.8272
3279.47	0.824
3288.97	0.8193
3298.48	0.816
3307.99	0.8091
3317.49	0.7951
3327	0.7911
3336.5	0.787
3346.01	0.7841
3355.51	0.7684
3365.02	0.7641
3374.53	0.761
3384.03	0.761
3393.54	0.761
3403.04	0.7729
3412.55	0.7928
3422.05	0.8059
3431.56	0.809
3441.06	0.808
3450.57	0.805
3460.08	0.7961
3469.58	0.791
3479.09	0.785
3488.59	0.784
3498.1	0.784
3507.6	0.785
3517.11	0.792
3526.62	0.805
3536.12	0.811
3545.63	0.815
3555.13	0.815
3564.64	0.8109
3574.14	0.8079
3583.65	0.808
3593.16	0.81
3602.66	0.8151
3612.17	0.8321
3621.67	0.8411
3631.18	0.845
3640.68	0.848
3650.19	0.8572
3659.7	0.8611
3669.2	0.867
3678.71	0.8704
3688.21	0.8801
3697.72	0.885
3707.22	0.885
3716.73	0.886
3726.24	0.887
3735.74	0.885
3745.25	0.8862
3754.75	0.887
3764.26	0.888
3773.76	0.8882
3783.27	0.889
3792.78	0.89
