Infrared Spectrum: 4-Hydroxypiperidine
Formula: C 5 H 11 N O
CAS: 5382-16-1
State: gas
Origin: EPA-IR VAPOR PHASE LIBRARY
1/CM	ABSORBANCE
501.5	0.00266
513.074	0.00198
524.648	0.00138
536.222	0.00134
547.796	0.00253
559.37	0.00387
570.944	0.00401
582.518	0.00264
594.092	0.00135
605.666	0.0009266
617.24	0.0009447
628.814	0.0011
640.388	0.00143
651.962	0.00185
663.536	0.00212
675.11	0.00206
686.684	0.00221
698.258	0.00289
709.832	0.00421
721.406	0.00628
732.98	0.00858
744.554	0.00943
756.128	0.00777
767.702	0.00438
779.276	0.00234
790.85	0.00188
802.423	0.00198
813.997	0.00189
825.571	0.00149
837.145	0.0009888
848.719	0.0009356
860.293	0.00111
871.867	0.00116
883.441	0.00119
895.015	0.00121
906.589	0.00113
918.163	0.00105
929.737	0.00123
941.311	0.00197
952.885	0.00317
964.459	0.00398
976.033	0.0049
987.607	0.00543
999.181	0.00489
1010.76	0.00409
1022.33	0.00419
1033.9	0.00564
1045.48	0.00709
1057.05	0.00919
1068.63	0.01104
1080.2	0.01017
1091.77	0.00675
1103.35	0.00483
1114.92	0.00485
1126.49	0.00538
1138.07	0.0056
1149.64	0.0054
1161.22	0.00455
1172.79	0.00364
1184.36	0.00336
1195.94	0.0033
1207.51	0.00337
1219.09	0.00368
1230.66	0.00409
1242.23	0.004
1253.81	0.00366
1265.38	0.00331
1276.96	0.00293
1288.53	0.00277
1300.1	0.00331
1311.68	0.00456
1323.25	0.00479
1334.83	0.00432
1346.4	0.00439
1357.97	0.00517
1369.55	0.00523
1381.12	0.00411
1392.7	0.003
1404.27	0.00232
1415.84	0.00252
1427.42	0.00329
1438.99	0.00406
1450.57	0.00408
1462.14	0.00312
1473.71	0.00211
1485.29	0.00117
1496.86	0.00065
1508.44	0.0004526
1520.01	0.0004014
1531.58	0.0003358
1543.16	0.0003399
1554.73	0.0003259
1566.31	0.0003141
1577.88	0.0002954
1589.45	0.000287
1601.03	0.0002852
1612.6	0.0003247
1624.18	0.0003133
1635.75	0.0002535
1647.32	0.0002339
1658.9	0.0001969
1670.47	0.0002174
1682.05	0.000201
1693.62	0.0001895
1705.19	0.0002141
1716.77	0.0001794
1728.34	0.000161
1739.92	0.000149
1751.49	0.0001459
1763.06	0.0001418
1774.64	0.0001323
1786.21	0.0001423
1797.79	0.0001773
1809.36	0.0001969
1820.93	0.0001892
1832.51	0.000191
1844.08	0.0002065
1855.66	0.0001998
1867.23	0.0002114
1878.8	0.0002325
1890.38	0.0002154
1901.95	0.0002355
1913.53	0.0002112
1925.1	0.0002256
1936.67	0.0001961
1948.25	0.0002201
1959.82	0.0002027
1971.4	0.0002035
1982.97	0.0002143
1994.54	0.0002184
2006.12	0.0002071
2017.69	0.0001968
2029.27	0.000226
2040.84	0.0002311
2052.41	0.0002227
2063.99	0.0002282
2075.56	0.0002224
2087.14	0.0001914
2098.71	0.0001812
2110.28	0.0002101
2121.86	0.0002165
2133.43	0.0002141
2145.01	0.0002132
2156.58	0.0002186
2168.15	0.000218
2179.73	0.0002211
2191.3	0.0002491
2202.88	0.0002671
2214.45	0.0002458
2226.02	0.0002512
2237.6	0.0002413
2249.17	0.0002395
2260.74	0.0002383
2272.32	0.0002399
2283.89	0.0002154
2295.47	0.0002357
2307.04	0.000211
2318.61	0.0002149
2330.19	0.0002359
2341.76	0.0002538
2353.34	0.0002251
2364.91	0.000244
2376.48	0.0002357
2388.06	0.0002169
2399.63	0.0002396
2411.21	0.0002621
2422.78	0.0002724
2434.35	0.0002844
2445.93	0.0002793
2457.5	0.000289
2469.08	0.0002992
2480.65	0.0002547
2492.22	0.0002734
2503.8	0.000261
2515.37	0.0002548
2526.95	0.000269
2538.52	0.0002768
2550.09	0.0003134
2561.67	0.0003704
2573.24	0.0004305
2584.82	0.0004816
2596.39	0.0005679
2607.96	0.0006895
2619.54	0.0008497
2631.11	0.0009425
2642.69	0.000977
2654.26	0.0009612
2665.83	0.00112
2677.41	0.0013
2688.98	0.00143
2700.56	0.0016
2712.13	0.00198
2723.7	0.00271
2735.28	0.00361
2746.85	0.0032
2758.43	0.00301
2770	0.00335
2781.57	0.00459
2793.15	0.0063
2804.72	0.00832
2816.3	0.00909
2827.87	0.00849
2839.44	0.00802
2851.02	0.00862
2862.59	0.0095
2874.17	0.00944
2885.74	0.00907
2897.31	0.00988
2908.89	0.0135
2920.46	0.01949
2932.04	0.02632
2943.61	0.03031
2955.18	0.02599
2966.76	0.01625
2978.33	0.00572
2989.91	0.00159
3001.48	0.0007265
3013.05	0.0005429
3024.63	0.0004332
3036.2	0.0003624
3047.78	0.0003471
3059.35	0.000323
3070.92	0.0002889
3082.5	0.0003161
3094.07	0.0003076
3105.65	0.0002074
3117.22	0.0002674
3128.79	0.0002401
3140.37	0.0003025
3151.94	0.0002726
3163.52	0.000278
3175.09	0.0002543
3186.66	0.0002475
3198.24	0.0002172
3209.81	0.0002229
3221.39	0.0002574
3232.96	0.0002205
3244.53	0.0002302
3256.11	0.0001952
3267.68	0.0002493
3279.26	0.0002197
3290.83	0.0002183
3302.4	0.0002371
3313.98	0.0002606
3325.55	0.0002698
3337.13	0.0002963
3348.7	0.0003308
3360.27	0.0002344
3371.85	0.0002409
3383.42	0.000266
3395	0.0002908
3406.57	0.0003142
3418.14	0.0002531
3429.72	0.0003425
3441.29	0.00034
3452.86	0.000382
3464.44	0.0002894
3476.01	0.0003562
3487.59	0.0003025
3499.16	0.0003069
3510.73	0.0003472
3522.31	0.0003811
3533.88	0.0003537
3545.46	0.0003673
3557.03	0.0003244
3568.6	0.000307
3580.18	0.0002877
3591.75	0.0003098
3603.33	0.000378
3614.9	0.0005256
3626.47	0.00103
3638.05	0.00217
3649.62	0.00262
3661.2	0.00218
3672.77	0.00106
3684.34	0.0005045
3695.92	0.0003503
3707.49	0.0002496
3719.07	0.000314
3730.64	0.0003204
3742.21	0.0003018
3753.79	0.0002497
3765.36	0.0002995
3776.94	0.0003532
3788.51	0.000336
3800.08	0.0003512
3811.66	0.000328
3823.23	0.0003635
3834.81	0.0003617
3846.38	0.000304
3857.95	0.0003965
3869.53	0.0003479
3881.1	0.0003412
3892.68	0.0003835
3904.25	0.0003692
3915.82	0.0003518
3927.4	0.0003246
3938.97	0.0002884
3950.55	0.0003549
3962.12	0.0002705
3973.69	0.0003107
3985.27	0.0003554
3996.84	0.0003436
