Infrared Spectrum: DIETHYL TETRAHYDROPYRAN-4,4-DICARBOXYLATE
Formula: C11 H18 O5
CAS: 5382-77-4
State: SOLUTION (10% CCl4 FOR 5000-1330, 10% CS2 FOR 1330-625 CM^-^1)
Class: COBLENTZ
Instrument: Not specified, most likely a prism, grating, or hybrid spectrometer.
Sampling: TRANSMISSION
Path length: 0.0115 CM, 0.0120 CM
Resolution: 4
Origin: DOW CHEMICAL COMPANY
MICROMETERS	TRANSMITTANCE
2.027	0.902
2.06818	0.902
2.10935	0.904
2.15053	0.905
2.19171	0.897
2.23289	0.876
2.27406	0.882
2.31524	0.887
2.35642	0.892
2.39759	0.888
2.43877	0.888
2.47995	0.899
2.52113	0.904
2.5623	0.914
2.60348	0.912
2.64466	0.909
2.68584	0.909
2.72701	0.909
2.76819	0.909
2.80937	0.899
2.85054	0.89
2.89172	0.868
2.9329	0.882
2.97408	0.899
3.01525	0.895
3.05643	0.899
3.09761	0.899
3.13878	0.888
3.17996	0.894
3.22114	0.887
3.26232	0.88
3.30349	0.817
3.34467	0.482
3.38585	0.232
3.42703	0.528
3.4682	0.548
3.50938	0.553
3.55056	0.827
3.59173	0.863
3.63291	0.846
3.67409	0.882
3.71527	0.868
3.75644	0.904
3.79762	0.911
3.8388	0.912
3.87997	0.909
3.92115	0.914
3.96233	0.914
4.00351	0.911
4.04468	0.905
4.08586	0.907
4.12704	0.909
4.16822	0.899
4.20939	0.9
4.25057	0.894
4.29175	0.887
4.33292	0.887
4.3741	0.89
4.41528	0.895
4.45646	0.899
4.49763	0.905
4.53881	0.911
4.57999	0.914
4.62116	0.911
4.66234	0.911
4.70352	0.909
4.7447	0.907
4.78587	0.904
4.82705	0.904
4.86823	0.902
4.90941	0.899
4.95058	0.905
4.99176	0.905
5.03294	0.894
5.07411	0.911
5.11529	0.9
5.15647	0.89
5.19765	0.897
5.23882	0.905
5.28	0.895
5.32118	0.883
5.36235	0.883
5.40353	0.89
5.44471	0.888
5.48589	0.87
5.52706	0.849
5.56824	0.806
5.60942	0.743
5.6506	0.642
5.69177	0.37
5.73295	0.083
5.77413	0.041
5.8153	0.042
5.85648	0.353
5.89766	0.557
5.93884	0.699
5.98001	0.765
6.02119	0.782
6.06237	0.784
6.10354	0.77
6.14472	0.764
6.1859	0.695
6.22708	0.697
6.26825	0.712
6.30943	0.642
6.35061	0.63
6.39179	0.576
6.43296	0.526
6.47414	0.488
6.51532	0.529
6.55649	0.617
6.59767	0.654
6.63885	0.69
6.68003	0.736
6.7212	0.75
6.76238	0.588
6.80356	0.442
6.84473	0.435
6.88591	0.5
6.92709	0.34
6.96827	0.564
7.00944	0.627
7.05062	0.752
7.0918	0.77
7.13298	0.729
7.17415	0.601
7.21533	0.507
7.25651	0.606
7.29768	0.5
7.33886	0.434
7.38004	0.666
7.42122	0.634
7.46239	0.646
7.50357	0.6
7.54475	0.492
7.58592	0.417
7.6271	0.276
7.66828	0.157
7.70946	0.162
7.75063	0.362
7.79181	0.43
7.83299	0.427
7.87417	0.335
7.91534	0.203
7.95652	0.09
7.9977	0.029
8.03887	0.02
8.08005	0.017
8.12123	0.02
8.16241	0.052
8.20358	0.073
8.24476	0.104
8.28594	0.147
8.32711	0.124
8.36829	0.047
8.40947	0.03
8.45065	0.131
8.49182	0.235
8.533	0.252
8.57418	0.252
8.61536	0.203
8.65653	0.164
8.69771	0.167
8.73889	0.191
8.78006	0.143
8.82124	0.051
8.86242	0.022
8.9036	0.017
8.94477	0.131
8.98595	0.179
9.02713	0.116
9.0683	0.08
9.10948	0.167
9.15066	0.2
9.19184	0.249
9.23301	0.319
9.27419	0.299
9.31537	0.186
9.35654	0.097
9.39772	0.186
9.4389	0.411
9.48008	0.531
9.52125	0.567
9.56243	0.557
9.60361	0.5
9.64479	0.319
9.68596	0.188
9.72714	0.184
9.76832	0.184
9.80949	0.206
9.85067	0.299
9.89185	0.348
9.93303	0.473
9.9742	0.635
10.0154	0.707
10.0566	0.767
10.0977	0.793
10.1389	0.801
10.1801	0.805
10.2213	0.803
10.2624	0.769
10.3036	0.682
10.3448	0.586
10.386	0.565
10.4272	0.591
10.4683	0.67
10.5095	0.741
10.5507	0.762
10.5919	0.757
10.633	0.735
10.6742	0.726
10.7154	0.741
10.7566	0.757
10.7977	0.782
10.8389	0.861
10.8801	0.882
10.9213	0.892
10.9625	0.897
11.0036	0.9
11.0448	0.9
11.086	0.899
11.1272	0.892
11.1683	0.882
11.2095	0.864
11.2507	0.847
11.2919	0.825
11.3331	0.811
11.3742	0.781
11.4154	0.738
11.4566	0.687
11.4978	0.594
11.5389	0.476
11.5801	0.364
11.6213	0.299
11.6625	0.326
11.7036	0.429
11.7448	0.487
11.786	0.526
11.8272	0.617
11.8684	0.675
11.9095	0.697
11.9507	0.697
11.9919	0.697
12.0331	0.711
12.0742	0.752
12.1154	0.777
12.1566	0.779
12.1978	0.772
12.239	0.736
12.2801	0.692
12.3213	0.678
12.3625	0.709
12.4037	0.753
12.4448	0.779
12.486	0.803
12.5272	0.811
12.5684	0.811
12.6095	0.811
12.6507	0.813
12.6919	0.811
12.7331	0.811
12.7743	0.811
12.8154	0.81
12.8566	0.803
12.8978	0.798
12.939	0.786
12.9801	0.76
13.0213	0.745
13.0625	0.741
13.1037	0.755
13.1448	0.779
13.186	0.788
13.2272	0.791
13.2684	0.793
13.3096	0.798
13.3507	0.803
13.3919	0.808
13.4331	0.813
13.4743	0.815
13.5154	0.822
13.5566	0.823
13.5978	0.825
13.639	0.825
13.6802	0.823
13.7213	0.818
13.7625	0.811
13.8037	0.806
13.8449	0.803
13.886	0.796
13.9272	0.788
13.9684	0.777
14.0096	0.762
14.0507	0.752
14.0919	0.74
14.1331	0.723
14.1743	0.704
14.2155	0.685
14.2566	0.668
14.2978	0.652
14.339	0.642
14.3802	0.634
14.4213	0.629
14.4625	0.627
14.5037	0.625
14.5449	0.625
14.5861	0.63
14.6272	0.632
14.6684	0.63
14.7096	0.625
14.7508	0.629
14.7919	0.629
14.8331	0.627
14.8743	0.623
14.9155	0.617
14.9566	0.613
14.9978	0.608
15.039	0.601
15.0802	0.591
15.1214	0.581
15.1625	0.572
15.2037	0.56
15.2449	0.547
15.2861	0.538
15.3272	0.531
15.3684	0.526
15.4096	0.519
15.4508	0.519
15.492	0.512
15.5331	0.504
15.5743	0.5
15.6155	0.497
15.6567	0.492
15.6978	0.487
15.739	0.482
15.7802	0.478
15.8214	0.473
15.8625	0.471
15.9037	0.47
15.9449	0.471
