Infrared Spectrum: 3-NITROACENAPHTHENONE-1
Formula: C12 H7 O3 N
CAS: 5386-10-7
Melting point: 181.5-183 C
Class: COBLENTZ
Instrument: Not specified, most likely a prism, grating, or hybrid spectrometer.
Sampling: TRANSMISSION
Resolution: 4
Origin: PROF. T. URBANSKI, INSTITUTE OF TECHNOLOGY, WARSZAWA, POLAND
1/CM	TRANSMITTANCE
990.987	0.888
996.722	0.942
1002.46	0.896
1008.19	0.759
1013.93	0.661
1019.66	0.894
1025.4	0.928
1031.13	0.971
1036.87	0.973
1042.61	0.965
1048.34	0.956
1054.08	0.945
1059.81	0.948
1065.55	0.96
1071.28	0.962
1077.02	0.956
1082.75	0.951
1088.49	0.952
1094.22	0.955
1099.96	0.952
1105.69	0.938
1111.43	0.846
1117.16	0.762
1122.9	0.923
1128.64	0.901
1134.37	0.857
1140.11	0.743
1145.84	0.822
1151.58	0.812
1157.31	0.868
1163.05	0.709
1168.78	0.592
1174.52	0.841
1180.25	0.896
1185.99	0.883
1191.72	0.851
1197.46	0.824
1203.2	0.794
1208.93	0.726
1214.67	0.634
1220.4	0.743
1226.14	0.685
1231.87	0.817
1237.61	0.781
1243.34	0.629
1249.08	0.526
1254.81	0.581
1260.55	0.705
1266.28	0.769
1272.02	0.787
1277.75	0.813
1283.49	0.816
1289.23	0.812
1294.96	0.784
1300.7	0.698
1306.43	0.585
1312.17	0.456
1317.9	0.343
1323.64	0.214
1329.37	0.089
1335.11	0.07
1340.84	0.082
1346.58	0.118
1352.31	0.241
1358.05	0.417
1363.79	0.312
1369.52	0.291
1375.26	0.487
1380.99	0.704
1386.73	0.83
1392.46	0.832
1398.2	0.816
1403.93	0.748
1409.67	0.602
1415.4	0.508
1421.14	0.659
1426.87	0.788
1432.61	0.814
1438.34	0.779
1444.08	0.743
1449.82	0.68
1455.55	0.633
1461.29	0.655
1467.02	0.687
1472.76	0.694
1478.49	0.575
1484.23	0.391
1489.96	0.581
1495.7	0.563
1501.43	0.417
1507.17	0.298
1512.9	0.165
1518.64	0.086
1524.37	0.056
1530.11	0.103
1535.85	0.312
1541.58	0.486
1547.32	0.668
1553.05	0.842
1558.79	0.892
1564.52	0.894
1570.26	0.832
1575.99	0.733
1581.73	0.627
1587.46	0.525
1593.2	0.679
1598.93	0.82
1604.67	0.712
1610.41	0.637
1616.14	0.546
1621.88	0.518
1627.61	0.729
1633.35	0.954
1639.08	0.956
1644.82	0.967
1650.55	0.994
1656.29	0.993
1662.02	0.944
1667.76	0.885
1673.49	0.828
1679.23	0.776
1684.96	0.725
1690.7	0.675
1696.44	0.532
1702.17	0.375
1707.91	0.247
1713.64	0.068
1719.38	0.037
1725.11	0.096
1730.85	0.242
1736.58	0.397
1742.32	0.549
1748.05	0.777
1753.79	0.869
1759.52	0.9
1765.26	0.906
1771	0.899
1776.73	0.882
1782.47	0.898
1788.2	0.93
1793.94	0.944
1799.67	0.951
1805.41	0.954
1811.14	0.956
1816.88	0.957
1822.61	0.959
1828.35	0.96
1834.08	0.962
1839.82	0.961
1845.55	0.957
1851.29	0.951
1857.03	0.942
1862.76	0.94
1868.5	0.944
1874.23	0.941
1879.97	0.935
1885.7	0.929
1891.44	0.924
1897.17	0.922
1902.91	0.919
1908.64	0.917
1914.38	0.91
1920.11	0.903
1925.85	0.895
1931.59	0.888
1937.32	0.888
1943.06	0.898
1948.79	0.907
1954.53	0.91
1960.26	0.913
1966	0.913
1971.73	0.91
1977.47	0.904
1983.2	0.895
1988.94	0.901
1994.67	0.908
2000.41	0.912
2006.14	0.913
2011.88	0.913
2017.62	0.913
2023.35	0.909
2029.09	0.906
2034.82	0.906
2040.56	0.907
2046.29	0.906
2052.03	0.905
2057.76	0.903
2063.5	0.902
2069.23	0.9
2074.97	0.898
2080.7	0.897
2086.44	0.896
2092.18	0.895
2097.91	0.894
2103.65	0.892
2109.38	0.89
2115.12	0.887
2120.85	0.884
2126.59	0.882
2132.32	0.88
2138.06	0.877
2143.79	0.876
2149.53	0.874
2155.26	0.873
2161	0.873
2166.73	0.871
2172.47	0.871
2178.21	0.871
2183.94	0.87
2189.68	0.869
2195.41	0.868
2201.15	0.867
2206.88	0.865
2212.62	0.862
2218.35	0.858
2224.09	0.854
2229.82	0.85
2235.56	0.846
2241.29	0.842
2247.03	0.838
2252.76	0.835
2258.5	0.834
2264.24	0.831
2269.97	0.827
2275.71	0.825
2281.44	0.821
2287.18	0.818
2292.91	0.814
2298.65	0.809
2304.38	0.802
2310.12	0.798
2315.85	0.793
2321.59	0.789
2327.32	0.79
2333.06	0.793
2338.8	0.795
2344.53	0.797
2350.27	0.801
2356	0.806
2361.74	0.809
2367.47	0.812
2373.21	0.815
2378.94	0.813
2384.68	0.81
2390.41	0.807
2396.15	0.805
2401.88	0.804
2407.62	0.803
2413.35	0.803
2419.09	0.802
2424.83	0.801
2430.56	0.799
2436.3	0.797
2442.03	0.794
2447.77	0.792
2453.5	0.79
2459.24	0.787
2464.97	0.784
2470.71	0.78
2476.44	0.777
2482.18	0.774
2487.91	0.772
2493.65	0.772
2499.39	0.774
2505.12	0.776
2510.86	0.777
2516.59	0.776
2522.33	0.776
2528.06	0.776
2533.8	0.774
2539.53	0.773
2545.27	0.771
2551	0.769
2556.74	0.768
2562.47	0.765
2568.21	0.763
2573.94	0.762
2579.68	0.76
2585.42	0.758
2591.15	0.756
2596.89	0.755
2602.62	0.752
2608.36	0.751
2614.09	0.75
2619.83	0.749
2625.56	0.748
2631.3	0.746
2637.03	0.744
2642.77	0.743
2648.5	0.741
2654.24	0.74
2659.98	0.738
2665.71	0.737
2671.45	0.735
2677.18	0.734
2682.92	0.733
2688.65	0.732
2694.39	0.731
2700.12	0.73
2705.86	0.729
2711.59	0.729
2717.33	0.727
2723.06	0.726
2728.8	0.726
2734.53	0.725
2740.27	0.724
2746.01	0.724
2751.74	0.724
2757.48	0.725
2763.21	0.726
2768.95	0.724
2774.68	0.723
2780.42	0.721
2786.15	0.718
2791.89	0.714
2797.62	0.71
2803.36	0.706
2809.09	0.699
2814.83	0.694
2820.57	0.68
2826.3	0.669
2832.04	0.627
2837.77	0.562
2843.51	0.5
2849.24	0.458
2854.98	0.42
2860.71	0.42
2866.45	0.435
2872.18	0.45
2877.92	0.458
2883.65	0.452
2889.39	0.423
2895.12	0.379
2900.86	0.343
2906.6	0.302
2912.33	0.267
2918.07	0.247
2923.8	0.245
2929.54	0.25
2935.27	0.256
2941.01	0.263
2946.74	0.272
2952.48	0.286
2958.21	0.306
2963.95	0.351
2969.68	0.393
2975.42	0.436
2981.16	0.466
2986.89	0.499
2992.63	0.521
2998.36	0.53
3004.1	0.536
3009.83	0.542
3015.57	0.543
3021.3	0.543
3027.04	0.54
3032.77	0.535
3038.51	0.522
3044.24	0.513
3049.98	0.508
3055.71	0.508
3061.45	0.511
3067.19	0.513
3072.92	0.516
3078.66	0.517
3084.39	0.524
3090.13	0.529
3095.86	0.529
3101.6	0.527
3107.33	0.524
3113.07	0.524
3118.8	0.534
3124.54	0.547
3130.27	0.562
3136.01	0.576
3141.74	0.583
3147.48	0.589
3153.22	0.596
3158.95	0.598
3164.69	0.599
3170.42	0.599
3176.16	0.6
3181.89	0.6
3187.63	0.602
3193.36	0.603
3199.1	0.604
3204.83	0.605
3210.57	0.605
3216.3	0.607
3222.04	0.607
3227.78	0.607
3233.51	0.607
3239.25	0.608
3244.98	0.608
