Infrared Spectrum: 5-NITROACENAPHTHENONE-1
Formula: C12 H7 O3 N
CAS: 5386-11-8
Melting point: 156-157 C
Class: COBLENTZ
Instrument: Not specified, most likely a prism, grating, or hybrid spectrometer.
Sampling: TRANSMISSION
Resolution: 4
Origin: PROF. T. URBANSKI, INSTITUTE OF TECHNOLOGY, WARSZAWA, POLAND
1/CM	TRANSMITTANCE
1000	0.689
1005.74	0.737
1011.47	0.756
1017.21	0.73
1022.94	0.747
1028.68	0.755
1034.41	0.761
1040.15	0.788
1045.88	0.842
1051.62	0.848
1057.35	0.838
1063.09	0.833
1068.82	0.84
1074.56	0.857
1080.3	0.87
1086.03	0.875
1091.77	0.874
1097.5	0.844
1103.24	0.804
1108.97	0.813
1114.71	0.811
1120.44	0.793
1126.18	0.789
1131.91	0.756
1137.65	0.748
1143.38	0.764
1149.12	0.777
1154.85	0.756
1160.59	0.75
1166.33	0.733
1172.06	0.644
1177.8	0.631
1183.53	0.655
1189.27	0.572
1195	0.465
1200.74	0.38
1206.47	0.564
1212.21	0.704
1217.94	0.657
1223.68	0.609
1229.41	0.57
1235.15	0.58
1240.89	0.658
1246.62	0.675
1252.36	0.547
1258.09	0.565
1263.83	0.636
1269.56	0.667
1275.3	0.652
1281.03	0.64
1286.77	0.596
1292.5	0.542
1298.24	0.459
1303.97	0.359
1309.71	0.274
1315.44	0.189
1321.18	0.099
1326.92	0.088
1332.65	0.105
1338.39	0.13
1344.12	0.168
1349.86	0.264
1355.59	0.397
1361.33	0.507
1367.06	0.487
1372.8	0.425
1378.53	0.406
1384.27	0.483
1390	0.646
1395.74	0.674
1401.48	0.7
1407.21	0.745
1412.95	0.748
1418.68	0.665
1424.42	0.606
1430.15	0.627
1435.89	0.715
1441.62	0.706
1447.36	0.67
1453.09	0.59
1458.83	0.527
1464.56	0.541
1470.3	0.582
1476.03	0.621
1481.77	0.525
1487.51	0.382
1493.24	0.315
1498.98	0.416
1504.71	0.291
1510.45	0.175
1516.18	0.166
1521.92	0.205
1527.65	0.258
1533.39	0.344
1539.12	0.52
1544.86	0.714
1550.59	0.776
1556.33	0.808
1562.07	0.831
1567.8	0.804
1573.54	0.769
1579.27	0.717
1585.01	0.646
1590.74	0.608
1596.48	0.646
1602.21	0.698
1607.95	0.7
1613.68	0.668
1619.42	0.518
1625.15	0.563
1630.89	0.707
1636.63	0.84
1642.36	0.855
1648.1	0.849
1653.83	0.847
1659.57	0.813
1665.3	0.779
1671.04	0.746
1676.77	0.703
1682.51	0.635
1688.24	0.569
1693.98	0.478
1699.71	0.34
1705.45	0.231
1711.18	0.171
1716.92	0.103
1722.66	0.097
1728.39	0.177
1734.13	0.399
1739.86	0.557
1745.6	0.754
1751.33	0.908
1757.07	0.944
1762.8	0.936
1768.54	0.901
1774.27	0.858
1780.01	0.857
1785.74	0.86
1791.48	0.892
1797.22	0.952
1802.95	0.951
1808.69	0.946
1814.42	0.938
1820.16	0.929
1825.89	0.921
1831.63	0.913
1837.36	0.907
1843.1	0.9
1848.83	0.896
1854.57	0.889
1860.3	0.884
1866.04	0.878
1871.77	0.872
1877.51	0.867
1883.25	0.862
1888.98	0.857
1894.72	0.851
1900.45	0.848
1906.19	0.845
1911.92	0.843
1917.66	0.841
1923.39	0.84
1929.13	0.84
1934.86	0.839
1940.6	0.837
1946.33	0.835
1952.07	0.833
1957.81	0.831
1963.54	0.83
1969.28	0.827
1975.01	0.825
1980.75	0.824
1986.48	0.822
1992.22	0.82
1997.95	0.819
2003.69	0.817
2009.42	0.815
2015.16	0.812
2020.89	0.81
2026.63	0.808
2032.36	0.804
2038.1	0.802
2043.84	0.797
2049.57	0.793
2055.31	0.79
2061.04	0.787
2066.78	0.784
2072.51	0.781
2078.25	0.779
2083.98	0.776
2089.72	0.773
2095.45	0.771
2101.19	0.769
2106.92	0.766
2112.66	0.764
2118.4	0.762
2124.13	0.76
2129.87	0.757
2135.6	0.755
2141.34	0.752
2147.07	0.749
2152.81	0.747
2158.54	0.744
2164.28	0.742
2170.01	0.739
2175.75	0.736
2181.48	0.732
2187.22	0.729
2192.95	0.726
2198.69	0.723
2204.43	0.721
2210.16	0.719
2215.9	0.716
2221.63	0.713
2227.37	0.712
2233.1	0.709
2238.84	0.707
2244.57	0.705
2250.31	0.704
2256.04	0.702
2261.78	0.699
2267.51	0.696
2273.25	0.694
2278.99	0.691
2284.72	0.688
2290.46	0.682
2296.19	0.676
2301.93	0.668
2307.66	0.656
2313.4	0.651
2319.13	0.649
2324.87	0.654
2330.6	0.66
2336.34	0.66
2342.07	0.66
2347.81	0.659
2353.55	0.662
2359.28	0.666
2365.02	0.67
2370.75	0.672
2376.49	0.669
2382.22	0.664
2387.96	0.659
2393.69	0.656
2399.43	0.654
2405.16	0.65
2410.9	0.648
2416.63	0.646
2422.37	0.643
2428.1	0.641
2433.84	0.639
2439.58	0.636
2445.31	0.635
2451.05	0.633
2456.78	0.632
2462.52	0.63
2468.25	0.628
2473.99	0.627
2479.72	0.625
2485.46	0.624
2491.19	0.622
2496.93	0.62
2502.66	0.619
2508.4	0.617
2514.14	0.616
2519.87	0.615
2525.61	0.613
2531.34	0.611
2537.08	0.611
2542.81	0.61
2548.55	0.608
2554.28	0.604
2560.02	0.599
2565.75	0.596
2571.49	0.593
2577.22	0.592
2582.96	0.589
2588.69	0.587
2594.43	0.585
2600.17	0.584
2605.9	0.581
2611.64	0.579
2617.37	0.577
2623.11	0.576
2628.84	0.574
2634.58	0.573
2640.31	0.571
2646.05	0.57
2651.78	0.569
2657.52	0.568
2663.25	0.566
2668.99	0.565
2674.73	0.564
2680.46	0.563
2686.2	0.561
2691.93	0.56
2697.67	0.559
2703.4	0.559
2709.14	0.558
2714.87	0.558
2720.61	0.557
2726.34	0.556
2732.08	0.555
2737.81	0.554
2743.55	0.553
2749.28	0.552
2755.02	0.55
2760.76	0.549
2766.49	0.548
2772.23	0.547
2777.96	0.546
2783.7	0.545
2789.43	0.543
2795.17	0.54
2800.9	0.538
2806.64	0.532
2812.37	0.528
2818.11	0.522
2823.84	0.514
2829.58	0.5
2835.32	0.486
2841.05	0.461
2846.79	0.403
2852.52	0.355
2858.26	0.338
2863.99	0.332
2869.73	0.335
2875.46	0.34
2881.2	0.341
2886.93	0.334
2892.67	0.318
2898.4	0.293
2904.14	0.276
2909.88	0.267
2915.61	0.252
2921.35	0.241
2927.08	0.238
2932.82	0.24
2938.55	0.241
2944.29	0.241
2950.02	0.242
2955.76	0.245
2961.49	0.256
2967.23	0.271
2972.96	0.286
2978.7	0.305
2984.43	0.324
2990.17	0.337
2995.91	0.35
3001.64	0.36
3007.38	0.367
3013.11	0.371
3018.85	0.374
3024.58	0.374
3030.32	0.372
3036.05	0.372
3041.79	0.371
3047.52	0.37
3053.26	0.369
3058.99	0.368
3064.73	0.368
3070.47	0.367
3076.2	0.366
3081.94	0.366
3087.67	0.365
3093.41	0.367
3099.14	0.369
3104.88	0.374
3110.61	0.38
3116.35	0.388
3122.08	0.393
3127.82	0.402
3133.55	0.406
3139.29	0.408
3145.02	0.409
3150.76	0.409
3156.5	0.409
3162.23	0.409
3167.97	0.408
3173.7	0.408
3179.44	0.408
3185.17	0.406
3190.91	0.406
3196.64	0.405
3202.38	0.404
3208.11	0.404
3213.85	0.403
3219.58	0.401
3225.32	0.4
3231.06	0.399
3236.79	0.398
3242.53	0.397
3248.26	0.395
