Infrared Spectrum: 5-BROMOACENAPHTHENONE-2
Formula: C12 H7 Br O
CAS: 5386-09-4
Melting point: 132-134 C
Class: COBLENTZ
Instrument: Not specified, most likely a prism, grating, or hybrid spectrometer.
Sampling: TRANSMISSION
Resolution: 4
Origin: PROF. T. URBANSKI, INSTITUTE OF TECHNOLOGY, WARSZAWA, POLAND
1/CM	TRANSMITTANCE
750.82	0.705
756.558	0.602
762.295	0.403
768.033	0.501
773.771	0.741
779.509	0.8
785.246	0.846
790.984	0.831
796.722	0.884
802.459	0.877
808.197	0.844
813.935	0.776
819.672	0.665
825.41	0.542
831.148	0.622
836.886	0.625
842.623	0.736
848.361	0.904
854.099	0.934
859.836	0.958
865.574	0.963
871.312	0.963
877.049	0.958
882.787	0.948
888.525	0.944
894.263	0.949
900	0.919
905.738	0.924
911.476	0.952
917.213	0.958
922.951	0.944
928.689	0.915
934.427	0.892
940.164	0.917
945.902	0.908
951.64	0.918
957.377	0.917
963.115	0.889
968.853	0.84
974.59	0.881
980.328	0.881
986.066	0.798
991.804	0.754
997.541	0.755
1003.28	0.667
1009.02	0.507
1014.75	0.435
1020.49	0.581
1026.23	0.702
1031.97	0.746
1037.71	0.786
1043.44	0.904
1049.18	0.911
1054.92	0.91
1060.66	0.907
1066.39	0.887
1072.13	0.86
1077.87	0.825
1083.61	0.835
1089.34	0.896
1095.08	0.9
1100.82	0.904
1106.56	0.907
1112.3	0.907
1118.03	0.903
1123.77	0.887
1129.51	0.84
1135.25	0.789
1140.98	0.865
1146.72	0.869
1152.46	0.876
1158.2	0.873
1163.93	0.796
1169.67	0.831
1175.41	0.889
1181.15	0.89
1186.89	0.879
1192.62	0.833
1198.36	0.788
1204.1	0.749
1209.84	0.766
1215.57	0.819
1221.31	0.811
1227.05	0.722
1232.79	0.725
1238.52	0.781
1244.26	0.852
1250	0.844
1255.74	0.797
1261.48	0.871
1267.21	0.9
1272.95	0.906
1278.69	0.912
1284.43	0.912
1290.16	0.9
1295.9	0.877
1301.64	0.862
1307.38	0.882
1313.11	0.872
1318.85	0.805
1324.59	0.733
1330.33	0.723
1336.07	0.779
1341.8	0.846
1347.54	0.809
1353.28	0.627
1359.02	0.572
1364.75	0.744
1370.49	0.813
1376.23	0.743
1381.97	0.632
1387.71	0.563
1393.44	0.584
1399.18	0.665
1404.92	0.759
1410.66	0.823
1416.39	0.73
1422.13	0.652
1427.87	0.755
1433.61	0.871
1439.34	0.861
1445.08	0.823
1450.82	0.763
1456.56	0.711
1462.3	0.743
1468.03	0.8
1473.77	0.809
1479.51	0.685
1485.25	0.595
1490.98	0.827
1496.72	0.916
1502.46	0.911
1508.2	0.914
1513.93	0.912
1519.67	0.913
1525.41	0.91
1531.15	0.903
1536.89	0.898
1542.62	0.895
1548.36	0.892
1554.1	0.89
1559.84	0.857
1565.57	0.807
1571.31	0.724
1577.05	0.637
1582.79	0.541
1588.52	0.638
1594.26	0.716
1600	0.706
1605.74	0.784
1611.48	0.801
1617.21	0.797
1622.95	0.825
1628.69	0.85
1634.43	0.852
1640.16	0.846
1645.9	0.835
1651.64	0.829
1657.38	0.825
1663.11	0.803
1668.85	0.784
1674.59	0.756
1680.33	0.699
1686.07	0.645
1691.8	0.491
1697.54	0.31
1703.28	0.182
1709.02	0.113
1714.75	0.079
1720.49	0.071
1726.23	0.275
1731.97	0.475
1737.7	0.648
1743.44	0.82
1749.18	0.907
1754.92	0.916
1760.66	0.893
1766.39	0.852
1772.13	0.839
1777.87	0.887
1783.61	0.943
1789.34	0.964
1795.08	0.965
1800.82	0.966
1806.56	0.966
1812.3	0.966
1818.03	0.966
1823.77	0.965
1829.51	0.964
1835.25	0.963
1840.98	0.962
1846.72	0.961
1852.46	0.96
1858.2	0.957
1863.93	0.955
1869.67	0.953
1875.41	0.949
1881.15	0.945
1886.89	0.944
1892.62	0.946
1898.36	0.948
1904.1	0.949
1909.84	0.945
1915.57	0.941
1921.31	0.946
1927.05	0.947
1932.79	0.949
1938.52	0.949
1944.26	0.95
1950	0.951
1955.74	0.953
1961.48	0.955
1967.21	0.957
1972.95	0.96
1978.69	0.961
1984.43	0.961
1990.16	0.96
1995.9	0.958
2001.64	0.955
2007.38	0.952
2013.11	0.95
2018.85	0.947
2024.59	0.944
2030.33	0.942
2036.07	0.94
2041.8	0.939
2047.54	0.938
2053.28	0.936
2059.02	0.934
2064.75	0.932
2070.49	0.93
2076.23	0.928
2081.97	0.927
2087.7	0.925
2093.44	0.923
2099.18	0.922
2104.92	0.921
2110.66	0.92
2116.39	0.918
2122.13	0.917
2127.87	0.917
2133.61	0.917
2139.34	0.919
2145.08	0.918
2150.82	0.917
2156.56	0.917
2162.29	0.916
2168.03	0.914
2173.77	0.912
2179.51	0.911
2185.25	0.909
2190.98	0.908
2196.72	0.906
2202.46	0.905
2208.2	0.904
2213.93	0.902
2219.67	0.9
2225.41	0.898
2231.15	0.897
2236.89	0.896
2242.62	0.895
2248.36	0.895
2254.1	0.894
2259.84	0.894
2265.57	0.894
2271.31	0.893
2277.05	0.891
2282.79	0.889
2288.52	0.885
2294.26	0.879
2300	0.87
2305.74	0.857
2311.48	0.839
2317.21	0.836
2322.95	0.838
2328.69	0.841
2334.43	0.843
2340.16	0.846
2345.9	0.847
2351.64	0.85
2357.38	0.855
2363.11	0.862
2368.85	0.869
2374.59	0.874
2380.33	0.878
2386.07	0.879
2391.8	0.879
2397.54	0.879
2403.28	0.878
2409.02	0.877
2414.75	0.875
2420.49	0.874
2426.23	0.873
2431.97	0.871
2437.7	0.87
2443.44	0.869
2449.18	0.866
2454.92	0.865
2460.66	0.863
2466.39	0.862
2472.13	0.86
2477.87	0.858
2483.61	0.858
2489.34	0.856
2495.08	0.855
2500.82	0.854
2506.56	0.853
2512.29	0.852
2518.03	0.852
2523.77	0.851
2529.51	0.85
2535.25	0.848
2540.98	0.847
2546.72	0.846
2552.46	0.847
2558.2	0.849
2563.93	0.847
2569.67	0.846
2575.41	0.844
2581.15	0.843
2586.89	0.84
2592.62	0.839
2598.36	0.838
2604.1	0.836
2609.84	0.835
2615.57	0.833
2621.31	0.831
2627.05	0.83
2632.79	0.829
2638.52	0.829
2644.26	0.83
2650	0.83
2655.74	0.83
2661.48	0.832
2667.21	0.832
2672.95	0.831
2678.69	0.83
2684.43	0.83
2690.16	0.83
2695.9	0.828
2701.64	0.827
2707.38	0.827
2713.11	0.825
2718.85	0.824
2724.59	0.824
2730.33	0.825
2736.07	0.826
2741.8	0.827
2747.54	0.828
2753.28	0.83
2759.02	0.832
2764.75	0.833
2770.49	0.834
2776.23	0.832
2781.97	0.83
2787.7	0.828
2793.44	0.829
2799.18	0.83
2804.92	0.832
2810.66	0.832
2816.39	0.832
2822.13	0.827
2827.87	0.793
2833.61	0.715
2839.34	0.638
2845.08	0.574
2850.82	0.557
2856.56	0.579
2862.29	0.604
2868.03	0.615
2873.77	0.611
2879.51	0.576
2885.25	0.503
2890.98	0.436
2896.72	0.377
2902.46	0.315
2908.2	0.258
2913.93	0.255
2919.67	0.266
2925.41	0.299
2931.15	0.326
2936.88	0.347
2942.62	0.372
2948.36	0.409
2954.1	0.454
2959.84	0.497
2965.57	0.542
2971.31	0.588
2977.05	0.613
2982.79	0.619
2988.52	0.625
2994.26	0.63
