Infrared Spectrum: 3-Phenoxybenzyl chloride
Formula: C 13 H 11 Cl O
CAS: 53874-66-1
State: gas
Origin: EPA-IR VAPOR PHASE LIBRARY
1/CM	ABSORBANCE
549.8	0.002587
559.445	0.004507
569.09	0.004917
578.734	0.004417
588.379	0.004087
598.024	0.003407
607.669	0.003587
617.313	0.003597
626.958	0.003997
636.603	0.004187
646.248	0.004757
655.893	0.005817
665.537	0.007477
675.182	0.013067
684.827	0.032077
694.472	0.041127
704.116	0.029377
713.761	0.036737
723.406	0.043047
733.051	0.043337
742.695	0.039737
752.34	0.035437
761.985	0.036107
771.63	0.035457
781.275	0.032297
790.919	0.026577
800.564	0.018087
810.209	0.017957
819.854	0.018367
829.498	0.018687
839.143	0.008917
848.788	0.004777
858.433	0.005257
868.078	0.007017
877.722	0.009117
887.367	0.010957
897.012	0.011307
906.657	0.008277
916.301	0.005467
925.946	0.004777
935.591	0.005707
945.236	0.009307
954.88	0.021967
964.525	0.027307
974.17	0.011907
983.815	0.005547
993.46	0.004097
1003.1	0.004007
1012.75	0.005387
1022.39	0.010527
1032.04	0.004007
1041.68	0.002077
1051.33	0.002327
1060.97	0.005587
1070.62	0.008927
1080.26	0.007027
1089.91	0.004417
1099.55	0.003507
1109.2	0.003737
1118.84	0.003927
1128.49	0.007757
1138.13	0.017297
1147.78	0.019877
1157.42	0.025327
1167.07	0.027857
1176.71	0.017297
1186.36	0.017087
1196	0.030867
1205.64	0.076807
1215.29	0.112557
1224.93	0.083747
1234.58	0.094217
1244.22	0.158897
1253.87	0.202437
1263.51	0.155207
1273.16	0.128407
1282.8	0.083947
1292.45	0.048477
1302.09	0.035767
1311.74	0.027867
1321.38	0.020767
1331.03	0.015397
1340.67	0.011527
1350.32	0.007027
1359.96	0.005237
1369.61	0.004997
1379.25	0.005487
1388.9	0.005767
1398.54	0.008287
1408.18	0.009997
1417.83	0.010457
1427.47	0.019827
1437.12	0.053827
1446.76	0.070377
1456.41	0.038307
1466.05	0.035157
1475.7	0.068967
1485.34	0.173557
1494.99	0.129617
1504.63	0.033127
1514.28	0.016037
1523.92	0.011547
1533.57	0.010237
1543.21	0.011047
1552.86	0.015787
1562.5	0.030707
1572.15	0.064927
1581.79	0.121987
1591.44	0.116027
1601.08	0.062397
1610.73	0.035987
1620.37	0.016897
1630.01	0.007587
1639.66	0.004977
1649.3	0.003837
1658.95	0.003177
1668.59	0.002877
1678.24	0.002827
1687.88	0.002887
1697.53	0.002997
1707.17	0.003047
1716.82	0.003187
1726.46	0.003197
1736.11	0.003007
1745.75	0.002917
1755.4	0.002967
1765.04	0.003327
1774.69	0.003757
1784.33	0.003077
1793.98	0.002437
1803.62	0.002067
1813.27	0.001907
1822.91	0.002137
1832.55	0.002387
1842.2	0.002967
1851.84	0.003577
1861.49	0.003507
1871.13	0.002847
1880.78	0.002177
1890.42	0.001877
1900.07	0.001937
1909.71	0.002717
1919.36	0.004457
1929	0.005437
1938.65	0.004027
1948.29	0.003217
1957.94	0.002417
1967.58	0.002337
1977.23	0.002477
1986.87	0.002717
1996.52	0.002607
2006.16	0.002207
2015.81	0.002237
2025.45	0.002677
2035.1	0.002877
2044.74	0.002677
2054.38	0.002157
2064.03	0.001847
2073.67	0.001627
2083.32	0.001547
2092.96	0.001537
2102.61	0.001487
2112.25	0.001347
2121.9	0.0010987
2131.54	0.0009122
2141.19	0.0008697
2150.83	0.0007734
2160.48	0.0009024
2170.12	0.0009119
2179.77	0.0009333
2189.41	0.0010537
2199.06	0.0010587
2208.7	0.001257
2218.35	0.0011489
2227.99	0.0009706
2237.64	0.0008609
2247.28	0.0007488
2256.92	0.0007851
2266.57	0.0008464
2276.21	0.0011084
2285.86	0.0011304
2295.5	0.001247
2305.15	0.001727
2314.79	0.001917
2324.44	0.001797
2334.08	0.001397
2343.73	0.001437
2353.37	0.001407
2363.02	0.001387
2372.66	0.001807
2382.31	0.002197
2391.95	0.002697
2401.6	0.002777
2411.24	0.002707
2420.89	0.002757
2430.53	0.002437
2440.18	0.002147
2449.82	0.001737
2459.47	0.001627
2469.11	0.001397
2478.75	0.001287
2488.4	0.001247
2498.04	0.001257
2507.69	0.001297
2517.33	0.001257
2526.98	0.0010884
2536.62	0.001237
2546.27	0.001367
2555.91	0.001407
2565.56	0.001347
2575.2	0.0011308
2584.85	0.0010191
2594.49	0.0009629
2604.14	0.0008703
2613.78	0.0007883
2623.43	0.000735
2633.07	0.0006816
2642.72	0.0003903
2652.36	0.0003701
2662.01	0.0003664
2671.65	0.0004512
2681.29	0.0004391
2690.94	0.0006017
2700.58	0.0008267
2710.23	0.0008871
2719.87	0.0009147
2729.52	0.000842
2739.16	0.0008669
2748.81	0.0007658
2758.45	0.0006034
2768.1	0.0005143
2777.74	0.0004279
2787.39	0.0004337
2797.03	0.0004571
2806.68	0.000443
2816.32	0.0005152
2825.97	0.0005623
2835.61	0.0006956
2845.26	0.0009735
2854.9	0.0011441
2864.55	0.001377
2874.19	0.001707
2883.84	0.001827
2893.48	0.001417
2903.12	0.0011139
2912.77	0.0009966
2922.41	0.0010554
2932.06	0.001787
2941.7	0.002987
2951.35	0.004137
2960.99	0.006617
2970.64	0.008167
2980.28	0.005587
2989.93	0.004007
2999.57	0.004497
3009.22	0.006017
3018.86	0.007387
3028.51	0.011437
3038.15	0.018597
3047.8	0.022077
3057.44	0.019897
3067.09	0.022707
3076.73	0.029217
3086.38	0.023327
3096.02	0.014057
3105.67	0.008687
3115.31	0.004057
3124.95	0.001967
3134.6	0.0010748
3144.24	0.0006907
3153.89	0.0004194
3163.53	0.0006195
3173.18	0.00024087
3182.82	0.0006706
3192.47	0.0003867
3202.11	0.000332
3211.76	0.00020038
3221.4	0.0003507
3231.05	0.000265
3240.69	0.0002921
3250.34	0.000279
3259.98	0.0002379
3269.63	0.0003262
3279.27	6.3e-05
3288.92	0.0001709
3298.56	0.00021708
3308.21	0.000156766
3317.85	0.00024673
3327.49	0.0003213
3337.14	0.0002713
3346.78	0.00024795
3356.43	0.0003296
3366.07	0.0003046
3375.72	0.0003489
3385.36	0.00014875
3395.01	0.00019922
3404.65	5.79e-05
3414.3	0.0001367
3423.94	5.79e-05
3433.59	0.00018678
3443.23	0.00019035
3452.88	0.0003551
3462.52	0.0004231
3472.17	0.0004606
3481.81	0.0003019
3491.46	0.0002699
3501.1	8.18e-05
3510.75	0.0002649
3520.39	0.0003241
3530.04	0.00020408
3539.68	6.35e-05
3549.32	0.0003536
3558.97	0.0003749
3568.61	0.000401
3578.26	0.0003597
3587.9	0.00016956
3597.55	0.0002952
3607.19	0.0004022
3616.84	0.000575
3626.48	0.0004029
3636.13	0.000423
3645.77	0.0005983
3655.42	0.0003269
3665.06	0.0003482
3674.71	0.0006339
3684.35	0.0004979
3694	0.0004149
3703.64	0.0004156
3713.29	0.0004192
3722.93	0.0004128
3732.58	0.0003506
3742.22	0.00017504
3751.86	0.0003895
3761.51	0.0004072
3771.15	0.0004772
3780.8	0.0005382
3790.44	0.0003471
3800.09	0.0004212
3809.73	0.0001386
3819.38	0.00023301
3829.02	0.00025315
3838.67	0.0003859
3848.31	0.0004695
3857.96	0.0007121
3867.6	0.0003107
3877.25	0.0006115
3886.89	0.0004151
3896.54	0.0004483
3906.18	0.0004029
3915.83	0.0002788
3925.47	0.0003626
3935.12	0.0002999
3944.76	0.0004438
3954.41	0.0005309
3964.05	0.000404
3973.69	0.0003842
3983.34	0.0002673
3992.98	0.000399
