Infrared Spectrum: P-CRESOL, 2-PROPENTYL-
Formula: C10 H12 O
CAS: 53889-94-4
State: LIQUID
Class: COBLENTZ
Instrument: Not specified, most likely a prism, grating, or hybrid spectrometer.
Sampling: TRANSMISSION
Path length: 0.0025 CM CELL
Resolution: 4
Origin: TENNESSEE EASTMAN COMPANY, RESEARCH LABORATORIES
MICROMETERS	TRANSMITTANCE
2.04	0.844
2.07987	0.842
2.11973	0.844
2.1596	0.85
2.19946	0.854
2.23933	0.844
2.27919	0.827
2.31906	0.824
2.35893	0.84
2.39879	0.847
2.43866	0.849
2.47852	0.849
2.51839	0.849
2.55825	0.852
2.59812	0.852
2.63799	0.857
2.67785	0.855
2.71772	0.709
2.75758	0.527
2.79745	0.33
2.83731	0.145
2.87718	0.086
2.91705	0.058
2.95691	0.054
2.99678	0.061
3.03664	0.091
3.07651	0.154
3.11637	0.24
3.15624	0.383
3.19611	0.466
3.23597	0.502
3.27584	0.28
3.3157	0.27
3.35557	0.129
3.39543	0.116
3.4353	0.325
3.47517	0.271
3.51503	0.655
3.5549	0.747
3.59476	0.781
3.63463	0.764
3.67449	0.754
3.71436	0.791
3.75423	0.812
3.79409	0.83
3.83396	0.844
3.87382	0.832
3.91369	0.832
3.95355	0.832
3.99342	0.847
4.03329	0.852
4.07315	0.85
4.11302	0.855
4.15288	0.864
4.19275	0.882
4.23261	0.888
4.27248	0.887
4.31235	0.888
4.35221	0.91
4.39208	0.94
4.43194	0.945
4.47181	0.953
4.51167	0.958
4.55154	0.963
4.59141	0.963
4.63127	0.96
4.67114	0.958
4.711	0.958
4.75087	0.958
4.79073	0.948
4.8306	0.936
4.87047	0.938
4.91033	0.943
4.9502	0.932
4.99006	0.922
5.02993	0.927
5.06979	0.938
5.10966	0.948
5.14953	0.948
5.18939	0.943
5.22926	0.928
5.26912	0.885
5.30899	0.849
5.34885	0.854
5.38872	0.88
5.42859	0.877
5.46845	0.875
5.50832	0.875
5.54818	0.868
5.58805	0.779
5.62791	0.658
5.66778	0.477
5.70765	0.381
5.74751	0.369
5.78738	0.434
5.82724	0.56
5.86711	0.598
5.90697	0.739
5.94684	0.781
5.98671	0.774
6.02657	0.66
6.06644	0.601
6.1063	0.64
6.14617	0.577
6.18603	0.359
6.2259	0.422
6.26577	0.529
6.30563	0.679
6.3455	0.769
6.38536	0.777
6.42523	0.772
6.46509	0.719
6.50496	0.618
6.54483	0.369
6.58469	0.102
6.62456	0.054
6.66442	0.043
6.70429	0.189
6.74415	0.25
6.78402	0.199
6.82389	0.149
6.86375	0.094
6.90362	0.074
6.94348	0.102
6.98335	0.114
7.02321	0.134
7.06308	0.225
7.10295	0.354
7.14281	0.386
7.18268	0.338
7.22254	0.19
7.26241	0.137
7.30227	0.137
7.34214	0.137
7.38201	0.139
7.42187	0.144
7.46174	0.184
7.5016	0.192
7.54147	0.228
7.58133	0.364
7.6212	0.411
7.66107	0.411
7.70093	0.427
7.7408	0.341
7.78066	0.202
7.82053	0.217
7.86039	0.157
7.90026	0.063
7.94013	0.028
7.97999	0.023
8.01986	0.031
8.05972	0.041
8.09959	0.041
8.13945	0.039
8.17932	0.038
8.21919	0.029
8.25905	0.028
8.29892	0.029
8.33878	0.039
8.37865	0.043
8.41851	0.051
8.45838	0.061
8.49825	0.102
8.53811	0.169
8.57798	0.202
8.61784	0.192
8.65771	0.247
8.69757	0.364
8.73744	0.421
8.77731	0.424
8.81717	0.394
8.85704	0.384
8.8969	0.338
8.93677	0.197
8.97663	0.131
9.0165	0.215
9.05637	0.333
9.09623	0.406
9.1361	0.411
9.17596	0.533
9.21583	0.6
9.25569	0.64
9.29556	0.674
9.33543	0.699
9.37529	0.711
9.41516	0.713
9.45502	0.698
9.49489	0.658
9.53475	0.59
9.57462	0.543
9.61449	0.545
9.65435	0.577
9.69422	0.613
9.73408	0.62
9.77395	0.603
9.81381	0.56
9.85368	0.555
9.89355	0.555
9.93341	0.555
9.97328	0.548
10.0131	0.529
10.053	0.497
10.0929	0.446
10.1327	0.353
10.1726	0.257
10.2125	0.14
10.2523	0.072
10.2922	0.061
10.3321	0.071
10.3719	0.124
10.4118	0.248
10.4517	0.409
10.4915	0.504
10.5314	0.55
10.5713	0.552
10.6111	0.56
10.651	0.583
10.6909	0.616
10.7307	0.636
10.7706	0.658
10.8105	0.658
10.8503	0.6
10.8902	0.519
10.9301	0.509
10.9699	0.577
11.0098	0.636
11.0497	0.669
11.0895	0.671
11.1294	0.661
11.1692	0.626
11.2091	0.583
11.249	0.547
11.2888	0.517
11.3287	0.507
11.3686	0.562
11.4084	0.653
11.4483	0.708
11.4882	0.723
11.528	0.728
11.5679	0.721
11.6078	0.703
11.6476	0.691
11.6875	0.696
11.7274	0.706
11.7672	0.691
11.8071	0.645
11.847	0.616
11.8868	0.606
11.9267	0.567
11.9666	0.517
12.0064	0.427
12.0463	0.338
12.0862	0.227
12.126	0.135
12.1659	0.071
12.2058	0.041
12.2456	0.029
12.2855	0.026
12.3254	0.028
12.3652	0.039
12.4051	0.061
12.445	0.089
12.4848	0.152
12.5247	0.283
12.5645	0.401
12.6044	0.457
12.6443	0.477
12.6841	0.502
12.724	0.537
12.7639	0.543
12.8037	0.505
12.8436	0.461
12.8835	0.399
12.9233	0.369
12.9632	0.384
13.0031	0.442
13.0429	0.497
13.0828	0.517
13.1227	0.522
13.1625	0.524
13.2024	0.53
13.2423	0.543
13.2821	0.55
13.322	0.555
13.3619	0.553
13.4017	0.537
13.4416	0.504
13.4815	0.509
13.5213	0.53
13.5612	0.537
13.6011	0.515
13.6409	0.462
13.6808	0.398
13.7207	0.379
13.7605	0.427
13.8004	0.49
13.8403	0.517
13.8801	0.545
13.92	0.553
13.9598	0.557
13.9997	0.558
14.0396	0.56
14.0794	0.558
14.1193	0.548
14.1592	0.529
14.199	0.5
14.2389	0.489
14.2788	0.484
14.3186	0.484
14.3585	0.487
14.3984	0.497
14.4382	0.509
14.4781	0.52
14.518	0.53
14.5578	0.54
14.5977	0.542
14.6376	0.543
14.6774	0.543
14.7173	0.54
14.7572	0.54
14.797	0.537
14.8369	0.532
14.8768	0.524
14.9166	0.519
14.9565	0.517
14.9964	0.51
15.0362	0.497
15.0761	0.48
15.116	0.474
15.1558	0.467
15.1957	0.461
15.2356	0.456
15.2754	0.456
15.3153	0.456
15.3551	0.456
15.395	0.456
15.4349	0.457
15.4747	0.457
15.5146	0.457
15.5545	0.457
15.5943	0.457
15.6342	0.457
15.6741	0.457
15.7139	0.457
15.7538	0.457
15.7937	0.457
15.8335	0.457
15.8734	0.457
15.9133	0.457
15.9531	0.457
15.993	0.457
