Infrared Spectrum: 3-Toluoylacetonitrile
Formula: C 10 H 9 N O
CAS: 53882-81-8
State: gas
Origin: EPA-IR VAPOR PHASE LIBRARY
1/CM	ABSORBANCE
549.8	0.002223
559.445	0.004663
569.09	0.008443
578.734	0.008783
588.379	0.006933
598.024	0.004503
607.669	0.003223
617.313	0.002583
626.958	0.002163
636.603	0.002383
646.248	0.002213
655.893	0.004753
665.537	0.008843
675.182	0.011053
684.827	0.015843
694.472	0.015703
704.116	0.011243
713.761	0.011173
723.406	0.012863
733.051	0.011083
742.695	0.008703
752.34	0.008533
761.985	0.011723
771.63	0.016793
781.275	0.017583
790.919	0.015563
800.564	0.008653
810.209	0.004343
819.854	0.002943
829.498	0.002673
839.143	0.004653
848.788	0.005093
858.433	0.004383
868.078	0.004683
877.722	0.004233
887.367	0.004423
897.012	0.004403
906.657	0.004683
916.301	0.004353
925.946	0.005653
935.591	0.006603
945.236	0.005103
954.88	0.003303
964.525	0.002563
974.17	0.003213
983.815	0.004543
993.46	0.005783
1003.1	0.005613
1012.75	0.006953
1022.39	0.009553
1032.04	0.015103
1041.68	0.016503
1051.33	0.012903
1060.97	0.008583
1070.62	0.004383
1080.26	0.003593
1089.91	0.004033
1099.55	0.003673
1109.2	0.003113
1118.84	0.002953
1128.49	0.003473
1138.13	0.006043
1147.78	0.015243
1157.42	0.033813
1167.07	0.031353
1176.71	0.022693
1186.36	0.016323
1196	0.010623
1205.64	0.010173
1215.29	0.007723
1224.93	0.009963
1234.58	0.013563
1244.22	0.021503
1253.87	0.027003
1263.51	0.045673
1273.16	0.069663
1282.8	0.058173
1292.45	0.034533
1302.09	0.024193
1311.74	0.022833
1321.38	0.022503
1331.03	0.015943
1340.67	0.008883
1350.32	0.006113
1359.96	0.005303
1369.61	0.005523
1379.25	0.006063
1388.9	0.006963
1398.54	0.007953
1408.18	0.011793
1417.83	0.017343
1427.47	0.018663
1437.12	0.016003
1446.76	0.010293
1456.41	0.006673
1466.05	0.006743
1475.7	0.007433
1485.34	0.008383
1494.99	0.006183
1504.63	0.004203
1514.28	0.003873
1523.92	0.003863
1533.57	0.004033
1543.21	0.003683
1552.86	0.003803
1562.5	0.005033
1572.15	0.008463
1581.79	0.015023
1591.44	0.015553
1601.08	0.012913
1610.73	0.011613
1620.37	0.008183
1630.01	0.005633
1639.66	0.004183
1649.3	0.004633
1658.95	0.006043
1668.59	0.008383
1678.24	0.012223
1687.88	0.021703
1697.53	0.049173
1707.17	0.093083
1716.82	0.103393
1726.46	0.060243
1736.11	0.024223
1745.75	0.012363
1755.4	0.007723
1765.04	0.005623
1774.69	0.004183
1784.33	0.003343
1793.98	0.003083
1803.62	0.002853
1813.27	0.002723
1822.91	0.002363
1832.55	0.002213
1842.2	0.002193
1851.84	0.002373
1861.49	0.002453
1871.13	0.002453
1880.78	0.001933
1890.42	0.001913
1900.07	0.001983
1909.71	0.0014584
1919.36	0.0014024
1929	0.0015261
1938.65	0.001793
1948.29	0.001923
1957.94	0.0016419
1967.58	0.0013482
1977.23	0.0012255
1986.87	0.001271
1996.52	0.0008355
2006.16	0.001124
2015.81	0.0010217
2025.45	0.0010422
2035.1	0.000606
2044.74	0.0009101
2054.38	0.0009904
2064.03	0.0008264
2073.67	0.0008746
2083.32	0.0008624
2092.96	0.0009224
2102.61	0.0008292
2112.25	0.0010494
2121.9	0.000732197
2131.54	0.0009074
2141.19	0.0009429
2150.83	0.0009277
2160.48	0.0009425
2170.12	0.0010178
2179.77	0.0008619
2189.41	0.0009611
2199.06	0.0013375
2208.7	0.001733
2218.35	0.0013013
2227.99	0.0010309
2237.64	0.0011634
2247.28	0.002093
2256.92	0.002643
2266.57	0.001903
2276.21	0.0012499
2285.86	0.0010953
2295.5	0.00075264
2305.15	0.0010242
2314.79	0.0006814
2324.44	0.0009206
2334.08	0.0010269
2343.73	0.0011723
2353.37	0.0011009
2363.02	0.0011463
2372.66	0.0010751
2382.31	0.0010002
2391.95	0.0010854
2401.6	0.0010169
2411.24	0.00079035
2420.89	0.0009688
2430.53	0.00077446
2440.18	0.0009671
2449.82	0.0010346
2459.47	0.0008255
2469.11	0.0008756
2478.75	0.0011528
2488.4	0.0008547
2498.04	0.00079872
2507.69	0.0008397
2517.33	0.0007089
2526.98	0.0010638
2536.62	0.0011652
2546.27	0.0012176
2555.91	0.0011607
2565.56	0.0014127
2575.2	0.0014201
2584.85	0.0014341
2594.49	0.001258
2604.14	0.0013649
2613.78	0.0011097
2623.43	0.0007052
2633.07	0.0010192
2642.72	0.00095
2652.36	0.0010725
2662.01	0.0009656
2671.65	0.0008387
2681.29	0.0009977
2690.94	0.0008266
2700.58	0.0006868
2710.23	0.0008365
2719.87	0.0009419
2729.52	0.001048
2739.16	0.0012253
2748.81	0.0014281
2758.45	0.0012875
2768.1	0.0012034
2777.74	0.00075406
2787.39	0.0008506
2797.03	0.0011378
2806.68	0.0011345
2816.32	0.0013312
2825.97	0.0015568
2835.61	0.002093
2845.26	0.002333
2854.9	0.003153
2864.55	0.004533
2874.19	0.006203
2883.84	0.006693
2893.48	0.005883
2903.12	0.006343
2912.77	0.007573
2922.41	0.010943
2932.06	0.014903
2941.7	0.012993
2951.35	0.008533
2960.99	0.006403
2970.64	0.004733
2980.28	0.004493
2989.93	0.005193
2999.57	0.006173
3009.22	0.007453
3018.86	0.008273
3028.51	0.010553
3038.15	0.012443
3047.8	0.012833
3057.44	0.012723
3067.09	0.012343
3076.73	0.010333
3086.38	0.007203
3096.02	0.005703
3105.67	0.004393
3115.31	0.002373
3124.95	0.0009887
3134.6	0.00098
3144.24	0.000344
3153.89	0.001191
3163.53	0.0007121
3173.18	0.0013068
3182.82	0.0016542
3192.47	0.0012416
3202.11	0.0012233
3211.76	0.0009349
3221.4	0.000548
3231.05	0.000621
3240.69	0.00074485
3250.34	0.0012467
3259.98	0.0010379
3269.63	0.000553
3279.27	0.0010262
3288.92	0.0013689
3298.56	0.0007102
3308.21	0.00079594
3317.85	0.00078412
3327.49	0.00074777
3337.14	0.00079206
3346.78	0.000730405
3356.43	0.0010338
3366.07	0.000594
3375.72	0.0009921
3385.36	0.0013787
3395.01	0.002293
3404.65	0.002443
3414.3	0.0015801
3423.94	0.0012096
3433.59	0.0013305
3443.23	0.0011493
3452.88	0.00080936
3462.52	0.0008124
3472.17	0.0009392
3481.81	0.000207
3491.46	0.00054
3501.1	0.000517
3510.75	0.000474
3520.39	0.000599
3530.04	0.0006944
3539.68	0.0013488
3549.32	0.0015444
3558.97	0.0008352
3568.61	0.000438
3578.26	0.000328
3587.9	0.00051
3597.55	0.000464
3607.19	0.000549
3616.84	0
3626.48	0.0009908
3636.13	0.000579
3645.77	0.000913
3655.42	0.000543
3665.06	0.000198
3674.71	0.00074641
3684.35	0.000608
3694	0.000482
3703.64	0.000549
3713.29	0.0010413
3722.93	0.000372
3732.58	0.00081981
3742.22	0.0008359
3751.86	0.00080776
3761.51	0.00071731
3771.15	0.0009636
3780.8	0.000148
3790.44	0.0008543
3800.09	5e-05
3809.73	0.000162
3819.38	0.0007056
3829.02	0.000643
3838.67	0.00077054
3848.31	0.000883
3857.96	0.000608
3867.6	0.0009291
3877.25	0.000436
3886.89	0.000431
3896.54	0.000203
3906.18	0.00038
3915.83	0.0007013
3925.47	0.000133
3935.12	7.5e-05
3944.76	0.0006864
3954.41	0.000541
3964.05	0.000528
3973.69	0.0009541
3983.34	0.000318
3992.98	0.0009114
