Infrared Spectrum: N,N-Dimethyl-4,4'-azodianiline
Formula: C 14 H 16 N 4
CAS: 539-17-3
State: gas
Origin: EPA-IR VAPOR PHASE LIBRARY
1/CM	ABSORBANCE
549.8	0.00489
559.445	0.00275
569.09	0.00221
578.734	0.00189
588.379	0.00164
598.024	0.00147
607.669	0.00166
617.313	0.00201
626.958	0.00225
636.603	0.00354
646.248	0.00507
655.893	0.0057
665.537	0.00557
675.182	0.00533
684.827	0.0046
694.472	0.00362
704.116	0.00305
713.761	0.00259
723.406	0.0026
733.051	0.00253
742.695	0.0022
752.34	0.00189
761.985	0.00205
771.63	0.00217
781.275	0.00238
790.919	0.00242
800.564	0.00285
810.209	0.00373
819.854	0.00743
829.498	0.01064
839.143	0.00713
848.788	0.00398
858.433	0.00243
868.078	0.00172
877.722	0.00136
887.367	0.00131
897.012	0.00143
906.657	0.00125
916.301	0.00143
925.946	0.00187
935.591	0.00363
945.236	0.00708
954.88	0.00302
964.525	0.00164
974.17	0.00126
983.815	0.00142
993.46	0.00128
1003.1	0.0015
1012.75	0.00138
1022.39	0.00121
1032.04	0.00126
1041.68	0.00219
1051.33	0.00235
1060.97	0.00368
1070.62	0.00253
1080.26	0.00286
1089.91	0.00338
1099.55	0.00368
1109.2	0.00403
1118.84	0.00512
1128.49	0.00626
1138.13	0.00943
1147.78	0.02048
1157.42	0.03316
1167.07	0.00831
1176.71	0.00497
1186.36	0.00363
1196	0.00397
1205.64	0.00391
1215.29	0.005
1224.93	0.00465
1234.58	0.00435
1244.22	0.00419
1253.87	0.00461
1263.51	0.00863
1273.16	0.01646
1282.8	0.01111
1292.45	0.00427
1302.09	0.00379
1311.74	0.00428
1321.38	0.00506
1331.03	0.00751
1340.67	0.0137
1350.32	0.01779
1359.96	0.01097
1369.61	0.00579
1379.25	0.00369
1388.9	0.00282
1398.54	0.00252
1408.18	0.00279
1417.83	0.00294
1427.47	0.00318
1437.12	0.00413
1446.76	0.00532
1456.41	0.0041
1466.05	0.00386
1475.7	0.00483
1485.34	0.00617
1494.99	0.0118
1504.63	0.02786
1514.28	0.02045
1523.92	0.0087
1533.57	0.0054
1543.21	0.00459
1552.86	0.00508
1562.5	0.00767
1572.15	0.01069
1581.79	0.01633
1591.44	0.02939
1601.08	0.0393
1610.73	0.02305
1620.37	0.01953
1630.01	0.01349
1639.66	0.00589
1649.3	0.00346
1658.95	0.00253
1668.59	0.00204
1678.24	0.00178
1687.88	0.00165
1697.53	0.00154
1707.17	0.00137
1716.82	0.00116
1726.46	0.00113
1736.11	0.0010288
1745.75	0.00113
1755.4	0.0009723
1765.04	0.000845
1774.69	0.0007727
1784.33	0.0007981
1793.98	0.0007618
1803.62	0.0006653
1813.27	0.0006568
1822.91	0.0006559
1832.55	0.0007634
1842.2	0.0008312
1851.84	0.0007698
1861.49	0.0009585
1871.13	0.00116
1880.78	0.00125
1890.42	0.00115
1900.07	0.0009263
1909.71	0.0007966
1919.36	0.0008346
1929	0.0008211
1938.65	0.0007498
1948.29	0.0008129
1957.94	0.0006813
1967.58	0.0006418
1977.23	0.0006151
1986.87	0.0005997
1996.52	0.0006563
2006.16	0.0007556
2015.81	0.0006623
2025.45	0.0006067
2035.1	0.0005581
2044.74	0.0006567
2054.38	0.0007182
2064.03	0.0008478
2073.67	0.0007532
2083.32	0.0006471
2092.96	0.0006482
2102.61	0.0005853
2112.25	0.000507
2121.9	0.0005194
2131.54	0.0004689
2141.19	0.0005452
2150.83	0.0004806
2160.48	0.0004189
2170.12	0.0004506
2179.77	0.0004552
2189.41	0.0004023
2199.06	0.0004191
2208.7	0.0003637
2218.35	0.0005179
2227.99	0.0005564
2237.64	0.0005093
2247.28	0.0004238
2256.92	0.0004892
2266.57	0.0004896
2276.21	0.0005905
2285.86	0.000503
2295.5	0.0005172
2305.15	0.0005309
2314.79	0.0005542
2324.44	0.0004924
2334.08	0.0004381
2343.73	0.0004497
2353.37	0.0004681
2363.02	0.000448
2372.66	0.0004655
2382.31	0.0005883
2391.95	0.0004994
2401.6	0.0005069
2411.24	0.0005712
2420.89	0.0005949
2430.53	0.0005764
2440.18	0.0006321
2449.82	0.0004777
2459.47	0.0004883
2469.11	0.0005911
2478.75	0.0005836
2488.4	0.0004616
2498.04	0.0005811
2507.69	0.0006878
2517.33	0.0006487
2526.98	0.0005711
2536.62	0.0006704
2546.27	0.0006844
2555.91	0.0007609
2565.56	0.00066
2575.2	0.0006635
2584.85	0.000743
2594.49	0.0009013
2604.14	0.0009419
2613.78	0.0010191
2623.43	0.0009508
2633.07	0.0008051
2642.72	0.0007645
2652.36	0.000824
2662.01	0.000765
2671.65	0.0006144
2681.29	0.0007389
2690.94	0.0007426
2700.58	0.0007594
2710.23	0.0007511
2719.87	0.0009194
2729.52	0.0009553
2739.16	0.0011029
2748.81	0.00118
2758.45	0.00134
2768.1	0.00151
2777.74	0.00215
2787.39	0.00295
2797.03	0.0044
2806.68	0.00533
2816.32	0.00451
2825.97	0.00372
2835.61	0.00369
2845.26	0.00423
2854.9	0.00458
2864.55	0.00472
2874.19	0.00432
2883.84	0.00444
2893.48	0.00442
2903.12	0.00448
2912.77	0.00443
2922.41	0.00416
2932.06	0.00461
2941.7	0.00504
2951.35	0.00488
2960.99	0.00465
2970.64	0.00395
2980.28	0.00352
2989.93	0.00353
2999.57	0.00363
3009.22	0.00338
3018.86	0.00331
3028.51	0.00397
3038.15	0.00462
3047.8	0.00413
3057.44	0.00325
3067.09	0.00314
3076.73	0.00266
3086.38	0.00264
3096.02	0.00216
3105.67	0.00173
3115.31	0.00115
3124.95	0.0008964
3134.6	0.0005874
3144.24	0.0005398
3153.89	0.0005672
3163.53	0.0004542
3173.18	0.0003101
3182.82	0.0004191
3192.47	0.0005005
3202.11	0.0004013
3211.76	0.0007315
3221.4	0.0004699
3231.05	0.0004125
3240.69	0.0002842
3250.34	0.0003111
3259.98	0.0002858
3269.63	0.0003046
3279.27	0.00021333
3288.92	7e-06
3298.56	0.0003594
3308.21	0.0002958
3317.85	0.00022981
3327.49	0.0005096
3337.14	0.00017156
3346.78	0.00016117
3356.43	0.0005047
3366.07	0.0004981
3375.72	0.0005304
3385.36	0.0007378
3395.01	0.0011294
3404.65	0.00207
3414.3	0.00246
3423.94	0.00248
3433.59	0.0010958
3443.23	0.000459
3452.88	0.000554
3462.52	0.0005697
3472.17	0.000487
3481.81	0.0006283
3491.46	0.0008735
3501.1	0.0007946
3510.75	0.0008249
3520.39	0.000698
3530.04	0.0003245
3539.68	0.0004025
3549.32	0.0004409
3558.97	0.0002899
3568.61	0.00022048
3578.26	0.0003434
3587.9	0.00012374
3597.55	0.00020487
3607.19	0.0003086
3616.84	0.0004651
3626.48	0.00017457
3636.13	0.00019417
3645.77	0.00019345
3655.42	0.0003525
3665.06	0.00018865
3674.71	0.000286
3684.35	0.0001054
3694	0.000301
3703.64	0.0002586
3713.29	0.0002685
3722.93	0.0002704
3732.58	0.0002181
3742.22	0.00019646
3751.86	0.0003202
3761.51	0.0003705
3771.15	0.00019217
3780.8	0.00012293
3790.44	9.36e-05
3800.09	0.00021428
3809.73	0.0002733
3819.38	0.0004624
3829.02	0.0005324
3838.67	0.0002377
3848.31	0.0003365
3857.96	0.0004667
3867.6	0.0003967
3877.25	0.0003135
3886.89	0.000401
3896.54	0.0002553
3906.18	0.0004248
3915.83	0.00019264
3925.47	0.0003367
3935.12	0.0003476
3944.76	0.0002331
3954.41	0.0003074
3964.05	0.0004873
3973.69	0.0003759
3983.34	0.00016142
3992.98	0.0003024
