Infrared Spectrum: LEVULINIC ACID, ETHYL ESTER
Formula: C7 H12 O3
CAS: 539-88-8
State: LIQUID (NEAT)
Boiling point: 84-85 C AT 9 mmHg
Class: COBLENTZ III
Instrument: BAIRD (PRISM)
Instrument parameters: NaCl PRISM
Sampling: TRANSMISSION
Path length: 0.005 CM
Resolution: 2
Origin: WYANDOTTE CHEMICALS CORP.
MICROMETERS	TRANSMITTANCE
1.947	0.948
1.98531	0.948
2.02361	0.948
2.06192	0.948
2.10023	0.943
2.13854	0.91
2.17684	0.871
2.21515	0.88
2.25346	0.898
2.29176	0.898
2.33007	0.901
2.36838	0.916
2.40668	0.929
2.44499	0.938
2.4833	0.947
2.52161	0.95
2.55991	0.959
2.59822	0.961
2.63653	0.965
2.67483	0.931
2.71314	0.875
2.75145	0.875
2.78975	0.857
2.82806	0.86
2.86637	0.828
2.90468	0.785
2.94298	0.808
2.98129	0.894
3.0196	0.947
3.0579	0.952
3.09621	0.935
3.13452	0.926
3.17282	0.908
3.21113	0.865
3.24944	0.818
3.28775	0.681
3.32605	0.154
3.36436	0.079
3.40267	0.103
3.44097	0.217
3.47928	0.503
3.51759	0.69
3.55589	0.772
3.5942	0.854
3.63251	0.894
3.67082	0.918
3.70912	0.942
3.74743	0.959
3.78574	0.965
3.82404	0.977
3.86235	0.979
3.90066	0.982
3.93896	0.979
3.97727	0.982
4.01558	0.976
4.05389	0.98
4.09219	0.982
4.1305	0.98
4.16881	0.978
4.20711	0.968
4.24542	0.962
4.28373	0.959
4.32203	0.964
4.36034	0.965
4.39865	0.966
4.43696	0.976
4.47526	0.982
4.51357	0.986
4.55188	0.988
4.59018	0.988
4.62849	0.986
4.6668	0.989
4.7051	0.989
4.74341	0.979
4.78172	0.977
4.82003	0.971
4.85833	0.961
4.89664	0.971
4.93495	0.98
4.97325	0.978
5.01156	0.961
5.04987	0.962
5.08817	0.965
5.12648	0.965
5.16479	0.974
5.2031	0.97
5.2414	0.965
5.27971	0.966
5.31802	0.958
5.35632	0.942
5.39463	0.937
5.43294	0.93
5.47124	0.924
5.50955	0.889
5.54786	0.845
5.58617	0.796
5.62447	0.691
5.66278	0.563
5.70109	0.375
5.73939	0.141
5.7777	0.092
5.81601	0.056
5.85431	0.039
5.89262	0.043
5.93093	0.065
5.96924	0.134
6.00754	0.312
6.04585	0.44
6.08416	0.532
6.12246	0.605
6.16077	0.665
6.19908	0.732
6.23738	0.769
6.27569	0.781
6.314	0.796
6.35231	0.797
6.39061	0.802
6.42892	0.803
6.46723	0.8
6.50553	0.788
6.54384	0.77
6.58215	0.762
6.62046	0.75
6.65876	0.708
6.69707	0.628
6.73538	0.37
6.77368	0.242
6.81199	0.179
6.8503	0.161
6.8886	0.139
6.92691	0.089
6.96522	0.082
7.00353	0.061
7.04183	0.04
7.08014	0.029
7.11845	0.019
7.15675	0.019
7.19506	0.02
7.23337	0.022
7.27167	0.02
7.30998	0.013
7.34829	0.016
7.3866	0.017
7.4249	0.019
7.46321	0.025
7.50152	0.059
7.53982	0.091
7.57813	0.076
7.61644	0.051
7.65474	0.034
7.69305	0.028
7.73136	0.038
7.76967	0.049
7.80797	0.059
7.84628	0.052
7.88459	0.038
7.92289	0.027
7.9612	0.011
7.99951	0.011
8.03781	0.022
8.07612	0.019
8.11443	0.021
8.15274	0.017
8.19104	0.017
8.22935	0.015
8.26766	0.011
8.30596	0.014
8.34427	0.017
8.38258	0.02
8.42088	0.019
8.45919	0.016
8.4975	0.01
8.53581	0.019
8.57411	0.017
8.61242	0.013
8.65073	0.016
8.68903	0.019
8.72734	0.021
8.76565	0.025
8.80395	0.057
8.84226	0.137
8.88057	0.229
8.91888	0.268
8.95718	0.284
8.99549	0.276
9.0338	0.272
9.0721	0.267
9.11041	0.191
9.14872	0.177
9.18702	0.233
9.22533	0.292
9.26364	0.297
9.30195	0.254
9.34025	0.184
9.37856	0.153
9.41687	0.152
9.45517	0.153
9.49348	0.159
9.53179	0.179
9.57009	0.159
9.6084	0.097
9.64671	0.069
9.68502	0.05
9.72332	0.043
9.76163	0.031
9.79994	0.035
9.83824	0.07
9.87655	0.129
9.91486	0.245
9.95316	0.35
9.99147	0.444
10.0298	0.502
10.0681	0.52
10.1064	0.476
10.1447	0.368
10.183	0.316
10.2213	0.335
10.2596	0.441
10.2979	0.545
10.3362	0.605
10.3745	0.653
10.4128	0.687
10.4512	0.719
10.4895	0.739
10.5278	0.745
10.5661	0.738
10.6044	0.721
10.6427	0.676
10.681	0.613
10.7193	0.558
10.7576	0.52
10.7959	0.498
10.8342	0.479
10.8725	0.466
10.9108	0.438
10.9491	0.442
10.9875	0.474
11.0258	0.541
11.0641	0.597
11.1024	0.676
11.1407	0.764
11.179	0.799
11.2173	0.828
11.2556	0.844
11.2939	0.848
11.3322	0.841
11.3705	0.811
11.4088	0.744
11.4471	0.615
11.4854	0.484
11.5238	0.425
11.5621	0.435
11.6004	0.489
11.6387	0.558
11.677	0.6
11.7153	0.639
11.7536	0.654
11.7919	0.679
11.8302	0.711
11.8685	0.726
11.9068	0.73
11.9451	0.729
11.9834	0.711
12.0217	0.693
12.0601	0.667
12.0984	0.648
12.1367	0.648
12.175	0.664
12.2133	0.687
12.2516	0.702
12.2899	0.719
12.3282	0.735
12.3665	0.741
12.4048	0.747
12.4431	0.754
12.4814	0.758
12.5197	0.775
12.558	0.78
12.5963	0.764
12.6347	0.73
12.673	0.69
12.7113	0.649
12.7496	0.611
12.7879	0.599
12.8262	0.603
12.8645	0.637
12.9028	0.67
12.9411	0.679
12.9794	0.659
13.0177	0.592
13.056	0.501
13.0943	0.455
13.1326	0.454
13.171	0.516
13.2093	0.569
13.2476	0.616
13.2859	0.665
13.3242	0.699
13.3625	0.739
13.4008	0.775
13.4391	0.83
13.4774	0.862
13.5157	0.888
13.554	0.912
13.5923	0.924
13.6306	0.938
13.6689	0.948
13.7073	0.955
13.7456	0.96
13.7839	0.964
13.8222	0.967
13.8605	0.971
13.8988	0.973
13.9371	0.973
13.9754	0.973
14.0137	0.976
14.052	0.976
14.0903	0.971
14.1286	0.971
14.1669	0.97
14.2052	0.968
14.2435	0.97
14.2819	0.97
14.3202	0.96
14.3585	0.959
14.3968	0.958
14.4351	0.956
14.4734	0.954
14.5117	0.95
14.55	0.95
14.5883	0.95
14.6266	0.947
14.6649	0.954
14.7032	0.949
14.7415	0.944
14.7798	0.941
14.8182	0.94
14.8565	0.932
14.8948	0.93
14.9331	0.929
14.9714	0.923
15.0097	0.91
15.048	0.904
15.0863	0.9
15.1246	0.898
15.1629	0.894
15.2012	0.889
15.2395	0.887
15.2778	0.887
15.3161	0.878
15.3545	0.875
15.3928	0.875
15.4311	0.875
15.4694	0.87
15.5077	0.877
15.546	0.876
15.5843	0.874
15.6226	0.872
15.6609	0.874
15.6992	0.869
15.7375	0.865
15.7758	0.863
15.8141	0.857
15.8524	0.852
15.8908	0.845
15.9291	0.834
