Infrared Spectrum: p-Xylenediamine
Formula: C 8 H 12 N 2
CAS: 539-48-0
State: gas
Origin: EPA-IR VAPOR PHASE LIBRARY
1/CM	ABSORBANCE
549.9	0.05341
559.547	0.05535
569.193	0.05595
578.84	0.05582
588.486	0.05372
598.133	0.04948
607.779	0.04555
617.426	0.04377
627.072	0.04451
636.719	0.04694
646.365	0.05141
656.012	0.05803
665.658	0.06749
675.305	0.08019
684.951	0.09532
694.598	0.10749
704.245	0.11535
713.891	0.12493
723.538	0.13662
733.184	0.14829
742.831	0.16197
752.477	0.18232
762.124	0.21129
771.77	0.2398
781.417	0.25502
791.063	0.25321
800.71	0.24278
810.356	0.22681
820.003	0.2034
829.649	0.18097
839.296	0.16224
848.943	0.14523
858.589	0.12479
868.236	0.10186
877.882	0.07982
887.529	0.06479
897.175	0.05418
906.822	0.04718
916.468	0.04229
926.115	0.04038
935.761	0.03842
945.408	0.03774
955.054	0.03822
964.701	0.04194
974.347	0.03852
983.994	0.03851
993.64	0.04131
1003.29	0.05035
1012.93	0.07318
1022.58	0.07335
1032.23	0.07043
1041.87	0.07258
1051.52	0.057
1061.17	0.04356
1070.81	0.0361
1080.46	0.02956
1090.11	0.02454
1099.75	0.02118
1109.4	0.0199
1119.05	0.01947
1128.69	0.01934
1138.34	0.01953
1147.99	0.01814
1157.63	0.01812
1167.28	0.01743
1176.92	0.01889
1186.57	0.0199
1196.22	0.024
1205.86	0.02616
1215.51	0.02224
1225.16	0.01852
1234.8	0.01939
1244.45	0.0209
1254.1	0.02191
1263.74	0.02188
1273.39	0.02087
1283.04	0.02061
1292.68	0.02175
1302.33	0.02465
1311.98	0.02919
1321.62	0.0351
1331.27	0.04218
1340.92	0.05061
1350.56	0.05841
1360.21	0.06745
1369.86	0.08126
1379.5	0.0884
1389.15	0.07498
1398.79	0.05682
1408.44	0.05146
1418.09	0.04947
1427.73	0.04153
1437.38	0.03064
1447.03	0.02541
1456.67	0.02842
1466.32	0.03205
1475.97	0.02703
1485.61	0.02142
1495.26	0.02605
1504.91	0.04497
1514.55	0.05119
1524.2	0.031
1533.85	0.02005
1543.49	0.01901
1553.14	0.01996
1562.79	0.02261
1572.43	0.02691
1582.08	0.03333
1591.73	0.04261
1601.37	0.05559
1611.02	0.07248
1620.67	0.08168
1630.31	0.07049
1639.96	0.05174
1649.6	0.03926
1659.25	0.02861
1668.9	0.02094
1678.54	0.01551
1688.19	0.01212
1697.84	0.01025
1707.48	0.00896
1717.13	0.00858
1726.78	0.0082
1736.42	0.00841
1746.07	0.00862
1755.72	0.00905
1765.36	0.00959
1775.01	0.01055
1784.66	0.01201
1794.3	0.01166
1803.95	0.00907
1813.6	0.00747
1823.24	0.00682
1832.89	0.00636
1842.54	0.00615
1852.18	0.00593
1861.83	0.00625
1871.47	0.00725
1881.12	0.0092
1890.77	0.01132
1900.41	0.0117
1910.06	0.00979
1919.71	0.00685
1929.35	0.00484
1939	0.0038016
1948.65	0.003254
1958.29	0.003033
1967.94	0.002871
1977.59	0.002676
1987.23	0.00245
1996.88	0.00234
2006.53	0.00231
2016.17	0.00224
2025.82	0.00216
2035.47	0.00203
2045.11	0.00197
2054.76	0.00195
2064.41	0.00197
2074.05	0.00189
2083.7	0.00182
2093.35	0.00176
2102.99	0.00171
2112.64	0.00165
2122.28	0.00164
2131.93	0.00163
2141.58	0.0017
2151.22	0.00171
2160.87	0.00175
2170.52	0.00178
2180.16	0.00179
2189.81	0.0018
2199.46	0.00184
2209.1	0.00198
2218.75	0.00213
2228.4	0.00211
2238.04	0.00211
2247.69	0.00211
2257.34	0.00216
2266.98	0.00227
2276.63	0.0024
2286.28	0.002585
2295.92	0.002718
2305.57	0.002681
2315.22	0.00247
2324.86	0.00222
2334.51	0.00198
2344.16	0.00179
2353.8	0.00165
2363.45	0.0016
2373.09	0.00154
2382.74	0.00142
2392.39	0.00131
2402.03	0.00122
2411.68	0.00123
2421.33	0.00125
2430.97	0.00125
2440.62	0.00124
2450.27	0.00126
2459.91	0.00134
2469.56	0.0013
2479.21	0.0014
2488.85	0.00147
2498.5	0.00159
2508.15	0.00169
2517.79	0.00181
2527.44	0.00187
2537.09	0.00195
2546.73	0.00195
2556.38	0.00206
2566.03	0.00228
2575.67	0.002588
2585.32	0.002955
2594.96	0.003278
2604.61	0.00355513
2614.26	0.0039107
2623.9	0.0042949
2633.55	0.00462
2643.2	0.00477
2652.84	0.00495
2662.49	0.00516
2672.14	0.00541
2681.78	0.00561
2691.43	0.00588
2701.08	0.00647
2710.72	0.00747
2720.37	0.00875
2730.02	0.01036
2739.66	0.01199
2749.31	0.01301
2758.96	0.01354
2768.6	0.01416
2778.25	0.01537
2787.9	0.01783
2797.54	0.02183
2807.19	0.02776
2816.84	0.03637
2826.48	0.04866
2836.13	0.06623
2845.77	0.08986
2855.42	0.11641
2865.07	0.13388
2874.71	0.1331
2884.36	0.122
2894.01	0.11643
2903.65	0.1153
2913.3	0.11104
2922.95	0.10907
2932.59	0.1117
2942.24	0.10681
2951.89	0.08613
2961.53	0.06099
2971.18	0.04467
2980.83	0.04044
2990.47	0.04464
3000.12	0.05224
3009.77	0.07009
3019.41	0.09962
3029.06	0.09891
3038.71	0.06973
3048.35	0.06045
3058	0.05407
3067.64	0.04246
3077.29	0.03193
3086.94	0.02593
3096.58	0.02012
3106.23	0.01346
3115.88	0.00846
3125.52	0.00635
3135.17	0.00464
3144.82	0.00245
3154.46	0.00115
3164.11	0.00075
3173.76	0.00038
3183.4	0.00044
3193.05	0.00052
3202.7	0.00063
3212.34	0.0007
3221.99	0.0008
3231.64	0.00071
3241.28	0.00048
3250.93	0.0003
3260.58	0.00034
3270.22	0.00015
3279.87	0.00035
3289.52	0.00011
3299.16	0.00056
3308.81	0.0007
3318.45	0.0015
3328.1	0.003017
3337.75	0.0066
3347.39	0.00888
3357.04	0.00645
3366.69	0.003346
3376.33	0.00201
3385.98	0.00184
3395.63	0.00207
3405.27	0.00243
3414.92	0.002885
3424.57	0.002988
3434.21	0.00246
3443.86	0.00177
3453.51	0.00134
3463.15	0.00083
3472.8	0.00074
3482.45	0.00061
3492.09	0.00056
3501.74	0.0005
3511.39	0.00052
3521.03	0.00057
3530.68	0.00069
3540.33	0.00073
3549.97	0.00069
3559.62	0.00068
3569.26	0.00042
3578.91	6e-05
3588.56	0.00079
3598.2	0.00093
3607.85	0.00121
3617.5	0.00107
3627.14	0.00135
3636.79	0.00137
3646.44	0.00146
3656.08	0.00177
3665.73	0.0017
3675.38	0.00157
3685.02	0.00137
3694.67	0.00143
3704.32	0.00124
3713.96	0.00132
3723.61	0.00122
3733.26	0.0014
3742.9	0.00159
3752.55	0.00131
3762.2	0.00125
3771.84	0.00133
3781.49	0.00126
3791.13	0.00144
3800.78	0.00152
3810.43	0.00141
3820.07	0.00153
3829.72	0.00178
3839.37	0.00182
3849.01	0.00168
3858.66	0.00182
3868.31	0.00199
3877.95	0.00231
3887.6	0.00189
3897.25	0.00192
3906.89	0.00196
3916.54	0.00209
3926.19	0.00192
3935.83	0.00179
3945.48	0.00185
3955.13	0.00179
3964.77	0.0017
3974.42	0.00177
3984.07	0.00174
3993.71	0.00181
