Infrared Spectrum: DI-ISO-BUTYL CARBONATE
Formula: C9 H18 O3
CAS: 539-92-4
State: LIQUID
Boiling point: 189-190 C
Class: COBLENTZ
Instrument: Not specified, most likely a prism, grating, or hybrid spectrometer.
Sampling: TRANSMISSION
Path length: 0.003 CM
Resolution: 4
Origin: WYANDOTTE CHEMICALS CORP., WYANDOTTE, MICHIGAN, USA
MICROMETERS	TRANSMITTANCE
2	0.945
2.0409	0.945
2.08179	0.945
2.12269	0.945
2.16359	0.93
2.20448	0.914
2.24538	0.916
2.28628	0.926
2.32717	0.933
2.36807	0.933
2.40897	0.95
2.44986	0.964
2.49076	0.96
2.53166	0.965
2.57255	0.965
2.61345	0.974
2.65435	0.988
2.69524	0.986
2.73614	0.986
2.77704	0.984
2.81793	0.965
2.85883	0.955
2.89973	0.93
2.94062	0.945
2.98152	0.937
3.02241	0.947
3.06331	0.947
3.10421	0.931
3.1451	0.899
3.186	0.872
3.2269	0.867
3.26779	0.84
3.30869	0.722
3.34959	0.102
3.39048	0.078
3.43138	0.163
3.47228	0.192
3.51317	0.593
3.55407	0.751
3.59497	0.824
3.63586	0.85
3.67676	0.84
3.71766	0.882
3.75855	0.904
3.79945	0.913
3.84035	0.921
3.88124	0.926
3.92214	0.931
3.96304	0.937
4.00393	0.93
4.04483	0.926
4.08573	0.93
4.12662	0.943
4.16752	0.931
4.20842	0.94
4.24931	0.923
4.29021	0.926
4.33111	0.938
4.372	0.945
4.4129	0.948
4.4538	0.948
4.49469	0.947
4.53559	0.94
4.57649	0.928
4.61738	0.93
4.65828	0.938
4.69918	0.952
4.74007	0.962
4.78097	0.965
4.82187	0.967
4.86276	0.964
4.90366	0.96
4.94455	0.96
4.98545	0.96
5.02635	0.96
5.06724	0.964
5.10814	0.967
5.14904	0.96
5.18993	0.957
5.23083	0.959
5.27173	0.962
5.31262	0.955
5.35352	0.945
5.39442	0.937
5.43531	0.926
5.47621	0.899
5.51711	0.841
5.558	0.799
5.5989	0.698
5.6398	0.489
5.68069	0.054
5.72159	0.032
5.76249	0.044
5.80338	0.348
5.84428	0.534
5.88518	0.646
5.92607	0.736
5.96697	0.778
6.00787	0.804
6.04876	0.824
6.08966	0.845
6.13056	0.853
6.17145	0.858
6.21235	0.85
6.25325	0.792
6.29414	0.79
6.33504	0.835
6.37594	0.853
6.41683	0.863
6.45773	0.858
6.49863	0.838
6.53952	0.823
6.58042	0.806
6.62132	0.758
6.66221	0.685
6.70311	0.515
6.74401	0.158
6.7849	0.073
6.8258	0.205
6.86669	0.392
6.90759	0.569
6.94849	0.649
6.98938	0.639
7.03028	0.53
7.07118	0.217
7.11207	0.071
7.15297	0.229
7.19387	0.18
7.23476	0.069
7.27566	0.144
7.31656	0.387
7.35745	0.562
7.39835	0.34
7.43925	0.324
7.48014	0.52
7.52104	0.539
7.56194	0.428
7.60283	0.151
7.64373	0.03
7.68463	0.059
7.72552	0.032
7.76642	0.022
7.80732	0.028
7.84821	0.013
7.88911	0.017
7.93001	0.027
7.9709	0.028
8.0118	0.022
8.0527	0.023
8.09359	0.028
8.13449	0.096
8.17539	0.214
8.21628	0.348
8.25718	0.467
8.29808	0.544
8.33897	0.591
8.37987	0.59
8.42077	0.506
8.46166	0.397
8.50256	0.45
8.54346	0.554
8.58435	0.608
8.62525	0.658
8.66615	0.697
8.70704	0.721
8.74794	0.729
8.78883	0.721
8.82973	0.724
8.87063	0.729
8.91152	0.715
8.95242	0.671
8.99332	0.647
9.03421	0.641
9.07511	0.617
9.11601	0.579
9.1569	0.581
9.1978	0.625
9.2387	0.685
9.27959	0.722
9.32049	0.75
9.36139	0.768
9.40228	0.784
9.44318	0.797
9.48408	0.799
9.52497	0.794
9.56587	0.785
9.60677	0.773
9.64766	0.758
9.68856	0.746
9.72946	0.712
9.77035	0.671
9.81125	0.653
9.85215	0.641
9.89304	0.617
9.93394	0.559
9.97484	0.452
10.0157	0.234
10.0566	0.074
10.0975	0.027
10.1384	0.023
10.1793	0.023
10.2202	0.03
10.2611	0.086
10.302	0.164
10.3429	0.226
10.3838	0.258
10.4247	0.285
10.4656	0.273
10.5065	0.272
10.5474	0.311
10.5883	0.301
10.6292	0.224
10.6701	0.244
10.711	0.294
10.7519	0.314
10.7928	0.348
10.8337	0.433
10.8746	0.472
10.9155	0.513
10.9564	0.53
10.9973	0.544
11.0381	0.571
11.079	0.61
11.1199	0.659
11.1608	0.692
11.2017	0.71
11.2426	0.739
11.2835	0.77
11.3244	0.79
11.3653	0.807
11.4062	0.814
11.4471	0.818
11.488	0.826
11.5289	0.835
11.5698	0.841
11.6107	0.853
11.6516	0.857
11.6925	0.86
11.7334	0.862
11.7743	0.86
11.8152	0.848
11.8561	0.838
11.897	0.829
11.9379	0.824
11.9788	0.819
12.0197	0.802
12.0606	0.777
12.1015	0.726
12.1424	0.666
12.1833	0.654
12.2241	0.702
12.265	0.746
12.3059	0.772
12.3468	0.767
12.3877	0.751
12.4286	0.715
12.4695	0.673
12.5104	0.588
12.5513	0.447
12.5922	0.238
12.6331	0.18
12.674	0.251
12.7149	0.404
12.7558	0.535
12.7967	0.634
12.8376	0.717
12.8785	0.767
12.9194	0.802
12.9603	0.816
13.0012	0.823
13.0421	0.831
13.083	0.858
13.1239	0.869
13.1648	0.875
13.2057	0.877
13.2466	0.884
13.2875	0.886
13.3284	0.892
13.3693	0.901
13.4102	0.901
13.451	0.903
13.4919	0.901
13.5328	0.906
13.5737	0.906
13.6146	0.908
13.6555	0.908
13.6964	0.908
13.7373	0.908
13.7782	0.908
13.8191	0.901
13.86	0.899
13.9009	0.897
13.9418	0.894
13.9827	0.894
14.0236	0.897
14.0645	0.901
14.1054	0.897
14.1463	0.901
14.1872	0.897
14.2281	0.897
14.269	0.899
14.3099	0.897
14.3508	0.894
14.3917	0.891
14.4326	0.891
14.4735	0.889
14.5144	0.884
14.5553	0.87
14.5962	0.869
14.637	0.867
14.6779	0.867
14.7188	0.863
14.7597	0.857
14.8006	0.855
14.8415	0.853
14.8824	0.852
14.9233	0.848
14.9642	0.836
15.0051	0.816
15.046	0.782
15.0869	0.795
15.1278	0.819
15.1687	0.824
15.2096	0.814
15.2505	0.806
15.2914	0.799
15.3323	0.79
15.3732	0.784
15.4141	0.78
15.455	0.77
15.4959	0.761
15.5368	0.756
15.5777	0.753
15.6186	0.748
15.6595	0.741
15.7004	0.731
15.7413	0.726
15.7822	0.715
15.823	0.705
15.8639	0.702
15.9048	0.695
15.9457	0.688
15.9866	0.681
