Infrared Spectrum: METHYL Alpha-MERCAPTOPROPIONATE
Formula: C4 H8 O2 S
CAS: 53907-46-3
Boiling point: 58-60 C AT 30 mmHg
Class: COBLENTZ
Instrument: Not specified, most likely a prism, grating, or hybrid spectrometer.
Sampling: TRANSMISSION
Path length: FILM
Resolution: 4
Origin: ARTHUR D. LITTLE, INC.
1/CM	TRANSMITTANCE
647.132	0.635
656.712	0.642
666.292	0.642
675.872	0.587
685.453	0.42
695.033	0.529
704.613	0.698
714.193	0.743
723.773	0.762
733.353	0.756
742.934	0.707
752.514	0.646
762.094	0.598
771.674	0.584
781.254	0.765
790.834	0.776
800.415	0.749
809.995	0.751
819.575	0.735
829.155	0.626
838.735	0.401
848.315	0.34
857.895	0.592
867.476	0.635
877.056	0.552
886.636	0.587
896.216	0.711
905.796	0.767
915.376	0.781
924.957	0.781
934.537	0.765
944.117	0.675
953.697	0.401
963.277	0.298
972.857	0.504
982.437	0.59
992.018	0.515
1001.6	0.322
1011.18	0.292
1020.76	0.418
1030.34	0.589
1039.92	0.571
1049.5	0.434
1059.08	0.152
1068.66	0.057
1078.24	0.136
1087.82	0.245
1097.4	0.195
1106.98	0.184
1116.56	0.338
1126.14	0.367
1135.72	0.258
1145.3	0.097
1154.88	0.014
1164.46	0.014
1174.04	0.017
1183.62	0.017
1193.2	0.019
1202.78	0.044
1212.36	0.041
1221.94	0.032
1231.52	0.035
1241.1	0.032
1250.68	0.028
1260.26	0.032
1269.84	0.083
1279.42	0.216
1289	0.271
1298.58	0.226
1308.16	0.141
1317.74	0.051
1327.32	0.049
1336.9	0.091
1346.48	0.287
1356.06	0.367
1365.64	0.277
1375.22	0.293
1384.8	0.5
1394.38	0.548
1403.96	0.513
1413.54	0.399
1423.12	0.227
1432.7	0.059
1442.28	0.035
1451.87	0.048
1461.45	0.134
1471.03	0.367
1480.61	0.524
1490.19	0.637
1499.77	0.677
1509.35	0.696
1518.93	0.698
1528.51	0.695
1538.09	0.696
1547.67	0.699
1557.25	0.714
1566.83	0.741
1576.41	0.747
1585.99	0.749
1595.57	0.744
1605.15	0.731
1614.73	0.719
1624.31	0.711
1633.89	0.709
1643.47	0.704
1653.05	0.686
1662.63	0.667
1672.21	0.605
1681.79	0.526
1691.37	0.378
1700.95	0.223
1710.53	0.146
1720.11	0.035
1729.69	0.017
1739.27	0.02
1748.85	0.024
1758.43	0.054
1768.01	0.221
1777.59	0.406
1787.17	0.502
1796.75	0.605
1806.33	0.669
1815.91	0.728
1825.49	0.765
1835.07	0.792
1844.65	0.808
1854.23	0.812
1863.81	0.817
1873.39	0.823
1882.97	0.825
1892.55	0.823
1902.13	0.813
1911.71	0.8
1921.29	0.794
1930.87	0.799
1940.45	0.802
1950.03	0.804
1959.61	0.802
1969.19	0.804
1978.77	0.812
1988.35	0.818
1997.93	0.817
2007.51	0.808
2017.09	0.789
2026.67	0.781
2036.25	0.783
2045.83	0.783
2055.41	0.788
2065	0.792
2074.58	0.799
2084.16	0.796
2093.74	0.794
2103.32	0.802
2112.9	0.815
2122.48	0.823
2132.06	0.825
2141.64	0.826
2151.22	0.826
2160.8	0.825
2170.38	0.825
2179.96	0.825
2189.54	0.825
2199.12	0.831
2208.7	0.837
2218.28	0.839
2227.86	0.841
2237.44	0.841
2247.02	0.839
2256.6	0.837
2266.18	0.831
2275.76	0.828
2285.34	0.82
2294.92	0.817
2304.5	0.813
2314.08	0.81
2323.66	0.81
2333.24	0.807
2342.82	0.804
2352.4	0.804
2361.98	0.804
2371.56	0.802
2381.14	0.8
2390.72	0.799
2400.3	0.797
2409.88	0.799
2419.46	0.802
2429.04	0.802
2438.62	0.797
2448.2	0.792
2457.78	0.786
2467.36	0.781
2476.94	0.773
2486.52	0.765
2496.1	0.752
2505.68	0.743
2515.26	0.725
2524.84	0.701
2534.42	0.667
2544	0.627
2553.58	0.555
2563.16	0.47
2572.74	0.428
2582.32	0.467
2591.9	0.579
2601.48	0.658
2611.06	0.707
2620.64	0.736
2630.22	0.744
2639.8	0.754
2649.38	0.765
2658.96	0.775
2668.54	0.781
2678.13	0.786
2687.71	0.791
2697.29	0.792
2706.87	0.791
2716.45	0.789
2726.03	0.788
2735.61	0.784
2745.19	0.784
2754.77	0.783
2764.35	0.786
2773.93	0.786
2783.51	0.781
2793.09	0.775
2802.67	0.768
2812.25	0.757
2821.83	0.735
2831.41	0.703
2840.99	0.669
2850.57	0.558
2860.15	0.598
2869.73	0.59
2879.31	0.465
2888.89	0.505
2898.47	0.5
2908.05	0.473
2917.63	0.459
2927.21	0.422
2936.79	0.282
2946.37	0.221
2955.95	0.16
2965.53	0.123
2975.11	0.215
2984.69	0.162
2994.27	0.168
3003.85	0.239
3013.43	0.329
3023.01	0.428
3032.59	0.473
3042.17	0.529
3051.75	0.606
3061.33	0.672
3070.91	0.699
3080.49	0.712
3090.07	0.727
3099.65	0.733
3109.23	0.736
3118.81	0.736
3128.39	0.736
3137.97	0.738
3147.55	0.738
3157.13	0.738
3166.71	0.736
3176.29	0.735
3185.87	0.733
3195.45	0.735
3205.03	0.733
3214.61	0.733
3224.19	0.733
3233.77	0.735
3243.35	0.735
3252.93	0.735
3262.51	0.735
3272.09	0.735
3281.67	0.735
3291.26	0.736
3300.84	0.738
3310.42	0.744
3320	0.747
3329.58	0.749
3339.16	0.751
3348.74	0.751
3358.32	0.754
3367.9	0.754
3377.48	0.756
3387.06	0.752
3396.64	0.752
3406.22	0.751
3415.8	0.747
3425.38	0.733
3434.96	0.717
3444.54	0.699
3454.12	0.678
3463.7	0.672
3473.28	0.683
3482.86	0.707
3492.44	0.735
3502.02	0.746
3511.6	0.749
3521.18	0.746
3530.76	0.738
3540.34	0.736
3549.92	0.735
3559.5	0.735
3569.08	0.738
3578.66	0.746
3588.24	0.749
3597.82	0.749
3607.4	0.751
3616.98	0.751
3626.56	0.749
3636.14	0.749
3645.72	0.751
3655.3	0.762
3664.88	0.768
3674.46	0.78
3684.04	0.802
3693.62	0.81
3703.2	0.812
3712.78	0.815
3722.36	0.817
3731.94	0.818
3741.52	0.817
3751.1	0.817
3760.68	0.815
3770.26	0.815
3779.84	0.815
3789.42	0.815
3799	0.813
3808.58	0.813
3818.16	0.813
3827.74	0.813
3837.32	0.813
3846.9	0.812
3856.48	0.812
3866.06	0.812
3875.64	0.81
3885.22	0.81
3894.8	0.81
3904.39	0.808
3913.97	0.807
3923.55	0.805
3933.13	0.804
3942.71	0.802
3952.29	0.802
3961.87	0.802
3971.45	0.802
3981.03	0.8
3990.61	0.8
