Infrared Spectrum: cis-1,1,3,4-Tetramethylcyclopentane
Formula: C 9 H 18
CAS: 53907-60-1
State: gas
Instrument: HP-GC/MS/IRD
Origin: NIST Mass Spectrometry Data Center
1/CM	ABSORBANCE
550	0.000387
562	0.000383
574	0.000262
586	0.000508
598	0.000171
610	3e-06
622	0.000312
634	0.000322
646	0.000304
658	0.000272
670	0.000246
682	0.000153
694	0.000166
706	0.000182
718	0.000219
730	0.000167
742	0.000112
754	0.000111
766	0.000197
778	0.000194
790	0.000201
802	0.000247
814	0.000264
826	0.000257
838	0.000281
850	0.000282
862	0.000239
874	0.000293
886	0.00042
898	0.000647
910	0.000852
922	0.000825
934	0.000533
946	0.000353
958	0.000298
970	0.000236
982	0.000326
994	0.000417
1006	0.000356
1018	0.00029
1030	0.000328
1042	0.000326
1054	0.000361
1066	0.000424
1078	0.000455
1090	0.000396
1102	0.000396
1114	0.000529
1126	0.000516
1138	0.000547
1150	0.00043
1162	0.000308
1174	0.000348
1186	0.00038
1198	0.000357
1210	0.000368
1222	0.000447
1234	0.00043
1246	0.00031
1258	0.000298
1270	0.000342
1282	0.000314
1294	0.000225
1306	0.000237
1318	0.000261
1330	0.000252
1342	0.000392
1354	0.000403
1366	0.000465
1378	0.000552
1390	0.000556
1402	0.000404
1414	0.000342
1426	0.000411
1438	0.000684
1450	0.000937
1462	0.000965
1474	0.000679
1486	0.000328
1498	0.000245
1510	0.000265
1522	0.000226
1534	0.00014
1546	0.000177
1558	0.000366
1570	0.000168
1582	0.000145
1594	0.000165
1606	0.000196
1618	0.000308
1630	0.000406
1642	0.000471
1654	0.000456
1666	0.000127
1678	0.000167
1690	0.000102
1702	0.000228
1714	0.000148
1726	0.000103
1738	0.000225
1750	0.000189
1762	0.000149
1774	0.000208
1786	0.000101
1798	0.000135
1810	0.000139
1822	0.00017
1834	0.000184
1846	0.000199
1858	0.000113
1870	0.000143
1882	0.000116
1894	9.8e-05
1906	0.000109
1918	0.00013
1930	9.5e-05
1942	0.00011
1954	0.000124
1966	9.9e-05
1978	0.000117
1990	9.5e-05
2002	0.000118
2014	0.00012
2026	9.5e-05
2038	9.3e-05
2050	0.000103
2062	9.2e-05
2074	8.4e-05
2086	8e-05
2098	9.5e-05
2110	9.4e-05
2122	7.2e-05
2134	8.1e-05
2146	7.2e-05
2158	8.5e-05
2170	7.6e-05
2182	6.9e-05
2194	6.7e-05
2206	5.1e-05
2218	6.9e-05
2230	6.2e-05
2242	5.9e-05
2254	6.9e-05
2266	2.8e-05
2278	4.9e-05
2290	5.4e-05
2302	1.6e-05
2314	2.6e-05
2326	0
2338	0
2350	0
2362	2e-06
2374	0
2386	3.8e-05
2398	4.3e-05
2410	2.7e-05
2422	3.6e-05
2434	4.2e-05
2446	3.6e-05
2458	5e-05
2470	1e-05
2482	2.8e-05
2494	3.8e-05
2506	3.1e-05
2518	2.7e-05
2530	2.8e-05
2542	1.1e-05
2554	0
2566	3.7e-05
2578	2.2e-05
2590	3.8e-05
2602	7.5e-05
2614	9.6e-05
2626	4.4e-05
2638	8.4e-05
2650	9.5e-05
2662	0.000123
2674	0.0001
2686	9.4e-05
2698	0.000101
2710	7.5e-05
2722	9e-05
2734	0.000119
2746	9.9e-05
2758	8.9e-05
2770	0.000136
2782	0.00014
2794	0.000197
2806	0.000258
2818	0.000325
2830	0.000476
2842	0.00113
2854	0.002594
2866	0.003354
2878	0.002817
2890	0.002351
2902	0.002811
2914	0.00474
2926	0.008408
2938	0.009356
2950	0.006834
2962	0.004575
2974	0.002784
2986	0.001283
2998	0.0008
3010	0.000571
3022	0.000324
3034	0.000188
3046	0.000221
3058	0.000256
3070	0.000386
3082	0.000591
3094	0.000454
3106	0.000215
3118	0.000141
3130	0.000127
3142	0.000113
3154	0.000119
3166	0.000139
3178	0.000103
3190	0.000156
3202	8.3e-05
3214	0.000138
3226	5.3e-05
3238	0.000137
3250	7.8e-05
3262	8.5e-05
3274	0.000104
3286	8.2e-05
3298	7.2e-05
3310	8e-05
3322	5.9e-05
3334	8.1e-05
3346	8.8e-05
3358	0.000113
3370	0.000115
3382	7.6e-05
3394	6.3e-05
3406	8.8e-05
3418	5.2e-05
3430	6e-05
3442	9.7e-05
3454	7.3e-05
3466	0.000144
3478	0.000139
3490	4.6e-05
3502	9.8e-05
3514	7.6e-05
3526	8.1e-05
3538	9.4e-05
3550	3.1e-05
3562	6.8e-05
3574	4.9e-05
3586	0.000133
3598	8.7e-05
3610	6.1e-05
3622	6.3e-05
3634	0.000101
3646	0.000115
3658	7.6e-05
3670	9.6e-05
3682	5.6e-05
3694	4.8e-05
3706	7.7e-05
3718	8.6e-05
3730	2.9e-05
3742	0.000142
3754	0.000133
3766	0.000126
3778	0.000119
3790	8.3e-05
3802	0.000156
3814	8.6e-05
3826	7.5e-05
3838	0.000131
