Infrared Spectrum: Imidazole, 5-(o-aminophenylthio)-1-methyl-4-nitro-
Formula: C10 H10 N4 O2 S
CAS: 53900-32-6
State: SOLID (0.8 mg / 650 mg KBr DISC)
Melting point: 127 C
Class: COBLENTZ III
Instrument: PERKIN-ELMER 21 (GRATING)
Instrument parameters: FILTER CHANGE AT 1075 CM^-^1
Sampling: TRANSMISSION
Resolution: 2
Origin: SOUTHERN RESEARCH INSTITUTE, W.C. Coburn, Jr.
1/CM	TRANSMITTANCE
624.71	0.9342
633.74	0.8831
642.77	0.8132
651.8	0.8693
660.83	0.9267
669.86	0.9324
678.89	0.9445
687.92	0.9391
696.951	0.9276
705.981	0.9111
715.011	0.8934
724.041	0.8895
733.071	0.8434
742.101	0.7857
751.131	0.5603
760.161	0.5136
769.191	0.8219
778.221	0.8846
787.251	0.8776
796.281	0.8681
805.311	0.8529
814.341	0.824
823.372	0.7304
832.402	0.4847
841.432	0.8428
850.462	0.8634
859.492	0.887
868.522	0.9206
877.552	0.9234
886.582	0.9238
895.612	0.923
904.642	0.9212
913.672	0.9183
922.702	0.9121
931.732	0.9041
940.762	0.9043
949.793	0.9031
958.823	0.8973
967.853	0.886
976.883	0.8727
985.913	0.8549
994.943	0.8123
1003.97	0.6444
1013	0.8272
1022.03	0.8402
1031.06	0.8375
1040.09	0.8211
1049.12	0.8119
1058.15	0.8134
1067.18	0.8305
1076.21	0.8257
1085.24	0.8202
1094.27	0.816
1103.3	0.8082
1112.33	0.7883
1121.36	0.7519
1130.39	0.7973
1139.42	0.8189
1148.45	0.7993
1157.48	0.7921
1166.51	0.8514
1175.54	0.8528
1184.57	0.8491
1193.6	0.8398
1202.63	0.813
1211.66	0.7679
1220.69	0.6157
1229.72	0.8072
1238.75	0.7872
1247.78	0.7578
1256.81	0.719
1265.85	0.7458
1274.88	0.6322
1283.91	0.3808
1292.94	0.4247
1301.97	0.3692
1311	0.4448
1320.03	0.5578
1329.06	0.7416
1338.09	0.6431
1347.12	0.492
1356.15	0.6508
1365.18	0.7275
1374.21	0.4849
1383.24	0.7128
1392.27	0.805
1401.3	0.795
1410.33	0.7371
1419.36	0.658
1428.39	0.6797
1437.42	0.6151
1446.45	0.5271
1455.48	0.4776
1464.51	0.5156
1473.54	0.3091
1482.57	0.2961
1491.6	0.3888
1500.63	0.2758
1509.66	0.6047
1518.69	0.4243
1527.72	0.4501
1536.75	0.7578
1545.78	0.811
1554.81	0.8029
1563.84	0.8081
1572.87	0.767
1581.9	0.6747
1590.93	0.6998
1599.96	0.6
1608.99	0.3863
1618.02	0.3509
1627.05	0.6277
1636.08	0.7381
1645.11	0.8248
1654.14	0.8483
1663.17	0.8633
1672.2	0.8733
1681.23	0.8905
1690.26	0.8954
1699.29	0.9027
1708.32	0.922
1717.35	0.9327
1726.38	0.9327
1735.41	0.9324
1744.44	0.9322
1753.47	0.9319
1762.5	0.9317
1771.53	0.9314
1780.56	0.9312
1789.59	0.9309
1798.62	0.9307
1807.65	0.9304
1816.68	0.9302
1825.71	0.9299
1834.74	0.9293
1843.77	0.9285
1852.8	0.9249
1861.83	0.9259
1870.86	0.9262
1879.89	0.924
1888.92	0.9222
1897.95	0.9207
1906.98	0.9201
1916.01	0.9193
1925.04	0.9185
1934.07	0.9133
1943.1	0.9121
1952.13	0.912
1961.16	0.9119
1970.19	0.9125
1979.22	0.9135
1988.25	0.9132
1997.28	0.9114
2006.31	0.909
2015.34	0.9071
2024.37	0.9061
2033.4	0.9058
2042.43	0.9054
2051.46	0.9049
2060.49	0.9047
2069.52	0.9038
2078.55	0.903
2087.58	0.9021
2096.61	0.9016
2105.64	0.901
2114.67	0.9006
2123.7	0.9004
2132.73	0.9003
2141.76	0.9001
2150.79	0.9007
2159.82	0.9011
2168.85	0.9014
2177.88	0.9021
2186.91	0.9031
2195.94	0.9041
2204.97	0.9049
2214	0.9056
2223.03	0.9052
2232.06	0.9047
2241.09	0.9042
2250.12	0.9034
2259.15	0.9026
2268.18	0.9017
2277.21	0.8998
2286.24	0.8983
2295.27	0.8973
2304.3	0.8955
2313.33	0.8937
2322.36	0.8923
2331.39	0.8909
2340.42	0.8894
2349.45	0.8877
2358.48	0.8859
2367.51	0.8842
2376.54	0.8837
2385.57	0.885
2394.6	0.8857
2403.63	0.8818
2412.66	0.8789
2421.69	0.8764
2430.72	0.8752
2439.75	0.8748
2448.78	0.8751
2457.81	0.8752
2466.84	0.8748
2475.87	0.8739
2484.9	0.8729
2493.93	0.8717
2502.96	0.8715
2511.99	0.8694
2521.02	0.867
2530.05	0.8626
2539.09	0.8581
2548.12	0.8541
2557.15	0.8522
2566.18	0.8509
2575.21	0.8441
2584.24	0.8458
2593.27	0.8588
2602.3	0.8602
2611.33	0.8602
2620.36	0.8585
2629.39	0.8567
2638.42	0.8533
2647.45	0.8514
2656.48	0.8511
2665.51	0.8505
2674.54	0.8497
2683.57	0.848
2692.6	0.8461
2701.63	0.8445
2710.66	0.8434
2719.69	0.8399
2728.72	0.8327
2737.75	0.829
2746.78	0.8277
2755.81	0.8267
2764.84	0.8237
2773.87	0.8204
2782.9	0.8181
2791.93	0.8151
2800.96	0.8116
2809.99	0.8076
2819.02	0.8065
2828.05	0.807
2837.08	0.8053
2846.11	0.8008
2855.14	0.7958
2864.17	0.7925
2873.2	0.7921
2882.23	0.7924
2891.26	0.7927
2900.29	0.7932
2909.32	0.7936
2918.35	0.7928
2927.38	0.7919
2936.41	0.7906
2945.44	0.7894
2954.47	0.7872
2963.5	0.7844
2972.53	0.7818
2981.56	0.7761
2990.59	0.7703
2999.62	0.7675
3008.65	0.7645
3017.68	0.7611
3026.71	0.7568
3035.74	0.7523
3044.77	0.748
3053.8	0.7434
3062.83	0.7386
3071.86	0.731
3080.89	0.724
3089.92	0.7222
3098.95	0.7309
3107.98	0.7302
3117.01	0.7194
3126.04	0.7031
3135.07	0.6839
3144.1	0.6697
3153.13	0.664
3162.16	0.6624
3171.19	0.6572
3180.22	0.6554
3189.25	0.656
3198.28	0.6549
3207.31	0.642
3216.34	0.6279
3225.37	0.6122
3234.4	0.5951
3243.43	0.573
3252.46	0.5466
3261.49	0.517
3270.52	0.4842
3279.55	0.4515
3288.58	0.4244
3297.61	0.3977
3306.64	0.3897
3315.67	0.4346
3324.7	0.5114
3333.73	0.5186
3342.76	0.5122
3351.79	0.4979
3360.82	0.482
3369.85	0.4568
3378.88	0.4195
3387.91	0.3753
3396.94	0.3392
3405.97	0.3625
3415	0.4415
3424.03	0.4911
3433.06	0.5176
3442.09	0.5299
3451.12	0.5404
3460.15	0.5526
3469.18	0.5656
3478.21	0.5793
3487.24	0.5948
3496.27	0.6149
3505.3	0.6343
3514.33	0.6525
3523.36	0.6657
3532.39	0.6779
3541.42	0.6885
3550.45	0.7016
3559.48	0.7137
3568.51	0.7263
3577.54	0.739
3586.57	0.7517
3595.6	0.7637
3604.63	0.7723
3613.66	0.7728
3622.69	0.7737
3631.72	0.7797
3640.75	0.7808
3649.78	0.7826
3658.81	0.7845
3667.84	0.7882
3676.87	0.7943
3685.9	0.7961
3694.93	0.7954
3703.96	0.794
3712.99	0.7924
3722.02	0.7902
3731.05	0.786
3740.08	0.783
3749.11	0.7832
3758.14	0.7871
3767.17	0.7903
3776.2	0.7888
3785.23	0.785
3794.26	0.7809
3803.3	0.7793
3812.33	0.7779
3821.36	0.7764
3830.39	0.7748
3839.42	0.7738
3848.45	0.7728
3857.48	0.7719
3866.51	0.7712
3875.54	0.7706
3884.57	0.7693
3893.6	0.7652
3902.63	0.7638
3911.66	0.7633
3920.69	0.7627
3929.72	0.7616
3938.75	0.7602
3947.78	0.759
3956.81	0.7588
3965.84	0.7585
3974.87	0.7541
3983.9	0.749
3992.93	0.7491
4001.96	0.7493
4010.99	0.7498
