Infrared Spectrum: 2-BUTANONE, 1-p-METHOXYPHENYL-
Formula: C11 H14 O2
CAS: 53917-01-4
State: SOLUTION (10% CCl4 FOR 3800-1330, 10% CS2 FOR 1330-400 CM^-^1)
Class: COBLENTZ III
Instrument: BECKMAN IR-9 (GRATING)
Instrument parameters: ORDER CHANGES: 670, 1200, 2000 CM^-^1
Sampling: TRANSMISSION
Path length: 0.011 CM, 0.011 CM
Resolution: 2
Origin: DOW CHEMICAL COMPANY
1/CM	TRANSMITTANCE
3802	0.9265
3793	0.9278
3784	0.9261
3775	0.9251
3766	0.9277
3757	0.9283
3748	0.9281
3739	0.9284
3730	0.9296
3721	0.9284
3712	0.9246
3703	0.9192
3694	0.9139
3685	0.9127
3676	0.9149
3667	0.9177
3658	0.9197
3649	0.9207
3640	0.9204
3631	0.9195
3622	0.9153
3613	0.9101
3604	0.9159
3595	0.9143
3586	0.9033
3577	0.907
3568	0.9038
3559	0.8999
3550	0.897
3541	0.8953
3532	0.8969
3523	0.8968
3514	0.8974
3505	0.8958
3496	0.8931
3487	0.8909
3478	0.8892
3469	0.888
3460	0.8869
3451	0.8856
3442	0.8827
3433	0.8773
3424	0.8663
3415	0.8562
3406	0.8619
3397	0.8717
3388	0.8804
3379	0.8823
3370	0.8839
3361	0.8826
3352	0.8826
3343	0.8832
3334	0.8834
3325	0.8838
3316	0.8839
3307	0.8841
3298	0.8831
3289	0.8822
3280	0.8817
3271	0.8819
3262	0.8806
3253	0.8795
3244	0.8777
3235	0.8778
3226	0.8743
3217	0.8743
3208	0.8708
3199	0.8696
3190	0.8669
3181	0.8639
3172	0.8617
3163	0.8613
3154	0.8591
3145	0.8529
3136	0.8452
3127	0.8425
3118	0.8394
3109	0.8103
3100	0.8177
3091	0.8241
3082	0.7798
3073	0.7621
3064	0.7657
3055	0.767
3046	0.703
3037	0.6613
3028	0.6826
3019	0.6024
3010	0.4657
3001	0.4567
2992	0.42
2983	0.341
2974	0.427
2965	0.3829
2956	0.3701
2947	0.2811
2938	0.3638
2929	0.4718
2920	0.4125
2911	0.3948
2902	0.4524
2893	0.5487
2884	0.5762
2875	0.6771
2866	0.7644
2857	0.7628
2848	0.6555
2839	0.3973
2830	0.6721
2821	0.7869
2812	0.8183
2803	0.8319
2794	0.8479
2785	0.8643
2776	0.8704
2767	0.8671
2758	0.8643
2749	0.8636
2740	0.8629
2731	0.8696
2722	0.8766
2713	0.8817
2704	0.8836
2695	0.8846
2686	0.8858
2677	0.8873
2668	0.8891
2659	0.8902
2650	0.889
2641	0.888
2632	0.8892
2623	0.8913
2614	0.893
2605	0.8893
2596	0.8896
2587	0.8917
2578	0.8928
2569	0.8911
2560	0.88
2551	0.8653
2542	0.8841
2533	0.8919
2524	0.8936
2515	0.8955
2506	0.8931
2497	0.8898
2488	0.8929
2479	0.9012
2470	0.9093
2461	0.916
2452	0.9187
2443	0.9153
2434	0.9086
2425	0.9084
2416	0.9183
2407	0.9221
2398	0.9236
2389	0.924
2380	0.9234
2371	0.9218
2362	0.9186
2353	0.9242
2344	0.9228
2335	0.9195
2326	0.9259
2317	0.9259
2308	0.9224
2299	0.9205
2290	0.9223
2281	0.9264
2272	0.9312
2263	0.9366
2254	0.937
2245	0.9373
2236	0.9378
2227	0.9367
2218	0.9356
2209	0.9364
2200	0.9374
2191	0.9363
2182	0.9369
2173	0.9393
2164	0.9376
2155	0.9372
2146	0.9365
2137	0.9352
2128	0.9332
2119	0.9302
2110	0.9257
2101	0.9189
2092	0.9093
2083	0.8954
2074	0.8775
2065	0.882
2056	0.8979
2047	0.906
2038	0.9078
2029	0.9073
2020	0.9083
2011	0.9063
2002	0.903
1993	0.9091
1984	0.9114
1975	0.9111
1966	0.9132
1957	0.9152
1948	0.9149
1939	0.9173
1930	0.9184
1921	0.9155
1912	0.9033
1903	0.9003
1894	0.8927
1885	0.8459
1876	0.861
1867	0.89
1858	0.8904
1849	0.8979
1840	0.9007
1831	0.8942
1822	0.8835
1813	0.8769
1804	0.8669
1795	0.8592
1786	0.85
1777	0.8336
1768	0.7994
1759	0.7503
1750	0.6855
1741	0.5577
1732	0.2255
1723	0.0249
1714	0.0221
1705	0.1845
1696	0.4325
1687	0.551
1678	0.6667
1669	0.7395
1660	0.7825
1651	0.7987
1642	0.7946
1633	0.7792
1624	0.6958
1615	0.2256
1606	0.3133
1597	0.5395
1588	0.6251
1579	0.621
1570	0.8135
1561	0.8145
1552	0.8943
1543	0.9186
1534	0.7729
1525	0.5802
1516	0.0139
1507	0.1095
1498	0.6648
1489	0.7761
1480	0.7734
1471	0.5502
1462	0.2297
1453	0.3984
1444	0.4343
1435	0.563
1426	0.5214
1417	0.5148
1408	0.5494
1399	0.7514
1390	0.7567
1381	0.5753
1372	0.7342
1363	0.6895
1354	0.493
1345	0.4779
1336	0.5831
1327	0.5996
1318	0.5776
1309	0.532
1300	0.2475
1291	0.5126
1282	0.4715
1273	0.4397
1264	0.2248
1255	0.0153
1246	0.0162
1237	0.3099
1228	0.5285
1219	0.6387
1210	0.5996
1201	0.5802
1192	0.5534
1183	0.3819
1174	0.1865
1165	0.5696
1156	0.5851
1147	0.7444
1138	0.7243
1129	0.6332
1120	0.4469
1111	0.3457
1102	0.5384
1093	0.811
1084	0.8405
1075	0.827
1066	0.765
1057	0.7201
1048	0.2827
1039	0.0894
1030	0.3408
1021	0.6727
1012	0.8063
1003	0.8469
994	0.7885
985	0.8339
976	0.8866
967	0.8939
958	0.8828
949	0.8878
940	0.9013
931	0.8879
922	0.8854
913	0.8868
904	0.9093
895	0.903
886	0.8832
877	0.8795
868	0.8712
859	0.7801
850	0.6048
841	0.6492
832	0.428
823	0.3585
814	0.5195
805	0.4269
796	0.5165
787	0.7723
778	0.8104
769	0.7767
760	0.7708
751	0.8497
742	0.8968
733	0.8855
724	0.937
715	0.9245
706	0.9306
697	0.9678
688	0.9764
679	0.9746
670	0.9816
661	0.9538
652	0.8828
643	0.8424
634	0.8476
625	0.83
616	0.7717
607	0.7633
598	0.8181
589	0.895
580	0.9082
571	0.8848
562	0.8065
553	0.784
544	0.7589
535	0.7683
526	0.7227
517	0.5864
508	0.7137
499	0.831
490	0.8742
481	0.8789
472	0.8604
463	0.8218
454	0.7764
445	0.7311
436	0.6858
427	0.5964
418	0.467
409	0.4824
