Infrared Spectrum: 2-P-CHLOROSTYRYL QUINOLINE
Formula: C17 H12 N Cl
CAS: 5392-19-8
State: SOLID (1.0% IN KBr PELLET)
Class: COBLENTZ
Instrument: Not specified, most likely a prism, grating, or hybrid spectrometer.
Sampling: TRANSMISSION
Path length: 0.0355 CM
Resolution: 4
Origin: ANDERSON PHYSICAL LABORATORY
1/CM	TRANSMITTANCE
676.635	0.842
685.046	0.875
693.457	0.874
701.869	0.869
710.28	0.868
718.691	0.859
727.102	0.827
735.514	0.727
743.925	0.4241
752.336	0.683
760.747	0.844
769.159	0.83
777.57	0.856
785.981	0.787
794.392	0.845
802.804	0.77
811.215	0.5751
819.626	0.2891
828.037	0.322
836.449	0.655
844.86	0.878
853.271	0.895
861.682	0.928
870.093	0.926
878.505	0.923
886.916	0.917
895.327	0.916
903.738	0.934
912.15	0.926
920.561	0.923
928.972	0.886
937.383	0.841
945.795	0.6981
954.206	0.676
962.617	0.53
971.028	0.44
979.44	0.7959
987.851	0.895
996.262	0.874
1004.67	0.812
1013.08	0.781
1021.5	0.92
1029.91	0.91
1038.32	0.89
1046.73	0.872
1055.14	0.844
1063.55	0.796
1071.96	0.718
1080.37	0.647
1088.79	0.691
1097.2	0.565
1105.61	0.8149
1114.02	0.895
1122.43	0.866
1130.84	0.908
1139.25	0.893
1147.66	0.898
1156.08	0.904
1164.49	0.901
1172.9	0.881
1181.31	0.874
1189.72	0.875
1198.13	0.862
1206.54	0.85
1214.95	0.889
1223.37	0.889
1231.78	0.875
1240.19	0.874
1248.6	0.874
1257.01	0.901
1265.42	0.898
1273.83	0.884
1282.24	0.856
1290.66	0.863
1299.07	0.869
1307.48	0.832
1315.89	0.803
1324.3	0.863
1332.71	0.878
1341.12	0.85
1349.53	0.851
1357.95	0.902
1366.36	0.922
1374.77	0.901
1383.18	0.898
1391.59	0.872
1400	0.785
1408.41	0.728
1416.82	0.878
1425.24	0.797
1433.65	0.818
1442.06	0.901
1450.47	0.881
1458.88	0.851
1467.29	0.82
1475.7	0.763
1484.11	0.647
1492.53	0.532
1500.94	0.584
1509.35	0.8271
1517.76	0.928
1526.17	0.914
1534.58	0.889
1542.99	0.8
1551.4	0.776
1559.81	0.824
1568.23	0.82
1576.64	0.767
1585.05	0.613
1593.46	0.574
1601.87	0.893
1610.28	0.82
1618.69	0.89
1627.1	0.899
1635.52	0.905
1643.93	0.911
1652.34	0.913
1660.75	0.91
1669.16	0.916
1677.57	0.913
1685.98	0.907
1694.39	0.91
1702.81	0.91
1711.22	0.91
1719.63	0.908
1728.04	0.91
1736.45	0.914
1744.86	0.914
1753.27	0.916
1761.68	0.916
1770.1	0.916
1778.51	0.916
1786.92	0.916
1795.33	0.914
1803.74	0.908
1812.15	0.898
1820.56	0.895
1828.97	0.895
1837.39	0.896
1845.8	0.896
1854.21	0.896
1862.62	0.895
1871.03	0.886
1879.44	0.877
1887.85	0.863
1896.26	0.857
1904.68	0.863
1913.09	0.862
1921.5	0.857
1929.91	0.857
1938.32	0.86
1946.73	0.857
1955.14	0.854
1963.55	0.863
1971.97	0.868
1980.38	0.868
1988.79	0.868
1997.2	0.865
2005.61	0.8535
2014.02	0.8502
2022.43	0.848
2030.84	0.845
2039.26	0.843
2047.67	0.8395
2056.08	0.836
2064.49	0.8327
2072.9	0.8295
2081.31	0.829
2089.72	0.826
2098.13	0.8237
2106.55	0.8168
2114.96	0.8094
2123.37	0.8059
2131.78	0.803
2140.19	0.802
2148.6	0.8
2157.01	0.797
2165.42	0.7953
2173.84	0.793
2182.25	0.791
2190.66	0.7897
2199.07	0.7863
2207.48	0.7828
2215.89	0.7793
2224.3	0.7759
2232.71	0.7719
2241.13	0.7678
2249.54	0.7634
2257.95	0.7597
2266.36	0.7539
2274.77	0.7514
2283.18	0.7492
2291.59	0.7459
2300	0.7414
2308.42	0.737
2316.83	0.7388
2325.24	0.7391
2333.65	0.74
2342.06	0.74
2350.47	0.739
2358.88	0.737
2367.29	0.7347
2375.7	0.7316
2384.12	0.731
2392.53	0.7296
2400.94	0.7276
2409.35	0.727
2417.76	0.725
2426.17	0.7236
2434.58	0.7201
2442.99	0.7166
2451.41	0.713
2459.82	0.712
2468.23	0.71
2476.64	0.7093
2485.05	0.709
2493.46	0.7068
2501.87	0.705
2510.28	0.7033
2518.7	0.7
2527.11	0.6965
2535.52	0.693
2543.93	0.689
2552.34	0.688
2560.75	0.686
2569.16	0.685
2577.57	0.683
2585.99	0.682
2594.4	0.6797
2602.81	0.676
2611.22	0.6744
2619.63	0.673
2628.04	0.6724
2636.45	0.6704
2644.86	0.67
2653.28	0.6669
2661.69	0.663
2670.1	0.6598
2678.51	0.6563
2686.92	0.655
2695.33	0.653
2703.74	0.6508
2712.15	0.649
2720.57	0.6469
2728.98	0.644
2737.39	0.6412
2745.8	0.6341
2754.21	0.6289
2762.62	0.6256
2771.03	0.623
2779.44	0.622
2787.86	0.6199
2796.27	0.6182
2804.68	0.6141
2813.09	0.6101
2821.5	0.607
2829.91	0.6046
2838.32	0.604
2846.73	0.6022
2855.15	0.601
2863.56	0.6001
2871.97	0.5983
2880.38	0.596
2888.79	0.593
2897.2	0.5907
2905.61	0.5869
2914.02	0.5782
2922.44	0.5748
2930.85	0.5731
2939.26	0.571
2947.67	0.568
2956.08	0.5646
2964.49	0.5611
2972.9	0.5501
2981.31	0.5351
2989.73	0.5285
2998.14	0.527
3006.55	0.5285
3014.96	0.532
3023.37	0.5373
3031.78	0.546
3040.19	0.5533
3048.6	0.559
3057.02	0.562
3065.43	0.563
3073.84	0.563
3082.25	0.563
3090.66	0.5597
3099.07	0.5549
3107.48	0.5502
3115.89	0.545
3124.31	0.5417
3132.72	0.5384
3141.13	0.5364
3149.54	0.533
3157.95	0.532
3166.36	0.532
3174.77	0.53
3183.18	0.5269
3191.59	0.5237
3200.01	0.5182
3208.42	0.5123
3216.83	0.5089
3225.24	0.506
3233.65	0.5038
3242.06	0.5021
3250.47	0.4986
3258.88	0.4953
3267.3	0.4904
3275.71	0.488
3284.12	0.4867
3292.53	0.4846
3300.94	0.4797
3309.35	0.4753
3317.76	0.4695
3326.17	0.4636
3334.59	0.4587
3343	0.4542
3351.41	0.4505
3359.82	0.4442
3368.23	0.4393
3376.64	0.437
3385.05	0.4356
3393.46	0.4336
3401.88	0.433
3410.29	0.433
3418.7	0.433
3427.11	0.433
3435.52	0.433
3443.93	0.434
3452.34	0.436
3460.75	0.4365
3469.17	0.4385
3477.58	0.44
3485.99	0.4435
3494.4	0.446
3502.81	0.4487
3511.22	0.451
3519.63	0.4542
3528.04	0.456
3536.46	0.4595
3544.87	0.461
3553.28	0.4663
3561.69	0.4695
3570.1	0.4746
3578.51	0.476
3586.92	0.478
3595.33	0.478
3603.75	0.478
3612.16	0.476
3620.57	0.4757
3628.98	0.4756
3637.39	0.476
3645.8	0.478
3654.21	0.478
3662.62	0.476
3671.04	0.4752
3679.45	0.475
3687.86	0.475
3696.27	0.4738
3704.68	0.473
3713.09	0.472
3721.5	0.4713
3729.91	0.469
3738.33	0.467
3746.74	0.464
3755.15	0.463
3763.56	0.4617
3771.97	0.461
3780.38	0.46
3788.79	0.458
3797.2	0.4574
3805.62	0.4552
3814.03	0.4549
3822.44	0.454
3830.85	0.454
3839.26	0.454
3847.67	0.4537
3856.08	0.452
3864.49	0.452
3872.91	0.4511
3881.32	0.4506
3889.73	0.4486
3898.14	0.448
3906.55	0.446
3914.96	0.443
3923.37	0.443
3931.78	0.442
3940.2	0.44
3948.61	0.4398
3957.02	0.4365
3965.43	0.436
3973.84	0.4389
3982.25	0.44
3990.66	0.44
