Infrared Spectrum: 3-ANILINOMETHYL-2(3)-BENZOLE THIAZOLETHIONE
Formula: C14 H12 N2 S2
CAS: 5392-35-8
Class: COBLENTZ
Instrument: Not specified, most likely a prism, grating, or hybrid spectrometer.
Sampling: TRANSMISSION
Resolution: 4
Origin: WYANDOTTE CHEMICALS CORP., WYANDOTTE, MICHIGAN, USA
MICROMETERS	TRANSMITTANCE
2.027	0.101
2.0679	0.111
2.10879	0.121
2.14969	0.128
2.19059	0.128
2.23148	0.126
2.27238	0.125
2.31328	0.128
2.35418	0.14
2.39507	0.148
2.43597	0.155
2.47687	0.164
2.51776	0.162
2.55866	0.162
2.59956	0.171
2.64045	0.183
2.68135	0.191
2.72225	0.202
2.76315	0.205
2.80404	0.215
2.84494	0.217
2.88584	0.22
2.92673	0.219
2.96763	0.222
3.00853	0.231
3.04942	0.236
3.09032	0.181
3.13122	0.205
3.17212	0.226
3.21301	0.232
3.25391	0.234
3.29481	0.214
3.3357	0.167
3.3766	0.065
3.4175	0.027
3.45839	0.035
3.49929	0.046
3.54019	0.142
3.58108	0.309
3.62198	0.352
3.66288	0.357
3.70378	0.368
3.74467	0.368
3.78557	0.378
3.82647	0.39
3.86736	0.402
3.90826	0.412
3.94916	0.414
3.99005	0.424
4.03095	0.433
4.07185	0.443
4.11275	0.45
4.15364	0.448
4.19454	0.462
4.23544	0.477
4.27633	0.477
4.31723	0.481
4.35813	0.493
4.39902	0.508
4.43992	0.511
4.48082	0.52
4.52172	0.534
4.56261	0.541
4.60351	0.556
4.64441	0.559
4.6853	0.561
4.7262	0.565
4.7671	0.583
4.80799	0.59
4.84889	0.595
4.88979	0.601
4.93069	0.602
4.97158	0.604
5.01248	0.609
5.05338	0.619
5.09427	0.625
5.13517	0.64
5.17607	0.642
5.21696	0.638
5.25786	0.648
5.29876	0.654
5.33965	0.662
5.38055	0.664
5.42145	0.672
5.46235	0.674
5.50324	0.676
5.54414	0.69
5.58504	0.7
5.62593	0.7
5.66683	0.698
5.70773	0.698
5.74862	0.7
5.78952	0.719
5.83042	0.717
5.87132	0.703
5.91221	0.688
5.95311	0.674
5.99401	0.643
6.0349	0.623
6.0758	0.7
6.1167	0.722
6.15759	0.66
6.19849	0.277
6.23939	0.546
6.28029	0.604
6.32118	0.667
6.36208	0.696
6.40298	0.732
6.44387	0.734
6.48477	0.731
6.52567	0.703
6.56656	0.563
6.60746	0.402
6.64836	0.489
6.68925	0.503
6.73015	0.527
6.77105	0.344
6.81195	0.09
6.85284	0.219
6.89374	0.368
6.93464	0.419
6.97553	0.539
7.01643	0.631
7.05733	0.671
7.09822	0.686
7.13912	0.693
7.18002	0.654
7.22092	0.482
7.26181	0.268
7.30271	0.097
7.34361	0.227
7.3845	0.498
7.4254	0.592
7.4663	0.614
7.50719	0.587
7.54809	0.381
7.58899	0.25
7.62989	0.22
7.67078	0.476
7.71168	0.565
7.75258	0.587
7.79347	0.614
7.83437	0.64
7.87527	0.566
7.91616	0.541
7.95706	0.503
7.99796	0.246
8.03885	0.409
8.07975	0.503
8.12065	0.496
8.16155	0.397
8.20244	0.214
8.24334	0.292
8.28424	0.455
8.32513	0.537
8.36603	0.592
8.40693	0.609
8.44782	0.585
8.48872	0.582
8.52962	0.587
8.57052	0.554
8.61141	0.611
8.65231	0.597
8.69321	0.501
8.7341	0.354
8.775	0.506
8.8159	0.527
8.85679	0.527
8.89769	0.404
8.93859	0.38
8.97949	0.523
9.02038	0.517
9.06128	0.541
9.10218	0.602
9.14307	0.625
9.18397	0.643
9.22487	0.654
9.26576	0.633
9.30666	0.585
9.34756	0.609
9.38846	0.549
9.42935	0.642
9.47025	0.636
9.51115	0.532
9.55204	0.488
9.59294	0.599
9.63384	0.619
9.67473	0.628
9.71563	0.619
9.75653	0.674
9.79742	0.66
9.83832	0.664
9.87922	0.7
9.92012	0.75
9.96101	0.763
10.0019	0.77
10.0428	0.731
10.0837	0.705
10.1246	0.587
10.1655	0.482
10.2064	0.542
10.2473	0.648
10.2882	0.695
10.3291	0.722
10.37	0.753
10.4109	0.772
10.4518	0.789
10.4927	0.796
10.5336	0.797
10.5745	0.804
10.6154	0.815
10.6563	0.811
10.6972	0.758
10.7381	0.803
10.779	0.821
10.8198	0.844
10.8607	0.847
10.9016	0.859
10.9425	0.864
10.9834	0.868
11.0243	0.88
11.0652	0.881
11.1061	0.897
11.147	0.9
11.1879	0.898
11.2288	0.898
11.2697	0.9
11.3106	0.895
11.3515	0.835
11.3924	0.839
11.4333	0.876
11.4742	0.893
11.5151	0.91
11.556	0.91
11.5969	0.902
11.6378	0.898
11.6787	0.881
11.7196	0.849
11.7605	0.876
11.8014	0.895
11.8423	0.878
11.8832	0.869
11.9241	0.909
11.965	0.919
12.0059	0.922
12.0468	0.919
12.0877	0.914
12.1286	0.856
12.1694	0.811
12.2103	0.845
12.2512	0.869
12.2921	0.89
12.333	0.893
12.3739	0.909
12.4148	0.914
12.4557	0.916
12.4966	0.916
12.5375	0.912
12.5784	0.921
12.6193	0.929
12.6602	0.934
12.7011	0.933
12.742	0.931
12.7829	0.931
12.8238	0.917
12.8647	0.912
12.9056	0.897
12.9465	0.898
12.9874	0.866
13.0283	0.832
13.0692	0.777
13.1101	0.664
13.151	0.506
13.1919	0.321
13.2328	0.16
13.2737	0.073
13.3146	0.113
13.3555	0.253
13.3964	0.431
13.4373	0.532
13.4782	0.607
13.519	0.648
13.5599	0.712
13.6008	0.739
13.6417	0.76
13.6826	0.768
13.7235	0.779
13.7644	0.775
13.8053	0.779
13.8462	0.775
13.8871	0.755
13.928	0.669
13.9689	0.638
14.0098	0.751
14.0507	0.775
14.0916	0.775
14.1325	0.811
14.1734	0.832
14.2143	0.844
14.2552	0.851
14.2961	0.849
14.337	0.827
14.3779	0.772
14.4188	0.647
14.4597	0.476
14.5006	0.416
14.5415	0.513
14.5824	0.63
14.6233	0.71
14.6642	0.76
14.7051	0.763
14.746	0.765
14.7869	0.756
14.8278	0.75
14.8686	0.736
14.9095	0.738
14.9504	0.734
14.9913	0.727
15.0322	0.684
15.0731	0.66
15.114	0.678
15.1549	0.686
15.1958	0.683
15.2367	0.667
15.2776	0.657
15.3185	0.647
15.3594	0.623
15.4003	0.618
15.4412	0.613
15.4821	0.601
15.523	0.601
15.5639	0.583
15.6048	0.561
15.6457	0.554
15.6866	0.547
15.7275	0.527
15.7684	0.503
15.8093	0.491
15.8502	0.481
15.8911	0.477
15.932	0.465
15.9729	0.457
