Infrared Spectrum: 3,7-Dimethyl-2,6-octadienal
Formula: C 10 H 16 O
CAS: 5392-40-5
State: gas
Instrument: HP-GC/MS/IRD
Origin: NIST Mass Spectrometry Data Center
1/CM	ABSORBANCE
550	0.0004175
562	0.0001275
574	0.0001575
586	0
598	0.0001175
610	7.25e-05
622	9.75e-05
634	4.5e-05
646	0.0001525
658	4.25e-05
670	0.00013
682	0.0003
694	0.00056
706	0.00069
718	0.00044
730	0.0005675
742	0.00077
754	0.0006525
766	0.0005025
778	0.000455
790	0.0005925
802	0.0009725
814	0.0013475
826	0.0015
838	0.0013375
850	0.00111
862	0.0008725
874	0.000735
886	0.000715
898	0.00072
910	0.000715
922	0.0006925
934	0.00063
946	0.0006975
958	0.0010025
970	0.0012525
982	0.00124
994	0.001095
1006	0.000925
1018	0.000875
1030	0.0009125
1042	0.000975
1054	0.0008525
1066	0.000795
1078	0.0009225
1090	0.00172
1102	0.0033725
1114	0.00325
1126	0.0013
1138	0.0006625
1150	0.00067
1162	0.000895
1174	0.001565
1186	0.0032375
1198	0.002475
1210	0.00085
1222	0.0006125
1234	0.0004575
1246	0.0004
1258	0.000345
1270	0.0003925
1282	0.0004125
1294	0.00055
1306	0.0006875
1318	0.0008375
1330	0.0007975
1342	0.0007975
1354	0.0009975
1366	0.0016325
1378	0.0030725
1390	0.0032625
1402	0.00222
1414	0.001835
1426	0.0018475
1438	0.00233
1450	0.0025675
1462	0.0020125
1474	0.0013475
1486	0.0009575
1498	0.0007425
1510	0.0006725
1522	0.0006925
1534	0.0006775
1546	0.0007075
1558	0.0008225
1570	0.00096
1582	0.00126
1594	0.00202
1606	0.0042625
1618	0.007205
1630	0.0053925
1642	0.0033925
1654	0.002505
1666	0.0029575
1678	0.005725
1690	0.01866
1702	0.022935
1714	0.00781
1726	0.00269
1738	0.0011675
1750	0.0006725
1762	0.00045
1774	0.0003825
1786	0.000335
1798	0.000305
1810	0.0002925
1822	0.000255
1834	0.00018
1846	0.000155
1858	0.0001125
1870	0.0001175
1882	0.000115
1894	9.75e-05
1906	0.0001075
1918	8.5e-05
1930	9.25e-05
1942	9.75e-05
1954	8.5e-05
1966	0.0001075
1978	0.000125
1990	8e-05
2002	7e-05
2014	5.75e-05
2026	6.75e-05
2038	5e-05
2050	3.75e-05
2062	5e-05
2074	4.5e-05
2086	4.25e-05
2098	4.75e-05
2110	6e-05
2122	5.5e-05
2134	9e-05
2146	8e-05
2158	0.0001
2170	0.0001025
2182	8.75e-05
2194	0.000105
2206	0.00012
2218	9.25e-05
2230	4.75e-05
2242	3.25e-05
2254	4.5e-05
2266	3e-05
2278	3.75e-05
2290	2.75e-05
2302	3.5e-05
2314	2.75e-05
2326	3e-05
2338	2e-05
2350	3.5e-05
2362	5e-06
2374	7.25e-05
2386	6.25e-05
2398	7.5e-05
2410	6.25e-05
2422	8.5e-05
2434	0.000105
2446	9.75e-05
2458	8e-05
2470	9.75e-05
2482	0.0001025
2494	7e-05
2506	0.000135
2518	0.000105
2530	0.0001275
2542	0.00013
2554	0.0001325
2566	0.000135
2578	0.0001575
2590	0.00014
2602	0.0001825
2614	0.00019
2626	0.0002325
2638	0.0002725
2650	0.0003275
2662	0.0003775
2674	0.0004875
2686	0.00067
2698	0.0010975
2710	0.0024375
2722	0.0042575
2734	0.00339
2746	0.0024775
2758	0.00226
2770	0.00182
2782	0.00139
2794	0.0013425
2806	0.0016075
2818	0.0024625
2830	0.004155
2842	0.0044175
2854	0.0041025
2866	0.0048125
2878	0.004775
2890	0.0049
2902	0.00555
2914	0.0071375
2926	0.008805
2938	0.008085
2950	0.006765
2962	0.005655
2974	0.0054525
2986	0.0048725
2998	0.0038525
3010	0.0029575
3022	0.0024175
3034	0.002135
3046	0.0017675
3058	0.001345
3070	0.001015
3082	0.0008375
3094	0.0006575
3106	0.000515
3118	0.0004475
3130	0.000355
3142	0.0002575
3154	0.00022
3166	0.000145
3178	0.0001975
3190	0.000155
3202	0.00017
3214	0.00018
3226	0.0001675
3238	0.0001375
3250	0.000115
3262	0.0001275
3274	0.0001225
3286	0.0001625
3298	0.0001
3310	0.0001275
3322	0.0001275
3334	0.0002
3346	0.000215
3358	0.00031
3370	0.000405
3382	0.00037
3394	0.000285
3406	0.0002825
3418	0.000175
3430	0.0001475
3442	8e-05
3454	7e-05
3466	9.5e-05
3478	6.5e-05
3490	9e-05
3502	4.25e-05
3514	6.5e-05
3526	9.75e-05
3538	6.25e-05
3550	6.5e-05
3562	4.5e-05
3574	3.75e-05
3586	6.5e-05
3598	7e-05
3610	6.5e-05
3622	4.25e-05
3634	4.75e-05
3646	4.25e-05
3658	5.25e-05
3670	2.75e-05
3682	5.5e-05
3694	7e-05
3706	9.25e-05
3718	4.5e-05
3730	6.75e-05
3742	6.5e-05
3754	2.5e-05
3766	9.5e-05
3778	0.0001025
3790	4.25e-05
3802	8.25e-05
3814	0.000165
3826	0.00014
3838	0.00017
