Infrared Spectrum: Phenol, 2,4,5-trichloro-, acetate
Formula: C8 H5 Cl3 O2
CAS: 5393-75-9
State: SOLUTION (10% CCl4 FOR 2.6-7.5, 10% CS2 FOR 7.5-26)
Class: COBLENTZ III
Instrument: DOW KBr FOREPRISM-GRATING
Instrument parameters: BLAZED AT 3.5, 12.0, 20.0 MICRON AND CHANGED AT 5.0, 7.5, 14.9 MICRON
Sampling: TRANSMISSION
Path length: 0.011 CM, 0.011 CM
Resolution: 2
Origin: DOW CHEMICAL COMPANY
1/CM	TRANSMITTANCE
3820	0.9005
3811	0.9016
3802	0.9026
3793	0.9059
3784	0.9057
3775	0.9062
3766	0.9092
3757	0.9103
3748	0.9108
3739	0.9116
3730	0.9128
3721	0.9134
3712	0.9155
3703	0.9168
3694	0.9151
3685	0.9129
3676	0.9126
3667	0.9122
3658	0.9121
3649	0.9121
3640	0.9122
3631	0.914
3622	0.9142
3613	0.9143
3604	0.9138
3595	0.9124
3586	0.9084
3577	0.8985
3568	0.8845
3559	0.8821
3550	0.8868
3541	0.8953
3532	0.9038
3523	0.9062
3514	0.9083
3505	0.9085
3496	0.9075
3487	0.9065
3478	0.9057
3469	0.9049
3460	0.904
3451	0.9031
3442	0.9026
3433	0.9023
3424	0.9018
3415	0.9015
3406	0.9021
3397	0.9019
3388	0.9025
3379	0.9032
3370	0.9055
3361	0.9045
3352	0.9055
3343	0.9071
3334	0.9084
3325	0.9097
3316	0.9111
3307	0.9118
3298	0.9116
3289	0.9116
3280	0.911
3271	0.9115
3262	0.9105
3253	0.9099
3244	0.9089
3235	0.9094
3226	0.9076
3217	0.9093
3208	0.9077
3199	0.909
3190	0.9081
3181	0.9062
3172	0.9051
3163	0.9049
3154	0.9024
3145	0.8983
3136	0.8961
3127	0.8849
3118	0.8574
3109	0.7951
3100	0.7872
3091	0.8533
3082	0.8692
3073	0.8919
3064	0.8937
3055	0.8905
3046	0.8873
3037	0.8854
3028	0.8716
3019	0.8795
3010	0.8872
3001	0.8928
2992	0.8974
2983	0.9002
2974	0.9029
2965	0.9056
2956	0.9063
2947	0.9077
2938	0.9099
2929	0.9128
2920	0.9164
2911	0.9157
2902	0.9151
2893	0.9146
2884	0.915
2875	0.915
2866	0.9155
2857	0.9155
2848	0.9131
2839	0.911
2830	0.907
2821	0.9056
2812	0.9014
2803	0.9016
2794	0.9003
2785	0.9005
2776	0.9035
2767	0.9057
2758	0.907
2749	0.9077
2740	0.9083
2731	0.9086
2722	0.9091
2713	0.909
2704	0.9083
2695	0.9075
2686	0.9068
2677	0.9065
2668	0.9088
2659	0.9118
2650	0.9122
2641	0.9124
2632	0.9129
2623	0.9121
2614	0.9111
2605	0.91
2596	0.9096
2587	0.9094
2578	0.9094
2569	0.9093
2560	0.9097
2551	0.9099
2542	0.9113
2533	0.9127
2524	0.9139
2515	0.9149
2506	0.9143
2497	0.913
2488	0.9112
2479	0.9102
2470	0.9095
2461	0.9093
2452	0.9102
2443	0.9111
2434	0.9119
2425	0.9122
2416	0.9122
2407	0.9124
2398	0.9128
2389	0.9114
2380	0.9105
2371	0.9121
2362	0.9073
2353	0.9128
2344	0.9138
2335	0.9136
2326	0.9208
2317	0.9189
2308	0.9172
2299	0.9181
2290	0.9223
2281	0.9221
2272	0.9215
2263	0.9191
2254	0.9162
2245	0.9161
2236	0.9169
2227	0.9163
2218	0.915
2209	0.9151
2200	0.9155
2191	0.9139
2182	0.9135
2173	0.9147
2164	0.9125
2155	0.9127
2146	0.9129
2137	0.913
2128	0.9134
2119	0.914
2110	0.9145
2101	0.9133
2092	0.9102
2083	0.9034
2074	0.9029
2065	0.903
2056	0.9054
2047	0.9027
2038	0.8964
2029	0.8909
2020	0.8934
2011	0.8969
2002	0.8997
1993	0.9024
1984	0.9046
1975	0.9068
1966	0.9074
1957	0.908
1948	0.9086
1939	0.9091
1930	0.9097
1921	0.9076
1912	0.9024
1903	0.8989
1894	0.8929
1885	0.8849
1876	0.8814
1867	0.8786
1858	0.8742
1849	0.8676
1840	0.841
1831	0.8324
1822	0.8146
1813	0.7391
1804	0.5285
1795	0.0775
1786	0.0233
1777	0.0588
1768	0.4347
1759	0.6687
1750	0.7345
1741	0.7173
1732	0.7904
1723	0.8358
1714	0.8174
1705	0.8506
1696	0.8655
1687	0.8636
1678	0.8804
1669	0.8916
1660	0.8937
1651	0.8939
1642	0.8868
1633	0.8833
1624	0.8841
1615	0.8845
1606	0.8676
1597	0.8665
1588	0.8276
1579	0.9019
1570	0.8312
1561	0.7844
1552	0.8941
1543	0.9511
1534	0.9538
1525	0.9023
1516	0.8817
1507	0.8185
1498	0.7636
1489	0.6996
1480	0.4005
1471	0.0959
1462	0.1213
1453	0.1528
1444	0.4617
1435	0.5696
1426	0.6481
1417	0.7188
1408	0.805
1399	0.8173
1390	0.8111
1381	0.687
1372	0.162
1363	0.5384
1354	0.0855
1345	0.6634
1336	0.794
1327	0.8343
1318	0.8635
1309	0.8725
1300	0.8598
1291	0.8594
1282	0.8487
1273	0.8422
1264	0.7553
1255	0.6538
1246	0.5692
1237	0.6256
1228	0.4908
1219	0.6187
1210	0.5875
1201	0.2006
1192	0.0066
1183	0.005
1174	0.2757
1165	0.5358
1156	0.6558
1147	0.6795
1138	0.5239
1129	0.2585
1120	0.1418
1111	0.6109
1102	0.7206
1093	0.6157
1084	0.0087
1075	0.5252
1066	0.6768
1057	0.7447
1048	0.7243
1039	0.7228
1030	0.7946
1021	0.726
1012	0.3235
1003	0.5183
994	0.8351
985	0.8936
976	0.9231
967	0.9321
958	0.9279
949	0.8541
940	0.6569
931	0.8641
922	0.9118
913	0.9278
904	0.8138
895	0.0852
886	0.3663
877	0.7628
868	0.5581
859	0.8416
850	0.6654
841	0.6444
832	0.9028
823	0.9377
814	0.9355
805	0.9309
796	0.9378
787	0.9123
778	0.8447
769	0.3125
760	0.7296
751	0.9027
742	0.921
733	0.9281
724	0.9322
715	0.9226
706	0.9139
697	0.9074
688	0.7141
679	0.4471
670	0.8414
661	0.9089
652	0.7616
643	0.703
634	0.8658
625	0.8719
616	0.8309
607	0.7458
598	0.7821
589	0.763
580	0.8283
571	0.864
562	0.8505
553	0.5144
544	0.8411
535	0.8485
526	0.7328
517	0.8445
508	0.8534
499	0.8462
490	0.837
481	0.828
472	0.822
463	0.8065
454	0.5475
445	0.7129
436	0.6193
427	0.7702
418	0.7562
409	0.6118
400	0.3188
391	0.2007
382	0.1515
