Infrared Spectrum: N-(4-Bromobutyl)phthalimide
Formula: C 12 H 12 Br N O 2
CAS: 5394-18-3
State: gas
Instrument: HP-GC/MS/IRD
Origin: NIST Mass Spectrometry Data Center
1/CM	ABSORBANCE
550	0.0040172
562	0.0027588
574	0.0034364
586	4.84e-05
598	0.000726
610	0.0019844
622	0.0023232
634	0.0005808
646	0.002904
658	0.0043076
670	0.0006776
682	0.0015004
694	0.0085184
706	0.0301048
718	0.09559
730	0.0237644
742	0.0097284
754	0.0088088
766	0.0069212
778	0.0050336
790	0.0060984
802	0.0017908
814	0.0011132
826	0.0004356
838	0.0006292
850	0.0018876
862	0.0044044
874	0.0041624
886	0.0062436
898	0.00847
910	0.008954
922	0.0092444
934	0.0083732
946	0.0075988
958	0.0066308
970	0.0054208
982	0.0071632
994	0.0120032
1006	0.019844
1018	0.029282
1030	0.0257004
1042	0.0167948
1054	0.0121968
1066	0.0141812
1078	0.0185372
1090	0.0209572
1102	0.0176176
1114	0.0117128
1126	0.006292
1138	0.0035332
1150	0.0044528
1162	0.0075504
1174	0.0121
1186	0.0177628
1198	0.0125356
1210	0.0119548
1222	0.0119064
1234	0.0086152
1246	0.0126324
1258	0.0265232
1270	0.0192148
1282	0.0195052
1294	0.0254584
1306	0.0286528
1318	0.0369776
1330	0.0493196
1342	0.078408
1354	0.133681
1366	0.163544
1378	0.120758
1390	0.144184
1402	0.089298
1414	0.03872
1426	0.0243936
1438	0.039446
1450	0.0393492
1462	0.0245388
1474	0.0160204
1486	0.0052756
1498	0.003388
1510	0.0030492
1522	0.0031944
1534	0.0027588
1546	0.0025652
1558	0.0023232
1570	0.0025652
1582	0.00363
1594	0.0057112
1606	0.0079376
1618	0.00726
1630	0.00363
1642	0.0027104
1654	0.0030008
1666	0.0046464
1678	0.0083732
1690	0.017424
1702	0.0402204
1714	0.0913308
1726	0.328588
1738	0.414788
1750	0.0953964
1762	0.0416724
1774	0.0482064
1786	0.0658724
1798	0.0241032
1810	0.0100672
1822	0.0060016
1834	0.0051788
1846	0.0042592
1858	0.0027104
1870	0.0029524
1882	0.0022748
1894	0.0018876
1906	0.0021296
1918	0.0018392
1930	0.0018392
1942	0.0022748
1954	0.0010164
1966	0.0015488
1978	0.0011616
1990	0.0002904
2002	0.0001452
2014	9.68e-05
2026	0
2038	4.84e-05
2050	4.84e-05
2062	4.84e-05
2074	0.0001452
2086	0.0001452
2098	9.68e-05
2110	4.84e-05
2122	0
2134	9.68e-05
2146	0.0001452
2158	9.68e-05
2170	4.84e-05
2182	4.84e-05
2194	0
2206	4.84e-05
2218	0
2230	9.68e-05
2242	0.0002904
2254	0.000484
2266	0.0003872
2278	0.0003388
2290	0.0003872
2302	0.000484
2314	0.0007744
2326	0.000726
2338	0.0006776
2350	0.0006292
2362	0.0006292
2374	0.0006292
2386	0.000484
2398	0.0005324
2410	0.0005808
2422	0.0006292
2434	0.0006776
2446	0.0006776
2458	0.0006776
2470	0.0005808
2482	0.000484
2494	0.0003872
2506	0.0002904
2518	0.0001936
2530	0.0001452
2542	0.0001452
2554	0.0001936
2566	0.0001452
2578	9.68e-05
2590	4.84e-05
2602	0.0001452
2614	0.000242
2626	0.0003872
2638	0.0005324
2650	0.0005808
2662	0.0005808
2674	0.000726
2686	0.0008712
2698	0.0010164
2710	0.000726
2722	0.0005324
2734	0.0004356
2746	0.000484
2758	0.0005808
2770	0.0008228
2782	0.0012584
2794	0.00121
2806	0.0011132
2818	0.0013068
2830	0.001936
2842	0.0031944
2854	0.0051788
2866	0.0073568
2878	0.0089056
2890	0.0076956
2902	0.0090992
2914	0.0109868
2926	0.0151008
2938	0.0247324
2950	0.0354288
2962	0.0268136
2974	0.021538
2986	0.0112772
2998	0.005566
3010	0.0063888
3022	0.0046464
3034	0.003146
3046	0.0041624
3058	0.0071148
3070	0.007744
3082	0.0109384
3094	0.009438
3106	0.0024684
3118	0.000726
3130	0.0002904
3142	0.000242
3154	0.0001936
3166	0.0001936
3178	0.0001936
3190	0.0001936
3202	0.0003872
3214	0.0004356
3226	0.0003388
3238	0.000242
3250	0.0001936
3262	0.0001452
3274	4.84e-05
3286	9.68e-05
3298	9.68e-05
3310	9.68e-05
3322	9.68e-05
3334	9.68e-05
3346	0.0001936
3358	9.68e-05
3370	0.0001936
3382	0.0001452
3394	0.0002904
3406	0.0003388
3418	0.0003872
3430	0.0006292
3442	0.0010164
3454	0.001694
3466	0.0020328
3478	0.0025168
3490	0.0042108
3502	0.0051304
3514	0.0028072
3526	0.0012584
3538	0.0008228
3550	0.0008228
3562	0.0007744
3574	0.0006776
3586	0.0005324
3598	0.000484
3610	0.0004356
3622	0.0003872
3634	0.0003388
3646	0.0003388
3658	0.0003388
3670	0.0002904
3682	0.0003872
3694	0.0003388
3706	0.0003388
3718	0.0003388
3730	0.0003872
3742	0.0003872
3754	0.0004356
3766	0.0005324
3778	0.0005324
3790	0.000484
3802	0.0004356
3814	0.0003388
3826	0.0003872
3838	0.0004356
