Infrared Spectrum: 2,2'-DIETHYLTHIO CARBANILIDE
Formula: C17 H20 N2 S
CAS: 5395-94-8
State: SOLID (KBr PELLET)
Melting point: 141-143 C
Class: COBLENTZ
Instrument: Not specified, most likely a prism, grating, or hybrid spectrometer.
Sampling: TRANSMISSION
Resolution: 4
Origin: WYANDOTTE CHEMICALS CORP., WYANDOTTE, MICHIGAN, USA
MICROMETERS	TRANSMITTANCE
2.061	0.843
2.10188	0.849
2.14275	0.866
2.18363	0.872
2.22451	0.866
2.26538	0.875
2.30626	0.88
2.34713	0.895
2.38801	0.899
2.42889	0.902
2.46976	0.906
2.51064	0.911
2.55152	0.911
2.59239	0.921
2.63327	0.93
2.67415	0.923
2.71502	0.872
2.7559	0.761
2.79678	0.602
2.83765	0.518
2.87853	0.464
2.9194	0.431
2.96028	0.459
3.00116	0.383
3.04203	0.59
3.08291	0.54
3.12379	0.387
3.16466	0.127
3.20554	0.139
3.24642	0.296
3.28729	0.38
3.32817	0.244
3.36905	0.107
3.40992	0.308
3.4508	0.476
3.49167	0.505
3.53255	0.684
3.57343	0.737
3.6143	0.759
3.65518	0.783
3.69606	0.822
3.73693	0.865
3.77781	0.892
3.81869	0.904
3.85956	0.909
3.90044	0.911
3.94132	0.914
3.98219	0.918
4.02307	0.923
4.06394	0.935
4.10482	0.94
4.1457	0.95
4.18657	0.953
4.22745	0.969
4.26833	0.982
4.3092	0.965
4.35008	0.959
4.39096	0.96
4.43183	0.97
4.47271	0.972
4.51359	0.972
4.55446	0.967
4.59534	0.969
4.63621	0.97
4.67709	0.974
4.71797	0.97
4.75884	0.97
4.79972	0.967
4.8406	0.967
4.88147	0.967
4.92235	0.965
4.96323	0.965
5.0041	0.964
5.04498	0.962
5.08586	0.965
5.12673	0.96
5.16761	0.941
5.20848	0.943
5.24936	0.964
5.29024	0.967
5.33111	0.986
5.37199	0.991
5.41287	0.979
5.45374	0.982
5.49462	0.964
5.5355	0.972
5.57637	0.964
5.61725	0.977
5.65813	0.986
5.699	0.981
5.73988	0.95
5.78075	0.926
5.82163	0.916
5.86251	0.909
5.90338	0.899
5.94426	0.877
5.98514	0.834
6.02601	0.793
6.06689	0.711
6.10777	0.687
6.14864	0.686
6.18952	0.648
6.2304	0.686
6.27127	0.45
6.31215	0.592
6.35302	0.558
6.3939	0.373
6.43478	0.215
6.47565	0.068
6.51653	0.046
6.55741	0.127
6.59828	0.143
6.63916	0.097
6.68004	0.226
6.72091	0.203
6.76179	0.354
6.80267	0.327
6.84354	0.242
6.88442	0.329
6.92529	0.59
6.96617	0.711
7.00705	0.75
7.04792	0.776
7.0888	0.788
7.12968	0.791
7.17055	0.79
7.21143	0.738
7.25231	0.626
7.29318	0.551
7.33406	0.412
7.37494	0.313
7.41581	0.257
7.45669	0.269
7.49756	0.327
7.53844	0.39
7.57932	0.443
7.62019	0.462
7.66107	0.43
7.70195	0.296
7.74282	0.151
7.7837	0.179
7.82458	0.208
7.86545	0.078
7.90633	0.071
7.94721	0.273
7.98808	0.257
8.02896	0.303
8.06983	0.293
8.11071	0.368
8.15159	0.503
8.19246	0.477
8.23334	0.228
8.27422	0.122
8.31509	0.368
8.35597	0.537
8.39685	0.546
8.43772	0.467
8.4786	0.627
8.51948	0.686
8.56035	0.665
8.60123	0.542
8.6421	0.583
8.68298	0.641
8.72386	0.656
8.76473	0.667
8.80561	0.672
8.84649	0.667
8.88736	0.588
8.92824	0.482
8.96912	0.598
9.00999	0.663
9.05087	0.674
9.09175	0.686
9.13262	0.696
9.1735	0.701
9.21437	0.706
9.25525	0.701
9.29613	0.715
9.337	0.687
9.37788	0.641
9.41876	0.605
9.45963	0.518
9.50051	0.522
9.54139	0.598
9.58226	0.651
9.62314	0.645
9.66402	0.6
9.70489	0.581
9.74577	0.614
9.78664	0.619
9.82752	0.639
9.8684	0.668
9.90927	0.699
9.95015	0.725
9.99103	0.738
10.0319	0.757
10.0728	0.766
10.1137	0.771
10.1545	0.778
10.1954	0.779
10.2363	0.778
10.2772	0.769
10.318	0.742
10.3589	0.718
10.3998	0.733
10.4407	0.744
10.4815	0.641
10.5224	0.762
10.5633	0.788
10.6042	0.796
10.645	0.786
10.6859	0.81
10.7268	0.819
10.7677	0.8
10.8086	0.703
10.8494	0.73
10.8903	0.798
10.9312	0.832
10.9721	0.854
11.0129	0.877
11.0538	0.882
11.0947	0.89
11.1356	0.899
11.1764	0.904
11.2173	0.911
11.2582	0.912
11.2991	0.907
11.3399	0.906
11.3808	0.875
11.4217	0.844
11.4626	0.848
11.5035	0.851
11.5443	0.82
11.5852	0.766
11.6261	0.82
11.667	0.798
11.7078	0.703
11.7487	0.764
11.7896	0.858
11.8305	0.887
11.8713	0.902
11.9122	0.906
11.9531	0.907
11.994	0.907
12.0348	0.907
12.0757	0.909
12.1166	0.911
12.1575	0.911
12.1984	0.906
12.2392	0.906
12.2801	0.904
12.321	0.895
12.3619	0.889
12.4027	0.875
12.4436	0.849
12.4845	0.81
12.5254	0.8
12.5662	0.783
12.6071	0.744
12.648	0.706
12.6889	0.641
12.7297	0.643
12.7706	0.701
12.8115	0.725
12.8524	0.708
12.8933	0.655
12.9341	0.593
12.975	0.564
13.0159	0.491
13.0568	0.37
13.0976	0.201
13.1385	0.131
13.1794	0.175
13.2203	0.312
13.2611	0.341
13.302	0.296
13.3429	0.203
13.3838	0.131
13.4246	0.153
13.4655	0.271
13.5064	0.423
13.5473	0.529
13.5882	0.629
13.629	0.682
13.6699	0.703
13.7108	0.704
13.7517	0.696
13.7925	0.674
13.8334	0.66
13.8743	0.648
13.9152	0.645
13.956	0.626
13.9969	0.622
14.0378	0.634
14.0787	0.662
14.1195	0.687
14.1604	0.696
14.2013	0.697
14.2422	0.699
14.2831	0.697
14.3239	0.689
14.3648	0.675
14.4057	0.675
14.4466	0.675
14.4874	0.675
14.5283	0.68
14.5692	0.691
14.6101	0.699
14.6509	0.706
14.6918	0.72
14.7327	0.723
14.7736	0.737
14.8144	0.744
14.8553	0.754
14.8962	0.757
14.9371	0.762
14.978	0.754
15.0188	0.725
15.0597	0.715
15.1006	0.742
15.1415	0.773
15.1823	0.773
15.2232	0.767
15.2641	0.75
15.305	0.745
15.3458	0.718
15.3867	0.686
15.4276	0.629
15.4685	0.569
15.5093	0.505
15.5502	0.47
15.5911	0.488
15.632	0.52
15.6729	0.549
15.7137	0.571
15.7546	0.58
15.7955	0.592
15.8364	0.614
15.8772	0.622
15.9181	0.638
15.959	0.639
15.9999	0.633
