Infrared Spectrum: Salicylamide, N-(2-naphthyl)
Formula: C17 H13 N O2
CAS: 5395-85-7
State: SOLID (SPLIT MULL), FLUOROLUBE FOR 3800-1330 CM^-^1, NUJOL FOR 1330-400 CM^-^1
Class: COBLENTZ III
Instrument: BECKMAN IR-9 (GRATING)
Instrument parameters: ORDER CHANGES: 670, 1200, 2000 CM^-^1
Sampling: TRANSMISSION
Resolution: 2
Origin: DOW CHEMICAL COMPANY
1/CM	TRANSMITTANCE
398	0.6404
407	0.6092
416	0.5891
425	0.6059
434	0.6569
443	0.6995
452	0.7437
461	0.7415
470	0.7214
479	0.3632
488	0.7756
497	0.8111
506	0.8128
515	0.8178
524	0.823
533	0.826
542	0.8345
551	0.8368
560	0.84
569	0.8446
578	0.849
587	0.8517
596	0.8535
605	0.8548
614	0.8565
623	0.8156
632	0.8494
641	0.8308
650	0.8296
659	0.8607
668	0.8596
677	0.8561
686	0.8494
695	0.8287
704	0.8316
713	0.7848
722	0.7182
731	0.679
740	0.4662
749	0.7139
758	0.7541
767	0.7743
776	0.7971
785	0.764
794	0.7665
803	0.7455
812	0.262
821	0.7348
830	0.7489
839	0.4478
848	0.5775
857	0.7583
866	0.7951
875	0.6936
884	0.728
893	0.786
902	0.7908
911	0.7943
920	0.7881
929	0.7812
938	0.7748
947	0.7305
956	0.7321
965	0.6468
974	0.7549
983	0.7761
992	0.7789
1001	0.7751
1010	0.7495
1019	0.7782
1028	0.7806
1037	0.7772
1046	0.7743
1055	0.7681
1064	0.7635
1073	0.7601
1082	0.7578
1091	0.7568
1100	0.7556
1109	0.7508
1118	0.6905
1127	0.7101
1136	0.73
1145	0.6597
1154	0.7058
1163	0.7136
1172	0.6715
1181	0.6701
1190	0.7221
1199	0.7176
1208	0.7024
1217	0.6844
1226	0.6276
1235	0.6501
1244	0.7142
1253	0.7092
1262	0.6421
1271	0.6383
1280	0.6536
1289	0.6104
1298	0.5685
1307	0.36
1316	0.3879
1325	0.6756
1334	0.684
1343	0.6631
1352	0.6458
1361	0.6558
1370	0.7435
1379	0.7536
1388	0.7571
1397	0.7604
1406	0.7518
1415	0.6354
1424	0.755
1433	0.7617
1442	0.7358
1451	0.7471
1460	0.7094
1469	0.7118
1478	0.7011
1487	0.5208
1496	0.5258
1505	0.6017
1514	0.6975
1523	0.7988
1532	0.7972
1541	0.7898
1550	0.7738
1559	0.7657
1568	0.7319
1577	0.6978
1586	0.6505
1595	0.4876
1604	0.4635
1613	0.7107
1622	0.5189
1631	0.4458
1640	0.8099
1649	0.8411
1658	0.8351
1667	0.8264
1676	0.8189
1685	0.8118
1694	0.8026
1703	0.8028
1712	0.8051
1721	0.8007
1730	0.7956
1739	0.794
1748	0.7912
1757	0.7868
1766	0.7812
1775	0.7768
1784	0.7735
1793	0.7715
1802	0.7699
1811	0.7692
1820	0.7635
1829	0.7621
1838	0.7637
1847	0.7632
1856	0.7621
1865	0.7611
1874	0.7595
1883	0.7564
1892	0.7511
1901	0.7468
1910	0.7403
1919	0.7394
1928	0.743
1937	0.7394
1946	0.7385
1955	0.7451
1964	0.746
1973	0.7426
1982	0.7404
1991	0.7362
2000	0.7317
2009	0.7347
2018	0.7314
2027	0.729
2036	0.7265
2045	0.724
2054	0.7215
2063	0.7185
2072	0.7156
2081	0.7126
2090	0.7099
2099	0.7065
2108	0.7034
2117	0.7001
2126	0.6976
2135	0.6951
2144	0.6928
2153	0.6903
2162	0.6878
2171	0.6853
2180	0.6832
2189	0.6812
2198	0.6798
2207	0.6785
2216	0.6764
2225	0.6715
2234	0.6668
2243	0.6622
2252	0.658
2261	0.6555
2270	0.6533
2279	0.651
2288	0.6486
2297	0.6468
2306	0.6461
2315	0.6454
2324	0.6454
2333	0.6468
2342	0.6482
2351	0.6511
2360	0.6547
2369	0.653
2378	0.6451
2387	0.6373
2396	0.6342
2405	0.6333
2414	0.633
2423	0.6331
2432	0.6329
2441	0.6323
2450	0.6317
2459	0.6312
2468	0.6308
2477	0.6299
2486	0.6288
2495	0.6278
2504	0.6267
2513	0.6252
2522	0.6239
2531	0.6224
2540	0.6207
2549	0.6189
2558	0.6172
2567	0.6154
2576	0.6137
2585	0.6119
2594	0.6104
2603	0.6088
2612	0.6072
2621	0.6056
2630	0.604
2639	0.6024
2648	0.6009
2657	0.5989
2666	0.597
2675	0.595
2684	0.5931
2693	0.591
2702	0.5896
2711	0.5881
2720	0.5867
2729	0.5853
2738	0.5839
2747	0.5822
2756	0.5804
2765	0.5787
2774	0.5769
2783	0.5752
2792	0.5735
2801	0.5719
2810	0.5704
2819	0.5689
2828	0.5674
2837	0.5656
2846	0.5634
2855	0.561
2864	0.5587
2873	0.5562
2882	0.5535
2891	0.5517
2900	0.5488
2909	0.5451
2918	0.541
2927	0.538
2936	0.5368
2945	0.5355
2954	0.5345
2963	0.5336
2972	0.5322
2981	0.5299
2990	0.5277
2999	0.5221
3008	0.5108
3017	0.5026
3026	0.5022
3035	0.5017
3044	0.4834
3053	0.4869
3062	0.5119
3071	0.5239
3080	0.5256
3089	0.5262
3098	0.5255
3107	0.5246
3116	0.5236
3125	0.5224
3134	0.5212
3143	0.5198
3152	0.5186
3161	0.5173
3170	0.516
3179	0.5148
3188	0.5137
3197	0.5122
3206	0.5106
3215	0.509
3224	0.5072
3233	0.5053
3242	0.5034
3251	0.5015
3260	0.4996
3269	0.4977
3278	0.4957
3287	0.4938
3296	0.4919
3305	0.4901
3314	0.4883
3323	0.4856
3332	0.4825
3341	0.4794
3350	0.476
3359	0.4723
3368	0.468
3377	0.463
3386	0.455
3395	0.4412
3404	0.3424
3413	0.4114
3422	0.487
3431	0.488
3440	0.4855
3449	0.4812
3458	0.4783
3467	0.4758
3476	0.4733
3485	0.4715
3494	0.4699
3503	0.4684
3512	0.4672
3521	0.4658
3530	0.4646
3539	0.4636
3548	0.4627
3557	0.4618
3566	0.4609
3575	0.4602
3584	0.4594
3593	0.4586
3602	0.4577
3611	0.4566
3620	0.4556
3629	0.4544
3638	0.4529
3647	0.4512
3656	0.4496
3665	0.4479
3674	0.4462
3683	0.4448
3692	0.4435
3701	0.4422
3710	0.4409
3719	0.4396
3728	0.4384
3737	0.4371
3746	0.4362
3755	0.4352
3764	0.4343
3773	0.4338
3782	0.4335
3791	0.4336
3800	0.4337
