Infrared Spectrum: M-NITRO CINNAMIC ACID, ETHYL ESTER
Formula: C11 H11 N O4
CAS: 5396-71-4
State: SOLID (MINERAL OIL MULL)
Melting point: 74-76 C
Class: COBLENTZ
Instrument: Not specified, most likely a prism, grating, or hybrid spectrometer.
Sampling: TRANSMISSION
Resolution: 4
Origin: WYANDOTTE CHEMICALS CORP., WYANDOTTE, MICHIGAN, USA
MICROMETERS	TRANSMITTANCE
2.007	0.589
2.04672	0.598
2.08643	0.604
2.12615	0.609
2.16587	0.612
2.20558	0.611
2.2453	0.606
2.28502	0.619
2.32473	0.624
2.36445	0.627
2.40417	0.636
2.44388	0.642
2.4836	0.649
2.52332	0.654
2.56303	0.657
2.60275	0.674
2.64247	0.656
2.68218	0.687
2.7219	0.681
2.76162	0.677
2.80133	0.682
2.84105	0.676
2.88077	0.674
2.92048	0.672
2.9602	0.666
2.99992	0.662
3.03963	0.667
3.07935	0.662
3.11907	0.651
3.15878	0.634
3.1985	0.619
3.23822	0.612
3.27793	0.509
3.31765	0.568
3.35737	0.3
3.39708	0.104
3.4368	0.081
3.47652	0.224
3.51623	0.197
3.55595	0.514
3.59567	0.696
3.63538	0.742
3.6751	0.759
3.71482	0.752
3.75453	0.759
3.79425	0.772
3.83397	0.782
3.87368	0.787
3.9134	0.797
3.95312	0.797
3.99283	0.81
4.03255	0.818
4.07227	0.817
4.11198	0.817
4.1517	0.815
4.19142	0.825
4.23113	0.828
4.27085	0.81
4.31057	0.805
4.35028	0.83
4.39	0.878
4.42972	0.878
4.46943	0.865
4.50915	0.868
4.54887	0.878
4.58858	0.877
4.6283	0.89
4.66802	0.888
4.70773	0.892
4.74745	0.897
4.78717	0.903
4.82688	0.908
4.8666	0.91
4.90632	0.91
4.94603	0.91
4.98575	0.913
5.02547	0.915
5.06518	0.921
5.1049	0.915
5.14462	0.918
5.18433	0.93
5.22405	0.943
5.26377	0.93
5.30348	0.913
5.3432	0.938
5.38292	0.923
5.42263	0.931
5.46235	0.911
5.50207	0.921
5.54178	0.941
5.5815	0.921
5.62122	0.911
5.66093	0.901
5.70065	0.895
5.74037	0.81
5.78008	0.629
5.8198	0.124
5.85952	0.443
5.89923	0.782
5.93895	0.855
5.97867	0.865
6.01838	0.838
6.0581	0.501
6.09782	0.453
6.13753	0.8
6.17725	0.662
6.21696	0.833
6.25668	0.852
6.2964	0.84
6.33611	0.735
6.37583	0.832
6.41555	0.833
6.45526	0.745
6.49498	0.476
6.5347	0.112
6.57441	0.292
6.61413	0.476
6.65385	0.636
6.69356	0.689
6.73328	0.594
6.773	0.541
6.81271	0.455
6.85243	0.461
6.89215	0.471
6.93186	0.584
6.97158	0.719
7.0113	0.787
7.05101	0.787
7.09073	0.74
7.13045	0.74
7.17016	0.725
7.20988	0.664
7.2496	0.548
7.28931	0.47
7.32903	0.322
7.36875	0.139
7.40846	0.303
7.44818	0.495
7.4879	0.471
7.52761	0.232
7.56733	0.252
7.60705	0.415
7.64676	0.561
7.68648	0.375
7.7262	0.571
7.76591	0.604
7.80563	0.541
7.84535	0.681
7.88506	0.745
7.92478	0.803
7.9645	0.838
8.00421	0.84
8.04393	0.847
8.08365	0.825
8.12336	0.777
8.16308	0.762
8.2028	0.72
8.24251	0.486
8.28223	0.41
8.32195	0.485
8.36166	0.33
8.40138	0.161
8.4411	0.132
8.48081	0.222
8.52053	0.332
8.56025	0.353
8.59996	0.345
8.63968	0.43
8.6794	0.503
8.71911	0.578
8.75883	0.629
8.79855	0.677
8.83826	0.709
8.87798	0.73
8.9177	0.725
8.95741	0.717
8.99713	0.715
9.03685	0.669
9.07656	0.599
9.11628	0.657
9.156	0.715
9.19571	0.734
9.23543	0.735
9.27515	0.694
9.31486	0.717
9.35458	0.752
9.3943	0.772
9.43401	0.787
9.47373	0.792
9.51345	0.789
9.55316	0.772
9.59288	0.714
9.6326	0.548
9.67231	0.455
9.71203	0.529
9.75175	0.636
9.79146	0.692
9.83118	0.734
9.8709	0.755
9.91061	0.75
9.95033	0.686
9.99005	0.431
10.0298	0.352
10.0695	0.589
10.1092	0.702
10.1489	0.704
10.1886	0.682
10.2283	0.754
10.2681	0.789
10.3078	0.812
10.3475	0.83
10.3872	0.838
10.4269	0.843
10.4666	0.85
10.5064	0.853
10.5461	0.857
10.5858	0.86
10.6255	0.86
10.6652	0.858
10.7049	0.855
10.7447	0.843
10.7844	0.808
10.8241	0.71
10.8638	0.75
10.9035	0.682
10.9432	0.734
10.983	0.799
11.0227	0.845
11.0624	0.865
11.1021	0.868
11.1418	0.873
11.1815	0.883
11.2213	0.888
11.261	0.885
11.3007	0.88
11.3404	0.878
11.3801	0.855
11.4198	0.782
11.4596	0.598
11.4993	0.44
11.539	0.661
11.5787	0.792
11.6184	0.828
11.6581	0.87
11.6979	0.885
11.7376	0.9
11.7773	0.905
11.817	0.906
11.8567	0.906
11.8964	0.908
11.9362	0.92
11.9759	0.92
12.0156	0.918
12.0553	0.905
12.095	0.882
12.1347	0.82
12.1745	0.787
12.2142	0.823
12.2539	0.86
12.2936	0.872
12.3333	0.865
12.373	0.832
12.4128	0.667
12.4525	0.491
12.4922	0.621
12.5319	0.8
12.5716	0.882
12.6113	0.905
12.6511	0.916
12.6908	0.928
12.7305	0.93
12.7702	0.93
12.8099	0.931
12.8496	0.936
12.8894	0.936
12.9291	0.931
12.9688	0.931
13.0085	0.923
13.0482	0.92
13.0879	0.913
13.1277	0.898
13.1674	0.882
13.2071	0.83
13.2468	0.762
13.2865	0.71
13.3262	0.689
13.366	0.566
13.4057	0.398
13.4454	0.528
13.4851	0.702
13.5248	0.785
13.5645	0.827
13.6043	0.855
13.644	0.862
13.6837	0.868
13.7234	0.867
13.7631	0.857
13.8028	0.833
13.8426	0.734
13.8823	0.564
13.922	0.549
13.9617	0.719
14.0014	0.82
14.0411	0.862
14.0809	0.888
14.1206	0.895
14.1603	0.905
14.2	0.913
14.2397	0.918
14.2794	0.92
14.3192	0.923
14.3589	0.923
14.3986	0.92
14.4383	0.911
14.478	0.916
14.5177	0.908
14.5575	0.905
14.5972	0.901
14.6369	0.895
14.6766	0.883
14.7163	0.88
14.756	0.878
14.7958	0.862
14.8355	0.848
14.8752	0.787
14.9149	0.7
14.9546	0.627
14.9943	0.614
15.0341	0.622
15.0738	0.607
15.1135	0.573
15.1532	0.558
15.1929	0.578
15.2326	0.624
15.2724	0.669
15.3121	0.709
15.3518	0.722
15.3915	0.734
15.4312	0.735
15.4709	0.732
15.5107	0.729
15.5504	0.724
15.5901	0.719
15.6298	0.712
15.6695	0.705
15.7092	0.702
15.749	0.696
15.7887	0.682
15.8284	0.674
15.8681	0.662
15.9078	0.659
15.9475	0.644
15.9873	0.639
