Infrared Spectrum: 1,5-Decadiyne
Formula: C 10 H 14
CAS: 53963-03-4
State: gas
Instrument: HP-GC/MS/IRD
Origin: NIST Mass Spectrometry Data Center
1/CM	ABSORBANCE
550	0.0014508
562	0.0014353
574	0.0013423
586	0.0011935
598	0.001581
610	0.0028365
622	0.0091574
634	0.0255626
646	0.0156271
658	0.0049259
670	0.0016771
682	0.0008184
694	0.0005983
706	0.0004619
718	0.0004278
730	0.000496
742	0.0005177
754	0.0005301
766	0.0004309
778	0.000341
790	0.000248
802	0.0002139
814	0.0002945
826	0.0001705
838	0.000155
850	0.0001519
862	0.0001767
874	0.000186
886	0.0002046
898	0.0002821
910	0.0002511
922	0.0003193
934	0.0003596
946	0.000341
958	0.0003348
970	0.0002821
982	0.0002573
994	0.0002387
1006	0.0001085
1018	6.2e-05
1030	9.3e-06
1042	4.96e-05
1054	0.0001333
1066	0.000155
1078	0.0002511
1090	0.0003534
1102	0.0004278
1114	0.0003038
1126	0.0002201
1138	0.0002139
1150	0.0002232
1162	0.0002449
1174	0.0003193
1186	0.0003534
1198	0.0005146
1210	0.000713
1222	0.0009641
1234	0.0022072
1246	0.0057133
1258	0.0080197
1270	0.0036828
1282	0.0017825
1294	0.0016895
1306	0.0021173
1318	0.0033108
1330	0.0052731
1342	0.0047988
1354	0.0022692
1366	0.0015097
1378	0.0013082
1390	0.0012369
1402	0.0010013
1414	0.0012245
1426	0.0024118
1438	0.0041726
1450	0.0037882
1462	0.0032457
1474	0.0023436
1486	0.0012803
1498	0.0007626
1510	0.0005487
1522	0.0003999
1534	0.0003162
1546	0.0002914
1558	0.0002759
1570	0.0002046
1582	0.000155
1594	0.000155
1606	0.0001116
1618	0.0001643
1630	0.0001364
1642	0.0001178
1654	0.0001488
1666	8.68e-05
1678	9.61e-05
1690	0.0001023
1702	8.37e-05
1714	6.82e-05
1726	4.03e-05
1738	8.99e-05
1750	9.3e-05
1762	6.82e-05
1774	8.06e-05
1786	5.27e-05
1798	4.65e-05
1810	4.34e-05
1822	3.72e-05
1834	2.17e-05
1846	1.55e-05
1858	4.96e-05
1870	3.41e-05
1882	3.41e-05
1894	3.1e-05
1906	2.79e-05
1918	2.48e-05
1930	2.48e-05
1942	2.48e-05
1954	3.1e-06
1966	3.1e-06
1978	4.34e-05
1990	5.27e-05
2002	2.79e-05
2014	7.44e-05
2026	7.75e-05
2038	0.0001178
2050	0.0001147
2062	0.000124
2074	0.000124
2086	0.0001488
2098	0.0003069
2110	0.0006913
2122	0.0010106
2134	0.0005084
2146	0.0001922
2158	0.0001054
2170	9.61e-05
2182	8.37e-05
2194	0.0001085
2206	0.0001085
2218	0.0001395
2230	0.0001829
2242	0.000124
2254	8.99e-05
2266	8.68e-05
2278	9.61e-05
2290	0.0001085
2302	0.0001023
2314	4.65e-05
2326	7.75e-05
2338	6.2e-05
2350	6.51e-05
2362	8.99e-05
2374	7.13e-05
2386	5.89e-05
2398	4.34e-05
2410	4.34e-05
2422	6.51e-05
2434	8.37e-05
2446	9.92e-05
2458	7.75e-05
2470	4.65e-05
2482	4.34e-05
2494	4.65e-05
2506	9.3e-06
2518	3.72e-05
2530	3.1e-05
2542	5.89e-05
2554	7.75e-05
2566	0.0001271
2578	0.0002108
2590	0.0002232
2602	0.0001736
2614	0.0001209
2626	0.0001581
2638	0.0002387
2650	0.0003131
2662	0.0003596
2674	0.0003937
2686	0.0003906
2698	0.0003844
2710	0.0002542
2722	0.0002511
2734	0.0003255
2746	0.0004371
2758	0.0005022
2770	0.0005208
2782	0.0005611
2794	0.0006975
2806	0.0008556
2818	0.0011842
2830	0.0018135
2842	0.0033914
2854	0.0063271
2866	0.0091946
2878	0.0098301
2890	0.0089311
2902	0.0087544
2914	0.0134633
2926	0.0237739
2938	0.031
2950	0.0254634
2962	0.0207514
2974	0.0165168
2986	0.0076415
2998	0.0035526
3010	0.00217
3022	0.0015717
3034	0.0011656
3046	0.0009021
3058	0.0007378
3070	0.0005673
3082	0.0005115
3094	0.0004588
3106	0.0004278
3118	0.0003937
3130	0.0003131
3142	0.0002821
3154	0.0002418
3166	0.0002294
3178	0.0001767
3190	0.0002387
3202	0.0001767
3214	0.000155
3226	0.0001767
3238	0.0001829
3250	0.0003379
3262	0.0005084
3274	0.0008246
3286	0.0016523
3298	0.002604
3310	0.00527
3322	0.0086304
3334	0.0095604
3346	0.0024428
3358	0.0010478
3370	0.0006913
3382	0.0003565
3394	0.0001953
3406	0.000124
3418	0.000124
3430	0.000124
3442	0.000155
3454	0.0001705
3466	5.89e-05
3478	5.27e-05
3490	8.68e-05
3502	9.3e-05
3514	4.65e-05
3526	0
3538	4.34e-05
3550	5.89e-05
3562	6.82e-05
3574	4.03e-05
3586	1.24e-05
3598	3.72e-05
3610	7.44e-05
3622	3.1e-05
3634	5.58e-05
3646	9.61e-05
3658	7.13e-05
3670	1.86e-05
3682	7.44e-05
3694	4.65e-05
3706	8.99e-05
3718	3.72e-05
3730	9.92e-05
3742	9.61e-05
3754	9.92e-05
3766	8.68e-05
3778	3.41e-05
3790	7.44e-05
3802	6.2e-05
3814	2.79e-05
3826	8.37e-05
3838	0.0001519
