Infrared Spectrum: 2-P-BROMOSTYRYL QUINOLINE
Formula: C17 H12 N Br
CAS: 5396-94-1
State: SOLID (1.0% IN KBr PELLET)
Class: COBLENTZ
Instrument: Not specified, most likely a prism, grating, or hybrid spectrometer.
Sampling: TRANSMISSION
Path length: 0.0355 CM
Resolution: 4
Origin: ANDERSON PHYSICAL LABORATORY
1/CM	TRANSMITTANCE
671.885	0.771
680.338	0.777
688.792	0.783
697.245	0.78
705.698	0.756
714.152	0.758
722.605	0.771
731.059	0.764
739.512	0.714
747.965	0.403
756.419	0.447
764.872	0.6449
773.325	0.749
781.779	0.729
790.232	0.752
798.686	0.755
807.139	0.786
815.592	0.701
824.046	0.381
832.499	0.204
840.952	0.42
849.406	0.7859
857.859	0.885
866.312	0.9059
874.766	0.938
883.219	0.924
891.673	0.908
900.126	0.902
908.579	0.884
917.033	0.891
925.486	0.891
933.939	0.884
942.393	0.863
950.846	0.7851
959.3	0.65
967.753	0.612
976.206	0.3791
984.66	0.496
993.113	0.756
1001.57	0.822
1010.02	0.774
1018.47	0.6299
1026.93	0.846
1035.38	0.875
1043.83	0.875
1052.29	0.87
1060.74	0.857
1069.19	0.798
1077.65	0.584
1086.1	0.561
1094.55	0.881
1103.01	0.884
1111.46	0.839
1119.91	0.812
1128.37	0.794
1136.82	0.825
1145.27	0.845
1153.73	0.83
1162.18	0.831
1170.63	0.836
1179.09	0.836
1187.54	0.815
1195.99	0.801
1204.45	0.803
1212.9	0.798
1221.35	0.801
1229.81	0.809
1238.26	0.809
1246.71	0.801
1255.17	0.783
1263.62	0.777
1272.07	0.782
1280.53	0.782
1288.98	0.779
1297.43	0.743
1305.89	0.755
1314.34	0.747
1322.79	0.699
1331.25	0.717
1339.7	0.758
1348.15	0.764
1356.61	0.701
1365.06	0.731
1373.51	0.74
1381.97	0.749
1390.42	0.738
1398.87	0.734
1407.33	0.677
1415.78	0.582
1424.23	0.717
1432.69	0.716
1441.14	0.59
1449.59	0.6829
1458.05	0.729
1466.5	0.729
1474.95	0.717
1483.41	0.677
1491.86	0.557
1500.32	0.426
1508.77	0.493
1517.22	0.393
1525.68	0.5779
1534.13	0.654
1542.58	0.714
1551.04	0.719
1559.49	0.671
1567.94	0.593
1576.4	0.633
1584.85	0.644
1593.3	0.521
1601.76	0.475
1610.21	0.6179
1618.66	0.698
1627.12	0.657
1635.57	0.702
1644.02	0.702
1652.48	0.71
1660.93	0.719
1669.38	0.732
1677.84	0.74
1686.29	0.743
1694.74	0.743
1703.2	0.738
1711.65	0.741
1720.1	0.74
1728.56	0.738
1737.01	0.737
1745.46	0.732
1753.92	0.731
1762.37	0.731
1770.82	0.729
1779.28	0.725
1787.73	0.722
1796.18	0.72
1804.64	0.717
1813.09	0.713
1821.54	0.708
1830	0.701
1838.45	0.701
1846.9	0.699
1855.36	0.702
1863.81	0.705
1872.26	0.707
1880.72	0.704
1889.17	0.696
1897.62	0.687
1906.08	0.665
1914.53	0.666
1922.98	0.677
1931.44	0.677
1939.89	0.674
1948.34	0.674
1956.8	0.674
1965.25	0.669
1973.7	0.668
1982.16	0.674
1990.61	0.675
1999.06	0.675
2007.52	0.675
2015.97	0.674
2024.42	0.673
2032.88	0.6712
2041.33	0.6709
2049.78	0.6681
2058.24	0.666
2066.69	0.6652
2075.14	0.662
2083.6	0.6574
2092.05	0.6519
2100.5	0.65
2108.96	0.6498
2117.41	0.648
2125.86	0.647
2134.32	0.6423
2142.77	0.6389
2151.22	0.6356
2159.68	0.6337
2168.13	0.6321
2176.58	0.6286
2185.04	0.6252
2193.49	0.6233
2201.94	0.623
2210.4	0.624
2218.85	0.624
2227.3	0.623
2235.76	0.621
2244.21	0.6178
2252.66	0.6146
2261.12	0.6077
2269.57	0.6031
2278.02	0.602
2286.48	0.602
2294.93	0.602
2303.38	0.599
2311.84	0.5985
2320.29	0.5945
2328.75	0.5915
2337.2	0.591
2345.65	0.59
2354.11	0.59
2362.56	0.5884
2371.01	0.588
2379.47	0.584
2387.92	0.582
2396.37	0.582
2404.83	0.5808
2413.28	0.5757
2421.73	0.5724
2430.19	0.5691
2438.64	0.566
2447.09	0.564
2455.55	0.563
2464	0.5612
2472.45	0.5609
2480.91	0.558
2489.36	0.558
2497.81	0.5552
2506.27	0.552
2514.72	0.551
2523.17	0.549
2531.63	0.5481
2540.08	0.5476
2548.53	0.5456
2556.99	0.5436
2565.44	0.542
2573.89	0.5368
2582.35	0.536
2590.8	0.534
2599.25	0.533
2607.71	0.531
2616.16	0.53
2624.61	0.528
2633.07	0.528
2641.52	0.528
2649.97	0.5275
2658.43	0.527
2666.88	0.5239
2675.33	0.521
2683.79	0.519
2692.24	0.5152
2700.69	0.5129
2709.15	0.51
2717.6	0.51
2726.05	0.509
2734.51	0.5088
2742.96	0.5066
2751.41	0.5047
2759.87	0.5031
2768.32	0.501
2776.77	0.4942
2785.23	0.492
2793.68	0.49
2802.13	0.4887
2810.59	0.4866
2819.04	0.484
2827.49	0.481
2835.95	0.4796
2844.4	0.477
2852.85	0.4743
2861.31	0.471
2869.76	0.4676
2878.21	0.4641
2886.67	0.4605
2895.12	0.459
2903.57	0.459
2912.03	0.459
2920.48	0.459
2928.93	0.457
2937.39	0.4554
2945.84	0.4535
2954.29	0.4506
2962.75	0.4469
2971.2	0.442
2979.65	0.442
2988.11	0.442
2996.56	0.441
3005.01	0.439
3013.47	0.4384
3021.92	0.4363
3030.37	0.4327
3038.83	0.4272
3047.28	0.4191
3055.73	0.4152
3064.19	0.4056
3072.64	0.4
3081.09	0.3964
3089.55	0.396
3098	0.3973
3106.45	0.4008
3114.91	0.41
3123.36	0.4206
3131.82	0.4262
3140.27	0.427
3148.72	0.427
3157.18	0.429
3165.63	0.429
3174.08	0.4265
3182.54	0.4245
3190.99	0.424
3199.44	0.4225
3207.9	0.4195
3216.35	0.417
3224.8	0.415
3233.26	0.414
3241.71	0.412
3250.16	0.412
3258.62	0.412
3267.07	0.411
3275.52	0.409
3283.98	0.409
3292.43	0.4059
3300.88	0.405
3309.34	0.405
3317.79	0.4033
3326.24	0.402
3334.7	0.4
3343.15	0.3978
3351.6	0.3961
3360.06	0.393
3368.51	0.3906
3376.96	0.3881
3385.42	0.3852
3393.87	0.3848
3402.32	0.3802
3410.78	0.3767
3419.23	0.375
3427.68	0.373
3436.14	0.372
3444.59	0.37
3453.04	0.3671
3461.5	0.3656
3469.95	0.363
3478.4	0.3603
3486.86	0.3571
3495.31	0.355
3503.76	0.3545
3512.22	0.354
3520.67	0.352
3529.12	0.352
3537.58	0.352
3546.03	0.352
3554.48	0.352
3562.94	0.352
3571.39	0.352
3579.84	0.352
3588.3	0.352
3596.75	0.352
3605.2	0.352
3613.66	0.352
3622.11	0.352
3630.56	0.352
3639.02	0.352
3647.47	0.3537
3655.92	0.354
3664.38	0.354
3672.83	0.354
3681.28	0.352
3689.74	0.352
3698.19	0.3544
3706.64	0.3563
3715.1	0.357
3723.55	0.357
3732	0.357
3740.46	0.3556
3748.91	0.355
3757.36	0.355
3765.82	0.355
3774.27	0.354
3782.72	0.354
3791.18	0.354
3799.63	0.353
3808.08	0.352
3816.54	0.351
3824.99	0.3505
3833.44	0.3485
3841.9	0.3464
3850.35	0.345
3858.8	0.343
3867.26	0.3409
3875.71	0.339
3884.16	0.337
3892.62	0.3367
3901.07	0.336
3909.52	0.334
3917.98	0.333
3926.43	0.333
3934.88	0.3318
3943.34	0.331
3951.79	0.331
3960.25	0.33
3968.7	0.328
3977.15	0.3252
3985.61	0.325
