Infrared Spectrum: Cinnamic acid, 3,4-dimethoxy-,methyl ester
Formula: C12 H14 O4
CAS: 5396-64-5
State: SOLUTION 7% (CHCl3 FOR 2.5-12.5 microns)
Melting point: 68-70 C
Class: COBLENTZ
Instrument: PERKIN-ELMER 421 (GRATING)
Instrument parameters: GRATING CHANGE AT 1999 CM^-^
Path length: 0.01 CM
Resolution: 2
Origin: ABBOTT LABORATORIES
1/CM	TRANSMITTANCE
690.644	0.8424
699.656	0.8062
708.668	0.7544
717.68	0.7111
726.691	0.7009
735.703	0.7007
744.715	0.7017
753.727	0.702
762.739	0.7027
771.751	0.7033
780.762	0.7029
789.774	0.6798
798.786	0.6456
807.798	0.7873
816.81	0.8513
825.822	0.814
834.834	0.6225
843.845	0.4816
852.857	0.7585
861.869	0.8169
870.881	0.8606
879.893	0.8698
888.905	0.8731
897.916	0.8669
906.928	0.8118
915.94	0.8035
924.952	0.8841
933.964	0.8661
942.976	0.8458
951.987	0.8332
960.999	0.7729
970.011	0.4289
979.023	0.5063
988.035	0.7461
997.047	0.6627
1006.06	0.4345
1015.07	0.2063
1024.08	0.3036
1033.09	0.4716
1042.11	0.705
1051.12	0.7896
1060.13	0.8259
1069.14	0.8334
1078.15	0.835
1087.17	0.8271
1096.18	0.8055
1105.19	0.7654
1114.2	0.6756
1123.21	0.4949
1132.22	0.0672
1141.24	0.219
1150.25	0.1032
1159.26	0.1025
1168.27	0.1164
1177.28	0.2302
1186.3	0.2062
1195.31	0.1834
1204.32	0.1596
1213.33	0.1283
1222.34	0.0968
1231.35	0.0654
1240.37	0.0339
1249.38	0.0179
1258.39	0.0226
1267.4	0.1167
1276.41	0.2892
1285.43	0.3179
1294.44	0.3588
1303.45	0.1835
1312.46	0.3456
1321.47	0.4401
1330.48	0.4017
1339.5	0.4918
1348.51	0.5413
1357.52	0.7445
1366.53	0.7901
1375.54	0.7989
1384.56	0.7975
1393.57	0.773
1402.58	0.6596
1411.59	0.5062
1420.6	0.3915
1429.62	0.2192
1438.63	0.2584
1447.64	0.365
1456.65	0.2435
1465.66	0.6141
1474.67	0.725
1483.69	0.6741
1492.7	0.4314
1501.71	0.1931
1510.72	0.2081
1519.73	0.57
1528.75	0.7338
1537.76	0.7868
1546.77	0.7804
1555.78	0.7591
1564.79	0.6787
1573.8	0.4652
1582.82	0.4287
1591.83	0.3033
1600.84	0.4497
1609.85	0.5061
1618.86	0.4044
1627.88	0.2719
1636.89	0.2707
1645.9	0.7217
1654.91	0.714
1663.92	0.565
1672.94	0.3977
1681.95	0.2889
1690.96	0.111
1699.97	0.0773
1708.98	0.1278
1717.99	0.1598
1727.01	0.6632
1736.02	0.7539
1745.03	0.8208
1754.04	0.8499
1763.05	0.8643
1772.07	0.874
1781.08	0.8805
1790.09	0.8846
1799.1	0.8868
1808.11	0.8875
1817.12	0.8804
1826.14	0.8767
1835.15	0.8801
1844.16	0.8862
1853.17	0.8937
1862.18	0.8913
1871.2	0.8923
1880.21	0.8958
1889.22	0.8922
1898.23	0.8899
1907.24	0.8891
1916.25	0.891
1925.27	0.8904
1934.28	0.8896
1943.29	0.8884
1952.3	0.8877
1961.31	0.8868
1970.33	0.8861
1979.34	0.8859
1988.35	0.886
1997.36	0.8862
2006.37	0.8863
2015.39	0.8861
2024.4	0.8862
2033.41	0.8886
2042.42	0.8918
2051.43	0.8954
2060.44	0.899
2069.46	0.8993
2078.47	0.9005
2087.48	0.9092
2096.49	0.9088
2105.5	0.9083
2114.52	0.9096
2123.53	0.9118
2132.54	0.9138
2141.55	0.9145
2150.56	0.9146
2159.57	0.9155
2168.59	0.9177
2177.6	0.9151
2186.61	0.9147
2195.62	0.9143
2204.63	0.914
2213.65	0.9138
2222.66	0.9142
2231.67	0.9139
2240.68	0.9137
2249.69	0.9139
2258.7	0.9125
2267.72	0.9099
2276.73	0.916
2285.74	0.9209
2294.75	0.923
2303.76	0.9296
2312.78	0.9293
2321.79	0.9332
2330.8	0.9362
2339.81	0.9394
2348.82	0.9413
2357.84	0.9434
2366.85	0.9434
2375.86	0.9538
2384.87	0.963
2393.88	0.9467
2402.89	0.9165
2411.91	0.9004
2420.92	0.8974
2429.93	0.896
2438.94	0.8957
2447.95	0.8962
2456.97	0.8945
2465.98	0.8925
2474.99	0.8897
2484	0.8878
2493.01	0.8874
2502.02	0.8873
2511.04	0.8874
2520.05	0.8873
2529.06	0.8887
2538.07	0.8889
2547.08	0.8875
2556.1	0.8819
2565.11	0.8807
2574.12	0.8794
2583.13	0.8781
2592.14	0.8772
2601.15	0.8764
2610.17	0.8765
2619.18	0.8807
2628.19	0.8908
2637.2	0.8863
2646.21	0.89
2655.23	0.8945
2664.24	0.8955
2673.25	0.899
2682.26	0.9013
2691.27	0.9017
2700.29	0.8978
2709.3	0.8944
2718.31	0.8924
2727.32	0.8914
2736.33	0.8905
2745.34	0.8895
2754.36	0.8883
2763.37	0.8856
2772.38	0.8833
2781.39	0.8822
2790.4	0.8813
2799.42	0.8788
2808.43	0.8652
2817.44	0.8314
2826.45	0.6948
2835.46	0.5735
2844.47	0.7793
2853.49	0.8312
2862.5	0.8418
2871.51	0.824
2880.52	0.7988
2889.53	0.7677
2898.55	0.702
2907.56	0.6865
2916.57	0.731
2925.58	0.6214
2934.59	0.5376
2943.61	0.5067
2952.62	0.5153
2961.63	0.571
2970.64	0.6714
2979.65	0.6976
2988.66	0.649
2997.68	0.5233
3006.69	0.4322
3015.7	0.4445
3024.71	0.4615
3033.72	0.623
3042.74	0.743
3051.75	0.7761
3060.76	0.7981
3069.77	0.818
3078.78	0.825
3087.79	0.8409
3096.81	0.8545
3105.82	0.8642
3114.83	0.8713
3123.84	0.876
3132.85	0.8793
3141.87	0.8826
3150.88	0.8876
3159.89	0.8906
3168.9	0.8935
3177.91	0.8972
3186.92	0.9
3195.94	0.9025
3204.95	0.9048
3213.96	0.9072
3222.97	0.9094
3231.98	0.9117
3241	0.9141
3250.01	0.9168
3259.02	0.9193
3268.03	0.9186
3277.04	0.9182
3286.06	0.918
3295.07	0.9173
3304.08	0.9158
3313.09	0.9162
3322.1	0.9165
3331.11	0.9154
3340.13	0.9142
3349.14	0.9133
3358.15	0.9119
3367.16	0.9101
3376.17	0.9083
3385.19	0.9061
3394.2	0.9069
3403.21	0.9078
3412.22	0.9086
3421.23	0.9089
3430.24	0.9091
3439.26	0.909
3448.27	0.9083
3457.28	0.9073
3466.29	0.9059
3475.3	0.9044
3484.32	0.9025
3493.33	0.901
3502.34	0.8998
3511.35	0.8987
3520.36	0.8982
3529.37	0.8977
3538.39	0.8995
3547.4	0.9019
3556.41	0.9029
3565.42	0.9024
3574.43	0.9025
3583.45	0.9049
3592.46	0.9064
3601.47	0.9066
3610.48	0.9092
3619.49	0.9094
3628.51	0.9112
3637.52	0.9104
3646.53	0.9035
3655.54	0.8995
3664.55	0.8992
3673.56	0.9034
3682.58	0.9085
3691.59	0.9089
3700.6	0.9087
3709.61	0.9088
3718.62	0.9087
3727.64	0.9082
3736.65	0.9074
3745.66	0.9079
3754.67	0.9084
3763.68	0.9088
3772.69	0.9076
3781.71	0.9063
3790.72	0.9049
3799.73	0.9046
3808.74	0.9045
3817.75	0.9042
3826.77	0.904
3835.78	0.9038
3844.79	0.9036
3853.8	0.903
3862.81	0.9015
3871.82	0.9003
3880.84	0.8998
3889.85	0.8999
3898.86	0.9003
3907.87	0.9005
3916.88	0.9007
3925.9	0.9006
3934.91	0.9006
3943.92	0.9003
3952.93	0.8997
3961.94	0.8989
3970.96	0.8994
3979.97	0.8998
3988.98	0.8994
3997.99	0.8985
