Infrared Spectrum: 3-CHLORO-4-PHENYL-3-BUTENE-2-ONE
Formula: C10 H9 Cl O
CAS: 53973-14-1
State: SOLUTION (10% CCl4 FOR 5000-1330, 10% CS2 FOR 1330-625 CM^-^1)
Class: COBLENTZ
Instrument: Not specified, most likely a prism, grating, or hybrid spectrometer.
Sampling: TRANSMISSION
Path length: 0.0131 CM, 0.0128 CM
Resolution: 4
Origin: DOW CHEMICAL COMPANY
MICROMETERS	TRANSMITTANCE
2.033	0.911
2.07314	0.911
2.11327	0.909
2.15341	0.913
2.19355	0.909
2.23368	0.904
2.27382	0.903
2.31395	0.908
2.35409	0.911
2.39423	0.909
2.43436	0.904
2.4745	0.923
2.51464	0.924
2.55477	0.929
2.59491	0.933
2.63505	0.936
2.67518	0.928
2.71532	0.926
2.75545	0.913
2.79559	0.901
2.83573	0.901
2.87586	0.889
2.916	0.861
2.95614	0.866
2.99627	0.899
3.03641	0.899
3.07655	0.901
3.11668	0.891
3.15682	0.886
3.19696	0.811
3.23709	0.709
3.27723	0.71
3.31736	0.774
3.3575	0.839
3.39764	0.864
3.43777	0.877
3.47791	0.913
3.51805	0.928
3.55818	0.928
3.59832	0.939
3.63846	0.954
3.67859	0.949
3.71873	0.948
3.75886	0.954
3.799	0.954
3.83914	0.946
3.87927	0.953
3.91941	0.956
3.95955	0.958
3.99968	0.956
4.03982	0.961
4.07996	0.959
4.12009	0.966
4.16023	0.958
4.20036	0.951
4.2405	0.946
4.28064	0.936
4.32077	0.938
4.36091	0.944
4.40105	0.959
4.44118	0.959
4.48132	0.963
4.52146	0.969
4.56159	0.963
4.60173	0.963
4.64187	0.966
4.682	0.971
4.72214	0.973
4.76227	0.973
4.80241	0.974
4.84255	0.973
4.88268	0.964
4.92282	0.968
4.96296	0.964
5.00309	0.964
5.04323	0.943
5.08337	0.914
5.1235	0.913
5.16364	0.954
5.20377	0.948
5.24391	0.928
5.28405	0.928
5.32418	0.934
5.36432	0.936
5.40446	0.934
5.44459	0.934
5.48473	0.906
5.52487	0.884
5.565	0.894
5.60514	0.908
5.64527	0.882
5.68541	0.864
5.72555	0.839
5.76568	0.765
5.80582	0.695
5.84596	0.576
5.88609	0.384
5.92623	0.123
5.96637	0.344
6.0065	0.622
6.04664	0.688
6.08677	0.695
6.12691	0.658
6.16705	0.506
6.20718	0.198
6.24732	0.095
6.28746	0.384
6.32759	0.444
6.36773	0.444
6.40787	0.464
6.448	0.466
6.48814	0.494
6.52828	0.575
6.56841	0.615
6.60855	0.653
6.64868	0.65
6.68882	0.508
6.72896	0.719
6.76909	0.822
6.80923	0.829
6.84937	0.707
6.8895	0.424
6.92964	0.623
6.96978	0.617
7.00991	0.55
7.05005	0.595
7.09018	0.7
7.13032	0.725
7.17046	0.735
7.21059	0.747
7.25073	0.724
7.29087	0.603
7.331	0.267
7.37114	0.254
7.41128	0.571
7.45141	0.533
7.49155	0.568
7.53168	0.623
7.57182	0.7
7.61196	0.72
7.65209	0.722
7.69223	0.693
7.73237	0.61
7.7725	0.553
7.81264	0.496
7.85278	0.526
7.89291	0.655
7.93305	0.62
7.97319	0.505
8.01332	0.459
8.05346	0.389
8.09359	0.167
8.13373	0.11
8.17387	0.299
8.214	0.464
8.25414	0.474
8.29428	0.299
8.33441	0.262
8.37455	0.234
8.41469	0.1
8.45482	0.102
8.49496	0.342
8.53509	0.54
8.57523	0.635
8.61537	0.672
8.6555	0.705
8.69564	0.767
8.73578	0.806
8.77591	0.836
8.81605	0.842
8.85619	0.839
8.89632	0.832
8.93646	0.822
8.97659	0.812
9.01673	0.794
9.05687	0.747
9.097	0.705
9.13714	0.688
9.17728	0.685
9.21741	0.712
9.25755	0.732
9.29769	0.693
9.33782	0.665
9.37796	0.724
9.41809	0.816
9.45823	0.839
9.49837	0.852
9.5385	0.859
9.57864	0.859
9.61878	0.849
9.65891	0.799
9.69905	0.687
9.73919	0.675
9.77932	0.715
9.81946	0.693
9.8596	0.647
9.89973	0.64
9.93987	0.583
9.98	0.6
10.0201	0.682
10.0603	0.729
10.1004	0.704
10.1405	0.583
10.1807	0.394
10.2208	0.292
10.261	0.342
10.3011	0.498
10.3412	0.613
10.3814	0.655
10.4215	0.625
10.4616	0.545
10.5018	0.56
10.5419	0.692
10.5821	0.775
10.6222	0.802
10.6623	0.812
10.7025	0.809
10.7426	0.78
10.7827	0.715
10.8229	0.603
10.863	0.555
10.9031	0.658
10.9433	0.73
10.9834	0.754
11.0236	0.719
11.0637	0.65
11.1038	0.625
11.144	0.7
11.1841	0.725
11.2242	0.704
11.2644	0.687
11.3045	0.692
11.3446	0.719
11.3848	0.729
11.4249	0.725
11.4651	0.704
11.5052	0.67
11.5453	0.653
11.5855	0.653
11.6256	0.668
11.6657	0.683
11.7059	0.698
11.746	0.71
11.7861	0.735
11.8263	0.762
11.8664	0.782
11.9066	0.795
11.9467	0.817
11.9868	0.829
12.027	0.834
12.0671	0.841
12.1072	0.854
12.1474	0.872
12.1875	0.882
12.2276	0.886
12.2678	0.887
12.3079	0.889
12.3481	0.889
12.3882	0.894
12.4283	0.897
12.4685	0.896
12.5086	0.896
12.5487	0.891
12.5889	0.891
12.629	0.886
12.6691	0.881
12.7093	0.876
12.7494	0.872
12.7896	0.869
12.8297	0.866
12.8698	0.864
12.91	0.859
12.9501	0.846
12.9902	0.834
13.0304	0.816
13.0705	0.792
13.1106	0.739
13.1508	0.633
13.1909	0.505
13.2311	0.346
13.2712	0.167
13.3113	0.198
13.3515	0.327
13.3916	0.413
13.4317	0.484
13.4719	0.573
13.512	0.657
13.5521	0.709
13.5923	0.747
13.6324	0.764
13.6726	0.774
13.7127	0.779
13.7528	0.78
13.793	0.779
13.8331	0.774
13.8732	0.767
13.9134	0.76
13.9535	0.752
13.9936	0.739
14.0338	0.724
14.0739	0.704
14.1141	0.682
14.1542	0.65
14.1943	0.603
14.2345	0.536
14.2746	0.486
14.3147	0.413
14.3549	0.347
14.395	0.264
14.4351	0.172
14.4753	0.098
14.5154	0.07
14.5556	0.08
14.5957	0.137
14.6358	0.192
14.676	0.235
14.7161	0.272
14.7562	0.311
14.7964	0.351
14.8365	0.397
14.8766	0.421
14.9168	0.444
14.9569	0.466
14.9971	0.488
15.0372	0.505
15.0773	0.508
15.1175	0.51
15.1576	0.51
15.1977	0.505
15.2379	0.503
15.278	0.5
15.3181	0.496
15.3583	0.488
15.3984	0.486
15.4386	0.484
15.4787	0.481
15.5188	0.479
15.559	0.476
15.5991	0.469
15.6392	0.464
15.6794	0.456
15.7195	0.449
15.7596	0.446
15.7998	0.446
15.8399	0.439
15.8801	0.434
