Infrared Spectrum: 2,6-Diiodo-4-nitroaniline
Formula: C 6 H 4 I 2 N 2 O 2
CAS: 5398-27-6
State: gas
Origin: EPA-IR VAPOR PHASE LIBRARY
1/CM	ABSORBANCE
501.5	0.00122
513.074	0.0008986
524.648	0.001
536.222	0.00126
547.796	0.00151
559.37	0.00119
570.944	0.0007937
582.518	0.0006487
594.092	0.0004958
605.666	0.0005316
617.24	0.0005372
628.814	0.0006864
640.388	0.0007907
651.962	0.00115
663.536	0.0026
675.11	0.00344
686.684	0.00172
698.258	0.00196
709.832	0.00345
721.406	0.00199
732.98	0.00237
744.554	0.00165
756.128	0.00103
767.702	0.0006369
779.276	0.0007509
790.85	0.000615
802.423	0.0006093
813.997	0.00101
825.571	0.00124
837.145	0.00112
848.719	0.00117
860.293	0.0008882
871.867	0.0007702
883.441	0.0009131
895.015	0.00147
906.589	0.00124
918.163	0.0005365
929.737	0.0004602
941.311	0.0004153
952.885	0.0002862
964.459	0.0002237
976.033	0.0002876
987.607	0.0002777
999.181	0.0001527
1010.76	0.0004182
1022.33	0.0004383
1033.9	0.0005682
1045.48	0.00105
1057.05	0.00203
1068.63	0.0008174
1080.2	0.0006245
1091.77	0.0007499
1103.35	0.00124
1114.92	0.00352
1126.49	0.00351
1138.07	0.0007573
1149.64	0.0007612
1161.22	0.0006837
1172.79	0.0009069
1184.36	0.00114
1195.94	0.00154
1207.51	0.0018
1219.09	0.00203
1230.66	0.00245
1242.23	0.00184
1253.81	0.00186
1265.38	0.00223
1276.96	0.00187
1288.53	0.00173
1300.1	0.00172
1311.68	0.00217
1323.25	0.00449
1334.83	0.01535
1346.4	0.02068
1357.97	0.00469
1369.55	0.00141
1381.12	0.00104
1392.7	0.00127
1404.27	0.00134
1415.84	0.00119
1427.42	0.00153
1438.99	0.00361
1450.57	0.00478
1462.14	0.00199
1473.71	0.00118
1485.29	0.00106
1496.86	0.0009832
1508.44	0.00209
1520.01	0.00841
1531.58	0.01175
1543.16	0.00212
1554.73	0.00162
1566.31	0.0027
1577.88	0.00357
1589.45	0.00225
1601.03	0.00441
1612.6	0.00822
1624.18	0.00529
1635.75	0.00207
1647.32	0.00114
1658.9	0.0008411
1670.47	0.0007097
1682.05	0.0007454
1693.62	0.000729
1705.19	0.0006802
1716.77	0.0006429
1728.34	0.0006476
1739.92	0.0005865
1751.49	0.0005388
1763.06	0.0005873
1774.64	0.0006761
1786.21	0.0007862
1797.79	0.0006943
1809.36	0.0005445
1820.93	0.0005313
1832.51	0.0005077
1844.08	0.0004634
1855.66	0.0004601
1867.23	0.0004708
1878.8	0.0004127
1890.38	0.0004235
1901.95	0.0004089
1913.53	0.000403
1925.1	0.000414
1936.67	0.0003789
1948.25	0.0003839
1959.82	0.0003997
1971.4	0.000407
1982.97	0.0004128
1994.54	0.0004437
2006.12	0.0004566
2017.69	0.0004077
2029.27	0.0003711
2040.84	0.0003758
2052.41	0.000385
2063.99	0.000374
2075.56	0.0004181
2087.14	0.0004248
2098.71	0.0004331
2110.28	0.0004146
2121.86	0.0004051
2133.43	0.0003851
2145.01	0.0003746
2156.58	0.0003584
2168.15	0.0004099
2179.73	0.0004029
2191.3	0.0003545
2202.88	0.0003733
2214.45	0.0003802
2226.02	0.0003761
2237.6	0.0004082
2249.17	0.0003685
2260.74	0.0003792
2272.32	0.0003685
2283.89	0.0003578
2295.47	0.0003756
2307.04	0.0003404
2318.61	0.0003636
2330.19	0.0004309
2341.76	0.0004099
2353.34	0.0004328
2364.91	0.0004448
2376.48	0.0003957
2388.06	0.0003992
2399.63	0.0004021
2411.21	0.0003889
2422.78	0.0003666
2434.35	0.0004142
2445.93	0.0004069
2457.5	0.0004518
2469.08	0.0004794
2480.65	0.0004131
2492.22	0.0004657
2503.8	0.0004795
2515.37	0.0004338
2526.95	0.0004221
2538.52	0.0004085
2550.09	0.0004074
2561.67	0.000381
2573.24	0.0004266
2584.82	0.0004652
2596.39	0.000574
2607.96	0.0006135
2619.54	0.000484
2631.11	0.0003995
2642.69	0.0003479
2654.26	0.0003543
2665.83	0.0004105
2677.41	0.0004122
2688.98	0.0004192
2700.56	0.0004141
2712.13	0.0004227
2723.7	0.0004091
2735.28	0.000397
2746.85	0.0004567
2758.43	0.0003834
2770	0.0003846
2781.57	0.0003655
2793.15	0.0003507
2804.72	0.0003875
2816.3	0.0003903
2827.87	0.0004346
2839.44	0.0003659
2851.02	0.0005058
2862.59	0.0005951
2874.17	0.000453
2885.74	0.0004885
2897.31	0.0005658
2908.89	0.0005743
2920.46	0.0004395
2932.04	0.0004632
2943.61	0.0004259
2955.18	0.0004622
2966.76	0.0004531
2978.33	0.0004739
2989.91	0.0004604
3001.48	0.0004715
3013.05	0.0004766
3024.63	0.0004772
3036.2	0.0005718
3047.78	0.0005383
3059.35	0.000467
3070.92	0.0005369
3082.5	0.0008811
3094.07	0.00101
3105.65	0.0008275
3117.22	0.0005455
3128.79	0.0005513
3140.37	0.0005757
3151.94	0.0005287
3163.52	0.0004754
3175.09	0.0004974
3186.66	0.0005491
3198.24	0.0005834
3209.81	0.0005138
3221.39	0.0005889
3232.96	0.0005844
3244.53	0.0005642
3256.11	0.0005973
3267.68	0.0005874
3279.26	0.0006289
3290.83	0.0006462
3302.4	0.0006594
3313.98	0.0006035
3325.55	0.0006022
3337.13	0.0006657
3348.7	0.0006689
3360.27	0.0009873
3371.85	0.00141
3383.42	0.00178
3395	0.00196
3406.57	0.00239
3418.14	0.00109
3429.72	0.000855
3441.29	0.0008654
3452.86	0.00132
3464.44	0.00171
3476.01	0.00209
3487.59	0.00194
3499.16	0.00216
3510.73	0.00311
3522.31	0.00138
3533.88	0.0009633
3545.46	0.0008485
3557.03	0.0007747
3568.6	0.0007484
3580.18	0.0008065
3591.75	0.0006964
3603.33	0.000713
3614.9	0.0007865
3626.47	0.0008361
3638.05	0.0007039
3649.62	0.0007762
3661.2	0.0008293
3672.77	0.0007997
3684.34	0.0008264
3695.92	0.0007389
3707.49	0.0007399
3719.07	0.0008199
3730.64	0.0006094
3742.21	0.0007227
3753.79	0.0006952
3765.36	0.0007798
3776.94	0.0007021
3788.51	0.0006944
3800.08	0.0007482
3811.66	0.0007638
3823.23	0.0009266
3834.81	0.0007961
3846.38	0.0008324
3857.95	0.0007205
3869.53	0.0008796
3881.1	0.0007816
3892.68	0.0007937
3904.25	0.0008445
3915.82	0.0007952
3927.4	0.000837
3938.97	0.0009652
3950.55	0.000827
3962.12	0.000842
3973.69	0.0008318
3985.27	0.000766
3996.84	0.0008419
