Infrared Spectrum: 4-PYRIDINECARBOXYLIC ACID, 2,6-DICHLORO-
Formula: C6 H3 Cl2 N O2
CAS: 5398-44-7
State: SOLID (1 mg / 650 mg KBr DISC)
Class: COBLENTZ III
Instrument: PERKIN-ELMER 521 (GRATING)
Sampling: TRANSMISSION
Resolution: 4
Origin: SOUTHERN RESEARCH INSTITUTE
1/CM	TRANSMITTANCE
250.22	0.258
260.774	0.3308
271.328	0.4226
281.882	0.4977
292.436	0.5635
302.99	0.6476
313.545	0.6876
324.099	0.7156
334.653	0.741
345.207	0.7221
355.761	0.7623
366.315	0.6906
376.869	0.8448
387.423	0.8626
397.977	0.87
408.531	0.8758
419.085	0.876
429.639	0.8672
440.194	0.824
450.748	0.8725
461.302	0.8094
471.856	0.903
482.41	0.892
492.964	0.9073
503.518	0.91
514.072	0.91
524.626	0.909
535.18	0.905
545.734	0.8886
556.289	0.8496
566.843	0.9
577.397	0.908
587.951	0.912
598.505	0.906
609.059	0.902
619.613	0.897
630.167	0.8915
640.721	0.8875
651.275	0.8686
661.829	0.8045
672.383	0.4696
682.938	0.613
693.492	0.9264
704.046	0.9353
714.6	0.9376
725.154	0.929
735.708	0.929
746.262	0.916
756.816	0.8625
767.37	0.275
777.924	0.8787
788.478	0.8659
799.033	0.7897
809.587	0.5627
820.141	0.5422
830.695	0.7282
841.249	0.8612
851.803	0.8606
862.357	0.8436
872.911	0.8192
883.465	0.7555
894.019	0.5024
904.573	0.799
915.127	0.7619
925.682	0.5773
936.236	0.8404
946.79	0.866
957.344	0.867
967.898	0.863
978.452	0.8499
989.006	0.7948
999.56	0.4962
1010.11	0.893
1020.67	0.892
1031.22	0.891
1041.78	0.8821
1052.33	0.8751
1062.88	0.872
1073.44	0.8661
1083.99	0.8473
1094.55	0.8487
1105.1	0.8424
1115.66	0.8175
1126.21	0.7923
1136.76	0.7456
1147.32	0.6177
1157.87	0.3953
1168.43	0.3077
1178.98	0.5545
1189.53	0.77
1200.09	0.7299
1210.64	0.6364
1221.2	0.4521
1231.75	0.3483
1242.3	0.3819
1252.86	0.1737
1263.41	0.3433
1273.97	0.6417
1284.52	0.7128
1295.07	0.7854
1305.63	0.8
1316.18	0.8086
1326.74	0.7978
1337.29	0.7132
1347.85	0.6018
1358.4	0.2885
1368.95	0.1486
1379.51	0.5687
1390.06	0.6558
1400.62	0.6816
1411.17	0.4781
1421.72	0.3781
1432.28	0.6723
1442.83	0.8094
1453.39	0.8676
1463.94	0.8824
1474.49	0.8926
1485.05	0.891
1495.6	0.8717
1506.16	0.8617
1516.71	0.804
1527.26	0.6889
1537.82	0.417
1548.37	0.1482
1558.93	0.7576
1569.48	0.78
1580.03	0.6916
1590.59	0.6421
1601.14	0.6739
1611.7	0.8086
1622.25	0.8093
1632.81	0.8213
1643.36	0.824
1653.91	0.8209
1664.47	0.813
1675.02	0.7874
1685.58	0.6933
1696.13	0.6706
1706.68	0.4958
1717.24	0.1903
1727.79	0.1835
1738.35	0.4523
1748.9	0.577
1759.45	0.7228
1770.01	0.761
1780.56	0.7562
1791.12	0.8016
1801.67	0.8089
1812.22	0.8119
1822.78	0.8199
1833.33	0.8076
1843.89	0.8237
1854.44	0.85
1865	0.85
1875.55	0.85
1886.1	0.847
1896.66	0.8486
1907.21	0.854
1917.77	0.861
1928.32	0.8645
1938.87	0.8757
1949.43	0.878
1959.98	0.878
1970.54	0.878
1981.09	0.878
1991.64	0.878
2002.2	0.88
2012.75	0.8793
2023.31	0.8727
2033.86	0.8713
2044.41	0.867
2054.97	0.8623
2065.52	0.853
2076.08	0.858
2086.63	0.862
2097.19	0.862
2107.74	0.861
2118.29	0.8597
2128.85	0.859
2139.4	0.859
2149.96	0.859
2160.51	0.855
2171.06	0.854
2181.62	0.853
2192.17	0.8503
2202.73	0.846
2213.28	0.8453
2223.83	0.8373
2234.39	0.828
2244.94	0.826
2255.5	0.819
2266.05	0.816
2276.6	0.814
2287.16	0.811
2297.71	0.8083
2308.27	0.8023
2318.82	0.7913
2329.38	0.7863
2339.93	0.7773
2350.48	0.769
2361.04	0.7603
2371.59	0.7533
2382.15	0.7417
2392.7	0.726
2403.25	0.7167
2413.81	0.709
2424.36	0.7053
2434.92	0.696
2445.47	0.6784
2456.02	0.6507
2466.58	0.634
2477.13	0.626
2487.69	0.6257
2498.24	0.63
2508.79	0.6347
2519.35	0.632
2529.9	0.6137
2540.46	0.5923
2551.01	0.5917
2561.56	0.596
2572.12	0.5923
2582.67	0.565
2593.23	0.5477
2603.78	0.5503
2614.34	0.5833
2624.89	0.608
2635.44	0.6323
2646	0.652
2656.55	0.6447
2667.11	0.64
2677.66	0.64
2688.21	0.6367
2698.77	0.6237
2709.32	0.6027
2719.88	0.585
2730.43	0.5563
2740.98	0.5267
2751.54	0.52
2762.09	0.524
2772.65	0.5353
2783.2	0.5323
2793.75	0.5213
2804.31	0.516
2814.86	0.5123
2825.42	0.4993
2835.97	0.4873
2846.53	0.4773
2857.08	0.465
2867.63	0.461
2878.19	0.462
2888.74	0.462
2899.3	0.463
2909.85	0.4667
2920.4	0.47
2930.96	0.4747
2941.51	0.483
2952.07	0.4957
2962.62	0.5047
2973.17	0.509
2983.73	0.507
2994.28	0.509
3004.84	0.5183
3015.39	0.5273
3025.94	0.544
3036.5	0.5547
3047.05	0.563
3057.61	0.5607
3068.16	0.5061
3078.72	0.3603
3089.27	0.5757
3099.82	0.522
3110.38	0.631
3120.93	0.6493
3131.49	0.653
3142.04	0.655
3152.59	0.678
3163.15	0.7043
3173.7	0.7173
3184.26	0.732
3194.81	0.7463
3205.36	0.7593
3215.92	0.7657
3226.47	0.773
3237.03	0.7787
3247.58	0.7843
3258.13	0.787
3268.69	0.788
3279.24	0.79
3289.8	0.791
3300.35	0.788
3310.91	0.7853
3321.46	0.7783
3332.01	0.7703
3342.57	0.7607
3353.12	0.7533
3363.68	0.7393
3374.23	0.7263
3384.78	0.7127
3395.34	0.7053
3405.89	0.6973
3416.45	0.689
3427	0.678
3437.55	0.6833
3448.11	0.6937
3458.66	0.7003
3469.22	0.7057
3479.77	0.7097
3490.32	0.712
3500.88	0.7147
3511.43	0.7277
3521.99	0.7367
3532.54	0.7447
3543.1	0.756
3553.65	0.764
3564.2	0.7737
3574.76	0.7803
3585.31	0.7907
3595.87	0.8037
3606.42	0.8087
3616.97	0.8223
3627.53	0.8247
3638.08	0.8327
3648.64	0.833
3659.19	0.833
3669.74	0.834
3680.3	0.841
3690.85	0.8447
3701.41	0.844
3711.96	0.845
3722.51	0.844
3733.07	0.842
3743.62	0.842
3754.18	0.8427
3764.73	0.84
3775.28	0.837
3785.84	0.836
3796.39	0.8333
3806.95	0.832
3817.5	0.833
3828.06	0.83
3838.61	0.828
3849.16	0.826
3859.72	0.825
3870.27	0.824
3880.83	0.821
3891.38	0.82
3901.93	0.82
3912.49	0.82
3923.04	0.82
3933.6	0.819
3944.15	0.819
3954.7	0.817
3965.26	0.815
3975.81	0.813
3986.37	0.813
3996.92	0.813
