Infrared Spectrum: MARGARONITRILE
Formula: C17 H33 N
CAS: 5399-02-0
State: SOLID
Melting point: 30-32 C
Class: COBLENTZ
Instrument: Not specified, most likely a prism, grating, or hybrid spectrometer.
Sampling: TRANSMISSION
Resolution: 4
Origin: WYANDOTTE CHEMICALS CORP., WYANDOTTE, MICHIGAN, USA
MICROMETERS	TRANSMITTANCE
2.036	0.654
2.07589	0.652
2.11578	0.659
2.15567	0.647
2.19555	0.559
2.23544	0.487
2.27533	0.482
2.31522	0.484
2.35511	0.497
2.395	0.542
2.43489	0.587
2.47477	0.601
2.51466	0.614
2.55455	0.636
2.59444	0.652
2.63433	0.664
2.67422	0.672
2.71411	0.666
2.75399	0.664
2.79388	0.669
2.83377	0.676
2.87366	0.687
2.91355	0.694
2.95344	0.696
2.99333	0.699
3.03321	0.694
3.0731	0.679
3.11299	0.647
3.15288	0.622
3.19277	0.612
3.23266	0.529
3.27255	0.405
3.31243	0.14
3.35232	0.02
3.39221	0.033
3.4321	0.033
3.47199	0.035
3.51188	0.036
3.55177	0.076
3.59165	0.215
3.63154	0.328
3.67143	0.348
3.71132	0.412
3.75121	0.405
3.7911	0.427
3.83099	0.492
3.87087	0.542
3.91076	0.602
3.95065	0.644
3.99054	0.681
4.03043	0.701
4.07032	0.707
4.11021	0.727
4.15009	0.729
4.18998	0.726
4.22987	0.714
4.26976	0.711
4.30965	0.721
4.34954	0.729
4.38943	0.724
4.42931	0.714
4.4692	0.599
4.50909	0.262
4.54898	0.622
4.58887	0.751
4.62876	0.764
4.66865	0.774
4.70854	0.786
4.74842	0.813
4.78831	0.824
4.8282	0.833
4.86809	0.834
4.90798	0.833
4.94787	0.829
4.98776	0.824
5.02764	0.838
5.06753	0.841
5.10742	0.858
5.14731	0.858
5.1872	0.856
5.22709	0.856
5.26698	0.849
5.30686	0.851
5.34675	0.859
5.38664	0.868
5.42653	0.866
5.46642	0.876
5.50631	0.878
5.5462	0.871
5.58608	0.879
5.62597	0.874
5.66586	0.878
5.70575	0.864
5.74564	0.841
5.78553	0.856
5.82542	0.839
5.8653	0.829
5.90519	0.814
5.94508	0.824
5.98497	0.821
6.02486	0.811
6.06475	0.806
6.10464	0.801
6.14452	0.784
6.18441	0.762
6.2243	0.771
6.26419	0.772
6.30408	0.792
6.34397	0.792
6.38386	0.809
6.42374	0.782
6.46363	0.786
6.50352	0.751
6.54341	0.727
6.5833	0.687
6.62319	0.585
6.66308	0.445
6.70296	0.156
6.74285	0.031
6.78274	0.035
6.82263	0.04
6.86252	0.051
6.90241	0.106
6.9423	0.17
6.98218	0.135
7.02207	0.23
7.06196	0.48
7.10185	0.555
7.14174	0.532
7.18163	0.365
7.22152	0.111
7.2614	0.178
7.30129	0.263
7.34118	0.372
7.38107	0.409
7.42096	0.457
7.46085	0.435
7.50074	0.218
7.54062	0.477
7.58051	0.505
7.6204	0.505
7.66029	0.522
7.70018	0.559
7.74007	0.599
7.77996	0.622
7.81984	0.637
7.85973	0.651
7.89962	0.666
7.93951	0.671
7.9794	0.661
8.01929	0.687
8.05918	0.704
8.09906	0.686
8.13895	0.711
8.17884	0.734
8.21873	0.699
8.25862	0.669
8.29851	0.747
8.3384	0.764
8.37828	0.746
8.41817	0.771
8.45806	0.782
8.49795	0.769
8.53784	0.764
8.57773	0.772
8.61762	0.779
8.6575	0.792
8.69739	0.808
8.73728	0.823
8.77717	0.831
8.81706	0.737
8.85695	0.634
8.89684	0.689
8.93672	0.792
8.97661	0.813
9.0165	0.811
9.05639	0.736
9.09628	0.752
9.13617	0.782
9.17606	0.786
9.21594	0.772
9.25583	0.761
9.29572	0.761
9.33561	0.737
9.3755	0.691
9.41539	0.737
9.45528	0.761
9.49516	0.717
9.53505	0.749
9.57494	0.787
9.61483	0.804
9.65472	0.809
9.69461	0.808
9.7345	0.823
9.77438	0.823
9.81427	0.782
9.85416	0.784
9.89405	0.799
9.93394	0.826
9.97383	0.844
10.0137	0.848
10.0536	0.848
10.0935	0.836
10.1334	0.821
10.1733	0.804
10.2132	0.774
10.253	0.777
10.2929	0.751
10.3328	0.731
10.3727	0.712
10.4126	0.767
10.4525	0.797
10.4924	0.806
10.5323	0.813
10.5722	0.821
10.612	0.823
10.6519	0.786
10.6918	0.711
10.7317	0.784
10.7716	0.823
10.8115	0.834
10.8514	0.834
10.8913	0.839
10.9312	0.844
10.971	0.854
11.0109	0.859
11.0508	0.856
11.0907	0.831
11.1306	0.814
11.1705	0.757
11.2104	0.762
11.2503	0.813
11.2902	0.853
11.33	0.876
11.3699	0.884
11.4098	0.886
11.4497	0.888
11.4896	0.879
11.5295	0.846
11.5694	0.756
11.6093	0.809
11.6491	0.856
11.689	0.871
11.7289	0.861
11.7688	0.841
11.8087	0.792
11.8486	0.742
11.8885	0.769
11.9284	0.814
11.9683	0.841
12.0081	0.823
12.048	0.813
12.0879	0.849
12.1278	0.883
12.1677	0.884
12.2076	0.896
12.2475	0.903
12.2874	0.899
12.3273	0.903
12.3671	0.901
12.407	0.893
12.4469	0.879
12.4868	0.873
12.5267	0.871
12.5666	0.871
12.6065	0.878
12.6464	0.886
12.6863	0.879
12.7261	0.876
12.766	0.871
12.8059	0.858
12.8458	0.846
12.8857	0.821
12.9256	0.752
12.9655	0.759
13.0054	0.799
13.0452	0.816
13.0851	0.818
13.125	0.811
13.1649	0.797
13.2048	0.782
13.2447	0.767
13.2846	0.747
13.3245	0.731
13.3644	0.699
13.4042	0.679
13.4441	0.664
13.484	0.642
13.5239	0.611
13.5638	0.567
13.6037	0.505
13.6436	0.482
13.6835	0.467
13.7234	0.417
13.7632	0.333
13.8031	0.258
13.843	0.176
13.8829	0.125
13.9228	0.086
13.9627	0.083
14.0026	0.136
14.0425	0.258
14.0824	0.392
14.1222	0.517
14.1621	0.617
14.202	0.684
14.2419	0.752
14.2818	0.789
14.3217	0.828
14.3616	0.863
14.4015	0.884
14.4413	0.906
14.4812	0.923
14.5211	0.936
14.561	0.946
14.6009	0.961
14.6408	0.963
14.6807	0.968
14.7206	0.973
14.7605	0.974
14.8003	0.974
14.8402	0.974
14.8801	0.976
14.92	0.974
14.9599	0.961
14.9998	0.918
15.0397	0.874
15.0796	0.878
15.1195	0.909
15.1593	0.934
15.1992	0.934
15.2391	0.926
15.279	0.914
15.3189	0.904
15.3588	0.901
15.3987	0.886
15.4386	0.874
15.4785	0.859
15.5183	0.853
15.5582	0.846
15.5981	0.843
15.638	0.833
15.6779	0.819
15.7178	0.803
15.7577	0.787
15.7976	0.774
15.8374	0.762
15.8773	0.746
15.9172	0.736
15.9571	0.721
15.997	0.721
