Infrared Spectrum: 9H-PURINE, 6-CHLORO-9-(Beta-D-RIBOFURANOSYL)-
Formula: C10 H11 Cl N4 O4
CAS: 5399-87-1
State: SOLID (0.8 mg / 650 mg KBr DISC)
Melting point: 165 C DECOMPOSES
Class: COBLENTZ III
Instrument: PERKIN-ELMER 21 (GRATING)
Instrument parameters: FILTER CHANGE AT 1070 CM^-^1
Sampling: TRANSMISSION
Resolution: 2
Origin: SOUTHERN RESEARCH INSTITUTE
1/CM	TRANSMITTANCE
630.125	0.747
639.537	0.799
648.949	0.7224
658.36	0.7026
667.772	0.6964
677.184	0.7219
686.596	0.7073
696.007	0.6772
705.419	0.6112
714.831	0.6326
724.243	0.6528
733.654	0.5815
743.066	0.6118
752.478	0.637
761.89	0.637
771.302	0.633
780.713	0.6127
790.125	0.5976
799.537	0.5528
808.949	0.3684
818.36	0.2816
827.772	0.7013
837.184	0.7079
846.596	0.6304
856.008	0.5194
865.419	0.5016
874.831	0.5066
884.243	0.7497
893.655	0.7174
903.066	0.6488
912.478	0.6744
921.89	0.5616
931.302	0.2494
940.713	0.4825
950.125	0.7375
959.537	0.7231
968.949	0.6383
978.361	0.4039
987.772	0.4058
997.184	0.642
1006.6	0.6199
1016.01	0.5365
1025.42	0.3945
1034.83	0.2276
1044.24	0.2046
1053.65	0.3921
1063.07	0.3489
1072.48	0.1515
1081.89	0.0914
1091.3	0.165
1100.71	0.3466
1110.13	0.2685
1119.54	0.2514
1128.95	0.4178
1138.36	0.4083
1147.77	0.6525
1157.18	0.7962
1166.6	0.811
1176.01	0.7582
1185.42	0.6301
1194.83	0.3316
1204.24	0.3146
1213.65	0.3775
1223.07	0.5555
1232.48	0.6845
1241.89	0.6313
1251.3	0.5218
1260.71	0.633
1270.13	0.6583
1279.54	0.6876
1288.95	0.6218
1298.36	0.662
1307.77	0.6031
1317.18	0.5384
1326.6	0.5113
1336.01	0.2693
1345.42	0.3103
1354.83	0.709
1364.24	0.7004
1373.66	0.5664
1383.07	0.392
1392.48	0.4336
1401.89	0.4404
1411.3	0.4036
1420.71	0.4094
1430.13	0.47
1439.54	0.463
1448.95	0.3721
1458.36	0.4859
1467.77	0.6976
1477.18	0.714
1486.6	0.5337
1496.01	0.497
1505.42	0.7919
1514.83	0.781
1524.24	0.7553
1533.66	0.6209
1543.07	0.5204
1552.48	0.2286
1561.89	0.2796
1571.3	0.492
1580.71	0.455
1590.13	0.2351
1599.54	0.5155
1608.95	0.7963
1618.36	0.8642
1627.77	0.916
1637.18	0.9351
1646.6	0.9549
1656.01	0.967
1665.42	0.969
1674.83	0.969
1684.24	0.967
1693.66	0.967
1703.07	0.964
1712.48	0.961
1721.89	0.951
1731.3	0.9513
1740.71	0.955
1750.13	0.9549
1759.54	0.946
1768.95	0.931
1778.36	0.9086
1787.77	0.8367
1797.18	0.868
1806.6	0.9654
1816.01	0.9634
1825.42	0.9529
1834.83	0.951
1844.24	0.9465
1853.66	0.9407
1863.07	0.9343
1872.48	0.9288
1881.89	0.9077
1891.3	0.88
1900.71	0.8919
1910.13	0.9196
1919.54	0.926
1928.95	0.922
1938.36	0.915
1947.77	0.912
1957.18	0.9115
1966.6	0.911
1976.01	0.9087
1985.42	0.906
1994.83	0.9074
2004.24	0.9058
2013.66	0.9022
2023.07	0.8962
2032.48	0.8957
2041.89	0.891
2051.3	0.889
2060.71	0.886
2070.13	0.8828
2079.54	0.883
2088.95	0.882
2098.36	0.88
2107.77	0.8768
2117.19	0.8697
2126.6	0.863
2136.01	0.862
2145.42	0.86
2154.83	0.862
2164.24	0.862
2173.66	0.851
2183.07	0.8475
2192.48	0.8448
2201.89	0.84
2211.3	0.844
2220.71	0.84
2230.13	0.8403
2239.54	0.84
2248.95	0.8373
2258.36	0.8357
2267.77	0.833
2277.19	0.8278
2286.6	0.822
2296.01	0.822
2305.42	0.818
2314.83	0.813
2324.24	0.813
2333.66	0.814
2343.07	0.8097
2352.48	0.8067
2361.89	0.8037
2371.3	0.793
2380.71	0.793
2390.13	0.792
2399.54	0.79
2408.95	0.7867
2418.36	0.7848
2427.77	0.778
2437.19	0.773
2446.6	0.772
2456.01	0.767
2465.42	0.759
2474.83	0.759
2484.24	0.762
2493.66	0.7588
2503.07	0.7577
2512.48	0.753
2521.89	0.752
2531.3	0.7427
2540.71	0.735
2550.13	0.7317
2559.54	0.7257
2568.95	0.7175
2578.36	0.7068
2587.77	0.6978
2597.19	0.6918
2606.6	0.688
2616.01	0.688
2625.42	0.686
2634.83	0.6847
2644.24	0.681
2653.66	0.681
2663.07	0.6827
2672.48	0.6718
2681.89	0.669
2691.3	0.668
2700.71	0.6587
2710.13	0.652
2719.54	0.6447
2728.95	0.6385
2738.36	0.6217
2747.77	0.6157
2757.19	0.5968
2766.6	0.5764
2776.01	0.565
2785.42	0.5558
2794.83	0.5405
2804.24	0.5185
2813.66	0.501
2823.07	0.503
2832.48	0.524
2841.89	0.5245
2851.3	0.5112
2860.72	0.4975
2870.13	0.492
2879.54	0.4952
2888.95	0.5065
2898.36	0.527
2907.77	0.5214
2917.19	0.518
2926.6	0.5225
2936.01	0.5395
2945.42	0.5649
2954.83	0.568
2964.24	0.565
2973.66	0.5588
2983.07	0.5445
2992.48	0.524
3001.89	0.5128
3011.3	0.4915
3020.72	0.4775
3030.13	0.4562
3039.54	0.4392
3048.95	0.4228
3058.36	0.4178
3067.77	0.4167
3077.19	0.4137
3086.6	0.405
3096.01	0.3885
3105.42	0.3702
3114.83	0.3437
3124.24	0.316
3133.66	0.3097
3143.07	0.302
3152.48	0.298
3161.89	0.295
3171.3	0.292
3180.72	0.287
3190.13	0.282
3199.54	0.2788
3208.95	0.276
3218.36	0.284
3227.77	0.2878
3237.19	0.2982
3246.6	0.2993
3256.01	0.301
3265.42	0.2977
3274.83	0.2977
3284.24	0.296
3293.66	0.2947
3303.07	0.293
3312.48	0.293
3321.89	0.293
3331.3	0.29
3340.72	0.295
3350.13	0.296
3359.54	0.295
3368.95	0.2897
3378.36	0.2853
3387.77	0.284
3397.19	0.284
3406.6	0.2855
3416.01	0.2982
3425.42	0.3185
3434.83	0.3683
3444.24	0.3996
3453.66	0.4602
3463.07	0.4929
3472.48	0.5225
3481.89	0.5598
3491.3	0.6055
3500.72	0.6238
3510.13	0.6659
3519.54	0.6915
3528.95	0.7123
3538.36	0.72
3547.77	0.7292
3557.19	0.7431
3566.6	0.7525
3576.01	0.7623
3585.42	0.772
3594.83	0.773
3604.25	0.776
3613.66	0.775
3623.07	0.775
3632.48	0.773
3641.89	0.772
3651.3	0.769
3660.72	0.769
3670.13	0.769
3679.54	0.767
3688.95	0.766
3698.36	0.7618
3707.77	0.7588
3717.19	0.758
3726.6	0.759
3736.01	0.759
3745.42	0.759
3754.83	0.759
3764.25	0.759
3773.66	0.759
3783.07	0.758
3792.48	0.758
3801.89	0.758
3811.3	0.756
3820.72	0.756
3830.13	0.755
3839.54	0.752
3848.95	0.7503
3858.36	0.75
3867.77	0.752
3877.19	0.752
3886.6	0.7457
3896.01	0.744
3905.42	0.744
3914.83	0.744
3924.25	0.7457
3933.66	0.7432
3943.07	0.737
3952.48	0.7372
3961.89	0.735
3971.3	0.737
3980.72	0.737
3990.13	0.737
3999.54	0.737
4008.95	0.738
4018.36	0.741
4027.77	0.743
4037.19	0.7473
4046.6	0.752
4056.01	0.7615
4065.42	0.7828
