Infrared Spectrum: MORPHOLINE, 4-(Beta-NAPHTHYLTHIOACETYL)-
Formula: C16 H17 N O S
CAS: 5399-06-4
State: SOLUTION (10% CCl4 FOR 3800-1330, 10% CS2 FOR 1330-400 CM^-^1)
Class: COBLENTZ III
Instrument: DOW KBr FOREPRISM-GRATING
Instrument parameters: BLAZED AT 3.5, 12.0, 20.0 MICRON AND CHANGED AT 5.0, 7.5, 14.9 MICRON
Sampling: TRANSMISSION
Path length: 0.011 CM, 0.011 CM
Resolution: 2
Origin: DOW CHEMICAL COMPANY
1/CM	TRANSMITTANCE
382	0.3556
391	0.371
400	0.4262
409	0.5362
418	0.6775
427	0.7487
436	0.8001
445	0.8281
454	0.8371
463	0.8325
472	0.6681
481	0.3684
490	0.8058
499	0.856
508	0.8873
517	0.8749
526	0.8843
535	0.9173
544	0.9451
553	0.941
562	0.916
571	0.7128
580	0.8706
589	0.9275
598	0.9244
607	0.8603
616	0.8668
625	0.8709
634	0.8758
643	0.8328
652	0.846
661	0.8996
670	0.9165
679	0.9267
688	0.9284
697	0.9206
706	0.908
715	0.9057
724	0.9027
733	0.7118
742	0.7587
751	0.489
760	0.3992
769	0.7372
778	0.8014
787	0.8544
796	0.7578
805	0.7825
814	0.3204
823	0.533
832	0.7315
841	0.5906
850	0.5887
859	0.4912
868	0.6895
877	0.7755
886	0.6435
895	0.7622
904	0.8671
913	0.8762
922	0.8956
931	0.8575
940	0.7536
949	0.7128
958	0.4988
967	0.676
976	0.8455
985	0.8455
994	0.8962
1003	0.8496
1012	0.735
1021	0.618
1030	0.1502
1039	0.4608
1048	0.7428
1057	0.7082
1066	0.4431
1075	0.814
1084	0.7878
1093	0.5789
1102	0.1965
1111	0.1186
1120	0.0561
1129	0.3721
1138	0.7533
1147	0.6991
1156	0.7267
1165	0.5846
1174	0.4099
1183	0.5285
1192	0.7358
1201	0.6646
1210	0.6585
1219	0.6512
1228	0.4293
1237	0.6167
1246	0.3403
1255	0.1781
1264	0.2876
1273	0.2311
1282	0.4372
1291	0.399
1300	0.1844
1309	0.3104
1318	0.64
1327	0.7428
1336	0.7685
1345	0.7705
1354	0.6834
1363	0.6155
1372	0.6575
1381	0.648
1390	0.6292
1399	0.741
1408	0.7051
1417	0.595
1426	0.2741
1435	0.0721
1444	0.1887
1453	0.3121
1462	0.2062
1471	0.2154
1480	0.033
1489	0.0473
1498	0.1968
1507	0.3125
1516	0.4274
1525	0.5137
1534	0.4772
1543	0.4049
1552	0.3998
1561	0.4443
1570	0.5123
1579	0.5336
1588	0.5612
1597	0.5422
1606	0.4869
1615	0.7408
1624	0.6754
1633	0.6086
1642	0.7569
1651	0.6907
1660	0.5329
1669	0.4945
1678	0.6764
1687	0.7705
1696	0.7881
1705	0.7975
1714	0.811
1723	0.8138
1732	0.8105
1741	0.8142
1750	0.814
1759	0.8121
1768	0.8105
1777	0.8118
1786	0.8071
1795	0.804
1804	0.8108
1813	0.8118
1822	0.8064
1831	0.8065
1840	0.8075
1849	0.8124
1858	0.8193
1867	0.8248
1876	0.827
1885	0.8253
1894	0.8171
1903	0.8074
1912	0.8021
1921	0.7981
1930	0.8021
1939	0.8008
1948	0.7943
1957	0.8019
1966	0.8175
1975	0.8158
1984	0.8165
1993	0.8211
2002	0.8312
2011	0.8349
2020	0.8371
2029	0.8387
2038	0.8393
2047	0.8392
2056	0.8399
2065	0.8406
2074	0.841
2083	0.8411
2092	0.8405
2101	0.8397
2110	0.8393
2119	0.8389
2128	0.8393
2137	0.8397
2146	0.84
2155	0.8399
2164	0.8392
2173	0.8388
2182	0.8394
2191	0.8401
2200	0.8408
2209	0.841
2218	0.8408
2227	0.8402
2236	0.8393
2245	0.8373
2254	0.8345
2263	0.8308
2272	0.8261
2281	0.8216
2290	0.8195
2299	0.8211
2308	0.8237
2317	0.8265
2326	0.8291
2335	0.8314
2344	0.8333
2353	0.8346
2362	0.836
2371	0.8373
2380	0.8387
2389	0.8399
2398	0.8412
2407	0.842
2416	0.8423
2425	0.8425
2434	0.8428
2443	0.8436
2452	0.8446
2461	0.8455
2470	0.8463
2479	0.8468
2488	0.8474
2497	0.8475
2506	0.8475
2515	0.8474
2524	0.8471
2533	0.8466
2542	0.8456
2551	0.8448
2560	0.8457
2569	0.8467
2578	0.848
2587	0.8493
2596	0.8492
2605	0.8483
2614	0.8468
2623	0.8454
2632	0.8428
2641	0.8406
2650	0.8396
2659	0.8404
2668	0.8318
2677	0.8261
2686	0.8264
2695	0.8196
2704	0.809
2713	0.8117
2722	0.82
2731	0.8278
2740	0.8283
2749	0.8145
2758	0.7988
2767	0.8256
2776	0.8295
2785	0.8262
2794	0.8224
2803	0.8171
2812	0.8094
2821	0.794
2830	0.7608
2839	0.7112
2848	0.6038
2857	0.4159
2866	0.3438
2875	0.6318
2884	0.655
2893	0.573
2902	0.491
2911	0.4865
2920	0.475
2929	0.424
2938	0.5438
2947	0.6611
2956	0.6653
2965	0.5482
2974	0.4084
2983	0.4705
2992	0.6062
3001	0.7283
3010	0.7347
3019	0.6856
3028	0.6793
3037	0.7057
3046	0.6599
3055	0.5887
3064	0.5409
3073	0.6817
3082	0.7724
3091	0.7899
3100	0.8271
3109	0.8386
3118	0.8437
3127	0.8467
3136	0.849
3145	0.8505
3154	0.8518
3163	0.8525
3172	0.8532
3181	0.8538
3190	0.8544
3199	0.8549
3208	0.8555
3217	0.856
3226	0.8566
3235	0.8571
3244	0.8577
3253	0.8584
3262	0.859
3271	0.859
3280	0.8589
3289	0.8584
3298	0.858
3307	0.8575
3316	0.8585
3325	0.8589
3334	0.8595
3343	0.86
3352	0.8605
3361	0.8602
3370	0.8575
3379	0.8558
3388	0.8542
3397	0.8531
3406	0.8524
3415	0.8521
3424	0.852
3433	0.8518
3442	0.8516
3451	0.8515
3460	0.8514
3469	0.8513
3478	0.8512
3487	0.8512
3496	0.8515
3505	0.8517
3514	0.852
3523	0.8525
3532	0.8534
3541	0.8541
3550	0.8549
3559	0.856
3568	0.8571
3577	0.8582
3586	0.8582
3595	0.8583
3604	0.8583
3613	0.8575
3622	0.8564
3631	0.8551
3640	0.8543
3649	0.8544
3658	0.8544
3667	0.8545
3676	0.855
3685	0.8556
3694	0.8567
3703	0.8588
3712	0.8605
3721	0.8614
3730	0.8593
3739	0.8575
3748	0.8598
3757	0.8625
3766	0.8645
3775	0.8654
3784	0.8656
3793	0.8625
