Infrared Spectrum: B-RESORCYLALDOXIME
Formula: C7 H7 N O3
CAS: 5399-68-8
State: SOLID (OIL MULL)
Melting point: 198-200 C
Class: COBLENTZ
Instrument: Not specified, most likely a prism, grating, or hybrid spectrometer.
Sampling: TRANSMISSION
Resolution: 4
Origin: WYANDOTTE CHEMICALS CORP., WYANDOTTE, MICHIGAN, USA
MICROMETERS	TRANSMITTANCE
2.036	0.312
2.07588	0.325
2.11576	0.332
2.15564	0.34
2.19552	0.347
2.2354	0.345
2.27528	0.352
2.31516	0.357
2.35504	0.368
2.39492	0.383
2.4348	0.4
2.47468	0.405
2.51456	0.43
2.55444	0.449
2.59432	0.45
2.6342	0.475
2.67408	0.51
2.71396	0.54
2.75384	0.575
2.79372	0.624
2.8336	0.646
2.87348	0.524
2.91336	0.327
2.95324	0.145
2.99312	0.065
3.033	0.043
3.07288	0.04
3.11276	0.063
3.15264	0.08
3.19252	0.103
3.2324	0.116
3.27228	0.14
3.31216	0.115
3.35204	0.036
3.39192	0.021
3.4318	0.03
3.47168	0.038
3.51156	0.081
3.55144	0.186
3.59132	0.202
3.6312	0.195
3.67108	0.19
3.71096	0.208
3.75084	0.218
3.79072	0.247
3.8306	0.243
3.87048	0.27
3.91036	0.287
3.95024	0.317
3.99012	0.323
4.03	0.33
4.06988	0.347
4.10976	0.358
4.14964	0.372
4.18952	0.395
4.2294	0.412
4.26928	0.41
4.30916	0.434
4.34904	0.45
4.38892	0.477
4.4288	0.487
4.46868	0.504
4.50856	0.515
4.54844	0.517
4.58832	0.537
4.6282	0.544
4.66808	0.555
4.70796	0.569
4.74784	0.585
4.78772	0.587
4.8276	0.601
4.86748	0.601
4.90736	0.621
4.94724	0.636
4.98712	0.647
5.027	0.644
5.06688	0.622
5.10676	0.657
5.14664	0.664
5.18652	0.681
5.2264	0.691
5.26628	0.669
5.30616	0.694
5.34604	0.714
5.38592	0.676
5.4258	0.724
5.46568	0.757
5.50556	0.767
5.54544	0.799
5.58532	0.823
5.6252	0.836
5.66508	0.843
5.70496	0.841
5.74484	0.846
5.78472	0.893
5.8246	0.896
5.86448	0.904
5.90436	0.961
5.94424	0.969
5.98412	0.863
6.024	0.552
6.06388	0.101
6.10376	0.105
6.14364	0.101
6.18352	0.2
6.2234	0.136
6.26328	0.37
6.30316	0.497
6.34304	0.57
6.38292	0.512
6.4228	0.472
6.46268	0.27
6.50256	0.088
6.54244	0.075
6.58232	0.163
6.6222	0.218
6.66208	0.095
6.70196	0.095
6.74184	0.13
6.78172	0.098
6.8216	0.071
6.86148	0.051
6.90136	0.066
6.94124	0.138
6.98112	0.233
7.021	0.302
7.06088	0.372
7.10076	0.393
7.14064	0.397
7.18052	0.387
7.2204	0.263
7.26028	0.161
7.30016	0.161
7.34004	0.212
7.37992	0.27
7.4198	0.198
7.45968	0.277
7.49956	0.358
7.53944	0.155
7.57932	0.191
7.6192	0.126
7.65908	0.05
7.69896	0.16
7.73884	0.32
7.77872	0.437
7.8186	0.497
7.85848	0.525
7.89836	0.432
7.93824	0.1
7.97812	0.153
8.018	0.288
8.05788	0.387
8.09776	0.434
8.13764	0.475
8.17752	0.368
8.2174	0.123
8.25728	0.045
8.29716	0.065
8.33704	0.113
8.37692	0.202
8.4168	0.262
8.45668	0.238
8.49656	0.128
8.53644	0.068
8.57632	0.11
8.6162	0.165
8.65608	0.218
8.69596	0.29
8.73584	0.362
8.77572	0.417
8.8156	0.472
8.85548	0.372
8.89536	0.135
8.93524	0.063
8.97512	0.166
9.015	0.26
9.05488	0.31
9.09476	0.355
9.13464	0.397
9.17452	0.437
9.2144	0.469
9.25428	0.494
9.29416	0.515
9.33404	0.54
9.37392	0.567
9.4138	0.587
9.45368	0.604
9.49356	0.622
9.53344	0.652
9.57332	0.676
9.6132	0.699
9.65308	0.731
9.69296	0.756
9.73284	0.771
9.77272	0.784
9.8126	0.761
9.85248	0.626
9.89236	0.353
9.93224	0.105
9.97212	0.073
10.012	0.188
10.0519	0.362
10.0918	0.497
10.1316	0.647
10.1715	0.504
10.2114	0.111
10.2513	0.031
10.2912	0.081
10.331	0.151
10.3709	0.203
10.4108	0.243
10.4507	0.136
10.4906	0.128
10.5304	0.283
10.5703	0.365
10.6102	0.412
10.6501	0.427
10.69	0.422
10.7298	0.372
10.7697	0.283
10.8096	0.474
10.8495	0.547
10.8894	0.57
10.9292	0.574
10.9691	0.589
11.009	0.595
11.0489	0.601
11.0888	0.606
11.1286	0.612
11.1685	0.619
11.2084	0.619
11.2483	0.624
11.2882	0.627
11.328	0.617
11.3679	0.629
11.4078	0.627
11.4477	0.624
11.4876	0.612
11.5274	0.584
11.5673	0.5
11.6072	0.395
11.6471	0.312
11.687	0.337
11.7268	0.348
11.7667	0.338
11.8066	0.39
11.8465	0.427
11.8864	0.425
11.9262	0.398
11.9661	0.318
12.006	0.186
12.0459	0.095
12.0858	0.11
12.1256	0.22
12.1655	0.377
12.2054	0.535
12.2453	0.589
12.2852	0.606
12.325	0.604
12.3649	0.58
12.4048	0.519
12.4447	0.432
12.4846	0.26
12.5244	0.185
12.5643	0.422
12.6042	0.672
12.6441	0.744
12.684	0.754
12.7238	0.751
12.7637	0.731
12.8036	0.712
12.8435	0.694
12.8834	0.679
12.9232	0.662
12.9631	0.647
13.003	0.626
13.0429	0.602
13.0828	0.582
13.1226	0.544
13.1625	0.505
13.2024	0.474
13.2423	0.42
13.2822	0.34
13.322	0.233
13.3619	0.141
13.4018	0.188
13.4417	0.302
13.4816	0.307
13.5214	0.253
13.5613	0.198
13.6012	0.178
13.6411	0.185
13.681	0.21
13.7208	0.267
13.7607	0.342
13.8006	0.422
13.8405	0.48
13.8804	0.49
13.9202	0.417
13.9601	0.302
14	0.237
14.0399	0.217
14.0798	0.263
14.1196	0.337
14.1595	0.385
14.1994	0.454
14.2393	0.519
14.2792	0.565
14.319	0.597
14.3589	0.627
14.3988	0.642
14.4387	0.652
14.4786	0.672
14.5184	0.677
14.5583	0.684
14.5982	0.686
14.6381	0.691
14.678	0.694
14.7178	0.694
14.7577	0.694
14.7976	0.696
14.8375	0.694
14.8774	0.689
14.9172	0.689
14.9571	0.687
14.997	0.676
15.0369	0.629
15.0768	0.574
15.1166	0.552
15.1565	0.567
15.1964	0.597
15.2363	0.607
15.2762	0.607
15.316	0.594
15.3559	0.589
15.3958	0.564
15.4357	0.547
15.4756	0.542
15.5154	0.524
15.5553	0.517
15.5952	0.504
15.6351	0.489
15.675	0.469
15.7148	0.452
15.7547	0.424
15.7946	0.39
15.8345	0.36
15.8744	0.35
15.9142	0.352
15.9541	0.363
15.994	0.367
