Infrared Spectrum: Uridine, 2'-deoxy-5-iodo-
Formula: C9 H11 I N2 O5
CAS: 54-42-2
State: SOLID (NUJOL MULL)
Class: COBLENTZ III
Instrument: PERKIN-ELMER 21 (GRATING)
Instrument parameters: NaCl PRISM
Sampling: TRANSMISSION
Resolution: 2
Origin: SMITH KLINE & FRENCH LABS.
1/CM	TRANSMITTANCE
659	0.5598
668	0.5773
677	0.624
686	0.6294
695	0.6532
704	0.666
713	0.6698
722	0.6679
731	0.668
740	0.6031
749	0.5893
758	0.6153
767	0.6771
776	0.6717
785	0.7079
794	0.7087
803	0.7165
812	0.7001
821	0.6825
830	0.6636
839	0.6386
848	0.6198
857	0.6194
866	0.5913
875	0.5438
884	0.5902
893	0.6562
902	0.6081
911	0.5132
920	0.6621
929	0.6739
938	0.6541
947	0.5991
956	0.5362
965	0.6431
974	0.6157
983	0.4389
992	0.5503
1001	0.612
1010	0.643
1019	0.5888
1028	0.6222
1037	0.6027
1046	0.4396
1055	0.5224
1064	0.4169
1073	0.5292
1082	0.4284
1091	0.3222
1100	0.4533
1109	0.6296
1118	0.6519
1127	0.6292
1136	0.5411
1145	0.6331
1154	0.6464
1163	0.6454
1172	0.6298
1181	0.5947
1190	0.472
1199	0.4884
1208	0.6026
1217	0.6087
1226	0.5634
1235	0.4726
1244	0.3363
1253	0.2936
1262	0.3358
1271	0.5524
1280	0.5179
1289	0.4148
1298	0.5886
1307	0.6036
1316	0.612
1325	0.574
1334	0.5032
1343	0.4709
1352	0.528
1361	0.4937
1370	0.4176
1379	0.4982
1388	0.5194
1397	0.4885
1406	0.4754
1415	0.4703
1424	0.4723
1433	0.3699
1442	0.2411
1451	0.2577
1460	0.3993
1469	0.587
1478	0.6255
1487	0.6317
1496	0.6349
1505	0.6432
1514	0.6442
1523	0.641
1532	0.6362
1541	0.6221
1550	0.6195
1559	0.6163
1568	0.6034
1577	0.5851
1586	0.5428
1595	0.3955
1604	0.3876
1613	0.4981
1622	0.4677
1631	0.4392
1640	0.3513
1649	0.3018
1658	0.095
1667	0.0408
1676	0.0977
1685	0.0728
1694	0.0835
1703	0.2857
1712	0.4876
1721	0.574
1730	0.6379
1739	0.6674
1748	0.6933
1757	0.7109
1766	0.718
1775	0.7188
1784	0.7192
1793	0.7198
1802	0.7277
1811	0.7353
1820	0.739
1829	0.7443
1838	0.7495
1847	0.7525
1856	0.7527
1865	0.7497
1874	0.7465
1883	0.7438
1892	0.7424
1901	0.7415
1910	0.7412
1919	0.7413
1928	0.7413
1937	0.7406
1946	0.7366
1955	0.7319
1964	0.7296
1973	0.7286
1982	0.728
1991	0.7285
2000	0.7286
2009	0.7288
2018	0.7287
2027	0.7242
2036	0.7184
2045	0.7167
2054	0.7157
2063	0.7152
2072	0.7151
2081	0.7139
2090	0.712
2099	0.7101
2108	0.7065
2117	0.7031
2126	0.7003
2135	0.6982
2144	0.6969
2153	0.6984
2162	0.7016
2171	0.7021
2180	0.7
2189	0.6969
2198	0.6935
2207	0.6899
2216	0.6863
2225	0.6825
2234	0.6789
2243	0.6752
2252	0.6716
2261	0.6681
2270	0.6644
2279	0.6603
2288	0.6574
2297	0.6549
2306	0.6539
2315	0.6528
2324	0.6521
2333	0.6518
2342	0.6515
2351	0.6513
2360	0.6511
2369	0.651
2378	0.6503
2387	0.6478
2396	0.6452
2405	0.643
2414	0.6412
2423	0.6396
2432	0.6383
2441	0.6394
2450	0.641
2459	0.6393
2468	0.6367
2477	0.6344
2486	0.6323
2495	0.6316
2504	0.6304
2513	0.6272
2522	0.6212
2531	0.6162
2540	0.6098
2549	0.6109
2558	0.6195
2567	0.6198
2576	0.6184
2585	0.6163
2594	0.6133
2603	0.6096
2612	0.6061
2621	0.6029
2630	0.5997
2639	0.5959
2648	0.5917
2657	0.5871
2666	0.5811
2675	0.5752
2684	0.5695
2693	0.5639
2702	0.5584
2711	0.5527
2720	0.5469
2729	0.5398
2738	0.5309
2747	0.5166
2756	0.4908
2765	0.374
2774	0.3146
2783	0.2557
2792	0.1972
2801	0.1504
2810	0.0888
2819	0.0656
2828	0.059
2837	0.0546
2846	0.0499
2855	0.041
2864	0.0391
2873	0.0398
2882	0.0547
2891	0.0997
2900	0.1528
2909	0.2054
2918	0.2577
2927	0.3097
2936	0.3615
2945	0.4017
2954	0.4336
2963	0.4376
2972	0.439
2981	0.4407
2990	0.4427
2999	0.4469
3008	0.4538
3017	0.4639
3026	0.475
3035	0.4785
3044	0.4798
3053	0.4796
3062	0.4769
3071	0.4741
3080	0.4722
3089	0.4705
3098	0.4688
3107	0.4672
3116	0.4654
3125	0.4637
3134	0.4619
3143	0.4602
3152	0.4586
3161	0.4569
3170	0.4547
3179	0.4525
3188	0.4488
3197	0.4439
3206	0.438
3215	0.4309
3224	0.421
3233	0.4106
3242	0.386
3251	0.3726
3260	0.3606
3269	0.3459
3278	0.3335
3287	0.3246
3296	0.3176
3305	0.314
3314	0.3134
3323	0.3145
3332	0.3169
3341	0.3257
3350	0.3544
3359	0.3751
3368	0.3948
3377	0.4409
3386	0.496
3395	0.5505
3404	0.5739
3413	0.5907
3422	0.6008
3431	0.6048
3440	0.6088
3449	0.6127
3458	0.6165
3467	0.6197
3476	0.6208
3485	0.6209
3494	0.6211
3503	0.6207
3512	0.6201
3521	0.6195
3530	0.6189
3539	0.6184
3548	0.6178
3557	0.6173
3566	0.6169
3575	0.6168
3584	0.6167
3593	0.616
3602	0.6151
3611	0.614
3620	0.6127
3629	0.6104
3638	0.6081
3647	0.6066
3656	0.6052
3665	0.6038
3674	0.6024
3683	0.6017
3692	0.6016
3701	0.6014
3710	0.6012
3719	0.6011
3728	0.6009
3737	0.6005
3746	0.5997
3755	0.5989
3764	0.5982
3773	0.5969
3782	0.5953
3791	0.5936
3800	0.5925
3809	0.5921
3818	0.5917
3827	0.5912
3836	0.5906
3845	0.5898
3854	0.5891
3863	0.5883
3872	0.5876
3881	0.5867
3890	0.5858
3899	0.5849
3908	0.5839
3917	0.583
3926	0.582
3935	0.5811
3944	0.5802
3953	0.5793
3962	0.5783
3971	0.5774
3980	0.5764
3989	0.5754
3998	0.5743
