Infrared Spectrum: PILOCARPINE HYDROCHLORIDE
Formula: C11 H17 Cl N2 O2
CAS: 54-71-7
State: SOLID (KCl DISC)
Melting point: 195-198 C
Class: COBLENTZ
Instrument: PERKIN-ELMER 21 (GRATING)
Instrument parameters: FILTER AT ABOUT 10 MICRONS
Sampling: TRANSMISSION
Resolution: 2
1/CM	TRANSMITTANCE
4000	0.7015
3991	0.7028
3982	0.704
3973	0.7051
3964	0.7064
3955	0.7075
3946	0.7088
3937	0.7101
3928	0.7112
3919	0.7125
3910	0.7138
3901	0.7151
3892	0.7164
3883	0.7176
3874	0.7189
3865	0.7204
3856	0.7218
3847	0.7235
3838	0.7251
3829	0.7267
3820	0.7282
3811	0.7298
3802	0.7314
3793	0.7331
3784	0.7346
3775	0.7362
3766	0.7375
3757	0.7388
3748	0.74
3739	0.7411
3730	0.7422
3721	0.7435
3712	0.7446
3703	0.7458
3694	0.7468
3685	0.7476
3676	0.7485
3667	0.7493
3658	0.7501
3649	0.751
3640	0.7518
3631	0.7526
3622	0.7535
3613	0.7542
3604	0.7549
3595	0.7555
3586	0.7561
3577	0.7568
3568	0.7575
3559	0.758
3550	0.7581
3541	0.7582
3532	0.7581
3523	0.7564
3514	0.7543
3505	0.7521
3496	0.7501
3487	0.7481
3478	0.7465
3469	0.7461
3460	0.7458
3451	0.7462
3442	0.7471
3433	0.7483
3424	0.7493
3415	0.7508
3406	0.7525
3397	0.7543
3388	0.7561
3379	0.7584
3370	0.7607
3361	0.763
3352	0.7655
3343	0.768
3334	0.7706
3325	0.7731
3316	0.776
3307	0.7792
3298	0.7825
3289	0.7856
3280	0.7885
3271	0.7915
3262	0.7943
3253	0.7964
3244	0.7987
3235	0.8007
3226	0.8025
3217	0.8043
3208	0.8058
3199	0.8072
3190	0.8082
3181	0.8089
3172	0.8095
3163	0.81
3154	0.8101
3145	0.8078
3136	0.8012
3127	0.7757
3118	0.7384
3109	0.7008
3100	0.663
3091	0.6251
3082	0.5923
3073	0.5927
3064	0.601
3055	0.6081
3046	0.5997
3037	0.545
3028	0.4873
3019	0.4695
3010	0.4654
3001	0.4637
2992	0.4633
2983	0.4633
2974	0.4706
2965	0.4929
2956	0.5157
2947	0.538
2938	0.544
2929	0.5456
2920	0.5468
2911	0.5475
2902	0.5476
2893	0.5466
2884	0.5412
2875	0.5351
2866	0.531
2857	0.5305
2848	0.5307
2839	0.5322
2830	0.5339
2821	0.5355
2812	0.5368
2803	0.5379
2794	0.5351
2785	0.5193
2776	0.5035
2767	0.4877
2758	0.4717
2749	0.4557
2740	0.4395
2731	0.4232
2722	0.4068
2713	0.3934
2704	0.3914
2695	0.3902
2686	0.3889
2677	0.3818
2668	0.3755
2659	0.3745
2650	0.3842
2641	0.4172
2632	0.4369
2623	0.4221
2614	0.3987
2605	0.3937
2596	0.3918
2587	0.3928
2578	0.4016
2569	0.4131
2560	0.4127
2551	0.4106
2542	0.4109
2533	0.4141
2524	0.4262
2515	0.4415
2506	0.4549
2497	0.4682
2488	0.4809
2479	0.4937
2470	0.5068
2461	0.5165
2452	0.525
2443	0.5336
2434	0.5428
2425	0.5522
2416	0.563
2407	0.5747
2398	0.5848
2389	0.5939
2380	0.6052
2371	0.6198
2362	0.6212
2353	0.6239
2344	0.6289
2335	0.6343
2326	0.64
2317	0.6494
2308	0.6641
2299	0.6774
2290	0.6878
2281	0.6975
2272	0.7058
2263	0.7138
2254	0.7201
2245	0.7267
2236	0.7336
2227	0.7403
2218	0.7471
2209	0.7519
2200	0.7562
2191	0.7601
2182	0.764
2173	0.7678
2164	0.7718
2155	0.7753
2146	0.7789
2137	0.7825
2128	0.786
2119	0.7892
2110	0.7925
2101	0.7958
2092	0.7994
2083	0.8032
2074	0.8068
2065	0.8108
2056	0.8139
2047	0.8164
2038	0.8188
2029	0.821
2020	0.8224
2011	0.8245
2002	0.8281
1993	0.8332
1984	0.8385
1975	0.8425
1966	0.8437
1957	0.8436
1948	0.8434
1939	0.8439
1930	0.8446
1921	0.8456
1912	0.8462
1903	0.8465
1894	0.8465
1885	0.8441
1876	0.8213
1867	0.7661
1858	0.7108
1849	0.7135
1840	0.7441
1831	0.7678
1822	0.7761
1813	0.7715
1804	0.7361
1795	0.6791
1786	0.4938
1777	0.3304
1768	0.2006
1759	0.2667
1750	0.3032
1741	0.4312
1732	0.5288
1723	0.5352
1714	0.5783
1705	0.6306
1696	0.6614
1687	0.6831
1678	0.701
1669	0.7201
1660	0.731
1651	0.726
1642	0.7111
1633	0.7368
1624	0.7247
1615	0.5128
1606	0.6215
1597	0.7125
1588	0.7484
1579	0.7721
1570	0.7392
1561	0.653
1552	0.6698
1543	0.7297
1534	0.7661
1525	0.7833
1516	0.7957
1507	0.8025
1498	0.7008
1489	0.6924
1480	0.7551
1471	0.7197
1462	0.7125
1453	0.602
1444	0.7067
1435	0.7061
1426	0.7151
1417	0.7562
1408	0.7782
1399	0.7698
1390	0.7234
1381	0.7551
1372	0.7304
1363	0.7455
1354	0.77
1345	0.6668
1336	0.5843
1327	0.5456
1318	0.6595
1309	0.7112
1300	0.7756
1291	0.7638
1282	0.7407
1273	0.7297
1264	0.7691
1255	0.78
1246	0.7685
1237	0.7554
1228	0.6082
1219	0.6384
1210	0.7528
1201	0.7133
1192	0.6227
1183	0.387
1174	0.3721
1165	0.524
1156	0.6424
1147	0.6106
1138	0.6933
1129	0.7078
1120	0.7184
1111	0.6999
1102	0.6749
1093	0.7144
1084	0.6491
1075	0.7112
1066	0.6695
1057	0.653
1048	0.7578
1039	0.6393
1030	0.3025
1021	0.3541
1012	0.5612
1003	0.646
994	0.7057
985	0.7208
976	0.7418
967	0.7607
958	0.7749
949	0.7835
940	0.7537
931	0.651
922	0.593
913	0.7315
904	0.6503
895	0.7626
886	0.7492
877	0.5302
868	0.4304
859	0.5304
850	0.6446
841	0.696
832	0.7308
823	0.5962
814	0.7046
805	0.7433
796	0.7619
787	0.7731
778	0.7834
769	0.734
760	0.6828
751	0.7361
742	0.7619
733	0.771
724	0.7704
715	0.6896
706	0.7386
697	0.7571
688	0.6708
679	0.7281
