Infrared Spectrum: t-Butyl acetate
Formula: C 6 H 12 O 2
CAS: 540-88-5
State: gas
Origin: EPA-IR VAPOR PHASE LIBRARY
1/CM	ABSORBANCE
501.5	0.000162
513.074	2.8e-05
524.648	0.00027
536.222	0.000278
547.796	0.000129
559.37	0
570.944	0.000199
582.518	0.0014268
594.092	0.005043
605.666	0.010313
617.24	0.009593
628.814	0.007263
640.388	0.003773
651.962	0.0014252
663.536	0.0009377
675.11	0.0010011
686.684	0.0009784
698.258	0.0009046
709.832	0.0011572
721.406	0.001703
732.98	0.003043
744.554	0.007093
756.128	0.009623
767.702	0.007063
779.276	0.002803
790.85	0.002103
802.423	0.003113
813.997	0.006543
825.571	0.014933
837.145	0.021373
848.719	0.016303
860.293	0.006013
871.867	0.002823
883.441	0.002783
895.015	0.004723
906.589	0.010543
918.163	0.018883
929.737	0.030183
941.311	0.030493
952.885	0.017633
964.459	0.009553
976.033	0.013353
987.607	0.021673
999.181	0.036263
1010.76	0.055113
1022.33	0.056653
1033.9	0.035963
1045.48	0.022363
1057.05	0.020043
1068.63	0.020753
1080.2	0.021453
1091.77	0.020023
1103.35	0.017963
1114.92	0.018793
1126.49	0.027173
1138.07	0.053733
1149.64	0.109243
1161.22	0.187213
1172.79	0.253983
1184.36	0.228143
1195.94	0.114013
1207.51	0.056063
1219.09	0.065773
1230.66	0.131673
1242.23	0.245623
1253.81	0.289673
1265.38	0.206273
1276.96	0.108203
1288.53	0.047593
1300.1	0.018713
1311.68	0.010063
1323.25	0.008953
1334.83	0.012823
1346.4	0.031623
1357.97	0.089873
1369.55	0.143253
1381.12	0.112903
1392.7	0.062213
1404.27	0.035833
1415.84	0.017163
1427.42	0.014263
1438.99	0.018113
1450.57	0.023473
1462.14	0.025923
1473.71	0.024143
1485.29	0.019783
1496.86	0.014083
1508.44	0.009583
1520.01	0.007213
1531.58	0.006003
1543.16	0.005583
1554.73	0.005933
1566.31	0.006523
1577.88	0.006293
1589.45	0.005173
1601.03	0.004323
1612.6	0.004093
1624.18	0.004463
1635.75	0.005143
1647.32	0.006343
1658.9	0.008143
1670.47	0.010783
1682.05	0.013513
1693.62	0.016893
1705.19	0.022483
1716.77	0.035033
1728.34	0.078783
1739.92	0.194193
1751.49	0.280993
1763.06	0.211443
1774.64	0.067963
1786.21	0.018183
1797.79	0.009723
1809.36	0.007933
1820.93	0.007783
1832.51	0.007703
1844.08	0.006753
1855.66	0.006023
1867.23	0.005623
1878.8	0.004963
1890.38	0.003823
1901.95	0.002773
1913.53	0.002333
1925.1	0.002293
1936.67	0.002243
1948.25	0.001883
1959.82	0.001583
1971.4	0.001583
1982.97	0.001983
1994.54	0.002463
2006.12	0.002553
2017.69	0.002073
2029.27	0.0014623
2040.84	0.0010923
2052.41	0.0010246
2063.99	0.0012871
2075.56	0.001703
2087.14	0.001993
2098.71	0.001923
2110.28	0.001573
2121.86	0.0013166
2133.43	0.0011201
2145.01	0.0011166
2156.58	0.0012932
2168.15	0.001563
2179.73	0.001693
2191.3	0.001623
2202.88	0.0014992
2214.45	0.0012201
2226.02	0.0008853
2237.6	0.0007115
2249.17	0.0007824
2260.74	0.0009735
2272.32	0.0012158
2283.89	0.0015358
2295.47	0.001773
2307.04	0.001653
2318.61	0.0013126
2330.19	0.0008576
2341.76	0.0006593
2353.34	0.00055904
2364.91	0.00059967
2376.48	0.0007324
2388.06	0.0009362
2399.63	0.0010623
2411.21	0.0010814
2422.78	0.0009715
2434.35	0.0008456
2445.93	0.0007121
2457.5	0.0007203
2469.08	0.0008391
2480.65	0.0010793
2492.22	0.0013552
2503.8	0.0014205
2515.37	0.0012265
2526.95	0.0008887
2538.52	0.0006899
2550.09	0.0005277
2561.67	0.0004667
2573.24	0.0005012
2584.82	0.00059285
2596.39	0.0008758
2607.96	0.0010164
2619.54	0.0012307
2631.11	0.0012561
2642.69	0.0012234
2654.26	0.0010823
2665.83	0.0011199
2677.41	0.0013076
2688.98	0.0014602
2700.56	0.0014094
2712.13	0.0013867
2723.7	0.001683
2735.28	0.001913
2746.85	0.001773
2758.43	0.001733
2770	0.001793
2781.57	0.002123
2793.15	0.002333
2804.72	0.002733
2816.3	0.003403
2827.87	0.004163
2839.44	0.004943
2851.02	0.006953
2862.59	0.010503
2874.17	0.015403
2885.74	0.020263
2897.31	0.024443
2908.89	0.028713
2920.46	0.035583
2932.04	0.049273
2943.61	0.057863
2955.18	0.056573
2966.76	0.072633
2978.33	0.109193
2989.91	0.106243
3001.48	0.061123
3013.05	0.032623
3024.63	0.019953
3036.2	0.010613
3047.78	0.007683
3059.35	0.006683
3070.92	0.006043
3082.5	0.005593
3094.07	0.005163
3105.65	0.004603
3117.22	0.003823
3128.79	0.003223
3140.37	0.002913
3151.94	0.002693
3163.52	0.002643
3175.09	0.002533
3186.66	0.002483
3198.24	0.002393
3209.81	0.002323
3221.39	0.002113
3232.96	0.001963
3244.53	0.001753
3256.11	0.0013457
3267.68	0.0009942
3279.26	0.000879
3290.83	0.0010407
3302.4	0.0009963
3313.98	0.0009747
3325.55	0.0008796
3337.13	0.0008454
3348.7	0.000827
3360.27	0.0007448
3371.85	0.0007275
3383.42	0.0007259
3395	0.0008098
3406.57	0.0008093
3418.14	0.0008996
3429.72	0.0011795
3441.29	0.0014149
3452.86	0.001753
3464.44	0.002353
3476.01	0.003083
3487.59	0.003403
3499.16	0.002603
3510.73	0.0014912
3522.31	0.0009598
3533.88	0.000666
3545.46	0.00055315
3557.03	0.000485
3568.6	0.00057168
3580.18	0.00060442
3591.75	0.00056956
3603.33	0.00053896
3614.9	0.0004995
3626.47	0.000352
3638.05	0.0004593
3649.62	0.000432
3661.2	0.0004444
3672.77	0.0004584
3684.34	0.0005328
3695.92	0.00044
3707.49	0.000314
3719.07	0.00034
3730.64	0.000405
3742.21	0.000384
3753.79	0.000466
3765.36	0.000417
3776.94	0.0004812
3788.51	0.0004531
3800.08	0.00059122
3811.66	0.0006683
3823.23	0.0005709
3834.81	0.00059327
3846.38	0.0006942
3857.95	0.0006485
3869.53	0.0007557
3881.1	0.0008063
3892.68	0.0008493
3904.25	0.0008407
3915.82	0.0009991
3927.4	0.0009683
3938.97	0.0009891
3950.55	0.0009946
3962.12	0.0010794
3973.69	0.0011296
3985.27	0.0010679
3996.84	0.0010527
