Infrared Spectrum: DODECAMETHYLCYCLOHEXASILOXANE
Formula: C12 H36 O6 Si6
CAS: 540-97-6
State: SOLUTION (5% IN CCl4 FOR 3800-1275, 2% IN CS2 FOR 1275-600, AND 5% IN CCl4 FOR 600-210 CM^-^1)
Boiling point: 245 C
Class: COBLENTZ III
Instrument: PERKIN-ELMER 521 (GRATING)
Instrument parameters: FILTERS AT 3150, 2500, 2000, 1150, 700, 410. GRATING CHANGES: 2000, 630 CM^-^1
Sampling: TRANSMISSION
Path length: 0.011 CM, 0.011 CM, AND 0.020 CM
Resolution: 2
Origin: DOW CORNING CORP.
1/CM	TRANSMITTANCE
202.701	0.886
212.096	0.885
221.491	0.885
230.887	0.883
240.282	0.874
249.677	0.86
259.072	0.847
268.467	0.847
277.863	0.844
287.258	0.817
296.653	0.797
306.048	0.738
315.443	0.685
324.839	0.631
334.234	0.566
343.629	0.513
353.024	0.446
362.419	0.388
371.815	0.34
381.21	0.261
390.605	0.151
400	0.199
409.395	0.467
418.791	0.775
428.186	0.858
437.581	0.9
446.976	0.913
456.371	0.919
465.767	0.918
475.162	0.898
484.557	0.863
493.952	0.84
503.347	0.833
512.743	0.812
522.138	0.803
531.533	0.833
540.928	0.877
550.324	0.896
559.719	0.897
569.114	0.889
578.509	0.853
587.904	0.801
597.3	0.825
606.695	0.879
616.09	0.878
625.485	0.878
634.88	0.878
644.276	0.878
653.671	0.856
663.066	0.865
672.461	0.849
681.856	0.782
691.252	0.793
700.647	0.658
710.042	0.751
719.437	0.865
728.832	0.882
738.228	0.884
747.623	0.883
757.018	0.875
766.413	0.847
775.808	0.782
785.204	0.529
794.599	0.32
803.994	0.047
813.389	0.188
822.784	0.377
832.18	0.601
841.575	0.693
850.97	0.652
860.365	0.639
869.76	0.703
879.156	0.792
888.551	0.864
897.946	0.917
907.341	0.94
916.736	0.948
926.132	0.953
935.527	0.953
944.922	0.953
954.317	0.948
963.712	0.942
973.108	0.934
982.503	0.918
991.898	0.893
1001.29	0.854
1010.69	0.812
1020.08	0.748
1029.48	0.65
1038.87	0.441
1048.27	0.285
1057.66	0.057
1067.06	0.039
1076.45	0.053
1085.85	0.075
1095.25	0.107
1104.64	0.189
1114.04	0.377
1123.43	0.483
1132.83	0.662
1142.22	0.748
1151.62	0.804
1161.01	0.854
1170.41	0.875
1179.8	0.899
1189.2	0.918
1198.59	0.92
1207.99	0.917
1217.38	0.913
1226.78	0.9
1236.17	0.869
1245.57	0.769
1254.96	0.358
1264.36	0.3431
1273.75	0.792
1283.15	0.793
1292.54	0.793
1301.94	0.794
1311.33	0.794
1320.73	0.796
1330.13	0.794
1339.52	0.797
1348.92	0.801
1358.31	0.797
1367.71	0.792
1377.1	0.782
1386.5	0.761
1395.89	0.688
1405.29	0.657
1414.68	0.672
1424.08	0.771
1433.47	0.771
1442.87	0.757
1452.26	0.793
1461.66	0.813
1471.05	0.814
1480.45	0.818
1489.84	0.826
1499.24	0.828
1508.63	0.831
1518.03	0.828
1527.42	0.824
1536.82	0.825
1546.22	0.827
1555.61	0.829
1565.01	0.829
1574.4	0.828
1583.8	0.826
1593.19	0.826
1602.59	0.827
1611.98	0.827
1621.38	0.829
1630.77	0.832
1640.17	0.832
1649.56	0.831
1658.96	0.829
1668.35	0.833
1677.75	0.834
1687.14	0.836
1696.54	0.84
1705.93	0.84
1715.33	0.84
1724.72	0.841
1734.12	0.843
1743.51	0.843
1752.91	0.844
1762.3	0.848
1771.7	0.849
1781.1	0.849
1790.49	0.85
1799.89	0.854
1809.28	0.86
1818.68	0.863
1828.07	0.865
1837.47	0.864
1846.86	0.862
1856.26	0.864
1865.65	0.863
1875.05	0.862
1884.44	0.864
1893.84	0.864
1903.23	0.862
1912.63	0.856
1922.02	0.856
1931.42	0.855
1940.81	0.846
1950.21	0.847
1959.6	0.854
1969	0.858
1978.39	0.864
1987.79	0.87
1997.18	0.877
2006.58	0.884
2015.98	0.885
2025.37	0.8844
2034.77	0.883
2044.16	0.8813
2053.56	0.881
2062.95	0.881
2072.35	0.882
2081.74	0.884
2091.14	0.885
2100.53	0.885
2109.93	0.888
2119.32	0.889
2128.72	0.889
2138.11	0.889
2147.51	0.89
2156.9	0.89
2166.3	0.89
2175.69	0.891
2185.09	0.891
2194.48	0.891
2203.88	0.891
2213.27	0.89
2222.67	0.891
2232.06	0.8927
2241.46	0.895
2250.86	0.895
2260.25	0.895
2269.65	0.895
2279.04	0.896
2288.44	0.897
2297.83	0.899
2307.23	0.899
2316.62	0.9
2326.02	0.902
2335.41	0.9
2344.81	0.898
2354.2	0.898
2363.6	0.898
2372.99	0.899
2382.39	0.899
2391.78	0.899
2401.18	0.899
2410.57	0.898
2419.97	0.898
2429.36	0.898
2438.76	0.898
2448.15	0.897
2457.55	0.897
2466.94	0.896
2476.34	0.895
2485.74	0.893
2495.13	0.895
2504.53	0.8972
2513.92	0.8962
2523.32	0.897
2532.71	0.897
2542.11	0.897
2551.5	0.897
2560.9	0.898
2570.29	0.8985
2579.69	0.899
2589.08	0.899
2598.48	0.898
2607.87	0.898
2617.27	0.8972
2626.66	0.8952
2636.06	0.893
2645.45	0.893
2654.85	0.895
2664.24	0.895
2673.64	0.895
2683.03	0.895
2692.43	0.895
2701.82	0.895
2711.22	0.895
2720.62	0.895
2730.01	0.893
2739.41	0.892
2748.8	0.891
2758.2	0.891
2767.59	0.8838
2776.99	0.872
2786.38	0.8693
2795.78	0.8656
2805.17	0.864
2814.57	0.8678
2823.96	0.868
2833.36	0.8628
2842.75	0.856
2852.15	0.854
2861.54	0.8479
2870.94	0.8408
2880.33	0.819
2889.73	0.7917
2899.12	0.7215
2908.52	0.7353
2917.91	0.7851
2927.31	0.7817
2936.71	0.7427
2946.1	0.5766
2955.5	0.3825
2964.89	0.2549
2974.29	0.4614
2983.68	0.7567
2993.08	0.7984
3002.47	0.8438
3011.87	0.8579
3021.26	0.861
3030.66	0.861
3040.05	0.862
3049.45	0.8651
3058.84	0.869
3068.24	0.871
3077.63	0.871
3087.03	0.871
3096.42	0.872
3105.82	0.8744
3115.21	0.875
3124.61	0.8775
3134	0.882
3143.4	0.8836
3152.79	0.8846
3162.19	0.886
3171.59	0.889
3180.98	0.8908
3190.38	0.891
3199.77	0.891
3209.17	0.891
3218.56	0.891
3227.96	0.891
3237.35	0.892
3246.75	0.892
3256.14	0.892
3265.54	0.892
3274.93	0.892
3284.33	0.892
3293.72	0.892
3303.12	0.892
3312.51	0.893
3321.91	0.893
3331.3	0.893
3340.7	0.893
3350.09	0.895
3359.49	0.895
3368.88	0.8952
3378.28	0.895
3387.67	0.895
3397.07	0.895
3406.47	0.895
3415.86	0.896
3425.26	0.896
3434.65	0.896
3444.05	0.896
3453.44	0.896
3462.84	0.896
3472.23	0.896
3481.63	0.896
3491.02	0.896
3500.42	0.895
3509.81	0.894
3519.21	0.893
3528.6	0.892
3538	0.892
3547.39	0.892
3556.79	0.892
3566.18	0.892
3575.58	0.8911
3584.97	0.891
3594.37	0.891
3603.76	0.89
3613.16	0.89
3622.55	0.89
3631.95	0.886
3641.35	0.885
3650.74	0.884
3660.14	0.884
3669.53	0.885
3678.93	0.8836
3688.32	0.8775
3697.72	0.876
3707.11	0.8801
3716.51	0.881
3725.9	0.881
3735.3	0.881
3744.69	0.881
3754.09	0.881
3763.48	0.8819
