Infrared Spectrum: 9-Heptadecanone
Formula: C 17 H 34 O
CAS: 540-08-9
State: gas
Instrument: HP-GC/MS/IRD
Origin: NIST Mass Spectrometry Data Center
1/CM	ABSORBANCE
550	0.000153
562	0.0001935
574	4.05e-05
586	2.7e-05
598	3.6e-05
610	0.000108
622	0.000189
634	0.000135
646	9e-05
658	0.000117
670	9.9e-05
682	0.0001395
694	0.000261
706	0.0005715
718	0.000882
730	0.0007605
742	0.0006615
754	0.0005805
766	0.000549
778	0.0004725
790	0.0003015
802	0.000306
814	0.0003195
826	0.0002475
838	0.0003015
850	0.000297
862	0.000297
874	0.0004095
886	0.0003465
898	0.000414
910	0.00045
922	0.0005175
934	0.000531
946	0.0005715
958	0.000531
970	0.000585
982	0.000666
994	0.0009
1006	0.001143
1018	0.001251
1030	0.001134
1042	0.0011025
1054	0.0013725
1066	0.0018045
1078	0.0020295
1090	0.0016155
1102	0.0013365
1114	0.0014625
1126	0.0018765
1138	0.0018225
1150	0.0014175
1162	0.00117
1174	0.0012555
1186	0.001458
1198	0.001512
1210	0.0012825
1222	0.001152
1234	0.001134
1246	0.0012015
1258	0.0012645
1270	0.0013725
1282	0.0016065
1294	0.0017235
1306	0.001818
1318	0.001836
1330	0.0021465
1342	0.0029565
1354	0.003735
1366	0.003267
1378	0.0022635
1390	0.0016605
1402	0.0014175
1414	0.001872
1426	0.0020475
1438	0.0024345
1450	0.0036495
1462	0.0044595
1474	0.002853
1486	0.0012915
1498	0.0007155
1510	0.0003735
1522	0.000288
1534	0.000261
1546	0.0002025
1558	9.9e-05
1570	0.000153
1582	0.0001665
1594	0.000144
1606	0.000144
1618	0.000135
1630	0.0001935
1642	0.000198
1654	0.000252
1666	0.000423
1678	0.0007515
1690	0.001395
1702	0.002853
1714	0.007173
1726	0.0109125
1738	0.0046215
1750	0.001611
1762	0.0007605
1774	0.000405
1786	0.000243
1798	0.000171
1810	0.0001215
1822	9e-05
1834	6.3e-05
1846	9e-06
1858	3.6e-05
1870	2.7e-05
1882	3.6e-05
1894	4.05e-05
1906	3.15e-05
1918	3.15e-05
1930	2.7e-05
1942	0
1954	3.6e-05
1966	2.7e-05
1978	1.35e-05
1990	4.5e-06
2002	4.5e-05
2014	5.85e-05
2026	5.85e-05
2038	7.65e-05
2050	6.3e-05
2062	5.4e-05
2074	5.85e-05
2086	5.85e-05
2098	4.95e-05
2110	5.4e-05
2122	4.95e-05
2134	6.3e-05
2146	7.2e-05
2158	8.1e-05
2170	8.1e-05
2182	9.45e-05
2194	7.65e-05
2206	7.65e-05
2218	6.75e-05
2230	4.95e-05
2242	5.85e-05
2254	6.75e-05
2266	6.3e-05
2278	6.3e-05
2290	5.4e-05
2302	6.3e-05
2314	5.4e-05
2326	4.5e-05
2338	4.95e-05
2350	3.15e-05
2362	1.35e-05
2374	3.6e-05
2386	8.1e-05
2398	7.65e-05
2410	7.2e-05
2422	8.55e-05
2434	5.4e-05
2446	6.75e-05
2458	8.55e-05
2470	4.5e-05
2482	4.95e-05
2494	9.45e-05
2506	9e-05
2518	0.0001215
2530	0.0001395
2542	0.0001395
2554	0.0001485
2566	0.0001845
2578	0.000216
2590	0.0002385
2602	0.0002385
2614	0.0002925
2626	0.0003195
2638	0.0003465
2650	0.000387
2662	0.0004815
2674	0.00054
2686	0.0005805
2698	0.00054
2710	0.000522
2722	0.0005355
2734	0.000639
2746	0.0007065
2758	0.0007335
2770	0.00081
2782	0.0009675
2794	0.001341
2806	0.001764
2818	0.002304
2830	0.0031725
2842	0.005247
2854	0.01134
2866	0.017442
2878	0.014913
2890	0.0135045
2902	0.0155835
2914	0.02331
2926	0.0387
2938	0.043218
2950	0.0298935
2962	0.023553
2974	0.016551
2986	0.007227
2998	0.0039105
3010	0.002538
3022	0.001809
3034	0.00135
3046	0.00099
3058	0.000828
3070	0.0007065
3082	0.0006255
3094	0.0005535
3106	0.0005175
3118	0.0004185
3130	0.0004365
3142	0.000378
3154	0.0003555
3166	0.0003375
3178	0.000315
3190	0.00027
3202	0.000243
3214	0.0002025
3226	0.000189
3238	0.000198
3250	0.0001485
3262	0.000144
3274	0.000153
3286	0.00018
3298	0.0001575
3310	0.0001125
3322	0.000153
3334	0.000108
3346	0.000162
3358	0.000117
3370	0.0001305
3382	0.0001665
3394	0.000162
3406	0.0001575
3418	0.000261
3430	0.0002835
3442	0.0002745
3454	0.000171
3466	0.000144
3478	6.3e-05
3490	0.0001395
3502	6.3e-05
3514	4.05e-05
3526	5.4e-05
3538	9.45e-05
3550	0.000108
3562	4.5e-05
3574	0.000144
3586	6.75e-05
3598	6.75e-05
3610	9e-05
3622	0.0001575
3634	0.0001575
3646	7.2e-05
3658	0.000144
3670	6.3e-05
3682	0.0001575
3694	0.0001485
3706	0.000135
3718	0.0001665
3730	0.0001485
3742	0.0001035
3754	8.1e-05
3766	0.000198
3778	0.000198
3790	0.0002025
3802	0.0002115
3814	0.000171
3826	0.000225
3838	0.000171
