Infrared Spectrum: ANILINE, p-IODO-
Formula: C6 H6 I N
CAS: 540-37-4
State: SOLUTION (CCl4 FOR 2-10.2, CS2 FOR 9.3-16 MICRON) VS SOLVENT
Melting point: 62-63 C
Class: COBLENTZ III
Instrument: BAIRD (GRATING)
Instrument parameters: NaCl PRISM
Sampling: TRANSMISSION
Path length: 0.01 CM, AND 0.01 CM REFERNCE CELLS: 0.005 CM
Resolution: 2
Origin: WYANDOTTE CHEMICALS CORP.
1/CM	TRANSMITTANCE
4000	0.9112
3991	0.9114
3982	0.9117
3973	0.9125
3964	0.9135
3955	0.9146
3946	0.9156
3937	0.9167
3928	0.9173
3919	0.9178
3910	0.9185
3901	0.9191
3892	0.9198
3883	0.9204
3874	0.9207
3865	0.921
3856	0.9214
3847	0.9217
3838	0.922
3829	0.9223
3820	0.9225
3811	0.9227
3802	0.9228
3793	0.9231
3784	0.9232
3775	0.9234
3766	0.9235
3757	0.9237
3748	0.9238
3739	0.9238
3730	0.9239
3721	0.924
3712	0.9241
3703	0.9242
3694	0.9242
3685	0.924
3676	0.9238
3667	0.9234
3658	0.9225
3649	0.9214
3640	0.9194
3631	0.9162
3622	0.9068
3613	0.8742
3604	0.8398
3595	0.805
3586	0.7701
3577	0.7351
3568	0.7
3559	0.6701
3550	0.6649
3541	0.6632
3532	0.6698
3523	0.6846
3514	0.6993
3505	0.7142
3496	0.7292
3487	0.7398
3478	0.7398
3469	0.7101
3460	0.6694
3451	0.6285
3442	0.5873
3433	0.5478
3424	0.5374
3415	0.545
3406	0.5948
3397	0.6449
3388	0.6951
3379	0.7458
3370	0.7965
3361	0.8392
3352	0.866
3343	0.8794
3334	0.8902
3325	0.901
3316	0.9095
3307	0.9133
3298	0.9153
3289	0.9152
3280	0.9136
3271	0.9077
3262	0.9023
3253	0.8995
3244	0.8988
3235	0.9008
3226	0.9068
3217	0.9124
3208	0.9178
3199	0.9228
3190	0.9267
3181	0.9281
3172	0.9289
3163	0.9292
3154	0.9284
3145	0.9218
3136	0.9081
3127	0.8935
3118	0.8789
3109	0.8641
3100	0.8493
3091	0.8344
3082	0.8212
3073	0.8212
3064	0.8285
3055	0.8491
3046	0.8699
3037	0.8909
3028	0.9067
3019	0.914
3010	0.9171
3001	0.9175
2992	0.9181
2983	0.9187
2974	0.9192
2965	0.9199
2956	0.9206
2947	0.9212
2938	0.9218
2929	0.922
2920	0.9223
2911	0.9224
2902	0.9237
2893	0.9255
2884	0.9291
2875	0.9327
2866	0.9366
2857	0.9404
2848	0.9441
2839	0.9468
2830	0.9497
2821	0.9524
2812	0.9542
2803	0.9561
2794	0.9578
2785	0.959
2776	0.9599
2767	0.9607
2758	0.9614
2749	0.9618
2740	0.9621
2731	0.9624
2722	0.9627
2713	0.9628
2704	0.9634
2695	0.9642
2686	0.9657
2677	0.9686
2668	0.9718
2659	0.9734
2650	0.9739
2641	0.9735
2632	0.9728
2623	0.9718
2614	0.9708
2605	0.9693
2596	0.9678
2587	0.9671
2578	0.9664
2569	0.9658
2560	0.9675
2551	0.9721
2542	0.9782
2533	0.984
2524	0.988
2515	0.9897
2506	0.9901
2497	0.9899
2488	0.9896
2479	0.9888
2470	0.9878
2461	0.9868
2452	0.9861
2443	0.9856
2434	0.985
2425	0.9848
2416	0.9851
2407	0.9854
2398	0.9861
2389	0.9871
2380	0.9883
2371	0.9898
2362	0.9915
2353	0.9932
2344	0.9946
2335	0.9952
2326	0.9951
2317	0.9924
2308	0.9891
2299	0.9858
2290	0.9845
2281	0.9854
2272	0.9871
2263	0.9887
2254	0.9904
2245	0.992
2236	0.9932
2227	0.9943
2218	0.9949
2209	0.9943
2200	0.9932
2191	0.9928
2182	0.9928
2173	0.9933
2164	0.9933
2155	0.9939
2146	0.9944
2137	0.9949
2128	0.995
2119	0.995
2110	0.9949
2101	0.995
2092	0.9947
2083	0.9931
2074	0.9917
2065	0.9909
2056	0.9905
2047	0.9907
2038	0.9909
2029	0.9911
2020	0.9914
2011	0.9918
2002	0.9921
1993	0.9927
1984	0.9935
1975	0.9943
1966	0.9953
1957	0.9958
1948	0.9952
1939	0.9938
1930	0.993
1921	0.9923
1912	0.9914
1903	0.9906
1894	0.99
1885	0.9883
1876	0.9716
1867	0.9481
1858	0.9398
1849	0.9581
1840	0.9763
1831	0.9827
1822	0.9834
1813	0.9802
1804	0.9823
1795	0.984
1786	0.9854
1777	0.9853
1768	0.9845
1759	0.9849
1750	0.9862
1741	0.9864
1732	0.9863
1723	0.986
1714	0.9858
1705	0.9814
1696	0.9781
1687	0.9685
1678	0.946
1669	0.9154
1660	0.9002
1651	0.7291
1642	0.3602
1633	0.1125
1624	0.3264
1615	0.4255
1606	0.2355
1597	0.5103
1588	0.6164
1579	0.6291
1570	0.6148
1561	0.5991
1552	0.6259
1543	0.6647
1534	0.6781
1525	0.6745
1516	0.6442
1507	0.5135
1498	0.1484
1489	0.459
1480	0.8436
1471	0.9012
1462	0.9362
1453	0.9462
1444	0.9432
1435	0.8748
1426	0.7741
1417	0.8871
1408	0.9271
1399	0.9462
1390	0.9517
1381	0.9575
1372	0.9767
1363	0.9887
1354	0.9855
1345	0.9862
1336	0.9739
1327	0.938
1318	0.8542
1309	0.7203
1300	0.6037
1291	0.2495
1282	0.0738
1273	0.2754
1264	0.4871
1255	0.616
1246	0.7051
1237	0.7717
1228	0.8012
1219	0.8094
1210	0.8306
1201	0.8613
1192	0.8787
1183	0.3466
1174	0.7474
1165	0.8514
1156	0.8818
1147	0.8859
1138	0.8732
1129	0.7401
1120	0.6958
1111	0.7942
1102	0.8356
1093	0.8611
1084	0.8801
1075	0.8623
1066	0.5201
1057	0.7303
1048	0.8855
1039	0.8971
1030	0.8903
1021	0.8441
1012	0.7299
1003	0.4473
994	0.6848
985	0.8404
976	0.883
967	0.8964
958	0.9
949	0.8944
940	0.887
931	0.8716
922	0.8573
913	0.8582
904	0.8682
895	0.8646
886	0.8506
877	0.8225
868	0.7651
859	0.7069
850	0.6651
841	0.6143
832	0.4994
823	0.3051
814	0.0836
805	0.0716
796	0.4124
787	0.5982
778	0.671
769	0.7108
760	0.7295
751	0.7357
742	0.7257
733	0.7111
724	0.7055
715	0.6961
706	0.6792
697	0.6683
688	0.6432
679	0.6284
670	0.6576
661	0.6692
652	0.6578
643	0.6686
634	0.6975
