Infrared Spectrum: 4-t-Butylcyclohexylamine,(c,t)
Formula: C 10 H 21 N
CAS: 5400-88-4
State: gas
Origin: EPA-IR VAPOR PHASE LIBRARY
1/CM	ABSORBANCE
549.9	0.0002249
559.547	0.0002123
569.193	0.0003671
578.84	0.000259
588.486	0.0004133
598.133	0.0003021
607.779	0.0003373
617.426	0.0002428
627.072	0.0002534
636.719	0.0002712
646.365	0.0003198
656.012	0.0002933
665.658	0.0002822
675.305	0.0003022
684.951	0.0003265
694.598	0.0003438
704.245	0.0003623
713.891	0.0003491
723.538	0.0004661
733.184	0.0005391
742.831	0.0007011
752.477	0.0007454
762.124	0.0009131
771.77	0.0010339
781.417	0.0009999
791.063	0.0008558
800.71	0.0008416
810.356	0.0007531
820.003	0.0005445
829.649	0.0004136
839.296	0.000447
848.943	0.0003851
858.589	0.0003583
868.236	0.0003353
877.882	0.0003143
887.529	0.0003633
897.175	0.0003854
906.822	0.0003149
916.468	0.0003615
926.115	0.0003102
935.761	0.0002987
945.408	0.0002982
955.054	0.0002579
964.701	0.0002964
974.347	0.0003056
983.994	0.0002537
993.64	0.0002563
1003.29	0.0002185
1012.93	0.0003083
1022.58	0.000289
1032.23	0.0003119
1041.87	0.0002965
1051.52	0.0002954
1061.17	0.0003018
1070.81	0.0004008
1080.46	0.0006557
1090.11	0.0008654
1099.75	0.0006165
1109.4	0.0003442
1119.05	0.0003019
1128.69	0.0002634
1138.34	0.0002407
1147.99	0.0003228
1157.63	0.0003277
1167.28	0.0003153
1176.92	0.0003547
1186.57	0.0003501
1196.22	0.000325
1205.86	0.0003744
1215.51	0.0003223
1225.16	0.0004604
1234.8	0.0005491
1244.45	0.0003507
1254.1	0.000299
1263.74	0.0002395
1273.39	0.000274
1283.04	0.0002737
1292.68	0.0002497
1302.33	0.0003362
1311.98	0.0003009
1321.62	0.0003088
1331.27	0.0003217
1340.92	0.0003074
1350.56	0.0004676
1360.21	0.0007606
1369.86	0.0010072
1379.5	0.0008312
1389.15	0.0006519
1398.79	0.0006091
1408.44	0.0003793
1418.09	0.0003062
1427.73	0.0003454
1437.38	0.0004406
1447.03	0.0006368
1456.67	0.0006884
1466.32	0.0006675
1475.97	0.0007014
1485.61	0.000664
1495.26	0.0003912
1504.91	0.0003208
1514.55	0.000229
1524.2	0.0002396
1533.85	0.0002635
1543.49	0.0002138
1553.14	0.0002654
1562.79	0.0002606
1572.43	0.0002761
1582.08	0.0003027
1591.73	0.0003663
1601.37	0.0004194
1611.02	0.0005721
1620.67	0.0006081
1630.31	0.0004941
1639.96	0.0003122
1649.6	0.0002584
1659.25	0.0002724
1668.9	0.0002198
1678.54	0.0002481
1688.19	0.000209
1697.84	0.0002281
1707.48	0.0002346
1717.13	0.0001667
1726.78	0.0002094
1736.42	0.0001839
1746.07	0.0001764
1755.72	0.0001913
1765.36	0.0001915
1775.01	0.0001872
1784.66	0.0001931
1794.3	0.0002175
1803.95	0.0001909
1813.6	0.0001853
1823.24	0.0001959
1832.89	0.000192
1842.54	0.0001815
1852.18	0.000174
1861.83	0.0001666
1871.47	0.00015494
1881.12	0.000181
1890.77	0.0001684
1900.41	0.0001726
1910.06	0.0001616
1919.71	0.0001778
1929.35	0.0001723
1939	0.0001503
1948.65	0.00013534
1958.29	0.0001577
1967.94	0.00013896
1977.59	0.0001681
1987.23	0.00015737
1996.88	0.0001808
2006.53	0.0001638
2016.17	0.00014989
2025.82	0.0001495
2035.47	0.0001834
2045.11	0.00012608
2054.76	0.00012603
2064.41	0.00014626
2074.05	0.0001564
2083.7	0.00014855
2093.35	0.00015525
2102.99	0.0001645
2112.64	0.00015626
2122.28	0.00014116
2131.93	0.00012326
2141.58	0.00011305
2151.22	0.00014688
2160.87	0.00013436
2170.52	0.00015803
2180.16	0.00013603
2189.81	0.00012166
2199.46	0.00013528
2209.1	0.00013273
2218.75	0.00011823
2228.4	0.0001678
2238.04	0.00015735
2247.69	0.00014047
2257.34	0.0001334
2266.98	0.00015443
2276.63	0.00014071
2286.28	0.00014245
2295.92	0.00011861
2305.57	0.00013551
2315.22	8.363e-05
2324.86	0.0001055
2334.51	0.00013053
2344.16	0.00010168
2353.8	0.00014766
2363.45	7.714e-05
2373.09	0.00013525
2382.74	0.00013285
2392.39	0.00015228
2402.03	0.00011302
2411.68	0.0001024
2421.33	0.00011757
2430.97	0.00013331
2440.62	9.93e-05
2450.27	0.00012333
2459.91	0.00014556
2469.56	0.0001226
2479.21	0.00014212
2488.85	0.00011813
2498.5	0.00012305
2508.15	0.00015422
2517.79	0.00015163
2527.44	0.0001643
2537.09	0.00012335
2546.73	0.00012495
2556.38	0.00015112
2566.03	9.72e-05
2575.67	0.00014787
2585.32	0.00013978
2594.96	0.0001867
2604.61	0.0001874
2614.26	0.00012017
2623.9	0.000204
2633.55	0.0001951
2643.2	0.0001819
2652.84	0.0001686
2662.49	0.00014522
2672.14	0.0002323
2681.78	0.0001922
2691.43	0.0001877
2701.08	0.00014411
2710.72	0.0001825
2720.37	0.0001898
2730.02	0.0002007
2739.66	0.00013992
2749.31	0.00015992
2758.96	0.0001832
2768.6	0.00015302
2778.25	0.0002194
2787.9	0.0001998
2797.54	0.0002352
2807.19	0.0002967
2816.84	0.0003687
2826.48	0.0004826
2836.13	0.0007781
2845.77	0.001431
2855.42	0.002141
2865.07	0.002411
2874.71	0.002081
2884.36	0.001771
2894.01	0.001851
2903.65	0.002371
2913.3	0.003441
2922.95	0.004471
2932.59	0.004241
2942.24	0.004511
2951.89	0.005021
2961.53	0.005131
2971.18	0.003961
2980.83	0.002121
2990.47	0.0008573
3000.12	0.0004237
3009.77	0.0002889
3019.41	0.0001706
3029.06	0.0002101
3038.71	0.0001929
3048.35	0.00014277
3058	0.0001899
3067.64	0.0002099
3077.29	0.0002546
3086.94	0.00014548
3096.58	0.0001624
3106.23	0.00012834
3115.88	0.0001797
3125.52	0.00010315
3135.17	0.00013032
3144.82	0.0002079
3154.46	0.0001982
3164.11	0.0001709
3173.76	0.0002229
3183.4	0.0001665
3193.05	0.00014936
3202.7	0.00014991
3212.34	0.00015828
3221.99	0.0002028
3231.64	0.0002094
3241.28	0.0001704
3250.93	0.00010629
3260.58	0.0001834
3270.22	0.00015904
3279.87	0.0002277
3289.52	0.0003092
3299.16	0.0002326
3308.81	0.0002208
3318.45	0.0001736
3328.1	0.0002404
3337.75	0.00013555
3347.39	0.0003427
3357.04	0.0002631
3366.69	0.000334
3376.33	0.0001803
3385.98	0.0002516
3395.63	0.0001913
3405.27	0.0002394
3414.92	0.0002004
3424.57	0.0001801
3434.21	0.0002273
3443.86	0.0001924
3453.51	0.0002386
3463.15	0.0001859
3472.8	0.0002013
3482.45	0.00013201
3492.09	0.0001796
3501.74	0.00016039
3511.39	0.0001967
3521.03	0.00013678
3530.68	0.00011042
3540.33	0.0001616
3549.97	0.0002301
3559.62	7.427e-05
3569.26	0.00010899
3578.91	6.0537e-05
3588.56	9.089e-05
3598.2	9.573e-05
3607.85	8.476e-05
3617.5	4.23e-05
3627.14	0.0001591
3636.79	0.0002838
3646.44	9.214e-05
3656.08	0.00016082
3665.73	4.79e-05
3675.38	0.00014801
3685.02	0.0002378
3694.67	0.0002332
3704.32	0.00015446
3713.96	0.0001856
3723.61	0.00014535
3733.26	0.00014501
3742.9	8.996e-05
3752.55	9.738e-05
3762.2	0.000177
3771.84	7.105e-05
3781.49	0.00011201
3791.13	0.00011338
3800.78	0.00011899
3810.43	0.00011933
3820.07	0.00010835
3829.72	0.0001663
3839.37	0.0001654
3849.01	7.606e-05
3858.66	0.00013284
3868.31	0.000231
3877.95	5.203e-05
3887.6	0.0001689
3897.25	0.0001745
3906.89	9.199e-05
3916.54	0.00013869
3926.19	0.0001826
3935.83	0.00015028
3945.48	0.00014666
3955.13	0.00010023
3964.77	0.00014589
3974.42	0.00012541
3984.07	0.00012858
3993.71	0.00012879
