Infrared Spectrum: PURINE, 2-CHLORO-6-HYDRAZINO-
Formula: C5 H5 Cl N6
CAS: 5404-88-6
State: SOLID (0.8 mg / 650 mg KBr DISC)
Class: COBLENTZ III
Instrument: PERKIN-ELMER 21 (GRATING)
Instrument parameters: FILTER CHANGE AT ABOUT 1020 CM^-^1
Sampling: TRANSMISSION
Resolution: 2
Origin: SOUTHERN RESEARCH INSTITUTE
1/CM	TRANSMITTANCE
605.573	0.547
614.202	0.547
622.83	0.5529
631.459	0.5579
640.088	0.5609
648.716	0.563
657.345	0.5574
665.974	0.4985
674.602	0.4912
683.231	0.522
691.86	0.5153
700.488	0.5468
709.117	0.5747
717.746	0.588
726.374	0.596
735.003	0.6
743.632	0.6
752.26	0.6
760.889	0.6
769.518	0.5881
778.146	0.5275
786.775	0.5009
795.404	0.5697
804.032	0.5455
812.661	0.5464
821.29	0.5648
829.918	0.5916
838.547	0.6031
847.176	0.607
855.805	0.608
864.433	0.607
873.062	0.603
881.691	0.5733
890.319	0.5305
898.948	0.4484
907.577	0.3509
916.205	0.2088
924.834	0.2037
933.463	0.3305
942.091	0.4531
950.72	0.5343
959.349	0.6487
967.977	0.7001
976.606	0.7116
985.235	0.7271
993.863	0.7385
1002.49	0.741
1011.12	0.7313
1019.75	0.7272
1028.38	0.7526
1037.01	0.746
1045.64	0.738
1054.26	0.7217
1062.89	0.6432
1071.52	0.5113
1080.15	0.635
1088.78	0.662
1097.41	0.6493
1106.04	0.6125
1114.66	0.5571
1123.29	0.4709
1131.92	0.2987
1140.55	0.3638
1149.18	0.6203
1157.81	0.6142
1166.44	0.5697
1175.07	0.4794
1183.69	0.4048
1192.32	0.5874
1200.95	0.6142
1209.58	0.5793
1218.21	0.4793
1226.84	0.4103
1235.47	0.3129
1244.09	0.1926
1252.72	0.4396
1261.35	0.6561
1269.98	0.636
1278.61	0.656
1287.24	0.6148
1295.87	0.4954
1304.5	0.3922
1313.12	0.404
1321.75	0.4266
1330.38	0.455
1339.01	0.431
1347.64	0.5183
1356.27	0.5605
1364.9	0.4825
1373.52	0.3339
1382.15	0.2421
1390.78	0.4539
1399.41	0.4619
1408.04	0.4083
1416.67	0.275
1425.3	0.1879
1433.93	0.2495
1442.55	0.4197
1451.18	0.5512
1459.81	0.5896
1468.44	0.5822
1477.07	0.5442
1485.7	0.524
1494.33	0.559
1502.95	0.5802
1511.58	0.5958
1520.21	0.5094
1528.84	0.5364
1537.47	0.5875
1546.1	0.5577
1554.73	0.5193
1563.36	0.4866
1571.98	0.4035
1580.61	0.2959
1589.24	0.2269
1597.87	0.1446
1606.5	0.1318
1615.13	0.1429
1623.76	0.2294
1632.39	0.3207
1641.01	0.3458
1649.64	0.2878
1658.27	0.1836
1666.9	0.1301
1675.53	0.2488
1684.16	0.5852
1692.79	0.6996
1701.41	0.773
1710.04	0.8107
1718.67	0.8258
1727.3	0.8388
1735.93	0.8448
1744.56	0.8507
1753.19	0.8594
1761.82	0.8643
1770.44	0.866
1779.07	0.867
1787.7	0.867
1796.33	0.867
1804.96	0.8605
1813.59	0.85
1822.22	0.853
1830.84	0.8612
1839.47	0.871
1848.1	0.871
1856.73	0.874
1865.36	0.879
1873.99	0.877
1882.62	0.878
1891.25	0.879
1899.87	0.879
1908.5	0.879
1917.13	0.879
1925.76	0.878
1934.39	0.876
1943.02	0.874
1951.65	0.8711
1960.27	0.869
1968.9	0.869
1977.53	0.869
1986.16	0.868
1994.79	0.867
2003.42	0.8662
2012.05	0.865
2020.68	0.863
2029.3	0.862
2037.93	0.861
2046.56	0.861
2055.19	0.8628
2063.82	0.862
2072.45	0.861
2081.08	0.86
2089.7	0.858
2098.33	0.858
2106.96	0.857
2115.59	0.857
2124.22	0.856
2132.85	0.856
2141.48	0.856
2150.11	0.856
2158.73	0.856
2167.36	0.855
2175.99	0.855
2184.62	0.85
2193.25	0.8475
2201.88	0.845
2210.51	0.841
2219.13	0.841
2227.76	0.839
2236.39	0.838
2245.02	0.838
2253.65	0.835
2262.28	0.8365
2270.91	0.835
2279.54	0.835
2288.16	0.835
2296.79	0.835
2305.42	0.835
2314.05	0.835
2322.68	0.835
2331.31	0.835
2339.94	0.835
2348.56	0.834
2357.19	0.831
2365.82	0.8235
2374.45	0.813
2383.08	0.8029
2391.71	0.7972
2400.34	0.795
2408.97	0.792
2417.59	0.7885
2426.22	0.7842
2434.85	0.7742
2443.48	0.765
2452.11	0.7582
2460.74	0.7532
2469.37	0.7482
2477.99	0.742
2486.62	0.739
2495.25	0.7362
2503.88	0.7312
2512.51	0.731
2521.14	0.73
2529.77	0.7235
2538.4	0.721
2547.02	0.72
2555.65	0.72
2564.28	0.716
2572.91	0.714
2581.54	0.7102
2590.17	0.706
2598.8	0.6982
2607.43	0.6885
2616.05	0.6792
2624.68	0.673
2633.31	0.6635
2641.94	0.6502
2650.57	0.6425
2659.2	0.6402
2667.83	0.6332
2676.45	0.628
2685.08	0.6192
2693.71	0.614
2702.34	0.6095
2710.97	0.6012
2719.6	0.597
2728.23	0.5855
2736.86	0.5715
2745.48	0.559
2754.11	0.5395
2762.74	0.5175
2771.37	0.5055
2780	0.4932
2788.63	0.4807
2797.26	0.4732
2805.88	0.4662
2814.51	0.461
2823.14	0.458
2831.77	0.451
2840.4	0.4492
2849.03	0.4405
2857.66	0.4307
2866.29	0.4182
2874.91	0.3972
2883.54	0.3872
2892.17	0.381
2900.8	0.3752
2909.43	0.3665
2918.06	0.3555
2926.69	0.3437
2935.31	0.3252
2943.94	0.3175
2952.57	0.3042
2961.2	0.2937
2969.83	0.2832
2978.46	0.2782
2987.09	0.2722
2995.72	0.2635
3004.34	0.26
3012.97	0.2535
3021.6	0.2442
3030.23	0.239
3038.86	0.2352
3047.49	0.233
3056.12	0.2315
3064.74	0.228
3073.37	0.226
3082	0.2222
3090.63	0.2142
3099.26	0.2188
3107.89	0.229
3116.52	0.2338
3125.15	0.2375
3133.77	0.2408
3142.4	0.242
3151.03	0.242
3159.66	0.24
3168.29	0.239
3176.92	0.2365
3185.55	0.236
3194.17	0.238
3202.8	0.2418
3211.43	0.2485
3220.06	0.2593
3228.69	0.2831
3237.32	0.3048
3245.95	0.3215
3254.58	0.3453
3263.2	0.3703
3271.83	0.3923
3280.46	0.43
3289.09	0.4601
3297.72	0.4815
3306.35	0.485
3314.98	0.483
3323.6	0.4762
3332.23	0.4519
3340.86	0.436
3349.49	0.4398
3358.12	0.4525
3366.75	0.4861
3375.38	0.5008
3384.01	0.501
3392.63	0.501
3401.26	0.501
3409.89	0.501
3418.52	0.501
3427.15	0.501
3435.78	0.503
3444.41	0.51
3453.04	0.5148
3461.66	0.5245
3470.29	0.5355
3478.92	0.5461
3487.55	0.5563
3496.18	0.5658
3504.81	0.5768
3513.44	0.5858
3522.06	0.5945
3530.69	0.6028
3539.32	0.6148
3547.95	0.6231
3556.58	0.6338
3565.21	0.6595
3573.84	0.6778
3582.47	0.6988
3591.09	0.7068
3599.72	0.7268
3608.35	0.7385
3616.98	0.7495
3625.61	0.758
3634.24	0.7725
3642.87	0.7798
3651.49	0.784
3660.12	0.785
3668.75	0.7858
3677.38	0.7918
3686.01	0.793
3694.64	0.795
3703.27	0.7958
3711.9	0.797
3720.52	0.797
3729.15	0.798
3737.78	0.798
3746.41	0.8
3755.04	0.8
3763.67	0.8
3772.3	0.798
3780.92	0.797
3789.55	0.795
3798.18	0.7887
3806.81	0.785
3815.44	0.781
3824.07	0.779
3832.7	0.777
3841.33	0.773
3849.95	0.768
3858.58	0.768
3867.21	0.764
3875.84	0.764
3884.47	0.764
3893.1	0.764
3901.73	0.765
3910.35	0.7642
