Infrared Spectrum: 9H-Purine, 6-hydrazino-
Formula: C5 H6 N6
CAS: 5404-86-4
State: SOLID (0.75 mg / 650 mg KBr DISC)
Melting point: 238 C
Class: COBLENTZ III
Instrument: PERKIN-ELMER 21 (GRATING)
Instrument parameters: FILTER CHANGE ABOUT 1075 CM^-^1
Sampling: TRANSMISSION
Resolution: 2
Origin: SOUTHERN RESEARCH INSTITUTE
1/CM	TRANSMITTANCE
676.48	0.4243
684.512	0.5744
692.544	0.6565
700.576	0.6436
708.608	0.623
716.64	0.6076
724.672	0.6067
732.704	0.6264
740.736	0.6601
748.768	0.6813
756.8	0.6852
764.832	0.5924
772.864	0.4572
780.897	0.4072
788.929	0.4553
796.961	0.4472
804.993	0.6564
813.025	0.6283
821.057	0.6063
829.089	0.6109
837.121	0.6186
845.153	0.629
853.185	0.6273
861.217	0.619
869.249	0.5945
877.281	0.5525
885.313	0.4521
893.345	0.4343
901.377	0.6031
909.409	0.7773
917.441	0.8033
925.473	0.7675
933.505	0.6062
941.537	0.307
949.569	0.563
957.601	0.7522
965.633	0.7972
973.666	0.796
981.698	0.7947
989.73	0.8159
997.762	0.8354
1005.79	0.8468
1013.83	0.8518
1021.86	0.8628
1029.89	0.8731
1037.92	0.8691
1045.95	0.8392
1053.99	0.8117
1062.02	0.7882
1070.05	0.75
1078.08	0.7278
1086.11	0.7866
1094.15	0.8303
1102.18	0.8357
1110.21	0.8261
1118.24	0.7962
1126.27	0.7075
1134.31	0.6131
1142.34	0.5059
1150.37	0.5132
1158.4	0.7923
1166.43	0.7553
1174.47	0.7769
1182.5	0.7894
1190.53	0.7366
1198.56	0.6746
1206.59	0.7949
1214.63	0.8075
1222.66	0.7904
1230.69	0.7083
1238.72	0.733
1246.75	0.502
1254.79	0.4766
1262.82	0.6218
1270.85	0.7986
1278.88	0.7954
1286.92	0.7704
1294.95	0.7326
1302.98	0.526
1311.01	0.4775
1319.04	0.1847
1327.08	0.0408
1335.11	0.5692
1343.14	0.7394
1351.17	0.7531
1359.2	0.7473
1367.24	0.7202
1375.27	0.6592
1383.3	0.593
1391.33	0.6288
1399.36	0.6604
1407.4	0.6445
1415.43	0.602
1423.46	0.6306
1431.49	0.6943
1439.52	0.6602
1447.56	0.6139
1455.59	0.5434
1463.62	0.5695
1471.65	0.6209
1479.68	0.6459
1487.72	0.6163
1495.75	0.5237
1503.78	0.6368
1511.81	0.6496
1519.84	0.6227
1527.88	0.5672
1535.91	0.6006
1543.94	0.6571
1551.97	0.6381
1560	0.6073
1568.04	0.5783
1576.07	0.5313
1584.1	0.372
1592.13	0.2318
1600.16	0.1033
1608.2	0.1075
1616.23	0.1416
1624.26	0.1358
1632.29	0.0759
1640.32	0.0022
1648.36	0.2591
1656.39	0.3113
1664.42	0.4195
1672.45	0.5548
1680.49	0.6558
1688.52	0.6725
1696.55	0.7156
1704.58	0.7726
1712.61	0.7886
1720.65	0.8036
1728.68	0.8089
1736.71	0.8134
1744.74	0.8206
1752.77	0.8297
1760.81	0.837
1768.84	0.8447
1776.87	0.8518
1784.9	0.8578
1792.93	0.8633
1800.97	0.8692
1809	0.8752
1817.03	0.8793
1825.06	0.883
1833.09	0.8873
1841.13	0.8915
1849.16	0.894
1857.19	0.8929
1865.22	0.8883
1873.25	0.8956
1881.29	0.8967
1889.32	0.8957
1897.35	0.897
1905.38	0.9046
1913.41	0.9099
1921.45	0.911
1929.48	0.912
1937.51	0.914
1945.54	0.9185
1953.57	0.9226
1961.61	0.9132
1969.64	0.913
1977.67	0.913
1985.7	0.9141
1993.73	0.9175
2001.77	0.9154
2009.8	0.9154
2017.83	0.9157
2025.86	0.9151
2033.89	0.9173
2041.93	0.9118
2049.96	0.9105
2057.99	0.9099
2066.02	0.9087
2074.06	0.9076
2082.09	0.9066
2090.12	0.9056
2098.15	0.9046
2106.18	0.9036
2114.22	0.9043
2122.25	0.905
2130.28	0.9014
2138.31	0.9033
2146.34	0.9046
2154.38	0.8989
2162.41	0.8936
2170.44	0.8886
2178.47	0.8836
2186.5	0.8784
2194.54	0.8733
2202.57	0.8683
2210.6	0.8634
2218.63	0.8603
2226.66	0.8618
2234.7	0.8487
2242.73	0.8362
2250.76	0.8266
2258.79	0.8231
2266.82	0.8215
2274.86	0.8217
2282.89	0.8203
2290.92	0.8184
2298.95	0.8192
2306.98	0.813
2315.02	0.806
2323.05	0.7951
2331.08	0.792
2339.11	0.7916
2347.14	0.7855
2355.18	0.7561
2363.21	0.736
2371.24	0.7269
2379.27	0.7228
2387.3	0.7192
2395.34	0.7155
2403.37	0.7119
2411.4	0.7069
2419.43	0.6976
2427.46	0.6902
2435.5	0.6805
2443.53	0.6685
2451.56	0.6555
2459.59	0.6407
2467.63	0.6308
2475.66	0.607
2483.69	0.5947
2491.72	0.5873
2499.75	0.5757
2507.79	0.559
2515.82	0.5403
2523.85	0.5166
2531.88	0.5012
2539.91	0.4904
2547.95	0.4782
2555.98	0.4616
2564.01	0.4477
2572.04	0.4545
2580.07	0.4748
2588.11	0.4863
2596.14	0.4854
2604.17	0.4701
2612.2	0.4542
2620.23	0.4435
2628.27	0.4306
2636.3	0.4165
2644.33	0.4089
2652.36	0.3822
2660.39	0.3592
2668.43	0.334
2676.46	0.3141
2684.49	0.3066
2692.52	0.3167
2700.55	0.3276
2708.59	0.3356
2716.62	0.3337
2724.65	0.3258
2732.68	0.3137
2740.71	0.299
2748.75	0.2849
2756.78	0.2709
2764.81	0.2557
2772.84	0.2388
2780.87	0.2296
2788.91	0.2394
2796.94	0.2546
2804.97	0.2752
2813	0.3
2821.03	0.317
2829.07	0.3237
2837.1	0.3264
2845.13	0.3281
2853.16	0.3306
2861.2	0.3437
2869.23	0.3496
2877.26	0.3477
2885.29	0.3402
2893.32	0.3249
2901.36	0.2965
2909.39	0.2793
2917.42	0.2688
2925.45	0.2517
2933.48	0.2346
2941.52	0.2257
2949.55	0.2079
2957.58	0.2025
2965.61	0.204
2973.64	0.2192
2981.68	0.2229
2989.71	0.2227
2997.74	0.2212
3005.77	0.222
3013.8	0.2262
3021.84	0.2334
3029.87	0.2403
3037.9	0.243
3045.93	0.2421
3053.96	0.2429
3062	0.2354
3070.03	0.2314
3078.06	0.2393
3086.09	0.2405
3094.12	0.2396
3102.16	0.2319
3110.19	0.2392
3118.22	0.2504
3126.25	0.2659
3134.28	0.2801
3142.32	0.2664
3150.35	0.2263
3158.38	0.1905
3166.41	0.1739
3174.44	0.1686
3182.48	0.1756
3190.51	0.1824
3198.54	0.1867
3206.57	0.1901
3214.6	0.1901
3222.64	0.1847
3230.67	0.1805
3238.7	0.1929
3246.73	0.2063
3254.77	0.2214
3262.8	0.2359
3270.83	0.2509
3278.86	0.2662
3286.89	0.2728
3294.93	0.2549
3302.96	0.2494
3310.99	0.2449
3319.02	0.2558
3327.05	0.2711
3335.09	0.2814
3343.12	0.2879
3351.15	0.2896
3359.18	0.3086
3367.21	0.3186
3375.25	0.3254
3383.28	0.3327
3391.31	0.3399
3399.34	0.347
3407.37	0.3546
3415.41	0.369
3423.44	0.3872
3431.47	0.4038
3439.5	0.4227
3447.53	0.4396
3455.57	0.4569
3463.6	0.4757
3471.63	0.4968
3479.66	0.5162
3487.69	0.5377
3495.73	0.5593
3503.76	0.5859
3511.79	0.6142
3519.82	0.6329
3527.85	0.646
3535.89	0.6588
3543.92	0.6712
3551.95	0.7007
3559.98	0.7206
3568.01	0.7308
3576.05	0.7406
3584.08	0.77
3592.11	0.7863
3600.14	0.8094
3608.17	0.8307
3616.21	0.8481
3624.24	0.8629
3632.27	0.8755
3640.3	0.884
3648.34	0.8908
3656.37	0.8949
3664.4	0.9036
3672.43	0.9048
3680.46	0.9084
3688.5	0.9145
3696.53	0.9228
3704.56	0.9259
3712.59	0.923
3720.62	0.9188
3728.66	0.9153
3736.69	0.9147
3744.72	0.9171
3752.75	0.9233
3760.78	0.9264
3768.82	0.9265
3776.85	0.9264
3784.88	0.9262
3792.91	0.9269
3800.94	0.9276
3808.98	0.9284
