Infrared Spectrum: 6-Methyl-3-heptyne
Formula: C 8 H 14
CAS: 54050-92-9
State: gas
Origin: EPA-IR VAPOR PHASE LIBRARY
1/CM	ABSORBANCE
549.8	0.0012302
559.445	0.0015826
569.09	0.002113
578.734	0.001673
588.379	0.002373
598.024	0.001903
607.669	0.002813
617.313	0.002923
626.958	0.001823
636.603	0.001673
646.248	0.0016234
655.893	0.001703
665.537	0.0013783
675.182	0.0012342
684.827	0.0012672
694.472	0.0010725
704.116	0.0014597
713.761	0.001055
723.406	0.0005997
733.051	0.0009951
742.695	0.0013366
752.34	0.0013315
761.985	0.001743
771.63	0.001953
781.275	0.002833
790.919	0.002593
800.564	0.003213
810.209	0.002163
819.854	0.002013
829.498	0.001823
839.143	0.0013236
848.788	0.0011001
858.433	0.001883
868.078	0.002253
877.722	0.002123
887.367	0.002083
897.012	0.001763
906.657	0.0015773
916.301	0.002093
925.946	0.002833
935.591	0.002073
945.236	0.0016514
954.88	0.0016377
964.525	0.0015687
974.17	0.001753
983.815	0.00114
993.46	0.0012948
1003.1	0.0006198
1012.75	0.002443
1022.39	0.002413
1032.04	0.002193
1041.68	0.000906
1051.33	0.003163
1060.97	0.004593
1070.62	0.006023
1080.26	0.006423
1089.91	0.007803
1099.55	0.005863
1109.2	0.004793
1118.84	0.003103
1128.49	0.003253
1138.13	0.003603
1147.78	0.003933
1157.42	0.006063
1167.07	0.006933
1176.71	0.006323
1186.36	0.003873
1196	0.002233
1205.64	0.002333
1215.29	0.002753
1224.93	0.004293
1234.58	0.005733
1244.22	0.004253
1253.87	0.004993
1263.51	0.005433
1273.16	0.011443
1282.8	0.013413
1292.45	0.010933
1302.09	0.010703
1311.74	0.023073
1321.38	0.032503
1331.03	0.025493
1340.67	0.016553
1350.32	0.014493
1359.96	0.011933
1369.61	0.013723
1379.25	0.019113
1388.9	0.019953
1398.54	0.013893
1408.18	0.008473
1417.83	0.008333
1427.47	0.012773
1437.12	0.016973
1446.76	0.019753
1456.41	0.022753
1466.05	0.024453
1475.7	0.019583
1485.34	0.012563
1494.99	0.007573
1504.63	0.004733
1514.28	0.003323
1523.92	0.002763
1533.57	0.002453
1543.21	0.002103
1552.86	0.001843
1562.5	0.0014659
1572.15	0.001793
1581.79	0.0014365
1591.44	0.001673
1601.08	0.002133
1610.73	0.002113
1620.37	0.001733
1630.01	0.001743
1639.66	0.002033
1649.3	0.001713
1658.95	0.001803
1668.59	0.0015181
1678.24	0.001733
1687.88	0.0014595
1697.53	0.0014827
1707.17	0.0010718
1716.82	0.001247
1726.46	0.0010833
1736.11	0.0012984
1745.75	0.0011113
1755.4	0.0014189
1765.04	0.0011458
1774.69	0.0011744
1784.33	0.0009972
1793.98	0.0010465
1803.62	0.0010464
1813.27	0.0010305
1822.91	0.0008896
1832.55	0.0011235
1842.2	0.0011702
1851.84	0.0009283
1861.49	0.0011061
1871.13	0.001341
1880.78	0.0010369
1890.42	0.0009631
1900.07	0.0009218
1909.71	0.0008159
1919.36	0.0009648
1929	0.001176
1938.65	0.00068294
1948.29	0.0007932
1957.94	0.0008652
1967.58	0.00075949
1977.23	0.0008065
1986.87	0.0007786
1996.52	0.0008254
2006.16	0.0008889
2015.81	0.0011331
2025.45	0.0008482
2035.1	0.0012199
2044.74	0.001169
2054.38	0.0010284
2064.03	0.0009734
2073.67	0.0007878
2083.32	0.0008672
2092.96	0.0010855
2102.61	0.0010793
2112.25	0.0011511
2121.9	0.00076169
2131.54	0.0011172
2141.19	0.0013156
2150.83	0.0009599
2160.48	0.0013886
2170.12	0.0010106
2179.77	0.0009977
2189.41	0.0014318
2199.06	0.0010725
2208.7	0.0013844
2218.35	0.0015374
2227.99	0.0013963
2237.64	0.0011707
2247.28	0.0012955
2256.92	0.001188
2266.57	0.0008015
2276.21	0.0011942
2285.86	0.0008381
2295.5	0.0013977
2305.15	0.0012475
2314.79	0.0013254
2324.44	0.0008803
2334.08	0.000996
2343.73	0.0008616
2353.37	0.0008838
2363.02	0.0011263
2372.66	0.0011051
2382.31	0.0008355
2391.95	0.0012818
2401.6	0.0012662
2411.24	0.001466
2420.89	0.0010371
2430.53	0.0012306
2440.18	0.0014373
2449.82	0.0012042
2459.47	0.0013237
2469.11	0.0012556
2478.75	0.0012796
2488.4	0.0007741
2498.04	0.0014187
2507.69	0.001378
2517.33	0.001101
2526.98	0.0014177
2536.62	0.001703
2546.27	0.0015751
2555.91	0.002083
2565.56	0.001673
2575.2	0.0015142
2584.85	0.002423
2594.49	0.002053
2604.14	0.002363
2613.78	0.002383
2623.43	0.002483
2633.07	0.002633
2642.72	0.002583
2652.36	0.002533
2662.01	0.002123
2671.65	0.002243
2681.29	0.002253
2690.94	0.002013
2700.58	0.002433
2710.23	0.002453
2719.87	0.003273
2729.52	0.004113
2739.16	0.004033
2748.81	0.004503
2758.45	0.004313
2768.1	0.004663
2777.74	0.004353
2787.39	0.004933
2797.03	0.005133
2806.68	0.006643
2816.32	0.008713
2825.97	0.011933
2835.61	0.017953
2845.26	0.024023
2854.9	0.030123
2864.55	0.038733
2874.19	0.054023
2883.84	0.067943
2893.48	0.079673
2903.12	0.096623
2912.77	0.114423
2922.41	0.116623
2932.06	0.116153
2941.7	0.126343
2951.35	0.136813
2960.99	0.160873
2970.64	0.178523
2980.28	0.144123
2989.93	0.075143
2999.57	0.034543
3009.22	0.022663
3018.86	0.015483
3028.51	0.010893
3038.15	0.007953
3047.8	0.007203
3057.44	0.006223
3067.09	0.005813
3076.73	0.005133
3086.38	0.004023
3096.02	0.004203
3105.67	0.003853
3115.31	0.004643
3124.95	0.003893
3134.6	0.004073
3144.24	0.004123
3153.89	0.004543
3163.53	0.004213
3173.18	0.004103
3182.82	0.003583
3192.47	0.002533
3202.11	0.002283
3211.76	0.002083
3221.4	0.0015615
3231.05	0.0012014
3240.69	0.0015591
3250.34	0.001923
3259.98	0.0010905
3269.63	0.001773
3279.27	0.001583
3288.92	0.0011724
3298.56	0.001813
3308.21	0.0014204
3317.85	0.0013518
3327.49	0.002393
3337.14	0.0013851
3346.78	0.0010578
3356.43	0.001783
3366.07	0.0016096
3375.72	0.0010404
3385.36	0.001903
3395.01	0.0010668
3404.65	0.0012319
3414.3	0.0013299
3423.94	0.0014947
3433.59	0.001603
3443.23	0.0009054
3452.88	0.0011398
3462.52	0.0012
3472.17	0.0008858
3481.81	0.0016011
3491.46	0.0011931
3501.1	0.0013867
3510.75	0.0013276
3520.39	0.00075872
3530.04	4.6e-05
3539.68	0.0010605
3549.32	0.0009885
3558.97	0.00068323
3568.61	0.0003
3578.26	0.000327
3587.9	0.0007303
3597.55	0.0013127
3607.19	0.000308
3616.84	0.000201
3626.48	0.001256
3636.13	0.000255
3645.77	0.0006156
3655.42	0.0013222
3665.06	0.0009119
3674.71	0.0009687
3684.35	0.0011148
3694	0.00069977
3703.64	0.0008815
3713.29	0.000983
3722.93	0.0008585
3732.58	0.000326
3742.22	0.001334
3751.86	0.0011783
3761.51	0.0014069
3771.15	0.0016166
3780.8	0.0008655
3790.44	0.0012753
3800.09	0.000447
3809.73	0.001683
3819.38	0.000863
3829.02	0.0008183
3838.67	0.0014662
3848.31	0.0007934
3857.96	0.001345
3867.6	0.000518
3877.25	0.00071649
3886.89	0.0009355
3896.54	0.0013344
3906.18	0.00062
3915.83	0.0016268
3925.47	0.0011384
3935.12	0.0013649
3944.76	0.001693
3954.41	0.001693
3964.05	0.0013209
3973.69	0.0008064
3983.34	0.0009403
3992.98	0.002363
