Infrared Spectrum: 4-Chloro-2,4-dimethylhexane
Formula: C 8 H 17 Cl
CAS: 54059-76-6
State: gas
Instrument: HP-GC/MS/IRD
Origin: NIST Mass Spectrometry Data Center
1/CM	ABSORBANCE
550	0.0006666
562	0.0006776
574	0.001001
586	0.0012694
598	0.0009328
610	0.0009746
622	0.0012782
634	0.0009394
646	0.0003762
658	0.0001188
670	7.26e-05
682	7.26e-05
694	8.36e-05
706	6.6e-05
718	0.0001298
730	9.24e-05
742	0.0002354
754	0.0003894
766	0.0005324
778	0.0006688
790	0.0009262
802	0.0011
814	0.0008646
826	0.0007348
838	0.0005654
850	0.000451
862	0.0006336
874	0.0009614
886	0.0010032
898	0.000715
910	0.0005038
922	0.0003718
934	0.0002882
946	0.0003454
958	0.0004972
970	0.0006116
982	0.0006622
994	0.0011726
1006	0.0014212
1018	0.0009636
1030	0.0006688
1042	0.0005412
1054	0.0005808
1066	0.0005742
1078	0.0007524
1090	0.0008624
1102	0.0010824
1114	0.0014696
1126	0.0023034
1138	0.0029568
1150	0.0028402
1162	0.002662
1174	0.0019008
1186	0.0011836
1198	0.0007458
1210	0.0004378
1222	0.0003608
1234	0.0003344
1246	0.0004818
1258	0.0006798
1270	0.0007524
1282	0.0009966
1294	0.0011132
1306	0.0008558
1318	0.0006424
1330	0.000759
1342	0.0011352
1354	0.0017402
1366	0.0025894
1378	0.0038852
1390	0.003762
1402	0.0016588
1414	0.0008954
1426	0.0011418
1438	0.002035
1450	0.0034782
1462	0.0044462
1474	0.003696
1486	0.0018282
1498	0.0008228
1510	0.000539
1522	0.0004048
1534	0.0003476
1546	0.0003124
1558	0.0002618
1570	0.0002772
1582	0.000253
1594	0.0001936
1606	0.0001958
1618	0.0001958
1630	0.0001584
1642	0.0001738
1654	0.0001672
1666	0.0001496
1678	0.0001188
1690	8.14e-05
1702	9.24e-05
1714	6.38e-05
1726	7.04e-05
1738	4.18e-05
1750	3.52e-05
1762	5.72e-05
1774	6.38e-05
1786	8.8e-05
1798	6.82e-05
1810	7.92e-05
1822	7.26e-05
1834	6.38e-05
1846	6.38e-05
1858	7.48e-05
1870	4.84e-05
1882	8.58e-05
1894	7.92e-05
1906	5.06e-05
1918	4.18e-05
1930	5.5e-05
1942	4.84e-05
1954	4.18e-05
1966	5.72e-05
1978	3.96e-05
1990	3.96e-05
2002	3.3e-05
2014	3.3e-05
2026	1.76e-05
2038	2.2e-05
2050	2.42e-05
2062	3.96e-05
2074	3.52e-05
2086	0
2098	5.06e-05
2110	7.26e-05
2122	1.76e-05
2134	4.4e-05
2146	4.18e-05
2158	6.16e-05
2170	6.6e-05
2182	4.4e-05
2194	5.28e-05
2206	6.38e-05
2218	6.16e-05
2230	4.84e-05
2242	5.28e-05
2254	6.38e-05
2266	4.84e-05
2278	4.18e-05
2290	7.04e-05
2302	3.52e-05
2314	6.38e-05
2326	7.04e-05
2338	6.16e-05
2350	3.74e-05
2362	4.18e-05
2374	7.26e-05
2386	0.0001056
2398	8.58e-05
2410	8.8e-05
2422	8.58e-05
2434	9.9e-05
2446	7.48e-05
2458	0.0001122
2470	8.8e-05
2482	9.02e-05
2494	0.0001012
2506	9.24e-05
2518	7.48e-05
2530	9.68e-05
2542	0.0001276
2554	0.0001342
2566	0.0001474
2578	0.000143
2590	0.0001804
2602	0.0001716
2614	0.0001782
2626	0.0001804
2638	0.0002112
2650	0.0001936
2662	0.0002156
2674	0.0002244
2686	0.0002002
2698	0.0002508
2710	0.0003014
2722	0.0003938
2734	0.0005214
2746	0.000561
2758	0.000506
2770	0.0005368
2782	0.0005456
2794	0.000627
2806	0.0007854
2818	0.001056
2830	0.001441
2842	0.0020944
2854	0.003014
2866	0.0046156
2878	0.0076736
2890	0.008965
2902	0.0090706
2914	0.0102784
2926	0.013035
2938	0.01628
2950	0.0173008
2962	0.0206954
2974	0.0213752
2986	0.015224
2998	0.0084106
3010	0.0037312
3022	0.0017072
3034	0.0011418
3046	0.0008844
3058	0.0007964
3070	0.0007722
3082	0.0007414
3094	0.0006754
3106	0.000616
3118	0.0005324
3130	0.0004796
3142	0.0004246
3154	0.0004092
3166	0.000407
3178	0.000429
3190	0.0003982
3202	0.0003916
3214	0.0002882
3226	0.0002794
3238	0.0002662
3250	0.000176
3262	0.0001804
3274	0.0001914
3286	0.0001782
3298	0.0001298
3310	0.0001606
3322	0.000132
3334	0.0001408
3346	0.0001166
3358	0.0001364
3370	0.0001606
3382	0.000165
3394	0.0001628
3406	0.0001518
3418	0.0001342
3430	0.0001056
3442	0.0001078
3454	8.14e-05
3466	0.0001012
3478	6.82e-05
3490	9.68e-05
3502	9.9e-05
3514	7.48e-05
3526	9.46e-05
3538	9.24e-05
3550	9.9e-05
3562	8.14e-05
3574	3.52e-05
3586	9.68e-05
3598	5.94e-05
3610	6.38e-05
3622	7.04e-05
3634	9.68e-05
3646	8.14e-05
3658	0.0001012
3670	9.9e-05
3682	0.0001122
3694	0.0001254
3706	9.46e-05
3718	8.8e-05
3730	0.0001144
3742	0.0001232
3754	0.000132
3766	5.72e-05
3778	0.0001254
3790	0.0001078
3802	0.0001122
3814	5.94e-05
3826	0.0001892
3838	0.0001804
