Infrared Spectrum: ETHYL-DL-Beta-HYDROXY N-BUTYRATE
Formula: C6 H12 O3
CAS: 5405-41-4
State: LIQUID
Boiling point: 81-83 C AT 16 mmHg
Class: COBLENTZ
Instrument: Not specified, most likely a prism, grating, or hybrid spectrometer.
Sampling: TRANSMISSION
Path length: 0.003 CM
Resolution: 4
Origin: WYANDOTTE CHEMICALS CORP., WYANDOTTE, MICHIGAN, USA
MICROMETERS	TRANSMITTANCE
2.05	0.991
2.08987	0.986
2.12973	0.964
2.1696	0.956
2.20946	0.959
2.24933	0.968
2.28919	0.964
2.32906	0.951
2.36893	0.958
2.40879	0.973
2.44866	0.971
2.48852	0.971
2.52839	0.969
2.56825	0.968
2.60812	0.946
2.64799	0.848
2.68785	0.651
2.72772	0.315
2.76758	0.2
2.80745	0.15
2.84731	0.14
2.88718	0.146
2.92705	0.191
2.96691	0.287
3.00678	0.385
3.04664	0.627
3.08651	0.714
3.12637	0.806
3.16624	0.844
3.20611	0.838
3.24597	0.572
3.28584	0.075
3.3257	0.287
3.36557	0.348
3.40543	0.547
3.4453	0.716
3.48517	0.786
3.52503	0.864
3.5649	0.873
3.60476	0.876
3.64463	0.886
3.68449	0.891
3.72436	0.904
3.76423	0.918
3.80409	0.919
3.84396	0.926
3.88382	0.928
3.92369	0.933
3.96355	0.928
4.00342	0.931
4.04329	0.934
4.08315	0.943
4.12302	0.946
4.16288	0.944
4.20275	0.948
4.24261	0.954
4.28248	0.956
4.32235	0.953
4.36221	0.954
4.40208	0.956
4.44194	0.954
4.48181	0.954
4.52167	0.956
4.56154	0.959
4.60141	0.966
4.64127	0.966
4.68114	0.963
4.721	0.951
4.76087	0.948
4.80073	0.946
4.8406	0.943
4.88047	0.941
4.92033	0.933
4.9602	0.938
5.00006	0.939
5.03993	0.944
5.07979	0.949
5.11966	0.941
5.15953	0.936
5.19939	0.933
5.23926	0.928
5.27912	0.924
5.31899	0.918
5.35885	0.919
5.39872	0.918
5.43859	0.913
5.47845	0.881
5.51832	0.838
5.55818	0.781
5.59805	0.629
5.63791	0.383
5.67778	0.023
5.71765	0.028
5.75751	0.031
5.79738	0.066
5.83724	0.322
5.87711	0.527
5.91697	0.661
5.95684	0.706
5.99671	0.739
6.03657	0.761
6.07644	0.787
6.1163	0.836
6.15617	0.859
6.19603	0.873
6.2359	0.881
6.27577	0.879
6.31563	0.878
6.3555	0.874
6.39536	0.869
6.43523	0.863
6.47509	0.853
6.51496	0.831
6.55483	0.801
6.59469	0.754
6.63456	0.58
6.67442	0.444
6.71429	0.287
6.75415	0.247
6.79402	0.252
6.83389	0.263
6.87375	0.303
6.91362	0.29
6.95348	0.238
6.99335	0.18
7.03321	0.17
7.07308	0.171
7.11295	0.17
7.15281	0.101
7.19268	0.043
7.23254	0.1
7.27241	0.24
7.31227	0.235
7.35214	0.242
7.39201	0.203
7.43187	0.151
7.47174	0.125
7.5116	0.101
7.55147	0.071
7.59133	0.043
7.6312	0.038
7.67107	0.046
7.71093	0.06
7.7508	0.078
7.79066	0.095
7.83053	0.096
7.87039	0.083
7.91026	0.081
7.95013	0.096
7.98999	0.115
8.02986	0.128
8.06972	0.133
8.10959	0.136
8.14945	0.14
8.18932	0.125
8.22919	0.073
8.26905	0.041
8.30892	0.028
8.34878	0.026
8.38865	0.026
8.42851	0.026
8.46838	0.03
8.50825	0.038
8.54811	0.065
8.58798	0.13
8.62784	0.198
8.66771	0.208
8.70757	0.185
8.74744	0.14
8.78731	0.113
8.82717	0.106
8.86704	0.096
8.9069	0.103
8.94677	0.13
8.98663	0.121
9.0265	0.073
9.06637	0.06
9.10623	0.061
9.1461	0.07
9.18596	0.081
9.22583	0.083
9.26569	0.081
9.30556	0.096
9.34543	0.14
9.38529	0.193
9.42516	0.273
9.46502	0.323
9.50489	0.318
9.54475	0.203
9.58462	0.12
9.62449	0.07
9.66435	0.071
9.70422	0.143
9.74408	0.28
9.78395	0.39
9.82381	0.505
9.86368	0.574
9.90355	0.637
9.94341	0.686
9.98328	0.721
10.0231	0.746
10.063	0.752
10.1029	0.754
10.1427	0.746
10.1826	0.721
10.2225	0.689
10.2623	0.627
10.3022	0.56
10.3421	0.479
10.3819	0.415
10.4218	0.357
10.4617	0.317
10.5015	0.3
10.5414	0.305
10.5813	0.355
10.6211	0.435
10.661	0.482
10.7009	0.499
10.7407	0.465
10.7806	0.454
10.8205	0.504
10.8603	0.554
10.9002	0.594
10.9401	0.637
10.9799	0.677
11.0198	0.706
11.0597	0.736
11.0995	0.754
11.1394	0.776
11.1792	0.779
11.2191	0.781
11.259	0.766
11.2988	0.744
11.3387	0.696
11.3786	0.647
11.4184	0.622
11.4583	0.616
11.4982	0.616
11.538	0.616
11.5779	0.622
11.6178	0.634
11.6576	0.637
11.6975	0.621
11.7374	0.58
11.7772	0.534
11.8171	0.529
11.857	0.57
11.8968	0.627
11.9367	0.657
11.9766	0.677
12.0164	0.702
12.0563	0.726
12.0962	0.751
12.136	0.752
12.1759	0.747
12.2158	0.731
12.2556	0.724
12.2955	0.726
12.3354	0.732
12.3752	0.724
12.4151	0.712
12.455	0.704
12.4948	0.692
12.5347	0.679
12.5745	0.682
12.6144	0.706
12.6543	0.724
12.6941	0.729
12.734	0.742
12.7739	0.747
12.8137	0.757
12.8536	0.761
12.8935	0.757
12.9333	0.762
12.9732	0.767
13.0131	0.767
13.0529	0.766
13.0928	0.764
13.1327	0.757
13.1725	0.752
13.2124	0.747
13.2523	0.742
13.2921	0.734
13.332	0.727
13.3719	0.719
13.4117	0.706
13.4516	0.701
13.4915	0.696
13.5313	0.689
13.5712	0.682
13.6111	0.677
13.6509	0.672
13.6908	0.669
13.7307	0.667
13.7705	0.667
13.8104	0.667
13.8503	0.666
13.8901	0.669
13.93	0.672
13.9698	0.674
14.0097	0.681
14.0496	0.682
14.0894	0.684
14.1293	0.694
14.1692	0.697
14.209	0.701
14.2489	0.701
14.2888	0.704
14.3286	0.706
14.3685	0.707
14.4084	0.709
14.4482	0.709
14.4881	0.707
14.528	0.707
14.5678	0.707
14.6077	0.709
14.6476	0.706
14.6874	0.706
14.7273	0.702
14.7672	0.702
14.807	0.702
14.8469	0.696
14.8868	0.699
14.9266	0.696
14.9665	0.691
15.0064	0.692
15.0462	0.691
15.0861	0.687
15.126	0.687
15.1658	0.686
15.2057	0.684
15.2456	0.681
15.2854	0.677
15.3253	0.676
15.3651	0.674
15.405	0.672
15.4449	0.669
15.4847	0.667
15.5246	0.669
15.5645	0.669
15.6043	0.666
15.6442	0.667
15.6841	0.671
15.7239	0.674
15.7638	0.672
15.8037	0.674
15.8435	0.682
15.8834	0.682
15.9233	0.682
15.9631	0.682
16.003	0.684
