Infrared Spectrum: 3-Ethynylaniline
Formula: C 8 H 7 N
CAS: 54060-30-9
State: gas
Origin: EPA-IR VAPOR PHASE LIBRARY
1/CM	ABSORBANCE
501.5	0.00946
513.074	0.00912
524.648	0.00999
536.222	0.00944
547.796	0.00854
559.37	0.00885
570.944	0.00913
582.518	0.01065
594.092	0.01805
605.666	0.03409
617.24	0.04907
628.814	0.03713
640.388	0.06129
651.962	0.05097
663.536	0.05153
675.11	0.04822
686.684	0.03618
698.258	0.02174
709.832	0.01479
721.406	0.01244
732.98	0.01066
744.554	0.00985
756.128	0.01496
767.702	0.02771
779.276	0.04103
790.85	0.02581
802.423	0.01323
813.997	0.0082
825.571	0.00676
837.145	0.00773
848.719	0.01223
860.293	0.01932
871.867	0.01516
883.441	0.00979
895.015	0.00723
906.589	0.00742
918.163	0.01065
929.737	0.01253
941.311	0.00824
952.885	0.00419
964.459	0.00392
976.033	0.00383
987.607	0.00519
999.181	0.00518
1010.76	0.00303
1022.33	0.00251
1033.9	0.00289
1045.48	0.00357
1057.05	0.00427
1068.63	0.0061
1080.2	0.00833
1091.77	0.0088
1103.35	0.00712
1114.92	0.00452
1126.49	0.00323
1138.07	0.00464
1149.64	0.00879
1161.22	0.0102
1172.79	0.00605
1184.36	0.00429
1195.94	0.00701
1207.51	0.01893
1219.09	0.02735
1230.66	0.01952
1242.23	0.00983
1253.81	0.01053
1265.38	0.01799
1276.96	0.02638
1288.53	0.0338
1300.1	0.02808
1311.68	0.01549
1323.25	0.00753
1334.83	0.00367
1346.4	0.00266
1357.97	0.00162
1369.55	0.00115
1381.12	0.00114
1392.7	0.00156
1404.27	0.00275
1415.84	0.0041
1427.42	0.00741
1438.99	0.01325
1450.57	0.01591
1462.14	0.01376
1473.71	0.01643
1485.29	0.02574
1496.86	0.02091
1508.44	0.00639
1520.01	0.00497
1531.58	0.00586
1543.16	0.00715
1554.73	0.01056
1566.31	0.01995
1577.88	0.03859
1589.45	0.06457
1601.03	0.06433
1612.6	0.0662
1624.18	0.06835
1635.75	0.04455
1647.32	0.0196
1658.9	0.01091
1670.47	0.00689
1682.05	0.00519
1693.62	0.00421
1705.19	0.00389
1716.77	0.00397
1728.34	0.00384
1739.92	0.00325
1751.49	0.00255
1763.06	0.00181
1774.64	0.00134
1786.21	0.00123
1797.79	0.00135
1809.36	0.00177
1820.93	0.00233
1832.51	0.00247
1844.08	0.00191
1855.66	0.00127
1867.23	0.00105
1878.8	0.00101
1890.38	0.00117
1901.95	0.00181
1913.53	0.00238
1925.1	0.00214
1936.67	0.00142
1948.25	0.00126
1959.82	0.00123
1971.4	0.00113
1982.97	0.0009929
1994.54	0.0009332
2006.12	0.000913
2017.69	0.0008764
2029.27	0.0008108
2040.84	0.0008278
2052.41	0.001
2063.99	0.00119
2075.56	0.00152
2087.14	0.00223
2098.71	0.00354
2110.28	0.00456
2121.86	0.0032
2133.43	0.00108
2145.01	0.0006706
2156.58	0.0006634
2168.15	0.0005707
2179.73	0.0004582
2191.3	0.000446
2202.88	0.000543
2214.45	0.0006118
2226.02	0.000594
2237.6	0.0005343
2249.17	0.0005187
2260.74	0.0005574
2272.32	0.0005776
2283.89	0.0005583
2295.47	0.0004509
2307.04	0.0004999
2318.61	0.0005276
2330.19	0.0005626
2341.76	0.0005509
2353.34	0.0004832
2364.91	0.00046
2376.48	0.0005426
2388.06	0.0005022
2399.63	0.0003738
2411.21	0.0002996
2422.78	0.0002938
2434.35	0.0003143
2445.93	0.0003984
2457.5	0.0004662
2469.08	0.000383
2480.65	0.000288
2492.22	0.0002527
2503.8	0.0002628
2515.37	0.0002924
2526.95	0.0003439
2538.52	0.0004274
2550.09	0.0005755
2561.67	0.0008161
2573.24	0.0009123
2584.82	0.0007939
2596.39	0.0006152
2607.96	0.0005169
2619.54	0.0003584
2631.11	0.0002789
2642.69	0.0002528
2654.26	0.0002894
2665.83	0.0003757
2677.41	0.0004764
2688.98	0.0006311
2700.56	0.0005643
2712.13	0.0006812
2723.7	0.0008506
2735.28	0.0009181
2746.85	0.0007657
2758.43	0.0005
2770	0.0003064
2781.57	0.0001978
2793.15	0.0001105
2804.72	6.956e-05
2816.3	8.622e-05
2827.87	0.0001229
2839.44	0.0001962
2851.02	0.0002785
2862.59	0.0003943
2874.17	0.0006081
2885.74	0.0006244
2897.31	0.0005266
2908.89	0.0005065
2920.46	0.0003885
2932.04	0.0003121
2943.61	0.0003603
2955.18	0.0004216
2966.76	0.0005324
2978.33	0.0006528
2989.91	0.000927
3001.48	0.00212
3013.05	0.00432
3024.63	0.00757
3036.2	0.01129
3047.78	0.01553
3059.35	0.01425
3070.92	0.01011
3082.5	0.00879
3094.07	0.00704
3105.65	0.00367
3117.22	0.00167
3128.79	0.000692
3140.37	0.0003917
3151.94	0.0003826
3163.52	0.0004774
3175.09	0.0005585
3186.66	0.0007511
3198.24	0.0009783
3209.81	0.0012
3221.39	0.00143
3232.96	0.00163
3244.53	0.00146
3256.11	0.00182
3267.68	0.00289
3279.26	0.00525
3290.83	0.00905
3302.4	0.01559
3313.98	0.02714
3325.55	0.04478
3337.13	0.03443
3348.7	0.00622
3360.27	0.00188
3371.85	0.00183
3383.42	0.00286
3395	0.00545
3406.57	0.00799
3418.14	0.00853
3429.72	0.00589
3441.29	0.00276
3452.86	0.00167
3464.44	0.00223
3476.01	0.00371
3487.59	0.00557
3499.16	0.00569
3510.73	0.0046
3522.31	0.00311
3533.88	0.00117
3545.46	0.0004801
3557.03	0.0003047
3568.6	0.0002689
3580.18	0.0002418
3591.75	0.0001622
3603.33	0.0002162
3614.9	0.0001861
3626.47	0.0001718
3638.05	0.0001451
3649.62	0.0001855
3661.2	0.0001249
3672.77	0.0001198
3684.34	0.0001934
3695.92	0.0002337
3707.49	0.0001884
3719.07	0.0002081
3730.64	0.0002775
3742.21	0.0003591
3753.79	0.0004134
3765.36	0.0003127
3776.94	0.0003467
3788.51	0.0002866
3800.08	0.0002743
3811.66	0.0002297
3823.23	0.0003536
3834.81	0.0005649
3846.38	0.0009067
3857.95	0.0009094
3869.53	0.0005505
3881.1	0.0003956
3892.68	0.0005027
3904.25	0.0005458
3915.82	0.0007059
3927.4	0.0009366
3938.97	0.00101
3950.55	0.0009741
3962.12	0.0006066
3973.69	0.0004454
3985.27	0.0004704
3996.84	0.0003146
