Infrared Spectrum: Ethyl 4-t-butylbenzoate
Formula: C 13 H 18 O 2
CAS: 5406-57-5
State: gas
Origin: EPA-IR VAPOR PHASE LIBRARY
1/CM	ABSORBANCE
549.8	0.00881
559.445	0.00656
569.09	0.0046
578.735	0.00429
588.38	0.0024451
598.025	0.0016699
607.67	0.00144871
617.315	0.001251
626.96	0.001282
636.605	0.001802
646.251	0.0013882
655.896	0.001281
665.541	0.0015581
675.186	0.0020989
684.831	0.00405
694.476	0.01002
704.121	0.02169
713.766	0.02641
723.411	0.01648
733.056	0.00478
742.701	0.00291
752.346	0.00358
761.991	0.00994
771.636	0.02235
781.281	0.02156
790.926	0.0108
800.571	0.00608
810.216	0.00527
819.861	0.00534
829.507	0.00698
839.152	0.01292
848.797	0.0233
858.442	0.0204
868.087	0.00966
877.732	0.00692
887.377	0.00457
897.022	0.00361
906.667	0.00331
916.312	0.00355
925.957	0.00327
935.602	0.003
945.247	0.00266
954.892	0.00265
964.537	0.00301
974.182	0.00352
983.827	0.0043
993.472	0.00603
1003.12	0.0108
1012.76	0.03922
1022.41	0.07004
1032.05	0.02928
1041.7	0.01366
1051.34	0.01064
1060.99	0.01258
1070.63	0.01935
1080.28	0.03923
1089.92	0.0864
1099.57	0.16129
1109.21	0.23893
1118.86	0.2094
1128.5	0.09632
1138.15	0.03962
1147.79	0.02478
1157.44	0.02335
1167.08	0.02542
1176.73	0.03112
1186.37	0.07953
1196.02	0.07807
1205.66	0.02496
1215.31	0.02349
1224.95	0.0466
1234.6	0.06445
1244.24	0.06252
1253.89	0.12149
1263.53	0.31675
1273.18	0.47729
1282.82	0.20281
1292.47	0.10587
1302.11	0.05464
1311.76	0.04377
1321.4	0.02535
1331.05	0.01436
1340.69	0.01244
1350.34	0.01648
1359.98	0.03144
1369.63	0.05572
1379.27	0.03439
1388.92	0.02502
1398.56	0.03057
1408.21	0.03222
1417.85	0.02038
1427.5	0.01336
1437.14	0.01315
1446.79	0.01669
1456.43	0.02223
1466.08	0.02879
1475.73	0.03267
1485.37	0.02534
1495.02	0.01603
1504.66	0.01285
1514.31	0.01053
1523.95	0.00722
1533.6	0.00556
1543.24	0.0052
1552.89	0.00577
1562.53	0.00766
1572.18	0.0096
1581.82	0.00812
1591.47	0.01301
1601.11	0.02913
1610.76	0.0438
1620.4	0.02315
1630.05	0.01076
1639.69	0.00651
1649.34	0.00568
1658.98	0.00645
1668.63	0.00813
1678.27	0.0102
1687.92	0.01248
1697.56	0.01523
1707.21	0.02073
1716.85	0.04263
1726.5	0.12151
1736.14	0.26683
1745.79	0.20011
1755.43	0.065
1765.08	0.02041
1774.72	0.01063
1784.37	0.00937
1794.01	0.0104
1803.66	0.00947
1813.3	0.0061
1822.95	0.00441
1832.59	0.00364
1842.24	0.00349
1851.88	0.00324
1861.53	0.00283
1871.17	0.00271
1880.82	0.00281
1890.46	0.0029
1900.11	0.00299
1909.75	0.00349
1919.4	0.00429
1929.04	0.00427
1938.69	0.00357
1948.33	0.00317
1957.98	0.0031
1967.62	0.00312
1977.27	0.00296
1986.91	0.00246
1996.56	0.0020544
2006.2	0.0017772
2015.85	0.0016867
2025.49	0.0016986
2035.14	0.001749
2044.78	0.0017659
2054.43	0.0016976
2064.07	0.0016417
2073.72	0.0017467
2083.36	0.0018546
2093.01	0.001967
2102.65	0.0019829
2112.3	0.0021757
2121.94	0.0023808
2131.59	0.0022177
2141.23	0.0018842
2150.88	0.00154482
2160.52	0.0014164
2170.17	0.0013546
2179.81	0.001286
2189.46	0.001335
2199.1	0.001434
2208.75	0.00149674
2218.39	0.00146864
2228.04	0.00147286
2237.68	0.00144935
2247.33	0.001348
2256.97	0.0013529
2266.62	0.0013987
2276.26	0.0015647
2285.91	0.0016482
2295.55	0.0016348
2305.2	0.0015803
2314.84	0.0015925
2324.49	0.00154334
2334.13	0.00145228
2343.78	0.00150664
2353.42	0.0015879
2363.07	0.0017253
2372.72	0.0019733
2382.36	0.0021913
2392.01	0.0021103
2401.65	0.0019731
2411.3	0.0017994
2420.94	0.0015815
2430.59	0.00150591
2440.23	0.00151475
2449.88	0.00151229
2459.52	0.00153335
2469.17	0.00146154
2478.81	0.00146705
2488.46	0.0015594
2498.1	0.0015711
2507.75	0.00148408
2517.39	0.0016155
2527.04	0.0017959
2536.68	0.0018117
2546.33	0.0017652
2555.97	0.0019413
2565.62	0.0021111
2575.26	0.0020997
2584.91	0.0019431
2594.55	0.00176
2604.2	0.001673
2613.84	0.0015678
2623.49	0.0016492
2633.13	0.00154174
2642.78	0.00152766
2652.42	0.00151591
2662.07	0.0015517
2671.71	0.00146778
2681.36	0.00148398
2691	0.00149908
2700.65	0.0016237
2710.29	0.0019584
2719.94	0.0024152
2729.58	0.00263
2739.23	0.0023997
2748.87	0.00253
2758.52	0.00271
2768.16	0.00287
2777.81	0.00306
2787.45	0.00336
2797.1	0.00353
2806.74	0.00387
2816.39	0.00455
2826.03	0.00501
2835.68	0.00579
2845.32	0.00741
2854.97	0.01091
2864.61	0.0197
2874.26	0.03304
2883.9	0.03883
2893.55	0.03573
2903.19	0.03968
2912.84	0.05067
2922.48	0.04876
2932.13	0.04944
2941.77	0.06261
2951.42	0.08206
2961.06	0.13388
2970.71	0.18564
2980.35	0.12609
2990	0.07427
2999.64	0.03865
3009.29	0.02381
3018.93	0.015
3028.58	0.01076
3038.22	0.0101
3047.87	0.01189
3057.51	0.01054
3067.16	0.01013
3076.8	0.01082
3086.45	0.01128
3096.09	0.01153
3105.74	0.00902
3115.38	0.00544
3125.03	0.00406
3134.67	0.00357
3144.32	0.00286
3153.96	0.00253
3163.61	0.0022132
3173.25	0.0022669
3182.9	0.0021919
3192.54	0.0021522
3202.19	0.0020502
3211.83	0.0019326
3221.48	0.0018177
3231.12	0.00144309
3240.77	0.001291
3250.41	0.001259
3260.06	0.001037
3269.7	0.000901
3279.35	0.000831
3289	0.000796
3298.64	0.000998
3308.29	0.00099
3317.93	0.000737
3327.58	0.00069
3337.22	0.00068
3346.87	0.00072
3356.51	0.00058
3366.16	0.000657
3375.8	0.000722
3385.45	0.000541
3395.09	0.000559
3404.74	0.000624
3414.38	0.000702
3424.03	0.000832
3433.67	0.001108
3443.32	0.0015697
3452.96	0.0022955
3462.61	0.0021965
3472.25	0.001115
3481.9	0.000621
3491.54	0.000519
3501.19	0.00044
3510.83	0.00029
3520.48	0.00041
3530.12	0.00027
3539.77	0.00035
3549.41	0.00035
3559.06	0.00029
3568.7	0.00016
3578.35	6e-05
3587.99	0.0001
3597.64	0.00019
3607.28	6e-05
3616.93	0.00037
3626.57	4e-05
3636.22	0.00037
3645.86	0.00031
3655.51	0.00025
3665.15	0.00035
3674.8	0.00023
3684.44	0.000459
3694.09	0.000476
3703.73	0.00043
3713.38	0.000455
3723.02	0.0005
3732.67	0.000527
3742.31	0.000556
3751.96	0.00056
3761.6	0.000551
3771.25	0.00061
3780.89	0.000598
3790.54	0.000588
3800.18	0.000658
3809.83	0.000813
3819.47	0.000765
3829.12	0.000726
3838.76	0.000632
3848.41	0.000582
3858.05	0.00075
3867.7	0.000712
3877.34	0.000867
3886.99	0.000748
3896.63	0.000823
3906.28	0.000769
3915.92	0.000923
3925.57	0.000747
3935.21	0.00086
3944.86	0.000819
3954.5	0.000854
3964.15	0.00085
3973.79	0.000849
3983.44	0.001094
3993.08	0.001182
