Infrared Spectrum: Cyclobutyl phenyl ketone
Formula: C 11 H 12 O
CAS: 5407-98-7
State: gas
Instrument: HP-GC/MS/IRD
Origin: NIST Mass Spectrometry Data Center
1/CM	ABSORBANCE
550	7e-05
562	1e-05
574	3e-05
586	0.00051
598	0.00119
610	0.00201
622	0.00314
634	0.0042
646	0.00755
658	0.01397
670	0.0179
682	0.03108
694	0.04737
706	0.02886
718	0.01335
730	0.0107
742	0.00877
754	0.00746
766	0.00937
778	0.00852
790	0.00641
802	0.00392
814	0.00338
826	0.00495
838	0.00759
850	0.00643
862	0.00426
874	0.00438
886	0.00586
898	0.00629
910	0.0061
922	0.0076
934	0.00846
946	0.01089
958	0.02651
970	0.02651
982	0.00553
994	0.00471
1006	0.00697
1018	0.01006
1030	0.00964
1042	0.00585
1054	0.00801
1066	0.00768
1078	0.00501
1090	0.00435
1102	0.00451
1114	0.00299
1126	0.00252
1138	0.00301
1150	0.00498
1162	0.00869
1174	0.02107
1186	0.02457
1198	0.02826
1210	0.05716
1222	0.07743
1234	0.04128
1246	0.03372
1258	0.02536
1270	0.0104
1282	0.00766
1294	0.00726
1306	0.00804
1318	0.01157
1330	0.02143
1342	0.03508
1354	0.02914
1366	0.01431
1378	0.00872
1390	0.00592
1402	0.00403
1414	0.0035
1426	0.00476
1438	0.01079
1450	0.01654
1462	0.00734
1474	0.00412
1486	0.0029
1498	0.00235
1510	0.00233
1522	0.00265
1534	0.0028
1546	0.00276
1558	0.00322
1570	0.00565
1582	0.00871
1594	0.00998
1606	0.00789
1618	0.0043
1630	0.00336
1642	0.00399
1654	0.00691
1666	0.01254
1678	0.03215
1690	0.08735
1702	0.09142
1714	0.0319
1726	0.01075
1738	0.00563
1750	0.00332
1762	0.00254
1774	0.00216
1786	0.00184
1798	0.00247
1810	0.00293
1822	0.00177
1834	0.00113
1846	0.00086
1858	0.00075
1870	0.00095
1882	0.00146
1894	0.00197
1906	0.00189
1918	0.00127
1930	0.00094
1942	0.00141
1954	0.00204
1966	0.00199
1978	0.00106
1990	0.00052
2002	0.0004
2014	0.00036
2026	0.00038
2038	0.00041
2050	0.00043
2062	0.00055
2074	0.00055
2086	0.00051
2098	0.00051
2110	0.00048
2122	0.00049
2134	0.00052
2146	0.00056
2158	0.00062
2170	0.00061
2182	0.00054
2194	0.00046
2206	0.00042
2218	0.00037
2230	0.00033
2242	0.00032
2254	0.00031
2266	0.0003
2278	0.00035
2290	0.00035
2302	0.00036
2314	0.00063
2326	0.00064
2338	0.00054
2350	0.00046
2362	0.00041
2374	0.00039
2386	0.00038
2398	0.00045
2410	0.0005
2422	0.00046
2434	0.00036
2446	0.00027
2458	0.00018
2470	0.00015
2482	9e-05
2494	8e-05
2506	5e-05
2518	2e-05
2530	3e-05
2542	8e-05
2554	0.00013
2566	0.0001
2578	0.00018
2590	0.0003
2602	0.00024
2614	0.0002
2626	0.00023
2638	0.00024
2650	0.00023
2662	0.00031
2674	0.00033
2686	0.00033
2698	0.00043
2710	0.00044
2722	0.00038
2734	0.00031
2746	0.00035
2758	0.00035
2770	0.00045
2782	0.00059
2794	0.00084
2806	0.00113
2818	0.00151
2830	0.00205
2842	0.00319
2854	0.00585
2866	0.01137
2878	0.01753
2890	0.01489
2902	0.01385
2914	0.01775
2926	0.02721
2938	0.04249
2950	0.05748
2962	0.05962
2974	0.05123
2986	0.04767
2998	0.03873
3010	0.01931
3022	0.0126
3034	0.01399
3046	0.01378
3058	0.0156
3070	0.02472
3082	0.01998
3094	0.01382
3106	0.00713
3118	0.00284
3130	0.00146
3142	0.00115
3154	0.00102
3166	0.00084
3178	0.00054
3190	0.00042
3202	0.00036
3214	0.00029
3226	0.00029
3238	0.00025
3250	0.00017
3262	0.00023
3274	0.0003
3286	0.0003
3298	0.00027
3310	0.00023
3322	0.00021
3334	0.00036
3346	0.00052
3358	0.00106
3370	0.00171
3382	0.00165
3394	0.00085
3406	0.00053
3418	0.00036
3430	0.00019
3442	0.00012
3454	0.00013
3466	0.00015
3478	0.0001
3490	0.00011
3502	9e-05
3514	6e-05
3526	0.00015
3538	0.00012
3550	9e-05
3562	0.00014
3574	0.00013
3586	0.00016
3598	0.00012
3610	0.00025
3622	0.00023
3634	0.00033
3646	0.00037
3658	0.00039
3670	0.00039
3682	0.00043
3694	0.00045
3706	0.00058
3718	0.0005
3730	0.00047
3742	0.00039
3754	0.00039
3766	0.00036
3778	0.00034
3790	0.00036
3802	0.00036
3814	0.00036
3826	0.00039
3838	0.00038
