Infrared Spectrum: 2-AMINO-4,6-DIMETHYL PYRIDINE
Formula: C7 H10 N2
CAS: 5407-87-4
State: SOLID (MINERAL OIL MULL)
Class: COBLENTZ
Instrument: Not specified, most likely a prism, grating, or hybrid spectrometer.
Sampling: TRANSMISSION
Resolution: 4
Origin: WYANDOTTE CHEMICALS CORP., WYANDOTTE, MICHIGAN, USA
MICROMETERS	TRANSMITTANCE
2.055	0.177
2.09589	0.177
2.13679	0.189
2.17768	0.191
2.21858	0.192
2.25947	0.191
2.30036	0.191
2.34126	0.192
2.38215	0.197
2.42305	0.199
2.46394	0.201
2.50483	0.203
2.54573	0.208
2.58662	0.216
2.62752	0.216
2.66841	0.228
2.7093	0.244
2.7502	0.249
2.79109	0.262
2.83199	0.269
2.87288	0.274
2.91377	0.29
2.95467	0.278
2.99556	0.177
3.03646	0.153
3.07735	0.172
3.11824	0.192
3.15914	0.17
3.20003	0.131
3.24093	0.134
3.28182	0.129
3.32271	0.097
3.36361	0.03
3.4045	0.027
3.4454	0.03
3.48629	0.039
3.52718	0.063
3.56808	0.266
3.60897	0.295
3.64987	0.296
3.69076	0.288
3.73165	0.3
3.77255	0.313
3.81344	0.332
3.85434	0.336
3.89523	0.337
3.93612	0.354
3.97702	0.358
4.01791	0.368
4.0588	0.375
4.0997	0.378
4.14059	0.389
4.18149	0.399
4.22238	0.399
4.26327	0.383
4.30417	0.401
4.34506	0.414
4.38596	0.459
4.42685	0.452
4.46774	0.452
4.50864	0.455
4.54953	0.464
4.59043	0.474
4.63132	0.472
4.67221	0.476
4.71311	0.481
4.754	0.505
4.7949	0.518
4.83579	0.535
4.87668	0.544
4.91758	0.549
4.95847	0.563
4.99937	0.578
5.04026	0.59
5.08115	0.598
5.12205	0.605
5.16294	0.616
5.20384	0.627
5.24473	0.648
5.28562	0.665
5.32652	0.68
5.36741	0.692
5.40831	0.713
5.4492	0.723
5.49009	0.742
5.53099	0.771
5.57188	0.8
5.61278	0.824
5.65367	0.829
5.69456	0.839
5.73546	0.861
5.77635	0.93
5.81725	0.916
5.85814	0.921
5.89903	0.924
5.93993	0.802
5.98082	0.604
6.02172	0.452
6.06261	0.407
6.1035	0.433
6.1444	0.406
6.18529	0.172
6.22619	0.288
6.26708	0.334
6.30797	0.192
6.34887	0.194
6.38976	0.22
6.43066	0.279
6.47155	0.302
6.51244	0.358
6.55334	0.407
6.59423	0.445
6.63513	0.46
6.67602	0.45
6.71691	0.395
6.75781	0.245
6.7987	0.049
6.8396	0.058
6.88049	0.075
6.92138	0.114
6.96228	0.174
7.00317	0.225
7.04407	0.249
7.08496	0.32
7.12585	0.366
7.16675	0.38
7.20764	0.284
7.24854	0.196
7.28943	0.228
7.33032	0.31
7.37122	0.402
7.41211	0.337
7.45301	0.395
7.4939	0.46
7.53479	0.498
7.57569	0.517
7.61658	0.529
7.65748	0.539
7.69837	0.554
7.73926	0.552
7.78016	0.51
7.82105	0.462
7.86195	0.419
7.90284	0.464
7.94373	0.568
7.98463	0.638
8.02552	0.692
8.06641	0.546
8.10731	0.348
8.1482	0.491
8.1891	0.563
8.22999	0.6
8.27088	0.624
8.31178	0.65
8.35267	0.672
8.39357	0.692
8.43446	0.708
8.47535	0.725
8.51625	0.747
8.55714	0.769
8.59804	0.627
8.63893	0.653
8.67982	0.713
8.72072	0.747
8.76161	0.778
8.80251	0.774
8.8434	0.766
8.88429	0.754
8.92519	0.689
8.96608	0.663
9.00698	0.691
9.04787	0.715
9.08876	0.732
9.12966	0.744
9.17055	0.745
9.21145	0.75
9.25234	0.764
9.29323	0.764
9.33413	0.766
9.37502	0.773
9.41592	0.779
9.45681	0.779
9.4977	0.778
9.5386	0.767
9.57949	0.759
9.62039	0.732
9.66128	0.697
9.70217	0.653
9.74307	0.641
9.78396	0.667
9.82486	0.715
9.86575	0.764
9.90664	0.791
9.94754	0.815
9.98843	0.812
10.0293	0.742
10.0702	0.617
10.1111	0.597
10.152	0.718
10.1929	0.779
10.2338	0.805
10.2747	0.831
10.3156	0.848
10.3565	0.866
10.3974	0.88
10.4383	0.889
10.4792	0.89
10.5201	0.839
10.5609	0.825
10.6018	0.812
10.6427	0.735
10.6836	0.66
10.7245	0.689
10.7654	0.74
10.8063	0.778
10.8472	0.807
10.8881	0.832
10.929	0.836
10.9699	0.846
11.0108	0.868
11.0517	0.872
11.0926	0.877
11.1335	0.88
11.1744	0.878
11.2153	0.875
11.2561	0.873
11.297	0.873
11.3379	0.868
11.3788	0.87
11.4197	0.856
11.4606	0.843
11.5015	0.822
11.5424	0.798
11.5833	0.745
11.6242	0.629
11.6651	0.581
11.706	0.72
11.7469	0.771
11.7878	0.696
11.8287	0.65
11.8696	0.73
11.9104	0.773
11.9513	0.754
11.9922	0.709
12.0331	0.66
12.074	0.563
12.1149	0.448
12.1558	0.308
12.1967	0.32
12.2376	0.435
12.2785	0.441
12.3194	0.336
12.3603	0.412
12.4012	0.573
12.4421	0.612
12.483	0.619
12.5239	0.605
12.5648	0.592
12.6056	0.573
12.6465	0.559
12.6874	0.54
12.7283	0.513
12.7692	0.493
12.8101	0.476
12.851	0.455
12.8919	0.443
12.9328	0.426
12.9737	0.416
13.0146	0.409
13.0555	0.412
13.0964	0.426
13.1373	0.445
13.1782	0.467
13.2191	0.5
13.26	0.554
13.3008	0.609
13.3417	0.667
13.3826	0.723
13.4235	0.773
13.4644	0.798
13.5053	0.79
13.5462	0.747
13.5871	0.677
13.628	0.598
13.6689	0.529
13.7098	0.477
13.7507	0.431
13.7916	0.406
13.8325	0.373
13.8734	0.354
13.9143	0.343
13.9551	0.341
13.996	0.348
14.0369	0.354
14.0778	0.36
14.1187	0.372
14.1596	0.38
14.2005	0.392
14.2414	0.401
14.2823	0.412
14.3232	0.423
14.3641	0.43
14.405	0.448
14.4459	0.453
14.4868	0.459
14.5277	0.47
14.5686	0.477
14.6095	0.489
14.6503	0.494
14.6912	0.501
14.7321	0.506
14.773	0.51
14.8139	0.523
14.8548	0.529
14.8957	0.535
14.9366	0.551
14.9775	0.551
15.0184	0.52
15.0593	0.496
15.1002	0.5
15.1411	0.563
15.182	0.578
15.2229	0.578
15.2638	0.573
15.3046	0.568
15.3455	0.558
15.3864	0.549
15.4273	0.542
15.4682	0.527
15.5091	0.525
15.55	0.518
15.5909	0.515
15.6318	0.508
15.6727	0.498
15.7136	0.484
15.7545	0.476
15.7954	0.47
15.8363	0.448
15.8772	0.438
15.9181	0.421
15.959	0.409
