Infrared Spectrum: BUTANE, 2,3-DIBROMO-
Formula: C4 H8 Br2
CAS: 5408-86-6
State: LIQUID (NEAT)
Boiling point: 155-157 C
Class: COBLENTZ III
Instrument: BAIRD (GRATING)
Instrument parameters: NaCl PRISM
Sampling: TRANSMISSION
Path length: 0.005 CM
Resolution: 2
Origin: WYANDOTTE CHEMICALS CORP.
1/CM	TRANSMITTANCE
4000	0.9235
3991	0.9252
3982	0.927
3973	0.9288
3964	0.9305
3955	0.9317
3946	0.9328
3937	0.9342
3928	0.9354
3919	0.9366
3910	0.9378
3901	0.939
3892	0.9403
3883	0.9415
3874	0.9428
3865	0.9441
3856	0.9449
3847	0.9456
3838	0.9462
3829	0.9468
3820	0.9475
3811	0.9478
3802	0.9475
3793	0.9474
3784	0.9471
3775	0.9468
3766	0.9468
3757	0.9465
3748	0.9461
3739	0.9455
3730	0.9449
3721	0.9443
3712	0.9437
3703	0.943
3694	0.9423
3685	0.9417
3676	0.9411
3667	0.9404
3658	0.9398
3649	0.9391
3640	0.9385
3631	0.9378
3622	0.9374
3613	0.937
3604	0.9365
3595	0.936
3586	0.9356
3577	0.9351
3568	0.9346
3559	0.9342
3550	0.9337
3541	0.9332
3532	0.9328
3523	0.9323
3514	0.9318
3505	0.9315
3496	0.931
3487	0.9307
3478	0.9302
3469	0.9298
3460	0.9293
3451	0.929
3442	0.9285
3433	0.9281
3424	0.9275
3415	0.9271
3406	0.9264
3397	0.9257
3388	0.9249
3379	0.9235
3370	0.9213
3361	0.919
3352	0.9167
3343	0.9137
3334	0.9107
3325	0.9077
3316	0.9048
3307	0.9021
3298	0.8995
3289	0.8968
3280	0.8942
3271	0.8915
3262	0.889
3253	0.8865
3244	0.884
3235	0.8818
3226	0.8795
3217	0.8783
3208	0.8775
3199	0.878
3190	0.8785
3181	0.8802
3172	0.8823
3163	0.8837
3154	0.8846
3145	0.8853
3136	0.8857
3127	0.8858
3118	0.8841
3109	0.881
3100	0.8768
3091	0.8717
3082	0.8647
3073	0.8546
3064	0.8355
3055	0.8069
3046	0.789
3037	0.759
3028	0.7208
3019	0.6468
3010	0.5568
3001	0.4662
2992	0.375
2983	0.2833
2974	0.2061
2965	0.2223
2956	0.2737
2947	0.2845
2938	0.2522
2929	0.2213
2920	0.2635
2911	0.3584
2902	0.454
2893	0.5096
2884	0.5015
2875	0.4787
2866	0.4928
2857	0.5476
2848	0.6029
2839	0.6585
2830	0.7144
2821	0.7667
2812	0.8048
2803	0.8328
2794	0.8537
2785	0.8668
2776	0.8684
2767	0.8687
2758	0.8663
2749	0.8589
2740	0.8511
2731	0.8471
2722	0.8551
2713	0.8684
2704	0.8786
2695	0.8871
2686	0.8902
2677	0.8917
2668	0.8927
2659	0.8916
2650	0.8898
2641	0.8874
2632	0.8857
2623	0.8849
2614	0.8847
2605	0.8868
2596	0.8891
2587	0.8914
2578	0.894
2569	0.8963
2560	0.8968
2551	0.8975
2542	0.8977
2533	0.8958
2524	0.8938
2515	0.8914
2506	0.8891
2497	0.8868
2488	0.8846
2479	0.8846
2470	0.8861
2461	0.8871
2452	0.8875
2443	0.887
2434	0.8771
2425	0.8654
2416	0.8584
2407	0.8558
2398	0.8616
2389	0.8666
2380	0.868
2371	0.8682
2362	0.8678
2353	0.8677
2344	0.8696
2335	0.8725
2326	0.8743
2317	0.8742
2308	0.8739
2299	0.8734
2290	0.8774
2281	0.8838
2272	0.8884
2263	0.8895
2254	0.8893
2245	0.8893
2236	0.8895
2227	0.8907
2218	0.892
2209	0.8931
2200	0.894
2191	0.8951
2182	0.8961
2173	0.8971
2164	0.8982
2155	0.8994
2146	0.9005
2137	0.9017
2128	0.9027
2119	0.9032
2110	0.9038
2101	0.9043
2092	0.905
2083	0.9055
2074	0.9061
2065	0.9067
2056	0.9073
2047	0.908
2038	0.9086
2029	0.9089
2020	0.9089
2011	0.9089
2002	0.9087
1993	0.9082
1984	0.9075
1975	0.9071
1966	0.906
1957	0.9043
1948	0.902
1939	0.8998
1930	0.8975
1921	0.8978
1912	0.8981
1903	0.8985
1894	0.899
1885	0.8996
1876	0.9001
1867	0.9005
1858	0.9009
1849	0.9013
1840	0.9014
1831	0.9014
1822	0.9013
1813	0.901
1804	0.9002
1795	0.8989
1786	0.8971
1777	0.895
1768	0.8928
1759	0.8904
1750	0.886
1741	0.8807
1732	0.8721
1723	0.8728
1714	0.8728
1705	0.8688
1696	0.8587
1687	0.8501
1678	0.8461
1669	0.8483
1660	0.8568
1651	0.8627
1642	0.8618
1633	0.862
1624	0.8641
1615	0.8667
1606	0.8698
1597	0.871
1588	0.8712
1579	0.8698
1570	0.8617
1561	0.8528
1552	0.8482
1543	0.8452
1534	0.8427
1525	0.8371
1516	0.826
1507	0.7911
1498	0.7457
1489	0.6828
1480	0.479
1471	0.2721
1462	0.0903
1453	0.0349
1444	0.0775
1435	0.2857
1426	0.4975
1417	0.5823
1408	0.5765
1399	0.4619
1390	0.1357
1381	0.056
1372	0.3453
1363	0.5602
1354	0.5854
1345	0.6731
1336	0.6096
1327	0.3412
1318	0.581
1309	0.5004
1300	0.4569
1291	0.6108
1282	0.6758
1273	0.7108
1264	0.7415
1255	0.74
1246	0.6687
1237	0.4885
1228	0.218
1219	0.1428
1210	0.2434
1201	0.0794
1192	0.1606
1183	0.3306
1174	0.3764
1165	0.1112
1156	0.0402
1147	0.1719
1138	0.4638
1129	0.537
1120	0.6295
1111	0.5056
1102	0.0751
1093	0.5315
1084	0.6719
1075	0.4099
1066	0.317
1057	0.439
1048	0.2547
1039	0.3273
1030	0.6471
1021	0.5849
1012	0.1331
1003	0.2225
994	0.5708
985	0.4612
976	0.3013
967	0.333
958	0.1027
949	0.2261
940	0.5168
931	0.7442
922	0.6989
913	0.7767
904	0.7462
895	0.8245
886	0.8495
877	0.8412
868	0.8453
859	0.8402
850	0.7471
841	0.4297
832	0.7051
823	0.8034
814	0.8225
805	0.7353
796	0.7084
787	0.768
778	0.8358
769	0.8531
760	0.8605
751	0.8633
742	0.8536
733	0.8411
724	0.8387
715	0.8428
706	0.8497
697	0.8467
688	0.8357
679	0.8133
670	0.7953
661	0.7381
652	0.6506
643	0.5457
634	0.553
