Infrared Spectrum: 3,4-Diethoxybenzoic acid
Formula: C 11 H 14 O 4
CAS: 5409-31-4
State: gas
Origin: EPA-IR VAPOR PHASE LIBRARY
1/CM	ABSORBANCE
501.5	0.001586
513.074	0.002466
524.648	0.003306
536.222	0.003486
547.796	0.002696
559.37	0.002086
570.944	0.001896
582.518	0.002196
594.092	0.002946
605.666	0.004406
617.24	0.006646
628.814	0.004256
640.388	0.001456
651.962	0.0008675
663.536	0.0006359
675.11	0.0006767
686.684	0.0007291
698.258	0.001416
709.832	0.003546
721.406	0.002426
732.98	0.001816
744.554	0.002176
756.128	0.004596
767.702	0.006206
779.276	0.003086
790.85	0.001506
802.423	0.0011167
813.997	0.001256
825.571	0.001276
837.145	0.001346
848.719	0.0011968
860.293	0.0012256
871.867	0.001616
883.441	0.002126
895.015	0.002756
906.589	0.002946
918.163	0.002206
929.737	0.001996
941.311	0.002626
952.885	0.002886
964.459	0.002066
976.033	0.001316
987.607	0.001516
999.181	0.002076
1010.76	0.003686
1022.33	0.007656
1033.9	0.013096
1045.48	0.011546
1057.05	0.007106
1068.63	0.008756
1080.2	0.012626
1091.77	0.011316
1103.35	0.009346
1114.92	0.012196
1126.49	0.016296
1138.07	0.014776
1149.64	0.015126
1161.22	0.018876
1172.79	0.012966
1184.36	0.008156
1195.94	0.007856
1207.51	0.009316
1219.09	0.010026
1230.66	0.009256
1242.23	0.010286
1253.81	0.017896
1265.38	0.025906
1276.96	0.018886
1288.53	0.012186
1300.1	0.010136
1311.68	0.008296
1323.25	0.007336
1334.83	0.008536
1346.4	0.010906
1357.97	0.009016
1369.55	0.007136
1381.12	0.006766
1392.7	0.007306
1404.27	0.005796
1415.84	0.007076
1427.42	0.009086
1438.99	0.005256
1450.57	0.003086
1462.14	0.002856
1473.71	0.004166
1485.29	0.005456
1496.86	0.008646
1508.44	0.013086
1520.01	0.007096
1531.58	0.003126
1543.16	0.002236
1554.73	0.002156
1566.31	0.002886
1577.88	0.004496
1589.45	0.005876
1601.03	0.007716
1612.6	0.004126
1624.18	0.001686
1635.75	0.0011777
1647.32	0.0010438
1658.9	0.0009809
1670.47	0.0009747
1682.05	0.0010886
1693.62	0.001516
1705.19	0.002306
1716.77	0.002676
1728.34	0.003346
1739.92	0.009416
1751.49	0.037136
1763.06	0.026266
1774.64	0.004726
1786.21	0.002486
1797.79	0.002086
1809.36	0.001946
1820.93	0.0012117
1832.51	0.0007878
1844.08	0.0006522
1855.66	0.0006454
1867.23	0.0006928
1878.8	0.0007601
1890.38	0.0007486
1901.95	0.000685
1913.53	0.0006411
1925.1	0.0006264
1936.67	0.000538
1948.25	0.0005021
1959.82	0.0004699
1971.4	0.000467
1982.97	0.0004759
1994.54	0.0004729
2006.12	0.0005033
2017.69	0.0005045
2029.27	0.0005292
2040.84	0.0005118
2052.41	0.0004591
2063.99	0.0004402
2075.56	0.000414
2087.14	0.0004083
2098.71	0.000386
2110.28	0.0003716
2121.86	0.0003997
2133.43	0.0004069
2145.01	0.0003709
2156.58	0.0003692
2168.15	0.0003386
2179.73	0.00031283
2191.3	0.0002979
2202.88	0.00029576
2214.45	0.00032013
2226.02	0.00032288
2237.6	0.0003401
2249.17	0.0003457
2260.74	0.0003791
2272.32	0.0003707
2283.89	0.0003694
2295.47	0.0003581
2307.04	0.0003312
2318.61	0.0003446
2330.19	0.0003327
2341.76	0.00032158
2353.34	0.00032056
2364.91	0.00031781
2376.48	0.00031108
2388.06	0.0003504
2399.63	0.00032271
2411.21	0.0003866
2422.78	0.0003846
2434.35	0.0003779
2445.93	0.0003701
2457.5	0.0003876
2469.08	0.000347
2480.65	0.0003887
2492.22	0.0003455
2503.8	0.000359
2515.37	0.0004239
2526.95	0.0004449
2538.52	0.0004481
2550.09	0.0004632
2561.67	0.0004968
2573.24	0.0004916
2584.82	0.0004966
2596.39	0.0004713
2607.96	0.0004476
2619.54	0.0003985
2631.11	0.000375
2642.69	0.0003512
2654.26	0.0003284
2665.83	0.00029511
2677.41	0.00030724
2688.98	0.00031164
2700.56	0.0003697
2712.13	0.000379
2723.7	0.0004112
2735.28	0.0004665
2746.85	0.0004488
2758.43	0.0004869
2770	0.0005054
2781.57	0.000493
2793.15	0.0005281
2804.72	0.0005139
2816.3	0.0006219
2827.87	0.0007412
2839.44	0.0008566
2851.02	0.0010627
2862.59	0.001496
2874.17	0.002376
2885.74	0.003506
2897.31	0.003736
2908.89	0.003706
2920.46	0.003916
2932.04	0.004626
2943.61	0.005416
2955.18	0.004116
2966.76	0.004236
2978.33	0.006516
2989.91	0.007906
3001.48	0.004366
3013.05	0.002156
3024.63	0.001426
3036.2	0.0010551
3047.78	0.0008806
3059.35	0.000907
3070.92	0.0009463
3082.5	0.0010428
3094.07	0.0007871
3105.65	0.0005755
3117.22	0.0004624
3128.79	0.0003668
3140.37	0.0002589
3151.94	0.00024224
3163.52	0.00028889
3175.09	0.00027658
3186.66	0.00029241
3198.24	0.00023971
3209.81	0.0002111
3221.39	0.0001803
3232.96	0.0001487
3244.53	0.0001462
3256.11	0.000122
3267.68	0.0001304
3279.26	0.0001532
3290.83	0.00013
3302.4	0.00011
3313.98	0.0001691
3325.55	9.7e-05
3337.13	0.0001584
3348.7	0.0001787
3360.27	0.0001341
3371.85	0.000123
3383.42	0.0001562
3395	7.7e-05
3406.57	0.000118
3418.14	0.0001377
3429.72	0.0001322
3441.29	0.000112
3452.86	9.9e-05
3464.44	0.0001408
3476.01	0.0001775
3487.59	0.0003553
3499.16	0.0003565
3510.73	0.000233654
3522.31	0.00021708
3533.88	0.0001986
3545.46	0.000312
3557.03	0.0003817
3568.6	0.001406
3580.18	0.010156
3591.75	0.007826
3603.33	0.0008462
3614.9	0.0003436
3626.47	0.00024054
3638.05	0.00024455
3649.62	0.0001656
3661.2	0.0001521
3672.77	0.000102
3684.34	0.000178
3695.92	9e-05
3707.49	0.0001455
3719.07	0.0001689
3730.64	0.0001491
3742.21	0.000105
3753.79	0.0001622
3765.36	0.0001506
3776.94	0.0001966
3788.51	0.000102
3800.08	0.0001666
3811.66	0.000123
3823.23	8.7e-05
3834.81	0.0001321
3846.38	8.8e-05
3857.95	3.3e-05
3869.53	9.8e-05
3881.1	2.5e-05
3892.68	7e-06
3904.25	7.8e-05
3915.82	5.9e-05
3927.4	4.6e-05
3938.97	0.0001837
3950.55	5.3e-05
3962.12	0.000107
3973.69	6e-06
3985.27	0.000121
3996.84	0.0001299
