Infrared Spectrum: DECAMETHYLCYCLOPENTASILOXANE
Formula: C10 H30 O5 Si5
CAS: 541-02-6
State: SOLUTION (5% IN CCl4 FOR 3800-1270, 2% IN CS2 FOR 1270-625, AND 5% IN CCl4 FOR 625-210 CM^-^1)
Boiling point: 210 C
Class: COBLENTZ III
Instrument: PERKIN-ELMER 521 (GRATING)
Instrument parameters: FILTERS AT 3150, 2500, 2000, 1150, 700, 410. GRATING CHANGES: 2000, 630 CM^-^1
Sampling: TRANSMISSION
Path length: 0.011 CM, 0.011 CM, AND 0.020 CM
Resolution: 2
Origin: DOW CORNING CORP.
1/CM	TRANSMITTANCE
207.286	0.917
216.687	0.917
226.087	0.908
235.488	0.901
244.889	0.893
254.29	0.887
263.69	0.871
273.091	0.85
282.492	0.843
291.892	0.841
301.293	0.803
310.694	0.777
320.095	0.743
329.495	0.607
338.896	0.418
348.297	0.31
357.698	0.32
367.098	0.34
376.499	0.25
385.9	0.126
395.3	0.212
404.701	0.4841
414.102	0.726
423.503	0.834
432.903	0.878
442.304	0.891
451.705	0.896
461.105	0.891
470.506	0.869
479.907	0.837
489.308	0.841
498.708	0.85
508.109	0.845
517.51	0.795
526.911	0.711
536.311	0.725
545.712	0.803
555.113	0.842
564.513	0.861
573.914	0.864
583.315	0.862
592.716	0.847
602.116	0.795
611.517	0.76
620.918	0.799
630.318	0.898
639.719	0.898
649.12	0.898
658.521	0.886
667.921	0.813
677.322	0.838
686.723	0.819
696.124	0.675
705.524	0.786
714.925	0.891
724.326	0.899
733.726	0.901
743.127	0.901
752.528	0.897
761.929	0.865
771.329	0.829
780.73	0.663
790.131	0.416
799.531	0.2689
808.932	0.045
818.333	0.238
827.734	0.5631
837.134	0.704
846.535	0.737
855.936	0.712
865.336	0.775
874.737	0.795
884.138	0.869
893.539	0.919
902.939	0.95
912.34	0.956
921.741	0.966
931.142	0.966
940.542	0.964
949.943	0.962
959.344	0.953
968.744	0.953
978.145	0.931
987.546	0.918
996.947	0.885
1006.35	0.836
1015.75	0.778
1025.15	0.712
1034.55	0.595
1043.95	0.416
1053.35	0.2289
1062.75	0.073
1072.15	0.043
1081.55	0.043
1090.95	0.054
1100.35	0.094
1109.76	0.224
1119.16	0.375
1128.56	0.5541
1137.96	0.715
1147.36	0.796
1156.76	0.835
1166.16	0.876
1175.56	0.899
1184.96	0.92
1194.36	0.927
1203.76	0.933
1213.16	0.931
1222.56	0.919
1231.96	0.894
1241.37	0.84
1250.77	0.6329
1260.17	0.0512
1269.57	0.7352
1278.97	0.803
1288.37	0.803
1297.77	0.805
1307.17	0.805
1316.57	0.805
1325.97	0.805
1335.37	0.8
1344.77	0.796
1354.17	0.795
1363.57	0.796
1372.98	0.785
1382.38	0.761
1391.78	0.694
1401.18	0.618
1410.58	0.607
1419.98	0.724
1429.38	0.756
1438.78	0.746
1448.18	0.747
1457.58	0.806
1466.98	0.809
1476.38	0.81
1485.78	0.814
1495.18	0.819
1504.59	0.819
1513.99	0.815
1523.39	0.809
1532.79	0.805
1542.19	0.806
1551.59	0.815
1560.99	0.817
1570.39	0.816
1579.79	0.82
1589.19	0.821
1598.59	0.82
1607.99	0.819
1617.39	0.821
1626.79	0.827
1636.2	0.831
1645.6	0.836
1655	0.835
1664.4	0.833
1673.8	0.826
1683.2	0.824
1692.6	0.821
1702	0.822
1711.4	0.826
1720.8	0.835
1730.2	0.843
1739.6	0.842
1749	0.843
1758.41	0.844
1767.81	0.844
1777.21	0.842
1786.61	0.843
1796.01	0.848
1805.41	0.851
1814.81	0.858
1824.21	0.859
1833.61	0.858
1843.01	0.858
1852.41	0.858
1861.81	0.857
1871.21	0.856
1880.61	0.859
1890.02	0.861
1899.42	0.859
1908.82	0.857
1918.22	0.852
1927.62	0.844
1937.02	0.841
1946.42	0.842
1955.82	0.847
1965.22	0.851
1974.62	0.857
1984.02	0.859
1993.42	0.862
2002.82	0.8725
2012.22	0.876
2021.63	0.876
2031.03	0.8736
2040.43	0.8713
2049.83	0.8698
2059.23	0.871
2068.63	0.873
2078.03	0.875
2087.43	0.875
2096.83	0.876
2106.23	0.8803
2115.63	0.882
2125.03	0.8777
2134.43	0.8744
2143.83	0.875
2153.24	0.875
2162.64	0.876
2172.04	0.8786
2181.44	0.8812
2190.84	0.8813
2200.24	0.883
2209.64	0.8858
2219.04	0.885
2228.44	0.883
2237.84	0.883
2247.24	0.886
2256.64	0.8871
2266.04	0.889
2275.44	0.89
2284.85	0.891
2294.25	0.892
2303.65	0.8947
2313.05	0.897
2322.45	0.8965
2331.85	0.894
2341.25	0.894
2350.65	0.8941
2360.05	0.893
2369.45	0.891
2378.85	0.8892
2388.25	0.889
2397.65	0.8899
2407.05	0.892
2416.46	0.892
2425.86	0.8901
2435.26	0.8928
2444.66	0.891
2454.06	0.8907
2463.46	0.887
2472.86	0.886
2482.26	0.8841
2491.66	0.879
2501.06	0.8811
2510.46	0.884
2519.86	0.8847
2529.26	0.884
2538.66	0.8836
2548.07	0.884
2557.47	0.885
2566.87	0.883
2576.27	0.885
2585.67	0.885
2595.07	0.884
2604.47	0.883
2613.87	0.886
2623.27	0.884
2632.67	0.8826
2642.07	0.879
2651.47	0.8765
2660.87	0.8755
2670.27	0.8796
2679.68	0.8837
2689.08	0.88
2698.48	0.883
2707.88	0.8792
2717.28	0.8799
2726.68	0.878
2736.08	0.88
2745.48	0.8749
2754.88	0.871
2764.28	0.869
2773.68	0.8638
2783.08	0.8547
2792.48	0.8469
2801.89	0.843
2811.29	0.844
2820.69	0.8459
2830.09	0.8444
2839.49	0.8424
2848.89	0.8373
2858.29	0.833
2867.69	0.8228
2877.09	0.8096
2886.49	0.7894
2895.89	0.7511
2905.29	0.7283
2914.69	0.778
2924.09	0.7734
2933.5	0.7567
2942.9	0.6515
2952.3	0.5173
2961.7	0.2508
2971.1	0.3761
2980.5	0.6175
2989.9	0.7733
2999.3	0.8076
3008.7	0.8127
3018.1	0.814
3027.5	0.8104
3036.9	0.8033
3046.3	0.8029
3055.7	0.8138
3065.11	0.823
3074.51	0.826
3083.91	0.824
3093.31	0.8238
3102.71	0.8207
3112.11	0.8157
3121.51	0.814
3130.91	0.813
3140.31	0.814
3149.71	0.8165
3159.11	0.8206
3168.51	0.8267
3177.91	0.8331
3187.31	0.8448
3196.72	0.852
3206.12	0.8569
3215.52	0.8609
3224.92	0.869
3234.32	0.871
3243.72	0.873
3253.12	0.876
3262.52	0.878
3271.92	0.879
3281.32	0.88
3290.72	0.8824
3300.12	0.883
3309.52	0.883
3318.92	0.884
3328.33	0.885
3337.73	0.886
3347.13	0.886
3356.53	0.886
3365.93	0.8887
3375.33	0.8871
3384.73	0.887
3394.13	0.886
3403.53	0.887
3412.93	0.889
3422.33	0.89
3431.73	0.89
3441.13	0.89
3450.53	0.89
3459.94	0.89
3469.34	0.891
3478.74	0.891
3488.14	0.891
3497.54	0.892
3506.94	0.892
3516.34	0.8912
3525.74	0.891
3535.14	0.8901
3544.54	0.89
3553.94	0.89
3563.34	0.89
3572.74	0.89
3582.14	0.889
3591.55	0.889
3600.95	0.887
3610.35	0.889
3619.75	0.889
3629.15	0.8895
3638.55	0.8834
3647.95	0.8846
3657.35	0.8837
3666.75	0.8827
3676.15	0.8885
3685.55	0.879
3694.95	0.8724
3704.35	0.8719
3713.76	0.871
3723.16	0.8751
3732.56	0.877
3741.96	0.883
3751.36	0.8775
3760.76	0.8727
3770.16	0.873
