Infrared Spectrum: 3-Methylbutyramide
Formula: C 5 H 11 N O
CAS: 541-46-8
State: gas
Origin: EPA-IR VAPOR PHASE LIBRARY
1/CM	ABSORBANCE
549.8	0.001804
559.445	0.001954
569.09	0.002394
578.734	0.002994
588.379	0.003804
598.024	0.003894
607.669	0.004224
617.313	0.003604
626.958	0.003024
636.603	0.002324
646.248	0.001824
655.893	0.001724
665.537	0.001524
675.182	0.001734
684.827	0.001834
694.472	0.002074
704.116	0.002124
713.761	0.002804
723.406	0.003634
733.051	0.004004
742.695	0.004054
752.34	0.003804
761.985	0.003774
771.63	0.003644
781.275	0.003364
790.919	0.002914
800.564	0.002394
810.209	0.002454
819.854	0.002034
829.498	0.002424
839.143	0.002344
848.788	0.002454
858.433	0.002784
868.078	0.002674
877.722	0.002404
887.367	0.002174
897.012	0.002214
906.657	0.002024
916.301	0.001734
925.946	0.001764
935.591	0.001644
945.236	0.001534
954.88	0.001634
964.525	0.001444
974.17	0.0011089
983.815	0.001294
993.46	0.001164
1003.1	0.0011208
1012.75	0.0010157
1022.39	0.001194
1032.04	0.001804
1041.68	0.001744
1051.33	0.002724
1060.97	0.002254
1070.62	0.002064
1080.26	0.001534
1089.91	0.001174
1099.55	0.001334
1109.2	0.0009599
1118.84	0.0010345
1128.49	0.000906
1138.13	0.0007375
1147.78	0.001304
1157.42	0.002284
1167.07	0.003374
1176.71	0.003004
1186.36	0.002664
1196	0.002704
1205.64	0.003294
1215.29	0.003984
1224.93	0.004314
1234.58	0.004394
1244.22	0.004664
1253.87	0.005014
1263.51	0.004584
1273.16	0.004254
1282.8	0.004424
1292.45	0.005764
1302.09	0.007814
1311.74	0.009714
1321.38	0.010374
1331.03	0.009934
1340.67	0.010064
1350.32	0.011594
1359.96	0.013784
1369.61	0.015124
1379.25	0.013474
1388.9	0.008574
1398.54	0.004754
1408.18	0.003074
1417.83	0.002784
1427.47	0.002874
1437.12	0.003144
1446.76	0.003384
1456.41	0.003754
1466.05	0.004064
1475.7	0.003504
1485.34	0.002604
1494.99	0.001734
1504.63	0.001194
1514.28	0.0009697
1523.92	0.0010099
1533.57	0.001194
1543.21	0.001644
1552.86	0.002534
1562.5	0.004654
1572.15	0.009614
1581.79	0.014424
1591.44	0.015234
1601.08	0.010884
1610.73	0.006134
1620.37	0.003834
1630.01	0.002744
1639.66	0.002324
1649.3	0.002324
1658.95	0.002754
1668.59	0.003824
1678.24	0.005644
1687.88	0.008934
1697.53	0.014494
1707.17	0.023264
1716.82	0.035024
1726.46	0.044304
1736.11	0.043964
1745.75	0.032814
1755.4	0.018574
1765.04	0.009114
1774.69	0.004714
1784.33	0.002644
1793.98	0.001674
1803.62	0.001254
1813.27	0.0009903
1822.91	0.0008197
1832.55	0.0006622
1842.2	0.0006379
1851.84	0.0005583
1861.49	0.000557
1871.13	0.0004696
1880.78	0.0005358
1890.42	0.0004809
1900.07	0.0004313
1909.71	0.0004286
1919.36	0.0003976
1929	0.0004085
1938.65	0.0003776
1948.29	0.0003024
1957.94	0.0003171
1967.58	0.0003133
1977.23	0.0003413
1986.87	0.0002561
1996.52	0.0002943
2006.16	0.0003127
2015.81	0.0002642
2025.45	0.00022032
2035.1	0.0002958
2044.74	0.0002849
2054.38	0.0002587
2064.03	0.0002777
2073.67	0.0002333
2083.32	0.0002733
2092.96	0.0002789
2102.61	0.0002867
2112.25	0.0002436
2121.9	0.0002523
2131.54	0.0002904
2141.19	0.00018936
2150.83	0.00021159
2160.48	0.000243
2170.12	0.0003512
2179.77	0.0003136
2189.41	0.0003864
2199.06	0.0002775
2208.7	0.0002862
2218.35	0.0003421
2227.99	0.0003047
2237.64	0.0003172
2247.28	0.0003265
2256.92	0.0002891
2266.57	0.0002471
2276.21	0.0003247
2285.86	0.0003389
2295.5	0.0003268
2305.15	0.0002448
2314.79	0.0003397
2324.44	0.0003152
2334.08	0.0003103
2343.73	0.0003029
2353.37	0.00020063
2363.02	0.0002772
2372.66	0.00021934
2382.31	0.0003534
2391.95	0.0003281
2401.6	0.0003539
2411.24	0.0002923
2420.89	0.0002486
2430.53	0.0003054
2440.18	0.000296
2449.82	0.0002701
2459.47	0.0003345
2469.11	0.0002333
2478.75	0.000306
2488.4	0.00020978
2498.04	0.0003237
2507.69	0.0002367
2517.33	0.00020103
2526.98	0.0003107
2536.62	0.0003032
2546.27	0.0003759
2555.91	0.0003202
2565.56	0.0003677
2575.2	0.0002492
2584.85	0.0003805
2594.49	0.0003149
2604.14	0.0003231
2613.78	0.0003592
2623.43	0.0003515
2633.07	0.0004638
2642.72	0.0005656
2652.36	0.0004152
2662.01	0.0003951
2671.65	0.0004014
2681.29	0.0005077
2690.94	0.0004227
2700.58	0.0004397
2710.23	0.0005721
2719.87	0.0005803
2729.52	0.0007789
2739.16	0.0007431
2748.81	0.0006841
2758.45	0.0005779
2768.1	0.0006285
2777.74	0.0007976
2787.39	0.0008917
2797.03	0.0009205
2806.68	0.0010244
2816.32	0.001164
2825.97	0.001494
2835.61	0.001764
2845.26	0.002264
2854.9	0.002884
2864.55	0.004524
2874.19	0.007114
2883.84	0.008664
2893.48	0.009424
2903.12	0.009684
2912.77	0.010284
2922.41	0.011434
2932.06	0.012954
2941.7	0.014784
2951.35	0.018044
2960.99	0.023004
2970.64	0.022674
2980.28	0.016174
2989.93	0.007904
2999.57	0.003404
3009.22	0.001684
3018.86	0.001154
3028.51	0.0009435
3038.15	0.0008335
3047.8	0.0007626
3057.44	0.0008466
3067.09	0.0008055
3076.73	0.0005708
3086.38	0.0007788
3096.02	0.0006205
3105.67	0.0008046
3115.31	0.000568
3124.95	0.0005136
3134.6	0.0006981
3144.24	0.0006777
3153.89	0.0006799
3163.53	0.0006955
3173.18	0.0006293
3182.82	0.0008208
3192.47	0.00076
3202.11	0.00058
3211.76	0.0005248
3221.4	0.0004596
3231.05	0.0003719
3240.69	0.0002375
3250.34	0.00020731
3259.98	0.0003147
3269.63	0.0002577
3279.27	0.0003642
3288.92	0.00022164
3298.56	0.0004513
3308.21	0.0003648
3317.85	0.0003988
3327.49	0.0004017
3337.14	0.0003186
3346.78	0.0004944
3356.43	0.0003056
3366.07	0.0003536
3375.72	0.0005324
3385.36	0.0009712
3395.01	0.001394
3404.65	0.002114
3414.3	0.002904
3423.94	0.003804
3433.59	0.004684
3443.23	0.004004
3452.88	0.002494
3462.52	0.001374
3472.17	0.0008595
3481.81	0.0009249
3491.46	0.0008727
3501.1	0.001264
3510.75	0.001644
3520.39	0.002074
3530.04	0.002564
3539.68	0.002754
3549.32	0.003524
3558.97	0.003844
3568.61	0.003124
3578.26	0.001444
3587.9	0.0006081
3597.55	0.0003066
3607.19	0.0003094
3616.84	0.00019469
3626.48	0.0002925
3636.13	0.00019248
3645.77	3.15e-05
3655.42	0.0001058
3665.06	0.0002676
3674.71	0.000125602
3684.35	0.000130892
3694	0.0002896
3703.64	0.0002455
3713.29	0.0002472
3722.93	0.000131871
3732.58	6.76e-05
3742.22	0.00016976
3751.86	0.00020419
3761.51	0.00020518
3771.15	0.00015651
3780.8	0.0004464
3790.44	0.00012225
3800.09	7.67e-05
3809.73	0.0002356
3819.38	0.00015287
3829.02	0.00017024
3838.67	0.00020708
3848.31	0.00018627
3857.96	0.0002638
3867.6	0.00022171
3877.25	0.0001124
3886.89	0.00020015
3896.54	0.0002359
3906.18	0.0002836
3915.83	0.00017174
3925.47	0.000127447
3935.12	0.000126802
3944.76	0.00020397
3954.41	0.000249
3964.05	0.00018982
3973.69	0.0004068
3983.34	0.00017829
3992.98	0.0002759
