Infrared Spectrum: AMMONIUM COMPOUNDS, SUBSTITUTED: FURFURYLTRIMETHYL-, IODIDE
Formula: C8 H14 I N O
CAS: 541-64-0
State: SOLID (NUJOL MULL)
Class: COBLENTZ III
Instrument: PERKIN-ELMER 21 (GRATING)
Instrument parameters: NaCl PRISM
Sampling: TRANSMISSION
Resolution: 2
Origin: SMITH, KLINE & FRENCH
MICROMETERS	TRANSMITTANCE
2.002	0.19
2.03606	0.19
2.07013	0.193
2.10419	0.195
2.13826	0.199
2.17232	0.203
2.20638	0.205
2.24045	0.208
2.27451	0.206
2.30858	0.204
2.34264	0.203
2.3767	0.203
2.41077	0.209
2.44483	0.212
2.4789	0.216
2.51296	0.221
2.54703	0.223
2.58109	0.227
2.61515	0.231
2.64922	0.238
2.68328	0.238
2.71735	0.238
2.75141	0.238
2.78547	0.239
2.81954	0.243
2.8536	0.245
2.88767	0.249
2.92173	0.25
2.95579	0.251
2.98986	0.255
3.02392	0.257
3.05799	0.262
3.09205	0.27
3.12611	0.273
3.16018	0.274
3.19424	0.283
3.22831	0.283
3.26237	0.249
3.29643	0.238
3.3305	0.233
3.36456	0.186
3.39863	0.126
3.43269	0.065
3.46676	0.054
3.50082	0.053
3.53488	0.048
3.56895	0.147
3.60301	0.326
3.63708	0.429
3.67114	0.441
3.7052	0.444
3.73927	0.446
3.77333	0.448
3.8074	0.451
3.84146	0.458
3.87552	0.467
3.90959	0.475
3.94365	0.485
3.97772	0.489
4.01178	0.492
4.04584	0.498
4.07991	0.508
4.11397	0.515
4.14804	0.52
4.1821	0.521
4.21616	0.521
4.25023	0.521
4.28429	0.519
4.31836	0.52
4.35242	0.529
4.38649	0.549
4.42055	0.571
4.45461	0.579
4.48868	0.581
4.52274	0.585
4.55681	0.597
4.59087	0.602
4.62493	0.614
4.659	0.618
4.69306	0.618
4.72713	0.622
4.76119	0.628
4.79525	0.63
4.82932	0.636
4.86338	0.639
4.89745	0.648
4.93151	0.65
4.96557	0.658
4.99964	0.661
5.0337	0.663
5.06777	0.667
5.10183	0.672
5.13589	0.678
5.16996	0.683
5.20402	0.682
5.23809	0.684
5.27215	0.689
5.30622	0.692
5.34028	0.697
5.37434	0.704
5.40841	0.711
5.44247	0.717
5.47654	0.715
5.5106	0.715
5.54466	0.71
5.57873	0.704
5.61279	0.692
5.64686	0.681
5.68092	0.682
5.71498	0.687
5.74905	0.688
5.78311	0.687
5.81718	0.687
5.85124	0.688
5.8853	0.687
5.91937	0.68
5.95343	0.684
5.9875	0.69
6.02156	0.693
6.05563	0.694
6.08969	0.697
6.12375	0.711
6.15782	0.723
6.19188	0.729
6.22595	0.722
6.26001	0.684
6.29407	0.677
6.32814	0.688
6.3622	0.723
6.39627	0.722
6.43033	0.723
6.46439	0.728
6.49846	0.728
6.53252	0.722
6.56659	0.701
6.60065	0.699
6.63471	0.698
6.66878	0.583
6.70284	0.389
6.73691	0.317
6.77097	0.249
6.80503	0.209
6.8391	0.113
6.87316	0.102
6.90723	0.173
6.94129	0.266
6.97536	0.395
7.00942	0.538
7.04348	0.59
7.07755	0.457
7.11161	0.555
7.14568	0.652
7.17974	0.636
7.2138	0.571
7.24787	0.322
7.28193	0.227
7.316	0.402
7.35006	0.501
7.38412	0.582
7.41819	0.572
7.45225	0.565
7.48632	0.61
7.52038	0.669
7.55444	0.697
7.58851	0.711
7.62257	0.714
7.65664	0.712
7.6907	0.714
7.72476	0.715
7.75883	0.722
7.79289	0.731
7.82696	0.725
7.86102	0.703
7.89509	0.683
7.92915	0.697
7.96321	0.704
7.99728	0.647
8.03134	0.627
8.06541	0.669
8.09947	0.626
8.13353	0.515
8.1676	0.604
8.20166	0.684
8.23573	0.709
8.26979	0.714
8.30385	0.694
8.33792	0.572
8.37198	0.546
8.40605	0.614
8.44011	0.694
8.47417	0.745
8.50824	0.761
8.5423	0.771
8.57637	0.777
8.61043	0.776
8.64449	0.503
8.67856	0.343
8.71262	0.507
8.74669	0.658
8.78075	0.69
8.81482	0.706
8.84888	0.744
8.88294	0.778
8.91701	0.773
8.95107	0.753
8.98514	0.772
9.0192	0.801
9.05326	0.806
9.08733	0.827
9.12139	0.834
9.15546	0.841
9.18952	0.839
9.22358	0.799
9.25765	0.721
9.29171	0.66
9.32578	0.592
9.35984	0.624
9.3939	0.749
9.42797	0.773
9.46203	0.801
9.4961	0.823
9.53016	0.828
9.56422	0.83
9.59829	0.838
9.63235	0.841
9.66642	0.84
9.70048	0.823
9.73455	0.801
9.76861	0.727
9.80267	0.538
9.83674	0.472
9.8708	0.457
9.90487	0.622
9.93893	0.755
9.97299	0.79
10.0071	0.801
10.0411	0.787
10.0752	0.663
10.1093	0.401
10.1433	0.403
10.1774	0.53
10.2114	0.548
10.2455	0.507
10.2796	0.482
10.3136	0.545
10.3477	0.673
10.3818	0.738
10.4158	0.773
10.4499	0.796
10.484	0.8
10.518	0.783
10.5521	0.633
10.5861	0.296
10.6202	0.203
10.6543	0.394
10.6883	0.587
10.7224	0.699
10.7565	0.746
10.7905	0.763
10.8246	0.787
10.8587	0.804
10.8927	0.821
10.9268	0.824
10.9609	0.824
10.9949	0.817
11.029	0.768
11.063	0.77
11.0971	0.781
11.1312	0.772
11.1652	0.711
11.1993	0.583
11.2334	0.408
11.2674	0.284
11.3015	0.257
11.3356	0.257
11.3696	0.236
11.4037	0.295
11.4377	0.436
11.4718	0.555
11.5059	0.656
11.5399	0.689
11.574	0.732
11.6081	0.773
11.6421	0.785
11.6762	0.8
11.7103	0.813
11.7443	0.824
11.7784	0.833
11.8125	0.841
11.8465	0.847
11.8806	0.852
11.9146	0.852
11.9487	0.851
11.9828	0.781
12.0168	0.648
12.0509	0.616
12.085	0.68
12.119	0.733
12.1531	0.742
12.1872	0.665
12.2212	0.619
12.2553	0.649
12.2894	0.749
12.3234	0.793
12.3575	0.822
12.3915	0.833
12.4256	0.847
12.4597	0.857
12.4937	0.866
12.5278	0.866
12.5619	0.868
12.5959	0.874
12.63	0.877
12.6641	0.88
12.6981	0.872
12.7322	0.868
12.7662	0.852
12.8003	0.817
12.8344	0.777
12.8684	0.715
12.9025	0.615
12.9366	0.445
12.9706	0.363
13.0047	0.361
13.0388	0.397
13.0728	0.422
13.1069	0.428
13.141	0.424
13.175	0.407
13.2091	0.391
13.2431	0.369
13.2772	0.368
13.3113	0.412
13.3453	0.458
13.3794	0.475
13.4135	0.389
13.4475	0.274
13.4816	0.227
13.5157	0.25
13.5497	0.412
13.5838	0.482
13.6178	0.56
13.6519	0.604
13.686	0.645
13.72	0.661
13.7541	0.667
13.7882	0.672
13.8222	0.669
13.8563	0.658
13.8904	0.643
13.9244	0.655
13.9585	0.694
13.9926	0.715
14.0266	0.74
14.0607	0.755
14.0947	0.772
14.1288	0.785
14.1629	0.794
14.1969	0.801
14.231	0.806
14.2651	0.812
14.2991	0.817
14.3332	0.835
14.3673	0.838
14.4013	0.845
14.4354	0.854
14.4695	0.857
14.5035	0.86
14.5376	0.864
14.5716	0.861
14.6057	0.858
14.6398	0.856
14.6738	0.855
14.7079	0.85
14.742	0.849
14.776	0.846
14.8101	0.844
14.8442	0.843
14.8782	0.841
14.9123	0.835
14.9463	0.828
14.9804	0.824
15.0145	0.821
15.0485	0.821
15.0826	0.819
15.1167	0.811
15.1507	0.805
15.1848	0.802
15.2189	0.801
15.2529	0.8
15.287	0.798
15.3211	0.793
15.3551	0.787
15.3892	0.779
15.4232	0.772
15.4573	0.771
15.4914	0.766
15.5254	0.761
15.5595	0.754
