Infrared Spectrum: Hexamethylcyclotrisiloxane
Formula: C 6 H 18 O 3 Si 3
CAS: 541-05-9
State: gas
Origin: EPA-IR VAPOR PHASE LIBRARY
1/CM	ABSORBANCE
501.5	0.0009156
513.074	0.0009071
524.648	0.0007409
536.222	0.0009586
547.796	0.0008951
559.37	0.0011815
570.944	0.002088
582.518	0.003178
594.092	0.008298
605.666	0.019978
617.24	0.015788
628.814	0.006748
640.388	0.003918
651.962	0.003988
663.536	0.004328
675.11	0.005358
686.684	0.006128
698.258	0.005008
709.832	0.004578
721.406	0.005258
732.98	0.006558
744.554	0.008498
756.128	0.009088
767.702	0.009488
779.276	0.013058
790.85	0.024858
802.423	0.063538
813.997	0.142728
825.571	0.102988
837.145	0.048868
848.719	0.029718
860.293	0.018028
871.867	0.013348
883.441	0.010988
895.015	0.008158
906.589	0.006628
918.163	0.007208
929.737	0.007428
941.311	0.007538
952.885	0.008198
964.459	0.008278
976.033	0.010958
987.607	0.025888
999.181	0.095478
1010.76	0.298978
1022.33	0.476408
1033.9	0.297548
1045.48	0.066968
1057.05	0.023718
1068.63	0.014158
1080.2	0.010478
1091.77	0.009288
1103.35	0.008498
1114.92	0.007988
1126.49	0.007218
1138.07	0.005148
1149.64	0.003798
1161.22	0.002598
1172.79	0.002028
1184.36	0.002218
1195.94	0.002558
1207.51	0.003428
1219.09	0.004818
1230.66	0.007088
1242.23	0.014658
1253.81	0.048148
1265.38	0.092368
1276.96	0.036608
1288.53	0.011218
1300.1	0.006998
1311.68	0.004438
1323.25	0.003048
1334.83	0.002468
1346.4	0.002108
1357.97	0.001978
1369.55	0.002108
1381.12	0.002358
1392.7	0.003238
1404.27	0.003908
1415.84	0.003488
1427.42	0.002718
1438.99	0.002508
1450.57	0.002448
1462.14	0.001988
1473.71	0.001828
1485.29	0.001668
1496.86	0.001418
1508.44	0.001368
1520.01	0.001478
1531.58	0.001888
1543.16	0.002538
1554.73	0.002638
1566.31	0.001848
1577.88	0.001368
1589.45	0.001748
1601.03	0.002978
1612.6	0.003578
1624.18	0.002898
1635.75	0.002258
1647.32	0.001368
1658.9	0.0008738
1670.47	0.0007617
1682.05	0.000766
1693.62	0.0008955
1705.19	0.0010762
1716.77	0.0011035
1728.34	0.0009449
1739.92	0.0008922
1751.49	0.0007612
1763.06	0.0005737
1774.64	0.0004708
1786.21	0.0004281
1797.79	0.000441
1809.36	0.00053
1820.93	0.0006354
1832.51	0.0006319
1844.08	0.0005949
1855.66	0.0006343
1867.23	0.0006991
1878.8	0.0006641
1890.38	0.000582
1901.95	0.0005775
1913.53	0.0005849
1925.1	0.0006286
1936.67	0.0007614
1948.25	0.0008922
1959.82	0.0007242
1971.4	0.0005993
1982.97	0.0005322
1994.54	0.0004915
2006.12	0.00039904
2017.69	0.000319601
2029.27	0.00033391
2040.84	0.00040553
2052.41	0.0005671
2063.99	0.0005491
2075.56	0.0004924
2087.14	0.0004715
2098.71	0.0004159
2110.28	0.00035101
2121.86	0.000319277
2133.43	0.0003607
2145.01	0.00036611
2156.58	0.00033249
2168.15	0.0002916
2179.73	0.0002906
2191.3	0.0002384
2202.88	0.0002249
2214.45	0.000196
2226.02	0.000218
2237.6	0.000211
2249.17	0.000178
2260.74	0.000172
2272.32	0.000155
2283.89	0.000135
2295.47	0.000154
2307.04	0.000114
2318.61	0.000132
2330.19	9.7e-05
2341.76	0.00013
2353.34	6e-05
2364.91	0.000108
2376.48	5.3e-05
2388.06	9.4e-05
2399.63	3.8e-05
2411.21	5e-05
2422.78	6.7e-05
2434.35	5.9e-05
2445.93	4.5e-05
2457.5	4.6e-05
2469.08	5.5e-05
2480.65	0.000121
2492.22	0.000127
2503.8	0.000206
2515.37	0.000167
2526.95	8.1e-05
2538.52	0
2550.09	3.3e-05
2561.67	4.8e-05
2573.24	1.9e-05
2584.82	4.2e-05
2596.39	4.1e-05
2607.96	5.2e-05
2619.54	5.3e-05
2631.11	4.6e-05
2642.69	0.000114
2654.26	0.000105
2665.83	0.00017
2677.41	0.000138
2688.98	0.000141
2700.56	0.000156
2712.13	0.000126
2723.7	0.00011
2735.28	0.000178
2746.85	0.0002349
2758.43	0.0003621
2770	0.0004378
2781.57	0.0005652
2793.15	0.0007899
2804.72	0.0010158
2816.3	0.0012021
2827.87	0.001408
2839.44	0.001478
2851.02	0.001658
2862.59	0.001998
2874.17	0.002388
2885.74	0.002748
2897.31	0.003898
2908.89	0.005788
2920.46	0.004788
2932.04	0.003738
2943.61	0.004428
2955.18	0.010528
2966.76	0.031058
2978.33	0.022738
2989.91	0.005748
3001.48	0.003028
3013.05	0.002458
3024.63	0.002108
3036.2	0.002228
3047.78	0.002518
3059.35	0.002958
3070.92	0.002948
3082.5	0.002538
3094.07	0.002268
3105.65	0.002008
3117.22	0.001598
3128.79	0.0009565
3140.37	0.0006662
3151.94	0.0006716
3163.52	0.0006121
3175.09	0.000585
3186.66	0.00036228
3198.24	0.0002761
3209.81	0.0002449
3221.39	0.000263
3232.96	0.0002914
3244.53	0.0002565
3256.11	0.000216
3267.68	0.000214
3279.26	0.0002856
3290.83	0.0002839
3302.4	0.0003147
3313.98	0.000231
3325.55	0.000193
3337.13	0.000149
3348.7	0.000143
3360.27	0.000218
3371.85	0.000202
3383.42	0.000162
3395	0.000146
3406.57	0.000124
3418.14	0.000158
3429.72	0.000139
3441.29	5.3e-05
3452.86	0.00015
3464.44	0.000155
3476.01	0.0002232
3487.59	0.0002368
3499.16	0.0002198
3510.73	0.000183
3522.31	0.0002456
3533.88	0.0002848
3545.46	0.0002276
3557.03	0.0002552
3568.6	0.00034876
3580.18	0.0004773
3591.75	0.0005259
3603.33	0.0004699
3614.9	0.0004729
3626.47	0.0005309
3638.05	0.0005978
3649.62	0.000642
3661.2	0.0006644
3672.77	0.0005483
3684.34	0.0006436
3695.92	0.0006991
3707.49	0.0008481
3719.07	0.0008069
3730.64	0.0007746
3742.21	0.0007045
3753.79	0.0007445
3765.36	0.000665
3776.94	0.0006467
3788.51	0.0005612
3800.08	0.0005645
3811.66	0.0004455
3823.23	0.00034824
3834.81	0.000286
3846.38	0.00033324
3857.95	0.00031275
3869.53	0.0002908
3881.1	0.0002893
3892.68	0.00037966
3904.25	0.0002531
3915.82	0.0002755
3927.4	0.0003074
3938.97	0.0002752
3950.55	0.000226
3962.12	0.0002294
3973.69	0.0002186
3985.27	0.00036169
3996.84	0.0002484
