Infrared Spectrum: (2-Methylbutyl)cyclohexane
Formula: C 11 H 22
CAS: 54105-77-0
State: gas
Instrument: HP-GC/MS/IRD
Origin: NIST Mass Spectrometry Data Center
1/CM	ABSORBANCE
550	0.0001825
562	0.0002117
574	0.0001314
586	0.0001679
598	0.0001387
610	0.0001606
622	0.0001314
634	5.84e-05
646	0.0001095
658	0.0001825
670	0.0001533
682	0.0001168
694	0.0001314
706	0.0001241
718	0.0001679
730	0.0001095
742	0.0001314
754	0.0002117
766	0.0004088
778	0.0004526
790	0.0002628
802	0.0002117
814	0.0002263
826	0.0002555
838	0.0006132
850	0.0004599
862	0.0002628
874	0.0003285
886	0.0006132
898	0.0007154
910	0.0005256
922	0.0004015
934	0.0003212
946	0.0003723
958	0.000657
970	0.0010585
982	0.0009344
994	0.0007081
1006	0.0006059
1018	0.0005621
1030	0.0004526
1042	0.0002774
1054	0.0002555
1066	0.0002482
1078	0.0003139
1090	0.0002993
1102	0.0003212
1114	0.0003431
1126	0.0003431
1138	0.0004818
1150	0.0006497
1162	0.0005037
1174	0.0002774
1186	0.0002774
1198	0.0002482
1210	0.0002628
1222	0.0003504
1234	0.0003577
1246	0.0005402
1258	0.0009709
1270	0.0011315
1282	0.0008103
1294	0.0006132
1306	0.0005767
1318	0.0006059
1330	0.0008103
1342	0.0011242
1354	0.0013578
1366	0.0016863
1378	0.0027813
1390	0.0023068
1402	0.0009928
1414	0.0008103
1426	0.0010731
1438	0.0027302
1450	0.0060882
1462	0.0061393
1474	0.0033872
1486	0.0013067
1498	0.0006497
1510	0.0003723
1522	0.0002628
1534	0.000219
1546	0.0001971
1558	0.0001679
1570	0.0001825
1582	0.0001971
1594	0.0001314
1606	0.0001168
1618	0.0001022
1630	0.0001387
1642	0.0001241
1654	0.0001022
1666	0.0001168
1678	9.49e-05
1690	9.49e-05
1702	8.03e-05
1714	5.11e-05
1726	5.84e-05
1738	5.11e-05
1750	3.65e-05
1762	5.11e-05
1774	4.38e-05
1786	5.11e-05
1798	5.11e-05
1810	5.11e-05
1822	3.65e-05
1834	4.38e-05
1846	2.92e-05
1858	2.19e-05
1870	2.19e-05
1882	2.92e-05
1894	2.92e-05
1906	5.11e-05
1918	3.65e-05
1930	2.92e-05
1942	2.19e-05
1954	2.19e-05
1966	2.19e-05
1978	7.3e-06
1990	7.3e-06
2002	1.46e-05
2014	1.46e-05
2026	1.46e-05
2038	1.46e-05
2050	1.46e-05
2062	3.65e-05
2074	1.46e-05
2086	1.46e-05
2098	7.3e-06
2110	2.19e-05
2122	5.84e-05
2134	8.76e-05
2146	5.84e-05
2158	8.03e-05
2170	7.3e-05
2182	5.84e-05
2194	6.57e-05
2206	5.84e-05
2218	6.57e-05
2230	6.57e-05
2242	7.3e-05
2254	6.57e-05
2266	5.11e-05
2278	7.3e-05
2290	8.03e-05
2302	6.57e-05
2314	6.57e-05
2326	5.84e-05
2338	9.49e-05
2350	9.49e-05
2362	0.0001241
2374	0.000146
2386	0.0001241
2398	9.49e-05
2410	0.0001314
2422	0.0001387
2434	0.0001387
2446	0.0001095
2458	0.0001095
2470	0.0001314
2482	0.0001314
2494	0.0001387
2506	0.0001387
2518	0.000146
2530	0.0001898
2542	0.0001898
2554	0.000219
2566	0.0002847
2578	0.000365
2590	0.000438
2602	0.0004818
2614	0.0005402
2626	0.0005402
2638	0.0005986
2650	0.0007446
2662	0.0009198
2674	0.0009052
2686	0.0007446
2698	0.0007373
2710	0.0007373
2722	0.0007665
2734	0.0007665
2746	0.000803
2758	0.0008322
2770	0.0009855
2782	0.0012629
2794	0.0016498
2806	0.0020075
2818	0.0025915
2830	0.0040661
2842	0.0092929
2854	0.0205933
2866	0.023506
2878	0.0178558
2890	0.0188194
2902	0.0264114
2914	0.0426758
2926	0.0674739
2938	0.0656708
2950	0.0320324
2962	0.0259296
2974	0.0216591
2986	0.008103
2998	0.0035478
3010	0.0021681
3022	0.0016133
3034	0.0013432
3046	0.0011753
3058	0.0010147
3070	0.0009052
3082	0.0008395
3094	0.0007592
3106	0.0006716
3118	0.000584
3130	0.0005329
3142	0.0005694
3154	0.0005621
3166	0.0004964
3178	0.0004599
3190	0.0003723
3202	0.0002628
3214	0.0002628
3226	0.0002409
3238	0.0002263
3250	0.0001898
3262	0.0001898
3274	0.0001752
3286	0.0001606
3298	0.0001679
3310	0.0001241
3322	0.0001533
3334	0.0001679
3346	0.0001825
3358	0.0001898
3370	0.0001971
3382	0.0001825
3394	0.0001679
3406	0.0001752
3418	0.0001679
3430	0.0001387
3442	0.0001241
3454	0.0001095
3466	0.0001241
3478	0.0001387
3490	0.0001314
3502	0.0001533
3514	0.000146
3526	0.000146
3538	0.0001241
3550	8.03e-05
3562	8.03e-05
3574	0.0001241
3586	8.76e-05
3598	0.0001606
3610	8.03e-05
3622	0.000146
3634	0.0001168
3646	0.0001606
3658	0.0001825
3670	0.0001752
3682	0.0001825
3694	0.0001825
3706	0.0002117
3718	0.000219
3730	0.0001898
3742	0.0002117
3754	0.0002044
3766	0.0001898
3778	0.0001752
3790	0.0001971
3802	0.000219
3814	0.000219
3826	0.0002117
3838	0.0001971
