Infrared Spectrum: Ethyl N,N-diethyloxamate
Formula: C 8 H 15 N O 3
CAS: 5411-58-5
State: gas
Origin: EPA-IR VAPOR PHASE LIBRARY
1/CM	ABSORBANCE
549.8	0.0005196
559.445	0.0001201
569.09	3.9738e-05
578.734	0.0002005
588.379	8.625e-05
598.024	0.0005067
607.669	0.0008197
617.313	0.0010701
626.958	0.0014901
636.603	0.0020601
646.248	0.0025501
655.893	0.0020701
665.537	0.0017601
675.182	0.0016201
684.827	0.0020101
694.472	0.0023101
704.116	0.0028201
713.761	0.0034201
723.406	0.0047101
733.051	0.0056101
742.695	0.0060401
752.34	0.0067701
761.985	0.0063201
771.63	0.0059901
781.275	0.0077201
790.919	0.0096601
800.564	0.0080501
810.209	0.0056001
819.854	0.0049601
829.498	0.0053101
839.143	0.0037501
848.788	0.0024401
858.433	0.0029301
868.078	0.0036901
877.722	0.0027301
887.367	0.0018401
897.012	0.0030701
906.657	0.0051401
916.301	0.0042001
925.946	0.0025401
935.591	0.0029901
945.236	0.0036701
954.88	0.0028801
964.525	0.0021401
974.17	0.0022101
983.815	0.0028901
993.46	0.0043801
1003.1	0.0072201
1012.75	0.0110101
1022.39	0.0168101
1032.04	0.0174901
1041.68	0.0109901
1051.33	0.0083501
1060.97	0.0103001
1070.62	0.0142201
1080.26	0.0176501
1089.91	0.0252501
1099.55	0.0450501
1109.2	0.0810501
1118.84	0.10793
1128.49	0.0753601
1138.13	0.0326401
1147.78	0.0179601
1157.42	0.0134201
1167.07	0.0134201
1176.71	0.0169301
1186.36	0.0284801
1196	0.0627901
1205.64	0.1182
1215.29	0.12847
1224.93	0.0804301
1234.58	0.0407501
1244.22	0.0220101
1253.87	0.0145101
1263.51	0.0119201
1273.16	0.0125301
1282.8	0.0175901
1292.45	0.0250601
1302.09	0.0265401
1311.74	0.0205801
1321.38	0.0145101
1331.03	0.0099201
1340.67	0.0090101
1350.32	0.0114301
1359.96	0.0157601
1369.61	0.0190901
1379.25	0.0203401
1388.9	0.0209001
1398.54	0.0155401
1408.18	0.0148301
1417.83	0.0204301
1427.47	0.0279801
1437.12	0.0309201
1446.76	0.0278501
1456.41	0.0250601
1466.05	0.0233201
1475.7	0.0185101
1485.34	0.0123801
1494.99	0.0074901
1504.63	0.0054101
1514.28	0.0043501
1523.92	0.0037801
1533.57	0.0033001
1543.21	0.0029301
1552.86	0.0026401
1562.5	0.0024901
1572.15	0.0025901
1581.79	0.0027501
1591.44	0.0029301
1601.08	0.0033801
1610.73	0.0038401
1620.37	0.0047301
1630.01	0.0061201
1639.66	0.0084901
1649.3	0.0119301
1658.95	0.0196101
1668.59	0.0470001
1678.24	0.12454
1687.88	0.17232
1697.53	0.0884501
1707.17	0.0291201
1716.82	0.0203001
1726.46	0.0212701
1736.11	0.0353001
1745.75	0.0697101
1755.4	0.0765201
1765.04	0.0411801
1774.69	0.0190201
1784.33	0.0116201
1793.98	0.0078201
1803.62	0.0053401
1813.27	0.0036701
1822.91	0.0027801
1832.55	0.0022101
1842.2	0.0018501
1851.84	0.0016901
1861.49	0.0016101
1871.13	0.0014801
1880.78	0.0013201
1890.42	0.0012801
1900.07	0.0011101
1909.71	0.0009356
1919.36	0.0007547
1929	0.0007468
1938.65	0.0006399
1948.29	0.0006816
1957.94	0.0006206
1967.58	0.0006129
1977.23	0.0006812
1986.87	0.0006831
1996.52	0.0006345
2006.16	0.0005749
2015.81	0.0005603
2025.45	0.0006072
2035.1	0.0005678
2044.74	0.0006708
2054.38	0.0006832
2064.03	0.000762
2073.67	0.0008499
2083.32	0.0009702
2092.96	0.0008477
2102.61	0.0007412
2112.25	0.0005896
2121.9	0.0005563
2131.54	0.0005154
2141.19	0.0004572
2150.83	0.0004456
2160.48	0.0004084
2170.12	0.0004299
2179.77	0.0004382
2189.41	0.0003874
2199.06	0.0003709
2208.7	0.000446
2218.35	0.0004518
2227.99	0.0004622
2237.64	0.0005538
2247.28	0.0004295
2256.92	0.0004841
2266.57	0.0004214
2276.21	0.0004013
2285.86	0.0003878
2295.5	0.0005008
2305.15	0.0005212
2314.79	0.0005737
2324.44	0.0006466
2334.08	0.0006179
2343.73	0.0005604
2353.37	0.0003826
2363.02	0.0004262
2372.66	0.0003775
2382.31	0.0004685
2391.95	0.0005458
2401.6	0.0006411
2411.24	0.000697
2420.89	0.0007114
2430.53	0.0006777
2440.18	0.0005567
2449.82	0.0005455
2459.47	0.0004617
2469.11	0.000441
2478.75	0.0003949
2488.4	0.0004815
2498.04	0.0004284
2507.69	0.0004648
2517.33	0.0004034
2526.98	0.0004594
2536.62	0.0005544
2546.27	0.0005308
2555.91	0.0005254
2565.56	0.0005913
2575.2	0.0004752
2584.85	0.0005343
2594.49	0.0004735
2604.14	0.0003378
2613.78	0.0003845
2623.43	0.0003424
2633.07	0.0003571
2642.72	0.0003965
2652.36	0.0005317
2662.01	0.0003959
2671.65	0.0005454
2681.29	0.00057
2690.94	0.0006984
2700.58	0.000713
2710.23	0.0007839
2719.87	0.0007326
2729.52	0.0008996
2739.16	0.0009726
2748.81	0.0009913
2758.45	0.0011501
2768.1	0.0010901
2777.74	0.0012101
2787.39	0.0013001
2797.03	0.0016701
2806.68	0.0018501
2816.32	0.0022001
2825.97	0.0024801
2835.61	0.0028001
2845.26	0.0032901
2854.9	0.0041301
2864.55	0.0057401
2874.19	0.0090601
2883.84	0.0134701
2893.48	0.0154401
2903.12	0.0157101
2912.77	0.0167201
2922.41	0.0176401
2932.06	0.0224801
2941.7	0.0322901
2951.35	0.0308001
2960.99	0.0242601
2970.64	0.0311801
2980.28	0.0454801
2989.93	0.0456901
2999.57	0.0302701
3009.22	0.0167701
3018.86	0.0095701
3028.51	0.0060801
3038.15	0.0044901
3047.8	0.0031901
3057.44	0.0025901
3067.09	0.0022001
3076.73	0.0020201
3086.38	0.0017401
3096.02	0.0016801
3105.67	0.0015601
3115.31	0.0015901
3124.95	0.0014401
3134.6	0.0014901
3144.24	0.0013901
3153.89	0.0011801
3163.53	0.0012401
3173.18	0.0010701
3182.82	0.0008719
3192.47	0.0007634
3202.11	0.0006687
3211.76	0.0004611
3221.4	0.0003966
3231.05	0.0004347
3240.69	0.0005015
3250.34	0.0004465
3259.98	0.0002107
3269.63	0.0003345
3279.27	0.000147
3288.92	0.0003522
3298.56	0.0003983
3308.21	0.0001764
3317.85	0.0003777
3327.49	0.0006454
3337.14	0.0008879
3346.78	0.0011501
3356.43	0.0014701
3366.07	0.0013201
3375.72	0.0006086
3385.36	0.0005177
3395.01	0.0003865
3404.65	0.0003414
3414.3	0.0003648
3423.94	0.0004955
3433.59	0.0004644
3443.23	0.0005415
3452.88	0.0005659
3462.52	0.000684
3472.17	0.0008515
3481.81	0.0008948
3491.46	0.0008184
3501.1	0.0006434
3510.75	0.0004942
3520.39	0.0001831
3530.04	0.0001685
3539.68	0.000244
3549.32	0.0001955
3558.97	0.00012195
3568.61	0.0002287
3578.26	0.0001539
3587.9	0.0002008
3597.55	8.371e-05
3607.19	0.00011795
3616.84	0.0001337
3626.48	0.0002714
3636.13	0.000202
3645.77	0.0001384
3655.42	0.00011128
3665.06	0.0001385
3674.71	0.0001368
3684.35	0.0001557
3694	0.0001632
3703.64	0.0002118
3713.29	0.000183
3722.93	0.000158
3732.58	0.0002421
3742.22	0.0004295
3751.86	0.0002712
3761.51	0.0003524
3771.15	0.0001982
3780.8	0.0004133
3790.44	0.0002467
3800.09	0.0002066
3809.73	0.00012231
3819.38	7.003e-05
3829.02	0.0004593
3838.67	0.0003393
3848.31	0.0003347
3857.96	0
3867.6	0.0002493
3877.25	0.0002597
3886.89	0.0002449
3896.54	0.0001753
3906.18	0.0003202
3915.83	0.0001985
3925.47	0.0002366
3935.12	0.00012847
3944.76	0.0002732
3954.41	0.0003318
3964.05	0.00038
3973.69	0.0002676
3983.34	0.0004055
3992.98	0.0005391
