Infrared Spectrum: N,N-DIETHYL-4-BIPHENYLAMINE
Formula: C16 H19 N
CAS: 5412-43-1
State: SOLID (MULL)
Melting point: 68-70 C
Class: COBLENTZ
Instrument: Not specified, most likely a prism, grating, or hybrid spectrometer.
Sampling: TRANSMISSION
Resolution: 4
Origin: WYANDOTTE CHEMICALS CORP., WYANDOTTE, MICHIGAN, USA
MICROMETERS	TRANSMITTANCE
2.016	0.308
2.05485	0.324
2.09371	0.327
2.13256	0.325
2.17142	0.314
2.21027	0.309
2.24913	0.311
2.28798	0.316
2.32684	0.316
2.36569	0.314
2.40455	0.316
2.4434	0.316
2.48226	0.319
2.52111	0.329
2.55997	0.335
2.59882	0.35
2.63768	0.337
2.67653	0.356
2.71539	0.361
2.75424	0.351
2.7931	0.358
2.83195	0.364
2.87081	0.362
2.90966	0.366
2.94852	0.362
2.98737	0.364
3.02623	0.366
3.06508	0.367
3.10394	0.367
3.14279	0.366
3.18165	0.366
3.2205	0.353
3.25936	0.28
3.29821	0.24
3.33707	0.156
3.37592	0.033
3.41478	0.032
3.45363	0.03
3.49249	0.029
3.53134	0.108
3.5702	0.301
3.60905	0.417
3.64791	0.459
3.68676	0.459
3.72562	0.467
3.76447	0.469
3.80333	0.493
3.84218	0.511
3.88104	0.503
3.91989	0.512
3.95875	0.519
3.9976	0.525
4.03646	0.546
4.07531	0.553
4.11417	0.559
4.15302	0.562
4.19188	0.559
4.23073	0.558
4.26959	0.546
4.30844	0.553
4.3473	0.58
4.38615	0.6
4.42501	0.606
4.46386	0.601
4.50272	0.608
4.54157	0.622
4.58043	0.625
4.61928	0.632
4.65814	0.633
4.69699	0.637
4.73585	0.651
4.7747	0.666
4.81356	0.679
4.85241	0.677
4.89127	0.682
4.93012	0.683
4.96897	0.691
5.00783	0.696
5.04668	0.7
5.08554	0.719
5.12439	0.717
5.16325	0.722
5.2021	0.696
5.24096	0.683
5.27981	0.72
5.31867	0.629
5.35752	0.683
5.39638	0.688
5.43523	0.735
5.47409	0.777
5.51294	0.791
5.5518	0.788
5.59065	0.779
5.62951	0.8
5.66836	0.812
5.70722	0.812
5.74607	0.803
5.78493	0.827
5.82378	0.845
5.86264	0.846
5.90149	0.869
5.94035	0.882
5.9792	0.888
6.01806	0.848
6.05691	0.885
6.09577	0.822
6.13462	0.52
6.17348	0.096
6.21233	0.096
6.25119	0.291
6.29004	0.37
6.3289	0.538
6.36775	0.591
6.40661	0.561
6.44546	0.55
6.48432	0.409
6.52317	0.191
6.56203	0.264
6.60088	0.437
6.63974	0.477
6.67859	0.151
6.71745	0.15
6.7563	0.13
6.79516	0.064
6.83401	0.1
6.87287	0.1
6.91172	0.159
6.95058	0.385
6.98943	0.622
7.02829	0.658
7.06714	0.524
7.106	0.208
7.14485	0.154
7.18371	0.277
7.22256	0.232
7.26142	0.116
7.30027	0.177
7.33913	0.183
7.37798	0.198
7.41684	0.198
7.45569	0.241
7.49455	0.409
7.5334	0.459
7.57226	0.54
7.61111	0.596
7.64997	0.624
7.68882	0.648
7.72768	0.659
7.76653	0.653
7.80538	0.522
7.84424	0.424
7.88309	0.103
7.92195	0.041
7.9608	0.212
7.99966	0.375
8.03851	0.48
8.07737	0.533
8.11622	0.579
8.15508	0.583
8.19393	0.433
8.23279	0.161
8.27164	0.101
8.3105	0.037
8.34935	0.043
8.38821	0.196
8.42706	0.379
8.46592	0.45
8.50477	0.538
8.54363	0.606
8.58248	0.564
8.62134	0.275
8.66019	0.288
8.69905	0.424
8.7379	0.496
8.77676	0.559
8.81561	0.608
8.85447	0.645
8.89332	0.669
8.93218	0.68
8.97103	0.683
9.00989	0.667
9.04874	0.604
9.0876	0.443
9.12645	0.346
9.16531	0.53
9.20416	0.612
9.24302	0.475
9.28187	0.353
9.32073	0.32
9.35958	0.351
9.39844	0.548
9.43729	0.653
9.47615	0.711
9.515	0.74
9.55386	0.732
9.59271	0.611
9.63157	0.646
9.67042	0.714
9.70928	0.735
9.74813	0.696
9.78699	0.719
9.82584	0.711
9.8647	0.64
9.90355	0.554
9.94241	0.561
9.98126	0.637
10.0201	0.706
10.059	0.754
10.0978	0.775
10.1367	0.808
10.1755	0.812
10.2144	0.803
10.2532	0.793
10.2921	0.798
10.331	0.819
10.3698	0.782
10.4087	0.764
10.4475	0.788
10.4864	0.79
10.5252	0.806
10.5641	0.829
10.6029	0.841
10.6418	0.833
10.6807	0.822
10.7195	0.835
10.7584	0.835
10.7972	0.822
10.8361	0.75
10.8749	0.688
10.9138	0.769
10.9526	0.829
10.9915	0.853
11.0303	0.827
11.0692	0.59
11.1081	0.538
11.1469	0.766
11.1858	0.838
11.2246	0.887
11.2635	0.908
11.3023	0.922
11.3412	0.932
11.38	0.93
11.4189	0.937
11.4577	0.938
11.4966	0.951
11.5355	0.95
11.5743	0.943
11.6132	0.943
11.652	0.945
11.6909	0.941
11.7297	0.938
11.7686	0.924
11.8074	0.925
11.8463	0.924
11.8852	0.912
11.924	0.87
11.9629	0.825
12.0017	0.808
12.0406	0.796
12.0794	0.733
12.1183	0.596
12.1571	0.345
12.196	0.145
12.2348	0.041
12.2737	0.129
12.3126	0.445
12.3514	0.675
12.3903	0.78
12.4291	0.812
12.468	0.803
12.5068	0.724
12.5457	0.556
12.5845	0.498
12.6234	0.537
12.6623	0.572
12.7011	0.609
12.74	0.724
12.7788	0.801
12.8177	0.845
12.8565	0.856
12.8954	0.845
12.9342	0.811
12.9731	0.767
13.0119	0.669
13.0508	0.529
13.0897	0.308
13.1285	0.127
13.1674	0.022
13.2062	0.017
13.2451	0.04
13.2839	0.148
13.3228	0.382
13.3616	0.598
13.4005	0.716
13.4394	0.801
13.4782	0.837
13.5171	0.856
13.5559	0.872
13.5948	0.887
13.6336	0.895
13.6725	0.9
13.7113	0.895
13.7502	0.885
13.789	0.87
13.8279	0.846
13.8668	0.809
13.9056	0.748
13.9445	0.606
13.9833	0.469
14.0222	0.441
14.061	0.583
14.0999	0.767
14.1387	0.835
14.1776	0.846
14.2164	0.803
14.2553	0.738
14.2942	0.646
14.333	0.553
14.3719	0.44
14.4107	0.304
14.4496	0.201
14.4884	0.111
14.5273	0.085
14.5661	0.108
14.605	0.23
14.6439	0.377
14.6827	0.548
14.7216	0.667
14.7604	0.74
14.7993	0.78
14.8381	0.798
14.877	0.793
14.9158	0.788
14.9547	0.779
14.9935	0.762
15.0324	0.735
15.0713	0.725
15.1101	0.774
15.149	0.819
15.1878	0.84
15.2267	0.854
15.2655	0.862
15.3044	0.861
15.3432	0.853
15.3821	0.843
15.421	0.829
15.4598	0.809
15.4987	0.798
15.5375	0.777
15.5764	0.764
15.6152	0.732
15.6541	0.709
15.6929	0.696
15.7318	0.691
15.7706	0.679
15.8095	0.672
15.8484	0.654
15.8872	0.646
15.9261	0.629
15.9649	0.608
