Infrared Spectrum: 5-DIETHYLAMINO-2-PENTANOL
Formula: C9 H21 N O
CAS: 5412-69-1
State: LIQUID
Boiling point: 84-86 C AT 6 mmHg
Class: COBLENTZ
Instrument: Not specified, most likely a prism, grating, or hybrid spectrometer.
Sampling: TRANSMISSION
Path length: 0.003 CM
Resolution: 4
Origin: WYANDOTTE CHEMICALS CORP., WYANDOTTE, MICHIGAN, USA
MICROMETERS	TRANSMITTANCE
2.081	0.973
2.12095	0.968
2.16089	0.955
2.20084	0.933
2.24079	0.917
2.28074	0.925
2.32068	0.923
2.36063	0.927
2.40058	0.927
2.44053	0.923
2.48047	0.933
2.52042	0.941
2.56037	0.945
2.60032	0.945
2.64026	0.943
2.68021	0.935
2.72016	0.903
2.76011	0.865
2.80005	0.764
2.84	0.631
2.87995	0.467
2.9199	0.328
2.95984	0.25
2.99979	0.252
3.03974	0.291
3.07969	0.32
3.11963	0.331
3.15958	0.343
3.19953	0.363
3.23948	0.401
3.27942	0.456
3.31937	0.212
3.35932	0.009
3.39927	0.031
3.43921	0.051
3.47916	0.082
3.51911	0.104
3.55906	0.067
3.599	0.18
3.63895	0.262
3.6789	0.33
3.71885	0.439
3.75879	0.482
3.79874	0.567
3.83869	0.603
3.87863	0.623
3.91858	0.628
3.95853	0.655
3.99848	0.701
4.03842	0.736
4.07837	0.764
4.11832	0.776
4.15827	0.784
4.19821	0.799
4.23816	0.807
4.27811	0.827
4.31806	0.835
4.358	0.837
4.39795	0.837
4.4379	0.842
4.47785	0.85
4.51779	0.85
4.55774	0.852
4.59769	0.854
4.63764	0.855
4.67758	0.857
4.71753	0.859
4.75748	0.859
4.79743	0.86
4.83737	0.864
4.87732	0.864
4.91727	0.864
4.95722	0.864
4.99716	0.862
5.03711	0.857
5.07706	0.85
5.11701	0.857
5.15695	0.85
5.1969	0.852
5.23685	0.849
5.2768	0.849
5.31674	0.85
5.35669	0.85
5.39664	0.845
5.43659	0.845
5.47653	0.844
5.51648	0.834
5.55643	0.837
5.59638	0.835
5.63632	0.834
5.67627	0.83
5.71622	0.824
5.75616	0.797
5.79611	0.724
5.83606	0.737
5.87601	0.771
5.91595	0.772
5.9559	0.742
5.99585	0.739
6.0358	0.744
6.07574	0.754
6.11569	0.767
6.15564	0.767
6.19559	0.772
6.23553	0.771
6.27548	0.772
6.31543	0.771
6.35538	0.766
6.39532	0.759
6.43527	0.754
6.47522	0.742
6.51517	0.729
6.55511	0.704
6.59506	0.668
6.63501	0.636
6.67496	0.565
6.7149	0.431
6.75485	0.228
6.7948	0.205
6.83475	0.218
6.87469	0.257
6.91464	0.331
6.95459	0.414
6.99454	0.461
7.03448	0.482
7.07443	0.48
7.11438	0.467
7.15433	0.323
7.19427	0.202
7.23422	0.144
7.27417	0.14
7.31412	0.263
7.35406	0.348
7.39401	0.356
7.43396	0.346
7.4739	0.341
7.51385	0.399
7.5538	0.427
7.59375	0.401
7.63369	0.366
7.67364	0.331
7.71359	0.315
7.75354	0.363
7.79348	0.466
7.83343	0.55
7.87338	0.601
7.91333	0.613
7.95327	0.573
7.99322	0.535
8.03317	0.53
8.07312	0.562
8.11306	0.517
8.15301	0.466
8.19296	0.462
8.23291	0.442
8.27285	0.401
8.3128	0.353
8.35275	0.363
8.3927	0.519
8.43264	0.585
8.47259	0.552
8.51254	0.47
8.55249	0.482
8.59243	0.547
8.63238	0.565
8.67233	0.522
8.71228	0.399
8.75222	0.316
8.79217	0.233
8.83212	0.212
8.87207	0.207
8.91201	0.257
8.95196	0.315
8.99191	0.301
9.03186	0.243
9.0718	0.185
9.11175	0.17
9.1517	0.159
9.19165	0.162
9.23159	0.19
9.27154	0.187
9.31149	0.152
9.35143	0.165
9.39138	0.268
9.43133	0.344
9.47128	0.381
9.51122	0.411
9.55117	0.411
9.59112	0.411
9.63107	0.426
9.67101	0.462
9.71096	0.494
9.75091	0.51
9.79086	0.509
9.8308	0.492
9.87075	0.495
9.9107	0.505
9.95065	0.504
9.99059	0.499
10.0305	0.479
10.0705	0.475
10.1104	0.48
10.1504	0.489
10.1903	0.532
10.2303	0.585
10.2702	0.6
10.3102	0.613
10.3501	0.648
10.3901	0.676
10.43	0.681
10.47	0.669
10.5099	0.636
10.5499	0.568
10.5898	0.494
10.6298	0.472
10.6697	0.499
10.7096	0.524
10.7496	0.553
10.7895	0.605
10.8295	0.635
10.8694	0.655
10.9094	0.681
10.9493	0.704
10.9893	0.716
11.0292	0.726
11.0692	0.737
11.1091	0.752
11.1491	0.762
11.189	0.767
11.229	0.761
11.2689	0.752
11.3089	0.734
11.3488	0.691
11.3888	0.661
11.4287	0.65
11.4686	0.674
11.5086	0.693
11.5485	0.691
11.5885	0.668
11.6284	0.668
11.6684	0.665
11.7083	0.683
11.7483	0.704
11.7882	0.706
11.8282	0.706
11.8681	0.699
11.9081	0.684
11.948	0.679
11.988	0.666
12.0279	0.668
12.0679	0.665
12.1078	0.671
12.1478	0.673
12.1877	0.673
12.2277	0.671
12.2676	0.663
12.3075	0.655
12.3475	0.65
12.3874	0.646
12.4274	0.641
12.4673	0.636
12.5073	0.63
12.5472	0.636
12.5872	0.63
12.6271	0.628
12.6671	0.621
12.707	0.592
12.747	0.557
12.7869	0.532
12.8269	0.517
12.8668	0.515
12.9068	0.519
12.9467	0.532
12.9867	0.537
13.0266	0.543
13.0665	0.555
13.1065	0.57
13.1464	0.58
13.1864	0.595
13.2263	0.611
13.2663	0.625
13.3062	0.635
13.3462	0.633
13.3861	0.636
13.4261	0.636
13.466	0.635
13.506	0.635
13.5459	0.635
13.5859	0.63
13.6258	0.623
13.6658	0.621
13.7057	0.61
13.7457	0.593
13.7856	0.577
13.8255	0.558
13.8655	0.55
13.9054	0.542
13.9454	0.555
13.9853	0.567
14.0253	0.588
14.0652	0.605
14.1052	0.623
14.1451	0.633
14.1851	0.641
14.225	0.646
14.265	0.653
14.3049	0.653
14.3449	0.655
14.3848	0.651
14.4248	0.651
14.4647	0.655
14.5047	0.653
14.5446	0.651
14.5845	0.653
14.6245	0.648
14.6644	0.648
14.7044	0.643
14.7443	0.645
14.7843	0.641
14.8242	0.64
14.8642	0.636
14.9041	0.64
14.9441	0.643
14.984	0.635
15.024	0.625
15.0639	0.633
15.1039	0.628
15.1438	0.626
15.1838	0.631
15.2237	0.631
15.2637	0.628
15.3036	0.625
15.3436	0.625
15.3835	0.623
15.4234	0.621
15.4634	0.615
15.5033	0.616
15.5433	0.615
15.5832	0.615
15.6232	0.616
15.6631	0.615
15.7031	0.616
15.743	0.613
15.783	0.613
15.8229	0.603
15.8629	0.601
15.9028	0.605
15.9428	0.601
15.9827	0.598
