Infrared Spectrum: 5-Amino-4,6-dichloropyrimidine
Formula: C4 H3 Cl2 N3
CAS: 5413-85-4
State: SOLID (SPLIT MULL), FLUOROLUBE FOR 3800-1330 CM^-^1, NUJOL FOR 1330-400 CM^-^1
Class: COBLENTZ II
Instrument: BECKMAN IR-9 (GRATING)
Instrument parameters: ORDER CHANGES: 670, 1200, 2000 CM^-^1
Sampling: TRANSMISSION
Resolution: 2
Origin: DOW CHEMICAL COMPANY
1/CM	TRANSMITTANCE
3800	0.5901
3791	0.5922
3782	0.5945
3773	0.5971
3764	0.5989
3755	0.5983
3746	0.599
3737	0.6007
3728	0.6039
3719	0.607
3710	0.6093
3701	0.6112
3692	0.6133
3683	0.6151
3674	0.6169
3665	0.6186
3656	0.6205
3647	0.6229
3638	0.6253
3629	0.6277
3620	0.6301
3611	0.6324
3602	0.6347
3593	0.6369
3584	0.6392
3575	0.6415
3566	0.644
3557	0.6464
3548	0.6488
3539	0.651
3530	0.6534
3521	0.6557
3512	0.6578
3503	0.6595
3494	0.6603
3485	0.66
3476	0.6575
3467	0.6475
3458	0.4573
3449	0.3253
3440	0.5164
3431	0.6018
3422	0.6288
3413	0.6418
3404	0.6453
3395	0.6461
3386	0.6446
3377	0.6412
3368	0.635
3359	0.6185
3350	0.5703
3341	0.4951
3332	0.4123
3323	0.2992
3314	0.217
3305	0.2287
3296	0.3077
3287	0.3966
3278	0.4419
3269	0.4681
3260	0.4895
3251	0.5093
3242	0.5228
3233	0.5293
3224	0.4998
3215	0.4214
3206	0.4174
3197	0.4907
3188	0.5182
3179	0.5247
3170	0.5209
3161	0.5222
3152	0.5494
3143	0.5666
3134	0.5847
3125	0.6021
3116	0.617
3107	0.6282
3098	0.6297
3089	0.546
3080	0.6291
3071	0.641
3062	0.6465
3053	0.6507
3044	0.6542
3035	0.6569
3026	0.6599
3017	0.6649
3008	0.6708
2999	0.6738
2990	0.6757
2981	0.6768
2972	0.6781
2963	0.6793
2954	0.6807
2945	0.6821
2936	0.6843
2927	0.6882
2918	0.6943
2909	0.7005
2900	0.7041
2891	0.7056
2882	0.7062
2873	0.7065
2864	0.7078
2855	0.7132
2846	0.718
2837	0.7225
2828	0.7257
2819	0.7286
2810	0.7312
2801	0.7338
2792	0.7362
2783	0.7387
2774	0.7414
2765	0.7448
2756	0.7445
2747	0.7408
2738	0.736
2729	0.7408
2720	0.746
2711	0.7474
2702	0.7475
2693	0.7489
2684	0.7506
2675	0.7528
2666	0.7561
2657	0.7576
2648	0.7586
2639	0.7607
2630	0.7628
2621	0.7646
2612	0.7667
2603	0.7688
2594	0.7708
2585	0.7731
2576	0.7757
2567	0.7782
2558	0.78
2549	0.7812
2540	0.7819
2531	0.7825
2522	0.7834
2513	0.7833
2504	0.783
2495	0.7825
2486	0.7832
2477	0.7844
2468	0.7844
2459	0.7771
2450	0.7421
2441	0.7457
2432	0.7797
2423	0.7839
2414	0.788
2405	0.7914
2396	0.7947
2387	0.7971
2378	0.7989
2369	0.7995
2360	0.7993
2351	0.7995
2342	0.7997
2333	0.8001
2324	0.8006
2315	0.8008
2306	0.8011
2297	0.8008
2288	0.8001
2279	0.8015
2270	0.8028
2261	0.8053
2252	0.808
2243	0.8107
2234	0.8134
2225	0.816
2216	0.8183
2207	0.8206
2198	0.823
2189	0.8253
2180	0.8275
2171	0.8298
2162	0.832
2153	0.834
2144	0.836
2135	0.8378
2126	0.8405
2117	0.8465
2108	0.8492
2099	0.8507
2090	0.8521
2081	0.8528
2072	0.8537
2063	0.8556
2054	0.8575
2045	0.8596
2036	0.8624
2027	0.8652
2018	0.8662
2009	0.864
2000	0.8593
1991	0.8592
1982	0.8603
1973	0.8621
1964	0.8667
1955	0.8691
1946	0.8695
1937	0.868
1928	0.8682
1919	0.8695
1910	0.8709
1901	0.8723
1892	0.873
1883	0.8727
1874	0.8716
1865	0.8675
1856	0.8539
1847	0.8356
1838	0.856
1829	0.8658
1820	0.8712
1811	0.8762
1802	0.8809
1793	0.8843
1784	0.8868
1775	0.8883
1766	0.888
1757	0.8868
1748	0.886
1739	0.8856
1730	0.8852
1721	0.8868
1712	0.8924
1703	0.893
1694	0.8917
1685	0.8818
1676	0.8858
1667	0.8866
1658	0.8731
1649	0.8602
1640	0.7937
1631	0.597
1622	0.1912
1613	0.3956
1604	0.631
1595	0.7612
1586	0.8114
1577	0.8278
1568	0.7561
1559	0.8032
1550	0.8253
1541	0.8395
1532	0.7593
1523	0.08
1514	0.5283
1505	0.7208
1496	0.7321
1487	0.7115
1478	0.8195
1469	0.8437
1460	0.8535
1451	0.8554
1442	0.8478
1433	0.6332
1424	0.0738
1415	0.1546
1406	0.3897
1397	0.6532
1388	0.7494
1379	0.7818
1370	0.7971
1361	0.8087
1352	0.8
1343	0.7978
1334	0.8141
1325	0.8171
1316	0.7886
1307	0.8315
1298	0.8441
1289	0.8492
1280	0.8499
1271	0.8503
1262	0.8512
1253	0.8511
1244	0.8503
1235	0.8533
1226	0.7956
1217	0.7288
1208	0.8202
1199	0.7933
1190	0.8232
1181	0.8299
1172	0.8283
1163	0.7868
1154	0.559
1145	0.6897
1136	0.7728
1127	0.7819
1118	0.7711
1109	0.741
1100	0.6564
1091	0.5551
1082	0.6026
1073	0.6801
1064	0.7611
1055	0.7869
1046	0.7804
1037	0.8034
1028	0.8084
1019	0.8214
1010	0.8273
1001	0.8274
992	0.8273
983	0.8283
974	0.8304
965	0.8321
956	0.8321
947	0.832
938	0.8286
929	0.7768
920	0.7999
911	0.8296
902	0.8285
893	0.8175
884	0.7991
875	0.7596
866	0.7067
857	0.5006
848	0.8246
839	0.8367
830	0.8158
821	0.7845
812	0.7921
803	0.7721
794	0.6281
785	0.4032
776	0.7335
767	0.7944
758	0.6001
749	0.7997
740	0.7955
731	0.7758
722	0.7824
713	0.7988
704	0.8042
695	0.8086
686	0.8133
677	0.8168
668	0.8406
659	0.8395
650	0.8237
641	0.7719
632	0.8039
623	0.7998
614	0.7915
605	0.7826
596	0.7728
587	0.7542
578	0.7278
569	0.6447
560	0.7099
551	0.7215
542	0.7361
533	0.7506
524	0.7376
515	0.7111
506	0.7165
497	0.7181
488	0.7071
479	0.6865
470	0.666
461	0.6376
452	0.5878
443	0.5424
434	0.49
