Infrared Spectrum: 3,5-Dimethylphenyl isocyanate
Formula: C 9 H 9 N O
CAS: 54132-75-1
State: gas
Origin: EPA-IR VAPOR PHASE LIBRARY
1/CM	ABSORBANCE
549.8	0.006713
559.445	0.005773
569.09	0.004533
578.734	0.008673
588.379	0.006713
598.024	0.006273
607.669	0.006823
617.313	0.007693
626.958	0.007113
636.603	0.005303
646.248	0.006463
655.893	0.009793
665.537	0.011833
675.182	0.013683
684.827	0.012483
694.472	0.005943
704.116	0.002093
713.761	0.001743
723.406	0.001613
733.051	0.0010533
742.695	0.0006714
752.34	0.0008038
761.985	0.0004501
771.63	0.000935
781.275	0.00023494
790.919	0.0009389
800.564	0.0005496
810.209	0.001483
819.854	0.003143
829.498	0.011863
839.143	0.027823
848.788	0.020823
858.433	0.009783
868.078	0.004333
877.722	0.006323
887.367	0.012693
897.012	0.023813
906.657	0.021223
916.301	0.004383
925.946	0.001983
935.591	0.001893
945.236	0.003473
954.88	0.003783
964.525	0.002543
974.17	0.003553
983.815	0.005473
993.46	0.006513
1003.1	0.005253
1012.75	0.002483
1022.39	0.001953
1032.04	0.001653
1041.68	0.002863
1051.33	0.003003
1060.97	0.003333
1070.62	0.001136
1080.26	0.0005501
1089.91	0.0009818
1099.55	0.003773
1109.2	0.007893
1118.84	0.009223
1128.49	0.005823
1138.13	0.002983
1147.78	0.002993
1157.42	0.003303
1167.07	0.002493
1176.71	0.000749
1186.36	0.0006628
1196	0.002223
1205.64	0.001643
1215.29	0.002123
1224.93	0.001273
1234.58	0.001933
1244.22	0.003423
1253.87	0.006423
1263.51	0.012243
1273.16	0.007983
1282.8	0.003683
1292.45	0.003073
1302.09	0.002863
1311.74	0.002713
1321.38	0.002633
1331.03	0.002733
1340.67	0.002883
1350.32	0.003243
1359.96	0.003663
1369.61	0.004743
1379.25	0.005833
1388.9	0.005643
1398.54	0.005253
1408.18	0.005133
1417.83	0.005733
1427.47	0.007623
1437.12	0.008633
1446.76	0.008783
1456.41	0.009603
1466.05	0.011193
1475.7	0.014913
1485.34	0.021343
1494.99	0.025013
1504.63	0.022273
1514.28	0.017473
1523.92	0.015363
1533.57	0.015763
1543.21	0.015943
1552.86	0.015093
1562.5	0.016043
1572.15	0.022843
1581.79	0.035353
1591.44	0.051663
1601.08	0.094703
1610.73	0.099783
1620.37	0.032503
1630.01	0.008263
1639.66	0.004373
1649.3	0.003463
1658.95	0.003323
1668.59	0.002743
1678.24	0.002073
1687.88	0.001733
1697.53	0.002103
1707.17	0.002023
1716.82	0.002523
1726.46	0.002643
1736.11	0.002923
1745.75	0.002693
1755.4	0.001873
1765.04	0.001613
1774.69	0.0011328
1784.33	0.000787
1793.98	0.0008645
1803.62	0.0008652
1813.27	0.0007508
1822.91	0.0008692
1832.55	0.0010289
1842.2	0.0007315
1851.84	0.0007812
1861.49	0.0007704
1871.13	0.0007859
1880.78	0.0008079
1890.42	0.0010501
1900.07	0.001363
1909.71	0.0011931
1919.36	0.0009469
1929	0.0009572
1938.65	0.0011202
1948.29	0.0010385
1957.94	0.0009168
1967.58	0.0007634
1977.23	0.0007595
1986.87	0.0008094
1996.52	0.0008014
2006.16	0.0011688
2015.81	0.001253
2025.45	0.001293
2035.1	0.001433
2044.74	0.001403
2054.38	0.001783
2064.03	0.002183
2073.67	0.002693
2083.32	0.003373
2092.96	0.004253
2102.61	0.004883
2112.25	0.005483
2121.9	0.007163
2131.54	0.010293
2141.19	0.015533
2150.83	0.020903
2160.48	0.022543
2170.12	0.021893
2179.77	0.023503
2189.41	0.029843
2199.06	0.041523
2208.7	0.057153
2218.35	0.069533
2227.99	0.081303
2237.64	0.111303
2247.28	0.188533
2256.92	0.383033
2266.57	0.727743
2276.21	0.735113
2285.86	0.349703
2295.5	0.132743
2305.15	0.084923
2314.79	0.067753
2324.44	0.062053
2334.08	0.065083
2343.73	0.061313
2353.37	0.059333
2363.02	0.060703
2372.66	0.037863
2382.31	0.019623
2391.95	0.014793
2401.6	0.012243
2411.24	0.009733
2420.89	0.008013
2430.53	0.006443
2440.18	0.005393
2449.82	0.004873
2459.47	0.004353
2469.11	0.003403
2478.75	0.002633
2488.4	0.002053
2498.04	0.001913
2507.69	0.001743
2517.33	0.001573
2526.98	0.001253
2536.62	0.001273
2546.27	0.001233
2555.91	0.0011294
2565.56	0.0010542
2575.2	0.000761
2584.85	0.0008865
2594.49	0.0007813
2604.14	0.0006378
2613.78	0.0007625
2623.43	0.0008261
2633.07	0.0008013
2642.72	0.0008458
2652.36	0.0009611
2662.01	0.0006508
2671.65	0.000766
2681.29	0.0008762
2690.94	0.0011254
2700.58	0.001643
2710.23	0.002263
2719.87	0.003003
2729.52	0.002933
2739.16	0.002553
2748.81	0.002463
2758.45	0.001503
2768.1	0.001423
2777.74	0.001169
2787.39	0.001343
2797.03	0.001443
2806.68	0.001663
2816.32	0.001803
2825.97	0.002433
2835.61	0.002863
2845.26	0.003783
2854.9	0.005783
2864.55	0.010213
2874.19	0.012303
2883.84	0.010903
2893.48	0.009633
2903.12	0.011433
2912.77	0.015983
2922.41	0.025203
2932.06	0.031593
2941.7	0.026703
2951.35	0.015933
2960.99	0.010763
2970.64	0.007713
2980.28	0.007363
2989.93	0.009243
2999.57	0.010523
3009.22	0.011723
3018.86	0.015343
3028.51	0.017183
3038.15	0.016723
3047.8	0.015593
3057.44	0.013293
3067.09	0.007853
3076.73	0.004303
3086.38	0.003503
3096.02	0.002393
3105.67	0.002133
3115.31	0.001463
3124.95	0.001253
3134.6	0.0010672
3144.24	0.001643
3153.89	0.002373
3163.53	0.003523
3173.18	0.004373
3182.82	0.003013
3192.47	0.001583
3202.11	0.001233
3211.76	0.0009614
3221.4	0.0008983
3231.05	0.001263
3240.69	0.0010958
3250.34	0.0007766
3259.98	0.0008261
3269.63	0.0006343
3279.27	0.0006949
3288.92	0.0005709
3298.56	0.0006841
3308.21	0.0005791
3317.85	0.0004248
3327.49	0.0005175
3337.14	0.0005826
3346.78	0.0006173
3356.43	0.0007427
3366.07	0.001353
3375.72	0.001483
3385.36	0.001623
3395.01	0.001983
3404.65	0.002203
3414.3	0.001513
3423.94	0.0011026
3433.59	0.0007917
3443.23	0.000671
3452.88	0.0006662
3462.52	0.0005345
3472.17	0.0004933
3481.81	0.0006341
3491.46	0.0007866
3501.1	0.001085
3510.75	0.001553
3520.39	0.002623
3530.04	0.003233
3539.68	0.002653
3549.32	0.001673
3558.97	0.000576
3568.61	0.001483
3578.26	0.0011641
3587.9	0.0006397
3597.55	0.001223
3607.19	0.001333
3616.84	0.001363
3626.48	0.001413
3636.13	0.001553
3645.77	0.002033
3655.42	0.001933
3665.06	0.002203
3674.71	0.001843
3684.35	0.002463
3694	0.002413
3703.64	0.002103
3713.29	0.001653
3722.93	0.002043
3732.58	0.002033
3742.22	0.002493
3751.86	0.002823
3761.51	0.002383
3771.15	0.002073
3780.8	0.001513
3790.44	0.001603
3800.09	0.001373
3809.73	0.0009647
3819.38	0.0009612
3829.02	0.0009704
3838.67	0.0007047
3848.31	0.0005361
3857.96	0.0008744
3867.6	0.0008077
3877.25	0.0008168
3886.89	0.0006227
3896.54	0.0008621
3906.18	0.0008636
3915.83	0.0001387
3925.47	0.0005547
3935.12	0.00025939
3944.76	0.0007484
3954.41	0.0001923
3964.05	0.0004577
3973.69	0.0003304
3983.34	0.0005187
3992.98	0.0003882
