Infrared Spectrum: 5-Bromovaleronitrile
Formula: C 5 H 8 Br N
CAS: 5414-21-1
State: gas
Instrument: HP-GC/MS/IRD
Origin: NIST Mass Spectrometry Data Center
1/CM	ABSORBANCE
550	0.0013494
562	0.003796
574	0.0051194
586	0.0022204
598	0.0003666
610	6.76e-05
622	0.0001222
634	0.0006942
646	0.0018928
658	0.0029718
670	0.001573
682	0.0003744
694	0.000351
706	0.0005122
718	0.0009828
730	0.0020852
742	0.0030498
754	0.0025766
766	0.0016666
778	0.0013182
790	0.0014092
802	0.0010842
814	0.0009152
826	0.000741
838	0.0011492
850	0.0019916
862	0.0016484
874	0.00104
886	0.0006396
898	0.0004654
910	0.0005018
922	0.0006994
934	0.0007696
946	0.0004602
958	0.0002938
970	0.0003666
982	0.0009464
994	0.0012246
1006	0.0006214
1018	0.0003796
1030	0.0004368
1042	0.0002626
1054	0.000247
1066	0.000403
1078	0.0004524
1090	0.0001846
1102	5.46e-05
1114	7.8e-05
1126	0.0001456
1138	0.0003666
1150	0.0004342
1162	0.0004784
1174	0.0009412
1186	0.0015626
1198	0.0022906
1210	0.0032448
1222	0.0052442
1234	0.009659
1246	0.0143468
1258	0.0152776
1270	0.0085566
1282	0.0071916
1294	0.0088972
1306	0.0068042
1318	0.0039624
1330	0.0029458
1342	0.0023348
1354	0.0025116
1366	0.0021658
1378	0.0013598
1390	0.0009698
1402	0.0012246
1414	0.0024154
1426	0.0060866
1438	0.011882
1450	0.0117546
1462	0.007787
1474	0.003783
1486	0.0016068
1498	0.0008086
1510	0.0004914
1522	0.0003224
1534	0.0002392
1546	0.0001534
1558	0.0001326
1570	9.62e-05
1582	0.0001014
1594	9.36e-05
1606	8.84e-05
1618	5.98e-05
1630	3.9e-05
1642	4.94e-05
1654	9.62e-05
1666	5.72e-05
1678	5.2e-05
1690	6.5e-05
1702	6.24e-05
1714	7.8e-05
1726	6.76e-05
1738	0.0001066
1750	9.62e-05
1762	8.06e-05
1774	9.36e-05
1786	9.1e-05
1798	0.00013
1810	8.58e-05
1822	9.88e-05
1834	0.0001066
1846	0.0001066
1858	0.000117
1870	0.0001222
1882	0.0001456
1894	0.0001118
1906	0.0001014
1918	7.8e-05
1930	7.02e-05
1942	8.84e-05
1954	0.000104
1966	0.0001248
1978	0.0001144
1990	0.0001352
2002	0.0001586
2014	0.0001716
2026	0.0001586
2038	0.0002028
2050	0.0001976
2062	0.0001846
2074	0.0001196
2086	0.0001638
2098	0.000156
2110	0.0001664
2122	0.0001508
2134	0.0001118
2146	0.0001326
2158	0.0001664
2170	0.0001716
2182	0.000208
2194	0.0001898
2206	0.0002366
2218	0.0003224
2230	0.0004966
2242	0.0010582
2254	0.0015132
2266	0.0008892
2278	0.0003926
2290	0.0002626
2302	0.0002314
2314	0.0002548
2326	0.000195
2338	0.000208
2350	0.0002106
2362	0.0002288
2374	0.000208
2386	0.000182
2398	0.0001898
2410	0.0001638
2422	0.0002262
2434	0.000234
2446	0.0002106
2458	0.0002106
2470	0.000195
2482	0.0001534
2494	0.0001274
2506	0.0001066
2518	0.0001196
2530	9.1e-05
2542	7.02e-05
2554	8.06e-05
2566	0.000104
2578	0.000143
2590	0.0002054
2602	0.0002366
2614	0.0002964
2626	0.0002548
2638	0.000273
2650	0.0002652
2662	0.0002886
2674	0.0003302
2686	0.0004498
2698	0.0004628
2710	0.0003198
2722	0.0002574
2734	0.000273
2746	0.000299
2758	0.0003614
2770	0.0003692
2782	0.0004134
2794	0.0004654
2806	0.0006708
2818	0.0008736
2830	0.0014066
2842	0.002782
2854	0.0046098
2866	0.0058006
2878	0.0064688
2890	0.0065416
2902	0.0069342
2914	0.0077948
2926	0.0097344
2938	0.0147316
2950	0.0208546
2962	0.0258414
2974	0.0222378
2986	0.0119366
2998	0.006006
3010	0.0049764
3022	0.0040768
3034	0.001976
3046	0.000988
3058	0.0006136
3070	0.0004134
3082	0.0003718
3094	0.0003224
3106	0.000312
3118	0.0003172
3130	0.0003094
3142	0.0003458
3154	0.0002834
3166	0.000377
3178	0.000338
3190	0.0002964
3202	0.0002912
3214	0.0002704
3226	0.0001846
3238	0.000286
3250	0.000234
3262	0.0001872
3274	0.0001326
3286	0.0001742
3298	0.0001352
3310	0.0001794
3322	0.0001638
3334	0.0001768
3346	0.0001716
3358	0.000143
3370	0.0001066
3382	0.0001638
3394	0.0001066
3406	8.06e-05
3418	0.0001326
3430	0.0001352
3442	0.0001326
3454	0.00013
3466	0.0001274
3478	0.0001378
3490	0.000208
3502	0.0001898
3514	0.0002028
3526	0.0001924
3538	0.0002236
3550	0.0001898
3562	0.000286
3574	0.0002028
3586	0.0002262
3598	0.0002028
3610	0.0002054
3622	0.0002184
3634	0.0002054
3646	0.0001872
3658	0.0002002
3670	0.0002262
3682	0.0002184
3694	0.000182
3706	0.0001898
3718	0.0001716
3730	0.0002496
3742	0.0002626
3754	0.0002522
3766	0.00026
3778	0.0002262
3790	0.0002028
3802	0.0002158
3814	0.0002886
3826	0.000221
3838	0.000299
