Infrared Spectrum: 1-Bromo-2-(methoxyethoxy)ethane
Formula: C 5 H 11 Br O 2
CAS: 54149-17-6
State: gas
Origin: EPA-IR VAPOR PHASE LIBRARY
1/CM	ABSORBANCE
549.9	0.00413
559.547	0.00447
569.193	0.00553
578.84	0.00647
588.486	0.00537
598.133	0.00311
607.779	0.0022241
617.426	0.0019147
627.072	0.0021708
636.719	0.003
646.365	0.00514
656.012	0.00954
665.658	0.01436
675.305	0.01252
684.951	0.00688
694.598	0.0038
704.245	0.0027491
713.891	0.0021125
723.538	0.001748
733.184	0.00165
742.831	0.001511
752.477	0.001798
762.124	0.0021068
771.77	0.0025221
781.417	0.0028333
791.063	0.00314
800.71	0.00331
810.356	0.00396
820.003	0.00524
829.649	0.00694
839.296	0.00794
848.943	0.00838
858.589	0.00847
868.236	0.0087
877.882	0.00903
887.529	0.00864
897.175	0.00858
906.822	0.0087
916.468	0.0091
926.115	0.00992
935.761	0.01107
945.408	0.01213
955.054	0.01289
964.701	0.01318
974.347	0.01448
983.994	0.01645
993.64	0.01772
1003.29	0.01877
1012.93	0.02102
1022.58	0.0245
1032.23	0.02667
1041.87	0.02547
1051.52	0.02338
1061.17	0.02445
1070.81	0.0314
1080.46	0.04756
1090.11	0.07701
1099.75	0.11732
1109.4	0.16087
1119.05	0.18081
1128.69	0.16548
1138.34	0.1347
1147.99	0.09824
1157.63	0.06612
1167.28	0.04694
1176.92	0.03988
1186.57	0.04227
1196.22	0.04556
1205.86	0.04198
1215.51	0.03324
1225.16	0.02555
1234.8	0.02187
1244.45	0.01912
1254.1	0.01807
1263.74	0.01933
1273.39	0.02358
1283.04	0.02614
1292.68	0.02355
1302.33	0.0176
1311.98	0.01235
1321.62	0.01046
1331.27	0.01121
1340.92	0.01268
1350.56	0.01966
1360.21	0.02247
1369.86	0.01428
1379.5	0.01068
1389.15	0.00853
1398.79	0.00696
1408.44	0.00649
1418.09	0.00819
1427.73	0.01186
1437.38	0.01319
1447.03	0.01675
1456.67	0.01952
1466.32	0.01845
1475.97	0.01372
1485.61	0.00924
1495.26	0.00613
1504.91	0.00437
1514.55	0.00342
1524.2	0.00299
1533.85	0.0027159
1543.49	0.0024669
1553.14	0.002336
1562.79	0.0021523
1572.43	0.002057
1582.08	0.0020392
1591.73	0.0018664
1601.37	0.0018474
1611.02	0.0018836
1620.67	0.0018304
1630.31	0.001777
1639.96	0.001741
1649.6	0.001758
1659.25	0.001658
1668.9	0.001613
1678.54	0.001587
1688.19	0.001566
1697.84	0.001548
1707.48	0.001452
1717.13	0.001449
1726.78	0.001372
1736.42	0.001331
1746.07	0.001288
1755.72	0.001313
1765.36	0.001282
1775.01	0.001302
1784.66	0.001362
1794.3	0.001378
1803.95	0.001325
1813.6	0.001225
1823.24	0.001247
1832.89	0.001363
1842.54	0.001298
1852.18	0.001404
1861.83	0.001422
1871.47	0.001505
1881.12	0.001605
1890.77	0.001781
1900.41	0.00193597
1910.06	0.0020632
1919.71	0.002226
1929.35	0.002425
1939	0.0025081
1948.65	0.0026769
1958.29	0.0027189
1967.94	0.002764
1977.59	0.002709
1987.23	0.0027533
1996.88	0.0027113
2006.53	0.0027272
2016.17	0.0026544
2025.82	0.0026605
2035.47	0.0027784
2045.11	0.0028424
2054.76	0.0029024
2064.41	0.00291
2074.05	0.0028644
2083.7	0.0027951
2093.35	0.0027479
2102.99	0.0026656
2112.64	0.0025974
2122.28	0.002578
2131.93	0.0024429
2141.58	0.0023698
2151.22	0.002249
2160.87	0.0021538
2170.52	0.0020798
2180.16	0.00200933
2189.81	0.00197244
2199.46	0.00193432
2209.1	0.0019141
2218.75	0.0018813
2228.4	0.0018696
2238.04	0.0018584
2247.69	0.001819
2257.34	0.001776
2266.98	0.001734
2276.63	0.001664
2286.28	0.001639
2295.92	0.001618
2305.57	0.001573
2315.22	0.001664
2324.86	0.001609
2334.51	0.001624
2344.16	0.001641
2353.8	0.001605
2363.45	0.001609
2373.09	0.001596
2382.74	0.001579
2392.39	0.001585
2402.03	0.001656
2411.68	0.001544
2421.33	0.00148
2430.97	0.001532
2440.62	0.001504
2450.27	0.001521
2459.91	0.001512
2469.56	0.001488
2479.21	0.001534
2488.85	0.001517
2498.5	0.001518
2508.15	0.001441
2517.79	0.001481
2527.44	0.001414
2537.09	0.001505
2546.73	0.001571
2556.38	0.001551
2566.03	0.001651
2575.67	0.001687
2585.32	0.0019113
2594.96	0.00193122
2604.61	0.0021558
2614.26	0.0020788
2623.9	0.0021139
2633.55	0.0022689
2643.2	0.0024034
2652.84	0.0026462
2662.49	0.0026762
2672.14	0.002798
2681.78	0.00299
2691.43	0.00347
2701.08	0.00433
2710.72	0.00522
2720.37	0.00613
2730.02	0.00647
2739.66	0.00658
2749.31	0.00666
2758.96	0.00717
2768.6	0.00789
2778.25	0.00926
2787.9	0.0114
2797.54	0.01495
2807.19	0.02063
2816.84	0.03016
2826.48	0.04196
2836.13	0.04768
2845.77	0.05109
2855.42	0.05753
2865.07	0.06543
2874.71	0.0733
2884.36	0.07828
2894.01	0.0762
2903.65	0.07281
2913.3	0.07046
2922.95	0.07
2932.59	0.06908
2942.24	0.06367
2951.89	0.05561
2961.53	0.0495
2971.18	0.0446
2980.83	0.03935
2990.47	0.03608
3000.12	0.02779
3009.77	0.01755
3019.41	0.01273
3029.06	0.00962
3038.71	0.00708
3048.35	0.00552
3058	0.00443
3067.64	0.0039
3077.29	0.00325
3086.94	0.0028394
3096.58	0.0023513
3106.23	0.00202384
3115.88	0.001664
3125.52	0.001574
3135.17	0.001372
3144.82	0.000987
3154.46	0.001052
3164.11	0.000951
3173.76	0.00082
3183.4	0.00077
3193.05	0.00068
3202.7	0.00059
3212.34	0.00071
3221.99	0.00054
3231.64	0.00057
3241.28	0.0003
3250.93	0.00054
3260.58	0.00055
3270.22	0.00047
3279.87	0.00039
3289.52	0
3299.16	0.00046
3308.81	0.00037
3318.45	0.00021
3328.1	0.00019
3337.75	0.00033
3347.39	0.00028
3357.04	0.00029
3366.69	0.0003
3376.33	0.00021
3385.98	0.00033
3395.63	0.00029
3405.27	0.00038
3414.92	0.00017
3424.57	0.00026
3434.21	0.00035
3443.86	0.00038
3453.51	0.00037
3463.15	0.00026
3472.8	0.00012
3482.45	0.00028
3492.09	0.00013
3501.74	0.0003
3511.39	0.00024
3521.03	0.0004
3530.68	0.00016
3540.33	0.00033
3549.97	0.00036
3559.62	0.00028
3569.26	0.00035
3578.91	0.00038
3588.56	0.00037
3598.2	0.00033
3607.85	0.00045
3617.5	0.00046
3627.14	0.00059
3636.79	0.00044
3646.44	0.00043
3656.08	0.00047
3665.73	0.00058
3675.38	0.00063
3685.02	0.0007
3694.67	0.00074
3704.32	0.00092
3713.96	0.00059
3723.61	0.00076
3733.26	0.00077
3742.9	0.00077
3752.55	0.00072
3762.2	0.00084
3771.84	0.0008
3781.49	0.00082
3791.13	0.00081
3800.78	0.00069
3810.43	0.00088
3820.07	0.00081
3829.72	0.00083
3839.37	0.00082
3849.01	0.000971
3858.66	0.00084
3868.31	0.00091
3877.95	0.000998
3887.6	0.00088
3897.25	0.001137
3906.89	0.001182
3916.54	0.001251
3926.19	0.001141
3935.83	0.001168
3945.48	0.001297
3955.13	0.001381
3964.77	0.001416
3974.42	0.001351
3984.07	0.00143
3993.71	0.001559
