Infrared Spectrum: Cyclopentyl acetylene
Formula: C 7 H 10
CAS: 54140-30-6
State: gas
Instrument: HP-GC/MS/IRD
Origin: NIST Mass Spectrometry Data Center
1/CM	ABSORBANCE
550	0.000297
562	0.000102
574	0.00012
586	0.00051
598	0.001302
610	0.004728
622	0.016824
634	0.028083
646	0.009987
658	0.002667
670	0.000819
682	0.000531
694	0.000306
706	0.000225
718	0.000204
730	0.000162
742	0.00021
754	0.000219
766	0.000333
778	0.000357
790	0.000351
802	0.000378
814	0.000393
826	0.000393
838	0.000363
850	0.000465
862	0.000483
874	0.000684
886	0.000792
898	0.000882
910	0.000879
922	0.000921
934	0.000846
946	0.000813
958	0.000678
970	0.000447
982	0.000444
994	0.000375
1006	0.000333
1018	0.000333
1030	0.000339
1042	0.000336
1054	0.000393
1066	0.000288
1078	0.00036
1090	0.000138
1102	0.00015
1114	0.000165
1126	0.000207
1138	0.00012
1150	8.7e-05
1162	0.000102
1174	0.000102
1186	5.7e-05
1198	6.9e-05
1210	0.000321
1222	0.00129
1234	0.005361
1246	0.006885
1258	0.005016
1270	0.0012
1282	0.000654
1294	0.000735
1306	0.000858
1318	0.001182
1330	0.001461
1342	0.001341
1354	0.00081
1366	0.000396
1378	0.000267
1390	0.00027
1402	0.000414
1414	0.000567
1426	0.000801
1438	0.001299
1450	0.001854
1462	0.001926
1474	0.001566
1486	0.001077
1498	0.000693
1510	0.000435
1522	0.000327
1534	0.000222
1546	0.000186
1558	0.000147
1570	0.000162
1582	0.000183
1594	0.000177
1606	0.000141
1618	0.000138
1630	0.000132
1642	0.000111
1654	0.00012
1666	0.00012
1678	7.2e-05
1690	0.000105
1702	8.4e-05
1714	7.5e-05
1726	9.6e-05
1738	0.000105
1750	6.6e-05
1762	6.9e-05
1774	6.3e-05
1786	0.000102
1798	7.2e-05
1810	0.000108
1822	5.1e-05
1834	6e-05
1846	5.4e-05
1858	8.7e-05
1870	6.6e-05
1882	9.6e-05
1894	9e-05
1906	8.7e-05
1918	6.9e-05
1930	0.000102
1942	0.000111
1954	9e-05
1966	9e-05
1978	7.2e-05
1990	8.4e-05
2002	0.000114
2014	6.9e-05
2026	0.000123
2038	0.000123
2050	0.000147
2062	0.000201
2074	0.000324
2086	0.000663
2098	0.001284
2110	0.001809
2122	0.001698
2134	0.00099
2146	0.000378
2158	0.000258
2170	0.000159
2182	0.000156
2194	0.000198
2206	0.000159
2218	0.000189
2230	0.000183
2242	0.000153
2254	0.000117
2266	0.000144
2278	0.000183
2290	0.000174
2302	0.000156
2314	0.000132
2326	0.000132
2338	0.000132
2350	0.000138
2362	0.000147
2374	9.6e-05
2386	0.000114
2398	9e-05
2410	9.6e-05
2422	9e-05
2434	4.8e-05
2446	7.5e-05
2458	8.4e-05
2470	8.1e-05
2482	0.000102
2494	9e-06
2506	4.5e-05
2518	0.000135
2530	8.7e-05
2542	0.000123
2554	7.5e-05
2566	0.000117
2578	0.000168
2590	0.000201
2602	0.000183
2614	0.00015
2626	0.000138
2638	0.000183
2650	0.000147
2662	0.000156
2674	0.000225
2686	0.000237
2698	0.000321
2710	0.000258
2722	0.000279
2734	0.000306
2746	0.000294
2758	0.000315
2770	0.000399
2782	0.00045
2794	0.000567
2806	0.000552
2818	0.00075
2830	0.001107
2842	0.00171
2854	0.002982
2866	0.005817
2878	0.008901
2890	0.009837
2902	0.008703
2914	0.009441
2926	0.011919
2938	0.015543
2950	0.0216
2962	0.028005
2974	0.028713
2986	0.017226
2998	0.008136
3010	0.003639
3022	0.001971
3034	0.001254
3046	0.000822
3058	0.000618
3070	0.000492
3082	0.000387
3094	0.000345
3106	0.000294
3118	0.000255
3130	0.000213
3142	0.000252
3154	0.000276
3166	0.000282
3178	0.000162
3190	0.00018
3202	0.000141
3214	0.000219
3226	0.000237
3238	0.000201
3250	0.00024
3262	0.00045
3274	0.001023
3286	0.001755
3298	0.003699
3310	0.006429
3322	0.009756
3334	0.008871
3346	0.0039
3358	0.001296
3370	0.000483
3382	0.000249
3394	0.000219
3406	0.000255
3418	0.000159
3430	0.000177
3442	0.000126
3454	0.000168
3466	0.000144
3478	0.000156
3490	0.000201
3502	0.000141
3514	0.000165
3526	0.000129
3538	9.3e-05
3550	9e-05
3562	7.2e-05
3574	0.000132
3586	0.000123
3598	0
3610	0.000159
3622	0.000183
3634	0.000132
3646	0.00015
3658	3.6e-05
3670	6.6e-05
3682	0.000111
3694	0.000162
3706	0.000165
3718	0.000252
3730	0.000144
3742	0.000234
3754	0.000279
3766	0.00021
3778	0.000213
3790	0.000228
3802	0.000276
3814	0.000108
3826	0.000279
3838	0.000228
