Infrared Spectrum: 3-ANILINO-1,4-DIPHENYL-5-PHENYLIMINO-1,2,4-TRIAZOLINE
Formula: C26 H21 N5
CAS: 5416-43-3
State: SOLID (OIL MULL)
Melting point: 206-208 C
Class: COBLENTZ
Instrument: Not specified, most likely a prism, grating, or hybrid spectrometer.
Sampling: TRANSMISSION
Resolution: 4
Origin: WYANDOTTE CHEMICALS CORP., WYANDOTTE, MICHIGAN, USA
MICROMETERS	TRANSMITTANCE
2.049	0.263
2.08889	0.266
2.12879	0.278
2.16868	0.293
2.20858	0.283
2.24847	0.283
2.28836	0.281
2.32826	0.281
2.36815	0.288
2.40805	0.288
2.44794	0.295
2.48784	0.293
2.52773	0.298
2.56762	0.308
2.60752	0.315
2.64741	0.321
2.68731	0.316
2.7272	0.323
2.76709	0.326
2.80699	0.33
2.84688	0.333
2.88678	0.333
2.92667	0.33
2.96657	0.256
3.00646	0.293
3.04635	0.321
3.08625	0.33
3.12614	0.326
3.16604	0.321
3.20593	0.316
3.24582	0.283
3.28572	0.188
3.32561	0.201
3.36551	0.095
3.4054	0.03
3.4453	0.043
3.48519	0.075
3.52508	0.085
3.56498	0.365
3.60487	0.458
3.64477	0.47
3.68466	0.451
3.72455	0.473
3.76445	0.475
3.80434	0.475
3.84424	0.481
3.88413	0.493
3.92402	0.491
3.96392	0.488
4.00381	0.493
4.04371	0.506
4.0836	0.51
4.1235	0.516
4.16339	0.516
4.20328	0.523
4.24318	0.53
4.28307	0.503
4.32297	0.513
4.36286	0.536
4.40275	0.556
4.44265	0.578
4.48254	0.573
4.52244	0.585
4.56233	0.588
4.60223	0.601
4.64212	0.606
4.68201	0.605
4.72191	0.608
4.7618	0.616
4.8017	0.643
4.84159	0.648
4.88148	0.651
4.92138	0.651
4.96127	0.656
5.00117	0.665
5.04106	0.673
5.08096	0.678
5.12085	0.656
5.16074	0.656
5.20064	0.678
5.24053	0.648
5.28043	0.691
5.32032	0.701
5.36021	0.711
5.40011	0.721
5.44	0.73
5.4799	0.73
5.51979	0.753
5.55968	0.745
5.59958	0.756
5.63947	0.766
5.67937	0.76
5.71926	0.786
5.75916	0.746
5.79905	0.691
5.83894	0.663
5.87884	0.58
5.91873	0.263
5.95863	0.065
5.99852	0.13
6.03841	0.305
6.07831	0.165
6.1182	0.031
6.1581	0.086
6.19799	0.058
6.23789	0.035
6.27778	0.031
6.31767	0.055
6.35757	0.098
6.39746	0.041
6.43736	0.043
6.47725	0.113
6.51714	0.226
6.55704	0.285
6.59693	0.265
6.63683	0.113
6.67672	0.031
6.71662	0.055
6.75651	0.073
6.7964	0.091
6.8363	0.071
6.87619	0.051
6.91609	0.201
6.95598	0.368
6.99587	0.438
7.03577	0.496
7.07566	0.533
7.11556	0.533
7.15545	0.48
7.19534	0.29
7.23524	0.06
7.27513	0.038
7.31503	0.113
7.35492	0.255
7.39482	0.351
7.43471	0.408
7.4746	0.373
7.5145	0.16
7.55439	0.086
7.59429	0.113
7.63418	0.236
7.67407	0.393
7.71397	0.376
7.75386	0.361
7.79376	0.446
7.83365	0.523
7.87355	0.593
7.91344	0.558
7.95333	0.273
7.99323	0.095
8.03312	0.188
8.07302	0.341
8.11291	0.45
8.1528	0.5
8.1927	0.536
8.23259	0.568
8.27249	0.59
8.31238	0.603
8.35228	0.6
8.39217	0.61
8.43206	0.583
8.47196	0.573
8.51185	0.53
8.55175	0.545
8.59164	0.518
8.63153	0.503
8.67143	0.506
8.71132	0.628
8.75122	0.665
8.79111	0.681
8.831	0.683
8.8709	0.581
8.91079	0.37
8.95069	0.543
8.99058	0.573
9.03048	0.588
9.07037	0.613
9.11026	0.55
9.15016	0.366
9.19005	0.388
9.22995	0.563
9.26984	0.55
9.30973	0.461
9.34963	0.338
9.38952	0.508
9.42942	0.641
9.46931	0.688
9.50921	0.701
9.5491	0.708
9.58899	0.715
9.62889	0.633
9.66878	0.67
9.70868	0.461
9.74857	0.366
9.78846	0.626
9.82836	0.69
9.86825	0.638
9.90815	0.471
9.94804	0.635
9.98793	0.61
10.0278	0.571
10.0677	0.598
10.1076	0.665
10.1475	0.725
10.1874	0.735
10.2273	0.736
10.2672	0.743
10.3071	0.728
10.347	0.758
10.3869	0.771
10.4268	0.725
10.4667	0.728
10.5066	0.775
10.5465	0.805
10.5863	0.818
10.6262	0.823
10.6661	0.828
10.706	0.833
10.7459	0.833
10.7858	0.833
10.8257	0.836
10.8656	0.816
10.9055	0.693
10.9454	0.763
10.9853	0.801
11.0252	0.681
11.0651	0.548
11.105	0.65
11.1449	0.416
11.1848	0.235
11.2247	0.423
11.2645	0.556
11.3044	0.611
11.3443	0.66
11.3842	0.563
11.4241	0.67
11.464	0.771
11.5039	0.801
11.5438	0.786
11.5837	0.8
11.6236	0.841
11.6635	0.865
11.7034	0.866
11.7433	0.855
11.7832	0.758
11.8231	0.73
11.863	0.77
11.9029	0.811
11.9427	0.823
11.9826	0.768
12.0225	0.746
12.0624	0.783
12.1023	0.735
12.1422	0.688
12.1821	0.686
12.222	0.756
12.2619	0.835
12.3018	0.88
12.3417	0.886
12.3816	0.911
12.4215	0.928
12.4614	0.936
12.5013	0.94
12.5412	0.94
12.5811	0.94
12.6209	0.94
12.6608	0.938
12.7007	0.938
12.7406	0.93
12.7805	0.923
12.8204	0.911
12.8603	0.896
12.9002	0.856
12.9401	0.715
12.98	0.571
13.0199	0.31
13.0598	0.175
13.0997	0.096
13.1396	0.075
13.1795	0.078
13.2194	0.135
13.2593	0.163
13.2991	0.1
13.339	0.05
13.3789	0.056
13.4188	0.19
13.4587	0.308
13.4986	0.358
13.5385	0.333
13.5784	0.416
13.6183	0.591
13.6582	0.68
13.6981	0.736
13.738	0.776
13.7779	0.818
13.8178	0.831
13.8577	0.841
13.8976	0.855
13.9375	0.88
13.9773	0.9
14.0172	0.888
14.0571	0.818
14.097	0.665
14.1369	0.446
14.1768	0.326
14.2167	0.375
14.2566	0.443
14.2965	0.408
14.3364	0.276
14.3763	0.148
14.4162	0.091
14.4561	0.07
14.496	0.081
14.5359	0.093
14.5758	0.103
14.6157	0.108
14.6556	0.141
14.6954	0.25
14.7353	0.386
14.7752	0.49
14.8151	0.58
14.855	0.613
14.8949	0.643
14.9348	0.671
14.9747	0.686
15.0146	0.683
15.0545	0.648
15.0944	0.588
15.1343	0.528
15.1742	0.461
15.2141	0.456
15.254	0.516
15.2939	0.596
15.3338	0.635
15.3736	0.658
15.4135	0.666
15.4534	0.668
15.4933	0.668
15.5332	0.66
15.5731	0.636
15.613	0.605
15.6529	0.571
15.6928	0.558
15.7327	0.566
15.7726	0.586
15.8125	0.596
15.8524	0.595
15.8923	0.581
15.9322	0.568
15.9721	0.57
16.012	0.57
