Infrared Spectrum: 2-METHYL-1,3-DIPHENYL-2-THIOPSEUDOUREA
Formula: C14 H14 N2 S
CAS: 5416-30-8
State: SOLID (OIL MULL)
Melting point: 107-108 C
Class: COBLENTZ
Instrument: Not specified, most likely a prism, grating, or hybrid spectrometer.
Sampling: TRANSMISSION
Resolution: 4
Origin: WYANDOTTE CHEMICALS CORP., WYANDOTTE, MICHIGAN, USA
MICROMETERS	TRANSMITTANCE
2.018	0.439
2.05781	0.444
2.09763	0.447
2.13744	0.449
2.17726	0.457
2.21707	0.45
2.25689	0.452
2.2967	0.46
2.33652	0.465
2.37633	0.49
2.41614	0.48
2.45596	0.494
2.49577	0.5
2.53559	0.512
2.5754	0.53
2.61522	0.532
2.65503	0.535
2.69485	0.547
2.73466	0.547
2.77447	0.547
2.81429	0.557
2.8541	0.574
2.89392	0.577
2.93373	0.577
2.97355	0.582
3.01336	0.547
3.05318	0.427
3.09299	0.246
3.1328	0.193
3.17262	0.222
3.21243	0.306
3.25225	0.261
3.29206	0.246
3.33188	0.123
3.37169	0.033
3.4115	0.029
3.45132	0.054
3.49113	0.068
3.53095	0.259
3.57076	0.58
3.61058	0.618
3.65039	0.623
3.69021	0.617
3.73002	0.655
3.76983	0.635
3.80965	0.672
3.84946	0.692
3.88928	0.697
3.92909	0.71
3.96891	0.725
4.00872	0.73
4.04854	0.73
4.08835	0.742
4.12816	0.742
4.16798	0.742
4.20779	0.745
4.24761	0.748
4.28742	0.748
4.32724	0.76
4.36705	0.773
4.40687	0.78
4.44668	0.783
4.48649	0.79
4.52631	0.797
4.56612	0.806
4.60594	0.815
4.64575	0.815
4.68557	0.818
4.72538	0.828
4.7652	0.828
4.80501	0.848
4.84482	0.85
4.88464	0.851
4.92445	0.851
4.96427	0.845
5.00408	0.863
5.0439	0.875
5.08371	0.876
5.12353	0.881
5.16334	0.856
5.20315	0.831
5.24297	0.868
5.28278	0.886
5.3226	0.906
5.36241	0.891
5.40223	0.875
5.44204	0.883
5.48186	0.918
5.52167	0.926
5.56148	0.918
5.6013	0.9
5.64111	0.928
5.68093	0.933
5.72074	0.936
5.76056	0.923
5.80037	0.918
5.84019	0.945
5.88	0.945
5.91981	0.931
5.95963	0.926
5.99944	0.893
6.03926	0.856
6.07907	0.793
6.11889	0.627
6.1587	0.294
6.19851	0.118
6.23833	0.168
6.27814	0.043
6.31796	0.046
6.35777	0.109
6.39759	0.191
6.4374	0.247
6.47722	0.276
6.51703	0.126
6.55684	0.089
6.59666	0.186
6.63647	0.181
6.67629	0.083
6.7161	0.226
6.75592	0.252
6.79573	0.173
6.83555	0.226
6.87536	0.216
6.91517	0.074
6.95499	0.183
6.9948	0.42
7.03462	0.474
7.07443	0.562
7.11425	0.605
7.15406	0.605
7.19388	0.524
7.23369	0.366
7.2735	0.45
7.31332	0.542
7.35313	0.647
7.39295	0.67
7.43276	0.685
7.47258	0.587
7.51239	0.397
7.55221	0.569
7.59202	0.525
7.63183	0.371
7.67165	0.372
7.71146	0.264
7.75128	0.301
7.79109	0.472
7.83091	0.417
7.87072	0.459
7.91054	0.612
7.95035	0.66
7.99016	0.65
8.02998	0.608
8.06979	0.562
8.10961	0.405
8.14942	0.252
8.18924	0.445
8.22905	0.617
8.26887	0.67
8.30868	0.708
8.34849	0.713
8.38831	0.685
8.42812	0.643
8.46794	0.499
8.50775	0.427
8.54757	0.48
8.58738	0.427
8.6272	0.259
8.66701	0.138
8.70682	0.104
8.74664	0.199
8.78645	0.366
8.82627	0.522
8.86608	0.625
8.9059	0.685
8.94571	0.725
8.98552	0.75
9.02534	0.772
9.06515	0.788
9.10497	0.801
9.14478	0.806
9.1846	0.81
9.22441	0.811
9.26423	0.685
9.30404	0.547
9.34385	0.567
9.38367	0.738
9.42348	0.803
9.4633	0.83
9.50311	0.836
9.54293	0.845
9.58274	0.855
9.62256	0.851
9.66237	0.82
9.70218	0.587
9.742	0.63
9.78181	0.765
9.82163	0.815
9.86144	0.835
9.90126	0.846
9.94107	0.853
9.98089	0.84
10.0207	0.757
10.0605	0.85
10.1003	0.863
10.1401	0.811
10.18	0.755
10.2198	0.65
10.2596	0.524
10.2994	0.555
10.3392	0.668
10.379	0.702
10.4188	0.702
10.4587	0.73
10.4985	0.797
10.5383	0.82
10.5781	0.828
10.6179	0.818
10.6577	0.743
10.6975	0.554
10.7374	0.282
10.7772	0.237
10.817	0.384
10.8568	0.602
10.8966	0.71
10.9364	0.772
10.9762	0.813
11.0161	0.818
11.0559	0.808
11.0957	0.747
11.1355	0.625
11.1753	0.58
11.2151	0.677
11.2549	0.795
11.2948	0.87
11.3346	0.895
11.3744	0.918
11.4142	0.926
11.454	0.935
11.4938	0.933
11.5336	0.935
11.5735	0.936
11.6133	0.938
11.6531	0.941
11.6929	0.946
11.7327	0.948
11.7725	0.941
11.8123	0.91
11.8522	0.893
11.892	0.9
11.9318	0.9
11.9716	0.865
12.0114	0.816
12.0512	0.823
12.0911	0.818
12.1309	0.816
12.1707	0.846
12.2105	0.881
12.2503	0.911
12.2901	0.921
12.3299	0.943
12.3698	0.961
12.4096	0.98
12.4494	0.991
12.4892	0.99
12.529	0.993
12.5688	0.998
12.6086	0.99
12.6485	0.991
12.6883	0.99
12.7281	0.981
12.7679	0.958
12.8077	0.901
12.8475	0.707
12.8873	0.532
12.9272	0.594
12.967	0.687
13.0068	0.705
13.0466	0.575
13.0864	0.347
13.1262	0.221
13.166	0.154
13.2059	0.163
13.2457	0.311
13.2855	0.47
13.3253	0.567
13.3651	0.602
13.4049	0.599
13.4447	0.564
13.4846	0.505
13.5244	0.424
13.5642	0.341
13.604	0.279
13.6438	0.276
13.6836	0.359
13.7234	0.494
13.7633	0.615
13.8031	0.708
13.8429	0.768
13.8827	0.787
13.9225	0.8
13.9623	0.765
14.0021	0.68
14.042	0.54
14.0818	0.502
14.1216	0.594
14.1614	0.682
14.2012	0.738
14.241	0.767
14.2808	0.745
14.3207	0.658
14.3605	0.51
14.4003	0.322
14.4401	0.189
14.4799	0.141
14.5197	0.149
14.5595	0.186
14.5994	0.261
14.6392	0.369
14.679	0.479
14.7188	0.562
14.7586	0.613
14.7984	0.638
14.8382	0.662
14.8781	0.667
14.9179	0.673
14.9577	0.68
14.9975	0.673
15.0373	0.64
15.0771	0.58
15.1169	0.542
15.1568	0.547
15.1966	0.58
15.2364	0.61
15.2762	0.628
15.316	0.633
15.3558	0.633
15.3956	0.63
15.4355	0.63
15.4753	0.63
15.5151	0.63
15.5549	0.628
15.5947	0.628
15.6345	0.625
15.6743	0.617
15.7142	0.612
15.754	0.608
15.7938	0.607
15.8336	0.6
15.8734	0.589
15.9132	0.58
15.953	0.572
15.9929	0.567
