Infrared Spectrum: P-METHOXY PHENYL ISOCYANATE
Formula: C8 H7 N O2
CAS: 5416-93-3
State: LIQUID
Class: COBLENTZ
Instrument: Not specified, most likely a prism, grating, or hybrid spectrometer.
Sampling: TRANSMISSION
Path length: CAPILLARY
Resolution: 4
Origin: WYANDOTTE CHEMICALS CORP., WYANDOTTE, MICHIGAN, USA
MICROMETERS	TRANSMITTANCE
2.073	0.968
2.11268	0.968
2.15235	0.961
2.19203	0.958
2.23171	0.958
2.27139	0.96
2.31106	0.96
2.35074	0.96
2.39042	0.96
2.43009	0.961
2.46977	0.961
2.50945	0.958
2.54913	0.94
2.5888	0.932
2.62848	0.914
2.66816	0.902
2.70784	0.914
2.74751	0.92
2.78719	0.93
2.82687	0.925
2.86654	0.915
2.90622	0.909
2.9459	0.874
2.98558	0.834
3.02525	0.885
3.06493	0.894
3.10461	0.889
3.14428	0.876
3.18396	0.871
3.22364	0.846
3.26332	0.803
3.30299	0.766
3.34267	0.694
3.38235	0.621
3.42203	0.712
3.4617	0.783
3.50138	0.821
3.54106	0.699
3.58073	0.876
3.62041	0.877
3.66009	0.882
3.69977	0.889
3.73944	0.88
3.77912	0.88
3.8188	0.882
3.85847	0.884
3.89815	0.885
3.93783	0.877
3.97751	0.871
4.01718	0.879
4.05686	0.867
4.09654	0.864
4.13621	0.846
4.17589	0.821
4.21557	0.747
4.25525	0.604
4.29492	0.571
4.3346	0.485
4.37428	0.252
4.41396	0.023
4.45363	0.023
4.49331	0.067
4.53299	0.15
4.57266	0.216
4.61234	0.416
4.65202	0.611
4.6917	0.644
4.73137	0.694
4.77105	0.819
4.81073	0.844
4.8504	0.842
4.89008	0.808
4.92976	0.811
4.96944	0.852
5.00911	0.877
5.04879	0.872
5.08847	0.867
5.12815	0.877
5.16782	0.867
5.2075	0.866
5.24718	0.872
5.28685	0.866
5.32653	0.861
5.36621	0.818
5.40589	0.839
5.44556	0.859
5.48524	0.866
5.52492	0.869
5.56459	0.866
5.60427	0.867
5.64395	0.859
5.68363	0.867
5.7233	0.859
5.76298	0.861
5.80266	0.819
5.84233	0.831
5.88201	0.842
5.92169	0.839
5.96137	0.819
6.00104	0.808
6.04072	0.786
6.0804	0.755
6.12008	0.747
6.15975	0.629
6.19943	0.702
6.23911	0.714
6.27878	0.566
6.31846	0.753
6.35814	0.748
6.39782	0.626
6.43749	0.457
6.47717	0.171
6.51685	0.092
6.55652	0.163
6.5962	0.332
6.63588	0.497
6.67556	0.601
6.71523	0.614
6.75491	0.51
6.79459	0.276
6.83426	0.352
6.87394	0.495
6.91362	0.386
6.9533	0.464
6.99297	0.652
7.03265	0.687
7.07233	0.738
7.11201	0.77
7.15168	0.786
7.19136	0.798
7.23104	0.806
7.27071	0.811
7.31039	0.813
7.35007	0.814
7.38975	0.811
7.42942	0.803
7.4691	0.795
7.50878	0.778
7.54845	0.76
7.58813	0.737
7.62781	0.69
7.66749	0.507
7.70716	0.287
7.74684	0.229
7.78652	0.474
7.8262	0.604
7.86587	0.609
7.90555	0.507
7.94523	0.233
7.9849	0.044
8.02458	0.095
8.06426	0.3
8.10394	0.467
8.14361	0.59
8.18329	0.651
8.22297	0.71
8.26264	0.723
8.30232	0.733
8.342	0.732
8.38168	0.692
8.42135	0.504
8.46103	0.36
8.50071	0.421
8.54038	0.33
8.58006	0.614
8.61974	0.69
8.65942	0.672
8.69909	0.644
8.73877	0.6
8.77845	0.581
8.81813	0.604
8.8578	0.628
8.89748	0.642
8.93716	0.628
8.97683	0.517
9.01651	0.366
9.05619	0.561
9.09587	0.647
9.13554	0.692
9.17522	0.714
9.2149	0.73
9.25457	0.738
9.29425	0.735
9.33393	0.732
9.37361	0.73
9.41328	0.719
9.45296	0.705
9.49264	0.689
9.53232	0.6
9.57199	0.471
9.61167	0.284
9.65135	0.214
9.69102	0.209
9.7307	0.307
9.77038	0.447
9.81006	0.601
9.84973	0.646
9.88941	0.664
9.92909	0.68
9.96876	0.743
10.0084	0.761
10.0481	0.778
10.0878	0.781
10.1275	0.785
10.1672	0.786
10.2068	0.795
10.2465	0.798
10.2862	0.796
10.3259	0.798
10.3655	0.8
10.4052	0.8
10.4449	0.791
10.4846	0.785
10.5242	0.781
10.5639	0.776
10.6036	0.776
10.6433	0.781
10.683	0.781
10.7226	0.778
10.7623	0.778
10.802	0.763
10.8417	0.765
10.8813	0.778
10.921	0.785
10.9607	0.786
11.0004	0.79
11.04	0.795
11.0797	0.795
11.1194	0.796
11.1591	0.796
11.1988	0.793
11.2384	0.788
11.2781	0.778
11.3178	0.781
11.3575	0.781
11.3971	0.778
11.4368	0.78
11.4765	0.781
11.5162	0.78
11.5559	0.778
11.5955	0.771
11.6352	0.776
11.6749	0.77
11.7146	0.766
11.7542	0.752
11.7939	0.732
11.8336	0.699
11.8733	0.636
11.9129	0.555
11.9526	0.413
11.9923	0.261
12.032	0.176
12.0717	0.128
12.1113	0.123
12.151	0.191
12.1907	0.342
12.2304	0.479
12.27	0.576
12.3097	0.603
12.3494	0.603
12.3891	0.621
12.4288	0.626
12.4684	0.621
12.5081	0.633
12.5478	0.662
12.5875	0.695
12.6271	0.733
12.6668	0.758
12.7065	0.775
12.7462	0.776
12.7858	0.785
12.8255	0.788
12.8652	0.788
12.9049	0.788
12.9446	0.79
12.9842	0.793
13.0239	0.791
13.0636	0.786
13.1033	0.783
13.1429	0.78
13.1826	0.78
13.2223	0.776
13.262	0.775
13.3016	0.775
13.3413	0.78
13.381	0.783
13.4207	0.781
13.4604	0.78
13.5	0.78
13.5397	0.786
13.5794	0.788
13.6191	0.781
13.6587	0.781
13.6984	0.78
13.7381	0.778
13.7778	0.775
13.8175	0.766
13.8571	0.761
13.8968	0.753
13.9365	0.748
13.9762	0.737
14.0158	0.717
14.0555	0.707
14.0952	0.69
14.1349	0.664
14.1745	0.644
14.2142	0.631
14.2539	0.621
14.2936	0.614
14.3333	0.609
14.3729	0.606
14.4126	0.611
14.4523	0.609
14.492	0.618
14.5316	0.628
14.5713	0.641
14.611	0.666
14.6507	0.669
14.6904	0.687
14.73	0.697
14.7697	0.702
14.8094	0.705
14.8491	0.717
14.8887	0.732
14.9284	0.74
14.9681	0.737
15.0078	0.737
15.0474	0.728
15.0871	0.73
15.1268	0.738
15.1665	0.753
15.2062	0.757
15.2458	0.753
15.2855	0.753
15.3252	0.748
15.3649	0.738
15.4045	0.74
15.4442	0.74
15.4839	0.738
15.5236	0.72
15.5633	0.712
15.6029	0.7
15.6426	0.685
15.6823	0.664
15.722	0.666
15.7616	0.687
15.8013	0.692
15.841	0.707
15.8807	0.7
15.9203	0.689
15.96	0.682
15.9997	0.68
