Infrared Spectrum: 2-AMINO-3-NAPHTHOL
Formula: C10 H9 N O
CAS: 5417-63-0
State: SOLID (1.0% IN KBr PELLET)
Class: COBLENTZ
Instrument: Not specified, most likely a prism, grating, or hybrid spectrometer.
Sampling: TRANSMISSION
Path length: 0.0355 CM THICK
Resolution: 4
Origin: ANDERSON PHYSICAL LABORATORY
1/CM	TRANSMITTANCE
677.239	0.626
685.635	0.611
694.03	0.709
702.426	0.6761
710.821	0.629
719.217	0.689
727.612	0.671
736.008	0.575
744.403	0.109
752.799	0.296
761.195	0.463
769.59	0.5718
777.986	0.71
786.381	0.706
794.777	0.674
803.172	0.637
811.568	0.595
819.963	0.521
828.359	0.463
836.755	0.353
845.15	0.253
853.546	0.3739
861.941	0.3221
870.337	0.172
878.732	0.103
887.128	0.2889
895.523	0.311
903.919	0.319
912.315	0.476
920.71	0.628
929.106	0.632
937.501	0.719
945.897	0.76
954.292	0.4931
962.688	0.7909
971.084	0.866
979.479	0.884
987.875	0.886
996.27	0.899
1004.67	0.904
1013.06	0.902
1021.46	0.862
1029.85	0.8689
1038.25	0.913
1046.64	0.913
1055.04	0.908
1063.43	0.905
1071.83	0.896
1080.23	0.884
1088.62	0.868
1097.02	0.844
1105.41	0.743
1113.81	0.692
1122.2	0.727
1130.6	0.761
1138.99	0.76
1147.39	0.7
1155.79	0.536
1164.18	0.571
1172.58	0.388
1180.97	0.269
1189.37	0.4189
1197.76	0.646
1206.16	0.713
1214.55	0.739
1222.95	0.703
1231.35	0.604
1239.74	0.49
1248.14	0.278
1256.53	0.176
1264.93	0.317
1273.32	0.1281
1281.72	0.1269
1290.11	0.3849
1298.51	0.631
1306.91	0.829
1315.3	0.859
1323.7	0.835
1332.09	0.787
1340.49	0.737
1348.88	0.718
1357.28	0.739
1365.67	0.682
1374.07	0.536
1382.47	0.644
1390.86	0.62
1399.26	0.527
1407.65	0.455
1416.05	0.37
1424.44	0.302
1432.84	0.262
1441.23	0.214
1449.63	0.3219
1458.03	0.493
1466.42	0.431
1474.82	0.221
1483.21	0.286
1491.61	0.223
1500	0.5001
1508.4	0.611
1516.79	0.53
1525.19	0.2921
1533.59	0.184
1541.98	0.293
1550.38	0.53
1558.77	0.629
1567.17	0.619
1575.56	0.556
1583.96	0.506
1592.35	0.479
1600.75	0.455
1609.15	0.371
1617.54	0.368
1625.94	0.44
1634.33	0.38
1642.73	0.358
1651.12	0.479
1659.52	0.613
1667.91	0.73
1676.31	0.746
1684.71	0.754
1693.1	0.758
1701.5	0.757
1709.89	0.757
1718.29	0.766
1726.68	0.785
1735.08	0.802
1743.47	0.799
1751.87	0.794
1760.27	0.796
1768.66	0.797
1777.06	0.794
1785.45	0.797
1793.85	0.797
1802.24	0.794
1810.64	0.787
1819.03	0.778
1827.43	0.772
1835.83	0.772
1844.22	0.773
1852.62	0.775
1861.01	0.775
1869.41	0.776
1877.8	0.776
1886.2	0.772
1894.59	0.763
1902.99	0.749
1911.39	0.742
1919.78	0.737
1928.18	0.715
1936.57	0.719
1944.97	0.725
1953.36	0.709
1961.76	0.712
1970.15	0.718
1978.55	0.719
1986.95	0.719
1995.34	0.716
2003.74	0.713
2012.13	0.7128
2020.53	0.711
2028.92	0.7093
2037.32	0.707
2045.71	0.706
2054.11	0.704
2062.51	0.704
2070.9	0.703
2079.3	0.6965
2087.69	0.6885
2096.09	0.6756
2104.48	0.671
2112.88	0.6665
2121.27	0.654
2129.67	0.649
2138.07	0.6401
2146.46	0.638
2154.86	0.6375
2163.25	0.6355
2171.65	0.632
2180.04	0.629
2188.44	0.6245
2196.83	0.6168
2205.23	0.613
2213.63	0.61
2222.02	0.6015
2230.42	0.5905
2238.81	0.586
2247.21	0.5808
2255.6	0.5765
2264	0.5717
2272.39	0.565
2280.79	0.5615
2289.19	0.5571
2297.58	0.5485
2305.98	0.544
2314.37	0.5405
2322.77	0.5375
2331.16	0.5308
2339.56	0.529
2347.95	0.5208
2356.35	0.519
2364.75	0.517
2373.14	0.511
2381.54	0.5028
2389.93	0.5
2398.33	0.4975
2406.72	0.4851
2415.12	0.4803
2423.51	0.474
2431.91	0.4678
2440.31	0.4581
2448.7	0.4512
2457.1	0.447
2465.49	0.4408
2473.89	0.437
2482.28	0.4248
2490.68	0.4215
2499.07	0.4168
2507.47	0.412
2515.87	0.4023
2524.26	0.3975
2532.66	0.3913
2541.05	0.386
2549.45	0.3771
2557.84	0.37
2566.24	0.3673
2574.63	0.365
2583.03	0.364
2591.43	0.364
2599.82	0.361
2608.22	0.355
2616.61	0.3483
2625.01	0.342
2633.4	0.3403
2641.8	0.338
2650.2	0.3385
2658.59	0.343
2666.99	0.3485
2675.38	0.358
2683.78	0.359
2692.17	0.3565
2700.57	0.3498
2708.96	0.344
2717.36	0.337
2725.76	0.336
2734.15	0.335
2742.55	0.335
2750.94	0.3372
2759.34	0.341
2767.73	0.3455
2776.13	0.349
2784.52	0.349
2792.92	0.3495
2801.32	0.35
2809.71	0.353
2818.11	0.356
2826.5	0.366
2834.9	0.3707
2843.29	0.374
2851.69	0.3775
2860.08	0.378
2868.48	0.3738
2876.88	0.37
2885.27	0.3613
2893.67	0.3525
2902.06	0.3425
2910.46	0.338
2918.85	0.3365
2927.25	0.335
2935.64	0.335
2944.04	0.334
2952.44	0.332
2960.83	0.331
2969.23	0.3295
2977.62	0.329
2986.02	0.3258
2994.41	0.3195
3002.81	0.3138
3011.2	0.305
3019.6	0.3018
3028	0.2975
3036.39	0.2923
3044.79	0.29
3053.18	0.2898
3061.58	0.2865
3069.97	0.286
3078.37	0.284
3086.76	0.2885
3095.16	0.3025
3103.56	0.3117
3111.95	0.3289
3120.35	0.3418
3128.74	0.348
3137.14	0.3515
3145.53	0.353
3153.93	0.353
3162.32	0.3525
3170.72	0.35
3179.12	0.35
3187.51	0.349
3195.91	0.349
3204.3	0.341
3212.7	0.335
3221.09	0.3266
3229.49	0.3175
3237.88	0.3085
3246.28	0.299
3254.68	0.2681
3263.07	0.2481
3271.47	0.2215
3279.86	0.1721
3288.26	0.1413
3296.65	0.138
3305.05	0.1577
3313.44	0.184
3321.84	0.2139
3330.24	0.2624
3338.63	0.2844
3347.03	0.295
3355.42	0.2938
3363.82	0.2756
3372.21	0.2526
3380.61	0.238
3389	0.209
3397.4	0.1935
3405.8	0.262
3414.19	0.3396
3422.59	0.3873
3430.98	0.4289
3439.38	0.4505
3447.77	0.454
3456.17	0.4543
3464.56	0.462
3472.96	0.4737
3481.36	0.5107
3489.75	0.5247
3498.15	0.531
3506.54	0.5345
3514.94	0.538
3523.33	0.5431
3531.73	0.561
3540.12	0.5867
3548.52	0.596
3556.92	0.6099
3565.31	0.618
3573.71	0.6215
3582.1	0.626
3590.5	0.6312
3598.89	0.634
3607.29	0.6348
3615.68	0.637
3624.08	0.6392
3632.48	0.6475
3640.87	0.65
3649.27	0.652
3657.66	0.652
3666.06	0.652
3674.45	0.6527
3682.85	0.655
3691.24	0.6552
3699.64	0.657
3708.04	0.658
3716.43	0.656
3724.83	0.656
3733.22	0.655
3741.62	0.653
3750.01	0.652
3758.41	0.652
3766.8	0.6495
3775.2	0.6463
3783.6	0.644
3791.99	0.6395
3800.39	0.6345
3808.78	0.6325
3817.18	0.629
3825.57	0.626
3833.97	0.6255
3842.36	0.623
3850.76	0.62
3859.16	0.619
3867.55	0.619
3875.95	0.617
3884.34	0.617
3892.74	0.617
3901.13	0.6165
3909.53	0.616
3917.92	0.613
3926.32	0.6078
3934.72	0.605
3943.11	0.605
3951.51	0.598
3959.9	0.5885
3968.3	0.586
3976.69	0.586
3985.09	0.586
