Infrared Spectrum: Purine, 6-(ethylthio)-
Formula: C7 H8 N4 S
CAS: 5417-84-5
State: SOLID (0.7 mg / 650 mg KBr DISC)
Class: COBLENTZ III
Instrument: PERKIN-ELMER 21 (GRATING)
Instrument parameters: FILTER CHANGE ABOUT 1080 CM^-^1
Sampling: TRANSMISSION
Resolution: 2
Origin: SOUTHERN RESEARCH INSTITUTE
1/CM	TRANSMITTANCE
600.66	0.706
609.682	0.689
618.704	0.6597
627.726	0.6365
636.748	0.6008
645.77	0.8303
654.792	0.8315
663.814	0.8153
672.837	0.7674
681.859	0.818
690.881	0.8027
699.903	0.787
708.925	0.7714
717.947	0.7557
726.969	0.74
735.991	0.7244
745.013	0.7101
754.035	0.6925
763.057	0.6739
772.079	0.6244
781.101	0.6159
790.123	0.5124
799.146	0.6292
808.168	0.6298
817.19	0.61
826.212	0.5628
835.234	0.4235
844.256	0.3201
853.278	0.5971
862.3	0.5823
871.322	0.5499
880.344	0.5198
889.366	0.5409
898.388	0.5711
907.41	0.5494
916.432	0.4584
925.455	0.4461
934.477	0.4234
943.499	0.3836
952.521	0.3926
961.543	0.6164
970.565	0.6156
979.587	0.6208
988.609	0.6162
997.631	0.5833
1006.65	0.6547
1015.68	0.665
1024.7	0.663
1033.72	0.6583
1042.74	0.6485
1051.76	0.6399
1060.79	0.6545
1069.81	0.6235
1078.83	0.6721
1087.85	0.6452
1096.87	0.6424
1105.9	0.6393
1114.92	0.634
1123.94	0.6133
1132.96	0.5768
1141.98	0.5485
1151.01	0.5477
1160.03	0.5674
1169.05	0.6239
1178.07	0.6059
1187.09	0.607
1196.12	0.6113
1205.14	0.5852
1214.16	0.4903
1223.18	0.3931
1232.2	0.3119
1241.23	0.1549
1250.25	0.519
1259.27	0.5753
1268.29	0.617
1277.32	0.6302
1286.34	0.6125
1295.36	0.6361
1304.38	0.6473
1313.4	0.6071
1322.43	0.4763
1331.45	0.5013
1340.47	0.5901
1349.49	0.6446
1358.51	0.6214
1367.54	0.5809
1376.56	0.4193
1385.58	0.267
1394.6	0.3782
1403.62	0.6397
1412.65	0.6366
1421.67	0.6044
1430.69	0.4735
1439.71	0.4916
1448.73	0.5689
1457.76	0.5269
1466.78	0.5163
1475.8	0.5101
1484.82	0.605
1493.84	0.6365
1502.87	0.638
1511.89	0.6224
1520.91	0.5981
1529.93	0.5897
1538.96	0.5722
1547.98	0.518
1557	0.4666
1566.02	0.2115
1575.04	0.0802
1584.07	0.3335
1593.09	0.3048
1602.11	0.5479
1611.13	0.5943
1620.15	0.634
1629.18	0.6431
1638.2	0.6471
1647.22	0.6392
1656.24	0.6469
1665.26	0.6493
1674.29	0.6474
1683.31	0.6455
1692.33	0.6407
1701.35	0.6341
1710.37	0.6267
1719.4	0.6194
1728.42	0.612
1737.44	0.6039
1746.46	0.5912
1755.48	0.5809
1764.51	0.5726
1773.53	0.5665
1782.55	0.5649
1791.57	0.5682
1800.6	0.5709
1809.62	0.57
1818.64	0.5687
1827.66	0.5723
1836.68	0.579
1845.71	0.5894
1854.73	0.5852
1863.75	0.5797
1872.77	0.5923
1881.79	0.6039
1890.82	0.6069
1899.84	0.6062
1908.86	0.6129
1917.88	0.6103
1926.9	0.6166
1935.93	0.6225
1944.95	0.6235
1953.97	0.6241
1962.99	0.6249
1972.01	0.623
1981.04	0.6284
1990.06	0.6333
1999.08	0.6341
2008.1	0.6334
2017.12	0.6319
2026.15	0.63
2035.17	0.6282
2044.19	0.6252
2053.21	0.6228
2062.24	0.6211
2071.26	0.6195
2080.28	0.6176
2089.3	0.6151
2098.32	0.6126
2107.35	0.611
2116.37	0.6078
2125.39	0.6041
2134.41	0.5999
2143.43	0.5949
2152.46	0.5897
2161.48	0.5844
2170.5	0.5791
2179.52	0.574
2188.54	0.5694
2197.57	0.565
2206.59	0.559
2215.61	0.5524
2224.63	0.5459
2233.65	0.5398
2242.68	0.5337
2251.7	0.5289
2260.72	0.5245
2269.74	0.5201
2278.77	0.5156
2287.79	0.511
2296.81	0.5062
2305.83	0.5013
2314.85	0.4902
2323.88	0.4755
2332.9	0.4682
2341.92	0.4632
2350.94	0.4595
2359.96	0.4568
2368.99	0.4548
2378.01	0.4532
2387.03	0.4528
2396.05	0.4523
2405.07	0.4517
2414.1	0.4511
2423.12	0.4488
2432.14	0.4463
2441.16	0.4413
2450.18	0.4355
2459.21	0.4264
2468.23	0.4175
2477.25	0.4096
2486.27	0.4017
2495.29	0.3939
2504.32	0.3879
2513.34	0.3828
2522.36	0.3781
2531.38	0.3743
2540.41	0.3713
2549.43	0.3721
2558.45	0.3776
2567.47	0.3882
2576.49	0.4044
2585.52	0.4183
2594.54	0.4158
2603.56	0.4081
2612.58	0.4002
2621.6	0.3923
2630.63	0.3847
2639.65	0.3839
2648.67	0.3863
2657.69	0.3896
2666.71	0.3988
2675.74	0.4068
2684.76	0.4116
2693.78	0.4138
2702.8	0.4166
2711.82	0.431
2720.85	0.4449
2729.87	0.4408
2738.89	0.4224
2747.91	0.4079
2756.93	0.4035
2765.96	0.4137
2774.98	0.4249
2784	0.4363
2793.02	0.4471
2802.05	0.4578
2811.07	0.469
2820.09	0.4812
2829.11	0.4916
2838.13	0.4983
2847.16	0.4997
2856.18	0.5001
2865.2	0.5011
2874.22	0.5019
2883.24	0.5022
2892.27	0.4987
2901.29	0.4787
2910.31	0.4363
2919.33	0.4249
2928.35	0.429
2937.38	0.4352
2946.4	0.4436
2955.42	0.4586
2964.44	0.4801
2973.46	0.5076
2982.49	0.5315
2991.51	0.5501
3000.53	0.5544
3009.55	0.5494
3018.57	0.5371
3027.6	0.5219
3036.62	0.5034
3045.64	0.4847
3054.66	0.4824
3063.69	0.5068
3072.71	0.535
3081.73	0.5475
3090.75	0.5485
3099.77	0.5553
3108.8	0.5707
3117.82	0.5852
3126.84	0.59
3135.86	0.5916
3144.88	0.5927
3153.91	0.594
3162.93	0.5963
3171.95	0.598
3180.97	0.6052
3189.99	0.6109
3199.02	0.6135
3208.04	0.6161
3217.06	0.6184
3226.08	0.6197
3235.1	0.62
3244.13	0.6204
3253.15	0.6237
3262.17	0.6206
3271.19	0.6202
3280.21	0.6155
3289.24	0.6148
3298.26	0.6161
3307.28	0.6173
3316.3	0.612
3325.33	0.6033
3334.35	0.5983
3343.37	0.5954
3352.39	0.593
3361.41	0.5907
3370.44	0.5886
3379.46	0.5867
3388.48	0.585
3397.5	0.5759
3406.52	0.5748
3415.55	0.577
3424.57	0.5785
3433.59	0.58
3442.61	0.5814
3451.63	0.5828
3460.66	0.5835
3469.68	0.5841
3478.7	0.5889
3487.72	0.5897
3496.74	0.5922
3505.77	0.5957
3514.79	0.6012
3523.81	0.6045
3532.83	0.6086
3541.85	0.6123
3550.88	0.6186
3559.9	0.6239
3568.92	0.6254
3577.94	0.6259
3586.97	0.6291
3595.99	0.6349
3605.01	0.6404
3614.03	0.6439
3623.05	0.6463
3632.08	0.6477
3641.1	0.6488
3650.12	0.6483
3659.14	0.6475
3668.16	0.6457
3677.19	0.6437
3686.21	0.6417
3695.23	0.6406
3704.25	0.6402
3713.27	0.641
3722.3	0.6422
3731.32	0.6432
3740.34	0.6443
3749.36	0.6453
3758.38	0.6463
3767.41	0.6469
3776.43	0.6468
3785.45	0.6457
3794.47	0.6449
3803.49	0.648
3812.52	0.6457
3821.54	0.6379
3830.56	0.6357
3839.58	0.6349
3848.61	0.6348
3857.63	0.6348
3866.65	0.6349
3875.67	0.6349
3884.69	0.6347
3893.72	0.6344
3902.74	0.6343
3911.76	0.6342
3920.78	0.6341
3929.8	0.6341
3938.83	0.634
3947.85	0.6341
3956.87	0.6345
3965.89	0.6354
3974.91	0.636
3983.94	0.6365
3992.96	0.6368
4001.98	0.6371
