Infrared Spectrum: 4-DIETHYLAMINO-2-METHYL ACETANILIDE
Formula: C13 H20 N2 O
CAS: 5417-52-7
State: SOLID (MINERAL OIL MULL)
Melting point: 115-116 C
Class: COBLENTZ
Instrument: Not specified, most likely a prism, grating, or hybrid spectrometer.
Sampling: TRANSMISSION
Resolution: 4
Origin: WYANDOTTE CHEMICALS CORP., WYANDOTTE, MICHIGAN, USA
MICROMETERS	TRANSMITTANCE
2.029	0.487
2.0689	0.495
2.10881	0.502
2.14871	0.512
2.18862	0.519
2.22852	0.512
2.26843	0.502
2.30833	0.5
2.34824	0.514
2.38814	0.532
2.42804	0.532
2.46795	0.534
2.50785	0.547
2.54776	0.559
2.58766	0.565
2.62757	0.565
2.66747	0.569
2.70738	0.585
2.74728	0.597
2.78718	0.607
2.82709	0.616
2.86699	0.624
2.9069	0.624
2.9468	0.626
2.98671	0.627
3.02661	0.545
3.06652	0.272
3.10642	0.175
3.14632	0.233
3.18623	0.295
3.22613	0.353
3.26604	0.342
3.30594	0.292
3.34585	0.185
3.38575	0.05
3.42566	0.033
3.46556	0.03
3.50546	0.03
3.54537	0.103
3.58527	0.367
3.62518	0.519
3.66508	0.587
3.70499	0.609
3.74489	0.637
3.78479	0.649
3.8247	0.672
3.8646	0.682
3.90451	0.701
3.94441	0.719
3.98432	0.727
4.02422	0.736
4.06413	0.751
4.10403	0.754
4.14393	0.754
4.18384	0.756
4.22374	0.759
4.26365	0.759
4.30355	0.759
4.34346	0.764
4.38336	0.779
4.42327	0.804
4.46317	0.816
4.50307	0.819
4.54298	0.826
4.58288	0.829
4.62279	0.836
4.66269	0.846
4.7026	0.858
4.7425	0.866
4.78241	0.874
4.82231	0.878
4.86221	0.879
4.90212	0.879
4.94202	0.883
4.98193	0.904
5.02183	0.913
5.06174	0.913
5.10164	0.921
5.14155	0.924
5.18145	0.931
5.22135	0.931
5.26126	0.933
5.30116	0.934
5.34107	0.939
5.38097	0.944
5.42088	0.909
5.46078	0.921
5.50069	0.941
5.54059	0.953
5.58049	0.948
5.6204	0.951
5.6603	0.929
5.70021	0.931
5.74011	0.916
5.78002	0.886
5.81992	0.833
5.85983	0.791
5.89973	0.732
5.93963	0.575
5.97954	0.352
6.01944	0.207
6.05935	0.116
6.09925	0.06
6.13916	0.061
6.17906	0.045
6.21897	0.15
6.25887	0.218
6.29877	0.25
6.33868	0.352
6.37858	0.348
6.41849	0.222
6.45839	0.156
6.4983	0.088
6.5382	0.068
6.57811	0.063
6.61801	0.06
6.65791	0.086
6.69782	0.161
6.73772	0.183
6.77763	0.128
6.81753	0.05
6.85744	0.031
6.89734	0.051
6.93724	0.081
6.97715	0.098
7.01705	0.103
7.05696	0.15
7.09686	0.181
7.13677	0.156
7.17667	0.1
7.21658	0.078
7.25648	0.051
7.29638	0.036
7.33629	0.061
7.37619	0.07
7.4161	0.128
7.456	0.151
7.49591	0.28
7.53581	0.378
7.57572	0.393
7.61562	0.273
7.65552	0.26
7.69543	0.141
7.73533	0.1
7.77524	0.207
7.81514	0.247
7.85505	0.298
7.89495	0.232
7.93486	0.071
7.97476	0.073
8.01466	0.185
8.05457	0.288
8.09447	0.407
8.13438	0.469
8.17428	0.504
8.21419	0.495
8.25409	0.405
8.294	0.222
8.3339	0.121
8.3738	0.196
8.41371	0.405
8.45361	0.5
8.49352	0.567
8.53342	0.597
8.57333	0.604
8.61323	0.584
8.65314	0.5
8.69304	0.527
8.73294	0.619
8.77285	0.689
8.81275	0.719
8.85266	0.724
8.89256	0.654
8.93247	0.43
8.97237	0.517
9.01228	0.664
9.05218	0.674
9.09208	0.572
9.13199	0.342
9.17189	0.388
9.2118	0.529
9.2517	0.439
9.29161	0.35
9.33151	0.352
9.37142	0.398
9.41132	0.529
9.45122	0.612
9.49113	0.647
9.53103	0.637
9.57094	0.547
9.61084	0.368
9.65075	0.262
9.69065	0.24
9.73056	0.29
9.77046	0.402
9.81036	0.442
9.85027	0.358
9.89017	0.352
9.93008	0.45
9.96998	0.537
10.0099	0.597
10.0498	0.631
10.0897	0.666
10.1296	0.701
10.1695	0.722
10.2094	0.729
10.2493	0.719
10.2892	0.697
10.3291	0.606
10.369	0.482
10.4089	0.624
10.4488	0.737
10.4887	0.764
10.5286	0.791
10.5685	0.804
10.6085	0.811
10.6484	0.814
10.6883	0.813
10.7282	0.799
10.7681	0.712
10.808	0.754
10.8479	0.803
10.8878	0.777
10.9277	0.757
10.9676	0.809
11.0075	0.854
11.0474	0.869
11.0873	0.879
11.1272	0.881
11.1671	0.879
11.207	0.888
11.2469	0.896
11.2868	0.904
11.3267	0.909
11.3666	0.914
11.4065	0.913
11.4464	0.918
11.4864	0.919
11.5263	0.913
11.5662	0.899
11.6061	0.864
11.646	0.868
11.6859	0.884
11.7258	0.903
11.7657	0.894
11.8056	0.891
11.8455	0.869
11.8854	0.853
11.9253	0.836
11.9652	0.794
12.0051	0.721
12.045	0.611
12.0849	0.368
12.1248	0.17
12.1647	0.178
12.2046	0.487
12.2445	0.567
12.2844	0.542
12.3243	0.54
12.3642	0.607
12.4042	0.616
12.4441	0.514
12.484	0.333
12.5239	0.183
12.5638	0.202
12.6037	0.305
12.6436	0.36
12.6835	0.412
12.7234	0.353
12.7633	0.355
12.8032	0.509
12.8431	0.639
12.883	0.732
12.9229	0.766
12.9628	0.781
13.0027	0.797
13.0426	0.813
13.0825	0.818
13.1224	0.818
13.1623	0.818
13.2022	0.816
13.2421	0.811
13.282	0.803
13.322	0.784
13.3619	0.776
13.4018	0.759
13.4417	0.744
13.4816	0.729
13.5215	0.704
13.5614	0.689
13.6013	0.664
13.6412	0.639
13.6811	0.627
13.721	0.599
13.7609	0.572
13.8008	0.537
13.8407	0.497
13.8806	0.457
13.9205	0.422
13.9604	0.395
14.0003	0.368
14.0402	0.358
14.0801	0.343
14.12	0.325
14.1599	0.323
14.1999	0.35
14.2398	0.383
14.2797	0.432
14.3196	0.477
14.3595	0.515
14.3994	0.517
14.4393	0.472
14.4792	0.462
14.5191	0.499
14.559	0.554
14.5989	0.597
14.6388	0.632
14.6787	0.656
14.7186	0.681
14.7585	0.699
14.7984	0.716
14.8383	0.727
14.8782	0.734
14.9181	0.752
14.958	0.754
14.9979	0.746
15.0378	0.721
15.0777	0.704
15.1177	0.721
15.1576	0.736
15.1975	0.754
15.2374	0.762
15.2773	0.756
15.3172	0.767
15.3571	0.771
15.397	0.767
15.4369	0.762
15.4768	0.757
15.5167	0.754
15.5566	0.752
15.5965	0.746
15.6364	0.732
15.6763	0.717
15.7162	0.712
15.7561	0.707
15.796	0.699
15.8359	0.682
15.8758	0.677
15.9157	0.666
15.9556	0.647
