Infrared Spectrum: N-n-AMYL-P-TOLUIDINE
Formula: C12 H19 N
CAS: 5417-68-5
State: LIQUID
Boiling point: 140-142 C AT 13 mmHg
Class: COBLENTZ
Instrument: Not specified, most likely a prism, grating, or hybrid spectrometer.
Sampling: TRANSMISSION
Path length: 0.003 CM
Resolution: 4
Origin: WYANDOTTE CHEMICALS CORP., WYANDOTTE, MICHIGAN, USA
MICROMETERS	TRANSMITTANCE
2.034	0.977
2.07484	0.976
2.11567	0.971
2.15651	0.981
2.19734	0.967
2.23818	0.921
2.27901	0.935
2.31985	0.947
2.36068	0.945
2.40152	0.933
2.44235	0.938
2.48319	0.937
2.52403	0.942
2.56486	0.938
2.6057	0.942
2.64653	0.957
2.68737	0.954
2.7282	0.945
2.76904	0.949
2.80987	0.945
2.85071	0.932
2.89154	0.904
2.93238	0.814
2.97322	0.531
3.01405	0.721
3.05489	0.853
3.09572	0.887
3.13656	0.86
3.17739	0.831
3.21823	0.801
3.25906	0.714
3.2999	0.471
3.34073	0.415
3.38157	0.05
3.42241	0.059
3.46324	0.185
3.50408	0.1
3.54491	0.378
3.58575	0.619
3.62658	0.77
3.66742	0.775
3.70825	0.791
3.74909	0.835
3.78993	0.857
3.83076	0.864
3.8716	0.853
3.91243	0.842
3.95327	0.86
3.9941	0.874
4.03494	0.884
4.07577	0.882
4.11661	0.881
4.15744	0.882
4.19828	0.886
4.23912	0.887
4.27995	0.898
4.32079	0.916
4.36162	0.93
4.40246	0.913
4.44329	0.906
4.48413	0.906
4.52496	0.906
4.5658	0.906
4.60663	0.908
4.64747	0.91
4.68831	0.908
4.72914	0.903
4.76998	0.906
4.81081	0.91
4.85165	0.91
4.89248	0.893
4.93332	0.899
4.97415	0.899
5.01499	0.889
5.05582	0.886
5.09666	0.886
5.1375	0.886
5.17833	0.886
5.21917	0.879
5.26	0.876
5.30084	0.869
5.34167	0.857
5.38251	0.816
5.42334	0.77
5.46418	0.84
5.50501	0.855
5.54585	0.87
5.58669	0.874
5.62752	0.865
5.66836	0.857
5.70919	0.821
5.75003	0.837
5.79086	0.842
5.8317	0.835
5.87253	0.825
5.91337	0.808
5.9542	0.73
5.99504	0.74
6.03588	0.73
6.07671	0.612
6.11755	0.21
6.15838	0.156
6.19922	0.48
6.24005	0.626
6.28089	0.592
6.32172	0.687
6.36256	0.677
6.40339	0.616
6.44423	0.526
6.48507	0.207
6.5259	0.042
6.56674	0.067
6.60757	0.371
6.64841	0.487
6.68924	0.297
6.73008	0.202
6.77091	0.249
6.81175	0.258
6.85259	0.302
6.89342	0.38
6.93426	0.483
6.97509	0.58
7.01593	0.629
7.05676	0.587
7.0976	0.5
7.13843	0.604
7.17927	0.611
7.2201	0.485
7.26094	0.492
7.30178	0.555
7.34261	0.604
7.38345	0.623
7.42428	0.565
7.46512	0.436
7.50595	0.3
7.54679	0.168
7.58762	0.185
7.62846	0.249
7.66929	0.179
7.71013	0.271
7.75097	0.371
7.7918	0.402
7.83264	0.342
7.87347	0.359
7.91431	0.225
7.95514	0.166
7.99598	0.31
8.03681	0.429
8.07765	0.443
8.11848	0.567
8.15932	0.607
8.20016	0.623
8.24099	0.606
8.28183	0.601
8.32266	0.636
8.3635	0.66
8.40433	0.587
8.44517	0.31
8.486	0.64
8.52684	0.701
8.56767	0.706
8.60851	0.674
8.64935	0.595
8.69018	0.531
8.73102	0.521
8.77185	0.521
8.81269	0.541
8.85352	0.551
8.89436	0.495
8.93519	0.541
8.97603	0.538
9.01686	0.645
9.0577	0.68
9.09854	0.66
9.13937	0.601
9.18021	0.572
9.22104	0.599
9.26188	0.631
9.30271	0.663
9.34355	0.672
9.38438	0.675
9.42522	0.697
9.46605	0.702
9.50689	0.682
9.54773	0.651
9.58856	0.651
9.6294	0.672
9.67023	0.694
9.71107	0.714
9.7519	0.719
9.79274	0.731
9.83357	0.73
9.87441	0.718
9.91525	0.713
9.95608	0.713
9.99692	0.728
10.0378	0.731
10.0786	0.735
10.1194	0.733
10.1603	0.736
10.2011	0.747
10.2419	0.762
10.2828	0.77
10.3236	0.77
10.3644	0.772
10.4053	0.777
10.4461	0.782
10.4869	0.78
10.5278	0.777
10.5686	0.775
10.6094	0.779
10.6503	0.782
10.6911	0.786
10.732	0.784
10.7728	0.777
10.8136	0.764
10.8545	0.752
10.8953	0.747
10.9361	0.762
10.977	0.767
11.0178	0.767
11.0586	0.775
11.0995	0.775
11.1403	0.767
11.1811	0.758
11.222	0.76
11.2628	0.769
11.3037	0.762
11.3445	0.765
11.3853	0.757
11.4262	0.762
11.467	0.75
11.5078	0.743
11.5487	0.74
11.5895	0.736
11.6303	0.731
11.6712	0.728
11.712	0.724
11.7528	0.723
11.7937	0.714
11.8345	0.706
11.8753	0.697
11.9162	0.696
11.957	0.684
11.9979	0.668
12.0387	0.65
12.0795	0.612
12.1204	0.567
12.1612	0.494
12.202	0.4
12.2429	0.302
12.2837	0.207
12.3245	0.129
12.3654	0.078
12.4062	0.062
12.447	0.073
12.4879	0.129
12.5287	0.3
12.5696	0.448
12.6104	0.55
12.6512	0.601
12.6921	0.631
12.7329	0.65
12.7737	0.655
12.8146	0.657
12.8554	0.657
12.8962	0.663
12.9371	0.67
12.9779	0.689
13.0187	0.687
13.0596	0.701
13.1004	0.699
13.1412	0.699
13.1821	0.696
13.2229	0.699
13.2638	0.696
13.3046	0.697
13.3454	0.696
13.3863	0.687
13.4271	0.679
13.4679	0.67
13.5088	0.663
13.5496	0.665
13.5904	0.65
13.6313	0.641
13.6721	0.629
13.7129	0.619
13.7538	0.621
13.7946	0.646
13.8354	0.653
13.8763	0.646
13.9171	0.648
13.958	0.658
13.9988	0.665
14.0396	0.67
14.0805	0.672
14.1213	0.667
14.1621	0.653
14.203	0.64
14.2438	0.633
14.2846	0.65
14.3255	0.672
14.3663	0.679
14.4071	0.691
14.448	0.685
14.4888	0.691
14.5297	0.685
14.5705	0.689
14.6113	0.689
14.6522	0.689
14.693	0.684
14.7338	0.689
14.7747	0.685
14.8155	0.689
14.8563	0.682
14.8972	0.685
14.938	0.682
14.9788	0.675
15.0197	0.667
15.0605	0.67
15.1013	0.677
15.1422	0.668
15.183	0.672
15.2239	0.663
15.2647	0.665
15.3055	0.662
15.3464	0.66
15.3872	0.657
15.428	0.66
15.4689	0.66
15.5097	0.655
15.5505	0.651
15.5914	0.648
15.6322	0.646
15.673	0.648
15.7139	0.65
15.7547	0.651
15.7956	0.651
15.8364	0.65
15.8772	0.645
15.9181	0.645
15.9589	0.645
