Infrared Spectrum: PURINE, 6-PROPOXY-
Formula: C8 H10 N4 O
CAS: 5417-86-7
State: SOLID (1 mg / 650 mg, KBr DISC)
Class: COBLENTZ III
Instrument: PERKIN-ELMER 21 (GRATING)
Instrument parameters: FILTER CHANGE AT ABOUT 1025 CM^-^1
Sampling: TRANSMISSION
Resolution: 2
Origin: SOUTHERN RESEARCH INSTITUTE
1/CM	TRANSMITTANCE
602.384	0.756
611.416	0.773
620.449	0.7607
629.481	0.7149
638.513	0.6386
647.545	0.4306
656.578	0.7052
665.61	0.7216
674.642	0.8441
683.674	0.801
692.707	0.85
701.739	0.8438
710.771	0.8356
719.804	0.8267
728.836	0.819
737.868	0.8132
746.9	0.7846
755.933	0.7021
764.965	0.804
773.997	0.795
783.029	0.7702
792.062	0.7056
801.094	0.4513
810.126	0.783
819.159	0.7708
828.191	0.7556
837.223	0.7395
846.255	0.7191
855.288	0.6914
864.32	0.6296
873.352	0.4733
882.384	0.4617
891.417	0.4764
900.449	0.6515
909.481	0.5725
918.513	0.5759
927.546	0.5201
936.578	0.587
945.61	0.5228
954.643	0.488
963.675	0.4925
972.707	0.305
981.739	0.3286
990.772	0.5425
999.804	0.7251
1008.84	0.7909
1017.87	0.8
1026.9	0.7964
1035.93	0.7274
1044.97	0.7597
1054	0.795
1063.03	0.795
1072.06	0.79
1081.09	0.7648
1090.13	0.731
1099.16	0.6561
1108.19	0.4728
1117.22	0.3168
1126.26	0.5266
1135.29	0.5941
1144.32	0.5328
1153.35	0.6285
1162.38	0.7619
1171.42	0.7292
1180.45	0.603
1189.48	0.6674
1198.51	0.7535
1207.55	0.7236
1216.58	0.6961
1225.61	0.7012
1234.64	0.6245
1243.68	0.3287
1252.71	0.4948
1261.74	0.7386
1270.77	0.7602
1279.8	0.7028
1288.84	0.6281
1297.87	0.5072
1306.9	0.3797
1315.93	0.3403
1324.97	0.1358
1334	0.4728
1343.03	0.3185
1352.06	0.4862
1361.09	0.6329
1370.13	0.4128
1379.16	0.4309
1388.19	0.5937
1397.22	0.6947
1406.26	0.4994
1415.29	0.361
1424.32	0.6239
1433.35	0.6623
1442.39	0.5321
1451.42	0.594
1460.45	0.4384
1469.48	0.2124
1478.51	0.3537
1487.55	0.5064
1496.58	0.7364
1505.61	0.7917
1514.64	0.7916
1523.68	0.7704
1532.71	0.7469
1541.74	0.702
1550.77	0.6872
1559.8	0.6217
1568.84	0.5895
1577.87	0.4408
1586.9	0.2397
1595.93	0.2138
1604.97	0.1515
1614	0.1452
1623.03	0.3449
1632.06	0.5248
1641.1	0.6742
1650.13	0.7501
1659.16	0.7727
1668.19	0.7996
1677.22	0.8048
1686.26	0.7944
1695.29	0.8077
1704.32	0.8029
1713.35	0.7965
1722.39	0.7896
1731.42	0.774
1740.45	0.7673
1749.48	0.7514
1758.51	0.7287
1767.55	0.7002
1776.58	0.7031
1785.61	0.712
1794.64	0.713
1803.68	0.716
1812.71	0.7151
1821.74	0.711
1830.77	0.708
1839.81	0.708
1848.84	0.708
1857.87	0.7073
1866.9	0.6978
1875.93	0.6971
1884.97	0.728
1894	0.733
1903.03	0.738
1912.06	0.7434
1921.1	0.7486
1930.13	0.753
1939.16	0.7464
1948.19	0.7624
1957.22	0.773
1966.26	0.773
1975.29	0.774
1984.32	0.775
1993.35	0.778
2002.39	0.7838
2011.42	0.7888
2020.45	0.791
2029.48	0.791
2038.52	0.792
2047.55	0.792
2056.58	0.792
2065.61	0.791
2074.64	0.792
2083.68	0.792
2092.71	0.792
2101.74	0.792
2110.77	0.7882
2119.81	0.7843
2128.84	0.783
2137.87	0.782
2146.9	0.779
2155.93	0.7753
2164.97	0.774
2174	0.773
2183.03	0.7682
2192.06	0.7603
2201.1	0.7512
2210.13	0.744
2219.16	0.7382
2228.19	0.7313
2237.23	0.7242
2246.26	0.716
2255.29	0.7083
2264.32	0.7012
2273.35	0.6892
2282.39	0.6803
2291.42	0.6733
2300.45	0.6675
2309.48	0.6435
2318.52	0.6212
2327.55	0.6132
2336.58	0.6052
2345.61	0.5926
2354.64	0.5692
2363.68	0.5632
2372.71	0.56
2381.74	0.5573
2390.77	0.557
2399.81	0.555
2408.84	0.5435
2417.87	0.5273
2426.9	0.512
2435.94	0.511
2444.97	0.5092
2454	0.4895
2463.03	0.4782
2472.06	0.4692
2481.1	0.4583
2490.13	0.4493
2499.16	0.4395
2508.19	0.4213
2517.23	0.411
2526.26	0.405
2535.29	0.4138
2544.32	0.42
2553.35	0.425
2562.39	0.4318
2571.42	0.4488
2580.45	0.465
2589.48	0.466
2598.52	0.4513
2607.55	0.4422
2616.58	0.4323
2625.61	0.4203
2634.65	0.412
2643.68	0.4107
2652.71	0.4157
2661.74	0.4247
2670.77	0.4318
2679.81	0.444
2688.84	0.4365
2697.87	0.43
2706.9	0.426
2715.94	0.4268
2724.97	0.4268
2734	0.4273
2743.03	0.427
2752.06	0.4337
2761.1	0.4398
2770.13	0.443
2779.16	0.444
2788.19	0.4518
2797.23	0.4645
2806.26	0.4774
2815.29	0.4938
2824.32	0.5068
2833.36	0.5185
2842.39	0.5298
2851.42	0.5322
2860.45	0.5065
2869.48	0.4882
2878.52	0.4842
2887.55	0.4897
2896.58	0.49
2905.61	0.4833
2914.65	0.4572
2923.68	0.4062
2932.71	0.3853
2941.74	0.3733
2950.77	0.365
2959.81	0.367
2968.84	0.3845
2977.87	0.4607
2986.9	0.5359
2995.94	0.5871
3004.97	0.6088
3014	0.608
3023.03	0.6002
3032.07	0.597
3041.1	0.5826
3050.13	0.5732
3059.16	0.573
3068.19	0.5892
3077.23	0.6058
3086.26	0.6241
3095.29	0.6565
3104.32	0.671
3113.36	0.6758
3122.39	0.6857
3131.42	0.7208
3140.45	0.7367
3149.48	0.746
3158.52	0.748
3167.55	0.7555
3176.58	0.762
3185.61	0.761
3194.65	0.762
3203.68	0.766
3212.71	0.7725
3221.74	0.7788
3230.77	0.7878
3239.81	0.789
3248.84	0.789
3257.87	0.789
3266.9	0.789
3275.94	0.7872
3284.97	0.786
3294	0.7843
3303.03	0.7832
3312.07	0.777
3321.1	0.7732
3330.13	0.7625
3339.16	0.756
3348.19	0.755
3357.23	0.7443
3366.26	0.734
3375.29	0.7282
3384.32	0.7162
3393.36	0.7147
3402.39	0.7102
3411.42	0.7062
3420.45	0.706
3429.48	0.7022
3438.52	0.6982
3447.55	0.7037
3456.58	0.707
3465.61	0.7097
3474.65	0.7102
3483.68	0.7128
3492.71	0.7187
3501.74	0.7252
3510.78	0.7288
3519.81	0.735
3528.84	0.735
3537.87	0.739
3546.9	0.756
3555.94	0.7648
3564.97	0.775
3574	0.779
3583.03	0.783
3592.07	0.7928
3601.1	0.797
3610.13	0.8048
3619.16	0.8187
3628.19	0.8243
3637.23	0.826
3646.26	0.8293
3655.29	0.835
3664.32	0.8333
3673.36	0.8372
3682.39	0.8408
3691.42	0.842
3700.45	0.842
3709.49	0.842
3718.52	0.844
3727.55	0.846
3736.58	0.846
3745.61	0.845
3754.65	0.847
3763.68	0.844
3772.71	0.842
3781.74	0.842
3790.78	0.842
3799.81	0.842
3808.84	0.842
3817.87	0.844
3826.9	0.844
3835.94	0.8402
3844.97	0.835
3854	0.836
3863.03	0.8372
3872.07	0.836
3881.1	0.836
3890.13	0.835
3899.16	0.837
3908.2	0.838
3917.23	0.837
3926.26	0.835
3935.29	0.831
3944.32	0.832
3953.36	0.832
3962.39	0.8328
3971.42	0.835
3980.45	0.837
3989.49	0.837
3998.52	0.835
