Infrared Spectrum: Sulfanilamide, 2,5-dimethoxy-
Formula: C8 H12 N2 O4 S
CAS: 54179-10-1
State: SOLID (SPLIT MULL), FLUOROLUBE FOR 3800-1330 CM^-^1, NUJOL FOR 1330-460 CM^-^1
Class: COBLENTZ III
Instrument: DOW KBr FOREPRISM-GRATING
Instrument parameters: BLAZED AT 3.5, 12.0, 20.0 MICRON AND CHANGED AT 5.0, 7.5, 14.9 MICRON
Sampling: TRANSMISSION
Resolution: 2
Origin: DOW CHEMICAL COMPANY
1/CM	TRANSMITTANCE
3814	0.7453
3805	0.7453
3796	0.7451
3787	0.7458
3778	0.7465
3769	0.7474
3760	0.7492
3751	0.7511
3742	0.753
3733	0.7549
3724	0.7565
3715	0.7581
3706	0.7585
3697	0.7586
3688	0.7591
3679	0.7597
3670	0.7605
3661	0.7608
3652	0.7611
3643	0.7618
3634	0.763
3625	0.7645
3616	0.7664
3607	0.7683
3598	0.7699
3589	0.7712
3580	0.7725
3571	0.7733
3562	0.7728
3553	0.7708
3544	0.769
3535	0.768
3526	0.7678
3517	0.7682
3508	0.769
3499	0.7694
3490	0.7699
3481	0.7706
3472	0.77
3463	0.7526
3454	0.4562
3445	0.4786
3436	0.6027
3427	0.6945
3418	0.7238
3409	0.7314
3400	0.7297
3391	0.4924
3382	0.446
3373	0.5919
3364	0.5952
3355	0.4498
3346	0.3786
3337	0.4445
3328	0.5103
3319	0.5762
3310	0.6342
3301	0.6408
3292	0.53
3283	0.2734
3274	0.3682
3265	0.5256
3256	0.613
3247	0.6451
3238	0.6507
3229	0.6525
3220	0.6495
3211	0.6407
3202	0.6497
3193	0.6833
3184	0.7037
3175	0.7201
3166	0.7331
3157	0.7425
3148	0.7491
3139	0.7538
3130	0.7575
3121	0.7601
3112	0.7615
3103	0.7633
3094	0.76
3085	0.7482
3076	0.7618
3067	0.7687
3058	0.775
3049	0.7791
3040	0.7817
3031	0.7515
3022	0.7489
3013	0.7741
3004	0.7825
2995	0.7862
2986	0.7617
2977	0.7035
2968	0.724
2959	0.7276
2950	0.7271
2941	0.7384
2932	0.7333
2923	0.73
2914	0.7386
2905	0.7583
2896	0.7718
2887	0.7768
2878	0.7814
2869	0.785
2860	0.7808
2851	0.7199
2842	0.7515
2833	0.7834
2824	0.7925
2815	0.7978
2806	0.8024
2797	0.8054
2788	0.8084
2779	0.8107
2770	0.8128
2761	0.8146
2752	0.8154
2743	0.8153
2734	0.8132
2725	0.8111
2716	0.81
2707	0.8095
2698	0.8128
2689	0.8178
2680	0.8189
2671	0.8196
2662	0.8212
2653	0.8231
2644	0.8252
2635	0.8263
2626	0.8268
2617	0.8273
2608	0.8318
2599	0.8361
2590	0.837
2581	0.8365
2572	0.8367
2563	0.8378
2554	0.84
2545	0.8414
2536	0.8427
2527	0.8434
2518	0.8443
2509	0.8452
2500	0.8461
2491	0.8464
2482	0.846
2473	0.8453
2464	0.8438
2455	0.8392
2446	0.8344
2437	0.8332
2428	0.8352
2419	0.8392
2410	0.8423
2401	0.8425
2392	0.8436
2383	0.8446
2374	0.8461
2365	0.8475
2356	0.8488
2347	0.8496
2338	0.8501
2329	0.8493
2320	0.8475
2311	0.8409
2302	0.8375
2293	0.8401
2284	0.8421
2275	0.8437
2266	0.8454
2257	0.8466
2248	0.8478
2239	0.8489
2230	0.8498
2221	0.8505
2212	0.8512
2203	0.8518
2194	0.8525
2185	0.8532
2176	0.8538
2167	0.8544
2158	0.855
2149	0.8552
2140	0.8554
2131	0.8557
2122	0.8557
2113	0.8556
2104	0.8555
2095	0.8554
2086	0.8554
2077	0.8551
2068	0.8546
2059	0.8541
2050	0.8537
2041	0.8521
2032	0.8499
2023	0.8487
2014	0.8528
2005	0.8555
1996	0.8358
1987	0.8351
1978	0.8366
1969	0.8366
1960	0.8392
1951	0.8347
1942	0.8344
1933	0.8355
1924	0.8363
1915	0.8362
1906	0.836
1897	0.8358
1888	0.835
1879	0.833
1870	0.8316
1861	0.8312
1852	0.831
1843	0.8309
1834	0.8302
1825	0.8305
1816	0.8311
1807	0.8316
1798	0.832
1789	0.831
1780	0.8298
1771	0.8288
1762	0.8275
1753	0.8189
1744	0.8018
1735	0.8132
1726	0.8175
1717	0.8155
1708	0.8028
1699	0.7997
1690	0.8045
1681	0.8054
1672	0.7987
1663	0.7904
1654	0.7757
1645	0.6621
1636	0.4164
1627	0.4075
1618	0.5955
1609	0.6822
1600	0.6833
1591	0.6685
1582	0.3406
1573	0.5836
1564	0.6299
1555	0.6284
1546	0.6422
1537	0.6697
1528	0.6045
1519	0.2032
1510	0.2957
1501	0.402
1492	0.6578
1483	0.6712
1474	0.577
1465	0.5637
1456	0.4593
1447	0.6044
1438	0.5793
1429	0.7195
1420	0.6355
1411	0.5094
1402	0.7058
1393	0.7349
1384	0.7439
1375	0.7512
1366	0.7415
1357	0.7143
1348	0.6953
1339	0.6915
1330	0.6828
1321	0.6497
1312	0.3292
1303	0.1685
1294	0.3803
1285	0.5549
1276	0.5285
1267	0.3373
1258	0.6637
1249	0.7324
1240	0.7489
1231	0.6692
1222	0.3146
1213	0.314
1204	0.6298
1195	0.7061
1186	0.7018
1177	0.698
1168	0.7711
1159	0.6991
1150	0.3554
1141	0.0787
1132	0.4514
1123	0.6212
1114	0.6971
1105	0.7347
1096	0.7618
1087	0.7686
1078	0.731
1069	0.5845
1060	0.5755
1051	0.7305
1042	0.5681
1033	0.308
1024	0.6375
1015	0.7453
1006	0.7745
997	0.7189
988	0.6598
979	0.7471
970	0.7661
961	0.7778
952	0.7881
943	0.7948
934	0.8003
925	0.806
916	0.8121
907	0.8175
898	0.8128
889	0.7578
880	0.7524
871	0.5181
862	0.7472
853	0.7861
844	0.7875
835	0.718
826	0.6737
817	0.7755
808	0.7832
799	0.7648
790	0.733
781	0.6928
772	0.6307
763	0.5652
754	0.4716
745	0.3962
736	0.4543
727	0.4373
718	0.4698
709	0.4864
700	0.5592
691	0.5985
682	0.5697
673	0.5685
664	0.6018
655	0.6323
646	0.6628
637	0.5975
628	0.6938
619	0.7178
610	0.7258
601	0.7288
592	0.7271
583	0.7215
574	0.711
565	0.4331
556	0.6127
547	0.6575
538	0.6618
529	0.5208
520	0.5003
511	0.6492
502	0.6551
493	0.6251
484	0.6286
475	0.6471
466	0.6565
457	0.6625
