Infrared Spectrum: 2-HYDROXY-5-NITROPYRIDINE
Formula: C5 H4 N2 O3
CAS: 5418-51-9
State: SOLID (NUJOL MULL)
Class: COBLENTZ
Instrument: PERKIN-ELMER
Sampling: TRANSMISSION
Resolution: 4
Origin: ABBOTT LABORATORIES - WASHBURN
MICROMETERS	TRANSMITTANCE
2.03	0.383
2.06607	0.392
2.10214	0.403
2.13822	0.413
2.17429	0.4241
2.21036	0.431
2.24643	0.4402
2.2825	0.4529
2.31857	0.4578
2.35465	0.4707
2.39072	0.4789
2.42679	0.489
2.46286	0.4999
2.49893	0.5079
2.53501	0.519
2.57108	0.526
2.60715	0.538
2.64322	0.5471
2.67929	0.561
2.71537	0.571
2.75144	0.58
2.78751	0.5858
2.82358	0.593
2.85965	0.604
2.89572	0.6099
2.9318	0.617
2.96787	0.629
3.00394	0.629
3.04001	0.626
3.07608	0.625
3.11216	0.6188
3.14823	0.5347
3.1843	0.4639
3.22037	0.4266
3.25644	0.3788
3.29252	0.3451
3.32859	0.2942
3.36466	0.1201
3.40073	0.0691
3.4368	0.0716
3.47287	0.1141
3.50895	0.1842
3.54502	0.305
3.58109	0.3369
3.61716	0.3611
3.65323	0.382
3.68931	0.389
3.72538	0.3972
3.76145	0.4222
3.79752	0.4409
3.83359	0.4588
3.86967	0.4768
3.90574	0.5038
3.94181	0.5308
3.97788	0.5459
4.01395	0.543
4.05002	0.5519
4.0861	0.575
4.12217	0.599
4.15824	0.614
4.19431	0.616
4.23038	0.619
4.26646	0.6288
4.30253	0.6387
4.3386	0.6658
4.37467	0.6779
4.41074	0.6859
4.44682	0.6928
4.48289	0.703
4.51896	0.715
4.55503	0.718
4.5911	0.724
4.62717	0.73
4.66325	0.738
4.69932	0.742
4.73539	0.747
4.77146	0.75
4.80753	0.7519
4.84361	0.755
4.87968	0.76
4.91575	0.761
4.95182	0.761
4.98789	0.7501
5.02397	0.7469
5.06004	0.7363
5.09611	0.7501
5.13218	0.7653
5.16825	0.7742
5.20432	0.778
5.2404	0.784
5.27647	0.7755
5.31254	0.7724
5.34861	0.772
5.38468	0.7902
5.42076	0.7897
5.45683	0.7749
5.4929	0.77
5.52897	0.781
5.56504	0.788
5.60112	0.794
5.63719	0.804
5.67326	0.8006
5.70933	0.7791
5.7454	0.733
5.78147	0.6263
5.81755	0.4353
5.85362	0.2892
5.88969	0.1172
5.92576	0.0845
5.96183	0.0796
5.99791	0.0689
6.03398	0.077
6.07005	0.2178
6.10612	0.1525
6.14219	0.1399
6.17827	0.3535
6.21434	0.4452
6.25041	0.5149
6.28648	0.5511
6.32255	0.575
6.35862	0.4533
6.3947	0.3234
6.43077	0.542
6.46684	0.5993
6.50291	0.6171
6.53898	0.5995
6.57506	0.3322
6.61113	0.1897
6.6472	0.136
6.68327	0.1462
6.71934	0.3389
6.75542	0.4158
6.79149	0.4434
6.82756	0.3812
6.86363	0.3931
6.8997	0.4659
6.93577	0.538
6.97185	0.4958
7.00792	0.3275
7.04399	0.5799
7.08006	0.7149
7.11613	0.7505
7.15221	0.763
7.18828	0.7485
7.22435	0.663
7.26042	0.4834
7.29649	0.2937
7.33257	0.0908
7.36864	0.0391
7.40471	0.041
7.44078	0.0658
7.47685	0.2458
7.51292	0.3754
7.549	0.4493
7.58507	0.5106
7.62114	0.5434
7.65721	0.572
7.69328	0.5988
7.72936	0.6138
7.76543	0.619
7.8015	0.6256
7.83757	0.6285
7.87364	0.5947
7.90971	0.5079
7.94579	0.4005
7.98186	0.2572
8.01793	0.202
8.054	0.2221
8.09007	0.3117
8.12615	0.36
8.16222	0.4271
8.19829	0.4838
8.23436	0.5354
8.27043	0.5795
8.30651	0.6128
8.34258	0.6418
8.37865	0.6655
8.41472	0.6819
8.45079	0.6902
8.48686	0.7008
8.52294	0.706
8.55901	0.6969
8.59508	0.696
8.63115	0.7169
8.66722	0.7347
8.7033	0.6365
8.73937	0.4381
8.77544	0.4991
8.81151	0.5626
8.84758	0.2858
8.88366	0.271
8.91973	0.2726
8.9558	0.2419
8.99187	0.4124
9.02794	0.5306
9.06401	0.5952
9.10009	0.6235
9.13616	0.6512
9.17223	0.6679
9.2083	0.6779
9.24437	0.6868
9.28045	0.696
9.31652	0.7012
9.35259	0.704
9.38866	0.7069
9.42473	0.7103
9.46081	0.7128
9.49688	0.7157
9.53295	0.7185
9.56902	0.7227
9.60509	0.7239
9.64116	0.724
9.67724	0.726
9.71331	0.7256
9.74938	0.7263
9.78545	0.721
9.82152	0.7203
9.8576	0.7157
9.89367	0.6909
9.92974	0.6182
9.96581	0.5372
10.0019	0.4999
10.038	0.5312
10.074	0.534
10.1101	0.5244
10.1462	0.5016
10.1822	0.501
10.2183	0.5318
10.2544	0.5722
10.2905	0.6155
10.3265	0.6544
10.3626	0.6793
10.3987	0.6911
10.4347	0.714
10.4708	0.723
10.5069	0.7282
10.543	0.726
10.579	0.721
10.6151	0.7119
10.6512	0.7028
10.6872	0.691
10.7233	0.6547
10.7594	0.6131
10.7955	0.5559
10.8315	0.5013
10.8676	0.4613
10.9037	0.4572
10.9398	0.4712
10.9758	0.5221
11.0119	0.5639
11.048	0.5958
11.084	0.6162
11.1201	0.633
11.1562	0.633
11.1923	0.632
11.2283	0.622
11.2644	0.625
11.3005	0.6287
11.3365	0.6447
11.3726	0.6677
11.4087	0.6897
11.4448	0.7045
11.4808	0.7192
11.5169	0.732
11.553	0.7382
11.589	0.7426
11.6251	0.7418
11.6612	0.7317
11.6973	0.7271
11.7333	0.7379
11.7694	0.739
11.8055	0.7268
11.8415	0.6907
11.8776	0.6224
11.9137	0.4558
11.9498	0.2888
11.9858	0.3309
12.0219	0.4487
12.058	0.5473
12.0941	0.6851
12.1301	0.7403
12.1662	0.7721
12.2023	0.781
12.2383	0.7841
12.2744	0.796
12.3105	0.7942
12.3466	0.8028
12.3826	0.8074
12.4187	0.8103
12.4548	0.812
12.4908	0.8115
12.5269	0.808
12.563	0.811
12.5991	0.808
12.6351	0.8123
12.6712	0.812
12.7073	0.8092
12.7433	0.808
12.7794	0.806
12.8155	0.808
12.8516	0.802
12.8876	0.802
12.9237	0.802
12.9598	0.802
12.9958	0.7904
13.0319	0.7795
13.068	0.734
13.1041	0.5133
13.1401	0.375
13.1762	0.5471
13.2123	0.7183
13.2484	0.7519
13.2844	0.7815
13.3205	0.794
13.3566	0.797
13.3926	0.797
13.4287	0.796
13.4648	0.7918
13.5009	0.785
13.5369	0.7816
13.573	0.7786
13.6091	0.7766
13.6451	0.7783
13.6812	0.7787
13.7173	0.7746
13.7534	0.7669
13.7894	0.754
13.8255	0.7275
13.8616	0.6462
13.8976	0.5307
13.9337	0.4617
13.9698	0.605
14.0059	0.7065
14.0419	0.7377
14.078	0.757
14.1141	0.7648
14.1501	0.7723
14.1862	0.775
14.2223	0.7729
14.2584	0.769
14.2944	0.773
14.3305	0.77
14.3666	0.769
14.4027	0.764
14.4387	0.764
14.4748	0.76
14.5109	0.7592
14.5469	0.757
14.583	0.7531
14.6191	0.7477
14.6552	0.744
14.6912	0.742
14.7273	0.744
14.7634	0.7407
14.7994	0.732
14.8355	0.73
14.8716	0.7231
14.9077	0.7184
14.9437	0.7125
14.9798	0.7037
15.0159	0.6852
15.0519	0.6581
15.088	0.6268
15.1241	0.5679
15.1602	0.4971
15.1962	0.3633
15.2323	0.2571
15.2684	0.2014
15.3044	0.18
15.3405	0.2042
15.3766	0.2938
15.4127	0.3658
