Infrared Spectrum: 1H-Pyrazolo(3,4-d)pyrimidine, 4-(methylthio)-,
Formula: C6 H6 N4 S
CAS: 5418-10-0
State: SOLID (0.9 mg / 650 mg KBr DISC)
Class: COBLENTZ III
Instrument: PERKIN-ELMER 21 (GRATING)
Instrument parameters: FILTER CHANGE ABOUT 1020 CM^-^1
Resolution: 2
Origin: SOUTHERN RESEARCH INSTITUTE
1/CM	TRANSMITTANCE
598.3	0.7425
607.332	0.7413
616.364	0.7366
625.396	0.7309
634.427	0.7217
643.459	0.7037
652.491	0.6831
661.523	0.6561
670.555	0.701
679.587	0.7299
688.619	0.7269
697.65	0.7223
706.682	0.7201
715.714	0.7269
724.746	0.7198
733.778	0.7027
742.81	0.6767
751.842	0.647
760.873	0.6157
769.905	0.5729
778.937	0.4227
787.969	0.4954
797.001	0.6258
806.033	0.7083
815.065	0.7242
824.097	0.7066
833.128	0.6581
842.16	0.4188
851.192	0.3641
860.224	0.2826
869.256	0.7393
878.288	0.7848
887.32	0.785
896.351	0.7795
905.383	0.7712
914.415	0.7307
923.447	0.6545
932.479	0.5266
941.511	0.3277
950.543	0.7883
959.574	0.8079
968.606	0.833
977.638	0.8371
986.67	0.8286
995.702	0.7994
1004.73	0.7235
1013.77	0.7493
1022.8	0.8377
1031.83	0.8359
1040.86	0.8251
1049.89	0.8141
1058.92	0.811
1067.96	0.8074
1076.99	0.8
1086.02	0.791
1095.05	0.7861
1104.08	0.7807
1113.12	0.7716
1122.15	0.7574
1131.18	0.7268
1140.21	0.6507
1149.24	0.6437
1158.28	0.7523
1167.31	0.7477
1176.34	0.7394
1185.37	0.7216
1194.4	0.6964
1203.43	0.6414
1212.47	0.4912
1221.5	0.5727
1230.53	0.688
1239.56	0.584
1248.59	0.3501
1257.63	0.3019
1266.66	0.5216
1275.69	0.4596
1284.72	0.49
1293.75	0.7574
1302.79	0.7366
1311.82	0.6676
1320.85	0.579
1329.88	0.3843
1338.91	0.7628
1347.94	0.7742
1356.98	0.7468
1366.01	0.7541
1375.04	0.7741
1384.07	0.7499
1393.1	0.7156
1402.14	0.6389
1411.17	0.4214
1420.2	0.5798
1429.23	0.6638
1438.26	0.7025
1447.29	0.6941
1456.33	0.6974
1465.36	0.6875
1474.39	0.6334
1483.42	0.7025
1492.45	0.6867
1501.49	0.6571
1510.52	0.6113
1519.55	0.5736
1528.58	0.5211
1537.61	0.4635
1546.65	0.3992
1555.68	0.2921
1564.71	0.2088
1573.74	0.2508
1582.77	0.3106
1591.8	0.2752
1600.84	0.6289
1609.87	0.7775
1618.9	0.8109
1627.93	0.811
1636.96	0.8159
1646	0.8274
1655.03	0.8328
1664.06	0.8327
1673.09	0.832
1682.12	0.8331
1691.16	0.8371
1700.19	0.841
1709.22	0.8426
1718.25	0.8423
1727.28	0.8414
1736.31	0.8397
1745.35	0.8386
1754.38	0.8374
1763.41	0.8358
1772.44	0.8327
1781.47	0.8287
1790.51	0.8247
1799.54	0.8197
1808.57	0.8142
1817.6	0.8087
1826.63	0.8036
1835.66	0.7988
1844.7	0.7944
1853.73	0.7901
1862.76	0.7865
1871.79	0.7847
1880.82	0.7839
1889.86	0.7801
1898.89	0.7762
1907.92	0.7725
1916.95	0.7691
1925.98	0.7656
1935.02	0.7567
1944.05	0.7483
1953.08	0.7471
1962.11	0.7572
1971.14	0.7639
1980.17	0.7637
1989.21	0.7618
1998.24	0.7595
2007.27	0.7529
2016.3	0.7502
2025.33	0.7499
2034.37	0.7495
2043.4	0.7473
2052.43	0.7451
2061.46	0.7432
2070.49	0.7413
2079.53	0.7391
2088.56	0.7387
2097.59	0.737
2106.62	0.7349
2115.65	0.7327
2124.68	0.7304
2133.72	0.7281
2142.75	0.7254
2151.78	0.7222
2160.81	0.7191
2169.84	0.7158
2178.88	0.7124
2187.91	0.7089
2196.94	0.7056
2205.97	0.7025
2215	0.6995
2224.03	0.6963
2233.07	0.6929
2242.1	0.6895
2251.13	0.6859
2260.16	0.6822
2269.19	0.6784
2278.23	0.6745
2287.26	0.6706
2296.29	0.6666
2305.32	0.6627
2314.35	0.6587
2323.39	0.6543
2332.42	0.6503
2341.45	0.6496
2350.48	0.6498
2359.51	0.6503
2368.54	0.6505
2377.58	0.65
2386.61	0.6484
2395.64	0.6461
2404.67	0.6443
2413.7	0.6425
2422.74	0.6406
2431.77	0.6389
2440.8	0.6378
2449.83	0.6362
2458.86	0.6345
2467.9	0.6325
2476.93	0.6304
2485.96	0.6277
2494.99	0.6244
2504.02	0.6196
2513.05	0.6089
2522.09	0.6058
2531.12	0.6025
2540.15	0.5936
2549.18	0.5909
2558.21	0.5878
2567.25	0.5803
2576.28	0.5732
2585.31	0.5668
2594.34	0.5617
2603.37	0.5556
2612.4	0.5473
2621.44	0.5445
2630.47	0.5394
2639.5	0.5366
2648.53	0.5321
2657.56	0.5237
2666.6	0.5158
2675.63	0.5085
2684.66	0.5054
2693.69	0.5051
2702.72	0.501
2711.76	0.4881
2720.79	0.4731
2729.82	0.4625
2738.85	0.459
2747.88	0.4453
2756.91	0.436
2765.95	0.4287
2774.98	0.4233
2784.01	0.4203
2793.04	0.4186
2802.07	0.417
2811.11	0.4158
2820.14	0.4118
2829.17	0.4091
2838.2	0.408
2847.23	0.4067
2856.27	0.4051
2865.3	0.3947
2874.33	0.3901
2883.36	0.3879
2892.39	0.3897
2901.42	0.3948
2910.46	0.4009
2919.49	0.3987
2928.52	0.3966
2937.55	0.3969
2946.58	0.398
2955.62	0.3998
2964.65	0.4002
2973.68	0.3997
2982.71	0.3955
2991.74	0.3907
3000.77	0.389
3009.81	0.3935
3018.84	0.4034
3027.87	0.4093
3036.9	0.4094
3045.93	0.4035
3054.97	0.3962
3064	0.3851
3073.03	0.3715
3082.06	0.3512
3091.09	0.34
3100.13	0.3381
3109.16	0.341
3118.19	0.3508
3127.22	0.3635
3136.25	0.3729
3145.28	0.3799
3154.32	0.3914
3163.35	0.4047
3172.38	0.4146
3181.41	0.4168
3190.44	0.4202
3199.48	0.4348
3208.51	0.4534
3217.54	0.4704
3226.57	0.4986
3235.6	0.5177
3244.64	0.5392
3253.67	0.5571
3262.7	0.5708
3271.73	0.5811
3280.76	0.5907
3289.79	0.5954
3298.83	0.5956
3307.86	0.5946
3316.89	0.5931
3325.92	0.5926
3334.95	0.5919
3343.99	0.5886
3353.02	0.5816
3362.05	0.5787
3371.08	0.5704
3380.11	0.555
3389.14	0.5462
3398.18	0.5386
3407.21	0.5338
3416.24	0.5304
3425.27	0.5255
3434.3	0.5225
3443.34	0.5206
3452.37	0.5196
3461.4	0.5187
3470.43	0.5181
3479.46	0.5177
3488.5	0.5177
3497.53	0.5189
3506.56	0.5206
3515.59	0.5231
3524.62	0.526
3533.65	0.5285
3542.69	0.5309
3551.72	0.534
3560.75	0.5373
3569.78	0.5396
3578.81	0.5418
3587.85	0.5444
3596.88	0.5471
3605.91	0.5503
3614.94	0.5535
3623.97	0.5567
3633.01	0.5613
3642.04	0.5668
3651.07	0.5683
3660.1	0.568
3669.13	0.5649
3678.16	0.5587
3687.2	0.5553
3696.23	0.5549
3705.26	0.5549
3714.29	0.5549
3723.32	0.555
3732.36	0.5551
3741.39	0.5553
3750.42	0.5554
3759.45	0.5554
3768.48	0.5557
3777.52	0.5562
3786.55	0.5576
3795.58	0.5583
3804.61	0.5577
3813.64	0.5571
3822.67	0.5561
3831.71	0.554
3840.74	0.5518
3849.77	0.5491
3858.8	0.5464
3867.83	0.5447
3876.87	0.5439
3885.9	0.5437
3894.93	0.5427
3903.96	0.5417
3912.99	0.5407
