Infrared Spectrum: COLCHICINE
Formula: C22 H25 N O6
CAS: 54192-66-4
State: SOLUTION (7% IN CHCl3)
Class: COBLENTZ
Instrument: PERKIN-ELMER
Sampling: TRANSMISSION
Path length: 0.010 CM
Resolution: 4
Origin: ABBOTT LABORATORIES - WASHBURN
MICROMETERS	TRANSMITTANCE
2.047	0.976
2.087	0.971
2.127	0.9801
2.16701	0.9863
2.20701	0.9908
2.24701	0.986
2.28701	0.981
2.32701	0.9701
2.36702	0.986
2.40702	0.9828
2.44702	0.983
2.48702	0.988
2.52702	0.9877
2.56702	0.986
2.60703	0.9912
2.64703	0.998
2.68703	0.995
2.72703	0.9735
2.76703	0.9401
2.80704	0.9747
2.84704	0.9409
2.88704	0.903
2.92704	0.8336
2.96704	0.835
3.00705	0.8073
3.04705	0.7069
3.08705	0.612
3.12705	0.7263
3.16705	0.8119
3.20705	0.868
3.24706	0.8709
3.28706	0.8031
3.32706	0.6907
3.36706	0.4309
3.40706	0.52
3.44707	0.5975
3.48707	0.792
3.52707	0.7741
3.56707	0.8512
3.60707	0.9352
3.64708	0.9581
3.68708	0.965
3.72708	0.9705
3.76708	0.98
3.80708	0.9761
3.84709	0.978
3.88709	0.973
3.92709	0.958
3.96709	0.9578
4.00709	0.9399
4.04709	0.931
4.0871	0.925
4.1271	0.9201
4.1671	0.9382
4.2071	0.9602
4.2471	0.965
4.28711	0.958
4.32711	0.95
4.36711	0.956
4.40711	0.951
4.44711	0.953
4.48712	0.945
4.52712	0.948
4.56712	0.945
4.60712	0.945
4.64712	0.945
4.68713	0.94
4.72713	0.9409
4.76713	0.936
4.80713	0.945
4.84713	0.935
4.88713	0.933
4.92714	0.936
4.96714	0.9328
5.00714	0.9329
5.04714	0.9231
5.08714	0.9139
5.12715	0.913
5.16715	0.9238
5.20715	0.9289
5.24715	0.9289
5.28715	0.921
5.32716	0.926
5.36716	0.93
5.40716	0.933
5.44716	0.9252
5.48716	0.93
5.52716	0.923
5.56717	0.9172
5.60717	0.916
5.64717	0.9127
5.68717	0.9057
5.72717	0.8902
5.76718	0.8601
5.80718	0.856
5.84718	0.8353
5.88718	0.7095
5.92718	0.437
5.96719	0.3295
6.00719	0.3741
6.04719	0.5219
6.08719	0.63
6.12719	0.5803
6.1672	0.4015
6.2072	0.341
6.2472	0.3119
6.2872	0.144
6.3272	0.2799
6.3672	0.2091
6.40721	0.1458
6.44721	0.1081
6.48721	0.1416
6.52721	0.235
6.56721	0.3331
6.60722	0.427
6.64722	0.3997
6.68722	0.3167
6.72722	0.2107
6.76722	0.3156
6.80723	0.3927
6.84723	0.2454
6.88723	0.3201
6.92723	0.3935
6.96723	0.3929
7.00724	0.3746
7.04724	0.5803
7.08724	0.562
7.12724	0.486
7.16724	0.3736
7.20724	0.6313
7.24725	0.6068
7.28725	0.5084
7.32725	0.4794
7.36725	0.534
7.40725	0.3421
7.44726	0.4085
7.48726	0.6553
7.52726	0.4919
7.56726	0.299
7.60726	0.4673
7.64727	0.5786
7.68727	0.5959
7.72727	0.4647
7.76727	0.3693
7.80727	0.3456
7.84727	0.41
7.88728	0.3815
7.92728	0.2238
7.96728	0.1057
8.00728	0.0626
8.04728	0.1961
8.08729	0.2563
8.12729	0.2709
8.16729	0.3683
8.20729	0.4389
8.24729	0.4871
8.2873	0.5351
8.3273	0.5942
8.3673	0.4976
8.4073	0.5157
8.4473	0.472
8.48731	0.3546
8.52731	0.3891
8.56731	0.5228
8.60731	0.6869
8.64731	0.6733
8.68731	0.5644
8.72732	0.3721
8.76732	0.2564
8.80732	0.2681
8.84732	0.4121
8.88732	0.5955
8.92733	0.643
8.96733	0.658
9.00733	0.6279
9.04733	0.5155
9.08733	0.4162
9.12734	0.2212
9.16734	0.2446
9.20734	0.3395
9.24734	0.5041
9.28734	0.5936
9.32734	0.6804
9.36735	0.7443
9.40735	0.763
9.44735	0.7436
9.48735	0.652
9.52735	0.5615
9.56736	0.6485
9.60736	0.747
9.64736	0.7823
9.68736	0.7835
9.72736	0.7028
9.76737	0.5287
9.80737	0.4082
9.84737	0.4894
9.88737	0.5389
9.92737	0.5271
9.96738	0.6164
10.0074	0.6661
10.0474	0.6511
10.0874	0.5662
10.1274	0.5529
10.1674	0.5729
10.2074	0.6844
10.2474	0.7708
10.2874	0.8116
10.3274	0.8231
10.3674	0.8182
10.4074	0.77
10.4474	0.762
10.4874	0.8034
10.5274	0.8213
10.5674	0.8353
10.6074	0.8502
10.6474	0.853
10.6874	0.85
10.7274	0.8191
10.7674	0.7578
10.8074	0.7401
10.8474	0.759
10.8874	0.7638
10.9274	0.7708
10.9674	0.8035
11.0074	0.7946
11.0474	0.7552
11.0874	0.7656
11.1274	0.7961
11.1674	0.8171
11.2074	0.8386
11.2474	0.8553
11.2874	0.8634
11.3274	0.8715
11.3674	0.881
11.4074	0.8951
11.4474	0.886
11.4874	0.8669
11.5274	0.8545
11.5675	0.8372
11.6075	0.8196
11.6475	0.816
11.6875	0.7998
11.7275	0.7344
11.7675	0.6754
11.8075	0.582
11.8475	0.5586
11.8875	0.68
11.9275	0.7724
11.9675	0.797
12.0075	0.7908
12.0475	0.787
12.0875	0.8111
12.1275	0.8378
12.1675	0.8508
12.2075	0.8667
12.2475	0.8803
12.2875	0.8831
12.3275	0.8986
12.3675	0.9
12.4075	0.893
12.4475	0.88
12.4875	0.8613
12.5275	0.856
12.5675	0.868
12.6075	0.8456
12.6475	0.846
12.6875	0.8553
12.7275	0.858
12.7675	0.8499
12.8075	0.843
12.8475	0.84
12.8875	0.8543
12.9275	0.8647
12.9675	0.8667
13.0075	0.8507
13.0475	0.854
13.0875	0.8598
13.1275	0.8579
13.1675	0.8697
13.2075	0.8857
13.2475	0.899
13.2875	0.918
13.3275	0.932
13.3675	0.9304
13.4075	0.9366
13.4475	0.9542
13.4875	0.9579
13.5275	0.9628
13.5675	0.963
13.6075	0.9622
13.6475	0.9722
13.6876	0.9814
13.7276	0.9921
13.7676	0.9908
13.8076	0.9907
13.8476	0.983
13.8876	0.9559
13.9276	0.9137
13.9676	0.8933
14.0076	0.8438
14.0476	0.8259
14.0876	0.813
14.1276	0.8184
14.1676	0.828
14.2076	0.8162
14.2476	0.8167
14.2876	0.811
14.3276	0.821
14.3676	0.8244
14.4076	0.8337
14.4476	0.8515
14.4876	0.8515
14.5276	0.86
14.5676	0.8704
14.6076	0.863
14.6476	0.8652
14.6876	0.8591
14.7276	0.8476
14.7676	0.838
14.8076	0.8323
14.8476	0.8514
14.8876	0.8475
14.9276	0.826
14.9676	0.8113
15.0076	0.7735
15.0476	0.7075
15.0876	0.6039
15.1276	0.6002
15.1676	0.699
15.2076	0.8017
15.2476	0.8462
15.2876	0.8609
15.3276	0.8758
15.3676	0.8844
15.4076	0.8927
