Infrared Spectrum: N-(1-NITRO-2-NAPHTHYL) ACETAMID
Formula: C12 H10 N2 O3
CAS: 5419-82-9
State: SOLID (MINERAL OIL MULL)
Melting point: 122-124 C
Class: COBLENTZ
Instrument: Not specified, most likely a prism, grating, or hybrid spectrometer.
Sampling: TRANSMISSION
Resolution: 4
Origin: WYANDOTTE CHEMICALS CORP., WYANDOTTE, MICHIGAN, USA
MICROMETERS	TRANSMITTANCE
2.02	0.461
2.05983	0.476
2.09966	0.491
2.13949	0.493
2.17931	0.493
2.21914	0.496
2.25897	0.503
2.2988	0.509
2.33863	0.521
2.37846	0.544
2.41829	0.548
2.45812	0.549
2.49794	0.552
2.53777	0.561
2.5776	0.572
2.61743	0.579
2.65726	0.599
2.69709	0.612
2.73692	0.617
2.77674	0.622
2.81657	0.624
2.8564	0.624
2.89623	0.625
2.93606	0.624
2.97589	0.625
3.01572	0.624
3.05555	0.531
3.09537	0.341
3.1352	0.25
3.17503	0.235
3.21486	0.248
3.25469	0.271
3.29452	0.145
3.33435	0.1
3.37417	0.054
3.414	0.057
3.45383	0.064
3.49366	0.071
3.53349	0.145
3.57332	0.384
3.61315	0.5
3.65298	0.569
3.6928	0.581
3.73263	0.599
3.77246	0.622
3.81229	0.634
3.85212	0.645
3.89195	0.668
3.93178	0.673
3.9716	0.687
4.01143	0.692
4.05126	0.703
4.09109	0.713
4.13092	0.718
4.17075	0.721
4.21058	0.726
4.25041	0.718
4.29023	0.725
4.33006	0.75
4.36989	0.771
4.40972	0.783
4.44955	0.776
4.48938	0.783
4.52921	0.783
4.56903	0.784
4.60886	0.802
4.64869	0.817
4.68852	0.824
4.72835	0.827
4.76818	0.832
4.80801	0.852
4.84784	0.854
4.88766	0.857
4.92749	0.869
4.96732	0.869
5.00715	0.867
5.04698	0.879
5.08681	0.877
5.12664	0.874
5.16646	0.854
5.20629	0.857
5.24612	0.882
5.28595	0.907
5.32578	0.91
5.36561	0.922
5.40544	0.917
5.44527	0.902
5.48509	0.92
5.52492	0.908
5.56475	0.92
5.60458	0.915
5.64441	0.917
5.68424	0.923
5.72407	0.89
5.76389	0.85
5.80372	0.783
5.84355	0.733
5.88338	0.667
5.92321	0.509
5.96304	0.193
6.00287	0.119
6.0427	0.314
6.08252	0.44
6.12235	0.587
6.16218	0.668
6.20201	0.607
6.24184	0.509
6.28167	0.2
6.3215	0.17
6.36132	0.18
6.40115	0.067
6.44098	0.072
6.48081	0.066
6.52064	0.059
6.56047	0.127
6.6003	0.201
6.64013	0.211
6.67995	0.253
6.71978	0.263
6.75961	0.149
6.79944	0.086
6.83927	0.129
6.8791	0.155
6.91893	0.205
6.95875	0.293
6.99858	0.349
7.03841	0.4
7.07824	0.437
7.11807	0.412
7.1579	0.284
7.19773	0.17
7.23756	0.142
7.27738	0.15
7.31721	0.115
7.35704	0.201
7.39687	0.298
7.4367	0.261
7.47653	0.205
7.51636	0.418
7.55618	0.561
7.59601	0.609
7.63584	0.609
7.67567	0.513
7.7155	0.269
7.75533	0.15
7.79516	0.11
7.83499	0.188
7.87481	0.256
7.91464	0.359
7.95447	0.455
7.9943	0.493
8.03413	0.508
8.07396	0.488
8.11379	0.586
8.15361	0.609
8.19344	0.615
8.23327	0.478
8.2731	0.62
8.31293	0.658
8.35276	0.668
8.39259	0.688
8.43242	0.706
8.47224	0.72
8.51207	0.713
8.5519	0.668
8.59173	0.71
8.63156	0.571
8.67139	0.634
8.71122	0.69
8.75104	0.759
8.79087	0.781
8.8307	0.788
8.87053	0.791
8.91036	0.791
8.95019	0.789
8.99002	0.793
9.02985	0.804
9.06967	0.799
9.1095	0.794
9.14933	0.789
9.18916	0.786
9.22899	0.781
9.26882	0.776
9.30865	0.769
9.34847	0.751
9.3883	0.667
9.42813	0.577
9.46796	0.528
9.50779	0.658
9.54762	0.716
9.58745	0.715
9.62728	0.736
9.6671	0.753
9.70693	0.695
9.74676	0.728
9.78659	0.751
9.82642	0.645
9.86625	0.579
9.90608	0.649
9.9459	0.73
9.98573	0.763
10.0256	0.788
10.0654	0.802
10.1052	0.794
10.145	0.764
10.1849	0.798
10.2247	0.761
10.2645	0.731
10.3044	0.557
10.3442	0.455
10.384	0.604
10.4238	0.678
10.4637	0.66
10.5035	0.718
10.5433	0.776
10.5832	0.811
10.623	0.824
10.6628	0.837
10.7026	0.844
10.7425	0.85
10.7823	0.859
10.8221	0.87
10.862	0.877
10.9018	0.88
10.9416	0.882
10.9814	0.897
11.0213	0.9
11.0611	0.903
11.1009	0.907
11.1408	0.908
11.1806	0.908
11.2204	0.908
11.2603	0.908
11.3001	0.907
11.3399	0.902
11.3797	0.895
11.4196	0.819
11.4594	0.564
11.4992	0.355
11.5391	0.468
11.5789	0.774
11.6187	0.865
11.6585	0.902
11.6984	0.918
11.7382	0.92
11.778	0.915
11.8179	0.91
11.8577	0.897
11.8975	0.879
11.9373	0.831
11.9772	0.708
12.017	0.402
12.0568	0.231
12.0967	0.557
12.1365	0.75
12.1763	0.846
12.2161	0.867
12.256	0.887
12.2958	0.902
12.3356	0.907
12.3755	0.91
12.4153	0.908
12.4551	0.91
12.4949	0.903
12.5348	0.865
12.5746	0.692
12.6144	0.589
12.6543	0.716
12.6941	0.716
12.7339	0.753
12.7737	0.794
12.8136	0.836
12.8534	0.837
12.8932	0.809
12.9331	0.741
12.9729	0.64
13.0127	0.433
13.0525	0.198
13.0924	0.144
13.1322	0.251
13.172	0.369
13.2119	0.465
13.2517	0.506
13.2915	0.5
13.3313	0.461
13.3712	0.375
13.411	0.316
13.4508	0.289
13.4907	0.289
13.5305	0.369
13.5703	0.432
13.6101	0.458
13.65	0.486
13.6898	0.509
13.7296	0.49
13.7695	0.491
13.8093	0.579
13.8491	0.596
13.8889	0.604
13.9288	0.617
13.9686	0.645
14.0084	0.668
14.0483	0.683
14.0881	0.7
14.1279	0.711
14.1677	0.728
14.2076	0.733
14.2474	0.748
14.2872	0.756
14.3271	0.758
14.3669	0.758
14.4067	0.774
14.4465	0.773
14.4864	0.779
14.5262	0.783
14.566	0.788
14.6059	0.789
14.6457	0.786
14.6855	0.773
14.7253	0.733
14.7652	0.67
14.805	0.612
14.8448	0.627
14.8847	0.69
14.9245	0.741
14.9643	0.764
15.0041	0.759
15.044	0.725
15.0838	0.708
15.1236	0.726
15.1635	0.735
15.2033	0.697
15.2431	0.647
15.2829	0.609
15.3228	0.614
15.3626	0.65
15.4024	0.683
15.4423	0.711
15.4821	0.726
15.5219	0.73
15.5617	0.736
15.6016	0.73
15.6414	0.72
15.6812	0.715
15.7211	0.71
15.7609	0.705
15.8007	0.698
15.8405	0.682
15.8804	0.667
15.9202	0.665
15.96	0.662
15.9999	0.649
