Infrared Spectrum: Silane, diethyl-,
Formula: C4 H12 Si
CAS: 542-91-6
State: SOLUTION (11% CCl4 FOR 3800-1300, 2% CS2 FOR 1300-650, AND 11% CCl4 FOR 650-250)
Boiling point: 56 C
Class: COBLENTZ III
Instrument: PERKIN-ELMER 521 (GRATING)
Instrument parameters: FILTERS AT 3150, 2500, 2000, 1150, 700, 410. GRATING CHANGES: 2000, 630
Path length: 0.010 CM, 0.010 CM, AND 0.019 CM
Resolution: 2
Origin: DOW CORNING CORP.
1/CM	TRANSMITTANCE
232	0.8267
241	0.826
250	0.8219
259	0.8164
268	0.8177
277	0.8097
286	0.8069
295	0.8111
304	0.8089
313	0.7947
322	0.7955
331	0.8166
340	0.8375
349	0.837
358	0.8352
367	0.8307
376	0.8212
385	0.8076
394	0.8139
403	0.8181
412	0.8185
421	0.8128
430	0.8111
439	0.8105
448	0.7989
457	0.7747
466	0.7289
475	0.6519
484	0.5799
493	0.4829
502	0.3734
511	0.416
520	0.4592
529	0.5161
538	0.5621
547	0.6449
556	0.7057
565	0.7227
574	0.7213
583	0.7038
592	0.6562
601	0.5336
610	0.3957
619	0.432
628	0.5149
637	0.5017
646	0.5141
655	0.7878
664	0.7645
673	0.7594
682	0.74
691	0.7178
700	0.6375
709	0.6095
718	0.5642
727	0.6072
736	0.7
745	0.7149
754	0.7519
763	0.751
772	0.7479
781	0.7855
790	0.806
799	0.7953
808	0.7506
817	0.6828
826	0.4805
835	0.1355
844	0.1826
853	0.6123
862	0.7598
871	0.7999
880	0.8204
889	0.8223
898	0.8175
907	0.8017
916	0.7629
925	0.6582
934	0.3526
943	0.2624
952	0.5521
961	0.4388
970	0.2971
979	0.5874
988	0.7351
997	0.6838
1006	0.5644
1015	0.5338
1024	0.6938
1033	0.8146
1042	0.8261
1051	0.8283
1060	0.8282
1069	0.8318
1078	0.8408
1087	0.8482
1096	0.8533
1105	0.8562
1114	0.8565
1123	0.8633
1132	0.8718
1141	0.874
1150	0.8729
1159	0.8746
1168	0.8684
1177	0.8643
1186	0.8585
1195	0.8496
1204	0.8369
1213	0.8094
1222	0.7563
1231	0.7385
1240	0.8072
1249	0.8373
1258	0.8442
1267	0.848
1276	0.8492
1285	0.8475
1294	0.8438
1303	0.8424
1312	0.8451
1321	0.8505
1330	0.8447
1339	0.838
1348	0.8302
1357	0.8163
1366	0.7765
1375	0.6749
1384	0.6553
1393	0.7142
1402	0.6555
1411	0.3994
1420	0.4998
1429	0.6868
1438	0.6501
1447	0.5855
1456	0.2368
1465	0.2944
1474	0.5633
1483	0.7108
1492	0.7765
1501	0.8174
1510	0.8465
1519	0.8671
1528	0.8826
1537	0.8968
1546	0.8989
1555	0.897
1564	0.8931
1573	0.8873
1582	0.8808
1591	0.8731
1600	0.8623
1609	0.8528
1618	0.8471
1627	0.8481
1636	0.8477
1645	0.8494
1654	0.8514
1663	0.852
1672	0.8518
1681	0.8524
1690	0.8537
1699	0.8553
1708	0.857
1717	0.8586
1726	0.8597
1735	0.8604
1744	0.8602
1753	0.8653
1762	0.8692
1771	0.8611
1780	0.8582
1789	0.8564
1798	0.856
1807	0.8557
1816	0.8554
1825	0.8548
1834	0.8541
1843	0.8535
1852	0.8531
1861	0.8493
1870	0.8442
1879	0.837
1888	0.838
1897	0.8437
1906	0.8494
1915	0.8485
1924	0.8443
1933	0.8417
1942	0.8437
1951	0.8486
1960	0.8516
1969	0.854
1978	0.8532
1987	0.851
1996	0.8463
2005	0.8379
2014	0.8305
2023	0.8177
2032	0.798
2041	0.7772
2050	0.754
2059	0.7073
2068	0.6161
2077	0.5528
2086	0.4602
2095	0.3037
2104	0
2113	0
2122	0.0003
2131	0
2140	0.0232
2149	0.1068
2158	0.1904
2167	0.3194
2176	0.4954
2185	0.5873
2194	0.6386
2203	0.6795
2212	0.7506
2221	0.7794
2230	0.7957
2239	0.8137
2248	0.8311
2257	0.8428
2266	0.8509
2275	0.8554
2284	0.8567
2293	0.8565
2302	0.8563
2311	0.8565
2320	0.8562
2329	0.8547
2338	0.8542
2347	0.8542
2356	0.8543
2365	0.8523
2374	0.851
2383	0.8516
2392	0.853
2401	0.8545
2410	0.8553
2419	0.8559
2428	0.8566
2437	0.8575
2446	0.8589
2455	0.8602
2464	0.8616
2473	0.8626
2482	0.8634
2491	0.8642
2500	0.8644
2509	0.8645
2518	0.8643
2527	0.8634
2536	0.8626
2545	0.8616
2554	0.8604
2563	0.8591
2572	0.8579
2581	0.8559
2590	0.8537
2599	0.8504
2608	0.8471
2617	0.8436
2626	0.8401
2635	0.8365
2644	0.8404
2653	0.8444
2662	0.844
2671	0.8403
2680	0.8346
2689	0.8289
2698	0.8307
2707	0.8336
2716	0.8332
2725	0.821
2734	0.7634
2743	0.7691
2752	0.8172
2761	0.8151
2770	0.8104
2779	0.8003
2788	0.7717
2797	0.7054
2806	0.6216
2815	0.6245
2824	0.682
2833	0.6657
2842	0.6515
2851	0.6395
2860	0.5751
2869	0.365
2878	0.1344
2887	0.0476
2896	0.157
2905	0.1055
2914	0.0629
2923	0.0571
2932	0.0929
2941	0.0875
2950	0.0682
2959	0.0051
2968	0.0014
2977	0.1161
2986	0.3742
2995	0.5281
3004	0.6556
3013	0.7071
3022	0.7278
3031	0.7423
3040	0.7537
3049	0.7599
3058	0.7703
3067	0.7826
3076	0.7913
3085	0.798
3094	0.8022
3103	0.8063
3112	0.8088
3121	0.8106
3130	0.8125
3139	0.8146
3148	0.8132
3157	0.811
3166	0.8125
3175	0.817
3184	0.8282
3193	0.8381
3202	0.8436
3211	0.8485
3220	0.8524
3229	0.8546
3238	0.8571
3247	0.8592
3256	0.8613
3265	0.8632
3274	0.8648
3283	0.8659
3292	0.8662
3301	0.8665
3310	0.8666
3319	0.8666
3328	0.8667
3337	0.8667
3346	0.8665
3355	0.866
3364	0.8655
3373	0.865
3382	0.8644
3391	0.8636
3400	0.863
3409	0.8624
3418	0.862
3427	0.8648
3436	0.867
3445	0.8673
3454	0.8677
3463	0.868
3472	0.8681
3481	0.868
3490	0.8679
3499	0.8676
3508	0.8672
3517	0.8669
3526	0.8681
3535	0.8698
3544	0.8714
3553	0.8729
3562	0.8745
3571	0.8758
3580	0.8761
3589	0.8764
3598	0.8764
3607	0.8761
3616	0.8758
3625	0.8754
3634	0.8751
3643	0.8747
3652	0.8744
3661	0.8742
3670	0.8741
3679	0.8739
3688	0.8739
3697	0.8747
3706	0.8755
3715	0.8763
3724	0.8779
3733	0.8797
3742	0.8828
3751	0.8856
3760	0.8802
3769	0.8743
3778	0.874
3787	0.8748
3796	0.876
3805	0.877
3814	0.8781
