Infrared Spectrum: Delta-VALEROLACTONE
Formula: C5 H8 O2
CAS: 542-28-9
State: SOLUTION (10% IN CCl4 FOR 3800-1330, 10% IN CS2 FOR 1330-460 CM^-^1)
Class: COBLENTZ III
Instrument: DOW KBr FOREPRISM-GRATING
Instrument parameters: BLAZED AT 3.5, 12.0, 20.0 MICRON, CHANGED AT 5.0, 7.5, 14.9 MICRON
Sampling: TRANSMISSION
Path length: 0.011, 0.010 CM
Resolution: 4
Origin: DOW CHEMICAL COMPANY
1/CM	TRANSMITTANCE
454.778	0.717
463.31	0.794
471.843	0.836
480.375	0.859
488.908	0.863
497.44	0.848
505.973	0.725
514.505	0.776
523.037	0.822
531.57	0.871
540.102	0.87
548.635	0.847
557.167	0.788
565.7	0.812
574.232	0.832
582.764	0.86
591.297	0.898
599.829	0.914
608.362	0.917
616.894	0.913
625.427	0.898
633.959	0.87
642.491	0.755
651.024	0.648
659.556	0.775
668.089	0.864
676.621	0.897
685.154	0.91
693.686	0.902
702.218	0.891
710.751	0.901
719.283	0.911
727.816	0.905
736.348	0.877
744.881	0.72
753.413	0.775
761.945	0.852
770.478	0.885
779.01	0.885
787.543	0.852
796.075	0.799
804.608	0.86
813.14	0.85
821.672	0.691
830.205	0.807
838.737	0.852
847.27	0.803
855.802	0.74
864.335	0.713
872.867	0.681
881.399	0.808
889.932	0.868
898.464	0.878
906.997	0.834
915.529	0.729
924.062	0.3969
932.594	0.296
941.126	0.709
949.659	0.818
958.191	0.856
966.724	0.815
975.256	0.728
983.789	0.673
992.321	0.834
1000.85	0.882
1009.39	0.891
1017.92	0.872
1026.45	0.824
1034.98	0.733
1043.52	0.493
1052.05	0.014
1060.58	0.036
1069.11	0.208
1077.65	0.054
1086.18	0.165
1094.71	0.423
1103.24	0.652
1111.77	0.723
1120.31	0.697
1128.84	0.574
1137.37	0.245
1145.9	0.081
1154.44	0.022
1162.97	0.168
1171.5	0.425
1180.03	0.447
1188.57	0.533
1197.1	0.632
1205.63	0.62
1214.16	0.525
1222.7	0.239
1231.23	0.012
1239.76	0.014
1248.29	0.086
1256.83	0.127
1265.36	0.3
1273.89	0.278
1282.42	0.482
1290.96	0.622
1299.49	0.639
1308.02	0.627
1316.55	0.621
1325.09	0.445
1333.62	0.487
1342.15	0.216
1350.68	0.609
1359.22	0.729
1367.75	0.787
1376.28	0.729
1384.81	0.552
1393.35	0.37
1401.88	0.208
1410.41	0.495
1418.94	0.653
1427.47	0.664
1436.01	0.598
1444.54	0.414
1453.07	0.663
1461.6	0.382
1470.14	0.663
1478.67	0.534
1487.2	0.697
1495.73	0.745
1504.27	0.733
1512.8	0.705
1521.33	0.673
1529.86	0.629
1538.4	0.553
1546.93	0.485
1555.46	0.486
1563.99	0.54
1572.53	0.589
1581.06	0.617
1589.59	0.659
1598.12	0.737
1606.66	0.795
1615.19	0.823
1623.72	0.834
1632.25	0.834
1640.79	0.807
1649.32	0.771
1657.85	0.76
1666.38	0.756
1674.92	0.741
1683.45	0.711
1691.98	0.618
1700.51	0.513
1709.04	0.383
1717.58	0.156
1726.11	0.008
1734.64	0
1743.17	0
1751.71	0
1760.24	0.008
1768.77	0.2
1777.3	0.425
1785.84	0.605
1794.37	0.643
1802.9	0.689
1811.43	0.747
1819.97	0.778
1828.5	0.796
1837.03	0.832
1845.56	0.84
1854.1	0.842
1862.63	0.868
1871.16	0.883
1879.69	0.891
1888.23	0.894
1896.76	0.891
1905.29	0.897
1913.82	0.906
1922.36	0.909
1930.89	0.913
1939.42	0.914
1947.95	0.917
1956.49	0.914
1965.02	0.906
1973.55	0.889
1982.08	0.879
1990.62	0.901
1999.15	0.905
2007.68	0.9015
2016.21	0.904
2024.74	0.916
2033.28	0.917
2041.81	0.919
2050.34	0.9255
2058.87	0.926
2067.41	0.925
2075.94	0.926
2084.47	0.9305
2093	0.933
2101.54	0.934
2110.07	0.934
2118.6	0.935
2127.13	0.937
2135.67	0.9335
2144.2	0.929
2152.73	0.926
2161.26	0.93
2169.8	0.933
2178.33	0.934
2186.86	0.93
2195.39	0.93
2203.93	0.9225
2212.46	0.922
2220.99	0.9239
2229.52	0.931
2238.06	0.93
2246.59	0.927
2255.12	0.9241
2263.65	0.919
2272.19	0.911
2280.72	0.905
2289.25	0.905
2297.78	0.9079
2306.31	0.9106
2314.85	0.9123
2323.38	0.9199
2331.91	0.9256
2340.44	0.9334
2348.98	0.938
2357.51	0.934
2366.04	0.9281
2374.57	0.9226
2383.11	0.911
2391.64	0.9119
2400.17	0.9243
2408.7	0.9344
2417.24	0.942
2425.77	0.943
2434.3	0.942
2442.83	0.9416
2451.37	0.941
2459.9	0.9346
2468.43	0.9266
2476.96	0.9278
2485.5	0.9334
2494.03	0.9384
2502.56	0.941
2511.09	0.9414
2519.63	0.942
2528.16	0.943
2536.69	0.9426
2545.22	0.939
2553.76	0.941
2562.29	0.942
2570.82	0.942
2579.35	0.945
2587.88	0.947
2596.42	0.947
2604.95	0.947
2613.48	0.946
2622.01	0.9422
2630.55	0.938
2639.08	0.939
2647.61	0.939
2656.14	0.939
2664.68	0.9336
2673.21	0.925
2681.74	0.9294
2690.27	0.9344
2698.81	0.9464
2707.34	0.9456
2715.87	0.945
2724.4	0.9426
2732.94	0.939
2741.47	0.9336
2750	0.9306
2758.53	0.922
2767.07	0.9136
2775.6	0.8936
2784.13	0.894
2792.66	0.9024
2801.2	0.902
2809.73	0.891
2818.26	0.8937
2826.79	0.8946
2835.33	0.8879
2843.86	0.8562
2852.39	0.7962
2860.92	0.69
2869.46	0.6346
2877.99	0.5758
2886.52	0.4691
2895.05	0.4378
2903.58	0.389
2912.12	0.4084
2920.65	0.4564
2929.18	0.4342
2937.71	0.3496
2946.25	0.28
2954.78	0.1903
2963.31	0.1687
2971.84	0.254
2980.38	0.3583
2988.91	0.4366
2997.44	0.5773
3005.97	0.7241
3014.51	0.8169
3023.04	0.8579
3031.57	0.8796
3040.1	0.8903
3048.64	0.894
3057.17	0.898
3065.7	0.899
3074.23	0.899
3082.77	0.9016
3091.3	0.9076
3099.83	0.911
3108.36	0.9133
3116.9	0.915
3125.43	0.918
3133.96	0.918
3142.49	0.918
3151.03	0.917
3159.56	0.918
3168.09	0.918
3176.62	0.918
3185.15	0.918
3193.69	0.919
3202.22	0.918
3210.75	0.918
3219.28	0.918
3227.82	0.919
3236.35	0.922
3244.88	0.922
3253.41	0.9236
3261.95	0.9276
3270.48	0.9303
3279.01	0.93
3287.54	0.9333
3296.08	0.933
3304.61	0.938
3313.14	0.939
3321.67	0.9413
3330.21	0.943
3338.74	0.945
3347.27	0.942
3355.8	0.942
3364.34	0.942
3372.87	0.941
3381.4	0.939
3389.93	0.938
3398.47	0.938
3407	0.937
3415.53	0.93
3424.06	0.9267
3432.6	0.9145
3441.13	0.905
3449.66	0.8922
3458.19	0.887
3466.73	0.8932
3475.26	0.905
3483.79	0.9142
3492.32	0.9267
3500.85	0.9357
3509.39	0.9437
3517.92	0.951
3526.45	0.954
3534.98	0.9582
3543.52	0.963
3552.05	0.9662
3560.58	0.969
3569.11	0.9668
3577.65	0.9556
3586.18	0.9742
3594.71	0.977
3603.24	0.975
3611.78	0.9795
3620.31	0.9806
3628.84	0.982
3637.37	0.982
3645.91	0.9858
3654.44	0.982
3662.97	0.978
3671.5	0.9766
3680.04	0.971
3688.57	0.9742
3697.1	0.9852
3705.63	0.986
3714.17	0.9862
3722.7	0.989
3731.23	0.99
3739.76	0.9898
3748.3	0.989
3756.83	0.991
3765.36	0.991
3773.89	0.99
3782.42	0.99
3790.96	0.9898
