Infrared Spectrum: 14-Heptacosanone
Formula: C 27 H 54 O
CAS: 542-50-7
State: gas
Origin: EPA-IR VAPOR PHASE LIBRARY
1/CM	ABSORBANCE
549.9	0.00016
559.547	0
569.193	0.000126
578.84	0.00015
588.486	0.000157
598.133	0.000166
607.779	0.000195
617.426	0.000273
627.072	0.000287
636.719	0.000206
646.365	0.000275
656.012	0.000192
665.658	0.000246
675.305	0.000224
684.951	0.000325
694.598	0.0005383
704.245	0.0009125
713.891	0.0014372
723.538	0.0015048
733.184	0.0012792
742.831	0.0010779
752.477	0.000957
762.124	0.0008197
771.77	0.0007837
781.417	0.00066316
791.063	0.0005491
800.71	0.0005155
810.356	0.000483
820.003	0.000455
829.649	0.000461
839.296	0.000469
848.943	0.0005001
858.589	0.000484
868.236	0.000482
877.882	0.000542
887.529	0.0005546
897.175	0.0005341
906.822	0.00058856
916.468	0.000557
926.115	0.00060431
935.761	0.00063001
945.408	0.00064533
955.054	0.0007168
964.701	0.0007755
974.347	0.0008123
983.994	0.0008669
993.64	0.000942
1003.29	0.0010933
1012.93	0.0011308
1022.58	0.0011617
1032.23	0.0013022
1041.87	0.0014632
1051.52	0.001623
1061.17	0.001613
1070.81	0.0015694
1080.46	0.0015462
1090.11	0.001653
1099.75	0.0015552
1109.4	0.0014048
1119.05	0.0014044
1128.69	0.0015595
1138.34	0.0013665
1147.99	0.0012088
1157.63	0.001225
1167.28	0.0012586
1176.92	0.0011828
1186.57	0.0010617
1196.22	0.0010537
1205.86	0.0007494
1215.51	0.0008829
1225.16	0.0009071
1234.8	0.0011897
1244.45	0.0013727
1254.1	0.0014559
1263.74	0.0015913
1273.39	0.001893
1283.04	0.002093
1292.68	0.002223
1302.33	0.002513
1311.98	0.002573
1321.62	0.002533
1331.27	0.002853
1340.92	0.003783
1350.56	0.004803
1360.21	0.004763
1369.86	0.003713
1379.5	0.002673
1389.15	0.002013
1398.79	0.001753
1408.44	0.002033
1418.09	0.002453
1427.73	0.002563
1437.38	0.003293
1447.03	0.004973
1456.67	0.006953
1466.32	0.006523
1475.97	0.003563
1485.61	0.001843
1495.26	0.001177
1504.91	0.0008714
1514.55	0.0007114
1524.2	0.00062687
1533.85	0.00058905
1543.49	0.0005083
1553.14	0.000456
1562.79	0.000456
1572.43	0.000428
1582.08	0.000414
1591.73	0.000417
1601.37	0.000414
1611.02	0.000429
1620.67	0.000477
1630.31	0.0005056
1639.96	0.0005068
1649.6	0.0005757
1659.25	0.00067194
1668.9	0.0007982
1678.54	0.0010943
1688.19	0.0015105
1697.84	0.002353
1707.48	0.004533
1717.13	0.009313
1726.78	0.011273
1736.42	0.005073
1746.07	0.002303
1755.72	0.0013361
1765.36	0.0009272
1775.01	0.0007504
1784.66	0.00060833
1794.3	0.0005646
1803.95	0.000477
1813.6	0.000435
1823.24	0.000418
1832.89	0.000424
1842.54	0.000383
1852.18	0.000408
1861.83	0.000371
1871.47	0.000395
1881.12	0.00035
1890.77	0.000368
1900.41	0.000362
1910.06	0.000384
1919.71	0.00036
1929.35	0.000351
1939	0.000349
1948.65	0.000353
1958.29	0.000403
1967.94	0.000375
1977.59	0.000363
1987.23	0.000417
1996.88	0.000389
2006.53	0.000431
2016.17	0.00046
2025.82	0.000492
2035.47	0.000493
2045.11	0.000476
2054.76	0.000474
2064.41	0.000484
2074.05	0.000463
2083.7	0.000483
2093.35	0.000485
2102.99	0.000482
2112.64	0.000477
2122.28	0.000469
2131.93	0.000461
2141.58	0.000484
2151.22	0.0005143
2160.87	0.0005191
2170.52	0.0005224
2180.16	0.0005052
2189.81	0.0005312
2199.46	0.0005174
2209.1	0.000534
2218.75	0.0005137
2228.4	0.0004953
2238.04	0.0005053
2247.69	0.0005348
2257.34	0.0005076
2266.98	0.0005289
2276.63	0.0005542
2286.28	0.0005241
2295.92	0.0005508
2305.57	0.0005381
2315.22	0.0005787
2324.86	0.0005451
2334.51	0.0005505
2344.16	0.0005498
2353.8	0.0005635
2363.45	0.0005575
2373.09	0.0005729
2382.74	0.0005791
2392.39	0.00058901
2402.03	0.0005623
2411.68	0.0005756
2421.33	0.0005502
2430.97	0.0005641
2440.62	0.0005516
2450.27	0.00061562
2459.91	0.000599549
2469.56	0.000592255
2479.21	0.000573
2488.85	0.00062568
2498.5	0.00061069
2508.15	0.00068419
2517.79	0.00063795
2527.44	0.0006992
2537.09	0.000707
2546.73	0.000709
2556.38	0.0007421
2566.03	0.0008028
2575.67	0.0007868
2585.32	0.0008491
2594.96	0.0008828
2604.61	0.0008839
2614.26	0.0009565
2623.9	0.0010438
2633.55	0.001043
2643.2	0.0011386
2652.84	0.001177
2662.49	0.0012159
2672.14	0.0013385
2681.78	0.0013973
2691.43	0.0013726
2701.08	0.0013217
2710.72	0.0012992
2720.37	0.0013135
2730.02	0.001358
2739.66	0.0014377
2749.31	0.0015547
2758.96	0.0015859
2768.6	0.001713
2778.25	0.001883
2787.9	0.002173
2797.54	0.002573
2807.19	0.003163
2816.84	0.003913
2826.48	0.004953
2836.13	0.006803
2845.77	0.011703
2855.42	0.025753
2865.07	0.034643
2874.71	0.024603
2884.36	0.020003
2894.01	0.020243
2903.65	0.026863
2913.3	0.039963
2922.95	0.067283
2932.59	0.094463
2942.24	0.068263
2951.89	0.040023
2961.53	0.029373
2971.18	0.022303
2980.83	0.011803
2990.47	0.006923
3000.12	0.004783
3009.77	0.003563
3019.41	0.002863
3029.06	0.002353
3038.71	0.001873
3048.35	0.001663
3058	0.0015487
3067.64	0.0013062
3077.29	0.001205
3086.94	0.0011545
3096.58	0.0010043
3106.23	0.0009349
3115.88	0.0009812
3125.52	0.000797
3135.17	0.0007542
3144.82	0.0007379
3154.46	0.00066566
3164.11	0.00068517
3173.76	0.00064617
3183.4	0.00062508
3193.05	0.0005524
3202.7	0.0004997
3212.34	0.000416
3221.99	0.000427
3231.64	0.000425
3241.28	0.000427
3250.93	0.000339
3260.58	0.000408
3270.22	0.000331
3279.87	0.000349
3289.52	0.000257
3299.16	0.000297
3308.81	0.000382
3318.45	0.000274
3328.1	0.00035
3337.75	0.000333
3347.39	0.000273
3357.04	0.000237
3366.69	0.000249
3376.33	0.00038
3385.98	0.000239
3395.63	0.000239
3405.27	0.000326
3414.92	0.000422
3424.57	0.000433
3434.21	0.000376
3443.86	0.000385
3453.51	0.000219
3463.15	0.000219
3472.8	0.00011
3482.45	0.000101
3492.09	0.00015
3501.74	0.0001
3511.39	0.000216
3521.03	0.00016
3530.68	6e-05
3540.33	0.000192
3549.97	0.000137
3559.62	5.1e-05
3569.26	0.000216
3578.91	0.000136
3588.56	0.000207
3598.2	0.000139
3607.85	0.000268
3617.5	0.000222
3627.14	0.000301
3636.79	0.000272
3646.44	0.000298
3656.08	0.00033
3665.73	0.000356
3675.38	0.000256
3685.02	0.000289
3694.67	0.000299
3704.32	0.00025
3713.96	0.00033
3723.61	0.000346
3733.26	0.000382
3742.9	0.000297
3752.55	0.00023
3762.2	0.000307
3771.84	0.000254
3781.49	0.000293
3791.13	0.000333
3800.78	0.000371
3810.43	0.000293
3820.07	0.000333
3829.72	0.000444
3839.37	0.000312
3849.01	0.000315
3858.66	0.000413
3868.31	0.000368
3877.95	0.0005073
3887.6	0.000378
3897.25	0.00039
3906.89	0.000405
3916.54	0.000404
3926.19	0.000459
3935.83	0.000372
3945.48	0.000483
3955.13	0.0005103
3964.77	0.0005109
3974.42	0.000489
3984.07	0.000498
3993.71	0.0005254
