Infrared Spectrum: ANILINE HYDROBROMIDE
Formula: C6 H7 N  * H Br
CAS: 542-11-0
State: SOLID (MINERAL OIL MULL)
Melting point: 283 C
Class: COBLENTZ
Instrument: Not specified, most likely a grating spectrometer.
Sampling: TRANSMISSION
Resolution: 4
Origin: STANDARD OIL OF OHIO
1/CM	TRANSMITTANCE
606.522	0.811
614.976	0.806
623.43	0.802
631.884	0.809
640.338	0.818
648.793	0.821
657.247	0.816
665.701	0.802
674.155	0.651
682.609	0.45
691.063	0.84
699.517	0.865
707.971	0.857
716.426	0.833
724.88	0.816
733.334	0.668
741.788	0.056
750.242	0.469
758.696	0.845
767.15	0.87
775.604	0.879
784.058	0.877
792.513	0.863
800.967	0.889
809.421	0.889
817.875	0.889
826.329	0.887
834.783	0.886
843.237	0.882
851.691	0.875
860.145	0.887
868.6	0.884
877.054	0.879
885.508	0.872
893.962	0.865
902.416	0.872
910.87	0.872
919.324	0.869
927.778	0.865
936.233	0.858
944.687	0.848
953.141	0.843
961.595	0.838
970.049	0.816
978.503	0.76
986.957	0.79
995.411	0.824
1003.87	0.826
1012.32	0.819
1020.77	0.79
1029.23	0.535
1037.68	0.807
1046.14	0.789
1054.59	0.801
1063.04	0.797
1071.5	0.768
1079.95	0.67
1088.41	0.557
1096.86	0.596
1105.31	0.498
1113.77	0.545
1122.22	0.69
1130.68	0.736
1139.13	0.736
1147.59	0.709
1156.04	0.758
1164.49	0.755
1172.95	0.746
1181.4	0.726
1189.86	0.59
1198.31	0.719
1206.76	0.787
1215.22	0.787
1223.67	0.79
1232.13	0.79
1240.58	0.785
1249.03	0.782
1257.49	0.778
1265.94	0.77
1274.4	0.751
1282.85	0.707
1291.31	0.695
1299.76	0.753
1308.21	0.741
1316.67	0.724
1325.12	0.697
1333.58	0.732
1342.03	0.727
1350.48	0.705
1358.94	0.675
1367.39	0.659
1375.85	0.671
1384.3	0.724
1392.75	0.734
1401.21	0.732
1409.66	0.732
1418.12	0.731
1426.57	0.717
1435.03	0.647
1443.48	0.545
1451.93	0.45
1460.39	0.404
1468.84	0.484
1477.3	0.467
1485.75	0.214
1494.2	0.149
1502.66	0.469
1511.11	0.36
1519.57	0.459
1528.02	0.455
1536.47	0.392
1544.93	0.295
1553.38	0.212
1561.84	0.212
1570.29	0.314
1578.75	0.44
1587.2	0.472
1595.65	0.399
1604.11	0.534
1612.56	0.637
1621.02	0.721
1629.47	0.717
1637.92	0.784
1646.38	0.785
1654.83	0.787
1663.29	0.79
1671.74	0.794
1680.19	0.792
1688.65	0.79
1697.1	0.785
1705.56	0.778
1714.01	0.768
1722.47	0.768
1730.92	0.77
1739.37	0.767
1747.83	0.772
1756.28	0.777
1764.74	0.777
1773.19	0.775
1781.64	0.772
1790.1	0.767
1798.55	0.758
1807.01	0.758
1815.46	0.76
1823.91	0.765
1832.37	0.768
1840.82	0.77
1849.28	0.77
1857.73	0.77
1866.19	0.765
1874.64	0.751
1883.09	0.755
1891.55	0.767
1900	0.767
1908.46	0.777
1916.91	0.795
1925.36	0.799
1933.82	0.799
1942.27	0.795
1950.73	0.79
1959.18	0.773
1967.63	0.761
1976.09	0.778
1984.54	0.777
1993	0.802
2001.45	0.806
2009.91	0.806
2018.36	0.804
2026.81	0.806
2035.27	0.806
2043.72	0.806
2052.18	0.806
2060.63	0.806
2069.08	0.806
2077.54	0.801
2085.99	0.799
2094.45	0.795
2102.9	0.797
2111.35	0.801
2119.81	0.795
2128.26	0.784
2136.72	0.773
2145.17	0.777
2153.63	0.782
2162.08	0.78
2170.53	0.777
2178.99	0.772
2187.44	0.768
2195.9	0.77
2204.35	0.767
2212.8	0.767
2221.26	0.768
2229.71	0.773
2238.17	0.777
2246.62	0.775
2255.07	0.772
2263.53	0.772
2271.98	0.772
2280.44	0.772
2288.89	0.77
2297.35	0.768
2305.8	0.763
2314.25	0.76
2322.71	0.756
2331.16	0.751
2339.62	0.75
2348.07	0.743
2356.52	0.739
2364.98	0.738
2373.43	0.738
2381.89	0.734
2390.34	0.729
2398.79	0.726
2407.25	0.717
2415.7	0.707
2424.16	0.705
2432.61	0.702
2441.07	0.698
2449.52	0.692
2457.97	0.68
2466.43	0.675
2474.88	0.666
2483.34	0.658
2491.79	0.651
2500.24	0.636
2508.7	0.62
2517.15	0.596
2525.61	0.569
2534.06	0.506
2542.51	0.447
2550.97	0.399
2559.42	0.321
2567.88	0.297
2576.33	0.27
2584.79	0.219
2593.24	0.193
2601.69	0.217
2610.15	0.277
2618.6	0.314
2627.06	0.367
2635.51	0.38
2643.96	0.38
2652.42	0.379
2660.87	0.384
2669.33	0.387
2677.78	0.386
2686.23	0.382
2694.69	0.375
2703.14	0.358
2711.6	0.34
2720.05	0.326
2728.51	0.309
2736.96	0.292
2745.41	0.277
2753.87	0.256
2762.32	0.236
2770.78	0.214
2779.23	0.187
2787.68	0.156
2796.14	0.132
2804.59	0.098
2813.05	0.074
2821.5	0.047
2829.95	0.03
2838.41	0.018
2846.86	0.008
2855.32	0
2863.77	0
2872.22	0
2880.68	0
2889.13	0
2897.59	0
2906.04	0
2914.5	0
2922.95	0
2931.4	0
2939.86	0
2948.31	0
2956.77	0
2965.22	0
2973.67	0.008
2982.13	0.017
2990.58	0.02
2999.04	0.022
3007.49	0.027
3015.94	0.03
3024.4	0.035
3032.85	0.057
3041.31	0.071
3049.76	0.074
3058.22	0.096
3066.67	0.11
3075.12	0.119
3083.58	0.132
3092.03	0.147
3100.49	0.173
3108.94	0.193
3117.39	0.222
3125.85	0.239
3134.3	0.26
3142.76	0.295
3151.21	0.328
3159.66	0.375
3168.12	0.404
3176.57	0.44
3185.03	0.472
3193.48	0.501
3201.94	0.532
3210.39	0.552
3218.84	0.581
3227.3	0.603
3235.75	0.619
3244.21	0.632
3252.66	0.647
3261.11	0.658
3269.57	0.666
3278.02	0.67
3286.48	0.675
3294.93	0.676
3303.38	0.68
3311.84	0.68
3320.29	0.68
3328.75	0.68
3337.2	0.68
3345.66	0.68
3354.11	0.68
3362.56	0.678
3371.02	0.678
3379.47	0.678
3387.93	0.676
3396.38	0.676
3404.83	0.676
3413.29	0.676
3421.74	0.673
3430.2	0.673
3438.65	0.673
3447.1	0.671
3455.56	0.671
3464.01	0.67
3472.47	0.67
3480.92	0.67
3489.38	0.668
3497.83	0.668
3506.28	0.666
3514.74	0.666
3523.19	0.664
3531.65	0.664
3540.1	0.661
3548.55	0.659
3557.01	0.658
3565.46	0.654
3573.92	0.654
3582.37	0.653
3590.82	0.653
3599.28	0.651
3607.73	0.651
3616.19	0.651
3624.64	0.651
3633.1	0.647
3641.55	0.646
3650	0.644
3658.46	0.642
3666.91	0.639
3675.37	0.637
3683.82	0.637
3692.27	0.636
3700.73	0.636
3709.18	0.632
3717.64	0.632
3726.09	0.632
3734.54	0.63
3743	0.63
3751.45	0.629
3759.91	0.629
3768.36	0.627
3776.82	0.624
3785.27	0.624
3793.72	0.622
3802.18	0.62
3810.63	0.619
3819.09	0.619
3827.54	0.615
3835.99	0.613
3844.45	0.612
3852.9	0.61
3861.36	0.608
3869.81	0.607
3878.26	0.605
3886.72	0.605
3895.17	0.603
3903.63	0.602
3912.08	0.6
3920.54	0.6
3928.99	0.598
3937.44	0.596
3945.9	0.593
3954.35	0.586
3962.81	0.583
3971.26	0.583
