Infrared Spectrum: 2,3,6-Trimethylacetophenone
Formula: C 11 H 14 O
CAS: 54200-67-8
State: gas
Origin: EPA-IR VAPOR PHASE LIBRARY
1/CM	ABSORBANCE
549.9	0.0013999
559.547	0.0012958
569.193	0.001565
578.84	0.003375
588.486	0.007995
598.133	0.008025
607.779	0.003055
617.426	0.0013895
627.072	0.001103
636.719	0.0009389
646.365	0.0014239
656.012	0.004595
665.658	0.006835
675.305	0.004075
684.951	0.0011816
694.598	0.000487793
704.245	0.000336
713.891	0.0004523
723.538	0.0007228
733.184	0.001433
742.831	0.0013464
752.477	0.0006087
762.124	0.0003879
771.77	0.0003911
781.417	0.000334
791.063	0.0004368
800.71	0.0009172
810.356	0.0011604
820.003	0.0012247
829.649	0.002835
839.296	0.010325
848.943	0.020035
858.589	0.008315
868.236	0.001775
877.882	0.0007996
887.529	0.000726
897.175	0.0007681
906.822	0.00105
916.468	0.001825
926.115	0.003305
935.761	0.005765
945.408	0.007445
955.054	0.008495
964.701	0.008185
974.347	0.006205
983.994	0.005145
993.64	0.005045
1003.29	0.005225
1012.93	0.005425
1022.58	0.005475
1032.23	0.006055
1041.87	0.007855
1051.52	0.011575
1061.17	0.012265
1070.81	0.006745
1080.46	0.003045
1090.11	0.001885
1099.75	0.001725
1109.4	0.0014315
1119.05	0.0014263
1128.69	0.001525
1138.34	0.001585
1147.99	0.004025
1157.63	0.012465
1167.28	0.011965
1176.92	0.003135
1186.57	0.001635
1196.22	0.001765
1205.86	0.001825
1215.51	0.003205
1225.16	0.009425
1234.8	0.029395
1244.45	0.048625
1254.1	0.032265
1263.74	0.011575
1273.39	0.005295
1283.04	0.004295
1292.68	0.004535
1302.33	0.003685
1311.98	0.003675
1321.62	0.005035
1331.27	0.008185
1340.92	0.015915
1350.56	0.029495
1360.21	0.027035
1369.86	0.012555
1379.5	0.009725
1389.15	0.009705
1398.79	0.008225
1408.44	0.009625
1418.09	0.012835
1427.73	0.014905
1437.38	0.014445
1447.03	0.013295
1456.67	0.011925
1466.32	0.010895
1475.97	0.009995
1485.61	0.009395
1495.26	0.008575
1504.91	0.008125
1514.55	0.007955
1524.2	0.008105
1533.85	0.008125
1543.49	0.008005
1553.14	0.008035
1562.79	0.008565
1572.43	0.009125
1582.08	0.008835
1591.73	0.009685
1601.37	0.017795
1611.02	0.023615
1620.67	0.013315
1630.31	0.005065
1639.96	0.004355
1649.6	0.004895
1659.25	0.006105
1668.9	0.007945
1678.54	0.010255
1688.19	0.016315
1697.84	0.036265
1707.48	0.079275
1717.13	0.090465
1726.78	0.039995
1736.42	0.010915
1746.07	0.005865
1755.72	0.005395
1765.36	0.004205
1775.01	0.002965
1784.66	0.002375
1794.3	0.001545
1803.95	0.0009587
1813.6	0.0007483
1823.24	0.00050828
1832.89	0.000438
1842.54	0.0003934
1852.18	0.000359
1861.83	0.0003929
1871.47	0.00052767
1881.12	0.0006886
1890.77	0.000877
1900.41	0.0009577
1910.06	0.0010852
1919.71	0.0009969
1929.35	0.0008191
1939	0.0006447
1948.65	0.00054562
1958.29	0.0004359
1967.94	0.000337
1977.59	0.000289
1987.23	0.000238
1996.88	0.000272
2006.53	0.000278
2016.17	0.000336
2025.82	0.000275
2035.47	0.000208
2045.11	0.000134
2054.76	0.000189
2064.41	0.000133
2074.05	0.000147
2083.7	0.000136
2093.35	0.000229
2102.99	0.000232
2112.64	0.000163
2122.28	0.000233
2131.93	0.000184
2141.58	0.00016
2151.22	0.000234
2160.87	0.000225
2170.52	0.000287
2180.16	0.000322
2189.81	0.000284
2199.46	0.000228
2209.1	0.00022
2218.75	0.000199
2228.4	0.000198
2238.04	0.000155
2247.69	0.000143
2257.34	0.000148
2266.98	0.000199
2276.63	0.000241
2286.28	0.000359
2295.92	0.0004444
2305.57	0.0004733
2315.22	0.0004375
2324.86	0.000373
2334.51	0.000359
2344.16	0.000338
2353.8	0.000295
2363.45	0.000351
2373.09	0.000355
2382.74	0.0004437
2392.39	0.0006097
2402.03	0.0006926
2411.68	0.0007089
2421.33	0.0006072
2430.97	0.00052447
2440.62	0.0004717
2450.27	0.0004596
2459.91	0.0004395
2469.56	0.0004246
2479.21	0.000583
2488.85	0.000484053
2498.5	0.00053329
2508.15	0.0004357
2517.79	0.0003957
2527.44	0.000349
2537.09	0.000319
2546.73	0.000326
2556.38	0.000307
2566.03	0.000318
2575.67	0.000312
2585.32	0.000269
2594.96	0.0003901
2604.61	0.000354
2614.26	0.000314
2623.9	0.00035
2633.55	0.000368
2643.2	0.0004295
2652.84	0.00054452
2662.49	0.0006405
2672.14	0.000678
2681.78	0.0006963
2691.43	0.0006053
2701.08	0.0006421
2710.72	0.0007381
2720.37	0.0007985
2730.02	0.0012331
2739.66	0.001955
2749.31	0.002195
2758.96	0.001605
2768.6	0.0012272
2778.25	0.0010866
2787.9	0.0011809
2797.54	0.001505
2807.19	0.001795
2816.84	0.002375
2826.48	0.002975
2836.13	0.003955
2845.77	0.005775
2855.42	0.009045
2865.07	0.013845
2874.71	0.016805
2884.36	0.015795
2894.01	0.014935
2903.65	0.016695
2913.3	0.021775
2922.95	0.032555
2932.59	0.039955
2942.24	0.033505
2951.89	0.023725
2961.53	0.019705
2971.18	0.018505
2980.83	0.019235
2990.47	0.021485
3000.12	0.023145
3009.77	0.024305
3019.41	0.024315
3029.06	0.022745
3038.71	0.019795
3048.35	0.014955
3058	0.010095
3067.64	0.007545
3077.29	0.005925
3086.94	0.004825
3096.58	0.003675
3106.23	0.002945
3115.88	0.001995
3125.52	0.001615
3135.17	0.0012569
3144.82	0.001289
3154.46	0.000896
3164.11	0.0007897
3173.76	0.0008201
3183.4	0.000735
3193.05	0.00051946
3202.7	0.0004356
3212.34	0.0004621
3221.99	0.000305
3231.64	0.000356
3241.28	0.000333
3250.93	0.000309
3260.58	0.000198
3270.22	0.000309
3279.87	0.000306
3289.52	0.000376
3299.16	0.000276
3308.81	0.000225
3318.45	0.000315
3328.1	0.000177
3337.75	0.000342
3347.39	0.0004637
3357.04	0.000326
3366.69	0.0005838
3376.33	0.0005718
3385.98	0.0010107
3395.63	0.0014365
3405.27	0.001685
3414.92	0.001535
3424.57	0.0009638
3434.21	0.0003988
3443.86	0.000356
3453.51	0.000269
3463.15	0.0004095
3472.8	0.000253
3482.45	0.000304
3492.09	0.000336
3501.74	0.000287
3511.39	0.000198
3521.03	0.000121
3530.68	2.6e-05
3540.33	0.000221
3549.97	0.000264
3559.62	8.7e-05
3569.26	0.000118
3578.91	0.000267
3588.56	0.000146
3598.2	0.00014
3607.85	0.000168
3617.5	0.000127
3627.14	0.000114
3636.79	0.000113
3646.44	0.000136
3656.08	0.000151
3665.73	0.000104
3675.38	9.5e-05
3685.02	7.9e-05
3694.67	0.0001
3704.32	0.000233
3713.96	0.000104
3723.61	9.5e-05
3733.26	0.00015
3742.9	0.000162
3752.55	0.000247
3762.2	0.000278
3771.84	0.000227
3781.49	0.000363
3791.13	0.000201
3800.78	0.000276
3810.43	0.000297
3820.07	0.000248
3829.72	0.000272
3839.37	0.00025
3849.01	0.000383
3858.66	0.0004286
3868.31	0.0004235
3877.95	0.000344
3887.6	0.0003982
3897.25	0.0004285
3906.89	0.0005426
3916.54	0.00050671
3926.19	0.0005926
3935.83	0.0007373
3945.48	0.0006445
3955.13	0.0006578
3964.77	0.0006886
3974.42	0.0008041
3984.07	0.0006453
3993.71	0.0006958
