Infrared Spectrum: Oleic acid, tetrahydrofurfuryl ester
Formula: C23 H42 O3
CAS: 5420-17-7
State: SOLUTION (10% CCl4 FOR 3800-1340, 10% CS2 FOR 1340-435 CM^-^1)
Class: COBLENTZ III
Instrument: DOW KBr FOREPRISM-GRATING
Instrument parameters: BLAZED AT 3.5, 12.0, 20.0 MICRON AND CHANGED AT 5.0, 7.5, 14.9 MICRON
Sampling: TRANSMISSION
Path length: 0.011 CM, 0.011 CM
Resolution: 2
Origin: DOW CHEMICAL COMPANY
1/CM	TRANSMITTANCE
3768	0.9321
3759	0.9326
3750	0.9319
3741	0.9318
3732	0.9327
3723	0.9333
3714	0.9334
3705	0.9349
3696	0.9335
3687	0.9265
3678	0.9214
3669	0.9232
3660	0.9246
3651	0.9256
3642	0.9248
3633	0.9241
3624	0.9244
3615	0.924
3606	0.9237
3597	0.9232
3588	0.9229
3579	0.9225
3570	0.9207
3561	0.9203
3552	0.9214
3543	0.9211
3534	0.9208
3525	0.9191
3516	0.9179
3507	0.9166
3498	0.9152
3489	0.9126
3480	0.9079
3471	0.9022
3462	0.8965
3453	0.895
3444	0.8969
3435	0.8991
3426	0.9005
3417	0.901
3408	0.9016
3399	0.9021
3390	0.9025
3381	0.9029
3372	0.9033
3363	0.9036
3354	0.9042
3345	0.9057
3336	0.9063
3327	0.9055
3318	0.9061
3309	0.9081
3300	0.9072
3291	0.9078
3282	0.9096
3273	0.9103
3264	0.9109
3255	0.9119
3246	0.9127
3237	0.9136
3228	0.9146
3219	0.9152
3210	0.9151
3201	0.9136
3192	0.9149
3183	0.9133
3174	0.9131
3165	0.913
3156	0.9134
3147	0.9131
3138	0.9136
3129	0.9119
3120	0.9103
3111	0.9086
3102	0.9081
3093	0.9091
3084	0.8971
3075	0.8931
3066	0.8801
3057	0.8677
3048	0.8547
3039	0.8437
3030	0.8123
3021	0.7638
3012	0.6835
3003	0.4842
2994	0.4981
2985	0.3979
2976	0.2329
2967	0.0618
2958	0.04
2949	0.0324
2940	0.0116
2931	0.0001
2922	0.0007
2913	0.0109
2904	0.0452
2895	0.1599
2886	0.2013
2877	0.1148
2868	0.0996
2859	0.0206
2850	0.0193
2841	0.2498
2832	0.4996
2823	0.6553
2814	0.7517
2805	0.786
2796	0.8098
2787	0.8289
2778	0.8469
2769	0.8582
2760	0.8645
2751	0.868
2742	0.869
2733	0.869
2724	0.869
2715	0.8696
2706	0.8704
2697	0.8707
2688	0.8691
2679	0.8682
2670	0.8694
2661	0.8719
2652	0.8777
2643	0.8807
2634	0.886
2625	0.8889
2616	0.8919
2607	0.8947
2598	0.8972
2589	0.8996
2580	0.9022
2571	0.9043
2562	0.9062
2553	0.9082
2544	0.91
2535	0.9117
2526	0.9134
2517	0.9151
2508	0.9159
2499	0.9165
2490	0.917
2481	0.9185
2472	0.9198
2463	0.9207
2454	0.9202
2445	0.9227
2436	0.9234
2427	0.9239
2418	0.9243
2409	0.9251
2400	0.9261
2391	0.9257
2382	0.9287
2373	0.9319
2364	0.9276
2355	0.9307
2346	0.9282
2337	0.9227
2328	0.9218
2319	0.9221
2310	0.9206
2301	0.9198
2292	0.9215
2283	0.9216
2274	0.9218
2265	0.9207
2256	0.92
2247	0.9193
2238	0.9202
2229	0.9204
2220	0.9202
2211	0.9215
2202	0.9227
2193	0.923
2184	0.9234
2175	0.9244
2166	0.9235
2157	0.9238
2148	0.9241
2139	0.9237
2130	0.9234
2121	0.9227
2112	0.9224
2103	0.9221
2094	0.9204
2085	0.9208
2076	0.9194
2067	0.9174
2058	0.9152
2049	0.9148
2040	0.9131
2031	0.9111
2022	0.9108
2013	0.9112
2004	0.9118
1995	0.9142
1986	0.9145
1977	0.9141
1968	0.9146
1959	0.937
1950	0.9184
1941	0.9168
1932	0.9163
1923	0.9157
1914	0.9149
1905	0.9159
1896	0.916
1887	0.9151
1878	0.9153
1869	0.9158
1860	0.9151
1851	0.9121
1842	0.9081
1833	0.9027
1824	0.899
1815	0.8944
1806	0.8874
1797	0.8759
1788	0.8573
1779	0.8289
1770	0.7714
1761	0.5479
1752	0.1083
1743	0.0196
1734	0.1091
1725	0.4052
1716	0.6209
1707	0.7249
1698	0.7846
1689	0.8271
1680	0.852
1671	0.8676
1662	0.8648
1653	0.8565
1644	0.8613
1635	0.8861
1626	0.8927
1617	0.8904
1608	0.8876
1599	0.8757
1590	0.8452
1581	0.8467
1572	0.8283
1563	0.7706
1554	0.7633
1545	0.8041
1536	0.8528
1527	0.8537
1518	0.8688
1509	0.8649
1500	0.8523
1491	0.8373
1482	0.8169
1473	0.5545
1464	0.3258
1455	0.4396
1446	0.5268
1437	0.6086
1428	0.7133
1419	0.6936
1410	0.7802
1401	0.7376
1392	0.6929
1383	0.6663
1374	0.6339
1365	0.5741
1356	0.6118
1347	0.651
1338	0.6735
1329	0.6911
1320	0.6663
1311	0.6454
1302	0.622
1293	0.6075
1284	0.5773
1275	0.5624
1266	0.5568
1257	0.527
1248	0.4743
1239	0.4495
1230	0.4775
1221	0.5107
1212	0.5136
1203	0.4723
1194	0.3957
1185	0.3103
1176	0.2495
1167	0.2237
1158	0.3355
1149	0.4707
1140	0.5137
1131	0.5928
1122	0.6062
1113	0.5826
1104	0.5032
1095	0.3225
1086	0.3002
1077	0.3461
1068	0.5327
1059	0.6566
1050	0.7033
1041	0.6881
1032	0.5846
1023	0.4692
1014	0.6144
1005	0.6636
996	0.6586
987	0.679
978	0.7344
969	0.7508
960	0.7892
951	0.8267
942	0.8211
933	0.8134
924	0.7729
915	0.7546
906	0.771
897	0.7718
888	0.7708
879	0.7742
870	0.7716
861	0.775
852	0.784
843	0.8267
834	0.8289
825	0.8392
816	0.862
807	0.8866
798	0.9034
789	0.9052
780	0.901
771	0.8934
762	0.882
753	0.8751
744	0.8265
735	0.7583
726	0.6808
717	0.7161
708	0.7568
699	0.7906
690	0.8203
681	0.8458
672	0.8884
663	0.9033
654	0.8911
645	0.9055
636	0.9173
627	0.9275
618	0.9311
609	0.9268
600	0.9236
591	0.9235
582	0.925
573	0.9363
564	0.9467
555	0.9488
546	0.95
537	0.9526
528	0.9533
519	0.9534
510	0.9498
501	0.9429
492	0.933
483	0.9211
474	0.9093
465	0.9015
456	0.8971
447	0.8944
