Infrared Spectrum: M-(2-Hydroxyethyl)lactamide
Formula: C 5 H 11 N O 3
CAS: 5422-34-4
State: gas
Origin: EPA-IR VAPOR PHASE LIBRARY
1/CM	ABSORBANCE
549.8	0.00827
559.445	0.00813
569.09	0.0084
578.734	0.00732
588.379	0.00699
598.024	0.00594
607.669	0.00536
617.313	0.00489
626.958	0.00425
636.603	0.00391
646.248	0.00348
655.893	0.00305
665.537	0.00283
675.182	0.00252
684.827	0.00236
694.472	0.00228
704.116	0.0022
713.761	0.00216
723.406	0.00206
733.051	0.00234
742.695	0.00224
752.34	0.0026
761.985	0.00239
771.63	0.0023
781.275	0.00231
790.919	0.0022
800.564	0.00228
810.209	0.0026
819.854	0.00294
829.498	0.00325
839.143	0.00338
848.788	0.00415
858.433	0.00544
868.078	0.00578
877.722	0.0062
887.367	0.00653
897.012	0.00633
906.657	0.00548
916.301	0.00493
925.946	0.00473
935.591	0.00469
945.236	0.00471
954.88	0.00459
964.525	0.00444
974.17	0.00485
983.815	0.00558
993.46	0.00687
1003.1	0.00899
1012.75	0.01199
1022.39	0.01555
1032.04	0.01996
1041.68	0.02422
1051.33	0.02823
1060.97	0.02944
1070.62	0.02865
1080.26	0.02627
1089.91	0.02579
1099.55	0.02698
1109.2	0.02571
1118.84	0.02151
1128.49	0.01901
1138.13	0.01913
1147.78	0.01812
1157.42	0.01537
1167.07	0.01262
1176.71	0.01228
1186.36	0.01295
1196	0.01431
1205.64	0.01578
1215.29	0.01784
1224.93	0.01805
1234.58	0.01866
1244.22	0.01854
1253.87	0.01968
1263.51	0.02114
1273.16	0.0223
1282.8	0.02036
1292.45	0.01678
1302.09	0.01347
1311.74	0.01135
1321.38	0.01044
1331.03	0.01019
1340.67	0.01036
1350.32	0.01133
1359.96	0.01313
1369.61	0.01456
1379.25	0.01509
1388.9	0.01499
1398.54	0.01432
1408.18	0.01272
1417.83	0.01141
1427.47	0.01177
1437.12	0.01332
1446.76	0.01495
1456.41	0.01582
1466.05	0.01608
1475.7	0.01764
1485.34	0.02251
1494.99	0.03577
1504.63	0.05704
1514.28	0.07026
1523.92	0.05724
1533.57	0.0322
1543.21	0.01699
1552.86	0.01031
1562.5	0.00696
1572.15	0.00507
1581.79	0.004
1591.44	0.00332
1601.08	0.00296
1610.73	0.00273
1620.37	0.00295
1630.01	0.00318
1639.66	0.00395
1649.3	0.00524
1658.95	0.00738
1668.59	0.01102
1678.24	0.01911
1687.88	0.03662
1697.53	0.0635
1707.17	0.07547
1716.82	0.05896
1726.46	0.02963
1736.11	0.0132
1745.75	0.00739
1755.4	0.00508
1765.04	0.00353
1774.69	0.00248
1784.33	0.00178
1793.98	0.00139
1803.62	0.0011
1813.27	0.00103
1822.91	0.0009756
1832.55	0.000862
1842.2	0.0007965
1851.84	0.0008586
1861.49	0.0006689
1871.13	0.0006919
1880.78	0.0006868
1890.42	0.0007187
1900.07	0.0007345
1909.71	0.000702
1919.36	0.0007395
1929	0.0006724
1938.65	0.0007163
1948.29	0.0007142
1957.94	0.0006775
1967.58	0.0007545
1977.23	0.0006637
1986.87	0.0006252
1996.52	0.000614
2006.16	0.0005892
2015.81	0.0005849
2025.45	0.0006076
2035.1	0.000596
2044.74	0.0005317
2054.38	0.0005125
2064.03	0.0005913
2073.67	0.0006167
2083.32	0.0005723
2092.96	0.0005698
2102.61	0.0005018
2112.25	0.0005766
2121.9	0.0005252
2131.54	0.0005605
2141.19	0.0005467
2150.83	0.000492
2160.48	0.0004624
2170.12	0.0004751
2179.77	0.0004662
2189.41	0.0004692
2199.06	0.0004261
2208.7	0.0004943
2218.35	0.0004535
2227.99	0.0005652
2237.64	0.000548
2247.28	0.0005559
2256.92	0.0005399
2266.57	0.0005586
2276.21	0.0005006
2285.86	0.0005288
2295.5	0.0005677
2305.15	0.0005708
2314.79	0.0005391
2324.44	0.0005864
2334.08	0.0005169
2343.73	0.0005689
2353.37	0.000544
2363.02	0.0005636
2372.66	0.0006364
2382.31	0.0006144
2391.95	0.0005573
2401.6	0.0005889
2411.24	0.0006342
2420.89	0.0005711
2430.53	0.0006014
2440.18	0.0005683
2449.82	0.0006294
2459.47	0.0006106
2469.11	0.0005679
2478.75	0.0006559
2488.4	0.0006316
2498.04	0.0006083
2507.69	0.0006469
2517.33	0.0006478
2526.98	0.0007625
2536.62	0.0007393
2546.27	0.0006724
2555.91	0.000706
2565.56	0.000744
2575.2	0.0006841
2584.85	0.0006606
2594.49	0.0007094
2604.14	0.0006759
2613.78	0.0006611
2623.43	0.0007667
2633.07	0.0007373
2642.72	0.0007715
2652.36	0.0006847
2662.01	0.000843
2671.65	0.000832
2681.29	0.0008827
2690.94	0.00108
2700.58	0.00128
2710.23	0.00138
2719.87	0.00134
2729.52	0.00137
2739.16	0.00145
2748.81	0.00146
2758.45	0.00152
2768.1	0.00164
2777.74	0.00183
2787.39	0.00205
2797.03	0.00227
2806.68	0.00242
2816.32	0.00286
2825.97	0.00319
2835.61	0.00403
2845.26	0.00512
2854.9	0.0067
2864.55	0.00903
2874.19	0.01247
2883.84	0.01561
2893.48	0.01668
2903.12	0.01605
2912.77	0.01685
2922.41	0.01958
2932.06	0.02351
2941.7	0.02543
2951.35	0.02311
2960.99	0.01888
2970.64	0.01855
2980.28	0.01864
2989.93	0.01448
2999.57	0.00884
3009.22	0.00491
3018.86	0.00289
3028.51	0.00192
3038.15	0.00158
3047.8	0.00121
3057.44	0.00102
3067.09	0.00095
3076.73	0.0009042
3086.38	0.0007639
3096.02	0.0007463
3105.67	0.0006799
3115.31	0.0008147
3124.95	0.0006915
3134.6	0.0007403
3144.24	0.0007771
3153.89	0.0007131
3163.53	0.0006895
3173.18	0.000757
3182.82	0.0008508
3192.47	0.0007493
3202.11	0.0008029
3211.76	0.0008316
3221.4	0.0006847
3231.05	0.0007474
3240.69	0.0008417
3250.34	0.0007516
3259.98	0.0007019
3269.63	0.0006824
3279.27	0.00084
3288.92	0.0009504
3298.56	0.0008968
3308.21	0.00109
3317.85	0.0009983
3327.49	0.00109
3337.14	0.00116
3346.78	0.00112
3356.43	0.00144
3366.07	0.00136
3375.72	0.00168
3385.36	0.00201
3395.01	0.00249
3404.65	0.00279
3414.3	0.00298
3423.94	0.00427
3433.59	0.00752
3443.23	0.01256
3452.88	0.01619
3462.52	0.01545
3472.17	0.01161
3481.81	0.00925
3491.46	0.0087
3501.1	0.00854
3510.75	0.00844
3520.39	0.0077
3530.04	0.00679
3539.68	0.00589
3549.32	0.00494
3558.97	0.0043
3568.61	0.004
3578.26	0.00338
3587.9	0.00279
3597.55	0.00283
3607.19	0.00281
3616.84	0.00272
3626.48	0.00299
3636.13	0.0037
3645.77	0.00571
3655.42	0.00828
3665.06	0.00994
3674.71	0.00834
3684.35	0.00557
3694	0.00325
3703.64	0.00199
3713.29	0.00158
3722.93	0.00133
3732.58	0.00101
3742.22	0.00101
3751.86	0.0009528
3761.51	0.00107
3771.15	0.0008454
3780.8	0.0008036
3790.44	0.0007431
3800.09	0.0007742
3809.73	0.0005651
3819.38	0.0007571
3829.02	0.0007256
3838.67	0.0006641
3848.31	0.0006736
3857.96	0.0007368
3867.6	0.0006711
3877.25	0.0006941
3886.89	0.0006685
3896.54	0.0006951
3906.18	0.000769
3915.83	0.000734
3925.47	0.0005896
3935.12	0.0006642
3944.76	0.0006165
3954.41	0.0006707
3964.05	0.0005989
3973.69	0.0007253
3983.34	0.000501
3992.98	0.0005608
