Infrared Spectrum: 4-CYCLOHEXYL-2-BROMO-ACETANILIDE
Formula: C14 H18 Br N O
CAS: 5422-53-7
State: SOLID (1.0% IN KBr PELLET)
Class: COBLENTZ
Instrument: Not specified, most likely a prism, grating, or hybrid spectrometer.
Sampling: TRANSMISSION
Path length: 0.0355 CM THICK
Resolution: 4
Origin: ANDERSON PHYSICAL LABORATORY
1/CM	TRANSMITTANCE
671.028	0.549
679.439	0.603
687.85	0.576
696.262	0.546
704.673	0.515
713.084	0.483
721.495	0.531
729.907	0.536
738.318	0.534
746.729	0.555
755.14	0.56
763.551	0.548
771.963	0.648
780.374	0.687
788.785	0.719
797.196	0.729
805.608	0.677
814.019	0.2981
822.43	0.2821
830.841	0.364
839.252	0.72
847.664	0.714
856.075	0.822
864.486	0.824
872.897	0.879
881.308	0.87
889.72	0.848
898.131	0.872
906.542	0.876
914.953	0.839
923.365	0.882
931.776	0.869
940.187	0.803
948.598	0.845
957.009	0.804
965.421	0.6121
973.832	0.753
982.243	0.8
990.654	0.728
999.066	0.536
1007.48	0.66
1015.89	0.62
1024.3	0.701
1032.71	0.696
1041.12	0.702
1049.53	0.783
1057.94	0.827
1066.36	0.824
1074.77	0.821
1083.18	0.827
1091.59	0.822
1100	0.7441
1108.41	0.689
1116.82	0.818
1125.23	0.804
1133.65	0.704
1142.06	0.818
1150.47	0.819
1158.88	0.812
1167.29	0.792
1175.7	0.741
1184.11	0.71
1192.52	0.768
1200.93	0.723
1209.35	0.752
1217.76	0.732
1226.17	0.678
1234.58	0.678
1242.99	0.666
1251.4	0.582
1259.81	0.483
1268.22	0.427
1276.64	0.5579
1285.05	0.445
1293.46	0.4559
1301.87	0.481
1310.28	0.2381
1318.69	0.271
1327.1	0.429
1335.51	0.579
1343.93	0.551
1352.34	0.496
1360.75	0.399
1369.16	0.213
1377.57	0.3479
1385.98	0.417
1394.39	0.42
1402.8	0.324
1411.22	0.169
1419.63	0.297
1428.04	0.53
1436.45	0.465
1444.86	0.342
1453.27	0.267
1461.68	0.463
1470.09	0.501
1478.51	0.439
1486.92	0.391
1495.33	0.324
1503.74	0.229
1512.15	0.075
1520.56	0.06
1528.97	0.055
1537.38	0.1119
1545.79	0.219
1554.21	0.4079
1562.62	0.585
1571.03	0.579
1579.44	0.533
1587.85	0.357
1596.26	0.166
1604.67	0.2199
1613.08	0.336
1621.5	0.364
1629.91	0.294
1638.32	0.228
1646.73	0.109
1655.14	0.043
1663.55	0.054
1671.96	0.154
1680.37	0.37
1688.79	0.5219
1697.2	0.6899
1705.61	0.749
1714.02	0.81
1722.43	0.831
1730.84	0.858
1739.25	0.869
1747.66	0.89
1756.08	0.893
1764.49	0.9
1772.9	0.905
1781.31	0.908
1789.72	0.924
1798.13	0.929
1806.54	0.93
1814.95	0.935
1823.37	0.938
1831.78	0.939
1840.19	0.941
1848.6	0.938
1857.01	0.938
1865.42	0.945
1873.83	0.941
1882.24	0.935
1890.65	0.909
1899.07	0.905
1907.48	0.921
1915.89	0.941
1924.3	0.948
1932.71	0.951
1941.12	0.954
1949.53	0.953
1957.94	0.948
1966.36	0.948
1974.77	0.947
1983.18	0.95
1991.59	0.951
2000	0.953
2008.41	0.951
2016.82	0.951
2025.23	0.951
2033.65	0.951
2042.06	0.951
2050.47	0.9519
2058.88	0.9537
2067.29	0.954
2075.7	0.956
2084.11	0.9579
2092.52	0.9621
2100.94	0.963
2109.35	0.9615
2117.76	0.9557
2126.17	0.953
2134.58	0.9512
2142.99	0.948
2151.4	0.947
2159.81	0.945
2168.22	0.9441
2176.64	0.942
2185.05	0.941
2193.46	0.941
2201.87	0.939
2210.28	0.938
2218.69	0.936
2227.1	0.936
2235.51	0.936
2243.93	0.936
2252.34	0.936
2260.75	0.936
2269.16	0.9351
2277.57	0.9318
2285.98	0.9297
2294.39	0.9296
2302.8	0.9358
2311.22	0.9423
2319.63	0.9487
2328.04	0.9521
2336.45	0.9595
2344.86	0.9681
2353.27	0.9671
2361.68	0.9578
2370.09	0.9532
2378.51	0.951
2386.92	0.951
2395.33	0.9521
2403.74	0.9538
2412.15	0.956
2420.56	0.9631
2428.97	0.9715
2437.38	0.972
2445.8	0.966
2454.21	0.965
2462.62	0.963
2471.03	0.9577
2479.44	0.954
2487.85	0.954
2496.26	0.953
2504.67	0.9488
2513.08	0.945
2521.5	0.9448
2529.91	0.944
2538.32	0.941
2546.73	0.941
2555.14	0.9388
2563.55	0.9341
2571.96	0.9257
2580.37	0.9172
2588.79	0.9112
2597.2	0.9041
2605.61	0.903
2614.02	0.9001
2622.43	0.8979
2630.84	0.8876
2639.25	0.885
2647.66	0.8925
2656.08	0.8935
2664.49	0.8892
2672.9	0.8873
2681.31	0.8813
2689.72	0.881
2698.13	0.879
2706.54	0.8761
2714.95	0.8617
2723.37	0.8477
2731.78	0.8284
2740.19	0.8149
2748.6	0.8016
2757.01	0.7592
2765.42	0.7254
2773.83	0.7038
2782.24	0.679
2790.66	0.6283
2799.07	0.515
2807.48	0.3039
2815.89	0.291
2824.3	0.3146
2832.71	0.3695
2841.12	0.4504
2849.53	0.4412
2857.94	0.3787
2866.36	0.2892
2874.77	0.2083
2883.18	0.1988
2891.59	0.1529
2900	0.1623
2908.41	0.3092
2916.82	0.469
2925.23	0.6241
2933.65	0.7142
2942.06	0.7506
2950.47	0.7497
2958.88	0.7399
2967.29	0.7197
2975.7	0.7014
2984.11	0.6912
2992.52	0.6651
3000.94	0.6213
3009.35	0.5935
3017.76	0.5925
3026.17	0.5959
3034.58	0.6027
3042.99	0.6094
3051.4	0.6142
3059.81	0.617
3068.23	0.6041
3076.64	0.5856
3085.05	0.5566
3093.46	0.549
3101.87	0.5576
3110.28	0.5565
3118.69	0.5339
3127.1	0.5068
3135.52	0.4789
3143.93	0.4656
3152.34	0.4673
3160.75	0.4719
3169.16	0.472
3177.57	0.4702
3185.98	0.4611
3194.39	0.4395
3202.8	0.4098
3211.22	0.374
3219.63	0.331
3228.04	0.2901
3236.45	0.2574
3244.86	0.2273
3253.27	0.1825
3261.68	0.1693
3270.09	0.1756
3278.51	0.2057
3286.92	0.2496
3295.33	0.3113
3303.74	0.3986
3312.15	0.4602
3320.56	0.5047
3328.97	0.5459
3337.38	0.5846
3345.8	0.5999
3354.21	0.603
3362.62	0.6004
3371.03	0.599
3379.44	0.597
3387.85	0.6007
3396.26	0.6052
3404.67	0.6121
3413.09	0.6134
3421.5	0.6099
3429.91	0.609
3438.32	0.608
3446.73	0.606
3455.14	0.6085
3463.55	0.6164
3471.96	0.627
3480.38	0.641
3488.79	0.659
3497.2	0.687
3505.61	0.7139
3514.02	0.7341
3522.43	0.7479
3530.84	0.7603
3539.25	0.7788
3547.66	0.794
3556.08	0.815
3564.49	0.84
3572.9	0.8577
3581.31	0.8788
3589.72	0.8897
3598.13	0.894
3606.54	0.8989
3614.95	0.9034
3623.37	0.9069
3631.78	0.911
3640.19	0.9177
3648.6	0.92
3657.01	0.92
3665.42	0.918
3673.83	0.917
3682.24	0.917
3690.66	0.9162
3699.07	0.915
3707.48	0.915
3715.89	0.915
3724.3	0.915
3732.71	0.915
3741.12	0.914
3749.53	0.9089
3757.95	0.9073
3766.36	0.9054
3774.77	0.903
3783.18	0.902
3791.59	0.9013
3800	0.8994
3808.41	0.8973
3816.82	0.897
3825.24	0.897
3833.65	0.8948
3842.06	0.893
3850.47	0.891
3858.88	0.8907
3867.29	0.8874
3875.7	0.8878
3884.11	0.888
3892.52	0.888
3900.94	0.8859
3909.35	0.8842
3917.76	0.882
3926.17	0.8804
3934.58	0.877
3942.99	0.8752
3951.4	0.869
3959.81	0.867
3968.23	0.867
3976.64	0.867
