Infrared Spectrum: Dipentylacetic acid
Formula: C 12 H 24 O 2
CAS: 5422-52-6
State: gas
Origin: EPA-IR VAPOR PHASE LIBRARY
1/CM	ABSORBANCE
549.8	0.005499
559.445	0.006789
569.09	0.008229
578.734	0.011159
588.379	0.012209
598.024	0.010819
607.669	0.009089
617.313	0.007399
626.958	0.005439
636.603	0.003879
646.248	0.002559
655.893	0.001639
665.537	0.001329
675.182	0.001259
684.827	0.001229
694.472	0.001569
704.116	0.002489
713.761	0.003589
723.406	0.004569
733.051	0.004559
742.695	0.004059
752.34	0.003689
761.985	0.003259
771.63	0.002729
781.275	0.002279
790.919	0.001909
800.564	0.001549
810.209	0.001269
819.854	0.0010314
829.498	0.0010657
839.143	0.0010141
848.788	0.0009109
858.433	0.0007937
868.078	0.0009092
877.722	0.0009957
887.367	0.001129
897.012	0.001459
906.657	0.001329
916.301	0.000977
925.946	0.0008677
935.591	0.0009462
945.236	0.0009736
954.88	0.0010789
964.525	0.001049
974.17	0.001389
983.815	0.001859
993.46	0.002129
1003.1	0.001969
1012.75	0.002079
1022.39	0.002139
1032.04	0.002949
1041.68	0.003479
1051.33	0.004329
1060.97	0.005939
1070.62	0.008919
1080.26	0.013929
1089.91	0.022259
1099.55	0.032009
1109.2	0.029659
1118.84	0.021379
1128.49	0.017829
1138.13	0.016279
1147.78	0.014649
1157.42	0.012939
1167.07	0.009799
1176.71	0.006729
1186.36	0.005499
1196	0.005499
1205.64	0.005559
1215.29	0.004379
1224.93	0.003949
1234.58	0.003049
1244.22	0.003369
1253.87	0.003229
1263.51	0.003849
1273.16	0.004079
1282.8	0.004499
1292.45	0.004639
1302.09	0.004619
1311.74	0.004329
1321.38	0.004069
1331.03	0.004139
1340.67	0.004649
1350.32	0.004939
1359.96	0.004949
1369.61	0.004879
1379.25	0.005749
1388.9	0.005829
1398.54	0.004389
1408.18	0.003339
1417.83	0.002779
1427.47	0.002799
1437.12	0.003439
1446.76	0.005689
1456.41	0.008259
1466.05	0.008699
1475.7	0.005499
1485.34	0.002739
1494.99	0.001779
1504.63	0.001369
1514.28	0.001149
1523.92	0.0010536
1533.57	0.0007919
1543.21	0.0007759
1552.86	0.0007302
1562.5	0.000633
1572.15	0.0006482
1581.79	0.0006967
1591.44	0.0006583
1601.08	0.00067
1610.73	0.0007029
1620.37	0.0006639
1630.01	0.0006598
1639.66	0.0007232
1649.3	0.0006967
1658.95	0.0006762
1668.59	0.0008093
1678.24	0.0010032
1687.88	0.001249
1697.53	0.001669
1707.17	0.002549
1716.82	0.004329
1726.46	0.007059
1736.11	0.009579
1745.75	0.012969
1755.4	0.027399
1765.04	0.059929
1774.69	0.046959
1784.33	0.016789
1793.98	0.010599
1803.62	0.007639
1813.27	0.004459
1822.91	0.002609
1832.55	0.001759
1842.2	0.001279
1851.84	0.0010107
1861.49	0.0009615
1871.13	0.000801
1880.78	0.0007484
1890.42	0.0007104
1900.07	0.0007034
1909.71	0.0005924
1919.36	0.0005105
1929	0.0005042
1938.65	0.0005356
1948.29	0.0004789
1957.94	0.0004684
1967.58	0.0004608
1977.23	0.0004167
1986.87	0.0003606
1996.52	0.0004331
2006.16	0.000419
2015.81	0.0005173
2025.45	0.0004987
2035.1	0.0005132
2044.74	0.0005202
2054.38	0.0003792
2064.03	0.0004577
2073.67	0.000431
2083.32	0.0004327
2092.96	0.0004756
2102.61	0.0004396
2112.25	0.0004038
2121.9	0.0004624
2131.54	0.000458
2141.19	0.0005515
2150.83	0.0005356
2160.48	0.0005181
2170.12	0.0005507
2179.77	0.0005065
2189.41	0.0005569
2199.06	0.0006159
2208.7	0.0005677
2218.35	0.0004823
2227.99	0.0005541
2237.64	0.0005435
2247.28	0.0004193
2256.92	0.0005179
2266.57	0.0004679
2276.21	0.0004037
2285.86	0.0004837
2295.5	0.0005045
2305.15	0.0005143
2314.79	0.0005599
2324.44	0.0004724
2334.08	0.000515
2343.73	0.0006069
2353.37	0.0005021
2363.02	0.0004801
2372.66	0.0005741
2382.31	0.0005267
2391.95	0.0004903
2401.6	0.0005577
2411.24	0.0005775
2420.89	0.0005692
2430.53	0.0005762
2440.18	0.0005374
2449.82	0.0005194
2459.47	0.0004508
2469.11	0.0004593
2478.75	0.0004893
2488.4	0.0005444
2498.04	0.000557
2507.69	0.0004392
2517.33	0.0005485
2526.98	0.0005091
2536.62	0.0005749
2546.27	0.0005979
2555.91	0.0005964
2565.56	0.0005893
2575.2	0.0007114
2584.85	0.0006639
2594.49	0.000767
2604.14	0.0007086
2613.78	0.0008495
2623.43	0.0008088
2633.07	0.0008517
2642.72	0.0008617
2652.36	0.0009433
2662.01	0.0009411
2671.65	0.001049
2681.29	0.001119
2690.94	0.0010861
2700.58	0.0010097
2710.23	0.0010272
2719.87	0.001129
2729.52	0.001169
2739.16	0.001359
2748.81	0.001399
2758.45	0.001289
2768.1	0.001449
2777.74	0.001659
2787.39	0.001879
2797.03	0.002199
2806.68	0.002519
2816.32	0.003139
2825.97	0.004039
2835.61	0.005369
2845.26	0.007969
2854.9	0.015259
2864.55	0.025739
2874.19	0.027339
2883.84	0.024439
2893.48	0.020109
2903.12	0.021949
2912.77	0.029539
2922.41	0.043679
2932.06	0.061429
2941.7	0.067279
2951.35	0.054679
2960.99	0.047699
2970.64	0.045129
2980.28	0.021909
2989.93	0.011149
2999.57	0.007249
3009.22	0.005089
3018.86	0.003899
3028.51	0.003209
3038.15	0.002559
3047.8	0.002109
3057.44	0.001869
3067.09	0.001739
3076.73	0.001539
3086.38	0.001319
3096.02	0.001329
3105.67	0.001319
3115.31	0.001129
3124.95	0.001119
3134.6	0.0009044
3144.24	0.0008987
3153.89	0.0009016
3163.53	0.000881
3173.18	0.000815
3182.82	0.0007494
3192.47	0.0006744
3202.11	0.000725
3211.76	0.0005122
3221.4	0.0005373
3231.05	0.0004298
3240.69	0.0004598
3250.34	0.0003326
3259.98	0.0003969
3269.63	0.0003836
3279.27	0.0003625
3288.92	0.0004671
3298.56	0.0003195
3308.21	0.0003726
3317.85	0.0003745
3327.49	0.0002631
3337.14	0.0002875
3346.78	0.0002763
3356.43	0.0002655
3366.07	0.0003543
3375.72	0.0002779
3385.36	0.0003023
3395.01	0.0003788
3404.65	0.0002693
3414.3	0.0004894
3423.94	0.0003739
3433.59	0.0003652
3443.23	0.0003808
3452.88	0.00018743
3462.52	0.000376
3472.17	0.0004476
3481.81	0.0004902
3491.46	0.0005177
3501.1	0.0006814
3510.75	0.0008591
3520.39	0.0008242
3530.04	0.0009667
3539.68	0.0009976
3549.32	0.002039
3558.97	0.008009
3568.61	0.020939
3578.26	0.013039
3587.9	0.002469
3597.55	0.001249
3607.19	0.0009391
3616.84	0.0008334
3626.48	0.0005894
3636.13	0.000462
3645.77	0.0005278
3655.42	0.0003803
3665.06	0.0004783
3674.71	0.0002268
3684.35	0.0004847
3694	0.0004434
3703.64	0.000394
3713.29	0.0003576
3722.93	0.000276
3732.58	0.0003027
3742.22	0.00021087
3751.86	0.0004866
3761.51	0.00020851
3771.15	0.00016868
3780.8	0.0004666
3790.44	0.0003408
3800.09	0.0002826
3809.73	0.0004487
3819.38	0.0005356
3829.02	0.0002759
3838.67	0.0003993
3848.31	0.0002944
3857.96	0.0002914
3867.6	0.0003083
3877.25	0.000476
3886.89	0.0004578
3896.54	0.0005223
3906.18	0.0003092
3915.83	0.000365
3925.47	0.000463
3935.12	0.0002622
3944.76	0.0002618
3954.41	8.28e-05
3964.05	0.0004521
3973.69	0.0004279
3983.34	0.0002789
3992.98	0.000434
