Infrared Spectrum: N-Mesitylenesulphonyl-1,2,4-triazole
Formula: C 11 H 13 N 3 O 2 S
CAS: 54230-59-0
State: gas
Origin: EPA-IR VAPOR PHASE LIBRARY
1/CM	ABSORBANCE
549.8	0.008464
559.445	0.005614
569.09	0.009744
578.734	0.011234
588.379	0.027074
598.024	0.062284
607.669	0.031244
617.313	0.009174
626.958	0.009874
636.603	0.010214
646.248	0.012364
655.893	0.043514
665.537	0.108704
675.182	0.051314
684.827	0.015144
694.472	0.006434
704.116	0.005414
713.761	0.006134
723.406	0.004224
733.051	0.0018658
742.695	0.002214
752.34	0.0016804
761.985	0.00097999
771.63	0.00091239
781.275	0.000736
790.919	0.000915126
800.564	0.00100954
810.209	0.001172
819.854	0.001611
829.498	0.0017688
839.143	0.003864
848.788	0.008324
858.433	0.008834
868.078	0.006844
877.722	0.002234
887.367	0.003764
897.012	0.003314
906.657	0.0016488
916.301	0.0016869
925.946	0.002004
935.591	0.004084
945.236	0.005694
954.88	0.003934
964.525	0.004314
974.17	0.009314
983.815	0.018594
993.46	0.007484
1003.1	0.002394
1012.75	0.002124
1022.39	0.002834
1032.04	0.003664
1041.68	0.003304
1051.33	0.003684
1060.97	0.002224
1070.62	0.003794
1080.26	0.010304
1089.91	0.033094
1099.55	0.062604
1109.2	0.019384
1118.84	0.007914
1128.49	0.017584
1138.13	0.028444
1147.78	0.011084
1157.42	0.005834
1167.07	0.012604
1176.71	0.033004
1186.36	0.042044
1196	0.047144
1205.64	0.043324
1215.29	0.020004
1224.93	0.006464
1234.58	0.003994
1244.22	0.004174
1253.87	0.008864
1263.51	0.026544
1273.16	0.023414
1282.8	0.008054
1292.45	0.006504
1302.09	0.007184
1311.74	0.017734
1321.38	0.018914
1331.03	0.006004
1340.67	0.004464
1350.32	0.004594
1359.96	0.007534
1369.61	0.017584
1379.25	0.036984
1388.9	0.049794
1398.54	0.033844
1408.18	0.027704
1417.83	0.024854
1427.47	0.019184
1437.12	0.011784
1446.76	0.009114
1456.41	0.009164
1466.05	0.010144
1475.7	0.010644
1485.34	0.014384
1494.99	0.025754
1504.63	0.020544
1514.28	0.007784
1523.92	0.007324
1533.57	0.007574
1543.21	0.007114
1552.86	0.008854
1562.5	0.009134
1572.15	0.007314
1581.79	0.007554
1591.44	0.013134
1601.08	0.020854
1610.73	0.011514
1620.37	0.003994
1630.01	0.002234
1639.66	0.001914
1649.3	0.0013124
1658.95	0.0012177
1668.59	0.0011048
1678.24	0.0012692
1687.88	0.0011654
1697.53	0.0013422
1707.17	0.0016978
1716.82	0.002364
1726.46	0.002744
1736.11	0.0016209
1745.75	0.001672
1755.4	0.002114
1765.04	0.001852
1774.69	0.002284
1784.33	0.0018595
1793.98	0.001034
1803.62	0.00057
1813.27	0.0008
1822.91	0.0008185
1832.55	0.000833
1842.2	0.000797
1851.84	0.00072
1861.49	0.00093086
1871.13	0.0008282
1880.78	0.000736
1890.42	0.0008575
1900.07	0.0008253
1909.71	0.00091242
1919.36	0.000916587
1929	0.000747
1938.65	0.0008616
1948.29	0.0008559
1957.94	0.0008931
1967.58	0.0008497
1977.23	0.000778
1986.87	0.000695
1996.52	0.00095867
2006.16	0.000721
2015.81	0.000742
2025.45	0.000853
2035.1	0.00078
2044.74	0.000919059
2054.38	0.00093987
2064.03	0.00090909
2073.67	0.001119
2083.32	0.0011105
2092.96	0.000913425
2102.61	0.00093643
2112.25	0.00099108
2121.9	0.00093352
2131.54	0.00099264
2141.19	0.000918446
2150.83	0.0008
2160.48	0.0008745
2170.12	0.0010142
2179.77	0.00091533
2189.41	0.0008454
2199.06	0.0010351
2208.7	0.000723
2218.35	0.00099298
2227.99	0.0010652
2237.64	0.0011466
2247.28	0.0010991
2256.92	0.000722
2266.57	0.000785
2276.21	0.0008371
2285.86	0.0008
2295.5	0.0012301
2305.15	0.0008972
2314.79	0.0009016
2324.44	0.0009031
2334.08	0.0008613
2343.73	0.0010648
2353.37	0.0010161
2363.02	0.00095677
2372.66	0.00100942
2382.31	0.0011855
2391.95	0.001321
2401.6	0.0014585
2411.24	0.0014123
2420.89	0.0013404
2430.53	0.0010464
2440.18	0.0012052
2449.82	0.001193
2459.47	0.0013042
2469.11	0.0011589
2478.75	0.0013174
2488.4	0.0010834
2498.04	0.0012305
2507.69	0.0014567
2517.33	0.0012847
2526.98	0.0012598
2536.62	0.00094178
2546.27	0.00098915
2555.91	0.0010874
2565.56	0.0011916
2575.2	0.0010327
2584.85	0.0010752
2594.49	0.0011402
2604.14	0.0011692
2613.78	0.0008464
2623.43	0.00097873
2633.07	0.0010717
2642.72	0.00098777
2652.36	0.0008488
2662.01	0.0010518
2671.65	0.0010569
2681.29	0.00095163
2690.94	0.00099063
2700.58	0.000894
2710.23	0.000802
2719.87	0.0010719
2729.52	0.0010884
2739.16	0.0011931
2748.81	0.0013415
2758.45	0.001372
2768.1	0.0012718
2777.74	0.00098779
2787.39	0.0010126
2797.03	0.0012242
2806.68	0.0013521
2816.32	0.0011919
2825.97	0.0013709
2835.61	0.0017474
2845.26	0.002314
2854.9	0.002704
2864.55	0.003574
2874.19	0.004044
2883.84	0.003904
2893.48	0.003894
2903.12	0.003764
2912.77	0.004754
2922.41	0.006204
2932.06	0.009194
2941.7	0.010174
2951.35	0.012174
2960.99	0.008864
2970.64	0.006244
2980.28	0.006684
2989.93	0.007824
2999.57	0.007144
3009.22	0.005664
3018.86	0.005764
3028.51	0.006504
3038.15	0.008154
3047.8	0.006904
3057.44	0.003914
3067.09	0.002834
3076.73	0.001984
3086.38	0.001914
3096.02	0.0011513
3105.67	0.00100792
3115.31	0.0013246
3124.95	0.0014858
3134.6	0.001795
3144.24	0.002544
3153.89	0.002334
3163.53	0.0013059
3173.18	0.0008393
3182.82	0.000694
3192.47	0.000638
3202.11	0.000928
3211.76	0.0008349
3221.4	0.000589
3231.05	0.000596
3240.69	0.000753
3250.34	0.000694
3259.98	0.000728
3269.63	0.000624
3279.27	0.000423
3288.92	0.000481
3298.56	0.000607
3308.21	0.000578
3317.85	0.00044
3327.49	0.000568
3337.14	0.000495
3346.78	0.00067
3356.43	0.000473
3366.07	0.000264
3375.72	0.000388
3385.36	0.000538
3395.01	0.000591
3404.65	0.000619
3414.3	0.000426
3423.94	0.000678
3433.59	5.4e-05
3443.23	0.0008539
3452.88	0.000521
3462.52	0.000134
3472.17	0.000544
3481.81	0.000712
3491.46	0.000314
3501.1	0.000587
3510.75	0.0008344
3520.39	0.000797
3530.04	0.000399
3539.68	0.000608
3549.32	0.000562
3558.97	0.000532
3568.61	0.00041
3578.26	0.000577
3587.9	0.000307
3597.55	0.000549
3607.19	0.000307
3616.84	0.00035
3626.48	0.000532
3636.13	0.000649
3645.77	0.000589
3655.42	0.000656
3665.06	3.8e-05
3674.71	0.000594
3684.35	0.000351
3694	0.000661
3703.64	0.000531
3713.29	0.0008336
3722.93	0.000407
3732.58	0.000355
3742.22	0.0011092
3751.86	0.000558
3761.51	0.00081
3771.15	0.000441
3780.8	0.000412
3790.44	0.000256
3800.09	0.000214
3809.73	0.000644
3819.38	0.000913876
3829.02	0.000288
3838.67	0.000113
3848.31	0.000144
3857.96	0.000115
3867.6	0.000509
3877.25	0.000368
3886.89	0.000484
3896.54	0.0010528
3906.18	0.000618
3915.83	2.6e-05
3925.47	0.000522
3935.12	0.000511
3944.76	0.000548
3954.41	0.000763
3964.05	0.000773
3973.69	0.0008498
3983.34	0.000342
3992.98	0.000921036
