Infrared Spectrum: 1-(2,4,6-Triisopropylbenzenesulphonyl)-1,2,4-triazole
Formula: C 17 H 25 N 3 O 2 S
CAS: 54230-60-3
State: gas
Origin: EPA-IR VAPOR PHASE LIBRARY
1/CM	ABSORBANCE
549.9	0.05259
559.547	0.07231
569.193	0.07233
578.84	0.12265
588.486	0.1944
598.133	0.10393
607.779	0.04504
617.426	0.03309
627.072	0.0429
636.719	0.04525
646.365	0.0455
656.012	0.0991
665.658	0.2641
675.305	0.1426
684.951	0.04235
694.598	0.01768
704.245	0.00937
713.891	0.00598
723.538	0.00438
733.184	0.00379
742.831	0.0031616
752.477	0.00511
762.124	0.0034569
771.77	0.0028038
781.417	0.0024983
791.063	0.002046
800.71	0.002088
810.356	0.0025254
820.003	0.0028405
829.649	0.00574
839.296	0.0117
848.943	0.00816
858.589	0.02201
868.236	0.01844
877.882	0.02291
887.529	0.02274
897.175	0.00923
906.822	0.00725
916.468	0.01071
926.115	0.02043
935.761	0.02889
945.408	0.02605
955.054	0.00928
964.701	0.00998
974.347	0.02451
983.994	0.05993
993.64	0.01444
1003.29	0.00536
1012.93	0.00475
1022.58	0.00594
1032.23	0.00906
1041.87	0.00874
1051.52	0.01258
1061.17	0.02389
1070.81	0.02934
1080.46	0.04244
1090.11	0.14074
1099.75	0.19257
1109.4	0.04521
1119.05	0.03374
1128.69	0.06246
1138.34	0.08985
1147.99	0.03761
1157.63	0.04433
1167.28	0.05562
1176.92	0.09217
1186.57	0.14039
1196.22	0.136
1205.86	0.1197
1215.51	0.03475
1225.16	0.01852
1234.8	0.01718
1244.45	0.02097
1254.1	0.04004
1263.74	0.10082
1273.39	0.05799
1283.04	0.01631
1292.68	0.01785
1302.33	0.02698
1311.98	0.06384
1321.62	0.05953
1331.27	0.02183
1340.92	0.01775
1350.56	0.02623
1360.21	0.04493
1369.86	0.07126
1379.5	0.0662
1389.15	0.13463
1398.79	0.12696
1408.44	0.05979
1418.09	0.07518
1427.73	0.11593
1437.38	0.05877
1447.03	0.03319
1456.67	0.0355
1466.32	0.04653
1475.97	0.03357
1485.61	0.03851
1495.26	0.07745
1504.91	0.04406
1514.55	0.017
1524.2	0.01904
1533.85	0.02376
1543.49	0.0259
1553.14	0.02966
1562.79	0.033
1572.43	0.02095
1582.08	0.02394
1591.73	0.05949
1601.37	0.06073
1611.02	0.01727
1620.67	0.00763
1630.31	0.00476
1639.96	0.00377
1649.6	0.0030119
1659.25	0.0026598
1668.9	0.00250937
1678.54	0.00257291
1688.19	0.0028634
1697.84	0.0031895
1707.48	0.00363
1717.13	0.00486
1726.78	0.00395
1736.42	0.00254347
1746.07	0.0033368
1755.72	0.00407
1765.36	0.00523
1775.01	0.0076
1784.66	0.00402
1794.3	0.001932
1803.95	0.00135
1813.6	0.00112
1823.24	0.00091
1832.89	0.0008
1842.54	0.00069
1852.18	0.00077
1861.83	0.00084
1871.47	0.00073
1881.12	0.0005
1890.77	0.00045
1900.41	0.0004
1910.06	0.00034
1919.71	0.00024
1929.35	0.00021
1939	0.00022
1948.65	0.00024
1958.29	0.00044
1967.94	0.00052
1977.59	0.00037
1987.23	0.00037
1996.88	0.00035
2006.53	0.00033
2016.17	0.00032
2025.82	0.00034
2035.47	0.0005
2045.11	0.00062
2054.76	0.00072
2064.41	0.00093
2074.05	0.00088
2083.7	0.00063
2093.35	0.00047
2102.99	0.00039
2112.64	0.00036
2122.28	0.00039
2131.93	0.0004
2141.58	0.00034
2151.22	0.00042
2160.87	0.00045
2170.52	0.0006
2180.16	0.00083
2189.81	0.00095
2199.46	0.00087
2209.1	0.00084
2218.75	0.0011
2228.4	0.001522
2238.04	0.00119
2247.69	0.00098
2257.34	0.0008
2266.98	0.0008
2276.63	0.0006
2286.28	0.00074
2295.92	0.00084
2305.57	0.00066
2315.22	0.00045
2324.86	0.00055
2334.51	0.0006
2344.16	0.00077
2353.8	0.00108
2363.45	0.00135
2373.09	0.001578
2382.74	0.001791
2392.39	0.001801
2402.03	0.001645
2411.68	0.0011
2421.33	0.00074
2430.97	0.00063
2440.62	0.00081
2450.27	0.00121
2459.91	0.001883
2469.56	0.002021
2479.21	0.00137
2488.85	0.00146
2498.5	0.001695
2508.15	0.001898
2517.79	0.001717
2527.44	0.00139
2537.09	0.00121
2546.73	0.0011
2556.38	0.00135
2566.03	0.001625
2575.67	0.001769
2585.32	0.001979
2594.96	0.001839
2604.61	0.00135
2614.26	0.00121
2623.9	0.00125
2633.55	0.00115
2643.2	0.00071
2652.84	0.00067
2662.49	0.00061
2672.14	0.00064
2681.78	0.00061
2691.43	0.00065
2701.08	0.00081
2710.72	0.00104
2720.37	0.001882
2730.02	0.0030765
2739.66	0.0027216
2749.31	0.002015
2758.96	0.002172
2768.6	0.0026946
2778.25	0.002319
2787.9	0.002243
2797.54	0.0026221
2807.19	0.00353
2816.84	0.00458
2826.48	0.00507
2836.13	0.00609
2845.77	0.00923
2855.42	0.01482
2865.07	0.02486
2874.71	0.05597
2884.36	0.06964
2894.01	0.04882
2903.65	0.05285
2913.3	0.05775
2922.95	0.06231
2932.59	0.08913
2942.24	0.09852
2951.89	0.08681
2961.53	0.19068
2971.18	0.25593
2980.83	0.13572
2990.47	0.05247
3000.12	0.02467
3009.77	0.01433
3019.41	0.01167
3029.06	0.01134
3038.71	0.01174
3048.35	0.01243
3058	0.01375
3067.64	0.01152
3077.29	0.00905
3086.94	0.0069
3096.58	0.00551
3106.23	0.0049
3115.88	0.00437
3125.52	0.00406
3135.17	0.00529
3144.82	0.00685
3154.46	0.00523
3164.11	0.002779
3173.76	0.00260974
3183.4	0.0025562
3193.05	0.00250258
3202.7	0.002278
3212.34	0.00176
3221.99	0.00122
3231.64	0.00081
3241.28	0.0005
3250.93	0.00039
3260.58	2e-05
3270.22	0.00015
3279.87	0.00032
3289.52	0.00023
3299.16	1e-05
3308.81	0
3318.45	0.00017
3328.1	0.00026
3337.75	0.00013
3347.39	0.00036
3357.04	0.00017
3366.69	0.00011
3376.33	0.00011
3385.98	0.00037
3395.63	0.00022
3405.27	0.00027
3414.92	0.00039
3424.57	0.0003
3434.21	0.00049
3443.86	0.00056
3453.51	0.00031
3463.15	0.00029
3472.8	0.00038
3482.45	0.00057
3492.09	0.00057
3501.74	0.00074
3511.39	0.00053
3521.03	0.00062
3530.68	0.00078
3540.33	0.00044
3549.97	0.00061
3559.62	0.00047
3569.26	0.00072
3578.91	0.00063
3588.56	0.00084
3598.2	0.00061
3607.85	0.00071
3617.5	0.00068
3627.14	0.00063
3636.79	0.00049
3646.44	0.00054
3656.08	0.00059
3665.73	0.00049
3675.38	0.00047
3685.02	0.00052
3694.67	0.00057
3704.32	0.00047
3713.96	0.00045
3723.61	0.00052
3733.26	0.00055
3742.9	0.00057
3752.55	0.00051
3762.2	0.00069
3771.84	0.00061
3781.49	0.00062
3791.13	0.00059
3800.78	0.00083
3810.43	0.00084
3820.07	0.00092
3829.72	0.00088
3839.37	0.00096
3849.01	0.00101
3858.66	0.00076
3868.31	0.00086
3877.95	0.0008
3887.6	0.00079
3897.25	0.00082
3906.89	0.00078
3916.54	0.00073
3926.19	0.0008
3935.83	0.00076
3945.48	0.00074
3955.13	0.00072
3964.77	0.00066
3974.42	0.00093
3984.07	0.00101
3993.71	0.00101
