Infrared Spectrum: 3-Benzoyl pyridine
Formula: C 12 H 9 N O
CAS: 5424-19-1
State: gas
Instrument: HP-GC/MS/IRD
Origin: NIST Mass Spectrometry Data Center
1/CM	ABSORBANCE
550	0.000308
562	0.0001232
574	0.0005544
586	0.0005236
598	0.0009856
610	0.004158
622	0.0065604
634	0.00539
646	0.0364672
658	0.071918
670	0.019866
682	0.0316932
694	0.0769076
706	0.144698
718	0.101825
730	0.0379148
742	0.0180488
754	0.0103488
766	0.0125048
778	0.0197428
790	0.0119504
802	0.0084392
814	0.0137984
826	0.0135212
838	0.0070532
850	0.0050512
862	0.0048356
874	0.0054208
886	0.0066528
898	0.0153384
910	0.0524832
922	0.102687
934	0.0909216
946	0.0338184
958	0.013244
970	0.009856
982	0.0059752
994	0.007546
1006	0.009856
1018	0.0187572
1030	0.0248556
1042	0.0087164
1054	0.0044044
1066	0.0067452
1078	0.008162
1090	0.0082544
1102	0.0074228
1114	0.0122276
1126	0.0137368
1138	0.0113344
1150	0.0193732
1162	0.0154308
1174	0.0217756
1186	0.0307076
1198	0.0197736
1210	0.014322
1222	0.017402
1234	0.022946
1246	0.0313236
1258	0.0673596
1270	0.237283
1282	0.257642
1294	0.0704088
1306	0.0593208
1318	0.0598444
1330	0.040656
1342	0.0155848
1354	0.0095788
1366	0.007238
1378	0.0077
1390	0.0101332
1402	0.0235312
1414	0.0559944
1426	0.0221144
1438	0.0166936
1450	0.0247324
1462	0.0106876
1474	0.0074844
1486	0.00539
1498	0.004312
1510	0.0041272
1522	0.00539
1534	0.0087472
1546	0.0147532
1558	0.0247324
1570	0.0523292
1582	0.0951412
1594	0.0613844
1606	0.02772
1618	0.012936
1630	0.0119196
1642	0.0150304
1654	0.0237468
1666	0.0741972
1678	0.204235
1690	0.162008
1702	0.053284
1714	0.0222684
1726	0.0127512
1738	0.0094556
1750	0.0067144
1762	0.005698
1774	0.0047432
1786	0.0036344
1798	0.0041272
1810	0.0056056
1822	0.003388
1834	0.0022484
1846	0.002156
1858	0.0021868
1870	0.0024948
1882	0.0037884
1894	0.0054824
1906	0.0063756
1918	0.0060676
1930	0.0039116
1942	0.0042504
1954	0.0052052
1966	0.0048664
1978	0.0025256
1990	0.0009548
2002	0.001078
2014	0.001078
2026	0.0005852
2038	0.0004928
2050	0.0004928
2062	0.0004312
2074	0.0003388
2086	0.0001848
2098	6.16e-05
2110	3.08e-05
2122	3.08e-05
2134	3.08e-05
2146	0.0001232
2158	6.16e-05
2170	0.0001848
2182	0.0003696
2194	0.0004928
2206	0.000462
2218	0.0005236
2230	0.0005236
2242	0.0004312
2254	0.000462
2266	0.0003696
2278	0.0003388
2290	0.0004004
2302	0.0005544
2314	0.0011396
2326	0.001078
2338	0.0009856
2350	0.0008316
2362	0.0004928
2374	0.000616
2386	0.0006468
2398	0.0005852
2410	0.0008932
2422	0.0015708
2434	0.0012936
2446	0.0005544
2458	0.0003388
2470	0.0002772
2482	0.0002156
2494	0.0002772
2506	0.0004004
2518	0.0003696
2530	0.0002464
2542	0.0002156
2554	0.0002464
2566	0.0003388
2578	0.0005236
2590	0.0008008
2602	0.0010472
2614	0.0008008
2626	0.000616
2638	0.000462
2650	0.0003696
2662	0.000154
2674	6.16e-05
2686	3.08e-05
2698	0.0001232
2710	0.0001232
2722	0.0002156
2734	0.0005236
2746	0.0008624
2758	0.00077
2770	0.0003696
2782	0.0002156
2794	0.000308
2806	0.0002156
2818	0.000154
2830	0.000308
2842	0.0005852
2854	0.0010164
2866	0.001386
2878	0.0016632
2890	0.0013552
2902	0.0008932
2914	0.00077
2926	0.0009856
2938	0.0014168
2950	0.0019404
2962	0.0033572
2974	0.004158
2986	0.003234
2998	0.0043428
3010	0.0077308
3022	0.0143528
3034	0.0314776
3046	0.0451528
3058	0.0405636
3070	0.0480172
3082	0.0490336
3094	0.0347116
3106	0.0141064
3118	0.0060368
3130	0.0040656
3142	0.0031724
3154	0.0023716
3166	0.001848
3178	0.000924
3190	0.0004928
3202	0.0003696
3214	0.0002156
3226	0.0001232
3238	0.000154
3250	0.000308
3262	0.0003388
3274	0.0003696
3286	0.000308
3298	0.000308
3310	0.0004928
3322	0.0010472
3334	0.0025872
3346	0.00385
3358	0.002464
3370	0.001078
3382	0.0006468
3394	0.0004928
3406	0.0003696
3418	0.0002772
3430	0.0002156
3442	0.000154
3454	0.0001232
3466	9.24e-05
3478	9.24e-05
3490	6.16e-05
3502	9.24e-05
3514	3.08e-05
3526	6.16e-05
3538	6.16e-05
3550	3.08e-05
3562	3.08e-05
3574	9.24e-05
3586	6.16e-05
3598	6.16e-05
3610	3.08e-05
3622	0.000154
3634	0.0002772
3646	0.0003388
3658	0.0004312
3670	0.0004004
3682	0.000462
3694	0.0004928
3706	0.0005236
3718	0.000462
3730	0.0004312
3742	0.0004004
3754	0.0003388
3766	0.0002772
3778	0.0002772
3790	0.000308
3802	0.0003388
3814	0.0004312
3826	0.0003388
3838	0.000154
