Infrared Spectrum: Pyrimidine, 5-nitro-2-styryl-
Formula: C12 H9 N3 O2
CAS: 54246-65-0
State: SOLID (1 mg / 650 mg KBr DISC)
Class: COBLENTZ III
Instrument: PERKIN-ELMER 521 (GRATING)
Instrument parameters: FILTERS AT 3150, 2500, 2000, 1150, 700, 410. GRATING CHANGES: 2000, 630
Sampling: TRANSMISSION
Resolution: 2
Origin: SOUTHERN RESEARCH INSTITUTE
1/CM	TRANSMITTANCE
257	0.3176
267.053	0.3883
277.107	0.4365
287.16	0.478
297.214	0.5136
307.267	0.5668
317.32	0.6469
327.374	0.6823
337.427	0.7158
347.481	0.7485
357.534	0.7797
367.587	0.8058
377.641	0.8266
387.694	0.8365
397.748	0.8348
407.801	0.8073
417.855	0.8558
427.908	0.8715
437.961	0.8745
448.015	0.8775
458.068	0.8737
468.122	0.8568
478.175	0.8687
488.228	0.8862
498.282	0.8804
508.335	0.8624
518.389	0.665
528.442	0.8074
538.495	0.7924
548.549	0.9097
558.602	0.91
568.656	0.9067
578.709	0.8821
588.762	0.9028
598.816	0.9162
608.869	0.8963
618.923	0.8962
628.976	0.8765
639.029	0.8168
649.083	0.9089
659.136	0.8933
669.19	0.8789
679.243	0.7711
689.296	0.6835
699.35	0.8228
709.403	0.9258
719.457	0.9123
729.51	0.7439
739.564	0.8805
749.617	0.8067
759.67	0.9271
769.724	0.9091
779.777	0.8863
789.831	0.5881
799.884	0.9442
809.937	0.9351
819.991	0.8922
830.044	0.9099
840.098	0.8833
850.151	0.6957
860.204	0.9279
870.258	0.8397
880.311	0.911
890.365	0.9315
900.418	0.9253
910.471	0.9162
920.525	0.9085
930.578	0.8991
940.632	0.8841
950.685	0.8333
960.738	0.7452
970.792	0.7336
980.845	0.6937
990.899	0.8747
1000.95	0.883
1011.01	0.8804
1021.06	0.8694
1031.11	0.871
1041.17	0.8714
1051.22	0.8682
1061.27	0.8569
1071.33	0.852
1081.38	0.8627
1091.43	0.855
1101.49	0.8507
1111.54	0.8423
1121.59	0.8375
1131.65	0.8212
1141.7	0.7484
1151.75	0.8323
1161.81	0.8146
1171.86	0.7776
1181.91	0.7397
1191.97	0.8136
1202.02	0.7494
1212.07	0.8225
1222.13	0.8095
1232.18	0.8152
1242.23	0.7979
1252.29	0.7801
1262.34	0.7588
1272.39	0.7251
1282.45	0.6426
1292.5	0.6705
1302.55	0.676
1312.61	0.6164
1322.66	0.4774
1332.71	0.2137
1342.77	0.1246
1352.82	0.7078
1362.87	0.8761
1372.93	0.9223
1382.98	0.8982
1393.03	0.8541
1403.09	0.8101
1413.14	0.7257
1423.2	0.342
1433.25	0.7479
1443.3	0.7792
1453.36	0.633
1463.41	0.8607
1473.46	0.8347
1483.52	0.7916
1493.57	0.6101
1503.62	0.3422
1513.68	0.74
1523.73	0.7579
1533.78	0.7374
1543.84	0.6328
1553.89	0.228
1563.94	0.1942
1574	0.3426
1584.05	0.4667
1594.1	0.8349
1604.16	0.9249
1614.21	0.9037
1624.26	0.8435
1634.32	0.499
1644.37	0.9002
1654.42	0.9425
1664.48	0.9554
1674.53	0.9712
1684.58	0.9705
1694.64	0.9667
1704.69	0.9635
1714.74	0.9609
1724.8	0.9544
1734.85	0.9463
1744.9	0.9436
1754.96	0.9428
1765.01	0.9421
1775.06	0.9413
1785.12	0.9362
1795.17	0.9305
1805.22	0.9271
1815.28	0.9237
1825.33	0.9204
1835.38	0.9169
1845.44	0.9142
1855.49	0.9146
1865.55	0.916
1875.6	0.9141
1885.65	0.9068
1895.71	0.9055
1905.76	0.9037
1915.81	0.8982
1925.87	0.8977
1935.92	0.9009
1945.97	0.9008
1956.03	0.8954
1966.08	0.8924
1976.13	0.8945
1986.19	0.8983
1996.24	0.8999
2006.29	0.8994
2016.35	0.8984
2026.4	0.8954
2036.45	0.8919
2046.51	0.8905
2056.56	0.8901
2066.61	0.8897
2076.67	0.8889
2086.72	0.8879
2096.77	0.8862
2106.83	0.8842
2116.88	0.8797
2126.93	0.8758
2136.99	0.8736
2147.04	0.8731
2157.09	0.872
2167.15	0.8707
2177.2	0.8701
2187.25	0.8695
2197.31	0.8688
2207.36	0.868
2217.41	0.8671
2227.47	0.866
2237.52	0.8647
2247.57	0.8631
2257.63	0.8613
2267.68	0.859
2277.73	0.8562
2287.79	0.8536
2297.84	0.8518
2307.89	0.8502
2317.95	0.8489
2328	0.8486
2338.06	0.8483
2348.11	0.8486
2358.16	0.849
2368.22	0.8489
2378.27	0.8481
2388.32	0.8432
2398.38	0.8389
2408.43	0.8358
2418.48	0.8341
2428.54	0.8327
2438.59	0.8309
2448.64	0.8282
2458.7	0.8248
2468.75	0.8216
2478.8	0.8254
2488.86	0.8303
2498.91	0.8308
2508.96	0.8315
2519.02	0.8306
2529.07	0.8298
2539.12	0.8287
2549.18	0.8269
2559.23	0.8252
2569.28	0.8247
2579.34	0.8243
2589.39	0.8229
2599.44	0.8213
2609.5	0.8195
2619.55	0.8182
2629.6	0.8169
2639.66	0.8147
2649.71	0.8124
2659.76	0.8097
2669.82	0.807
2679.87	0.8052
2689.92	0.8037
2699.98	0.8022
2710.03	0.8009
2720.08	0.7995
2730.14	0.7981
2740.19	0.7968
2750.24	0.7954
2760.3	0.7939
2770.35	0.7923
2780.4	0.79
2790.46	0.7876
2800.51	0.7842
2810.57	0.78
2820.62	0.7738
2830.67	0.7674
2840.73	0.7684
2850.78	0.7708
2860.83	0.7706
2870.89	0.7643
2880.94	0.7539
2890.99	0.751
2901.05	0.7516
2911.1	0.7537
2921.15	0.7564
2931.21	0.7582
2941.26	0.7604
2951.31	0.7629
2961.37	0.7639
2971.42	0.7634
2981.47	0.763
2991.53	0.7606
3001.58	0.7569
3011.63	0.75
3021.69	0.7361
3031.74	0.7177
3041.79	0.711
3051.85	0.734
3061.9	0.7463
3071.95	0.7485
3082.01	0.7673
3092.06	0.7671
3102.11	0.7646
3112.17	0.763
3122.22	0.7612
3132.27	0.7591
3142.33	0.7571
3152.38	0.7554
3162.43	0.7539
3172.49	0.752
3182.54	0.75
3192.59	0.7482
3202.65	0.7464
3212.7	0.7446
3222.75	0.7427
3232.81	0.7406
3242.86	0.7378
3252.92	0.7351
3262.97	0.7321
3273.02	0.7287
3283.08	0.7254
3293.13	0.7222
3303.18	0.7195
3313.24	0.7168
3323.29	0.714
3333.34	0.7109
3343.4	0.7077
3353.45	0.7042
3363.5	0.7004
3373.56	0.6964
3383.61	0.692
3393.66	0.6875
3403.72	0.6838
3413.77	0.6837
3423.82	0.6845
3433.88	0.6858
3443.93	0.6873
3453.98	0.6886
3464.04	0.6897
3474.09	0.6911
3484.14	0.6915
3494.2	0.6926
3504.25	0.6961
3514.3	0.6996
3524.36	0.7034
3534.41	0.7075
3544.46	0.7096
3554.52	0.7112
3564.57	0.7135
3574.62	0.7152
3584.68	0.7175
3594.73	0.7197
3604.78	0.7216
3614.84	0.723
3624.89	0.7243
3634.94	0.7256
3645	0.7269
3655.05	0.7277
3665.1	0.7284
3675.16	0.7284
3685.21	0.7282
3695.26	0.728
3705.32	0.7278
3715.37	0.7274
3725.43	0.7271
3735.48	0.7266
3745.53	0.7258
3755.59	0.7251
3765.64	0.7244
3775.69	0.7245
3785.75	0.7246
3795.8	0.7246
3805.85	0.724
3815.91	0.723
3825.96	0.7222
3836.01	0.7214
3846.07	0.7206
3856.12	0.7201
3866.17	0.7198
3876.23	0.7193
3886.28	0.7183
3896.33	0.7172
3906.39	0.7161
3916.44	0.715
3926.49	0.7136
3936.55	0.7123
3946.6	0.7114
3956.65	0.7103
3966.71	0.7084
3976.76	0.7061
3986.81	0.7048
3996.87	0.7043
4006.92	0.7046
4016.97	0.703
