Infrared Spectrum: Ethyl S-(E)-4,5,O-isopropylidene-4,5-dihydroxypent-2-enoate
Formula: C 10 H 16 O 4
CAS: 54250-58-7
State: gas
Origin: EPA-IR VAPOR PHASE LIBRARY
1/CM	ABSORBANCE
549.8	0.005717
559.445	0.005527
569.09	0.004167
578.734	0.003757
588.379	0.003377
598.024	0.002997
607.669	0.003997
617.313	0.002757
626.958	0.004727
636.603	0.004317
646.248	0.006887
655.893	0.004507
665.537	0.003437
675.182	0.003207
684.827	0.003867
694.472	0.004027
704.116	0.005147
713.761	0.007357
723.406	0.005967
733.051	0.005657
742.695	0.005067
752.34	0.005097
761.985	0.004867
771.63	0.005737
781.275	0.008927
790.919	0.010777
800.564	0.010007
810.209	0.009367
819.854	0.013007
829.498	0.018717
839.143	0.033127
848.788	0.049767
858.433	0.044067
868.078	0.033647
877.722	0.024727
887.367	0.018937
897.012	0.018857
906.657	0.018147
916.301	0.016657
925.946	0.015217
935.591	0.016317
945.236	0.017567
954.88	0.022387
964.525	0.036717
974.17	0.046357
983.815	0.035917
993.46	0.023977
1003.1	0.025557
1012.75	0.033887
1022.39	0.054357
1032.04	0.096687
1041.68	0.118967
1051.33	0.115147
1060.97	0.146177
1070.62	0.165247
1080.26	0.098787
1089.91	0.061537
1099.55	0.053567
1109.2	0.047807
1118.84	0.050557
1128.49	0.056747
1138.13	0.066177
1147.78	0.095907
1157.42	0.164247
1167.07	0.223307
1176.71	0.179537
1186.36	0.103697
1196	0.087137
1205.64	0.104727
1215.29	0.135357
1224.93	0.157257
1234.58	0.177127
1244.22	0.198107
1253.87	0.244917
1263.51	0.238077
1273.16	0.141907
1282.8	0.086107
1292.45	0.089177
1302.09	0.114057
1311.74	0.071147
1321.38	0.043517
1331.03	0.038667
1340.67	0.031757
1350.32	0.028637
1359.96	0.039487
1369.61	0.080927
1379.25	0.090547
1388.9	0.050877
1398.54	0.025417
1408.18	0.016937
1417.83	0.013667
1427.47	0.012107
1437.12	0.012927
1446.76	0.015347
1456.41	0.018737
1466.05	0.019647
1475.7	0.017247
1485.34	0.011677
1494.99	0.007907
1504.63	0.006067
1514.28	0.004917
1523.92	0.004457
1533.57	0.004467
1543.21	0.004417
1552.86	0.004047
1562.5	0.003957
1572.15	0.004077
1581.79	0.004257
1591.44	0.003917
1601.08	0.004287
1610.73	0.004867
1620.37	0.005397
1630.01	0.007577
1639.66	0.011577
1649.3	0.020927
1658.95	0.033597
1668.59	0.027917
1678.24	0.015607
1687.88	0.014177
1697.53	0.017527
1707.17	0.023217
1716.82	0.037997
1726.46	0.083087
1736.11	0.194487
1745.75	0.215737
1755.4	0.091707
1765.04	0.037677
1774.69	0.019217
1784.33	0.011607
1793.98	0.008287
1803.62	0.006677
1813.27	0.005797
1822.91	0.005297
1832.55	0.004827
1842.2	0.004767
1851.84	0.004147
1861.49	0.003927
1871.13	0.003667
1880.78	0.003847
1890.42	0.004107
1900.07	0.004097
1909.71	0.003707
1919.36	0.003287
1929	0.002807
1938.65	0.002417
1948.29	0.002537
1957.94	0.002447
1967.58	0.002577
1977.23	0.002617
1986.87	0.002627
1996.52	0.002787
2006.16	0.002827
2015.81	0.002977
2025.45	0.003177
2035.1	0.002997
2044.74	0.002697
2054.38	0.002477
2064.03	0.002337
2073.67	0.002277
2083.32	0.002537
2092.96	0.002767
2102.61	0.002697
2112.25	0.003057
2121.9	0.003177
2131.54	0.002837
2141.19	0.002537
2150.83	0.002147
2160.48	0.001997
2170.12	0.002107
2179.77	0.001757
2189.41	0.002137
2199.06	0.001907
2208.7	0.001917
2218.35	0.001897
2227.99	0.001797
2237.64	0.001777
2247.28	0.001677
2256.92	0.001727
2266.57	0.0015924
2276.21	0.0015076
2285.86	0.0015015
2295.5	0.0014982
2305.15	0.001657
2314.79	0.001449
2324.44	0.001917
2334.08	0.001827
2343.73	0.002157
2353.37	0.001887
2363.02	0.0014665
2372.66	0.0015431
2382.31	0.0009975
2391.95	0.0014661
2401.6	0.0016207
2411.24	0.0013087
2420.89	0.0014376
2430.53	0.001413
2440.18	0.0015435
2449.82	0.0014809
2459.47	0.0012569
2469.11	0.0014959
2478.75	0.0013165
2488.4	0.0009981
2498.04	0.0012312
2507.69	0.0012316
2517.33	0.001034
2526.98	0.0014304
2536.62	0.0012213
2546.27	0.001707
2555.91	0.0014417
2565.56	0.0016225
2575.2	0.0015547
2584.85	0.0013649
2594.49	0.001817
2604.14	0.0015368
2613.78	0.0016179
2623.43	0.001697
2633.07	0.001807
2642.72	0.001727
2652.36	0.0016109
2662.01	0.002267
2671.65	0.001717
2681.29	0.001637
2690.94	0.001697
2700.58	0.002167
2710.23	0.002037
2719.87	0.001857
2729.52	0.002167
2739.16	0.001787
2748.81	0.001897
2758.45	0.001757
2768.1	0.002507
2777.74	0.002787
2787.39	0.002917
2797.03	0.003107
2806.68	0.004227
2816.32	0.004547
2825.97	0.005557
2835.61	0.007297
2845.26	0.009477
2854.9	0.014117
2864.55	0.025177
2874.19	0.040507
2883.84	0.049147
2893.48	0.042347
2903.12	0.035227
2912.77	0.033447
2922.41	0.032187
2932.06	0.038537
2941.7	0.057177
2951.35	0.054187
2960.99	0.042657
2970.64	0.048137
2980.28	0.074007
2989.93	0.108237
2999.57	0.100427
3009.22	0.042517
3018.86	0.020677
3028.51	0.013527
3038.15	0.009437
3047.8	0.006857
3057.44	0.006657
3067.09	0.005107
3076.73	0.003977
3086.38	0.003247
3096.02	0.002957
3105.67	0.002957
3115.31	0.002687
3124.95	0.002857
3134.6	0.003037
3144.24	0.002187
3153.89	0.002467
3163.53	0.002367
3173.18	0.001987
3182.82	0.001817
3192.47	0.002627
3202.11	0.002317
3211.76	0.002137
3221.4	0.0015826
3231.05	0.0015411
3240.69	0.0011311
3250.34	0.0010184
3259.98	0.0009678
3269.63	0.0012443
3279.27	0.0013418
3288.92	0.000884
3298.56	0.0006292
3308.21	0.0006173
3317.85	0.0012814
3327.49	0.0011396
3337.14	0.0011159
3346.78	0.0011252
3356.43	0.0009938
3366.07	0.001223
3375.72	0.0016277
3385.36	0.0012698
3395.01	0.0009153
3404.65	0.0015986
3414.3	0.0014443
3423.94	0.0009081
3433.59	0.001907
3443.23	0.0014379
3452.88	0.002317
3462.52	0.003237
3472.17	0.003267
3481.81	0.0016004
3491.46	0.0016036
3501.1	0.0010728
3510.75	0.0009881
3520.39	0.0014712
3530.04	0.000157
3539.68	0.0005547
3549.32	0.000356
3558.97	0.000408
3568.61	0.0007422
3578.26	0.00068578
3587.9	0.00062955
3597.55	0.000293
3607.19	0.000329
3616.84	0.000379
3626.48	0.0011356
3636.13	0.0010027
3645.77	0.000443
3655.42	0.000483
3665.06	0.000406
3674.71	0.000425
3684.35	0.000531
3694	0.0010802
3703.64	0.0005689
3713.29	0.0012912
3722.93	0.0008411
3732.58	0.000414
3742.22	0.000636459
3751.86	0.0010735
3761.51	0.0008802
3771.15	0.000639401
3780.8	0.0009275
3790.44	0.0007517
3800.09	0.0009416
3809.73	0.0005581
3819.38	0.0005606
3829.02	0.0008657
3838.67	0.0010829
3848.31	0.00112
3857.96	0.001136
3867.6	0.0015822
3877.25	0.0011554
3886.89	0.0012944
3896.54	0.0009411
3906.18	0.0010094
3915.83	0.0008831
3925.47	0.0013876
3935.12	0.0015932
3944.76	0.001647
3954.41	0.0013157
3964.05	0.0015488
3973.69	0.000937
3983.34	0.0014686
3992.98	0.001332
