Infrared Spectrum: N,N-Bis(2-diethylaminoethyl)aniline
Formula: C 18 H 33 N 3
CAS: 5427-46-3
State: gas
Origin: EPA-IR VAPOR PHASE LIBRARY
1/CM	ABSORBANCE
549.8	0.00649
559.445	0.0062
569.09	0.00669
578.734	0.00616
588.379	0.00511
598.024	0.00393
607.669	0.00288
617.313	0.00229
626.958	0.00194
636.603	0.00197
646.248	0.0021
655.893	0.00346
665.537	0.00629
675.182	0.01038
684.827	0.02597
694.472	0.03868
704.116	0.01946
713.761	0.01156
723.406	0.01407
733.051	0.02606
742.695	0.05884
752.34	0.0445
761.985	0.01959
771.63	0.01406
781.275	0.01285
790.919	0.01275
800.564	0.01308
810.209	0.01162
819.854	0.00847
829.498	0.00579
839.143	0.005
848.788	0.00556
858.433	0.00733
868.078	0.00806
877.722	0.00742
887.367	0.00694
897.012	0.00751
906.657	0.00825
916.301	0.00789
925.946	0.0075
935.591	0.00774
945.236	0.00911
954.88	0.01199
964.525	0.01653
974.17	0.01973
983.815	0.02556
993.46	0.03908
1003.1	0.02686
1012.75	0.02324
1022.39	0.02785
1032.04	0.04133
1041.68	0.04234
1051.33	0.04839
1060.97	0.06879
1070.62	0.07745
1080.26	0.06929
1089.91	0.05767
1099.55	0.04632
1109.2	0.04171
1118.84	0.04206
1128.49	0.04261
1138.13	0.04478
1147.78	0.05056
1157.42	0.05572
1167.07	0.06652
1176.71	0.08309
1186.36	0.07293
1196	0.07696
1205.64	0.08207
1215.29	0.0537
1224.93	0.04263
1234.58	0.04507
1244.22	0.0399
1253.87	0.03671
1263.51	0.03613
1273.16	0.04007
1282.8	0.04744
1292.45	0.05433
1302.09	0.05334
1311.74	0.04831
1321.38	0.04679
1331.03	0.0533
1340.67	0.07129
1350.32	0.08311
1359.96	0.08439
1369.61	0.09167
1379.25	0.09757
1388.9	0.08009
1398.54	0.04495
1408.18	0.02537
1417.83	0.01817
1427.47	0.01737
1437.12	0.0224
1446.76	0.03222
1456.41	0.04112
1466.05	0.04748
1475.7	0.04671
1485.34	0.05247
1494.99	0.11788
1504.63	0.1517
1514.28	0.04841
1523.92	0.02161
1533.57	0.01569
1543.21	0.01433
1552.86	0.01484
1562.5	0.01849
1572.15	0.02956
1581.79	0.04675
1591.44	0.09415
1601.08	0.1104
1610.73	0.05502
1620.37	0.0238
1630.01	0.0129
1639.66	0.00898
1649.3	0.00696
1658.95	0.00575
1668.59	0.00485
1678.24	0.00431
1687.88	0.00401
1697.53	0.00387
1707.17	0.00374
1716.82	0.0037
1726.46	0.00375
1736.11	0.00369
1745.75	0.00384
1755.4	0.00371
1765.04	0.00341
1774.69	0.00308
1784.33	0.00308
1793.98	0.00326
1803.62	0.00353
1813.27	0.00371
1822.91	0.00356
1832.55	0.00317
1842.2	0.00283
1851.84	0.00262
1861.49	0.00255
1871.13	0.00256
1880.78	0.00274
1890.42	0.00322
1900.07	0.00414
1909.71	0.00509
1919.36	0.00457
1929	0.00431
1938.65	0.00319
1948.29	0.00272
1957.94	0.00258
1967.58	0.00248
1977.23	0.00228
1986.87	0.00205
1996.52	0.0019
2006.16	0.00178
2015.81	0.00186
2025.45	0.00175
2035.1	0.00172
2044.74	0.00178
2054.38	0.00192
2064.03	0.0021
2073.67	0.00207
2083.32	0.00213
2092.96	0.00215
2102.61	0.00214
2112.25	0.00208
2121.9	0.00196
2131.54	0.0019
2141.19	0.00169
2150.83	0.00177
2160.48	0.00171
2170.12	0.0017
2179.77	0.00189
2189.41	0.00196
2199.06	0.0019
2208.7	0.00177
2218.35	0.00184
2227.99	0.00184
2237.64	0.00197
2247.28	0.00201
2256.92	0.00188
2266.57	0.00208
2276.21	0.00196
2285.86	0.00192
2295.5	0.00194
2305.15	0.00202
2314.79	0.00223
2324.44	0.00218
2334.08	0.00224
2343.73	0.00229
2353.37	0.00234
2363.02	0.00236
2372.66	0.00246
2382.31	0.00245
2391.95	0.00252
2401.6	0.00257
2411.24	0.00268
2420.89	0.00279
2430.53	0.00275
2440.18	0.00261
2449.82	0.00263
2459.47	0.00262
2469.11	0.00252
2478.75	0.00256
2488.4	0.00258
2498.04	0.00265
2507.69	0.00293
2517.33	0.00338
2526.98	0.00361
2536.62	0.00412
2546.27	0.00448
2555.91	0.00515
2565.56	0.00564
2575.2	0.00613
2584.85	0.00628
2594.49	0.00655
2604.14	0.0067
2613.78	0.00702
2623.43	0.00758
2633.07	0.00841
2642.72	0.00943
2652.36	0.01063
2662.01	0.01173
2671.65	0.01295
2681.29	0.01451
2690.94	0.01629
2700.58	0.01837
2710.23	0.02095
2719.87	0.02312
2729.52	0.02519
2739.16	0.02691
2748.81	0.03053
2758.45	0.03649
2768.1	0.04367
2777.74	0.05461
2787.39	0.07545
2797.03	0.10951
2806.68	0.13471
2816.32	0.13176
2825.97	0.11477
2835.61	0.09449
2845.26	0.07893
2854.9	0.07056
2864.55	0.07122
2874.19	0.08471
2883.84	0.09645
2893.48	0.08833
2903.12	0.0896
2912.77	0.09715
2922.41	0.11329
2932.06	0.1463
2941.7	0.16618
2951.35	0.14126
2960.99	0.15946
2970.64	0.2428
2980.28	0.22505
2989.93	0.10929
2999.57	0.05449
3009.22	0.03541
3018.86	0.03172
3028.51	0.03542
3038.15	0.03552
3047.8	0.03061
3057.44	0.02914
3067.09	0.04203
3076.73	0.03114
3086.38	0.02355
3096.02	0.02389
3105.67	0.01586
3115.31	0.01071
3124.95	0.00758
3134.6	0.00582
3144.24	0.00486
3153.89	0.00412
3163.53	0.0037
3173.18	0.00325
3182.82	0.00303
3192.47	0.00258
3202.11	0.00227
3211.76	0.00186
3221.4	0.00168
3231.05	0.00154
3240.69	0.00142
3250.34	0.0014
3259.98	0.00116
3269.63	0.00104
3279.27	0.00112
3288.92	0.0008449
3298.56	0.0008382
3308.21	0.0009887
3317.85	0.0007709
3327.49	0.0009073
3337.14	0.0007398
3346.78	0.0008827
3356.43	0.0005217
3366.07	0.0006786
3375.72	0.0008131
3385.36	0.0006695
3395.01	0.0005824
3404.65	0.0006032
3414.3	0.0005284
3423.94	0.0006397
3433.59	0.0005341
3443.23	0.0007006
3452.88	0.0004032
3462.52	0.0007348
3472.17	0.0007408
3481.81	0.0004235
3491.46	0.000566
3501.1	0.0004699
3510.75	0.0004726
3520.39	0.0003834
3530.04	0.0005269
3539.68	0.0004202
3549.32	0.0003116
3558.97	0.0005828
3568.61	0.0004482
3578.26	0.0005873
3587.9	0.000554
3597.55	0.0006276
3607.19	0.0005394
3616.84	0.0005733
3626.48	0.0007163
3636.13	0.0004903
3645.77	0.0006989
3655.42	0.0008903
3665.06	0.000484
3674.71	0.0006485
3684.35	0.0005224
3694	0.0007516
3703.64	0.0008023
3713.29	0.0008686
3722.93	0.0007944
3732.58	0.0008416
3742.22	0.0007171
3751.86	0.0008052
3761.51	0.0007941
3771.15	0.0007914
3780.8	0.0008876
3790.44	0.0008951
3800.09	0.0009012
3809.73	0.0006019
3819.38	0.0007555
3829.02	0.000698
3838.67	0.0007292
3848.31	0.00102
3857.96	0.0008453
3867.6	0.0009221
3877.25	0.00118
3886.89	0.00111
3896.54	0.00126
3906.18	0.0011
3915.83	0.00132
3925.47	0.00142
3935.12	0.00126
3944.76	0.00133
3954.41	0.00131
3964.05	0.00144
3973.69	0.00133
3983.34	0.00155
3992.98	0.00149
