Infrared Spectrum: 9H-Purine, 9-ethyl-6-hydrazino-
Formula: C7 H10 N6
CAS: 5427-21-4
State: SOLID (0.5 mg / 650 mg KBr DISC)
Class: COBLENTZ III
Instrument: PERKIN-ELMER 21 (GRATING)
Instrument parameters: FILTER CHANGE ABOUT 1075 CM^-^1
Sampling: TRANSMISSION
Resolution: 2
Origin: SOUTHERN RESEARCH INSTITUTE
1/CM	TRANSMITTANCE
619.72	1.0129
628.734	0.9732
637.748	0.8834
646.762	0.8585
655.775	1.0152
664.789	1.0016
673.803	1.0086
682.817	1.0165
691.831	1.0137
700.845	0.988
709.858	0.9338
718.872	0.808
727.886	0.778
736.9	0.7978
745.914	0.861
754.928	0.8878
763.941	0.8511
772.955	0.7947
781.969	0.8576
790.983	0.8232
799.997	0.8282
809.011	0.8416
818.024	0.8656
827.038	0.8941
836.052	0.8904
845.066	0.8336
854.08	0.8882
863.094	0.8934
872.107	0.8905
881.121	0.88
890.135	0.8506
899.149	0.8822
908.163	0.9299
917.177	0.9142
926.19	0.88
935.204	0.8156
944.218	0.6165
953.232	0.8363
962.246	0.8873
971.26	0.8879
980.273	0.894
989.287	0.9056
998.301	0.895
1007.31	0.8703
1016.33	0.8502
1025.34	0.848
1034.36	0.8477
1043.37	0.8481
1052.38	0.8487
1061.4	0.8462
1070.41	0.8061
1079.43	0.7947
1088.44	0.8286
1097.45	0.8301
1106.47	0.8363
1115.48	0.8346
1124.49	0.8257
1133.51	0.714
1142.52	0.753
1151.54	0.8614
1160.55	0.8776
1169.56	0.8755
1178.58	0.8645
1187.59	0.8456
1196.61	0.7979
1205.62	0.8009
1214.63	0.766
1223.65	0.5233
1232.66	0.6318
1241.67	0.8206
1250.69	0.854
1259.7	0.8077
1268.72	0.8515
1277.73	0.8391
1286.74	0.8014
1295.76	0.7376
1304.77	0.6253
1313.79	0.4643
1322.8	0.5745
1331.81	0.432
1340.83	0.7262
1349.84	0.7881
1358.85	0.7925
1367.87	0.7649
1376.88	0.7378
1385.9	0.7518
1394.91	0.7308
1403.92	0.6563
1412.94	0.7574
1421.95	0.8241
1430.97	0.8155
1439.98	0.79
1448.99	0.7497
1458.01	0.6799
1467.02	0.6521
1476.03	0.4623
1485.05	0.6465
1494.06	0.8304
1503.08	0.8534
1512.09	0.8305
1521.1	0.8012
1530.12	0.7975
1539.13	0.8183
1548.14	0.8002
1557.16	0.7377
1566.17	0.6425
1575.19	0.6647
1584.2	0.6589
1593.21	0.5036
1602.23	0.2541
1611.24	0.1795
1620.26	0.2595
1629.27	0.4383
1638.28	0.5696
1647.3	0.6405
1656.31	0.7481
1665.32	0.8086
1674.34	0.8372
1683.35	0.8491
1692.37	0.8832
1701.38	0.9223
1710.39	0.9288
1719.41	0.9354
1728.42	0.9421
1737.44	0.9483
1746.45	0.9526
1755.46	0.9558
1764.48	0.9581
1773.49	0.9591
1782.5	0.9598
1791.52	0.9593
1800.53	0.9577
1809.55	0.9563
1818.56	0.9553
1827.57	0.9546
1836.59	0.9548
1845.6	0.955
1854.62	0.9552
1863.63	0.9553
1872.64	0.9528
1881.66	0.9475
1890.67	0.9439
1899.68	0.9444
1908.7	0.9497
1917.71	0.952
1926.73	0.9524
1935.74	0.9515
1944.75	0.9506
1953.77	0.95
1962.78	0.9494
1971.8	0.9488
1980.81	0.9484
1989.82	0.9476
1998.84	0.9464
2007.85	0.9453
2016.86	0.9441
2025.88	0.9426
2034.89	0.9395
2043.91	0.9357
2052.92	0.9359
2061.93	0.9368
2070.95	0.9373
2079.96	0.9376
2088.97	0.9372
2097.99	0.9368
2107	0.937
2116.02	0.9368
2125.03	0.9353
2134.04	0.9338
2143.06	0.9321
2152.07	0.9312
2161.09	0.9305
2170.1	0.9297
2179.11	0.929
2188.13	0.9287
2197.14	0.9285
2206.15	0.9282
2215.17	0.928
2224.18	0.9282
2233.2	0.9285
2242.21	0.9288
2251.22	0.9291
2260.24	0.9292
2269.25	0.929
2278.27	0.9287
2287.28	0.9282
2296.29	0.9266
2305.31	0.9246
2314.32	0.9225
2323.33	0.9218
2332.35	0.9211
2341.36	0.9197
2350.38	0.9187
2359.39	0.9183
2368.4	0.9178
2377.42	0.9172
2386.43	0.9167
2395.45	0.9154
2404.46	0.9129
2413.47	0.9122
2422.49	0.9111
2431.5	0.9099
2440.51	0.9089
2449.53	0.9081
2458.54	0.9073
2467.56	0.9067
2476.57	0.9061
2485.58	0.9048
2494.6	0.9032
2503.61	0.9016
2512.63	0.8999
2521.64	0.8981
2530.65	0.8961
2539.67	0.8937
2548.68	0.8912
2557.69	0.8887
2566.71	0.8859
2575.72	0.8832
2584.74	0.8804
2593.75	0.8776
2602.76	0.8746
2611.78	0.8714
2620.79	0.8678
2629.8	0.8641
2638.82	0.863
2647.83	0.8621
2656.85	0.862
2665.86	0.8613
2674.87	0.8599
2683.89	0.8586
2692.9	0.857
2701.92	0.8551
2710.93	0.8525
2719.94	0.8499
2728.96	0.8464
2737.97	0.8421
2746.98	0.8376
2756	0.8327
2765.01	0.8261
2774.03	0.8183
2783.04	0.8097
2792.05	0.8006
2801.07	0.7908
2810.08	0.7808
2819.1	0.7705
2828.11	0.7591
2837.12	0.7479
2846.14	0.7384
2855.15	0.7294
2864.16	0.7213
2873.18	0.7156
2882.19	0.7072
2891.21	0.6886
2900.22	0.6528
2909.23	0.6408
2918.25	0.6365
2927.26	0.6333
2936.28	0.6306
2945.29	0.6282
2954.3	0.6262
2963.32	0.6259
2972.33	0.6396
2981.34	0.6477
2990.36	0.6465
2999.37	0.641
3008.39	0.6331
3017.4	0.6314
3026.41	0.632
3035.43	0.6318
3044.44	0.6298
3053.46	0.6211
3062.47	0.6105
3071.48	0.5977
3080.5	0.5801
3089.51	0.5574
3098.52	0.5277
3107.54	0.4921
3116.55	0.474
3125.57	0.4829
3134.58	0.5061
3143.59	0.531
3152.61	0.5398
3161.62	0.5456
3170.64	0.5548
3179.65	0.5661
3188.66	0.5766
3197.68	0.5866
3206.69	0.5962
3215.7	0.6054
3224.72	0.6143
3233.73	0.6221
3242.75	0.6288
3251.76	0.6343
3260.77	0.6362
3269.79	0.6379
3278.8	0.6409
3287.81	0.648
3296.83	0.6591
3305.84	0.6735
3314.86	0.6877
3323.87	0.6942
3332.88	0.6943
3341.9	0.693
3350.91	0.6913
3359.93	0.6888
3368.94	0.6859
3377.95	0.683
3386.97	0.6826
3395.98	0.6831
3404.99	0.6842
3414.01	0.687
3423.02	0.6903
3432.04	0.6939
3441.05	0.6979
3450.06	0.7037
3459.08	0.7095
3468.09	0.7162
3477.11	0.7233
3486.12	0.7307
3495.13	0.7381
3504.15	0.7456
3513.16	0.7531
3522.17	0.7605
3531.19	0.768
3540.2	0.7753
3549.22	0.7842
3558.23	0.7951
3567.24	0.8002
3576.26	0.813
3585.27	0.8174
3594.29	0.8223
3603.3	0.8269
3612.31	0.831
3621.33	0.836
3630.34	0.8401
3639.35	0.8418
3648.37	0.8421
3657.38	0.8416
3666.4	0.841
3675.41	0.8404
3684.42	0.8402
3693.44	0.84
3702.45	0.8398
3711.47	0.8396
3720.48	0.8394
3729.49	0.8393
3738.51	0.8387
3747.52	0.8381
3756.53	0.8383
3765.55	0.8388
3774.56	0.8392
3783.58	0.8394
3792.59	0.8394
3801.6	0.8393
3810.62	0.8392
3819.63	0.8392
3828.64	0.8383
3837.66	0.8373
3846.67	0.8364
3855.69	0.8354
3864.7	0.8347
3873.71	0.8341
3882.73	0.8334
3891.74	0.8329
3900.76	0.8327
3909.77	0.8324
3918.78	0.8321
3927.8	0.8321
3936.81	0.8321
3945.82	0.832
3954.84	0.8317
3963.85	0.8314
3972.87	0.8313
3981.88	0.832
3990.89	0.8327
3999.91	0.8335
4008.92	0.8346
4017.94	0.8357
4026.95	0.8373
4035.96	0.839
4044.98	0.8448
4053.99	0.8729
