Infrared Spectrum: Alpha-MERCAPTOACETANILIDE CARBAMATE
Formula: C9 H10 N2 O2 S
CAS: 5428-95-5
State: SOLID (MINERAL OIL MULL)
Melting point: 157-158 C
Class: COBLENTZ
Instrument: Not specified, most likely a prism, grating, or hybrid spectrometer.
Sampling: TRANSMISSION
Resolution: 4
Origin: WYANDOTTE CHEMICALS CORP., WYANDOTTE, MICHIGAN, USA
MICROMETERS	TRANSMITTANCE
2.041	0.506
2.08184	0.522
2.12267	0.53
2.16351	0.534
2.20434	0.532
2.24518	0.537
2.28601	0.552
2.32685	0.571
2.36768	0.576
2.40852	0.59
2.44935	0.602
2.49019	0.62
2.53102	0.629
2.57186	0.651
2.61269	0.663
2.65353	0.683
2.69436	0.692
2.7352	0.71
2.77603	0.736
2.81687	0.758
2.8577	0.775
2.89854	0.761
2.93937	0.508
2.98021	0.19
3.02104	0.214
3.06188	0.147
3.10271	0.202
3.14355	0.173
3.18438	0.309
3.22522	0.355
3.26605	0.302
3.30689	0.263
3.34772	0.052
3.38856	0.03
3.42939	0.044
3.47023	0.073
3.51106	0.102
3.5519	0.571
3.59273	0.613
3.63357	0.593
3.6744	0.613
3.71524	0.636
3.75607	0.671
3.79691	0.69
3.83774	0.697
3.87858	0.724
3.91941	0.738
3.96025	0.755
4.00109	0.767
4.04192	0.77
4.08276	0.775
4.12359	0.777
4.16443	0.785
4.20526	0.785
4.2461	0.78
4.28693	0.784
4.32777	0.799
4.3686	0.816
4.40944	0.821
4.45027	0.831
4.49111	0.833
4.53194	0.836
4.57278	0.843
4.61361	0.855
4.65445	0.869
4.69528	0.874
4.73612	0.892
4.77695	0.891
4.81779	0.891
4.85862	0.906
4.89946	0.921
4.94029	0.913
4.98113	0.923
5.02196	0.925
5.0628	0.925
5.10363	0.937
5.14447	0.92
5.1853	0.92
5.22614	0.942
5.26697	0.954
5.30781	0.954
5.34864	0.947
5.38948	0.95
5.43031	0.972
5.47115	0.972
5.51198	0.95
5.55282	0.95
5.59365	0.957
5.63449	0.962
5.67532	0.943
5.71616	0.879
5.75699	0.826
5.79783	0.743
5.83866	0.557
5.8795	0.38
5.92033	0.188
5.96117	0.088
6.00201	0.062
6.04284	0.083
6.08368	0.156
6.12451	0.243
6.16535	0.272
6.20618	0.234
6.24702	0.42
6.28785	0.539
6.32869	0.573
6.36952	0.51
6.41036	0.38
6.45119	0.236
6.49203	0.181
6.53286	0.384
6.5737	0.513
6.61453	0.477
6.65537	0.496
6.6962	0.498
6.73704	0.391
6.77787	0.178
6.81871	0.202
6.85954	0.176
6.90038	0.229
6.94121	0.496
6.98205	0.603
7.02288	0.62
7.06372	0.625
7.10455	0.617
7.14539	0.545
7.18622	0.309
7.22706	0.2
7.26789	0.348
7.30873	0.42
7.34956	0.431
7.3904	0.384
7.43123	0.34
7.47207	0.26
7.5129	0.2
7.55374	0.263
7.59457	0.292
7.63541	0.282
7.67624	0.294
7.71708	0.284
7.75791	0.268
7.79875	0.306
7.83958	0.355
7.88042	0.413
7.92126	0.45
7.96209	0.448
8.00293	0.42
8.04376	0.358
8.0846	0.457
8.12543	0.517
8.16627	0.539
8.2071	0.549
8.24794	0.551
8.28877	0.54
8.32961	0.491
8.37044	0.389
8.41128	0.403
8.45211	0.431
8.49295	0.409
8.53378	0.304
8.57462	0.302
8.61545	0.375
8.65629	0.431
8.69712	0.471
8.73796	0.488
8.77879	0.5
8.81963	0.52
8.86046	0.539
8.9013	0.535
8.94213	0.486
8.98297	0.477
9.0238	0.574
9.06464	0.641
9.10547	0.678
9.14631	0.7
9.18714	0.702
9.22798	0.647
9.26881	0.67
9.30965	0.715
9.35048	0.741
9.39132	0.76
9.43215	0.765
9.47299	0.772
9.51382	0.772
9.55466	0.773
9.59549	0.772
9.63633	0.789
9.67716	0.743
9.718	0.765
9.75883	0.795
9.79967	0.814
9.84051	0.809
9.88134	0.809
9.92218	0.814
9.96301	0.816
10.0038	0.824
10.0447	0.831
10.0855	0.828
10.1264	0.814
10.1672	0.795
10.208	0.818
10.2489	0.756
10.2897	0.61
10.3305	0.595
10.3714	0.644
10.4122	0.722
10.453	0.787
10.4939	0.818
10.5347	0.821
10.5755	0.829
10.6164	0.831
10.6572	0.838
10.698	0.84
10.7389	0.841
10.7797	0.843
10.8205	0.852
10.8614	0.853
10.9022	0.846
10.9431	0.835
10.9839	0.738
11.0247	0.658
11.0656	0.792
11.1064	0.836
11.1472	0.855
11.1881	0.86
11.2289	0.86
11.2697	0.801
11.3106	0.562
11.3514	0.605
11.3922	0.772
11.4331	0.824
11.4739	0.836
11.5147	0.85
11.5556	0.857
11.5964	0.862
11.6372	0.86
11.6781	0.809
11.7189	0.729
11.7598	0.792
11.8006	0.824
11.8414	0.799
11.8823	0.819
11.9231	0.836
11.9639	0.853
12.0048	0.863
12.0456	0.87
12.0864	0.869
12.1273	0.86
12.1681	0.862
12.2089	0.867
12.2498	0.869
12.2906	0.869
12.3314	0.865
12.3723	0.867
12.4131	0.867
12.454	0.867
12.4948	0.857
12.5356	0.858
12.5765	0.85
12.6173	0.84
12.6581	0.823
12.699	0.806
12.7398	0.78
12.7806	0.748
12.8215	0.695
12.8623	0.619
12.9031	0.537
12.944	0.476
12.9848	0.443
13.0256	0.481
13.0665	0.513
13.1073	0.476
13.1481	0.28
13.189	0.181
13.2298	0.278
13.2707	0.389
13.3115	0.462
13.3523	0.511
13.3932	0.532
13.434	0.551
13.4748	0.559
13.5157	0.571
13.5565	0.569
13.5973	0.561
13.6382	0.557
13.679	0.539
13.7198	0.515
13.7607	0.484
13.8015	0.437
13.8423	0.372
13.8832	0.318
13.924	0.253
13.9649	0.241
14.0057	0.263
14.0465	0.295
14.0874	0.304
14.1282	0.311
14.169	0.321
14.2099	0.336
14.2507	0.338
14.2915	0.328
14.3324	0.299
14.3732	0.267
14.414	0.232
14.4549	0.215
14.4957	0.231
14.5365	0.302
14.5774	0.355
14.6182	0.384
14.659	0.384
14.6999	0.387
14.7407	0.379
14.7816	0.375
14.8224	0.372
14.8632	0.375
14.9041	0.386
14.9449	0.394
14.9857	0.399
15.0266	0.413
15.0674	0.421
15.1082	0.425
15.1491	0.43
15.1899	0.442
15.2307	0.447
15.2716	0.445
15.3124	0.45
15.3532	0.454
15.3941	0.454
15.4349	0.459
15.4757	0.455
15.5166	0.459
15.5574	0.459
15.5983	0.471
15.6391	0.467
15.6799	0.474
15.7208	0.476
15.7616	0.474
15.8024	0.477
15.8433	0.477
15.8841	0.479
15.9249	0.479
15.9658	0.477
