Infrared Spectrum: 2-Amino-5-chloropyridimidine
Formula: C 4 H 5 Cl N 3
CAS: 5428-89-7
State: gas
Origin: EPA-IR VAPOR PHASE LIBRARY
1/CM	ABSORBANCE
551.7	0.00139
563.274	0.00127
574.848	0.00124
586.421	0.00125
597.995	0.00123
609.569	0.00137
621.143	0.00135
632.717	0.0014
644.291	0.00145
655.864	0.00178
667.438	0.00227
679.012	0.00235
690.586	0.00167
702.16	0.00136
713.734	0.00137
725.307	0.00149
736.881	0.00172
748.455	0.00179
760.029	0.00166
771.603	0.00161
783.177	0.00174
794.75	0.00187
806.324	0.00183
817.898	0.00164
829.472	0.00148
841.046	0.0014
852.619	0.00138
864.193	0.00137
875.767	0.00133
887.341	0.00124
898.915	0.00121
910.489	0.00133
922.062	0.00138
933.636	0.00154
945.21	0.00142
956.784	0.00139
968.358	0.00116
979.932	0.00114
991.505	0.00115
1003.08	0.00124
1014.65	0.00136
1026.23	0.0015
1037.8	0.00129
1049.37	0.0011
1060.95	0.00107
1072.52	0.0008995
1084.1	0.0009735
1095.67	0.0008265
1107.24	0.0009086
1118.82	0.00104
1130.39	0.00169
1141.97	0.00187
1153.54	0.00119
1165.11	0.00115
1176.69	0.0013
1188.26	0.00127
1199.83	0.00108
1211.41	0.0008932
1222.98	0.0008341
1234.56	0.0009881
1246.13	0.0009748
1257.7	0.0009164
1269.28	0.0009031
1280.85	0.0009816
1292.42	0.00101
1304	0.00106
1315.57	0.00105
1327.15	0.00105
1338.72	0.00108
1350.29	0.00111
1361.87	0.00112
1373.44	0.00119
1385.02	0.00123
1396.59	0.00129
1408.16	0.00139
1419.74	0.00186
1431.31	0.00383
1442.88	0.0105
1454.46	0.01275
1466.03	0.00563
1477.61	0.00173
1489.18	0.0014
1500.75	0.00138
1512.33	0.00148
1523.9	0.00184
1535.48	0.00241
1547.05	0.00264
1558.62	0.00268
1570.2	0.00259
1581.77	0.00296
1593.34	0.00573
1604.92	0.01059
1616.49	0.00868
1628.07	0.00329
1639.64	0.00191
1651.21	0.00141
1662.79	0.00121
1674.36	0.00117
1685.93	0.00116
1697.51	0.00114
1709.08	0.0011
1720.66	0.00112
1732.23	0.00108
1743.8	0.00108
1755.38	0.00105
1766.95	0.00105
1778.53	0.00106
1790.1	0.00106
1801.67	0.00104
1813.25	0.00103
1824.82	0.00101
1836.39	0.00101
1847.97	0.00103
1859.54	0.00102
1871.12	0.00105
1882.69	0.00103
1894.26	0.00103
1905.84	0.001
1917.41	0.0009787
1928.99	0.0009177
1940.56	0.0009105
1952.13	0.0008952
1963.71	0.0009041
1975.28	0.0008863
1986.85	0.0008703
1998.43	0.0008646
2010	0.0008839
2021.58	0.0008753
2033.15	0.0008049
2044.72	0.0007622
2056.3	0.0007251
2067.87	0.0007219
2079.44	0.0006942
2091.02	0.0006708
2102.59	0.0006462
2114.17	0.0006234
2125.74	0.0006191
2137.31	0.0005734
2148.89	0.0005724
2160.46	0.000598
2172.04	0.0005695
2183.61	0.0006124
2195.18	0.0005961
2206.76	0.0006346
2218.33	0.0006138
2229.9	0.0006076
2241.48	0.0006273
2253.05	0.0006218
2264.63	0.000617
2276.2	0.0006162
2287.77	0.0006265
2299.35	0.0006749
2310.92	0.000628
2322.5	0.0006261
2334.07	0.00061
2345.64	0.0006407
2357.22	0.0005922
2368.79	0.0006426
2380.36	0.0006382
2391.94	0.0006152
2403.51	0.0006306
2415.09	0.0006593
2426.66	0.0006206
2438.23	0.0006459
2449.81	0.0006552
2461.38	0.0006688
2472.96	0.0007075
2484.53	0.000668
2496.1	0.0006025
2507.68	0.0006283
2519.25	0.0005698
2530.82	0.0006168
2542.4	0.0006135
2553.97	0.000591
2565.55	0.0006187
2577.12	0.0006124
2588.69	0.0006507
2600.27	0.0006458
2611.84	0.0006178
2623.41	0.0005957
2634.99	0.0006383
2646.56	0.0006204
2658.14	0.0006278
2669.71	0.0006174
2681.28	0.0006646
2692.86	0.0006234
2704.43	0.0006506
2716.01	0.0006692
2727.58	0.0006454
2739.15	0.0006424
2750.73	0.000635
2762.3	0.0006278
2773.87	0.0006357
2785.45	0.0006773
2797.02	0.0006689
2808.6	0.0006352
2820.17	0.0006579
2831.74	0.0006964
2843.32	0.0007317
2854.89	0.0006623
2866.47	0.0006792
2878.04	0.0006973
2889.61	0.000688
2901.19	0.000792
2912.76	0.0007543
2924.33	0.0007552
2935.91	0.000717
2947.48	0.0007204
2959.06	0.0006729
2970.63	0.0006929
2982.2	0.0007107
2993.78	0.0007168
3005.35	0.0007858
3016.92	0.0008208
3028.5	0.0009514
3040.07	0.00118
3051.65	0.00117
3063.22	0.00102
3074.79	0.0008913
3086.37	0.0008623
3097.94	0.0008081
3109.52	0.0008028
3121.09	0.0007267
3132.66	0.0007217
3144.24	0.0006965
3155.81	0.0007164
3167.38	0.0007108
3178.96	0.0007037
3190.53	0.0007246
3202.11	0.0006254
3213.68	0.0006207
3225.25	0.0006012
3236.83	0.0006174
3248.4	0.0005576
3259.98	0.0006313
3271.55	0.0005675
3283.12	0.000584
3294.7	0.0006275
3306.27	0.0006445
3317.84	0.0006032
3329.42	0.0006527
3340.99	0.0006528
3352.57	0.000596
3364.14	0.0007028
3375.71	0.0006484
3387.29	0.0007076
3398.86	0.0007048
3410.43	0.000852
3422.01	0.00123
3433.58	0.00157
3445.16	0.0016
3456.73	0.00182
3468.3	0.00153
3479.88	0.0008668
3491.45	0.0007828
3503.03	0.0007609
3514.6	0.0008152
3526.17	0.0009196
3537.75	0.00112
3549.32	0.00108
3560.89	0.00106
3572.47	0.00116
3584.04	0.00102
3595.62	0.000796
3607.19	0.0005897
3618.76	0.0005887
3630.34	0.0006268
3641.91	0.0006046
3653.49	0.000574
3665.06	0.0006552
3676.63	0.0006459
3688.21	0.0006024
3699.78	0.0006255
3711.35	0.0006098
3722.93	0.000675
3734.5	0.0005854
3746.08	0.0005285
3757.65	0.0006251
3769.22	0.0005618
3780.8	0.0005571
3792.37	0.0006066
3803.94	0.000522
3815.52	0.0006209
3827.09	0.0005514
3838.67	0.0005855
3850.24	0.0006293
3861.81	0.000517
3873.39	0.0006083
3884.96	0.0005573
3896.54	0.0006055
3908.11	0.0006406
3919.68	0.0006292
3931.26	0.0006739
3942.83	0.000582
3954.4	0.0006828
3965.98	0.0005895
3977.55	0.0005644
3989.13	0.0005603
4000.7	0.000664
