Infrared Spectrum: 4-Diethylaminobenzoic acid
Formula: C 11 H 15 N O 2
CAS: 5429-28-7
State: gas
Origin: EPA-IR VAPOR PHASE LIBRARY
1/CM	ABSORBANCE
549.8	0.002479
559.445	0.002659
569.09	0.003899
578.734	0.005149
588.379	0.003389
598.024	0.001719
607.669	0.0011491
617.313	0.0007871
626.958	0.0010034
636.603	0.0007161
646.248	0.0007259
655.893	0.0006412
665.537	0.0008322
675.182	0.002279
684.827	0.004149
694.472	0.002859
704.116	0.002969
713.761	0.001829
723.406	0.0012136
733.051	0.0009643
742.695	0.0009792
752.34	0.0013568
761.985	0.003679
771.63	0.005019
781.275	0.003109
790.919	0.002309
800.564	0.002529
810.209	0.001729
819.854	0.001439
829.498	0.002419
839.143	0.001789
848.788	0.0008872
858.433	0.0008352
868.078	0.00059
877.722	0.0009018
887.367	0.0010504
897.012	0.0011044
906.657	0.0007969
916.301	0.0008136
925.946	0.0008703
935.591	0.0008521
945.236	0.0009055
954.88	0.0007163
964.525	0.0010519
974.17	0.0009144
983.815	0.0010508
993.46	0.0014031
1003.1	0.002739
1012.75	0.002989
1022.39	0.002699
1032.04	0.002179
1041.68	0.002549
1051.33	0.003249
1060.97	0.006309
1070.62	0.015959
1080.26	0.021839
1089.91	0.009889
1099.55	0.004619
1109.2	0.004259
1118.84	0.003949
1128.49	0.005009
1138.13	0.009669
1147.78	0.017269
1157.42	0.015469
1167.07	0.024159
1176.71	0.022539
1186.36	0.009629
1196	0.007569
1205.64	0.005709
1215.29	0.004249
1224.93	0.003659
1234.58	0.004559
1244.22	0.006489
1253.87	0.010299
1263.51	0.013329
1273.16	0.010289
1282.8	0.005699
1292.45	0.004579
1302.09	0.004749
1311.74	0.005969
1321.38	0.008459
1331.03	0.009619
1340.67	0.009659
1350.32	0.013349
1359.96	0.016369
1369.61	0.010459
1379.25	0.008769
1388.9	0.007689
1398.54	0.006129
1408.18	0.004279
1417.83	0.003059
1427.47	0.002849
1437.12	0.002329
1446.76	0.002189
1456.41	0.002449
1466.05	0.002609
1475.7	0.002599
1485.34	0.002379
1494.99	0.002619
1504.63	0.005049
1514.28	0.011399
1523.92	0.011119
1533.57	0.005039
1543.21	0.003169
1552.86	0.002799
1562.5	0.003299
1572.15	0.003989
1581.79	0.005929
1591.44	0.010749
1601.08	0.019619
1610.73	0.025249
1620.37	0.012419
1630.01	0.004179
1639.66	0.002299
1649.3	0.001799
1658.95	0.001669
1668.59	0.001569
1678.24	0.001669
1687.88	0.001899
1697.53	0.002029
1707.17	0.002639
1716.82	0.003059
1726.46	0.004629
1736.11	0.012269
1745.75	0.038539
1755.4	0.036289
1765.04	0.008969
1774.69	0.003549
1784.33	0.002569
1793.98	0.001789
1803.62	0.0013561
1813.27	0.0012653
1822.91	0.0009869
1832.55	0.0009073
1842.2	0.0008305
1851.84	0.0007731
1861.49	0.0007314
1871.13	0.0007025
1880.78	0.0008465
1890.42	0.0008453
1900.07	0.0010005
1909.71	0.0010249
1919.36	0.0008532
1929	0.000807
1938.65	0.0008857
1948.29	0.0008737
1957.94	0.0007265
1967.58	0.0007189
1977.23	0.0006478
1986.87	0.0005933
1996.52	0.0005654
2006.16	0.0005959
2015.81	0.00058
2025.45	0.00052085
2035.1	0.00058
2044.74	0.0006603
2054.38	0.00051959
2064.03	0.00045049
2073.67	0.0005746
2083.32	0.0005699
2092.96	0.0006293
2102.61	0.0006311
2112.25	0.00051041
2121.9	0.00045054
2131.54	0.0005303
2141.19	0.0005446
2150.83	0.0006416
2160.48	0.0005672
2170.12	0.00047741
2179.77	0.00050751
2189.41	0.0006162
2199.06	0.00052676
2208.7	0.00044753
2218.35	0.00048512
2227.99	0.0003768
2237.64	0.00050855
2247.28	0.0005472
2256.92	0.00050013
2266.57	0.000428691
2276.21	0.00041906
2285.86	0.00049065
2295.5	0.00050411
2305.15	0.00050783
2314.79	0.00051651
2324.44	0.0005439
2334.08	0.00047998
2343.73	0.0005351
2353.37	0.00055
2363.02	0.00051191
2372.66	0.0006269
2382.31	0.0005843
2391.95	0.0005331
2401.6	0.0005943
2411.24	0.0005255
2420.89	0.0006049
2430.53	0.0006259
2440.18	0.00052299
2449.82	0.00042692
2459.47	0.00050989
2469.11	0.00052431
2478.75	0.0006099
2488.4	0.00052421
2498.04	0.00051628
2507.69	0.0006183
2517.33	0.0007231
2526.98	0.00049459
2536.62	0.0006138
2546.27	0.0006433
2555.91	0.0006805
2565.56	0.0005603
2575.2	0.0007962
2584.85	0.000613
2594.49	0.000719
2604.14	0.0006257
2613.78	0.0005671
2623.43	0.0005944
2633.07	0.0007149
2642.72	0.0006245
2652.36	0.0006281
2662.01	0.0006848
2671.65	0.0006691
2681.29	0.0006664
2690.94	0.0005828
2700.58	0.0005554
2710.23	0.0005567
2719.87	0.0005737
2729.52	0.0007349
2739.16	0.0006292
2748.81	0.0007802
2758.45	0.0006985
2768.1	0.0008275
2777.74	0.0008149
2787.39	0.0008333
2797.03	0.0009107
2806.68	0.0011132
2816.32	0.0011464
2825.97	0.001539
2835.61	0.001789
2845.26	0.001899
2854.9	0.002179
2864.55	0.002419
2874.19	0.003079
2883.84	0.003819
2893.48	0.003619
2903.12	0.003499
2912.77	0.003309
2922.41	0.003569
2932.06	0.004529
2941.7	0.005659
2951.35	0.004859
2960.99	0.004419
2970.64	0.006209
2980.28	0.008669
2989.93	0.006879
2999.57	0.003349
3009.22	0.002029
3018.86	0.001479
3028.51	0.0013873
3038.15	0.0010623
3047.8	0.0009144
3057.44	0.0011354
3067.09	0.0011674
3076.73	0.0011493
3086.38	0.0013702
3096.02	0.001579
3105.67	0.001509
3115.31	0.0011847
3124.95	0.0009025
3134.6	0.0007234
3144.24	0.0006441
3153.89	0.0005578
3163.53	0.00051433
3173.18	0.0005879
3182.82	0.0004158
3192.47	0.00045729
3202.11	0.00045592
3211.76	0.00032
3221.4	0.0003469
3231.05	0.000322
3240.69	0.0003633
3250.34	0.0004046
3259.98	0.000271
3269.63	0.0003862
3279.27	0.000318
3288.92	0.00045258
3298.56	0.000328
3308.21	0.0004143
3317.85	0.0004098
3327.49	0.00046382
3337.14	0.000303
3346.78	0.000292
3356.43	0.000302
3366.07	0.0005536
3375.72	0.00051675
3385.36	0.00051256
3395.01	0.0003693
3404.65	0.000189
3414.3	0.0003933
3423.94	0.00019
3433.59	0.000187
3443.23	0.0003953
3452.88	0.000413
3462.52	0.000293
3472.17	0.000155
3481.81	0.00048525
3491.46	0.0006432
3501.1	0.0005743
3510.75	0.000243
3520.39	0.0003553
3530.04	0.00050025
3539.68	0.00047685
3549.32	0.000272
3558.97	0.0006129
3568.61	0.001143
3578.26	0.005859
3587.9	0.012009
3597.55	0.002579
3607.19	0.0005964
3616.84	0.00044855
3626.48	0.0005466
3636.13	0.00052691
3645.77	0.00042438
3655.42	0.0005105
3665.06	0.000195
3674.71	0.000254
3684.35	0.0003544
3694	0.000252
3703.64	0.0005142
3713.29	0.00047069
3722.93	0.000275
3732.58	0.0003793
3742.22	0.000306
3751.86	0.00042667
3761.51	0.000181
3771.15	0.0004744
3780.8	0.000244
3790.44	7.5e-05
3800.09	0.000222
3809.73	0.000106
3819.38	0.0003557
3829.02	0.00018
3838.67	0.000191
3848.31	8.8e-05
3857.96	0.000265
3867.6	0.0004012
3877.25	0.000296
3886.89	0.000296
3896.54	0.000263
3906.18	0.0003592
3915.83	0.000199
3925.47	0.00048487
3935.12	0.000209
3944.76	0.000254
3954.41	0.000178
3964.05	0.000142
3973.69	6.2e-05
3983.34	9.2e-05
3992.98	0.000226
