Infrared Spectrum: ACETYL GLYCINE
Formula: C4 H7 N O3
CAS: 543-24-8
State: SOLID (MINERAL OIL MULL)
Class: COBLENTZ
Instrument: Not specified, most likely a prism, grating, or hybrid spectrometer.
Sampling: TRANSMISSION
Resolution: 4
Origin: DOW CHEMICAL COMPANY
MICROMETERS	TRANSMITTANCE
2.069	0.76
2.11013	0.767
2.15127	0.768
2.1924	0.773
2.23354	0.775
2.27467	0.772
2.31581	0.763
2.35694	0.768
2.39808	0.784
2.43921	0.791
2.48035	0.797
2.52148	0.804
2.56261	0.815
2.60375	0.823
2.64488	0.83
2.68602	0.833
2.72715	0.837
2.76829	0.84
2.80942	0.842
2.85056	0.839
2.89169	0.827
2.93283	0.809
2.97396	0.722
3.01509	0.316
3.05623	0.686
3.09736	0.712
3.1385	0.739
3.17963	0.75
3.22077	0.732
3.2619	0.71
3.30304	0.693
3.34417	0.657
3.3853	0.404
3.42644	0.104
3.46757	0.089
3.50871	0.172
3.54984	0.232
3.59098	0.53
3.63211	0.582
3.67325	0.58
3.71438	0.578
3.75552	0.599
3.79665	0.597
3.83778	0.577
3.87892	0.559
3.92005	0.553
3.96119	0.518
4.00232	0.501
4.04346	0.496
4.08459	0.496
4.12573	0.494
4.16686	0.498
4.208	0.505
4.24913	0.506
4.29026	0.522
4.3314	0.534
4.37253	0.534
4.41367	0.529
4.4548	0.53
4.49594	0.551
4.53707	0.582
4.57821	0.609
4.61934	0.647
4.66047	0.671
4.70161	0.683
4.74274	0.69
4.78388	0.696
4.82501	0.686
4.86615	0.671
4.90728	0.654
4.94842	0.63
4.98955	0.601
5.03069	0.561
5.07182	0.523
5.11295	0.488
5.15409	0.441
5.19522	0.431
5.23636	0.448
5.27749	0.47
5.31863	0.474
5.35976	0.53
5.4009	0.583
5.44203	0.625
5.48317	0.662
5.5243	0.679
5.56543	0.676
5.60657	0.678
5.6477	0.691
5.68884	0.662
5.72997	0.619
5.77111	0.549
5.81224	0.363
5.85338	0.195
5.89451	0.323
5.93565	0.604
5.97678	0.703
6.01791	0.708
6.05905	0.66
6.10018	0.585
6.14132	0.494
6.18245	0.369
6.22359	0.229
6.26472	0.147
6.30586	0.095
6.34699	0.085
6.38812	0.104
6.42926	0.109
6.47039	0.099
6.51153	0.09
6.55266	0.116
6.5938	0.14
6.63493	0.188
6.67607	0.253
6.7172	0.315
6.75834	0.363
6.79947	0.342
6.8406	0.25
6.88174	0.224
6.92287	0.224
6.96401	0.202
7.00514	0.349
7.04628	0.46
7.08741	0.51
7.12855	0.496
7.16968	0.424
7.21082	0.308
7.25195	0.184
7.29308	0.181
7.33422	0.287
7.37535	0.203
7.41649	0.164
7.45762	0.234
7.49876	0.386
7.53989	0.465
7.58103	0.542
7.62216	0.563
7.6633	0.585
7.70443	0.577
7.74556	0.523
7.7867	0.369
7.82783	0.178
7.86897	0.138
7.9101	0.333
7.95124	0.448
7.99237	0.419
8.03351	0.229
8.07464	0.095
8.11577	0.078
8.15691	0.089
8.19804	0.145
8.23918	0.232
8.28031	0.303
8.32145	0.363
8.36258	0.419
8.40372	0.455
8.44485	0.488
8.48599	0.51
8.52712	0.522
8.56825	0.53
8.60939	0.541
8.65052	0.556
8.69166	0.566
8.73279	0.571
8.77393	0.539
8.81506	0.493
8.8562	0.508
8.89733	0.57
8.93847	0.595
8.9796	0.607
9.02073	0.618
9.06187	0.623
9.103	0.63
9.14414	0.633
9.18527	0.631
9.22641	0.63
9.26754	0.63
9.30868	0.626
9.34981	0.619
9.39095	0.607
9.43208	0.587
9.47321	0.558
9.51435	0.518
9.55548	0.498
9.59662	0.508
9.63775	0.518
9.67889	0.518
9.72002	0.53
9.76116	0.558
9.80229	0.587
9.84342	0.607
9.88456	0.618
9.92569	0.594
9.96683	0.527
10.008	0.44
10.0491	0.313
10.0902	0.27
10.1314	0.443
10.1725	0.563
10.2136	0.623
10.2548	0.655
10.2959	0.678
10.337	0.696
10.3782	0.71
10.4193	0.724
10.4604	0.732
10.5016	0.741
10.5427	0.748
10.5838	0.753
10.625	0.756
10.6661	0.76
10.7072	0.767
10.7484	0.768
10.7895	0.772
10.8307	0.784
10.8718	0.789
10.9129	0.791
10.9541	0.796
10.9952	0.792
11.0363	0.714
11.0775	0.611
11.1186	0.602
11.1597	0.681
11.2009	0.744
11.242	0.768
11.2831	0.787
11.3243	0.799
11.3654	0.806
11.4065	0.815
11.4477	0.82
11.4888	0.821
11.5299	0.825
11.5711	0.828
11.6122	0.83
11.6533	0.833
11.6945	0.835
11.7356	0.835
11.7767	0.835
11.8179	0.832
11.859	0.832
11.9002	0.835
11.9413	0.837
11.9824	0.839
12.0236	0.84
12.0647	0.84
12.1058	0.842
12.147	0.844
12.1881	0.845
12.2292	0.845
12.2704	0.845
12.3115	0.845
12.3526	0.845
12.3938	0.845
12.4349	0.845
12.476	0.845
12.5172	0.844
12.5583	0.839
12.5994	0.833
12.6406	0.832
12.6817	0.832
12.7228	0.828
12.764	0.823
12.8051	0.821
12.8462	0.82
12.8874	0.816
12.9285	0.815
12.9696	0.815
13.0108	0.815
13.0519	0.813
13.0931	0.813
13.1342	0.813
13.1753	0.811
13.2165	0.808
13.2576	0.803
13.2987	0.801
13.3399	0.797
13.381	0.794
13.4221	0.787
13.4633	0.777
13.5044	0.77
13.5455	0.763
13.5867	0.76
13.6278	0.751
13.6689	0.744
13.7101	0.738
13.7512	0.729
13.7923	0.72
13.8335	0.714
13.8746	0.707
13.9157	0.705
13.9569	0.707
13.998	0.705
14.0391	0.696
14.0803	0.688
14.1214	0.678
14.1625	0.66
14.2037	0.645
14.2448	0.621
14.286	0.599
14.3271	0.575
14.3682	0.547
14.4094	0.52
14.4505	0.5
14.4916	0.481
14.5328	0.472
14.5739	0.469
14.615	0.465
14.6562	0.476
14.6973	0.494
14.7384	0.511
14.7796	0.523
14.8207	0.534
14.8618	0.537
14.903	0.539
14.9441	0.541
14.9852	0.541
15.0264	0.549
15.0675	0.549
15.1086	0.539
15.1498	0.539
15.1909	0.534
15.232	0.529
15.2732	0.522
15.3143	0.511
15.3555	0.5
15.3966	0.491
15.4377	0.482
15.4789	0.472
15.52	0.458
15.5611	0.438
15.6023	0.422
15.6434	0.409
15.6845	0.397
15.7257	0.381
15.7668	0.366
15.8079	0.354
15.8491	0.34
15.8902	0.337
