Infrared Spectrum: ACETYLENEDICARBOXAMIDE
Formula: C4 H4 N2 O2
CAS: 543-21-5
State: SOLID (SPLIT MULL), FLUOROLUBE FOR 3800-1330 CM^-^1, NUJOL FOR 1330-400 CM^-^1
Class: COBLENTZ III
Instrument: BECKMAN IR-9 (GRATING)
Instrument parameters: ORDER CHANGES: 670, 1200, 2000 CM^-^1
Sampling: TRANSMISSION
Resolution: 2
Origin: DOW CHEMICAL COMPANY
1/CM	TRANSMITTANCE
401	0.6775
410	0.6354
419	0.6408
428	0.684
437	0.7171
446	0.75
455	0.7832
464	0.8118
473	0.8236
482	0.831
491	0.838
500	0.8449
509	0.8468
518	0.8456
527	0.8386
536	0.8287
545	0.8061
554	0.5956
563	0.756
572	0.8019
581	0.7896
590	0.7356
599	0.4408
608	0.3514
617	0.4542
626	0.3875
635	0.6392
644	0.628
653	0.5788
662	0.4885
671	0.4024
680	0.3152
689	0.2616
698	0.2266
707	0.2231
716	0.2955
725	0.3134
734	0.2843
743	0.3039
752	0.3975
761	0.4888
770	0.5592
779	0.5837
788	0.5905
797	0.587
806	0.569
815	0.6524
824	0.7442
833	0.7856
842	0.8062
851	0.8274
860	0.8206
869	0.8284
878	0.8301
887	0.8361
896	0.8454
905	0.8536
914	0.8582
923	0.8608
932	0.8549
941	0.8499
950	0.8333
959	0.7819
968	0.6239
977	0.4899
986	0.7912
995	0.8549
1004	0.8631
1013	0.8556
1022	0.8462
1031	0.8453
1040	0.8438
1049	0.8375
1058	0.8259
1067	0.8071
1076	0.7811
1085	0.7503
1094	0.7119
1103	0.6412
1112	0.4873
1121	0.1537
1130	0.1642
1139	0.597
1148	0.7285
1157	0.7639
1166	0.7644
1175	0.7568
1184	0.7481
1193	0.7372
1202	0.7411
1211	0.748
1220	0.7358
1229	0.7153
1238	0.7058
1247	0.6718
1256	0.6422
1265	0.618
1274	0.5976
1283	0.5773
1292	0.5562
1301	0.5137
1310	0.4846
1319	0.4598
1328	0.445
1337	0.434
1346	0.3902
1355	0.4005
1364	0.4193
1373	0.4139
1382	0.387
1391	0.3223
1400	0.2185
1409	0.1741
1418	0.1945
1427	0.3657
1436	0.519
1445	0.607
1454	0.6285
1463	0.6461
1472	0.6587
1481	0.6689
1490	0.6815
1499	0.6846
1508	0.6833
1517	0.6794
1526	0.6732
1535	0.6651
1544	0.6533
1553	0.6312
1562	0.6073
1571	0.582
1580	0.5491
1589	0.5066
1598	0.4489
1607	0.3616
1616	0.2922
1625	0.2084
1634	0.208
1643	0.4578
1652	0.46
1661	0.3818
1670	0.2421
1679	0.167
1688	0.1727
1697	0.3134
1706	0.3973
1715	0.5236
1724	0.5923
1733	0.659
1742	0.7267
1751	0.7801
1760	0.8121
1769	0.8438
1778	0.8603
1787	0.865
1796	0.8678
1805	0.8711
1814	0.8728
1823	0.8754
1832	0.8757
1841	0.8761
1850	0.8744
1859	0.8728
1868	0.8718
1877	0.8716
1886	0.8707
1895	0.8686
1904	0.8658
1913	0.8634
1922	0.8627
1931	0.8617
1940	0.8594
1949	0.8578
1958	0.8575
1967	0.856
1976	0.855
1985	0.8545
1994	0.8546
2003	0.8547
2012	0.8541
2021	0.8533
2030	0.8524
2039	0.8516
2048	0.8507
2057	0.8489
2066	0.8471
2075	0.8452
2084	0.8433
2093	0.8413
2102	0.8378
2111	0.8344
2120	0.831
2129	0.8289
2138	0.8271
2147	0.8259
2156	0.825
2165	0.8243
2174	0.8234
2183	0.8199
2192	0.8164
2201	0.8125
2210	0.8082
2219	0.8038
2228	0.7988
2237	0.7937
2246	0.7888
2255	0.7836
2264	0.7793
2273	0.7794
2282	0.7795
2291	0.7795
2300	0.7811
2309	0.7828
2318	0.7845
2327	0.7862
2336	0.7894
2345	0.7934
2354	0.7993
2363	0.8075
2372	0.8162
2381	0.8172
2390	0.7997
2399	0.7806
2408	0.776
2417	0.7758
2426	0.7754
2435	0.7749
2444	0.7743
2453	0.7734
2462	0.7721
2471	0.7708
2480	0.7697
2489	0.7688
2498	0.7678
2507	0.7669
2516	0.766
2525	0.7651
2534	0.7641
2543	0.7626
2552	0.7611
2561	0.7594
2570	0.7571
2579	0.7547
2588	0.7524
2597	0.7499
2606	0.7475
2615	0.7448
2624	0.7411
2633	0.7375
2642	0.7339
2651	0.7303
2660	0.7268
2669	0.7233
2678	0.7198
2687	0.7162
2696	0.713
2705	0.7096
2714	0.7062
2723	0.7028
2732	0.6996
2741	0.6946
2750	0.6892
2759	0.6814
2768	0.6701
2777	0.658
2786	0.6394
2795	0.6176
2804	0.6107
2813	0.6278
2822	0.6446
2831	0.6592
2840	0.6674
2849	0.6664
2858	0.6643
2867	0.6615
2876	0.6575
2885	0.6536
2894	0.6478
2903	0.6414
2912	0.6326
2921	0.6235
2930	0.614
2939	0.6045
2948	0.5949
2957	0.5853
2966	0.5745
2975	0.5622
2984	0.5493
2993	0.5358
3002	0.5223
3011	0.5045
3020	0.4873
3029	0.4727
3038	0.4581
3047	0.4415
3056	0.4247
3065	0.405
3074	0.3845
3083	0.3664
3092	0.3476
3101	0.33
3110	0.3184
3119	0.3118
3128	0.3094
3137	0.309
3146	0.3104
3155	0.3135
3164	0.3184
3173	0.3244
3182	0.3338
3191	0.3456
3200	0.3629
3209	0.3799
3218	0.3947
3227	0.4032
3236	0.4044
3245	0.4014
3254	0.3934
3263	0.3777
3272	0.3697
3281	0.3641
3290	0.3623
3299	0.3638
3308	0.3946
3317	0.4279
3326	0.461
3335	0.4944
3344	0.5197
3353	0.5468
3362	0.5729
3371	0.5955
3380	0.6185
3389	0.6418
3398	0.6675
3407	0.6974
3416	0.7261
3425	0.7453
3434	0.759
3443	0.7704
3452	0.7747
3461	0.7786
3470	0.7821
3479	0.7856
3488	0.7889
3497	0.7906
3506	0.7915
3515	0.7928
3524	0.8011
3533	0.8067
3542	0.8068
3551	0.8054
3560	0.804
3569	0.8021
3578	0.8
3587	0.7974
3596	0.7943
3605	0.7981
3614	0.8015
3623	0.8001
3632	0.7988
3641	0.7971
3650	0.795
3659	0.7934
3668	0.7919
3677	0.7905
3686	0.7889
3695	0.7872
3704	0.7858
3713	0.7843
3722	0.7828
3731	0.7808
3740	0.7791
3749	0.7771
3758	0.7753
3767	0.7733
3776	0.7712
3785	0.7687
3794	0.7655
