Infrared Spectrum: ACETIC ACID, BARIUM SALT
Formula: C4 H6 O4 Ba
CAS: 543-80-6
State: SOLID (MINERAL OIL MULL)
Class: COBLENTZ
Instrument: PERKIN-ELMER
Sampling: TRANSMISSION
Resolution: 4
Origin: BELL TELEPHONE LABORATORIES- F. VRATNY
MICROMETERS	TRANSMITTANCE
2.034	0.778
2.06778	0.778
2.10157	0.778
2.13535	0.778
2.16914	0.785
2.20292	0.787
2.23671	0.787
2.27049	0.787
2.30427	0.782
2.33806	0.772
2.37184	0.777
2.40563	0.777
2.43941	0.778
2.4732	0.78
2.50698	0.782
2.54076	0.784
2.57455	0.787
2.60833	0.79
2.64212	0.792
2.6759	0.792
2.70969	0.795
2.74347	0.797
2.77725	0.797
2.81104	0.797
2.84482	0.792
2.87861	0.787
2.91239	0.784
2.94618	0.785
2.97996	0.787
3.01374	0.789
3.04753	0.789
3.08131	0.787
3.1151	0.782
3.14888	0.78
3.18266	0.782
3.21645	0.78
3.25023	0.777
3.28402	0.758
3.3178	0.724
3.35159	0.545
3.38537	0.263
3.41915	0.158
3.45294	0.263
3.48672	0.316
3.52051	0.494
3.55429	0.709
3.58808	0.751
3.62186	0.767
3.65564	0.77
3.68943	0.772
3.72321	0.777
3.757	0.777
3.79078	0.777
3.82457	0.777
3.85835	0.78
3.89213	0.784
3.92592	0.79
3.9597	0.79
3.99349	0.79
4.02727	0.792
4.06106	0.794
4.09484	0.794
4.12862	0.795
4.16241	0.795
4.19619	0.801
4.22998	0.797
4.26376	0.801
4.29755	0.801
4.33133	0.801
4.36511	0.799
4.3989	0.795
4.43268	0.794
4.46647	0.794
4.50025	0.79
4.53404	0.79
4.56782	0.79
4.6016	0.79
4.63539	0.792
4.66917	0.79
4.70296	0.79
4.73674	0.79
4.77053	0.79
4.80431	0.789
4.83809	0.79
4.87188	0.787
4.90566	0.79
4.93945	0.79
4.97323	0.79
5.00702	0.79
5.0408	0.79
5.07458	0.789
5.10837	0.787
5.14215	0.787
5.17594	0.785
5.20972	0.785
5.24351	0.785
5.27729	0.784
5.31107	0.784
5.34486	0.784
5.37864	0.784
5.41243	0.782
5.44621	0.782
5.47999	0.784
5.51378	0.785
5.54756	0.784
5.58135	0.784
5.61513	0.78
5.64892	0.777
5.6827	0.777
5.71648	0.777
5.75027	0.777
5.78405	0.77
5.81784	0.768
5.85162	0.767
5.88541	0.765
5.91919	0.761
5.95297	0.756
5.98676	0.753
6.02054	0.743
6.05433	0.731
6.08811	0.709
6.1219	0.692
6.15568	0.661
6.18946	0.595
6.22325	0.477
6.25703	0.37
6.29082	0.294
6.3246	0.229
6.35839	0.205
6.39217	0.226
6.42595	0.229
6.45974	0.277
6.49352	0.352
6.52731	0.43
6.56109	0.486
6.59488	0.532
6.62866	0.568
6.66244	0.598
6.69623	0.605
6.73001	0.612
6.7638	0.607
6.79758	0.542
6.83137	0.455
6.86515	0.45
6.89893	0.455
6.93272	0.457
6.9665	0.421
7.00029	0.304
7.03407	0.253
7.06786	0.299
7.10164	0.37
7.13542	0.476
7.16921	0.518
7.20299	0.549
7.23678	0.549
7.27056	0.53
7.30435	0.598
7.33813	0.629
7.37191	0.646
7.4057	0.634
7.43948	0.647
7.47327	0.644
7.50705	0.678
7.54084	0.693
7.57462	0.707
7.6084	0.714
7.64219	0.712
7.67597	0.714
7.70976	0.719
7.74354	0.727
7.77732	0.729
7.81111	0.734
7.84489	0.738
7.87868	0.739
7.91246	0.741
7.94625	0.741
7.98003	0.743
8.01381	0.744
8.0476	0.744
8.08138	0.743
8.11517	0.743
8.14895	0.744
8.18274	0.746
8.21652	0.75
8.2503	0.751
8.28409	0.751
8.31787	0.755
8.35166	0.758
8.38544	0.758
8.41923	0.755
8.45301	0.76
8.48679	0.758
8.52058	0.756
8.55436	0.756
8.58815	0.755
8.62193	0.753
8.65572	0.75
8.6895	0.751
8.72328	0.751
8.75707	0.753
8.79085	0.756
8.82464	0.758
8.85842	0.758
8.89221	0.76
8.92599	0.76
8.95977	0.76
8.99356	0.76
9.02734	0.76
9.06113	0.761
9.09491	0.76
9.1287	0.76
9.16248	0.76
9.19626	0.76
9.23005	0.76
9.26383	0.76
9.29762	0.76
9.3314	0.76
9.36519	0.76
9.39897	0.76
9.43275	0.758
9.46654	0.751
9.50032	0.744
9.53411	0.734
9.56789	0.736
9.60168	0.739
9.63546	0.741
9.66924	0.744
9.70303	0.743
9.73681	0.732
9.7706	0.709
9.80438	0.69
9.83816	0.683
9.87195	0.695
9.90573	0.702
9.93952	0.724
9.9733	0.739
10.0071	0.748
10.0409	0.751
10.0747	0.756
10.1084	0.758
10.1422	0.761
10.176	0.763
10.2098	0.765
10.2436	0.765
10.2774	0.763
10.3111	0.765
10.3449	0.767
10.3787	0.767
10.4125	0.767
10.4463	0.767
10.4801	0.768
10.5139	0.768
10.5476	0.768
10.5814	0.767
10.6152	0.767
10.649	0.768
10.6828	0.753
10.7166	0.687
10.7503	0.661
10.7841	0.651
10.8179	0.729
10.8517	0.753
10.8855	0.763
10.9193	0.767
10.953	0.768
10.9868	0.77
11.0206	0.77
11.0544	0.773
11.0882	0.778
11.122	0.778
11.1558	0.778
11.1895	0.778
11.2233	0.778
11.2571	0.778
11.2909	0.778
11.3247	0.778
11.3585	0.78
11.3922	0.782
11.426	0.784
11.4598	0.782
11.4936	0.782
11.5274	0.782
11.5612	0.782
11.5949	0.782
11.6287	0.784
11.6625	0.784
11.6963	0.78
11.7301	0.78
11.7639	0.78
11.7977	0.78
11.8314	0.78
11.8652	0.782
11.899	0.782
11.9328	0.785
11.9666	0.789
12.0004	0.785
12.0341	0.785
12.0679	0.787
12.1017	0.787
12.1355	0.787
12.1693	0.787
12.2031	0.787
12.2368	0.789
12.2706	0.79
12.3044	0.792
12.3382	0.792
12.372	0.792
12.4058	0.792
12.4396	0.792
12.4733	0.792
12.5071	0.794
12.5409	0.795
12.5747	0.795
12.6085	0.795
12.6423	0.794
12.676	0.792
12.7098	0.787
12.7436	0.785
12.7774	0.787
12.8112	0.785
12.845	0.787
12.8787	0.784
12.9125	0.78
12.9463	0.784
12.9801	0.784
13.0139	0.78
13.0477	0.78
13.0815	0.78
13.1152	0.78
13.149	0.782
13.1828	0.782
13.2166	0.784
13.2504	0.784
13.2842	0.782
13.3179	0.78
13.3517	0.78
13.3855	0.78
13.4193	0.78
13.4531	0.78
13.4869	0.78
13.5206	0.78
13.5544	0.777
13.5882	0.777
13.622	0.777
13.6558	0.775
13.6896	0.775
13.7234	0.773
13.7571	0.77
13.7909	0.768
13.8247	0.767
13.8585	0.767
13.8923	0.765
13.9261	0.765
13.9598	0.767
13.9936	0.768
14.0274	0.77
14.0612	0.773
14.095	0.775
14.1288	0.778
14.1626	0.78
14.1963	0.782
14.2301	0.784
14.2639	0.787
14.2977	0.789
14.3315	0.787
14.3653	0.787
14.399	0.789
14.4328	0.79
14.4666	0.79
14.5004	0.79
14.5342	0.79
14.568	0.789
14.6017	0.79
14.6355	0.792
14.6693	0.787
14.7031	0.79
14.7369	0.79
14.7707	0.79
14.8045	0.789
14.8382	0.787
14.872	0.789
14.9058	0.785
14.9396	0.784
14.9734	0.782
15.0072	0.78
15.0409	0.778
15.0747	0.775
15.1085	0.767
15.1423	0.758
15.1761	0.736
15.2099	0.705
15.2436	0.63
15.2774	0.581
15.3112	0.554
15.345	0.537
