Infrared Spectrum: 1,5-Dimethylhexylamine
Formula: C 8 H 19 N
CAS: 543-82-8
State: gas
Origin: EPA-IR VAPOR PHASE LIBRARY
1/CM	ABSORBANCE
501.5	0.00543
513.074	0.00559
524.648	0.00571
536.222	0.00534
547.796	0.00522
559.37	0.00575
570.944	0.00625
582.518	0.00671
594.092	0.00682
605.666	0.0065
617.24	0.00644
628.814	0.00683
640.388	0.0075
651.962	0.00825
663.536	0.00918
675.11	0.0103
686.684	0.01148
698.258	0.01326
709.832	0.01583
721.406	0.01969
732.98	0.02474
744.554	0.03029
756.128	0.03822
767.702	0.04989
779.276	0.06037
790.85	0.05672
802.423	0.04355
813.997	0.03268
825.571	0.02519
837.145	0.01978
848.719	0.01594
860.293	0.01307
871.867	0.00999
883.441	0.00787
895.015	0.00684
906.589	0.00684
918.163	0.00725
929.737	0.00695
941.311	0.00654
952.885	0.00646
964.459	0.00693
976.033	0.00742
987.607	0.00669
999.181	0.00575
1010.76	0.00564
1022.33	0.00602
1033.9	0.0067
1045.48	0.00762
1057.05	0.00819
1068.63	0.00856
1080.2	0.00878
1091.77	0.00887
1103.35	0.00913
1114.92	0.01038
1126.49	0.01313
1138.07	0.017
1149.64	0.02008
1161.22	0.01966
1172.79	0.01484
1184.36	0.00972
1195.94	0.00845
1207.51	0.00798
1219.09	0.00783
1230.66	0.00754
1242.23	0.00712
1253.81	0.00647
1265.38	0.00638
1276.96	0.00716
1288.53	0.00782
1300.1	0.00884
1311.68	0.01085
1323.25	0.01452
1334.83	0.01952
1346.4	0.02279
1357.97	0.02893
1369.55	0.0406
1381.12	0.04573
1392.7	0.03252
1404.27	0.01502
1415.84	0.01037
1427.42	0.01136
1438.99	0.01746
1450.57	0.0283
1462.14	0.03757
1473.71	0.03271
1485.29	0.01835
1496.86	0.01
1508.44	0.0068
1520.01	0.00537
1531.58	0.00472
1543.16	0.00458
1554.73	0.00485
1566.31	0.00562
1577.88	0.0071
1589.45	0.00974
1601.03	0.01454
1612.6	0.02098
1624.18	0.0223
1635.75	0.01558
1647.32	0.00906
1658.9	0.00566
1670.47	0.00397
1682.05	0.00308
1693.62	0.00258
1705.19	0.00222
1716.77	0.00196
1728.34	0.0017
1739.92	0.00153
1751.49	0.00139
1763.06	0.00133
1774.64	0.00122
1786.21	0.00118
1797.79	0.00118
1809.36	0.00115
1820.93	0.00112
1832.51	0.00105
1844.08	0.00101
1855.66	0.0009886
1867.23	0.0008968
1878.8	0.0008319
1890.38	0.0007673
1901.95	0.0006959
1913.53	0.0006198
1925.1	0.0005843
1936.67	0.0005305
1948.25	0.0004611
1959.82	0.0004447
1971.4	0.0004215
1982.97	0.0004074
1994.54	0.0004038
2006.12	0.0004579
2017.69	0.0004409
2029.27	0.0004814
2040.84	0.0004928
2052.41	0.0004621
2063.99	0.0004111
2075.56	0.0003957
2087.14	0.0004171
2098.71	0.0004284
2110.28	0.0004316
2121.86	0.0004462
2133.43	0.0004438
2145.01	0.0004712
2156.58	0.0005282
2168.15	0.0005867
2179.73	0.0005889
2191.3	0.0005852
2202.88	0.0005314
2214.45	0.0005079
2226.02	0.0005369
2237.6	0.0005335
2249.17	0.0005472
2260.74	0.000592
2272.32	0.0006547
2283.89	0.0007401
2295.47	0.000767
2307.04	0.0007806
2318.61	0.0007537
2330.19	0.0007237
2341.76	0.0007113
2353.34	0.0007512
2364.91	0.0007966
2376.48	0.0009307
2388.06	0.0009738
2399.63	0.0009298
2411.21	0.0009486
2422.78	0.0009742
2434.35	0.0009709
2445.93	0.0009399
2457.5	0.0009116
2469.08	0.0009437
2480.65	0.00102
2492.22	0.00108
2503.8	0.0012
2515.37	0.00132
2526.95	0.00139
2538.52	0.0016
2550.09	0.00178
2561.67	0.00207
2573.24	0.00248
2584.82	0.003
2596.39	0.00347
2607.96	0.00385
2619.54	0.00418
2631.11	0.00446
2642.69	0.00465
2654.26	0.00479
2665.83	0.00487
2677.41	0.0049
2688.98	0.00502
2700.56	0.00542
2712.13	0.0061
2723.7	0.00733
2735.28	0.00793
2746.85	0.00764
2758.43	0.00757
2770	0.00816
2781.57	0.00925
2793.15	0.01137
2804.72	0.01477
2816.3	0.02007
2827.87	0.02896
2839.44	0.04676
2851.02	0.07379
2862.59	0.09538
2874.17	0.11896
2885.74	0.13012
2897.31	0.1425
2908.89	0.18045
2920.46	0.21456
2932.04	0.23995
2943.61	0.22912
2955.18	0.25923
2966.76	0.29276
2978.33	0.15366
2989.91	0.05686
3001.48	0.02555
3013.05	0.01512
3024.63	0.01055
3036.2	0.00833
3047.78	0.00723
3059.35	0.00647
3070.92	0.00609
3082.5	0.00569
3094.07	0.00531
3105.65	0.00477
3117.22	0.00434
3128.79	0.00409
3140.37	0.00398
3151.94	0.00404
3163.52	0.0041
3175.09	0.00411
3186.66	0.00402
3198.24	0.00361
3209.81	0.00291
3221.39	0.00222
3232.96	0.00163
3244.53	0.00127
3256.11	0.00119
3267.68	0.00111
3279.26	0.00117
3290.83	0.00118
3302.4	0.00135
3313.98	0.00202
3325.55	0.00329
3337.13	0.00357
3348.7	0.00283
3360.27	0.00189
3371.85	0.0014
3383.42	0.00129
3395	0.00111
3406.57	0.00106
3418.14	0.0008316
3429.72	0.0007513
3441.29	0.0006188
3452.86	0.0004341
3464.44	0.0003964
3476.01	0.0003576
3487.59	0.000347
3499.16	0.0003306
3510.73	0.0002527
3522.31	0.0002386
3533.88	0.0002465
3545.46	0.0002996
3557.03	0.0002227
3568.6	0.0001447
3580.18	0.000237
3591.75	0.0002414
3603.33	0.0002586
3614.9	0.0003649
3626.47	0.0003988
3638.05	0.0004722
3649.62	0.0003461
3661.2	0.0003968
3672.77	0.0003156
3684.34	0.0003681
3695.92	0.0004769
3707.49	0.0004897
3719.07	0.0004511
3730.64	0.000496
3742.21	0.0005459
3753.79	0.0005796
3765.36	0.0005966
3776.94	0.0006335
3788.51	0.0006508
3800.08	0.0007093
3811.66	0.0008083
3823.23	0.0008915
3834.81	0.0009154
3846.38	0.0008434
3857.95	0.0008465
3869.53	0.0008082
3881.1	0.0008791
3892.68	0.000785
3904.25	0.0007674
3915.82	0.00082
3927.4	0.0007748
3938.97	0.0006404
3950.55	0.0006568
3962.12	0.0008131
3973.69	0.0007864
3985.27	0.0008076
3996.84	0.0009455
