Infrared Spectrum: 3-METHYL-1-NONYNE-3-OL
Formula: C10 H18 O
CAS: 5430-01-3
Class: COBLENTZ
Instrument: Not specified, most likely a prism, grating, or hybrid spectrometer.
Sampling: TRANSMISSION
Path length: SMEAR
Resolution: 4
Origin: TENNESSEE EASTMAN COMPANY, RESEARCH LABORATORIES
MICROMETERS	TRANSMITTANCE
2.041	0.96
2.08188	0.96
2.12275	0.958
2.16363	0.958
2.20451	0.962
2.24538	0.948
2.28626	0.887
2.32714	0.873
2.36801	0.878
2.40889	0.887
2.44976	0.885
2.49064	0.888
2.53152	0.89
2.57239	0.885
2.61327	0.9
2.65415	0.911
2.69502	0.917
2.7359	0.878
2.77678	0.61
2.81765	0.442
2.85853	0.299
2.89941	0.14
2.94028	0.083
2.98116	0.078
3.02204	0.058
3.06291	0.095
3.10379	0.288
3.14466	0.519
3.18554	0.685
3.22642	0.758
3.26729	0.791
3.30817	0.757
3.34905	0.275
3.38992	0.017
3.4308	0.061
3.47168	0.066
3.51255	0.324
3.55343	0.647
3.59431	0.731
3.63518	0.767
3.67606	0.772
3.71694	0.8
3.75781	0.808
3.79869	0.813
3.83956	0.832
3.88044	0.839
3.92132	0.847
3.96219	0.856
4.00307	0.859
4.04395	0.863
4.08482	0.871
4.1257	0.882
4.16658	0.887
4.20745	0.892
4.24833	0.899
4.28921	0.897
4.33008	0.892
4.37096	0.892
4.41183	0.899
4.45271	0.902
4.49359	0.905
4.53446	0.909
4.57534	0.909
4.61622	0.909
4.65709	0.907
4.69797	0.863
4.73885	0.864
4.77972	0.895
4.8206	0.904
4.86148	0.907
4.90235	0.907
4.94323	0.907
4.98411	0.909
5.02498	0.919
5.06586	0.916
5.10673	0.916
5.14761	0.916
5.18849	0.916
5.22936	0.916
5.27024	0.916
5.31112	0.914
5.35199	0.914
5.39287	0.914
5.43375	0.914
5.47462	0.914
5.5155	0.912
5.55638	0.912
5.59725	0.912
5.63813	0.909
5.67901	0.9
5.71988	0.897
5.76076	0.875
5.80163	0.859
5.84251	0.842
5.88339	0.842
5.92426	0.852
5.96514	0.858
6.00602	0.849
6.04689	0.849
6.08777	0.839
6.12865	0.839
6.16952	0.839
6.2104	0.844
6.25128	0.856
6.29215	0.859
6.33303	0.861
6.37391	0.858
6.41478	0.849
6.45566	0.846
6.49653	0.83
6.53741	0.834
6.57829	0.82
6.61916	0.806
6.66004	0.794
6.70092	0.769
6.74179	0.697
6.78267	0.447
6.82355	0.213
6.86442	0.259
6.9053	0.391
6.94618	0.512
6.98705	0.576
7.02793	0.589
7.06881	0.552
7.10968	0.505
7.15056	0.468
7.19143	0.43
7.23231	0.319
7.27319	0.203
7.31406	0.198
7.35494	0.29
7.39582	0.35
7.43669	0.369
7.47757	0.37
7.51845	0.388
7.55932	0.417
7.6002	0.429
7.64108	0.411
7.68195	0.406
7.72283	0.43
7.76371	0.459
7.80458	0.463
7.84546	0.459
7.88633	0.459
7.92721	0.435
7.96809	0.447
8.00896	0.504
8.04984	0.533
8.09072	0.514
8.13159	0.468
8.17247	0.517
8.21335	0.526
8.25422	0.466
8.2951	0.444
8.33598	0.441
8.37685	0.48
8.41773	0.497
8.4586	0.464
8.49948	0.394
8.54036	0.326
8.58123	0.283
8.62211	0.259
8.66299	0.251
8.70386	0.246
8.74474	0.234
8.78562	0.21
8.82649	0.184
8.86737	0.217
8.90825	0.3
8.94912	0.384
8.99	0.437
9.03088	0.408
9.07175	0.304
9.11263	0.287
9.1535	0.379
9.19438	0.441
9.23526	0.452
9.27613	0.444
9.31701	0.403
9.35789	0.328
9.39876	0.278
9.43964	0.305
9.48052	0.36
9.52139	0.389
9.56227	0.415
9.60315	0.464
9.64402	0.548
9.6849	0.62
9.72578	0.622
9.76665	0.574
9.80753	0.555
9.8484	0.598
9.88928	0.649
9.93016	0.663
9.97103	0.663
10.0119	0.659
10.0528	0.647
10.0937	0.632
10.1345	0.62
10.1754	0.625
10.2163	0.635
10.2572	0.644
10.298	0.659
10.3389	0.695
10.3798	0.721
10.4207	0.721
10.4616	0.673
10.5024	0.623
10.5433	0.574
10.5842	0.519
10.6251	0.464
10.6659	0.461
10.7068	0.454
10.7477	0.418
10.7886	0.393
10.8294	0.377
10.8703	0.345
10.9112	0.365
10.9521	0.447
10.9929	0.49
11.0338	0.519
11.0747	0.565
11.1156	0.603
11.1565	0.641
11.1973	0.673
11.2382	0.694
11.2791	0.712
11.32	0.714
11.3608	0.699
11.4017	0.663
11.4426	0.647
11.4835	0.673
11.5243	0.721
11.5652	0.753
11.6061	0.774
11.647	0.794
11.6878	0.806
11.7287	0.813
11.7696	0.818
11.8105	0.82
11.8514	0.823
11.8922	0.827
11.9331	0.829
11.974	0.83
12.0149	0.832
12.0557	0.832
12.0966	0.83
12.1375	0.83
12.1784	0.83
12.2192	0.827
12.2601	0.822
12.301	0.817
12.3419	0.808
12.3827	0.805
12.4236	0.803
12.4645	0.801
12.5054	0.796
12.5463	0.789
12.5871	0.784
12.628	0.781
12.6689	0.777
12.7098	0.777
12.7506	0.777
12.7915	0.777
12.8324	0.774
12.8733	0.77
12.9141	0.764
12.955	0.753
12.9959	0.743
13.0368	0.735
13.0776	0.726
13.1185	0.717
13.1594	0.712
13.2003	0.709
13.2412	0.702
13.282	0.697
13.3229	0.685
13.3638	0.671
13.4047	0.663
13.4455	0.651
13.4864	0.642
13.5273	0.63
13.5682	0.608
13.609	0.584
13.6499	0.562
13.6908	0.54
13.7317	0.521
13.7725	0.507
13.8134	0.505
13.8543	0.507
13.8952	0.516
13.9361	0.523
13.9769	0.531
14.0178	0.538
14.0587	0.545
14.0996	0.547
14.1404	0.548
14.1813	0.548
14.2222	0.548
14.2631	0.545
14.3039	0.538
14.3448	0.533
14.3857	0.526
14.4266	0.517
14.4674	0.507
14.5083	0.497
14.5492	0.483
14.5901	0.475
14.631	0.461
14.6718	0.451
14.7127	0.437
14.7536	0.429
14.7945	0.415
14.8353	0.401
14.8762	0.391
14.9171	0.377
14.958	0.37
14.9988	0.365
15.0397	0.348
15.0806	0.326
15.1215	0.307
15.1623	0.295
15.2032	0.287
15.2441	0.28
15.285	0.276
15.3259	0.276
15.3667	0.278
15.4076	0.28
15.4485	0.288
15.4894	0.297
15.5302	0.311
15.5711	0.317
15.612	0.326
15.6529	0.336
15.6937	0.347
15.7346	0.35
15.7755	0.357
15.8164	0.36
15.8572	0.365
15.8981	0.37
15.939	0.377
15.9799	0.382
