Infrared Spectrum: 2,6-PYRIDINE DIALDEHYDE
Formula: C7 H5 N O2
CAS: 5431-44-7
State: SOLID (MINERAL OIL MULL)
Class: COBLENTZ
Instrument: Not specified, most likely a prism, grating, or hybrid spectrometer.
Sampling: TRANSMISSION
Resolution: 4
Origin: DOW CHEMICAL COMPANY
MICROMETERS	TRANSMITTANCE
2.048	0.487
2.089	0.497
2.12999	0.507
2.17099	0.517
2.21198	0.531
2.25298	0.541
2.29398	0.546
2.33497	0.557
2.37597	0.565
2.41696	0.574
2.45796	0.58
2.49896	0.584
2.53995	0.589
2.58095	0.596
2.62194	0.609
2.66294	0.614
2.70394	0.626
2.74493	0.633
2.78593	0.647
2.82693	0.652
2.86792	0.657
2.90892	0.66
2.94991	0.654
2.99091	0.671
3.03191	0.676
3.0729	0.681
3.1139	0.681
3.15489	0.676
3.19589	0.666
3.23689	0.597
3.27788	0.596
3.31888	0.586
3.35987	0.441
3.40087	0.197
3.44187	0.321
3.48286	0.34
3.52386	0.666
3.56485	0.712
3.60585	0.725
3.64685	0.729
3.68784	0.724
3.72884	0.734
3.76983	0.742
3.81083	0.746
3.85183	0.752
3.89282	0.758
3.93382	0.763
3.97481	0.768
4.01581	0.766
4.05681	0.771
4.0978	0.775
4.1388	0.775
4.17979	0.768
4.22079	0.775
4.26179	0.78
4.30278	0.788
4.34378	0.787
4.38478	0.793
4.42577	0.797
4.46677	0.798
4.50776	0.8
4.54876	0.802
4.58976	0.804
4.63075	0.805
4.67175	0.809
4.71274	0.812
4.75374	0.816
4.79474	0.816
4.83573	0.821
4.87673	0.822
4.91772	0.81
4.95872	0.824
4.99972	0.821
5.04071	0.829
5.08171	0.827
5.1227	0.829
5.1637	0.839
5.2047	0.846
5.24569	0.848
5.28669	0.844
5.32768	0.841
5.36868	0.858
5.40968	0.858
5.45067	0.862
5.49167	0.87
5.53266	0.872
5.57366	0.879
5.61466	0.87
5.65565	0.833
5.69665	0.754
5.73765	0.679
5.77864	0.383
5.81964	0.189
5.86063	0.337
5.90163	0.371
5.94263	0.471
5.98362	0.574
6.02462	0.626
6.06561	0.7
6.10661	0.722
6.14761	0.73
6.1886	0.752
6.2296	0.759
6.27059	0.744
6.31159	0.724
6.35259	0.77
6.39358	0.775
6.43458	0.788
6.47557	0.792
6.51657	0.798
6.55757	0.8
6.59856	0.802
6.63956	0.807
6.68055	0.802
6.72155	0.783
6.76255	0.717
6.80354	0.616
6.84454	0.599
6.88553	0.681
6.92653	0.749
6.96753	0.798
7.00852	0.814
7.04952	0.821
7.09052	0.817
7.13151	0.819
7.17251	0.8
7.2135	0.737
7.2545	0.725
7.2955	0.763
7.33649	0.78
7.37749	0.597
7.41848	0.8
7.45948	0.834
7.50048	0.839
7.54147	0.829
7.58247	0.824
7.62346	0.797
7.66446	0.773
7.70546	0.829
7.74645	0.838
7.78745	0.839
7.82844	0.798
7.86944	0.691
7.91044	0.522
7.95143	0.744
7.99243	0.812
8.03342	0.844
8.07442	0.839
8.11542	0.821
8.15641	0.826
8.19741	0.739
8.2384	0.541
8.2794	0.647
8.3204	0.802
8.36139	0.833
8.40239	0.843
8.44338	0.851
8.48438	0.853
8.52538	0.822
8.56637	0.792
8.60737	0.834
8.64837	0.858
8.68936	0.868
8.73036	0.872
8.77135	0.875
8.81235	0.88
8.85335	0.88
8.89434	0.884
8.93534	0.885
8.97633	0.884
9.01733	0.885
9.05833	0.887
9.09932	0.889
9.14032	0.873
9.18131	0.816
9.22231	0.826
9.26331	0.877
9.3043	0.88
9.3453	0.88
9.38629	0.88
9.42729	0.882
9.46829	0.882
9.50928	0.884
9.55028	0.887
9.59127	0.89
9.63227	0.892
9.67327	0.894
9.71426	0.896
9.75526	0.897
9.79625	0.894
9.83725	0.899
9.87825	0.901
9.91924	0.902
9.96024	0.896
10.0012	0.843
10.0422	0.734
10.0832	0.637
10.1242	0.848
10.1652	0.88
10.2062	0.897
10.2472	0.904
10.2882	0.908
10.3292	0.909
10.3702	0.913
10.4112	0.914
10.4522	0.916
10.4932	0.916
10.5342	0.918
10.5752	0.916
10.6162	0.916
10.6572	0.913
10.6982	0.913
10.7392	0.916
10.7802	0.914
10.8212	0.899
10.8622	0.853
10.9031	0.756
10.9441	0.557
10.9851	0.465
11.0261	0.623
11.0671	0.727
11.1081	0.761
11.1491	0.763
11.1901	0.759
11.2311	0.778
11.2721	0.805
11.3131	0.838
11.3541	0.862
11.3951	0.875
11.4361	0.887
11.4771	0.892
11.5181	0.897
11.5591	0.901
11.6001	0.906
11.6411	0.902
11.6821	0.906
11.7231	0.908
11.7641	0.908
11.8051	0.906
11.8461	0.897
11.8871	0.894
11.928	0.896
11.969	0.899
12.01	0.901
12.051	0.902
12.092	0.902
12.133	0.897
12.174	0.89
12.215	0.875
12.256	0.843
12.297	0.785
12.338	0.7
12.379	0.548
12.42	0.442
12.461	0.504
12.502	0.701
12.543	0.778
12.584	0.776
12.625	0.695
12.666	0.616
12.707	0.534
12.748	0.565
12.789	0.73
12.83	0.826
12.871	0.879
12.912	0.897
12.953	0.906
12.9939	0.916
13.0349	0.925
13.0759	0.931
13.1169	0.933
13.1579	0.936
13.1989	0.938
13.2399	0.94
13.2809	0.942
13.3219	0.943
13.3629	0.947
13.4039	0.947
13.4449	0.947
13.4859	0.947
13.5269	0.947
13.5679	0.947
13.6089	0.945
13.6499	0.943
13.6909	0.933
13.7319	0.909
13.7729	0.879
13.8139	0.88
13.8549	0.908
13.8959	0.945
13.9369	0.952
13.9779	0.957
14.0188	0.959
14.0598	0.938
14.1008	0.899
14.1418	0.834
14.1828	0.735
14.2238	0.586
14.2648	0.504
14.3058	0.487
14.3468	0.56
14.3878	0.695
14.4288	0.776
14.4698	0.827
14.5108	0.862
14.5518	0.88
14.5928	0.892
14.6338	0.902
14.6748	0.906
14.7158	0.916
14.7568	0.918
14.7978	0.923
14.8388	0.926
14.8798	0.926
14.9208	0.925
14.9618	0.925
15.0028	0.93
15.0438	0.936
15.0847	0.94
15.1257	0.94
15.1667	0.942
15.2077	0.943
15.2487	0.942
15.2897	0.942
15.3307	0.94
15.3717	0.936
15.4127	0.938
15.4537	0.933
15.4947	0.928
15.5357	0.926
15.5767	0.925
15.6177	0.921
15.6587	0.918
15.6997	0.914
15.7407	0.911
15.7817	0.906
15.8227	0.901
15.8637	0.901
15.9047	0.902
