Infrared Spectrum: 4-Isopropylcyclohexanone
Formula: C 9 H 16 O
CAS: 5432-85-9
State: gas
Origin: EPA-IR VAPOR PHASE LIBRARY
1/CM	ABSORBANCE
501.5	0.003408
513.074	0.003278
524.648	0.001558
536.222	0.0005659
547.796	0.0004936
559.37	0.0003981
570.944	0.0002759
582.518	0.000158
594.092	8.3e-05
605.666	0.00022065
617.24	0.00026569
628.814	1.7e-05
640.388	2.4e-05
651.962	0.000216202
663.536	0.0005163
675.11	0.0007494
686.684	0.0003941
698.258	0.00028212
709.832	0.0004513
721.406	0.0011491
732.98	0.002368
744.554	0.003068
756.128	0.002108
767.702	0.0009938
779.276	0.0006462
790.85	0.0009116
802.423	0.001288
813.997	0.001208
825.571	0.0011635
837.145	0.0009767
848.719	0.0009711
860.293	0.0011536
871.867	0.0009974
883.441	0.0011786
895.015	0.001468
906.589	0.001708
918.163	0.002878
929.737	0.005778
941.311	0.007038
952.885	0.004468
964.459	0.002598
976.033	0.002548
987.607	0.002798
999.181	0.002828
1010.76	0.001808
1022.33	0.001288
1033.9	0.001438
1045.48	0.002298
1057.05	0.003478
1068.63	0.003598
1080.2	0.002928
1091.77	0.002548
1103.35	0.003488
1114.92	0.005838
1126.49	0.007478
1138.07	0.006328
1149.64	0.006208
1161.22	0.012408
1172.79	0.017738
1184.36	0.012258
1195.94	0.006198
1207.51	0.004668
1219.09	0.004698
1230.66	0.006338
1242.23	0.007728
1253.81	0.005608
1265.38	0.003248
1276.96	0.002788
1288.53	0.003108
1300.1	0.004948
1311.68	0.008488
1323.25	0.010988
1334.83	0.009878
1346.4	0.006988
1357.97	0.005838
1369.55	0.007898
1381.12	0.010568
1392.7	0.010728
1404.27	0.007118
1415.84	0.009338
1427.42	0.013408
1438.99	0.013558
1450.57	0.012608
1462.14	0.014308
1473.71	0.012318
1485.29	0.007118
1496.86	0.003458
1508.44	0.001988
1520.01	0.001428
1531.58	0.0011921
1543.16	0.0010287
1554.73	0.0009117
1566.31	0.0009286
1577.88	0.0010563
1589.45	0.0011576
1601.03	0.0011129
1612.6	0.0011666
1624.18	0.001358
1635.75	0.001868
1647.32	0.002778
1658.9	0.004128
1670.47	0.005508
1682.05	0.007378
1693.62	0.010548
1705.19	0.016038
1716.77	0.042348
1728.34	0.126688
1739.92	0.123748
1751.49	0.036218
1763.06	0.013448
1774.64	0.006578
1786.21	0.004638
1797.79	0.003728
1809.36	0.002818
1820.93	0.002058
1832.51	0.001378
1844.08	0.0009871
1855.66	0.0008292
1867.23	0.0007516
1878.8	0.0007277
1890.38	0.00067
1901.95	0.0006216
1913.53	0.0006536
1925.1	0.0006938
1936.67	0.000533
1948.25	0.0004495
1959.82	0.0004804
1971.4	0.0004951
1982.97	0.0005341
1994.54	0.0005336
2006.12	0.0004748
2017.69	0.0004345
2029.27	0.000429
2040.84	0.0004633
2052.41	0.0005208
2063.99	0.0005909
2075.56	0.0005616
2087.14	0.0004662
2098.71	0.0004073
2110.28	0.0003681
2121.86	0.000372
2133.43	0.0004134
2145.01	0.000453
2156.58	0.0005063
2168.15	0.0005202
2179.73	0.0005563
2191.3	0.0005534
2202.88	0.0004954
2214.45	0.0004894
2226.02	0.0005161
2237.6	0.0005501
2249.17	0.0005341
2260.74	0.0004932
2272.32	0.0004913
2283.89	0.0005054
2295.47	0.0005193
2307.04	0.0005224
2318.61	0.0004978
2330.19	0.0004764
2341.76	0.0004988
2353.34	0.0005147
2364.91	0.000493
2376.48	0.0005658
2388.06	0.0006376
2399.63	0.0006519
2411.21	0.0006057
2422.78	0.0005441
2434.35	0.0005458
2445.93	0.0006119
2457.5	0.0005786
2469.08	0.0005644
2480.65	0.0005541
2492.22	0.0005565
2503.8	0.000553
2515.37	0.0005379
2526.95	0.0005587
2538.52	0.0006118
2550.09	0.0007003
2561.67	0.0008127
2573.24	0.0009416
2584.82	0.0010909
2596.39	0.001218
2607.96	0.001398
2619.54	0.001458
2631.11	0.001418
2642.69	0.001528
2654.26	0.001528
2665.83	0.001488
2677.41	0.001508
2688.98	0.001558
2700.56	0.001618
2712.13	0.001698
2723.7	0.001928
2735.28	0.002218
2746.85	0.002228
2758.43	0.002148
2770	0.002288
2781.57	0.002548
2793.15	0.002918
2804.72	0.003578
2816.3	0.004778
2827.87	0.007188
2839.44	0.010878
2851.02	0.017638
2862.59	0.031558
2874.17	0.048338
2885.74	0.053238
2897.31	0.046658
2908.89	0.044848
2920.46	0.051018
2932.04	0.068658
2943.61	0.079458
2955.18	0.094328
2966.76	0.117178
2978.33	0.079068
2989.91	0.029988
3001.48	0.010888
3013.05	0.005938
3024.63	0.004418
3036.2	0.003588
3047.78	0.002888
3059.35	0.002518
3070.92	0.002278
3082.5	0.002118
3094.07	0.001998
3105.65	0.001878
3117.22	0.001758
3128.79	0.001628
3140.37	0.001488
3151.94	0.001418
3163.52	0.001368
3175.09	0.001338
3186.66	0.001238
3198.24	0.0010982
3209.81	0.0009321
3221.39	0.000779
3232.96	0.0006675
3244.53	0.0005671
3256.11	0.0005112
3267.68	0.0005104
3279.26	0.0004528
3290.83	0.0004761
3302.4	0.0005037
3313.98	0.0004743
3325.55	0.0005039
3337.13	0.0004754
3348.7	0.0005644
3360.27	0.0005552
3371.85	0.0006404
3383.42	0.0007444
3395	0.000805
3406.57	0.0007739
3418.14	0.0009529
3429.72	0.001348
3441.29	0.002208
3452.86	0.002618
3464.44	0.001688
3476.01	0.000991
3487.59	0.0006587
3499.16	0.0005495
3510.73	0.0004008
3522.31	0.0003093
3533.88	0.00028635
3545.46	0.00028446
3557.03	0.00027502
3568.6	0.00027687
3580.18	0.00027499
3591.75	0.0002983
3603.33	0.0003384
3614.9	0.0003433
3626.47	0.0003801
3638.05	0.000447
3649.62	0.0004167
3661.2	0.0003788
3672.77	0.0003546
3684.34	0.000329
3695.92	0.0003922
3707.49	0.0003188
3719.07	0.0003564
3730.64	0.0004218
3742.21	0.0003513
3753.79	0.0003356
3765.36	0.0003553
3776.94	0.000432
3788.51	0.0004334
3800.08	0.0004931
3811.66	0.0005067
3823.23	0.0005156
3834.81	0.0004235
3846.38	0.0004424
3857.95	0.0005108
3869.53	0.000484
3881.1	0.0004971
3892.68	0.0005382
3904.25	0.0005307
3915.82	0.0005427
3927.4	0.0005093
3938.97	0.0005886
3950.55	0.0005806
3962.12	0.000593
3973.69	0.0005462
3985.27	0.0006138
3996.84	0.0005838
