Infrared Spectrum: PURINE, 2-BUTYLAMINO-6-METHYLAMINO
Formula: C10 H16 N6
CAS: 5434-24-2
State: SOLID (0.4 mg / 650 mg KBr DISC)
Class: COBLENTZ III
Instrument: PERKIN-ELMER 21 (GRATING)
Instrument parameters: FILTER CHANGE AT 1070 CM^-^1
Sampling: TRANSMISSION
Resolution: 2
Origin: SOUTHERN RESEARCH INSTITUTE
1/CM	TRANSMITTANCE
625.054	0.876
634.028	0.937
643.003	0.9713
651.977	0.9542
660.951	0.945
669.926	0.946
678.9	0.9428
687.875	0.9076
696.849	0.8912
705.823	0.884
714.798	0.8758
723.772	0.8617
732.746	0.8089
741.721	0.7061
750.695	0.7689
759.669	0.771
768.644	0.769
777.618	0.7506
786.593	0.5975
795.567	0.772
804.541	0.753
813.516	0.7447
822.49	0.6993
831.464	0.6877
840.439	0.6846
849.413	0.6971
858.387	0.7553
867.362	0.771
876.336	0.772
885.311	0.772
894.285	0.7693
903.259	0.7626
912.234	0.7456
921.208	0.7163
930.182	0.6237
939.157	0.656
948.131	0.798
957.106	0.797
966.08	0.7917
975.054	0.7838
984.029	0.776
993.003	0.769
1001.98	0.7609
1010.95	0.7642
1019.93	0.756
1028.9	0.756
1037.87	0.753
1046.85	0.753
1055.82	0.7526
1064.8	0.751
1073.77	0.7437
1082.75	0.7173
1091.72	0.6479
1100.7	0.6864
1109.67	0.729
1118.64	0.684
1127.62	0.6231
1136.59	0.7144
1145.57	0.7289
1154.54	0.7257
1163.52	0.6694
1172.49	0.7022
1181.46	0.7493
1190.44	0.744
1199.41	0.7364
1208.39	0.7247
1217.36	0.6946
1226.34	0.6818
1235.31	0.7
1244.29	0.679
1253.26	0.6294
1262.23	0.5871
1271.21	0.6258
1280.18	0.557
1289.16	0.6663
1298.13	0.6611
1307.11	0.6161
1316.08	0.5283
1325.05	0.655
1334.03	0.641
1343	0.6139
1351.98	0.5566
1360.95	0.5111
1369.93	0.4504
1378.9	0.5596
1387.88	0.4941
1396.85	0.4583
1405.82	0.638
1414.8	0.6222
1423.77	0.5869
1432.75	0.5307
1441.72	0.536
1450.7	0.4951
1459.67	0.4505
1468.64	0.3735
1477.62	0.2812
1486.59	0.329
1495.57	0.4603
1504.54	0.4779
1513.52	0.554
1522.49	0.5751
1531.46	0.625
1540.44	0.6243
1549.41	0.6018
1558.39	0.5777
1567.36	0.5936
1576.34	0.5434
1585.31	0.466
1594.29	0.378
1603.26	0.1905
1612.23	0.169
1621.21	0.1896
1630.18	0.2413
1639.16	0.4044
1648.13	0.5377
1657.11	0.6367
1666.08	0.6993
1675.05	0.7562
1684.03	0.7843
1693	0.8074
1701.98	0.8231
1710.95	0.825
1719.93	0.8404
1728.9	0.849
1737.88	0.8527
1746.85	0.862
1755.82	0.864
1764.8	0.864
1773.77	0.867
1782.75	0.867
1791.72	0.868
1800.7	0.871
1809.67	0.871
1818.64	0.869
1827.62	0.868
1836.59	0.867
1845.57	0.864
1854.54	0.864
1863.52	0.859
1872.49	0.857
1881.47	0.854
1890.44	0.852
1899.41	0.852
1908.39	0.85
1917.36	0.85
1926.34	0.848
1935.31	0.846
1944.29	0.844
1953.26	0.8411
1962.23	0.84
1971.21	0.8382
1980.18	0.835
1989.16	0.835
1998.13	0.835
2007.11	0.834
2016.08	0.832
2025.05	0.83
2034.03	0.8279
2043	0.8255
2051.98	0.8225
2060.95	0.822
2069.93	0.8189
2078.9	0.818
2087.88	0.816
2096.85	0.815
2105.82	0.813
2114.8	0.8125
2123.77	0.811
2132.75	0.809
2141.72	0.808
2150.7	0.808
2159.67	0.808
2168.64	0.808
2177.62	0.808
2186.59	0.804
2195.57	0.8025
2204.54	0.795
2213.52	0.795
2222.49	0.793
2231.47	0.793
2240.44	0.7925
2249.41	0.792
2258.39	0.79
2267.36	0.788
2276.34	0.786
2285.31	0.785
2294.29	0.7845
2303.26	0.7795
2312.23	0.7665
2321.21	0.7565
2330.18	0.752
2339.16	0.752
2348.13	0.752
2357.11	0.753
2366.08	0.755
2375.06	0.756
2384.03	0.7681
2393	0.767
2401.98	0.7615
2410.95	0.7591
2419.93	0.757
2428.9	0.753
2437.88	0.75
2446.85	0.7489
2455.82	0.744
2464.8	0.7415
2473.77	0.7375
2482.75	0.732
2491.72	0.73
2500.7	0.7311
2509.67	0.7275
2518.65	0.7199
2527.62	0.7119
2536.59	0.707
2545.57	0.706
2554.54	0.705
2563.52	0.7055
2572.49	0.7005
2581.47	0.6925
2590.44	0.691
2599.41	0.6889
2608.39	0.683
2617.36	0.6749
2626.34	0.669
2635.31	0.669
2644.29	0.669
2653.26	0.668
2662.23	0.6639
2671.21	0.654
2680.18	0.647
2689.16	0.6429
2698.13	0.637
2707.11	0.63
2716.08	0.621
2725.06	0.616
2734.03	0.616
2743	0.6135
2751.98	0.604
2760.95	0.5918
2769.93	0.5739
2778.9	0.566
2787.88	0.5579
2796.85	0.554
2805.82	0.553
2814.8	0.552
2823.77	0.551
2832.75	0.549
2841.72	0.5435
2850.7	0.531
2859.67	0.531
2868.65	0.5345
2877.62	0.5411
2886.59	0.551
2895.57	0.5459
2904.54	0.516
2913.52	0.512
2922.49	0.5131
2931.47	0.5236
2940.44	0.528
2949.41	0.529
2958.39	0.5305
2967.36	0.5546
2976.34	0.5671
2985.31	0.5781
2994.29	0.5831
3003.26	0.588
3012.24	0.5935
3021.21	0.598
3030.18	0.5939
3039.16	0.584
3048.13	0.5795
3057.11	0.568
3066.08	0.568
3075.06	0.5725
3084.03	0.5795
3093	0.5921
3101.98	0.596
3110.95	0.599
3119.93	0.599
3128.9	0.602
3137.88	0.602
3146.85	0.602
3155.83	0.602
3164.8	0.5969
3173.77	0.5889
3182.75	0.5779
3191.72	0.5665
3200.7	0.559
3209.67	0.558
3218.65	0.5575
3227.62	0.5525
3236.59	0.5445
3245.57	0.53
3254.54	0.5134
3263.52	0.5
3272.49	0.501
3281.47	0.5041
3290.44	0.5236
3299.41	0.5458
3308.39	0.5747
3317.36	0.6041
3326.34	0.6206
3335.31	0.631
3344.29	0.631
3353.26	0.632
3362.24	0.632
3371.21	0.6289
3380.18	0.6239
3389.16	0.6175
3398.13	0.6095
3407.11	0.6009
3416.08	0.5905
3425.06	0.5799
3434.03	0.5575
3443	0.5485
3451.98	0.5636
3460.95	0.5953
3469.93	0.6275
3478.9	0.6325
3487.88	0.64
3496.85	0.6445
3505.83	0.65
3514.8	0.6521
3523.77	0.654
3532.75	0.658
3541.72	0.6635
3550.7	0.6695
3559.67	0.6775
3568.65	0.686
3577.62	0.691
3586.59	0.7015
3595.57	0.7095
3604.54	0.7155
3613.52	0.719
3622.49	0.723
3631.47	0.727
3640.44	0.728
3649.42	0.7311
3658.39	0.733
3667.36	0.7309
3676.34	0.73
3685.31	0.73
3694.29	0.732
3703.26	0.732
3712.24	0.7325
3721.21	0.733
3730.18	0.73
3739.16	0.7285
3748.13	0.728
3757.11	0.728
3766.08	0.727
3775.06	0.727
3784.03	0.727
3793	0.727
3801.98	0.727
3810.95	0.725
3819.93	0.725
3828.9	0.725
3837.88	0.727
3846.85	0.727
3855.83	0.7245
3864.8	0.723
3873.77	0.723
3882.75	0.72
3891.72	0.72
3900.7	0.72
3909.67	0.72
3918.65	0.72
3927.62	0.72
3936.59	0.7185
3945.57	0.716
3954.54	0.715
3963.52	0.7155
3972.49	0.715
3981.47	0.715
3990.44	0.715
3999.42	0.714
4008.39	0.7135
4017.36	0.713
4026.34	0.713
4035.31	0.711
4044.29	0.709
4053.26	0.7029
4062.24	0.702
