Infrared Spectrum: Purine, 6-amino-2-Dimethylamino-
Formula: C7 H10 N6
CAS: 5434-23-1
State: SOLID (0.6 mg / 650 mg KBr DISC)
Class: COBLENTZ III
Instrument: PERKIN-ELMER 21 (GRATING)
Instrument parameters: FILTER CHANGE ABOUT 1075 CM^-^1
Sampling: TRANSMISSION
Resolution: 2
Origin: SOUTHERN RESEARCH INSTITUTE
1/CM	TRANSMITTANCE
613	0.6607
622.035	0.6631
631.069	0.7812
640.104	0.8936
649.138	0.8588
658.173	0.7754
667.207	0.7422
676.242	0.8454
685.276	0.8206
694.311	0.8179
703.345	0.8201
712.38	0.8182
721.415	0.8075
730.449	0.7421
739.484	0.5791
748.518	0.7162
757.553	0.7175
766.587	0.6983
775.622	0.671
784.656	0.4823
793.691	0.5488
802.725	0.6328
811.76	0.5902
820.795	0.5277
829.829	0.5309
838.864	0.6512
847.898	0.6932
856.933	0.7206
865.967	0.7216
875.002	0.7173
884.036	0.7025
893.071	0.6718
902.105	0.5862
911.14	0.6728
920.174	0.6307
929.209	0.4583
938.244	0.7248
947.278	0.7765
956.313	0.7694
965.347	0.7532
974.382	0.7303
983.416	0.6965
992.451	0.6519
1001.49	0.6183
1010.52	0.6647
1019.55	0.6889
1028.59	0.6857
1037.62	0.6676
1046.66	0.6257
1055.69	0.5976
1064.73	0.6954
1073.76	0.6464
1082.8	0.6832
1091.83	0.6804
1100.87	0.6726
1109.9	0.6372
1118.93	0.5562
1127.97	0.6781
1137	0.6681
1146.04	0.6608
1155.07	0.6967
1164.11	0.6994
1173.14	0.6944
1182.18	0.6864
1191.21	0.6767
1200.25	0.6621
1209.28	0.64
1218.31	0.6134
1227.35	0.5892
1236.38	0.5808
1245.42	0.5329
1254.45	0.503
1263.49	0.5336
1272.52	0.586
1281.56	0.5456
1290.59	0.4454
1299.63	0.3542
1308.66	0.5409
1317.69	0.5123
1326.73	0.4701
1335.76	0.4274
1344.8	0.4236
1353.83	0.4703
1362.87	0.4029
1371.9	0.3022
1380.94	0.1292
1389.97	0.1654
1399.01	0.4244
1408.04	0.4169
1417.07	0.3931
1426.11	0.3647
1435.14	0.5151
1444.18	0.5164
1453.21	0.5535
1462.25	0.5202
1471.28	0.4588
1480.32	0.3928
1489.35	0.3408
1498.39	0.3977
1507.42	0.3443
1516.45	0.2653
1525.49	0.1561
1534.52	0.1421
1543.56	0.2346
1552.59	0.3285
1561.63	0.3253
1570.66	0.2519
1579.7	0.1393
1588.73	0.1952
1597.77	0.3853
1606.8	0.3404
1615.83	0.1834
1624.87	0.0775
1633.9	0.091
1642.94	0.1675
1651.97	0.3155
1661.01	0.4065
1670.04	0.5553
1679.08	0.636
1688.11	0.6865
1697.15	0.7452
1706.18	0.7785
1715.21	0.7992
1724.25	0.8168
1733.28	0.837
1742.32	0.8449
1751.35	0.8537
1760.39	0.8578
1769.42	0.8662
1778.46	0.876
1787.49	0.8766
1796.53	0.879
1805.56	0.8818
1814.59	0.8794
1823.63	0.8759
1832.66	0.8734
1841.7	0.8715
1850.73	0.8691
1859.77	0.866
1868.8	0.8627
1877.84	0.8585
1886.87	0.8537
1895.91	0.8506
1904.94	0.8478
1913.97	0.8442
1923.01	0.8406
1932.04	0.8374
1941.08	0.8353
1950.11	0.8345
1959.15	0.8345
1968.18	0.8335
1977.22	0.8295
1986.25	0.8242
1995.29	0.8217
2004.32	0.8215
2013.35	0.8206
2022.39	0.8189
2031.42	0.8162
2040.46	0.8129
2049.49	0.8093
2058.53	0.8044
2067.56	0.8001
2076.6	0.7963
2085.63	0.7922
2094.67	0.7883
2103.7	0.7867
2112.73	0.7855
2121.77	0.7835
2130.8	0.7818
2139.84	0.7803
2148.87	0.7796
2157.91	0.7784
2166.94	0.7768
2175.98	0.7707
2185.01	0.7568
2194.05	0.7543
2203.08	0.7527
2212.11	0.7512
2221.15	0.7465
2230.18	0.7428
2239.22	0.7396
2248.25	0.737
2257.29	0.7351
2266.32	0.7327
2275.36	0.7298
2284.39	0.7264
2293.43	0.7195
2302.46	0.7128
2311.49	0.707
2320.53	0.7031
2329.56	0.7009
2338.6	0.6994
2347.63	0.6982
2356.67	0.697
2365.7	0.6962
2374.74	0.6953
2383.77	0.694
2392.81	0.6921
2401.84	0.6897
2410.87	0.6873
2419.91	0.6848
2428.94	0.681
2437.98	0.6767
2447.01	0.6721
2456.05	0.6657
2465.08	0.6574
2474.12	0.6473
2483.15	0.6366
2492.19	0.6253
2501.22	0.6133
2510.25	0.6017
2519.29	0.5914
2528.32	0.5831
2537.36	0.5777
2546.39	0.5736
2555.43	0.5696
2564.46	0.5641
2573.5	0.5555
2582.53	0.5452
2591.57	0.5357
2600.6	0.5275
2609.63	0.5237
2618.67	0.5221
2627.7	0.5193
2636.74	0.5145
2645.77	0.5065
2654.81	0.4966
2663.84	0.4854
2672.88	0.473
2681.91	0.4592
2690.95	0.4455
2699.98	0.4327
2709.01	0.426
2718.05	0.4229
2727.08	0.4202
2736.12	0.416
2745.15	0.4042
2754.19	0.3913
2763.22	0.3805
2772.26	0.3732
2781.29	0.3745
2790.33	0.3815
2799.36	0.3875
2808.39	0.3931
2817.43	0.3999
2826.46	0.4027
2835.5	0.4032
2844.53	0.4034
2853.57	0.4034
2862.6	0.4035
2871.64	0.4036
2880.67	0.4037
2889.71	0.4035
2898.74	0.4033
2907.77	0.4032
2916.81	0.4031
2925.84	0.4032
2934.88	0.404
2943.91	0.4048
2952.95	0.4055
2961.98	0.4061
2971.02	0.4057
2980.05	0.4049
2989.09	0.4037
2998.12	0.4013
3007.15	0.3942
3016.19	0.3816
3025.22	0.3683
3034.26	0.3596
3043.29	0.3538
3052.33	0.3515
3061.36	0.3507
3070.4	0.3496
3079.43	0.3407
3088.47	0.3249
3097.5	0.3236
3106.53	0.3278
3115.57	0.3346
3124.6	0.3584
3133.64	0.3971
3142.67	0.428
3151.71	0.455
3160.74	0.4835
3169.78	0.5166
3178.81	0.5406
3187.84	0.5468
3196.88	0.5476
3205.91	0.5512
3214.95	0.563
3223.98	0.571
3233.02	0.5709
3242.05	0.564
3251.09	0.5437
3260.12	0.5094
3269.16	0.4771
3278.19	0.473
3287.22	0.4906
3296.26	0.5164
3305.29	0.5481
3314.33	0.581
3323.36	0.5972
3332.4	0.599
3341.43	0.5964
3350.47	0.5903
3359.5	0.5822
3368.54	0.5736
3377.57	0.5645
3386.6	0.5556
3395.64	0.5469
3404.67	0.5377
3413.71	0.5285
3422.74	0.5173
3431.78	0.4984
3440.81	0.4661
3449.85	0.4627
3458.88	0.4829
3467.92	0.5522
3476.95	0.5995
3485.98	0.6196
3495.02	0.6338
3504.05	0.6426
3513.09	0.6508
3522.12	0.6577
3531.16	0.6637
3540.19	0.6695
3549.23	0.6753
3558.26	0.6807
3567.3	0.6934
3576.33	0.6996
3585.36	0.7062
3594.4	0.7145
3603.43	0.7201
3612.47	0.7206
3621.5	0.7197
3630.54	0.719
3639.57	0.7183
3648.61	0.7175
3657.64	0.7166
3666.68	0.716
3675.71	0.7155
3684.74	0.715
3693.78	0.7135
3702.81	0.7119
3711.85	0.71
3720.88	0.7067
3729.92	0.7043
3738.95	0.7031
3747.99	0.7026
3757.02	0.7022
3766.06	0.701
3775.09	0.6998
3784.12	0.6988
3793.16	0.6977
3802.19	0.6967
3811.23	0.6955
3820.26	0.6941
3829.3	0.6928
3838.33	0.6909
3847.37	0.6891
3856.4	0.6873
3865.44	0.6857
3874.47	0.6841
3883.5	0.6831
3892.54	0.682
3901.57	0.682
3910.61	0.6822
3919.64	0.6825
3928.68	0.6828
3937.71	0.6831
3946.75	0.6834
3955.78	0.684
3964.82	0.6846
3973.85	0.6853
3982.88	0.6861
3991.92	0.6868
4000.95	0.6875
4009.99	0.6885
