Infrared Spectrum: 4-PHENYLCYCLOHEXANOL
Formula: C12 H16 O
CAS: 5437-46-7
State: SOLUTION (10% CCl4 FOR 5000-1330, 10% CS2 FOR 1330-625 CM^-^1)
Melting point: 72 C (FREEZING POINT)
Boiling point: 163-167 C AT 20 mmHg
Class: COBLENTZ
Instrument: Not specified, most likely a prism, grating, or hybrid spectrometer.
Sampling: TRANSMISSION
Path length: 0.0121 CM, 0.0116 CM
Resolution: 4
Origin: DOW CHEMICAL COMPANY
MICROMETERS	TRANSMITTANCE
2.021	0.851
2.0621	0.853
2.10319	0.85
2.14429	0.848
2.18538	0.85
2.22648	0.85
2.26757	0.833
2.30867	0.829
2.34977	0.829
2.39086	0.834
2.43196	0.833
2.47305	0.831
2.51415	0.841
2.55524	0.841
2.59634	0.844
2.63744	0.853
2.67853	0.851
2.71963	0.819
2.76072	0.718
2.80182	0.734
2.84291	0.638
2.88401	0.543
2.92511	0.49
2.9662	0.454
3.0073	0.487
3.04839	0.587
3.08949	0.689
3.13058	0.744
3.17168	0.776
3.21278	0.732
3.25387	0.65
3.29497	0.613
3.33606	0.674
3.37716	0.47
3.41825	0.073
3.45935	0.272
3.50044	0.262
3.54154	0.724
3.58264	0.781
3.62373	0.809
3.66483	0.816
3.70592	0.802
3.74702	0.8
3.78811	0.816
3.82921	0.826
3.87031	0.839
3.9114	0.846
3.9525	0.851
3.99359	0.858
4.03469	0.86
4.07578	0.862
4.11688	0.86
4.15798	0.86
4.19907	0.858
4.24017	0.858
4.28126	0.858
4.32236	0.856
4.36345	0.86
4.40455	0.862
4.44565	0.868
4.48674	0.872
4.52784	0.875
4.56893	0.879
4.61003	0.88
4.65112	0.88
4.69222	0.88
4.73332	0.88
4.77441	0.882
4.81551	0.884
4.8566	0.885
4.8977	0.884
4.93879	0.88
4.97989	0.88
5.02099	0.879
5.06208	0.879
5.10318	0.858
5.14427	0.839
5.18537	0.856
5.22646	0.875
5.26756	0.872
5.30866	0.862
5.34975	0.851
5.39085	0.856
5.43194	0.868
5.47304	0.879
5.51413	0.865
5.55523	0.843
5.59633	0.879
5.63742	0.884
5.67852	0.879
5.71961	0.868
5.76071	0.872
5.8018	0.879
5.8429	0.873
5.88399	0.875
5.92509	0.879
5.96619	0.879
6.00728	0.865
6.04838	0.856
6.08947	0.858
6.13057	0.85
6.17166	0.81
6.21276	0.681
6.25386	0.587
6.29495	0.603
6.33605	0.597
6.37714	0.584
6.41824	0.529
6.45933	0.485
6.50043	0.519
6.54153	0.589
6.58262	0.623
6.62372	0.638
6.66481	0.567
6.70591	0.466
6.747	0.768
6.7881	0.742
6.8292	0.662
6.87029	0.402
6.91139	0.311
6.95248	0.592
6.99358	0.684
7.03467	0.708
7.07577	0.72
7.11687	0.722
7.15796	0.712
7.19906	0.689
7.24015	0.666
7.28125	0.621
7.32234	0.618
7.36344	0.652
7.40454	0.703
7.44563	0.695
7.48673	0.691
7.52782	0.724
7.56892	0.742
7.61001	0.741
7.65111	0.729
7.69221	0.708
7.7333	0.701
7.7744	0.698
7.81549	0.671
7.85659	0.672
7.89768	0.683
7.93878	0.671
7.97988	0.655
8.02097	0.672
8.06207	0.7
8.10316	0.683
8.14426	0.623
8.18535	0.62
8.22645	0.715
8.26755	0.754
8.30864	0.759
8.34974	0.758
8.39083	0.751
8.43193	0.737
8.47302	0.751
8.51412	0.797
8.55521	0.822
8.59631	0.827
8.63741	0.812
8.6785	0.798
8.7196	0.78
8.76069	0.752
8.80179	0.739
8.84288	0.739
8.88398	0.712
8.92508	0.664
8.96617	0.601
9.00727	0.621
9.04836	0.698
9.08946	0.734
9.13055	0.768
9.17165	0.776
9.21275	0.752
9.25384	0.705
9.29494	0.608
9.33603	0.499
9.37713	0.415
9.41822	0.337
9.45932	0.279
9.50042	0.299
9.54151	0.41
9.58261	0.545
9.6237	0.599
9.6648	0.517
9.70589	0.413
9.74699	0.541
9.78809	0.695
9.82918	0.759
9.87028	0.773
9.91137	0.744
9.95247	0.671
9.99356	0.681
10.0347	0.672
10.0758	0.649
10.1169	0.708
10.1579	0.741
10.199	0.749
10.2401	0.742
10.2812	0.695
10.3223	0.557
10.3634	0.425
10.4045	0.316
10.4456	0.257
10.4867	0.405
10.5278	0.589
10.5689	0.7
10.61	0.78
10.6511	0.824
10.6922	0.833
10.7333	0.819
10.7744	0.783
10.8155	0.807
10.8566	0.843
10.8977	0.844
10.9388	0.844
10.9799	0.844
11.021	0.836
11.0621	0.822
11.1031	0.798
11.1442	0.739
11.1853	0.666
11.2264	0.628
11.2675	0.684
11.3086	0.754
11.3497	0.766
11.3908	0.761
11.4319	0.722
11.473	0.669
11.5141	0.671
11.5552	0.708
11.5963	0.718
11.6374	0.72
11.6785	0.715
11.7196	0.712
11.7607	0.718
11.8018	0.742
11.8429	0.754
11.884	0.754
11.9251	0.775
11.9662	0.809
12.0073	0.826
12.0483	0.829
12.0894	0.829
12.1305	0.827
12.1716	0.827
12.2127	0.827
12.2538	0.833
12.2949	0.836
12.336	0.838
12.3771	0.836
12.4182	0.829
12.4593	0.819
12.5004	0.8
12.5415	0.788
12.5826	0.785
12.6237	0.787
12.6648	0.787
12.7059	0.778
12.747	0.77
12.7881	0.763
12.8292	0.754
12.8703	0.749
12.9114	0.744
12.9525	0.737
12.9935	0.729
13.0346	0.71
13.0757	0.666
13.1168	0.603
13.1579	0.521
13.199	0.408
13.2401	0.296
13.2812	0.221
13.3223	0.224
13.3634	0.291
13.4045	0.374
13.4456	0.444
13.4867	0.497
13.5278	0.548
13.5689	0.608
13.61	0.635
13.6511	0.657
13.6922	0.667
13.7333	0.671
13.7744	0.671
13.8155	0.672
13.8566	0.672
13.8977	0.669
13.9388	0.657
13.9798	0.638
14.0209	0.621
14.062	0.596
14.1031	0.555
14.1442	0.487
14.1853	0.403
14.2264	0.274
14.2675	0.168
14.3086	0.078
14.3497	0.09
14.3908	0.172
14.4319	0.311
14.473	0.422
14.5141	0.477
14.5552	0.5
14.5963	0.512
14.6374	0.519
14.6785	0.526
14.7196	0.531
14.7607	0.536
14.8018	0.538
14.8429	0.536
14.884	0.531
14.925	0.526
14.9661	0.521
15.0072	0.514
15.0483	0.507
15.0894	0.497
15.1305	0.487
15.1716	0.478
15.2127	0.471
15.2538	0.465
15.2949	0.459
15.336	0.454
15.3771	0.451
15.4182	0.446
15.4593	0.441
15.5004	0.437
15.5415	0.432
15.5826	0.429
15.6237	0.427
15.6648	0.425
15.7059	0.425
15.747	0.425
15.7881	0.425
15.8292	0.424
