Infrared Spectrum: 9H-Purine, 2-amino-6-(butylamino)-
Formula: C9 H14 N6
CAS: 5437-50-3
State: SOLID (0.4 mg / 650 mg KBr DISC)
Class: COBLENTZ III
Instrument: PERKIN-ELMER 21 (GRATING)
Instrument parameters: FILTER CHANGE ABOUT 1075 CM^-^1
Sampling: TRANSMISSION
Resolution: 2
Origin: SOUTHERN RESEARCH INSTITUTE
1/CM	TRANSMITTANCE
613	0.8372
622.04	0.8366
631.08	0.8391
640.12	0.9238
649.159	0.9238
658.199	0.9195
667.239	0.9091
676.279	0.8969
685.319	0.8846
694.359	0.8722
703.399	0.8589
712.438	0.8454
721.478	0.8305
730.518	0.8087
739.558	0.7946
748.598	0.7887
757.638	0.784
766.678	0.7717
775.717	0.7378
784.757	0.6031
793.797	0.7216
802.837	0.7111
811.877	0.6463
820.917	0.5976
829.957	0.6321
838.996	0.721
848.036	0.7206
857.076	0.7153
866.116	0.7089
875.156	0.7098
884.196	0.709
893.236	0.7038
902.275	0.693
911.315	0.6741
920.355	0.6471
929.395	0.6171
938.435	0.5883
947.475	0.5871
956.515	0.7208
965.554	0.759
974.594	0.7766
983.634	0.7777
992.674	0.7778
1001.71	0.7768
1010.75	0.7746
1019.79	0.7716
1028.83	0.7685
1037.87	0.7662
1046.91	0.7614
1055.95	0.75
1064.99	0.7449
1074.03	0.6941
1083.07	0.7118
1092.11	0.704
1101.15	0.6933
1110.19	0.6822
1119.23	0.6957
1128.27	0.724
1137.31	0.7275
1146.35	0.7218
1155.39	0.7089
1164.43	0.7049
1173.47	0.7218
1182.51	0.7604
1191.55	0.7563
1200.59	0.7375
1209.63	0.6949
1218.67	0.6741
1227.71	0.7201
1236.75	0.738
1245.79	0.7229
1254.83	0.6922
1263.87	0.6509
1272.91	0.627
1281.95	0.6351
1290.99	0.7035
1300.03	0.6671
1309.07	0.6373
1318.11	0.6663
1327.15	0.6555
1336.19	0.5998
1345.23	0.5412
1354.27	0.5908
1363.31	0.5303
1372.35	0.4827
1381.39	0.4581
1390.43	0.4248
1399.47	0.5344
1408.51	0.6552
1417.55	0.6252
1426.59	0.5793
1435.63	0.5228
1444.67	0.4584
1453.71	0.3912
1462.75	0.3191
1471.79	0.3266
1480.83	0.3694
1489.87	0.4538
1498.91	0.4671
1507.95	0.6152
1516.99	0.6463
1526.03	0.64
1535.07	0.6321
1544.11	0.6214
1553.15	0.6037
1562.19	0.5474
1571.22	0.4638
1580.26	0.3263
1589.3	0.1911
1598.34	0.0671
1607.38	0.0623
1616.42	0.1046
1625.46	0.1648
1634.5	0.2658
1643.54	0.3288
1652.58	0.3988
1661.62	0.5047
1670.66	0.6015
1679.7	0.6839
1688.74	0.7282
1697.78	0.7512
1706.82	0.7684
1715.86	0.7825
1724.9	0.7918
1733.94	0.8015
1742.98	0.8103
1752.02	0.8161
1761.06	0.8207
1770.1	0.8231
1779.14	0.8281
1788.18	0.8282
1797.22	0.8284
1806.26	0.8293
1815.3	0.8303
1824.34	0.8312
1833.38	0.8318
1842.42	0.8324
1851.46	0.8331
1860.5	0.8339
1869.54	0.8347
1878.58	0.8352
1887.62	0.8358
1896.66	0.8363
1905.7	0.8357
1914.74	0.8351
1923.78	0.8345
1932.82	0.8338
1941.86	0.8331
1950.9	0.8325
1959.94	0.8319
1968.98	0.8314
1978.02	0.8308
1987.06	0.8297
1996.1	0.8286
2005.14	0.8278
2014.18	0.8271
2023.22	0.8263
2032.26	0.8221
2041.3	0.8222
2050.34	0.8221
2059.38	0.8214
2068.42	0.8206
2077.46	0.8198
2086.5	0.8192
2095.54	0.8191
2104.58	0.8186
2113.62	0.8177
2122.66	0.8169
2131.7	0.816
2140.74	0.815
2149.78	0.814
2158.82	0.8129
2167.86	0.8118
2176.9	0.8086
2185.94	0.8051
2194.98	0.8006
2204.02	0.7978
2213.05	0.7959
2222.09	0.7942
2231.13	0.7925
2240.17	0.7908
2249.21	0.7883
2258.25	0.7854
2267.29	0.7828
2276.33	0.7806
2285.37	0.7777
2294.41	0.7742
2303.45	0.768
2312.49	0.7613
2321.53	0.7562
2330.57	0.7525
2339.61	0.75
2348.65	0.7477
2357.69	0.7465
2366.73	0.7487
2375.77	0.7497
2384.81	0.7486
2393.85	0.7454
2402.89	0.7378
2411.93	0.7301
2420.97	0.7249
2430.01	0.7197
2439.05	0.7142
2448.09	0.7081
2457.13	0.7008
2466.17	0.6935
2475.21	0.6875
2484.25	0.6741
2493.29	0.6657
2502.33	0.6602
2511.37	0.658
2520.41	0.6573
2529.45	0.6565
2538.49	0.6557
2547.53	0.6536
2556.57	0.652
2565.61	0.6504
2574.65	0.649
2583.69	0.6478
2592.73	0.6466
2601.77	0.6449
2610.81	0.64
2619.85	0.635
2628.89	0.6299
2637.93	0.6253
2646.97	0.6208
2656.01	0.6171
2665.05	0.6135
2674.09	0.6099
2683.13	0.6059
2692.17	0.6019
2701.21	0.5986
2710.25	0.5968
2719.29	0.5964
2728.33	0.5962
2737.37	0.5969
2746.41	0.5975
2755.45	0.5989
2764.49	0.6007
2773.53	0.604
2782.57	0.6079
2791.61	0.6105
2800.65	0.6086
2809.69	0.6053
2818.73	0.5996
2827.77	0.5842
2836.81	0.558
2845.84	0.5485
2854.88	0.5549
2863.92	0.5606
2872.96	0.5608
2882	0.5567
2891.04	0.5444
2900.08	0.5274
2909.12	0.5065
2918.16	0.5037
2927.2	0.5059
2936.24	0.5072
2945.28	0.5089
2954.32	0.5342
2963.36	0.565
2972.4	0.603
2981.44	0.6199
2990.48	0.6266
2999.52	0.6275
3008.56	0.6252
3017.6	0.6222
3026.64	0.6168
3035.68	0.6131
3044.72	0.6088
3053.76	0.6036
3062.8	0.5973
3071.84	0.5919
3080.88	0.5865
3089.92	0.5811
3098.96	0.5758
3108	0.5711
3117.04	0.5669
3126.08	0.5626
3135.12	0.5554
3144.16	0.5419
3153.2	0.5265
3162.24	0.513
3171.28	0.4995
3180.32	0.4972
3189.36	0.5011
3198.4	0.51
3207.44	0.5156
3216.48	0.5156
3225.52	0.5123
3234.56	0.5058
3243.6	0.4959
3252.64	0.4837
3261.68	0.4731
3270.72	0.4645
3279.76	0.4588
3288.8	0.4553
3297.84	0.4527
3306.88	0.4491
3315.92	0.4448
3324.96	0.4401
3334	0.4351
3343.04	0.4291
3352.08	0.4216
3361.12	0.4118
3370.16	0.403
3379.2	0.402
3388.24	0.4052
3397.28	0.4074
3406.32	0.403
3415.36	0.3963
3424.4	0.3923
3433.44	0.4071
3442.48	0.4508
3451.52	0.49
3460.56	0.5085
3469.6	0.513
3478.64	0.5154
3487.67	0.526
3496.71	0.5459
3505.75	0.5774
3514.79	0.604
3523.83	0.6167
3532.87	0.6334
3541.91	0.6465
3550.95	0.6592
3559.99	0.672
3569.03	0.6841
3578.07	0.702
3587.11	0.7277
3596.15	0.7344
3605.19	0.7479
3614.23	0.7666
3623.27	0.7732
3632.31	0.7771
3641.35	0.7806
3650.39	0.7838
3659.43	0.7864
3668.47	0.7888
3677.51	0.7912
3686.55	0.7939
3695.59	0.8004
3704.63	0.8006
3713.67	0.8005
3722.71	0.8002
3731.75	0.7997
3740.79	0.7992
3749.83	0.7987
3758.87	0.7978
3767.91	0.7969
3776.95	0.7951
3785.99	0.7934
3795.03	0.7911
3804.07	0.7885
3813.11	0.7868
3822.15	0.7857
3831.19	0.7864
3840.23	0.7875
3849.27	0.7878
3858.31	0.7878
3867.35	0.7878
3876.39	0.7878
3885.43	0.7879
3894.47	0.7881
3903.51	0.7879
3912.55	0.7874
3921.59	0.787
3930.63	0.7868
3939.67	0.7866
3948.71	0.7866
3957.75	0.7869
3966.79	0.7873
3975.83	0.788
3984.87	0.7887
3993.91	0.7892
4002.95	0.7888
4011.99	0.7881
