Infrared Spectrum: 4,4'-BIS(2-AMINO-1-NAPHTHYLAZO)-2,2'-STILBENE DISULFONIC ACID
Formula: C34 H26 N6 O6 S2
CAS: 5437-12-7
State: SOLID (MINERAL OIL MULL)
Class: COBLENTZ
Instrument: Not specified, most likely a prism, grating, or hybrid spectrometer.
Sampling: TRANSMISSION
Resolution: 4
Origin: WYANDOTTE CHEMICALS CORP., WYANDOTTE, MICHIGAN, USA
MICROMETERS	TRANSMITTANCE
2.019	0.188
2.05612	0.191
2.09323	0.19
2.13035	0.193
2.16747	0.194
2.20459	0.196
2.2417	0.194
2.27882	0.191
2.31594	0.191
2.35306	0.204
2.39017	0.207
2.42729	0.207
2.46441	0.208
2.50153	0.214
2.53864	0.222
2.57576	0.233
2.61288	0.238
2.65	0.248
2.68711	0.247
2.72423	0.23
2.76135	0.197
2.79847	0.165
2.83558	0.136
2.8727	0.12
2.90982	0.103
2.94693	0.098
2.98405	0.089
3.02117	0.091
3.05829	0.091
3.0954	0.088
3.13252	0.085
3.16964	0.081
3.20676	0.078
3.24387	0.069
3.28099	0.063
3.31811	0.061
3.35523	0.046
3.39234	0.03
3.42946	0.032
3.46658	0.029
3.5037	0.041
3.54081	0.088
3.57793	0.145
3.61505	0.171
3.65217	0.19
3.68928	0.193
3.7264	0.204
3.76352	0.217
3.80064	0.216
3.83775	0.224
3.87487	0.233
3.91199	0.234
3.9491	0.253
3.98622	0.265
4.02334	0.285
4.06046	0.309
4.09757	0.336
4.13469	0.343
4.17181	0.352
4.20893	0.367
4.24604	0.363
4.28316	0.355
4.32028	0.367
4.3574	0.398
4.39451	0.423
4.43163	0.452
4.46875	0.469
4.50587	0.466
4.54298	0.48
4.5801	0.494
4.61722	0.505
4.65434	0.52
4.69145	0.528
4.72857	0.54
4.76569	0.554
4.8028	0.57
4.83992	0.596
4.87704	0.601
4.91416	0.616
4.95127	0.616
4.98839	0.63
5.02551	0.65
5.06263	0.656
5.09974	0.667
5.13686	0.678
5.17398	0.693
5.2111	0.707
5.24821	0.729
5.28533	0.748
5.32245	0.769
5.35957	0.797
5.39668	0.817
5.4338	0.828
5.47092	0.837
5.50804	0.837
5.54515	0.851
5.58227	0.868
5.61939	0.89
5.6565	0.891
5.69362	0.902
5.73074	0.908
5.76786	0.89
5.80497	0.822
5.84209	0.794
5.87921	0.797
5.91633	0.782
5.95344	0.768
5.99056	0.681
6.02768	0.527
6.0648	0.414
6.10191	0.347
6.13903	0.289
6.17615	0.34
6.21327	0.358
6.25038	0.338
6.2875	0.352
6.32462	0.448
6.36174	0.457
6.39885	0.477
6.43597	0.418
6.47309	0.387
6.51021	0.431
6.54732	0.446
6.58444	0.448
6.62156	0.474
6.65867	0.471
6.69579	0.355
6.73291	0.185
6.77003	0.102
6.80714	0.061
6.84426	0.071
6.88138	0.1
6.9185	0.091
6.95561	0.098
6.99273	0.095
7.02985	0.081
7.06697	0.094
7.10408	0.119
7.1412	0.151
7.17832	0.205
7.21544	0.174
7.25255	0.136
7.28967	0.159
7.32679	0.17
7.36391	0.2
7.40102	0.228
7.43814	0.261
7.47526	0.318
7.51237	0.377
7.54949	0.357
7.58661	0.284
7.62373	0.309
7.66084	0.417
7.69796	0.5
7.73508	0.533
7.7722	0.556
7.80931	0.505
7.84643	0.401
7.88355	0.278
7.92067	0.222
7.95778	0.211
7.9949	0.211
8.03202	0.217
8.06914	0.191
8.10625	0.151
8.14337	0.125
8.18049	0.089
8.21761	0.069
8.25472	0.061
8.29184	0.066
8.32896	0.063
8.36607	0.064
8.40319	0.06
8.44031	0.057
8.47743	0.049
8.51454	0.054
8.55166	0.052
8.58878	0.057
8.6259	0.071
8.66301	0.069
8.70013	0.081
8.73725	0.1
8.77437	0.12
8.81148	0.166
8.8486	0.225
8.88572	0.278
8.92284	0.327
8.95995	0.36
8.99707	0.412
9.03419	0.468
9.07131	0.502
9.10842	0.493
9.14554	0.398
9.18266	0.281
9.21978	0.225
9.25689	0.191
9.29401	0.174
9.33113	0.17
9.36824	0.21
9.40536	0.279
9.44248	0.372
9.4796	0.448
9.51671	0.469
9.55383	0.474
9.59095	0.479
9.62807	0.499
9.66518	0.522
9.7023	0.472
9.73942	0.306
9.77654	0.163
9.81365	0.108
9.85077	0.128
9.88789	0.217
9.92501	0.347
9.96212	0.443
9.99924	0.52
10.0364	0.579
10.0735	0.608
10.1106	0.629
10.1477	0.642
10.1848	0.655
10.2219	0.658
10.2591	0.647
10.2962	0.639
10.3333	0.644
10.3704	0.646
10.4075	0.656
10.4446	0.664
10.4818	0.663
10.5189	0.684
10.556	0.72
10.5931	0.782
10.6302	0.837
10.6674	0.879
10.7045	0.921
10.7416	0.941
10.7787	0.955
10.8158	0.956
10.8529	0.958
10.8901	0.944
10.9272	0.916
10.9643	0.88
11.0014	0.856
11.0385	0.837
11.0756	0.829
11.1128	0.834
11.1499	0.84
11.187	0.837
11.2241	0.822
11.2612	0.789
11.2983	0.755
11.3355	0.718
11.3726	0.718
11.4097	0.71
11.4468	0.707
11.4839	0.689
11.5211	0.67
11.5582	0.675
11.5953	0.698
11.6324	0.735
11.6695	0.766
11.7066	0.803
11.7438	0.826
11.7809	0.833
11.818	0.812
11.8551	0.768
11.8922	0.71
11.9293	0.622
11.9665	0.55
12.0036	0.489
12.0407	0.455
12.0778	0.442
12.1149	0.44
12.152	0.457
12.1892	0.46
12.2263	0.468
12.2634	0.483
12.3005	0.519
12.3376	0.588
12.3748	0.656
12.4119	0.71
12.449	0.772
12.4861	0.819
12.5232	0.86
12.5603	0.882
12.5975	0.894
12.6346	0.888
12.6717	0.868
12.7088	0.808
12.7459	0.717
12.783	0.658
12.8202	0.676
12.8573	0.741
12.8944	0.795
12.9315	0.812
12.9686	0.811
13.0057	0.777
13.0429	0.741
13.08	0.698
13.1171	0.652
13.1542	0.605
13.1913	0.562
13.2285	0.519
13.2656	0.497
13.3027	0.482
13.3398	0.48
13.3769	0.48
13.414	0.48
13.4512	0.485
13.4883	0.488
13.5254	0.486
13.5625	0.486
13.5996	0.485
13.6367	0.483
13.6739	0.488
13.711	0.494
13.7481	0.499
13.7852	0.493
13.8223	0.486
13.8594	0.488
13.8966	0.494
13.9337	0.505
13.9708	0.525
14.0079	0.531
14.045	0.536
14.0822	0.536
14.1193	0.527
14.1564	0.499
14.1935	0.472
14.2306	0.428
14.2677	0.387
14.3049	0.355
14.342	0.33
14.3791	0.316
14.4162	0.327
14.4533	0.361
14.4904	0.408
14.5276	0.462
14.5647	0.489
14.6018	0.519
14.6389	0.542
14.676	0.556
14.7131	0.567
14.7503	0.578
14.7874	0.576
14.8245	0.576
14.8616	0.573
14.8987	0.568
14.9359	0.564
14.973	0.54
15.0101	0.52
15.0472	0.489
15.0843	0.46
15.1214	0.452
15.1586	0.457
15.1957	0.465
15.2328	0.471
15.2699	0.477
15.307	0.482
15.3441	0.468
15.3813	0.46
15.4184	0.451
15.4555	0.454
15.4926	0.431
15.5297	0.418
15.5668	0.4
15.604	0.381
15.6411	0.367
15.6782	0.336
15.7153	0.307
15.7524	0.292
15.7896	0.276
15.8267	0.272
15.8638	0.255
15.9009	0.251
15.938	0.251
15.9751	0.248
