Infrared Spectrum: 3,5-Dichloro-2-pyridone
Formula: C 5 H 3 Cl 2 N O
CAS: 5437-33-2
State: gas
Origin: EPA-IR VAPOR PHASE LIBRARY
1/CM	ABSORBANCE
549.8	0.000664
559.445	0.0006973
569.09	0.000301
578.734	0.000308
588.379	0.000621
598.024	0.0007111
607.669	0.000594
617.313	0.000653
626.958	0.0007064
636.603	0.0014103
646.248	0.001936
655.893	0.0016414
665.537	0.00089555
675.182	0.00085332
684.827	0.00083713
694.472	0.0010572
704.116	0.001033
713.761	0.0017287
723.406	0.002706
733.051	0.005336
742.695	0.005426
752.34	0.003066
761.985	0.002036
771.63	0.0011094
781.275	0.0012205
790.919	0.0010722
800.564	0.000685
810.209	0.0012159
819.854	0.00087056
829.498	0.0012111
839.143	0.0011222
848.788	0.0009644
858.433	0.000675
868.078	0.002056
877.722	0.003676
887.367	0.004296
897.012	0.003976
906.657	0.002026
916.301	0.0015954
925.946	0.000455
935.591	0.00087661
945.236	0.000697
954.88	0.0009654
964.525	0.0010528
974.17	0.000417
983.815	0.00126
993.46	0.0007597
1003.1	0.000167
1012.75	0.0009014
1022.39	0.00085072
1032.04	0.0011579
1041.68	0.002486
1051.33	0.003536
1060.97	0.005936
1070.62	0.005126
1080.26	0.004066
1089.91	0.003346
1099.55	0.005666
1109.2	0.005776
1118.84	0.004636
1128.49	0.003966
1138.13	0.003396
1147.78	0.005116
1157.42	0.007056
1167.07	0.005816
1176.71	0.002266
1186.36	0.0013597
1196	0.000926
1205.64	0.0014122
1215.29	0.001876
1224.93	0.002126
1234.58	0.0009207
1244.22	0.00089414
1253.87	0.000655
1263.51	0.0011942
1273.16	0.002186
1282.8	0.003216
1292.45	0.003856
1302.09	0.006016
1311.74	0.008556
1321.38	0.007076
1331.03	0.003866
1340.67	0.002766
1350.32	0.002126
1359.96	0.0014945
1369.61	0.0015069
1379.25	0.002646
1388.9	0.003686
1398.54	0.003086
1408.18	0.002026
1417.83	0.0016358
1427.47	0.002596
1437.12	0.007246
1446.76	0.016096
1456.41	0.022476
1466.05	0.016676
1475.7	0.007156
1485.34	0.003866
1494.99	0.001665
1504.63	0.0014122
1514.28	0.001111
1523.92	0.0012554
1533.57	0.0012037
1543.21	0.0013783
1552.86	0.0016858
1562.5	0.002386
1572.15	0.002946
1581.79	0.003606
1591.44	0.002896
1601.08	0.002036
1610.73	0.002066
1620.37	0.002436
1630.01	0.0015729
1639.66	0.0009854
1649.3	0.0009679
1658.95	0.0011727
1668.59	0.0012856
1678.24	0.0013993
1687.88	0.001683
1697.53	0.002076
1707.17	0.005476
1716.82	0.008616
1726.46	0.005926
1736.11	0.001596
1745.75	0.0013646
1755.4	0.0014802
1765.04	0.0014126
1774.69	0.0013392
1784.33	0.001166
1793.98	0.0012485
1803.62	0.0010921
1813.27	0.0011229
1822.91	0.0009982
1832.55	0.000986
1842.2	0.00087586
1851.84	0.0009909
1861.49	0.00080079
1871.13	0.0010275
1880.78	0.0008403
1890.42	0.000798622
1900.07	0.0009066
1909.71	0.00080691
1919.36	0.0007118
1929	0.0009464
1938.65	0.00088712
1948.29	0.00086559
1957.94	0.00088463
1967.58	0.00088112
1977.23	0.0007635
1986.87	0.0007846
1996.52	0.0007258
2006.16	0.0009403
2015.81	0.0009164
2025.45	0.00086473
2035.1	0.0009369
2044.74	0.0009118
2054.38	0.00082087
2064.03	0.0008409
2073.67	0.0007835
2083.32	0.0007817
2092.96	0.0007155
2102.61	0.00087684
2112.25	0.00064
2121.9	0.00085576
2131.54	0.0009331
2141.19	0.0009168
2150.83	0.00085717
2160.48	0.0009454
2170.12	0.0009095
2179.77	0.00079171
2189.41	0.0009472
2199.06	0.0010106
2208.7	0.0009722
2218.35	0.000909
2227.99	0.00086531
2237.64	0.0009473
2247.28	0.000935
2256.92	0.0010152
2266.57	0.00082598
2276.21	0.0009019
2285.86	0.0009785
2295.5	0.00085597
2305.15	0.0010511
2314.79	0.0011072
2324.44	0.0009866
2334.08	0.0009531
2343.73	0.00093
2353.37	0.0009141
2363.02	0.0009582
2372.66	0.0009445
2382.31	0.001161
2391.95	0.0009957
2401.6	0.00086259
2411.24	0.0010584
2420.89	0.000796184
2430.53	0.0010772
2440.18	0.0010391
2449.82	0.0011258
2459.47	0.0009088
2469.11	0.0009838
2478.75	0.00084077
2488.4	0.0008987
2498.04	0.00081637
2507.69	0.00085847
2517.33	0.0010873
2526.98	0.00083905
2536.62	0.0011276
2546.27	0.0009165
2555.91	0.0010947
2565.56	0.0009599
2575.2	0.0009747
2584.85	0.0009446
2594.49	0.000962
2604.14	0.0011201
2613.78	0.0007702
2623.43	0.0009997
2633.07	0.00088694
2642.72	0.0009046
2652.36	0.0007507
2662.01	0.00089529
2671.65	0.0010378
2681.29	0.000634
2690.94	0.00087058
2700.58	0.0009579
2710.23	0.00079212
2719.87	0.000799341
2729.52	0.0009635
2739.16	0.0010804
2748.81	0.0009209
2758.45	0.0011491
2768.1	0.0009471
2777.74	0.00086275
2787.39	0.0010915
2797.03	0.0010105
2806.68	0.0011068
2816.32	0.0010382
2825.97	0.00088285
2835.61	0.0007487
2845.26	0.0007261
2854.9	0.00085387
2864.55	0.00089517
2874.19	0.000804507
2883.84	0.0010869
2893.48	0.0010495
2903.12	0.0007713
2912.77	0.0012407
2922.41	0.0009305
2932.06	0.0010969
2941.7	0.0009974
2951.35	0.0009052
2960.99	0.0007399
2970.64	0.00082306
2980.28	0.00084708
2989.93	0.00088094
2999.57	0.000905
3009.22	0.000662
3018.86	0.0008956
3028.51	0.00089123
3038.15	0.00082517
3047.8	0.0010013
3057.44	0.0009294
3067.09	0.0013805
3076.73	0.0011149
3086.38	0.00087296
3096.02	0.0009026
3105.67	0.0011631
3115.31	0.001142
3124.95	0.00088121
3134.6	0.0009395
3144.24	0.00082473
3153.89	0.0010319
3163.53	0.0010453
3173.18	0.0009128
3182.82	0.0009521
3192.47	0.000428
3202.11	0.000487
3211.76	0.0007593
3221.4	0.0007439
3231.05	0.0011256
3240.69	0.0010348
3250.34	0.0010716
3259.98	0.0009408
3269.63	0.0007143
3279.27	0.00089568
3288.92	0.0011053
3298.56	0.0010108
3308.21	0.00061
3317.85	0.0010706
3327.49	0.000694
3337.14	0.0007581
3346.78	0.00084519
3356.43	0.000678
3366.07	0.001134
3375.72	0.000505
3385.36	0.000471
3395.01	0.0010008
3404.65	0.0010441
3414.3	0.0013404
3423.94	0.0014626
3433.59	0.002116
3443.23	0.001826
3452.88	0.0010755
3462.52	0.0011772
3472.17	0.0007088
3481.81	0.00087251
3491.46	0.000639
3501.1	0.0008204
3510.75	0.000805211
3520.39	0.00086283
3530.04	0.000545
3539.68	0.0013167
3549.32	0.00083408
3558.97	0.00083456
3568.61	0.0011944
3578.26	0.003496
3587.9	0.009026
3597.55	0.008696
3607.19	0.003936
3616.84	0.0016199
3626.48	0.0009992
3636.13	0.0007752
3645.77	0.0009393
3655.42	0.0009637
3665.06	0.0010758
3674.71	0.00086236
3684.35	0.000655
3694	0.000459
3703.64	0.0007762
3713.29	0.0007109
3722.93	0.000277
3732.58	0.0011745
3742.22	0.000964
3751.86	0.000693
3761.51	0.000224
3771.15	0.0007196
3780.8	0.0009354
3790.44	0.00081033
3800.09	0.000596
3809.73	0.00067
3819.38	0.0010021
3829.02	0.0009211
3838.67	0.0007108
3848.31	0.0009885
3857.96	0.00088227
3867.6	0.000633
3877.25	0.0007819
3886.89	0.0009723
3896.54	0.00087147
3906.18	0.001132
3915.83	0.0010519
3925.47	0.0009564
3935.12	0.000682
3944.76	0.000418
3954.41	0.00084147
3964.05	0.000494
3973.69	0.0006977
3983.34	0.000377
3992.98	0.000975
