Infrared Spectrum: BUTANAMIDE, 3-OXO-N-(4-METHOXYPHENYL)-
Formula: C11 H13 N O3
CAS: 5437-98-9
State: SOLID (SPLIT MULL, FLUOROLUBE FOR 3800-1330 AND NUJOL FOR 1330-400 CM ^-^1)
Melting point: 116 C
Class: COBLENTZ III
Instrument: BECKMAN IR-9 (GRATING)
Instrument parameters: ORDER CHANGES AT 670, 1200, 2000 CM^-^1
Sampling: TRANSMISSION
Resolution: 4
Origin: DOW CHEMICAL COMPANY
1/CM	TRANSMITTANCE
400.893	0.646
409.822	0.643
418.75	0.67
427.679	0.719
436.607	0.793
445.536	0.835
454.464	0.826
463.393	0.811
472.322	0.898
481.25	0.909
490.179	0.914
499.107	0.903
508.036	0.881
516.965	0.678
525.893	0.321
534.822	0.656
543.75	0.879
552.679	0.928
561.607	0.93
570.536	0.956
579.465	0.969
588.393	0.969
597.322	0.966
606.25	0.944
615.179	0.685
624.108	0.941
633.036	0.976
641.965	0.953
650.893	0.977
659.822	0.973
668.75	0.956
677.679	0.946
686.608	0.914
695.536	0.854
704.465	0.743
713.393	0.66
722.322	0.724
731.251	0.762
740.179	0.639
749.108	0.594
758.036	0.689
766.965	0.797
775.893	0.847
784.822	0.664
793.751	0.575
802.679	0.864
811.608	0.889
820.536	0.784
829.465	0.688
838.394	0.21
847.322	0.4211
856.251	0.835
865.179	0.881
874.108	0.853
883.036	0.916
891.965	0.946
900.894	0.962
909.822	0.969
918.751	0.965
927.679	0.963
936.608	0.944
945.537	0.959
954.465	0.944
963.394	0.907
972.322	0.886
981.251	0.925
990.179	0.924
999.108	0.829
1008.04	0.858
1016.97	0.856
1025.89	0.675
1034.82	0.226
1043.75	0.49
1052.68	0.797
1061.61	0.861
1070.54	0.882
1079.47	0.881
1088.39	0.882
1097.32	0.882
1106.25	0.874
1115.18	0.773
1124.11	0.833
1133.04	0.815
1141.97	0.773
1150.89	0.589
1159.82	0.2239
1168.75	0.497
1177.68	0.261
1186.61	0.593
1195.54	0.829
1204.47	0.833
1213.39	0.803
1222.32	0.673
1231.25	0.389
1240.18	0.358
1249.11	0.054
1258.04	0.261
1266.97	0.638
1275.89	0.53
1284.82	0.324
1293.75	0.694
1302.68	0.723
1311.61	0.628
1320.54	0.378
1329.47	0.646
1338.39	0.611
1347.32	0.308
1356.25	0.241
1365.18	0.291
1374.11	0.546
1383.04	0.589
1391.97	0.583
1400.89	0.494
1409.82	0.266
1418.75	0.231
1427.68	0.31
1436.61	0.469
1445.54	0.497
1454.47	0.382
1463.39	0.377
1472.32	0.466
1481.25	0.529
1490.18	0.448
1499.11	0.29
1508.04	0.04
1516.97	0.009
1525.89	0.439
1534.82	0.427
1543.75	0.223
1552.68	0.068
1561.61	0.013
1570.54	0.3
1579.47	0.593
1588.39	0.648
1597.32	0.466
1606.25	0.134
1615.18	0.22
1624.11	0.398
1633.04	0.36
1641.97	0.23
1650.89	0.015
1659.82	0.012
1668.75	0.215
1677.68	0.506
1686.61	0.576
1695.54	0.578
1704.47	0.402
1713.39	0.048
1722.32	0.047
1731.25	0.296
1740.18	0.65
1749.11	0.782
1758.04	0.851
1766.97	0.884
1775.89	0.888
1784.82	0.912
1793.75	0.913
1802.68	0.923
1811.61	0.941
1820.54	0.951
1829.47	0.952
1838.39	0.952
1847.32	0.949
1856.25	0.945
1865.18	0.921
1874.11	0.924
1883.04	0.913
1891.97	0.879
1900.89	0.928
1909.82	0.925
1918.75	0.925
1927.68	0.934
1936.61	0.93
1945.54	0.925
1954.47	0.917
1963.39	0.912
1972.32	0.912
1981.25	0.916
1990.18	0.913
1999.11	0.903
2008.04	0.91
2016.97	0.9025
2025.89	0.8885
2034.82	0.886
2043.75	0.888
2052.68	0.8768
2061.61	0.8569
2070.54	0.866
2079.47	0.8761
2088.4	0.8846
2097.32	0.881
2106.25	0.8728
2115.18	0.871
2124.11	0.8704
2133.04	0.868
2141.97	0.865
2150.9	0.863
2159.82	0.8604
2168.75	0.858
2177.68	0.856
2186.61	0.85
2195.54	0.8477
2204.47	0.8477
2213.4	0.8433
2222.32	0.8363
2231.25	0.832
2240.18	0.8266
2249.11	0.8213
2258.04	0.8173
2266.97	0.8103
2275.9	0.804
2284.82	0.8
2293.75	0.791
2302.68	0.787
2311.61	0.786
2320.54	0.784
2329.47	0.7805
2338.4	0.777
2347.32	0.7752
2356.25	0.7758
2365.18	0.775
2374.11	0.7746
2383.04	0.7798
2391.97	0.7817
2400.9	0.784
2409.82	0.782
2418.75	0.7762
2427.68	0.773
2436.61	0.7747
2445.54	0.7759
2454.47	0.775
2463.4	0.7702
2472.32	0.7632
2481.25	0.761
2490.18	0.763
2499.11	0.769
2508.04	0.766
2516.97	0.7651
2525.9	0.763
2534.82	0.761
2543.75	0.756
2552.68	0.755
2561.61	0.756
2570.54	0.756
2579.47	0.754
2588.4	0.747
2597.32	0.745
2606.25	0.748
2615.18	0.747
2624.11	0.743
2633.04	0.74
2641.97	0.737
2650.9	0.736
2659.82	0.734
2668.75	0.7339
2677.68	0.7309
2686.61	0.723
2695.54	0.72
2704.47	0.717
2713.4	0.713
2722.32	0.7078
2731.25	0.7019
2740.18	0.6978
2749.11	0.694
2758.04	0.689
2766.97	0.6867
2775.9	0.6806
2784.82	0.6657
2793.75	0.6568
2802.68	0.653
2811.61	0.6471
2820.54	0.6222
2829.47	0.5943
2838.4	0.424
2847.32	0.5452
2856.25	0.6014
2865.18	0.606
2874.11	0.6033
2883.04	0.5734
2891.97	0.5503
2900.9	0.5263
2909.82	0.498
2918.75	0.4857
2927.68	0.4332
2936.61	0.4502
2945.54	0.434
2954.47	0.4072
2963.4	0.3694
2972.32	0.4494
2981.25	0.5116
2990.18	0.5124
2999.11	0.4394
3008.04	0.3447
3016.97	0.4804
3025.9	0.5014
3034.82	0.5056
3043.75	0.4878
3052.68	0.4337
3061.61	0.3624
3070.54	0.2733
3079.47	0.2282
3088.4	0.2723
3097.32	0.3341
3106.25	0.4143
3115.18	0.42
3124.11	0.3583
3133.04	0.2764
3141.97	0.28
3150.9	0.4201
3159.82	0.445
3168.75	0.4343
3177.68	0.3961
3186.61	0.3194
3195.54	0.2465
3204.47	0.3165
3213.4	0.3355
3222.33	0.332
3231.25	0.286
3240.18	0.2089
3249.11	0.156
3258.04	0.1428
3266.97	0.1758
3275.9	0.191
3284.83	0.188
3293.75	0.2373
3302.68	0.3892
3311.61	0.4801
3320.54	0.5338
3329.47	0.5662
3338.4	0.5943
3347.33	0.6231
3356.25	0.6356
3365.18	0.6416
3374.11	0.6456
3383.04	0.648
3391.97	0.646
3400.9	0.648
3409.83	0.649
3418.75	0.6453
3427.68	0.635
3436.61	0.636
3445.54	0.6404
3454.47	0.642
3463.4	0.641
3472.33	0.641
3481.25	0.639
3490.18	0.638
3499.11	0.636
3508.04	0.635
3516.97	0.6325
3525.9	0.631
3534.83	0.629
3543.75	0.6272
3552.68	0.625
3561.61	0.6224
3570.54	0.621
3579.47	0.617
3588.4	0.6142
3597.33	0.613
3606.25	0.61
3615.18	0.607
3624.11	0.6061
3633.04	0.606
3641.97	0.606
3650.9	0.604
3659.83	0.603
3668.75	0.6012
3677.68	0.601
3686.61	0.6
3695.54	0.599
3704.47	0.597
3713.4	0.597
3722.33	0.5941
3731.25	0.593
3740.18	0.592
3749.11	0.59
3758.04	0.589
3766.97	0.585
3775.9	0.582
3784.83	0.579
3793.75	0.579
