Infrared Spectrum: p-(2-Chloroethoxy)benzaldehyde
Formula: C 9 H 9 Cl O 2
CAS: 54373-15-8
State: gas
Origin: EPA-IR VAPOR PHASE LIBRARY
1/CM	ABSORBANCE
549.8	0.001671
559.445	0.0010429
569.09	0.0010653
578.734	0.001165
588.379	0.002211
598.024	0.004591
607.669	0.006491
617.313	0.005571
626.958	0.002751
636.603	0.002821
646.248	0.003171
655.893	0.002771
665.537	0.002401
675.182	0.003151
684.827	0.004211
694.472	0.003341
704.116	0.002141
713.761	0.002111
723.406	0.002261
733.051	0.004081
742.695	0.006911
752.34	0.006101
761.985	0.003571
771.63	0.002881
781.275	0.002391
790.919	0.003371
800.564	0.004621
810.209	0.007801
819.854	0.012931
829.498	0.016141
839.143	0.016281
848.788	0.016081
858.433	0.010891
868.078	0.005741
877.722	0.004501
887.367	0.004541
897.012	0.003241
906.657	0.001531
916.301	0.0009638
925.946	0.0009709
935.591	0.001301
945.236	0.001441
954.88	0.001831
964.525	0.001631
974.17	0.002061
983.815	0.002281
993.46	0.002901
1003.1	0.004471
1012.75	0.008021
1022.39	0.012901
1032.04	0.016941
1041.68	0.014241
1051.33	0.007271
1060.97	0.004861
1070.62	0.004851
1080.26	0.003871
1089.91	0.003441
1099.55	0.004161
1109.2	0.003861
1118.84	0.003321
1128.49	0.003301
1138.13	0.004041
1147.78	0.010161
1157.42	0.048861
1167.07	0.038781
1176.71	0.008831
1186.36	0.009171
1196	0.017211
1205.64	0.026221
1215.29	0.029271
1224.93	0.043881
1234.58	0.060291
1244.22	0.063481
1253.87	0.051971
1263.51	0.029681
1273.16	0.015371
1282.8	0.013071
1292.45	0.018031
1302.09	0.023701
1311.74	0.016801
1321.38	0.009291
1331.03	0.005771
1340.67	0.004251
1350.32	0.003751
1359.96	0.003121
1369.61	0.003351
1379.25	0.005671
1388.9	0.007881
1398.54	0.004511
1408.18	0.003151
1417.83	0.004101
1427.47	0.005261
1437.12	0.004171
1446.76	0.003601
1456.41	0.005701
1466.05	0.005761
1475.7	0.005271
1485.34	0.005301
1494.99	0.010151
1504.63	0.026851
1514.28	0.018291
1523.92	0.005601
1533.57	0.003281
1543.21	0.002951
1552.86	0.003351
1562.5	0.005481
1572.15	0.012531
1581.79	0.026051
1591.44	0.038671
1601.08	0.059681
1610.73	0.037371
1620.37	0.012691
1630.01	0.005441
1639.66	0.003741
1649.3	0.003381
1658.95	0.003421
1668.59	0.004141
1678.24	0.005481
1687.88	0.007271
1697.53	0.012231
1707.17	0.029231
1716.82	0.082081
1726.46	0.054191
1736.11	0.011061
1745.75	0.003991
1755.4	0.002301
1765.04	0.001801
1774.69	0.001481
1784.33	0.0012609
1793.98	0.0011208
1803.62	0.0011154
1813.27	0.0010013
1822.91	0.000869
1832.55	0.0008233
1842.2	0.000843
1851.84	0.0009268
1861.49	0.0008778
1871.13	0.0008611
1880.78	0.0010397
1890.42	0.0012442
1900.07	0.001331
1909.71	0.0010972
1919.36	0.000857
1929	0.0008694
1938.65	0.0009225
1948.29	0.0008491
1957.94	0.0008219
1967.58	0.0010172
1977.23	0.0010649
1986.87	0.0010592
1996.52	0.0011627
2006.16	0.001331
2015.81	0.001411
2025.45	0.0011947
2035.1	0.0010796
2044.74	0.0011099
2054.38	0.0011519
2064.03	0.0011455
2073.67	0.0010281
2083.32	0.0007866
2092.96	0.000854
2102.61	0.0007171
2112.25	0.0005707
2121.9	0.0006035
2131.54	0.0005325
2141.19	0.0005047
2150.83	0.0005157
2160.48	0.0004878
2170.12	0.00035855
2179.77	0.00038404
2189.41	0.0004345
2199.06	0.00031478
2208.7	0.00037573
2218.35	0.0004238
2227.99	0.000415
2237.64	0.0004709
2247.28	0.0005201
2256.92	0.0005558
2266.57	0.0006189
2276.21	0.0005387
2285.86	0.0005459
2295.5	0.0005141
2305.15	0.0005106
2314.79	0.0005768
2324.44	0.0005097
2334.08	0.000443
2343.73	0.0004372
2353.37	0.0003968
2363.02	0.0004265
2372.66	0.0004518
2382.31	0.0005389
2391.95	0.0005318
2401.6	0.0006444
2411.24	0.0007126
2420.89	0.0006743
2430.53	0.0006139
2440.18	0.0006389
2449.82	0.0007385
2459.47	0.000779
2469.11	0.0008452
2478.75	0.0007237
2488.4	0.0008017
2498.04	0.0008199
2507.69	0.0008462
2517.33	0.000822
2526.98	0.0007647
2536.62	0.0008673
2546.27	0.0009844
2555.91	0.0008945
2565.56	0.0009724
2575.2	0.0009916
2584.85	0.0010966
2594.49	0.0009462
2604.14	0.0008577
2613.78	0.0008985
2623.43	0.0007325
2633.07	0.0008335
2642.72	0.0007641
2652.36	0.0007239
2662.01	0.0009547
2671.65	0.001381
2681.29	0.002201
2690.94	0.003041
2700.58	0.004191
2710.23	0.007101
2719.87	0.010971
2729.52	0.011591
2739.16	0.007841
2748.81	0.004701
2758.45	0.003451
2768.1	0.003421
2777.74	0.004181
2787.39	0.006331
2797.03	0.007601
2806.68	0.008071
2816.32	0.008921
2825.97	0.007091
2835.61	0.004171
2845.26	0.002841
2854.9	0.002251
2864.55	0.002531
2874.19	0.002981
2883.84	0.003221
2893.48	0.003201
2903.12	0.003061
2912.77	0.002941
2922.41	0.003091
2932.06	0.003321
2941.7	0.003671
2951.35	0.004021
2960.99	0.004771
2970.64	0.005141
2980.28	0.004981
2989.93	0.003791
2999.57	0.002991
3009.22	0.002991
3018.86	0.002761
3028.51	0.002841
3038.15	0.003081
3047.8	0.002071
3057.44	0.001591
3067.09	0.001871
3076.73	0.002591
3086.38	0.001971
3096.02	0.001881
3105.67	0.001641
3115.31	0.00121
3124.95	0.0008313
3134.6	0.00034632
3144.24	0.0004615
3153.89	0.0005758
3163.53	0.000433
3173.18	0.0004101
3182.82	0.0002548
3192.47	0.0004169
3202.11	0.00032031
3211.76	0.0002482
3221.4	0.00019
3231.05	0.000105
3240.69	8.5e-05
3250.34	8.9e-05
3259.98	0.0002118
3269.63	0.00016
3279.27	0.0002456
3288.92	0.00038799
3298.56	0.0002211
3308.21	0.0002485
3317.85	0.0002673
3327.49	0.0002092
3337.14	0.00030743
3346.78	0.0002238
3356.43	0.0002647
3366.07	0.000151
3375.72	0.00032758
3385.36	0.00038446
3395.01	0.0004822
3404.65	0.0009828
3414.3	0.0011788
3423.94	0.000882
3433.59	0.0008584
3443.23	0.0004391
3452.88	0.000156
3462.52	0.000141
3472.17	0.0002391
3481.81	0.000128
3491.46	0.000157
3501.1	0.000186
3510.75	0.0002685
3520.39	0.00031107
3530.04	0.0001937
3539.68	0.00033975
3549.32	0.0002282
3558.97	0.000142
3568.61	0.000121
3578.26	0.000291357
3587.9	0.0002202
3597.55	0.0003986
3607.19	0.000183
3616.84	0.00017
3626.48	0.0003632
3636.13	0.00033341
3645.77	0.00028547
3655.42	0.00030352
3665.06	0.00033704
3674.71	0.00035558
3684.35	0.00029936
3694	0.00028594
3703.64	0.0002674
3713.29	0.000116
3722.93	0.0002283
3732.58	0.0001942
3742.22	0.0002439
3751.86	0.000226
3761.51	0.00028781
3771.15	0.000157
3780.8	0.0004263
3790.44	0.00028303
3800.09	0.00034694
3809.73	0.00034886
3819.38	0.00032071
3829.02	0.000292169
3838.67	0.000109
3848.31	0.00011
3857.96	0.000171
3867.6	0.00038305
3877.25	0.0002687
3886.89	0.000202
3896.54	0.000113
3906.18	0.00019
3915.83	0.000298559
3925.47	0.000213
3935.12	0.0003823
3944.76	0.0002469
3954.41	0.0002582
3964.05	0.00030381
3973.69	0.0002251
3983.34	0.00037501
3992.98	0.00034153
