Infrared Spectrum: p-Propoxybenzoic acid
Formula: C 10 H 12 O 3
CAS: 5438-19-7
State: gas
Origin: EPA-IR VAPOR PHASE LIBRARY
1/CM	ABSORBANCE
549.8	0.007954
559.445	0.010634
569.09	0.012214
578.734	0.010464
588.379	0.010914
598.024	0.013034
607.669	0.017784
617.313	0.021244
626.958	0.007804
636.603	0.005284
646.248	0.002604
655.893	0.001924
665.537	0.001794
675.182	0.002864
684.827	0.005674
694.472	0.009734
704.116	0.010184
713.761	0.007674
723.406	0.004414
733.051	0.002844
742.695	0.003024
752.34	0.005344
761.985	0.012244
771.63	0.017894
781.275	0.011514
790.919	0.005894
800.564	0.004034
810.209	0.003954
819.854	0.003354
829.498	0.005194
839.143	0.009654
848.788	0.011224
858.433	0.006634
868.078	0.003224
877.722	0.002304
887.367	0.002454
897.012	0.002434
906.657	0.002754
916.301	0.002624
925.946	0.002564
935.591	0.002864
945.236	0.003364
954.88	0.004614
964.525	0.008934
974.17	0.018634
983.815	0.019054
993.46	0.011294
1003.1	0.012334
1012.75	0.015224
1022.39	0.011724
1032.04	0.010834
1041.68	0.016104
1051.33	0.021884
1060.97	0.033894
1070.62	0.055234
1080.26	0.071944
1089.91	0.036604
1099.55	0.015664
1109.2	0.010924
1118.84	0.010154
1128.49	0.009824
1138.13	0.012484
1147.78	0.023714
1157.42	0.080274
1167.07	0.108644
1176.71	0.039364
1186.36	0.037804
1196	0.026144
1205.64	0.017644
1215.29	0.022124
1224.93	0.035134
1234.58	0.053934
1244.22	0.074014
1253.87	0.086434
1263.51	0.056014
1273.16	0.030754
1282.8	0.023784
1292.45	0.025004
1302.09	0.028984
1311.74	0.025254
1321.38	0.027764
1331.03	0.028294
1340.67	0.018754
1350.32	0.018384
1359.96	0.033424
1369.61	0.027824
1379.25	0.011584
1388.9	0.010214
1398.54	0.008564
1408.18	0.007184
1417.83	0.009584
1427.47	0.007204
1437.12	0.004974
1446.76	0.005134
1456.41	0.006504
1466.05	0.009094
1475.7	0.012014
1485.34	0.008714
1494.99	0.011934
1504.63	0.031564
1514.28	0.033244
1523.92	0.012044
1533.57	0.005634
1543.21	0.004594
1552.86	0.004704
1562.5	0.006284
1572.15	0.011054
1581.79	0.017174
1591.44	0.026854
1601.08	0.055394
1610.73	0.057774
1620.37	0.023204
1630.01	0.008434
1639.66	0.004374
1649.3	0.003434
1658.95	0.003184
1668.59	0.003014
1678.24	0.003094
1687.88	0.003854
1697.53	0.004674
1707.17	0.006014
1716.82	0.007954
1726.46	0.010674
1736.11	0.023844
1745.75	0.072134
1755.4	0.156554
1765.04	0.078984
1774.69	0.022844
1784.33	0.009974
1793.98	0.006044
1803.62	0.004524
1813.27	0.004074
1822.91	0.003414
1832.55	0.002214
1842.2	0.001534
1851.84	0.0012167
1861.49	0.0011139
1871.13	0.0011042
1880.78	0.001344
1890.42	0.001594
1900.07	0.002024
1909.71	0.002164
1919.36	0.002084
1929	0.001834
1938.65	0.001654
1948.29	0.001464
1957.94	0.001334
1967.58	0.001384
1977.23	0.001394
1986.87	0.001234
1996.52	0.0011561
2006.16	0.0011672
2015.81	0.001224
2025.45	0.0012004
2035.1	0.001075
2044.74	0.0010755
2054.38	0.0009824
2064.03	0.0009345
2073.67	0.0009321
2083.32	0.0009995
2092.96	0.0009713
2102.61	0.0008031
2112.25	0.0007416
2121.9	0.0007766
2131.54	0.0008084
2141.19	0.0008999
2150.83	0.0009068
2160.48	0.0008203
2170.12	0.0007491
2179.77	0.0005203
2189.41	0.0005594
2199.06	0.0004481
2208.7	0.0005293
2218.35	0.0005615
2227.99	0.0006308
2237.64	0.0005707
2247.28	0.0004869
2256.92	0.0004338
2266.57	0.0004064
2276.21	0.0005074
2285.86	0.0004421
2295.5	0.0004793
2305.15	0.0005646
2314.79	0.0006249
2324.44	0.0007096
2334.08	0.0006949
2343.73	0.0006629
2353.37	0.0006348
2363.02	0.0006549
2372.66	0.000773
2382.31	0.0007049
2391.95	0.0008558
2401.6	0.0008235
2411.24	0.0009168
2420.89	0.0010492
2430.53	0.0010196
2440.18	0.0010331
2449.82	0.0009629
2459.47	0.0008663
2469.11	0.0008107
2478.75	0.000845
2488.4	0.0009558
2498.04	0.0009191
2507.69	0.000887
2517.33	0.0009259
2526.98	0.0009037
2536.62	0.0010432
2546.27	0.001334
2555.91	0.001394
2565.56	0.001274
2575.2	0.001284
2584.85	0.0011523
2594.49	0.0010294
2604.14	0.0010841
2613.78	0.000953
2623.43	0.0006489
2633.07	0.0005648
2642.72	0.0005423
2652.36	0.0004383
2662.01	0.0005986
2671.65	0.0003837
2681.29	0.0006461
2690.94	0.0006309
2700.58	0.0005959
2710.23	0.0007039
2719.87	0.000635
2729.52	0.0008361
2739.16	0.0009139
2748.81	0.001244
2758.45	0.001284
2768.1	0.001364
2777.74	0.001264
2787.39	0.0011175
2797.03	0.0010002
2806.68	0.0011885
2816.32	0.001274
2825.97	0.001624
2835.61	0.002114
2845.26	0.002624
2854.9	0.003694
2864.55	0.005534
2874.19	0.007564
2883.84	0.010454
2893.48	0.011644
2903.12	0.010674
2912.77	0.010864
2922.41	0.012094
2932.06	0.014104
2941.7	0.016284
2951.35	0.017754
2960.99	0.018074
2970.64	0.022004
2980.28	0.021694
2989.93	0.013484
2999.57	0.006154
3009.22	0.003914
3018.86	0.003104
3028.51	0.002244
3038.15	0.001954
3047.8	0.002324
3057.44	0.002774
3067.09	0.002634
3076.73	0.003264
3086.38	0.003574
3096.02	0.002564
3105.67	0.002224
3115.31	0.001844
3124.95	0.001364
3134.6	0.0008481
3144.24	0.0009064
3153.89	0.0009015
3163.53	0.0007452
3173.18	0.0005939
3182.82	0.0003725
3192.47	0.0004103
3202.11	0.0005962
3211.76	0.0004104
3221.4	0.0003805
3231.05	0.0002484
3240.69	0.0003577
3250.34	0.00026854
3259.98	0.0001975
3269.63	0.00027948
3279.27	0.00029984
3288.92	0.0001542
3298.56	0.0001371
3308.21	0.0001832
3317.85	0.0003539
3327.49	0.00023458
3337.14	0.0001749
3346.78	0.0002049
3356.43	0.000327
3366.07	0.00030932
3375.72	0.00030467
3385.36	0.0001285
3395.01	0.00012
3404.65	0.0001755
3414.3	0.00024755
3423.94	0.00022181
3433.59	0.0003597
3443.23	0.0001496
3452.88	0.00029543
3462.52	0.0002106
3472.17	0.0003463
3481.81	0.0008086
3491.46	0.0010874
3501.1	0.0011001
3510.75	0.0007617
3520.39	0.0006531
3530.04	0.0004129
3539.68	0.00047
3549.32	0.0006764
3558.97	0.001474
3568.61	0.004814
3578.26	0.028124
3587.9	0.045364
3597.55	0.006654
3607.19	0.001534
3616.84	0.0008386
3626.48	0.0006263
3636.13	0.0004351
3645.77	0.0003962
3655.42	0.000227002
3665.06	0.0003255
3674.71	0.0004128
3684.35	0.0004443
3694	0.000381
3703.64	0.0003957
3713.29	0.00023735
3722.93	7.6e-05
3732.58	0.000209
3742.22	0.00025417
3751.86	7.4e-05
3761.51	8.1e-05
3771.15	8.5e-05
3780.8	0.00023516
3790.44	0.00029062
3800.09	0.000230692
3809.73	0.0002021
3819.38	0.0002026
3829.02	9e-05
3838.67	0.00022167
3848.31	6.7e-05
3857.96	0.00024114
3867.6	0.00028717
3877.25	0.0001313
3886.89	0.00018
3896.54	0.0001535
3906.18	0.00029306
3915.83	0.00022146
3925.47	0.00023135
3935.12	0.0001383
3944.76	0.00023161
3954.41	0.00024294
3964.05	0.00027553
3973.69	0.0001288
3983.34	0.0001832
3992.98	0.0001505
