Infrared Spectrum: 4,6-DIMETHYL PYRIDINE-2-ALDEHYDE
Formula: C8 H9 N O
CAS: 5439-01-0
State: SOLUTION (10% CCl4 FOR 5000-1330, 10% CS2 FOR 1330-625 CM^-^1)
Class: COBLENTZ
Instrument: Not specified, most likely a prism, grating, or hybrid spectrometer.
Sampling: TRANSMISSION
Path length: 0.0123 CM, 0.0123 CM
Resolution: 4
Origin: DOW CHEMICAL COMPANY
MICROMETERS	TRANSMITTANCE
2.021	0.899
2.06201	0.897
2.10303	0.895
2.14404	0.882
2.18505	0.89
2.22606	0.88
2.26708	0.885
2.30809	0.89
2.3491	0.897
2.39011	0.892
2.43113	0.89
2.47214	0.897
2.51315	0.899
2.55417	0.9
2.59518	0.902
2.63619	0.899
2.6772	0.89
2.71822	0.89
2.75923	0.882
2.80024	0.882
2.84125	0.871
2.88227	0.844
2.92328	0.844
2.96429	0.854
3.0053	0.851
3.04632	0.849
3.08733	0.844
3.12834	0.837
3.16936	0.829
3.21037	0.784
3.25138	0.714
3.29239	0.666
3.33341	0.606
3.37442	0.56
3.41543	0.68
3.45644	0.615
3.49746	0.432
3.53847	0.591
3.57948	0.781
3.6205	0.789
3.66151	0.793
3.70252	0.834
3.74353	0.873
3.78455	0.878
3.82556	0.88
3.86657	0.878
3.90758	0.88
3.9486	0.873
3.98961	0.882
4.03062	0.883
4.07164	0.883
4.11265	0.885
4.15366	0.885
4.19467	0.876
4.23569	0.873
4.2767	0.88
4.31771	0.882
4.35872	0.887
4.39974	0.899
4.44075	0.9
4.48176	0.905
4.52277	0.904
4.56379	0.905
4.6048	0.904
4.64581	0.909
4.68683	0.911
4.72784	0.909
4.76885	0.909
4.80986	0.902
4.85088	0.905
4.89189	0.9
4.9329	0.897
4.97391	0.888
5.01493	0.892
5.05594	0.89
5.09695	0.885
5.13797	0.88
5.17898	0.878
5.21999	0.88
5.261	0.882
5.30202	0.885
5.34303	0.88
5.38404	0.878
5.42505	0.876
5.46607	0.878
5.50708	0.871
5.54809	0.859
5.58911	0.844
5.63012	0.81
5.67113	0.776
5.71214	0.69
5.75316	0.461
5.79417	0.193
5.83518	0.063
5.87619	0.198
5.91721	0.603
5.95822	0.712
5.99923	0.764
6.04024	0.764
6.08126	0.741
6.12227	0.702
6.16328	0.482
6.2043	0.143
6.24531	0.328
6.28632	0.317
6.32733	0.264
6.36835	0.3
6.40936	0.333
6.45037	0.364
6.49138	0.458
6.5324	0.5
6.57341	0.541
6.61442	0.582
6.65544	0.617
6.69645	0.605
6.73746	0.531
6.77847	0.4
6.81949	0.353
6.8605	0.341
6.90151	0.382
6.94252	0.446
6.98354	0.485
7.02455	0.519
7.06556	0.521
7.10658	0.509
7.14759	0.511
7.1886	0.406
7.22961	0.4
7.27063	0.562
7.31164	0.615
7.35265	0.553
7.39366	0.692
7.43468	0.781
7.47569	0.782
7.5167	0.738
7.55771	0.594
7.59873	0.521
7.63974	0.644
7.68075	0.7
7.72177	0.659
7.76278	0.671
7.80379	0.752
7.8448	0.75
7.88582	0.7
7.92683	0.659
7.96784	0.618
8.00885	0.676
8.04987	0.678
8.09088	0.613
8.13189	0.646
8.17291	0.61
8.21392	0.492
8.25493	0.57
8.29594	0.731
8.33696	0.755
8.37797	0.757
8.41898	0.765
8.45999	0.714
8.50101	0.651
8.54202	0.651
8.58303	0.724
8.62405	0.764
8.66506	0.711
8.70607	0.552
8.74708	0.572
8.7881	0.664
8.82911	0.688
8.87012	0.752
8.91113	0.731
8.95215	0.721
8.99316	0.769
9.03417	0.781
9.07518	0.788
9.1162	0.794
9.15721	0.798
9.19822	0.801
9.23924	0.805
9.28025	0.806
9.32126	0.803
9.36227	0.791
9.40329	0.781
9.4443	0.776
9.48531	0.76
9.52632	0.731
9.56734	0.678
9.60835	0.63
9.64936	0.618
9.69038	0.63
9.73139	0.641
9.7724	0.646
9.81341	0.659
9.85443	0.697
9.89544	0.714
9.93645	0.694
9.97746	0.641
10.0185	0.635
10.0595	0.577
10.1005	0.581
10.1415	0.728
10.1825	0.779
10.2235	0.803
10.2646	0.818
10.3056	0.823
10.3466	0.82
10.3876	0.808
10.4286	0.791
10.4696	0.769
10.5106	0.738
10.5516	0.731
10.5927	0.74
10.6337	0.659
10.6747	0.545
10.7157	0.528
10.7567	0.61
10.7977	0.656
10.8387	0.652
10.8797	0.613
10.9208	0.666
10.9618	0.741
11.0028	0.762
11.0438	0.764
11.0848	0.76
11.1258	0.758
11.1668	0.769
11.2078	0.769
11.2489	0.755
11.2899	0.743
11.3309	0.721
11.3719	0.7
11.4129	0.68
11.4539	0.658
11.4949	0.634
11.5359	0.6
11.577	0.54
11.618	0.444
11.659	0.297
11.7	0.249
11.741	0.382
11.782	0.516
11.823	0.598
11.864	0.623
11.9051	0.625
11.9461	0.62
11.9871	0.605
12.0281	0.536
12.0691	0.473
12.1101	0.5
12.1511	0.526
12.1922	0.511
12.2332	0.557
12.2742	0.625
12.3152	0.659
12.3562	0.688
12.3972	0.704
12.4382	0.711
12.4792	0.711
12.5203	0.702
12.5613	0.688
12.6023	0.675
12.6433	0.658
12.6843	0.647
12.7253	0.629
12.7663	0.593
12.8073	0.541
12.8484	0.452
12.8894	0.401
12.9304	0.447
12.9714	0.557
13.0124	0.632
13.0534	0.659
13.0944	0.673
13.1354	0.682
13.1765	0.683
13.2175	0.678
13.2585	0.678
13.2995	0.688
13.3405	0.695
13.3815	0.687
13.4225	0.671
13.4635	0.652
13.5046	0.61
13.5456	0.541
13.5866	0.511
13.6276	0.538
13.6686	0.582
13.7096	0.601
13.7506	0.6
13.7916	0.588
13.8327	0.569
13.8737	0.557
13.9147	0.543
13.9557	0.511
13.9967	0.458
14.0377	0.377
14.0787	0.294
14.1197	0.23
14.1608	0.208
14.2018	0.223
14.2428	0.278
14.2838	0.352
14.3248	0.427
14.3658	0.487
14.4068	0.524
14.4478	0.553
14.4889	0.569
14.5299	0.579
14.5709	0.584
14.6119	0.584
14.6529	0.579
14.6939	0.577
14.7349	0.567
14.776	0.557
14.817	0.548
14.858	0.536
14.899	0.519
14.94	0.499
14.981	0.47
15.022	0.441
15.063	0.422
15.1041	0.411
15.1451	0.405
15.1861	0.401
15.2271	0.401
15.2681	0.4
15.3091	0.398
15.3501	0.4
15.3911	0.401
15.4322	0.403
15.4732	0.403
15.5142	0.403
15.5552	0.4
15.5962	0.398
15.6372	0.396
15.6782	0.391
15.7192	0.388
15.7603	0.382
15.8013	0.379
15.8423	0.374
15.8833	0.37
