Infrared Spectrum: 1,3,5-Cycloheptatriene
Formula: C 7 H 8
CAS: 544-25-2
State: gas
Instrument: HP-GC/MS/IRD
Origin: NIST Mass Spectrometry Data Center
1/CM	ABSORBANCE
550	0.0007077
562	0.0006384
574	0.0011634
586	0.001302
598	0.0010437
610	0.00063
622	0.0009261
634	0.0024444
646	0.003738
658	0.0075411
670	0.0049161
682	0.00672
694	0.0110103
706	0.0206766
718	0.0131229
730	0.0123564
742	0.0081753
754	0.0047901
766	0.0016254
778	0.0008925
790	0.0007308
802	0.0005481
814	0.0003444
826	0.0003234
838	0.0002478
850	0.0002646
862	0.0002814
874	0.0002268
886	0.000462
898	0.0006048
910	0.0007245
922	0.0007203
934	0.0005922
946	0.000399
958	0.0002457
970	0.0001617
982	0.0001617
994	0.0002751
1006	0.0004767
1018	0.0005313
1030	0.0004389
1042	0.0003801
1054	0.0003192
1066	0.0001848
1078	4.41e-05
1090	8.61e-05
1102	6.09e-05
1114	6.3e-05
1126	1.68e-05
1138	6.3e-05
1150	2.94e-05
1162	8.61e-05
1174	0.0001848
1186	0.0002499
1198	0.0002856
1210	0.0002016
1222	0.0001638
1234	0.0001911
1246	0.0001365
1258	0.0001449
1270	0.0001113
1282	0.0002793
1294	0.0004599
1306	0.0005019
1318	0.0003024
1330	0.0001134
1342	0.0001617
1354	0.0001995
1366	0.0003297
1378	0.0006552
1390	0.0009534
1402	0.0009324
1414	0.0008211
1426	0.000987
1438	0.0018774
1450	0.0010437
1462	0.0007287
1474	0.0003276
1486	0.0002037
1498	0.0002163
1510	0.0002289
1522	0.0002184
1534	0.000231
1546	0.0001743
1558	0.0001386
1570	0.0001533
1582	0.0003066
1594	0.0005019
1606	0.0007308
1618	0.0008358
1630	0.0005943
1642	0.0004725
1654	0.0004956
1666	0.0006846
1678	0.0008568
1690	0.0007854
1702	0.0005796
1714	0.0003339
1726	0.0004389
1738	0.0006027
1750	0.0006993
1762	0.0005124
1774	0.0002667
1786	0.0001134
1798	0.0001155
1810	0.0001155
1822	0.0001743
1834	0.0001953
1846	0.0002373
1858	0.000357
1870	0.0003402
1882	0.0003339
1894	0.0003066
1906	0.0002814
1918	0.0003087
1930	0.0003003
1942	0.0002625
1954	0.0001806
1966	0.0001239
1978	0.000126
1990	9.03e-05
2002	7.14e-05
2014	6.72e-05
2026	8.82e-05
2038	7.35e-05
2050	6.93e-05
2062	6.51e-05
2074	6.72e-05
2086	6.51e-05
2098	0.000105
2110	8.61e-05
2122	6.51e-05
2134	6.09e-05
2146	7.98e-05
2158	6.3e-05
2170	6.51e-05
2182	7.77e-05
2194	9.66e-05
2206	0.0001176
2218	8.61e-05
2230	0.0001218
2242	0.0001134
2254	0.0001281
2266	9.66e-05
2278	0.000105
2290	9.66e-05
2302	0.000105
2314	0.0001386
2326	0.000126
2338	0.0001491
2350	0.0001848
2362	0.0001386
2374	0.0001722
2386	0.0001995
2398	0.0001596
2410	0.0001827
2422	0.0001785
2434	0.0001596
2446	0.0001512
2458	0.0001365
2470	0.0001197
2482	7.14e-05
2494	9.87e-05
2506	6.51e-05
2518	7.56e-05
2530	9.03e-05
2542	7.77e-05
2554	0.0001008
2566	0.0001113
2578	6.93e-05
2590	0.0001071
2602	8.4e-05
2614	4.41e-05
2626	9.03e-05
2638	8.61e-05
2650	8.19e-05
2662	7.77e-05
2674	8.4e-05
2686	0.0001113
2698	0.0001134
2710	0.0001134
2722	0.0001722
2734	0.0002079
2746	0.0002079
2758	0.0002331
2770	0.0001911
2782	0.0002877
2794	0.0002898
2806	0.0004452
2818	0.0007098
2830	0.0018144
2842	0.0027636
2854	0.0033999
2866	0.0025998
2878	0.0023163
2890	0.0028077
2902	0.001743
2914	0.0011886
2926	0.0006741
2938	0.0008778
2950	0.0026481
2962	0.0054348
2974	0.0063273
2986	0.0054285
2998	0.0047565
3010	0.0105168
3022	0.018732
3034	0.0200739
3046	0.0143766
3058	0.0069699
3070	0.0037443
3082	0.0020139
3094	0.0009366
3106	0.000483
3118	0.0004284
3130	0.0004326
3142	0.0004998
3154	0.0004473
3166	0.0003759
3178	0.0002982
3190	0.0001911
3202	0.0002121
3214	0.0001932
3226	0.0001848
3238	0.0001554
3250	0.0001407
3262	0.0001071
3274	0.0001092
3286	0.000105
3298	9.66e-05
3310	7.77e-05
3322	0.0001218
3334	0.0001155
3346	0.0001029
3358	7.14e-05
3370	7.56e-05
3382	0.0001491
3394	9.87e-05
3406	8.19e-05
3418	0.0001281
3430	0.0001197
3442	0.000147
3454	0.0001218
3466	9.87e-05
3478	0.0001113
3490	0.000147
3502	0.0001407
3514	7.14e-05
3526	0.0001407
3538	0.0001344
3550	0.0001008
3562	0.0001554
3574	0.0001302
3586	0.0001176
3598	0.0001827
3610	0.0001617
3622	0.0002037
3634	0.0001512
3646	0.0002205
3658	0.0001701
3670	0.0002163
3682	0.0002373
3694	0.0002814
3706	0.0001932
3718	0.0002142
3730	0.0002226
3742	0.0002142
3754	0.0002247
3766	0.0002016
3778	0.00021
3790	0.0002121
3802	0.0002289
3814	0.0002415
3826	0.0002772
3838	0.0002016
