Infrared Spectrum: n-Butyl nitrite
Formula: C4 H9 N O2
CAS: 544-16-1
State: GAS (80 mmHg, N2 ADDED, TOTAL PRESSURE 600 mmHg)
Class: COBLENTZ
Instrument: DOW KBr FOREPRISM-GRATING
Instrument parameters: GRATING CHANGED AT 5.0, 7.5, 15.0 MICRON
Sampling: TRANSMISSION
Path length: 5 CM
Resolution: 2
Origin: DOW CHEMICAL COMPANY
1/CM	TRANSMITTANCE
394	0.6938
403	0.6954
412	0.6954
421	0.6935
430	0.6888
439	0.679
448	0.6767
457	0.6702
466	0.654
475	0.6315
484	0.606
493	0.5863
502	0.5895
511	0.6117
520	0.6355
529	0.6313
538	0.6153
547	0.5961
556	0.5576
565	0.4546
574	0.2427
583	0.1181
592	0.1075
601	0.092
610	0.0846
619	0.1244
628	0.2909
637	0.449
646	0.4762
655	0.4485
664	0.4236
673	0.2452
682	0.1243
691	0.112
700	0.19
709	0.4976
718	0.646
727	0.6208
736	0.4805
745	0.3019
754	0.2537
763	0.2203
772	0.0968
781	0.0084
790	0.0088
799	0.0101
808	0.0116
817	0.0164
826	0.0257
835	0.0822
844	0.1344
853	0.2774
862	0.324
871	0.2559
880	0.2313
889	0.3388
898	0.4856
907	0.5307
916	0.5937
925	0.5618
934	0.4716
943	0.387
952	0.3494
961	0.3099
970	0.1767
979	0.1409
988	0.173
997	0.2237
1006	0.3044
1015	0.4428
1024	0.4146
1033	0.4228
1042	0.3894
1051	0.3367
1060	0.3359
1069	0.2866
1078	0.3194
1087	0.4751
1096	0.6307
1105	0.6769
1114	0.6638
1123	0.63
1132	0.5786
1141	0.5881
1150	0.5925
1159	0.6008
1168	0.6235
1177	0.6568
1186	0.6893
1195	0.7064
1204	0.7002
1213	0.6857
1222	0.6573
1231	0.6187
1240	0.5879
1249	0.6006
1258	0.6124
1267	0.6197
1276	0.6434
1285	0.657
1294	0.6538
1303	0.6459
1312	0.6512
1321	0.675
1330	0.6686
1339	0.6117
1348	0.5529
1357	0.4779
1366	0.3061
1375	0.2379
1384	0.2657
1393	0.3849
1402	0.5428
1411	0.6571
1420	0.6855
1429	0.663
1438	0.6051
1447	0.5154
1456	0.3754
1465	0.2853
1474	0.2893
1483	0.4192
1492	0.5763
1501	0.7195
1510	0.7254
1519	0.7672
1528	0.7747
1537	0.7696
1546	0.7636
1555	0.7699
1564	0.7531
1573	0.7425
1582	0.7086
1591	0.6427
1600	0.5119
1609	0.2196
1618	0.0279
1627	0.0356
1636	0.1984
1645	0.3675
1654	0.3204
1663	0.0098
1672	0.0102
1681	0.0251
1690	0.3585
1699	0.6001
1708	0.6939
1717	0.6957
1726	0.7175
1735	0.6999
1744	0.7081
1753	0.7208
1762	0.7556
1771	0.7705
1780	0.7818
1789	0.7326
1798	0.7668
1807	0.7485
1816	0.7799
1825	0.8007
1834	0.8033
1843	0.8017
1852	0.8106
1861	0.8113
1870	0.8113
1879	0.8131
1888	0.8153
1897	0.8181
1906	0.8188
1915	0.8187
1924	0.8184
1933	0.8183
1942	0.818
1951	0.8167
1960	0.8155
1969	0.8152
1978	0.8155
1987	0.8159
1996	0.8166
2005	0.8174
2014	0.8158
2023	0.812
2032	0.8083
2041	0.8052
2050	0.8043
2059	0.8052
2068	0.8077
2077	0.8104
2086	0.813
2095	0.8142
2104	0.8154
2113	0.8166
2122	0.8179
2131	0.8184
2140	0.8181
2149	0.8178
2158	0.8175
2167	0.8172
2176	0.8177
2185	0.8181
2194	0.819
2203	0.8198
2212	0.8196
2221	0.818
2230	0.8139
2239	0.8085
2248	0.8027
2257	0.7976
2266	0.7994
2275	0.8032
2284	0.8045
2293	0.8043
2302	0.8041
2311	0.8091
2320	0.8154
2329	0.8208
2338	0.8226
2347	0.8229
2356	0.825
2365	0.8275
2374	0.8279
2383	0.8255
2392	0.8202
2401	0.815
2410	0.8104
2419	0.8069
2428	0.8054
2437	0.7988
2446	0.7826
2455	0.7666
2464	0.7716
2473	0.7864
2482	0.7914
2491	0.7949
2500	0.8096
2509	0.8201
2518	0.8262
2527	0.83
2536	0.8316
2545	0.832
2554	0.8307
2563	0.8281
2572	0.8254
2581	0.8229
2590	0.8217
2599	0.8232
2608	0.8251
2617	0.827
2626	0.8291
2635	0.8286
2644	0.8252
2653	0.8194
2662	0.8139
2671	0.8088
2680	0.8052
2689	0.8031
2698	0.801
2707	0.7996
2716	0.7979
2725	0.7948
2734	0.7898
2743	0.7867
2752	0.7943
2761	0.8063
2770	0.8066
2779	0.8038
2788	0.7975
2797	0.7884
2806	0.7758
2815	0.7614
2824	0.7404
2833	0.7072
2842	0.6586
2851	0.5959
2860	0.4393
2869	0.3068
2878	0.1744
2887	0.0908
2896	0.1351
2905	0.2183
2914	0.1866
2923	0.1425
2932	0.0984
2941	0.0356
2950	0.0186
2959	0.0173
2968	0.0186
2977	0.0241
2986	0.0562
2995	0.3017
3004	0.5703
3013	0.724
3022	0.743
3031	0.7589
3040	0.7703
3049	0.7799
3058	0.7934
3067	0.8062
3076	0.8154
3085	0.8215
3094	0.8259
3103	0.8297
3112	0.8318
3121	0.8328
3130	0.8328
3139	0.8322
3148	0.831
3157	0.8277
3166	0.8222
3175	0.8112
3184	0.7927
3193	0.7628
3202	0.746
3211	0.7707
3220	0.8022
3229	0.8277
3238	0.8408
3247	0.8436
3256	0.8442
3265	0.8427
3274	0.8376
3283	0.8263
3292	0.7717
3301	0.6003
3310	0.5389
3319	0.5639
3328	0.8298
3337	0.8471
3346	0.8504
3355	0.8525
3364	0.854
3373	0.8551
3382	0.8558
3391	0.8562
3400	0.8562
3409	0.8565
3418	0.8573
3427	0.8583
3436	0.8592
3445	0.8597
3454	0.8603
3463	0.8613
3472	0.8623
3481	0.8625
3490	0.8624
3499	0.8622
3508	0.8624
3517	0.8626
3526	0.8628
3535	0.8629
3544	0.8631
3553	0.8628
3562	0.8625
3571	0.8624
3580	0.8624
3589	0.865
3598	0.8619
3607	0.8584
3616	0.857
3625	0.8569
3634	0.8561
3643	0.8552
3652	0.8563
3661	0.8512
3670	0.8511
3679	0.8516
3688	0.8509
3697	0.8509
3706	0.8527
3715	0.8518
3724	0.8468
3733	0.8457
3742	0.846
3751	0.8525
3760	0.8533
