Infrared Spectrum: SULFIDE, n-BUTYL-
Formula: C8 H18 S
CAS: 544-40-1
State: LIQUID (NEAT)
Boiling point: 186-188 C
Class: COBLENTZ III
Instrument: BAIRD (GRATING)
Instrument parameters: NaCl PRISM
Sampling: TRANSMISSION
Path length: 0.01 CM
Resolution: 2
Origin: WYANDOTTE CHEMICALS CORP.
1/CM	TRANSMITTANCE
4000	0.786
3991	0.7882
3982	0.7904
3973	0.7925
3964	0.7943
3955	0.7951
3946	0.796
3937	0.7968
3928	0.7975
3919	0.7982
3910	0.7995
3901	0.801
3892	0.8025
3883	0.8041
3874	0.8056
3865	0.8068
3856	0.808
3847	0.8091
3838	0.8101
3829	0.8111
3820	0.8122
3811	0.813
3802	0.8135
3793	0.8141
3784	0.8146
3775	0.8151
3766	0.8156
3757	0.816
3748	0.8164
3739	0.8168
3730	0.8171
3721	0.8175
3712	0.8178
3703	0.8183
3694	0.8191
3685	0.8197
3676	0.8204
3667	0.8212
3658	0.8221
3649	0.8232
3640	0.8243
3631	0.8254
3622	0.8259
3613	0.8264
3604	0.8268
3595	0.8273
3586	0.8277
3577	0.8281
3568	0.8285
3559	0.8288
3550	0.829
3541	0.8292
3532	0.8294
3523	0.8296
3514	0.8299
3505	0.8301
3496	0.8303
3487	0.8303
3478	0.8305
3469	0.8306
3460	0.8307
3451	0.8308
3442	0.8309
3433	0.831
3424	0.831
3415	0.8311
3406	0.8311
3397	0.8312
3388	0.8312
3379	0.8313
3370	0.8314
3361	0.8314
3352	0.8312
3343	0.831
3334	0.8309
3325	0.8307
3316	0.8305
3307	0.8303
3298	0.8299
3289	0.8295
3280	0.8292
3271	0.8284
3262	0.8253
3253	0.8214
3244	0.8132
3235	0.8011
3226	0.7819
3217	0.7622
3208	0.7441
3199	0.7311
3190	0.7264
3181	0.7249
3172	0.7236
3163	0.7221
3154	0.7201
3145	0.7178
3136	0.7156
3127	0.7101
3118	0.7036
3109	0.6953
3100	0.6857
3091	0.6708
3082	0.6372
3073	0.5973
3064	0.566
3055	0.5316
3046	0.4656
3037	0.3976
3028	0.3293
3019	0.2606
3010	0.1914
3001	0.1219
2992	0.0522
2983	0.0294
2974	0.0241
2965	0.0217
2956	0.0201
2947	0.0187
2938	0.0181
2929	0.0176
2920	0.0173
2911	0.0171
2902	0.0169
2893	0.0169
2884	0.0169
2875	0.0171
2866	0.0176
2857	0.0188
2848	0.0216
2839	0.0347
2830	0.0645
2821	0.1284
2812	0.2057
2803	0.2835
2794	0.3618
2785	0.4408
2776	0.5202
2767	0.5724
2758	0.5764
2749	0.5779
2740	0.5643
2731	0.564
2722	0.5942
2713	0.6273
2704	0.6607
2695	0.6715
2686	0.6738
2677	0.6748
2668	0.67
2659	0.6651
2650	0.6655
2641	0.6805
2632	0.7383
2623	0.7561
2614	0.7671
2605	0.7765
2596	0.7844
2587	0.7915
2578	0.7983
2569	0.8055
2560	0.8135
2551	0.8198
2542	0.8249
2533	0.828
2524	0.8292
2515	0.8306
2506	0.8355
2497	0.8408
2488	0.8465
2479	0.8525
2470	0.8592
2461	0.8657
2452	0.8711
2443	0.8731
2434	0.8717
2425	0.87
2416	0.8683
2407	0.867
2398	0.8656
2389	0.8642
2380	0.8628
2371	0.8614
2362	0.86
2353	0.8588
2344	0.8578
2335	0.8578
2326	0.8591
2317	0.8608
2308	0.8621
2299	0.864
2290	0.8671
2281	0.8705
2272	0.8737
2263	0.8762
2254	0.8775
2245	0.8788
2236	0.88
2227	0.8805
2218	0.8809
2209	0.8811
2200	0.881
2191	0.8803
2182	0.8796
2173	0.8789
2164	0.8781
2155	0.8778
2146	0.8784
2137	0.8797
2128	0.8831
2119	0.8863
2110	0.8881
2101	0.8895
2092	0.8908
2083	0.8921
2074	0.8939
2065	0.8955
2056	0.8968
2047	0.8981
2038	0.8989
2029	0.8997
2020	0.9006
2011	0.9018
2002	0.903
1993	0.9042
1984	0.9055
1975	0.9068
1966	0.9082
1957	0.9099
1948	0.9121
1939	0.9142
1930	0.9162
1921	0.9181
1912	0.9199
1903	0.9213
1894	0.9227
1885	0.9242
1876	0.9258
1867	0.9273
1858	0.9275
1849	0.928
1840	0.9283
1831	0.9283
1822	0.9283
1813	0.9278
1804	0.9271
1795	0.9256
1786	0.9241
1777	0.9225
1768	0.9214
1759	0.9203
1750	0.9192
1741	0.9175
1732	0.9138
1723	0.9084
1714	0.9017
1705	0.8952
1696	0.8896
1687	0.8844
1678	0.8812
1669	0.88
1660	0.8789
1651	0.8765
1642	0.8727
1633	0.8673
1624	0.8614
1615	0.855
1606	0.8431
1597	0.8367
1588	0.8366
1579	0.8336
1570	0.8234
1561	0.821
1552	0.8095
1543	0.791
1534	0.7604
1525	0.7247
1516	0.6771
1507	0.613
1498	0.4776
1489	0.2991
1480	0.1356
1471	0.0436
1462	0.0363
1453	0.0298
1444	0.0372
1435	0.0619
1426	0.1062
1417	0.2459
1408	0.3848
1399	0.4188
1390	0.1976
1381	0.0976
1372	0.3118
1363	0.3707
1354	0.378
1345	0.39
1336	0.5228
1327	0.5814
1318	0.4882
1309	0.2663
1300	0.1627
1291	0.1527
1282	0.1114
1273	0.0602
1264	0.2844
1255	0.5699
1246	0.5655
1237	0.3332
1228	0.0749
1219	0.0907
1210	0.3789
1201	0.489
1192	0.5184
1183	0.6134
1174	0.7198
1165	0.7938
1156	0.8043
1147	0.8126
1138	0.8354
1129	0.8303
1120	0.7891
1111	0.5299
1102	0.5089
1093	0.5927
1084	0.6468
1075	0.6349
1066	0.6273
1057	0.6002
1048	0.6362
1039	0.7458
1030	0.7807
1021	0.7782
1012	0.7241
1003	0.6798
994	0.6897
985	0.7848
976	0.7826
967	0.6925
958	0.7489
949	0.7941
940	0.8218
931	0.7069
922	0.4403
913	0.3862
904	0.5483
895	0.5682
886	0.6378
877	0.5741
868	0.6633
859	0.7924
850	0.8535
841	0.8608
832	0.8681
823	0.8686
814	0.8333
805	0.7591
796	0.6232
787	0.398
778	0.4658
769	0.5538
760	0.4228
751	0.2728
742	0.2091
733	0.3378
724	0.3524
715	0.4016
706	0.5609
697	0.6924
688	0.7815
679	0.8068
670	0.8121
661	0.8148
652	0.8038
643	0.7978
634	0.7953
625	0.7893
