Infrared Spectrum: 3-Hexen-1-ol (c,t)
Formula: C 6 H 12 O
CAS: 544-12-7
State: gas
Instrument: HP-GC/MS/IRD
Origin: NIST Mass Spectrometry Data Center
1/CM	ABSORBANCE
550	0.0004536
562	0.0002088
574	0.0001332
586	0.0001116
598	0.0001692
610	0.00018
622	4.86e-05
634	0.0001008
646	0.000126
658	7.02e-05
670	7.56e-05
682	7.74e-05
694	8.28e-05
706	9.72e-05
718	4.86e-05
730	0.0001188
742	0.0001026
754	0.0001602
766	0.0002682
778	0.000297
790	0.0003474
802	0.0002682
814	0.0003798
826	0.000378
838	0.000567
850	0.0008586
862	0.001053
874	0.0011808
886	0.0012474
898	0.0013698
910	0.001314
922	0.0014166
934	0.0019818
946	0.0035028
958	0.0055242
970	0.0064872
982	0.0056304
994	0.0047664
1006	0.005067
1018	0.0067806
1030	0.0106956
1042	0.0139734
1054	0.0115398
1066	0.007767
1078	0.0050454
1090	0.0031698
1102	0.0021024
1114	0.0016092
1126	0.001395
1138	0.0013626
1150	0.0013698
1162	0.001476
1174	0.001674
1186	0.0017388
1198	0.001692
1210	0.0016056
1222	0.0015066
1234	0.0014076
1246	0.0014382
1258	0.0015102
1270	0.0016758
1282	0.0019098
1294	0.0021312
1306	0.0020808
1318	0.0020016
1330	0.0020772
1342	0.0021708
1354	0.0021636
1366	0.0025758
1378	0.0032724
1390	0.003375
1402	0.0026406
1414	0.0021222
1426	0.0021294
1438	0.0023022
1450	0.002286
1462	0.002196
1474	0.00189
1486	0.0012474
1498	0.000693
1510	0.0004482
1522	0.0002664
1534	0.000207
1546	0.000153
1558	0.0001332
1570	0.0001044
1582	9.72e-05
1594	9.18e-05
1606	8.28e-05
1618	0.0001062
1630	0.0001008
1642	0.000108
1654	9.36e-05
1666	9.9e-05
1678	0.0001242
1690	0.0001026
1702	0.0001314
1714	0.0001548
1726	0.0001566
1738	0.0001314
1750	0.0001638
1762	0.0001836
1774	0.0001962
1786	0.0002088
1798	0.0001656
1810	0.000126
1822	0.0001098
1834	9.36e-05
1846	5.22e-05
1858	5.4e-05
1870	5.76e-05
1882	7.38e-05
1894	7.38e-05
1906	7.92e-05
1918	5.58e-05
1930	5.4e-05
1942	5.4e-05
1954	3.96e-05
1966	5.58e-05
1978	5.58e-05
1990	5.94e-05
2002	6.84e-05
2014	8.28e-05
2026	0.000126
2038	0.0001278
2050	0.000144
2062	0.0001206
2074	0.0001134
2086	9.9e-05
2098	7.56e-05
2110	5.94e-05
2122	5.76e-05
2134	3.78e-05
2146	4.32e-05
2158	3.06e-05
2170	2.88e-05
2182	3.78e-05
2194	4.68e-05
2206	3.78e-05
2218	3.42e-05
2230	5.22e-05
2242	3.42e-05
2254	3.96e-05
2266	7.74e-05
2278	4.5e-05
2290	4.32e-05
2302	5.22e-05
2314	4.5e-05
2326	5.04e-05
2338	5.76e-05
2350	5.58e-05
2362	7.92e-05
2374	0.0001188
2386	0.0001062
2398	0.0001062
2410	0.0001116
2422	0.0001134
2434	9.18e-05
2446	0.000108
2458	9.36e-05
2470	8.64e-05
2482	0.0001062
2494	0.0001098
2506	0.0001008
2518	0.0001206
2530	0.0001224
2542	9.36e-05
2554	9.9e-05
2566	0.000108
2578	0.0001062
2590	0.000135
2602	0.0001458
2614	0.0001908
2626	0.000207
2638	0.0001944
2650	0.0002106
2662	0.0002394
2674	0.0002988
2686	0.0003258
2698	0.000369
2710	0.0004194
2722	0.0005166
2734	0.0006336
2746	0.0006912
2758	0.000765
2770	0.0008298
2782	0.0009504
2794	0.0010926
2806	0.0012672
2818	0.0017154
2830	0.0025272
2842	0.0038772
2854	0.0058914
2866	0.0081918
2878	0.0106614
2890	0.0117954
2902	0.0124074
2914	0.013932
2926	0.0155052
2938	0.0164502
2950	0.0157032
2962	0.0164484
2974	0.0173718
2986	0.0117108
2998	0.0066618
3010	0.004662
3022	0.0036882
3034	0.0029232
3046	0.0020394
3058	0.0013662
3070	0.0009198
3082	0.0007146
3094	0.0005994
3106	0.0004788
3118	0.000423
3130	0.0003456
3142	0.0003186
3154	0.0002718
3166	0.0002682
3178	0.0001926
3190	0.0001656
3202	0.0001332
3214	6.84e-05
3226	6.48e-05
3238	7.74e-05
3250	9.18e-05
3262	7.92e-05
3274	4.68e-05
3286	5.4e-05
3298	2.52e-05
3310	1.8e-05
3322	5.76e-05
3334	5.76e-05
3346	5.22e-05
3358	2.7e-05
3370	6.84e-05
3382	8.28e-05
3394	7.02e-05
3406	8.46e-05
3418	9.9e-05
3430	8.1e-05
3442	7.38e-05
3454	0.0001116
3466	8.64e-05
3478	0.0001314
3490	9.18e-05
3502	0.000108
3514	0.0001548
3526	3.96e-05
3538	8.82e-05
3550	0.0001566
3562	0.000171
3574	0.0001656
3586	0.0002664
3598	0.0003474
3610	0.0007398
3622	0.0010818
3634	0.0011268
3646	0.0012762
3658	0.0018486
3670	0.002187
3682	0.0014292
3694	0.0006606
3706	0.0003276
3718	0.00027
3730	0.000234
3742	0.0002196
3754	0.0001386
3766	0.0001458
3778	0.0001728
3790	0.0001188
3802	0.0001098
3814	0.0001674
3826	0.0001836
3838	0.0001746
