Infrared Spectrum: 1-IODOHEXADECANE
Formula: C16 H33 I
CAS: 544-77-4
State: SOLUTION (10% IN CCl4 FOR 3800-1330, 10% IN CS2 FOR 1330-400 CM^-^1)
Class: COBLENTZ III
Instrument: DOW KBr FOREPRISM-GRATING
Instrument parameters: BLAZED AT 3.5, 12.0, 20.0 MICRONS AND CHANGED AT 5.0, 7.5, 14.9 MICRONS
Sampling: TRANSMISSION
Path length: 0.011 CM, 0.011 CM
Resolution: 2
Origin: DOW CHEMICAL COMPANY
1/CM	TRANSMITTANCE
384.682	0.198
393.288	0.236
401.894	0.334
410.5	0.596
419.106	0.755
427.711	0.799
436.317	0.823
444.923	0.827
453.529	0.826
462.135	0.818
470.741	0.813
479.347	0.814
487.953	0.814
496.558	0.807
505.164	0.803
513.77	0.829
522.376	0.848
530.982	0.861
539.588	0.869
548.194	0.87
556.8	0.875
565.405	0.876
574.011	0.876
582.617	0.875
591.223	0.856
599.829	0.825
608.435	0.87
617.041	0.884
625.647	0.888
634.252	0.888
642.858	0.884
651.464	0.87
660.07	0.884
668.676	0.909
677.282	0.924
685.888	0.93
694.494	0.931
703.1	0.913
711.705	0.872
720.311	0.733
728.917	0.807
737.523	0.876
746.129	0.911
754.735	0.931
763.341	0.943
771.947	0.952
780.552	0.951
789.158	0.951
797.764	0.961
806.37	0.969
814.976	0.977
823.582	0.983
832.188	0.981
840.794	0.962
849.399	0.892
858.005	0.845
866.611	0.866
875.217	0.897
883.823	0.938
892.429	0.973
901.035	0.998
909.641	1.006
918.246	1.008
926.852	1.006
935.458	1.006
944.064	1.005
952.67	1
961.276	0.997
969.882	0.993
978.488	0.986
987.094	0.981
995.699	0.975
1004.31	0.969
1012.91	0.962
1021.52	0.954
1030.12	0.947
1038.73	0.939
1047.33	0.935
1055.94	0.928
1064.55	0.924
1073.15	0.915
1081.76	0.909
1090.36	0.912
1098.97	0.918
1107.58	0.922
1116.18	0.922
1124.79	0.923
1133.39	0.923
1142	0.907
1150.61	0.903
1159.21	0.891
1167.82	0.838
1176.42	0.829
1185.03	0.844
1193.63	0.836
1202.24	0.811
1210.85	0.822
1219.45	0.846
1228.06	0.86
1236.66	0.879
1245.27	0.892
1253.88	0.897
1262.48	0.892
1271.09	0.889
1279.69	0.895
1288.3	0.888
1296.91	0.88
1305.51	0.88
1314.12	0.903
1322.72	0.931
1331.33	0.926
1339.93	0.911
1348.54	0.877
1357.15	0.869
1365.75	0.868
1374.36	0.881
1382.96	0.9
1391.57	0.955
1400.18	0.954
1408.78	0.951
1417.39	0.932
1425.99	0.814
1434.6	0.798
1443.21	0.76
1451.81	0.67
1460.42	0.505
1469.02	0.3952
1477.63	0.845
1486.23	0.891
1494.84	0.879
1503.45	0.85
1512.05	0.795
1520.66	0.751
1529.26	0.711
1537.87	0.606
1546.48	0.541
1555.08	0.538
1563.69	0.62
1572.29	0.702
1580.9	0.724
1589.51	0.747
1598.11	0.823
1606.72	0.895
1615.32	0.938
1623.93	0.961
1632.53	0.973
1641.14	0.981
1649.75	0.989
1658.35	0.983
1666.96	0.979
1675.56	0.981
1684.17	0.982
1692.78	0.981
1701.38	0.981
1709.99	0.981
1718.59	0.977
1727.2	0.977
1735.8	0.981
1744.41	0.985
1753.02	0.985
1761.62	0.985
1770.23	0.986
1778.83	0.986
1787.44	0.986
1796.05	0.986
1804.65	0.986
1813.26	0.986
1821.86	0.986
1830.47	0.986
1839.08	0.985
1847.68	0.985
1856.29	0.982
1864.89	0.983
1873.5	0.985
1882.1	0.986
1890.71	0.986
1899.32	0.987
1907.92	0.987
1916.53	0.99
1925.13	0.99
1933.74	0.99
1942.35	0.991
1950.95	0.991
1959.56	0.995
1968.16	0.991
1976.77	0.986
1985.38	0.985
1993.98	0.985
2002.59	0.982
2011.19	0.981
2019.8	0.981
2028.4	0.981
2037.01	0.9795
2045.62	0.979
2054.22	0.981
2062.83	0.9848
2071.43	0.987
2080.04	0.986
2088.65	0.985
2097.25	0.987
2105.86	0.987
2114.46	0.987
2123.07	0.987
2131.68	0.987
2140.28	0.985
2148.89	0.982
2157.49	0.981
2166.1	0.981
2174.7	0.982
2183.31	0.982
2191.92	0.982
2200.52	0.982
2209.13	0.982
2217.73	0.981
2226.34	0.982
2234.95	0.982
2243.55	0.979
2252.16	0.9779
2260.76	0.974
2269.37	0.97
2277.98	0.965
2286.58	0.9603
2295.19	0.9598
2303.79	0.9625
2312.4	0.963
2321	0.959
2329.61	0.959
2338.22	0.9617
2346.82	0.965
2355.43	0.967
2364.03	0.969
2372.64	0.971
2381.25	0.973
2389.85	0.975
2398.46	0.975
2407.06	0.975
2415.67	0.975
2424.28	0.977
2432.88	0.977
2441.49	0.978
2450.09	0.978
2458.7	0.979
2467.3	0.979
2475.91	0.979
2484.52	0.979
2493.12	0.979
2501.73	0.978
2510.33	0.9754
2518.94	0.974
2527.55	0.974
2536.15	0.974
2544.76	0.974
2553.36	0.973
2561.97	0.9708
2570.58	0.967
2579.18	0.963
2587.79	0.9617
2596.39	0.9586
2605	0.956
2613.6	0.955
2622.21	0.956
2630.82	0.955
2639.42	0.9513
2648.03	0.9486
2656.63	0.9432
2665.24	0.9342
2673.85	0.932
2682.45	0.9359
2691.06	0.943
2699.66	0.948
2708.27	0.947
2716.88	0.9438
2725.48	0.9404
2734.09	0.9433
2742.69	0.9446
2751.3	0.946
2759.9	0.9426
2768.51	0.9355
2777.12	0.9244
2785.72	0.91
2794.33	0.897
2802.93	0.8632
2811.54	0.8157
2820.15	0.7515
2828.75	0.595
2837.36	0.2949
2845.96	0.0961
2854.57	0.0543
2863.18	0.2912
2871.78	0.406
2880.39	0.3543
2888.99	0.2681
2897.6	0.1947
2906.2	0.0807
2914.81	0.0209
2923.42	0.013
2932.02	0.0187
2940.63	0.09
2949.23	0.196
2957.84	0.1887
2966.45	0.5353
2975.05	0.6979
2983.66	0.8097
2992.26	0.8488
3000.87	0.861
3009.48	0.8815
3018.08	0.9136
3026.69	0.9312
3035.29	0.9437
3043.9	0.954
3052.5	0.956
3061.11	0.9614
3069.72	0.967
3078.32	0.9705
3086.93	0.974
3095.53	0.9786
3104.14	0.982
3112.75	0.9845
3121.35	0.9868
3129.96	0.9898
3138.56	0.99
3147.17	0.99
3155.77	0.989
3164.38	0.989
3172.99	0.99
3181.59	0.9914
3190.2	0.993
3198.8	0.993
3207.41	0.993
3216.02	0.9958
3224.62	0.998
3233.23	0.998
3241.83	0.998
3250.44	0.998
3259.05	0.9994
3267.65	1.0007
3276.26	1.001
3284.86	1.001
3293.47	1.001
3302.07	1.001
3310.68	1.001
3319.29	1.001
3327.89	1.001
3336.5	1.001
3345.1	1.0008
3353.71	1.001
3362.32	1.002
3370.92	1.002
3379.53	1.002
3388.13	1.002
3396.74	1.002
3405.35	1.002
3413.95	1.001
3422.56	1.0003
3431.16	1.0008
3439.77	1.001
3448.37	1.001
3456.98	1.001
3465.59	1.001
3474.19	1
3482.8	1
3491.4	0.998
3500.01	0.998
3508.62	0.998
3517.22	0.998
3525.83	0.995
3534.43	0.994
3543.04	0.994
3551.65	0.994
3560.25	0.993
3568.86	0.991
3577.46	0.991
3586.07	0.991
3594.67	0.9891
3603.28	0.9872
3611.89	0.986
3620.49	0.986
3629.1	0.986
3637.7	0.986
3646.31	0.985
3654.92	0.983
3663.52	0.983
3672.13	0.983
3680.73	0.983
3689.34	0.985
3697.95	0.985
3706.55	0.985
3715.16	0.985
3723.76	0.985
3732.37	0.985
3740.97	0.985
3749.58	0.983
3758.19	0.9849
3766.79	0.983
3775.4	0.982
3784	0.981
3792.61	0.981
3801.22	0.981
