Infrared Spectrum: Diethyl .alpha.-acetamido-.alpha.-(2-cyanoethyl)malonate
Formula: C 12 H 18 N 2 O 5
CAS: 5440-42-6
State: gas
Origin: EPA-IR VAPOR PHASE LIBRARY
1/CM	ABSORBANCE
549.8	0.005807
559.445	0.004207
569.09	0.003497
578.735	0.003197
588.38	0.002847
598.025	0.002827
607.67	0.002247
617.315	0.001967
626.96	0.002097
636.605	0.001857
646.251	0.001787
655.896	0.001947
665.541	0.002127
675.186	0.002497
684.831	0.002577
694.476	0.002167
704.121	0.001747
713.766	0.001417
723.411	0.0012672
733.056	0.0012225
742.701	0.001547
752.346	0.001947
761.991	0.002227
771.636	0.002177
781.281	0.002847
790.926	0.002877
800.571	0.002277
810.216	0.002197
819.861	0.002097
829.507	0.002417
839.152	0.003377
848.797	0.006207
858.442	0.009927
868.087	0.007327
877.732	0.003847
887.377	0.002477
897.022	0.002557
906.667	0.003107
916.312	0.003267
925.957	0.003127
935.602	0.002987
945.247	0.003037
954.892	0.003577
964.537	0.005267
974.182	0.006157
983.827	0.006257
993.472	0.007527
1003.12	0.011707
1012.76	0.019807
1022.41	0.023557
1032.05	0.017977
1041.7	0.012377
1051.34	0.013587
1060.99	0.017637
1070.63	0.019157
1080.28	0.020167
1089.92	0.024337
1099.57	0.023347
1109.21	0.014677
1118.86	0.009487
1128.5	0.008537
1138.15	0.009857
1147.79	0.013537
1157.44	0.020087
1167.08	0.027557
1176.73	0.036647
1186.37	0.056217
1196.02	0.074197
1205.66	0.067277
1215.31	0.060367
1224.95	0.050867
1234.6	0.047427
1244.24	0.050107
1253.89	0.049257
1263.53	0.057507
1273.18	0.058447
1282.82	0.052467
1292.47	0.040887
1302.11	0.029727
1311.76	0.021117
1321.4	0.014067
1331.05	0.011137
1340.69	0.009517
1350.34	0.009677
1359.98	0.013287
1369.63	0.022597
1379.27	0.017777
1388.92	0.010867
1398.56	0.009347
1408.21	0.008647
1417.85	0.009447
1427.5	0.013027
1437.14	0.018117
1446.79	0.021917
1456.43	0.023197
1466.08	0.032827
1475.73	0.048647
1485.37	0.051977
1495.02	0.036327
1504.66	0.021507
1514.31	0.013817
1523.95	0.010007
1533.6	0.007777
1543.24	0.006147
1552.89	0.004977
1562.53	0.004137
1572.18	0.003517
1581.82	0.003207
1591.47	0.002887
1601.11	0.002687
1610.76	0.002637
1620.4	0.002707
1630.05	0.002927
1639.69	0.003137
1649.34	0.003357
1658.98	0.003967
1668.63	0.004867
1678.27	0.005827
1687.92	0.008287
1697.56	0.018527
1707.21	0.057847
1716.85	0.058197
1726.5	0.025047
1736.14	0.027617
1745.79	0.061457
1755.43	0.067417
1765.08	0.063777
1774.72	0.045077
1784.37	0.019747
1794.01	0.009347
1803.66	0.006057
1813.3	0.004407
1822.95	0.003397
1832.59	0.002777
1842.24	0.002347
1851.88	0.002007
1861.53	0.001817
1871.17	0.001647
1880.82	0.001477
1890.46	0.0012481
1900.11	0.0011925
1909.75	0.001021
1919.4	0.0009701
1929.04	0.0009118
1938.69	0.0009221
1948.33	0.0008915
1957.98	0.0008155
1967.62	0.0007719
1977.27	0.0007838
1986.91	0.0007481
1996.56	0.0007082
2006.2	0.0007349
2015.85	0.0007882
2025.49	0.0007135
2035.14	0.0007938
2044.78	0.0008349
2054.43	0.0008346
2064.07	0.0008062
2073.72	0.0007964
2083.36	0.0008208
2093.01	0.0008036
2102.65	0.0007323
2112.3	0.0007594
2121.94	0.0007564
2131.59	0.000744
2141.23	0.0006626
2150.88	0.0006812
2160.52	0.000674
2170.17	0.0005672
2179.81	0.0005636
2189.46	0.000555
2199.1	0.0004991
2208.75	0.0005347
2218.39	0.0005226
2228.04	0.0005924
2237.68	0.000903
2247.33	0.001477
2256.97	0.0012499
2266.62	0.0007389
2276.26	0.0005973
2285.91	0.0005052
2295.55	0.0005517
2305.2	0.0005538
2314.84	0.0005449
2324.49	0.0005625
2334.13	0.0005562
2343.78	0.0005273
2353.42	0.0006184
2363.07	0.000551
2372.72	0.0005992
2382.36	0.0006396
2392.01	0.0006737
2401.65	0.0006905
2411.3	0.0006694
2420.94	0.0006598
2430.59	0.000521
2440.23	0.000528
2449.88	0.000551
2459.52	0.0004793
2469.17	0.000503
2478.81	0.0004906
2488.46	0.00037081
2498.1	0.00032794
2507.75	0.0003991
2517.39	0.00037325
2527.04	0.00030885
2536.68	0.00033087
2546.33	0.00035643
2555.97	0.00033392
2565.62	0.00031892
2575.26	0.000292583
2584.91	0.0002284
2594.55	0.0002617
2604.2	0.0002715
2613.84	0.00034508
2623.49	0.0002516
2633.13	0.0002302
2642.78	0.0002741
2652.42	0.000186
2662.07	0.0002023
2671.71	0.00031471
2681.36	0.0002155
2691	0.0002058
2700.65	0.0002704
2710.29	0.000291928
2719.94	0.0002292
2729.58	0.0004079
2739.23	0.00034491
2748.87	0.0004695
2758.52	0.0003882
2768.16	0.0004859
2777.81	0.0004606
2787.45	0.0005692
2797.1	0.000469
2806.74	0.000617
2816.39	0.0007014
2826.03	0.0009493
2835.68	0.0010199
2845.32	0.0012444
2854.97	0.001477
2864.61	0.001737
2874.26	0.002337
2883.9	0.003447
2893.55	0.003687
2903.19	0.004187
2912.84	0.005227
2922.48	0.005607
2932.13	0.008197
2941.77	0.012867
2951.42	0.010847
2961.06	0.008607
2970.71	0.012017
2980.35	0.017827
2990	0.020617
2999.64	0.013217
3009.29	0.008937
3018.93	0.005827
3028.58	0.003817
3038.22	0.002597
3047.87	0.001967
3057.51	0.001587
3067.16	0.0012107
3076.8	0.0010399
3086.45	0.0009853
3096.09	0.0007874
3105.74	0.0007115
3115.38	0.0005478
3125.03	0.0006612
3134.67	0.0003933
3144.32	0.0004683
3153.96	0.0004238
3163.61	0.0004232
3173.25	0.00035111
3182.9	0.00037641
3192.54	0.00030639
3202.19	0.0002351
3211.83	0.00033551
3221.48	0.0002207
3231.12	0.000145
3240.77	0.0001916
3250.41	0.0002527
3260.06	0.00035041
3269.7	9.5e-05
3279.35	0.00030609
3289	0.0002455
3298.64	0.00015
3308.29	0.00028144
3317.93	0.0002512
3327.58	0.00032265
3337.22	0.00037083
3346.87	0.0003965
3356.51	0.0004259
3366.16	0.0005963
3375.8	0.0007757
3385.45	0.0011221
3395.09	0.001977
3404.74	0.004827
3414.38	0.011267
3424.03	0.013407
3433.67	0.010097
3443.32	0.005787
3452.96	0.003327
3462.61	0.003317
3472.25	0.002827
3481.9	0.001967
3491.54	0.001317
3501.19	0.0007672
3510.83	0.0007823
3520.48	0.0007603
3530.12	0.000626
3539.77	0.0006179
3549.41	0.0004071
3559.06	0.00034126
3568.7	0.0002588
3578.35	0.000264
3587.99	0.000246
3597.64	0.00028113
3607.28	8.4e-05
3616.93	0.0001962
3626.57	0.0002664
3636.22	0.000155
3645.86	0.0002132
3655.51	8.3e-05
3665.15	1.2e-05
3674.8	0.000294503
3684.44	8.3e-05
3694.09	0.0002644
3703.73	0.00028289
3713.38	0.00028946
3723.02	0.0002354
3732.67	0.000152
3742.31	6.6e-05
3751.96	9.5e-05
3761.6	0.00031655
3771.25	0.0002298
3780.89	0.00034146
3790.54	0.00031864
3800.18	0.000295174
3809.83	0.0001988
3819.47	0.00030372
3829.12	0.00037492
3838.76	0.000144
3848.41	0.00037679
3858.05	0.000391
3867.7	0.000233
3877.34	0.0003241
3886.99	0.0002337
3896.63	0.0002466
3906.28	0.0003443
3915.92	0.00032095
3925.57	0.00034318
3935.21	0.00032422
3944.86	0.00035324
3954.5	0.0002352
3964.15	0.0004958
3973.79	0.00034689
3983.44	0.0004211
3993.08	0.0004841
