Infrared Spectrum: 2-Propanone, 6-purinylthio)-
Formula: C8 H8 N4 O S
CAS: 5441-78-1
State: SOLID (0.9 mg / 650 mg KBr DISC)
Class: COBLENTZ III
Instrument: PERKIN-ELMER 21 (GRATING)
Instrument parameters: FILTER CHANGE ABOUT 1020 CM^-^1
Sampling: TRANSMISSION
Resolution: 2
Origin: SOUTHERN RESEARCH INSTITUTE
1/CM	TRANSMITTANCE
601.726	0.3728
610.761	0.3902
619.796	0.384
628.831	0.3705
637.867	0.3812
646.902	0.4187
655.937	0.5878
664.972	0.5735
674.007	0.5132
683.042	0.622
692.078	0.6451
701.113	0.646
710.148	0.6464
719.183	0.6466
728.218	0.6462
737.253	0.6453
746.289	0.6442
755.324	0.6422
764.359	0.624
773.394	0.6052
782.429	0.5712
791.464	0.4972
800.499	0.583
809.535	0.5778
818.57	0.5292
827.605	0.3996
836.64	0.2721
845.675	0.2879
854.71	0.5306
863.746	0.5485
872.781	0.4945
881.816	0.3873
890.851	0.3514
899.886	0.5596
908.921	0.4741
917.957	0.3584
926.992	0.3064
936.027	0.2665
945.062	0.1953
954.097	0.1918
963.132	0.5617
972.167	0.5946
981.203	0.5929
990.238	0.5058
999.273	0.3954
1008.31	0.6526
1017.34	0.686
1026.38	0.6852
1035.41	0.6789
1044.45	0.6723
1053.48	0.6609
1062.52	0.6475
1071.55	0.6354
1080.59	0.6201
1089.62	0.6001
1098.66	0.5786
1107.69	0.5478
1116.73	0.4876
1125.77	0.3653
1134.8	0.2858
1143.84	0.2102
1152.87	0.3132
1161.91	0.4636
1170.94	0.5658
1179.98	0.5569
1189.01	0.5073
1198.05	0.4748
1207.08	0.3815
1216.12	0.2906
1225.15	0.2517
1234.19	0.0504
1243.22	0.2404
1252.26	0.5714
1261.29	0.5343
1270.33	0.4367
1279.36	0.3926
1288.4	0.4185
1297.43	0.5888
1306.47	0.5524
1315.5	0.3712
1324.54	0.1818
1333.57	0.3025
1342.61	0.4651
1351.64	0.3353
1360.68	0.3376
1369.71	0.2426
1378.75	0.0418
1387.78	0.0812
1396.82	0.2722
1405.86	0.5731
1414.89	0.4059
1423.93	0.2172
1432.96	0.4348
1442	0.5136
1451.03	0.6278
1460.07	0.6147
1469.1	0.5475
1478.14	0.5989
1487.17	0.6468
1496.21	0.6337
1505.24	0.588
1514.28	0.5464
1523.31	0.5123
1532.35	0.4487
1541.38	0.398
1550.42	0.3556
1559.45	0.0832
1568.49	0.0334
1577.52	0.0856
1586.56	0.1903
1595.59	0.2141
1604.63	0.5061
1613.66	0.6214
1622.7	0.6389
1631.73	0.631
1640.77	0.6089
1649.8	0.6026
1658.84	0.6014
1667.87	0.5762
1676.91	0.5439
1685.94	0.503
1694.98	0.3198
1704.02	0.1612
1713.05	0.24
1722.09	0.5362
1731.12	0.5603
1740.16	0.5468
1749.19	0.5274
1758.23	0.512
1767.26	0.5049
1776.3	0.4931
1785.33	0.4994
1794.37	0.5173
1803.4	0.5285
1812.44	0.5238
1821.47	0.5288
1830.51	0.5423
1839.54	0.5529
1848.58	0.5612
1857.61	0.5667
1866.65	0.5675
1875.68	0.567
1884.72	0.566
1893.75	0.5655
1902.79	0.5661
1911.82	0.5678
1920.86	0.5758
1929.89	0.5887
1938.93	0.5925
1947.96	0.5914
1957	0.59
1966.03	0.5885
1975.07	0.5896
1984.11	0.5914
1993.14	0.5946
2002.18	0.5963
2011.21	0.5928
2020.25	0.5889
2029.28	0.5853
2038.32	0.5799
2047.35	0.5752
2056.39	0.5707
2065.42	0.5662
2074.46	0.5617
2083.49	0.5574
2092.53	0.5538
2101.56	0.5399
2110.6	0.5365
2119.63	0.531
2128.67	0.5244
2137.7	0.5175
2146.74	0.5098
2155.77	0.5004
2164.81	0.4907
2173.84	0.4813
2182.88	0.4717
2191.91	0.462
2200.95	0.4525
2209.98	0.4426
2219.02	0.4318
2228.05	0.4186
2237.09	0.4036
2246.12	0.3902
2255.16	0.3786
2264.2	0.369
2273.23	0.3617
2282.27	0.3553
2291.3	0.3482
2300.34	0.3323
2309.37	0.3005
2318.41	0.2725
2327.44	0.2612
2336.48	0.2604
2345.51	0.26
2354.55	0.2628
2363.58	0.2667
2372.62	0.2696
2381.65	0.2697
2390.69	0.2679
2399.72	0.2656
2408.76	0.2629
2417.79	0.2604
2426.83	0.2578
2435.86	0.2539
2444.9	0.25
2453.93	0.243
2462.97	0.2361
2472	0.2304
2481.04	0.2259
2490.07	0.2227
2499.11	0.2198
2508.14	0.2179
2517.18	0.2167
2526.21	0.2161
2535.25	0.2166
2544.28	0.2165
2553.32	0.2208
2562.36	0.2251
2571.39	0.2312
2580.43	0.2361
2589.46	0.2356
2598.5	0.2337
2607.53	0.2311
2616.57	0.2292
2625.6	0.228
2634.64	0.2278
2643.67	0.2293
2652.71	0.2315
2661.74	0.2348
2670.78	0.2389
2679.81	0.2441
2688.85	0.2524
2697.88	0.2637
2706.92	0.275
2715.95	0.2742
2724.99	0.2671
2734.02	0.2572
2743.06	0.2505
2752.09	0.2458
2761.13	0.2491
2770.16	0.2593
2779.2	0.2725
2788.23	0.2904
2797.27	0.3115
2806.3	0.3278
2815.34	0.3444
2824.37	0.3597
2833.41	0.376
2842.45	0.3891
2851.48	0.3919
2860.52	0.3919
2869.55	0.3907
2878.59	0.386
2887.62	0.3758
2896.66	0.3634
2905.69	0.3553
2914.73	0.3507
2923.76	0.3515
2932.8	0.3501
2941.83	0.3524
2950.87	0.3584
2959.9	0.3671
2968.94	0.3817
2977.97	0.4032
2987.01	0.4209
2996.04	0.4359
3005.08	0.4352
3014.11	0.4282
3023.15	0.4105
3032.18	0.3945
3041.22	0.3873
3050.25	0.3901
3059.29	0.3966
3068.32	0.4073
3077.36	0.4169
3086.39	0.4248
3095.43	0.4321
3104.46	0.4477
3113.5	0.469
3122.54	0.4839
3131.57	0.4952
3140.61	0.5018
3149.64	0.5049
3158.68	0.5062
3167.71	0.5066
3176.75	0.5068
3185.78	0.507
3194.82	0.509
3203.85	0.5151
3212.89	0.5195
3221.92	0.5207
3230.96	0.5215
3239.99	0.5218
3249.03	0.5218
3258.06	0.5219
3267.1	0.5213
3276.13	0.5203
3285.17	0.5184
3294.2	0.5161
3303.24	0.5132
3312.27	0.5091
3321.31	0.5043
3330.34	0.4982
3339.38	0.4908
3348.41	0.4828
3357.45	0.475
3366.48	0.4671
3375.52	0.4589
3384.55	0.4525
3393.59	0.4487
3402.62	0.4382
3411.66	0.4318
3420.7	0.4316
3429.73	0.4316
3438.77	0.4324
3447.8	0.4331
3456.84	0.4341
3465.87	0.4352
3474.91	0.4387
3483.94	0.4428
3492.98	0.4471
3502.01	0.4518
3511.05	0.4565
3520.08	0.4611
3529.12	0.4651
3538.15	0.469
3547.19	0.4743
3556.22	0.4805
3565.26	0.4872
3574.29	0.4929
3583.33	0.4976
3592.36	0.503
3601.4	0.5074
3610.43	0.5121
3619.47	0.5173
3628.5	0.5205
3637.54	0.5226
3646.57	0.5229
3655.61	0.5225
3664.64	0.5212
3673.68	0.5199
3682.71	0.5185
3691.75	0.5171
3700.79	0.516
3709.82	0.5153
3718.86	0.5158
3727.89	0.5163
3736.93	0.5167
3745.96	0.5171
3755	0.518
3764.03	0.5194
3773.07	0.5212
3782.1	0.5232
3791.14	0.525
3800.17	0.5228
3809.21	0.5182
3818.24	0.5123
3827.28	0.5069
3836.31	0.5031
3845.35	0.5003
3854.38	0.499
3863.42	0.4979
3872.45	0.4971
3881.49	0.4964
3890.52	0.4957
3899.56	0.4949
3908.59	0.4939
3917.63	0.4933
3926.66	0.4928
3935.7	0.49
3944.73	0.485
3953.77	0.4836
3962.8	0.4844
3971.84	0.485
3980.87	0.4846
3989.91	0.4815
3998.95	0.4768
4007.98	0.4688
