Infrared Spectrum: Purine, 2,6-bis(benzylthio)-
Formula: C19 H16 N4 S2
CAS: 5441-77-0
State: SOLID (0.9 mg / 650 mg KBr DISC)
Class: COBLENTZ III
Instrument: PERKIN-ELMER 21 (GRATING)
Instrument parameters: FILTER CHANGE ABOUT 1090 CM^-^1
Sampling: TRANSMISSION
Resolution: 2
Origin: SOUTHERN RESEARCH INSTITUTE
1/CM	TRANSMITTANCE
600.327	0.6688
609.363	0.6743
618.399	0.6649
627.436	0.6411
636.472	0.5082
645.508	0.5699
654.544	0.6712
663.58	0.6311
672.616	0.591
681.653	0.524
690.689	0.4452
699.725	0.2429
708.761	0.4819
717.797	0.3096
726.834	0.6441
735.87	0.658
744.906	0.6785
753.942	0.631
762.978	0.4181
772.014	0.5798
781.051	0.6941
790.087	0.5723
799.123	0.7003
808.159	0.6739
817.195	0.6502
826.232	0.6306
835.268	0.5914
844.304	0.4061
853.34	0.3424
862.376	0.4748
871.412	0.2717
880.449	0.4196
889.485	0.5727
898.521	0.6467
907.557	0.6862
916.593	0.6132
925.63	0.5519
934.666	0.5732
943.702	0.5642
952.738	0.3405
961.774	0.6779
970.81	0.7573
979.847	0.7617
988.883	0.7395
997.919	0.7052
1006.96	0.6636
1015.99	0.6129
1025.03	0.6526
1034.06	0.636
1043.1	0.7429
1052.14	0.7415
1061.17	0.7305
1070.21	0.6359
1079.24	0.5994
1088.28	0.7499
1097.32	0.6967
1106.35	0.6786
1115.39	0.6547
1124.43	0.6042
1133.46	0.6274
1142.5	0.618
1151.53	0.553
1160.57	0.3849
1169.61	0.3934
1178.64	0.5521
1187.68	0.6103
1196.72	0.6006
1205.75	0.5514
1214.79	0.5245
1223.82	0.2391
1232.86	0.0934
1241.9	0.2335
1250.93	0.46
1259.97	0.5442
1269	0.6012
1278.04	0.6191
1287.08	0.5791
1296.11	0.3333
1305.15	0.4433
1314.19	0.5337
1323.22	0.3537
1332.26	0.0295
1341.29	0.1731
1350.33	0.5266
1359.37	0.6179
1368.4	0.6951
1377.44	0.6703
1386.47	0.6736
1395.51	0.6102
1404.55	0.5463
1413.58	0.5139
1422.62	0.6714
1431.66	0.6971
1440.69	0.6812
1449.73	0.5456
1458.76	0.4851
1467.8	0.6377
1476.84	0.64
1485.87	0.6431
1494.91	0.4156
1503.95	0.6364
1512.98	0.6174
1522.02	0.5848
1531.05	0.4985
1540.09	0.3193
1549.13	0.0923
1558.16	0.0987
1567.2	0.2005
1576.23	0.4826
1585.27	0.4251
1594.31	0.2371
1603.34	0.3128
1612.38	0.5629
1621.42	0.679
1630.45	0.6908
1639.49	0.6968
1648.52	0.7045
1657.56	0.7137
1666.6	0.7202
1675.63	0.7176
1684.67	0.7126
1693.71	0.7076
1702.74	0.7035
1711.78	0.7008
1720.81	0.6986
1729.85	0.6954
1738.89	0.6954
1747.92	0.6978
1756.96	0.7007
1765.99	0.7017
1775.03	0.6986
1784.07	0.6912
1793.1	0.6826
1802.14	0.6893
1811.18	0.7156
1820.21	0.7245
1829.25	0.7282
1838.28	0.7339
1847.32	0.7349
1856.36	0.7336
1865.39	0.7323
1874.43	0.7249
1883.46	0.7289
1892.5	0.7332
1901.54	0.7376
1910.57	0.7404
1919.61	0.7393
1928.65	0.7321
1937.68	0.7214
1946.72	0.711
1955.75	0.7114
1964.79	0.7298
1973.83	0.7291
1982.86	0.7284
1991.9	0.729
2000.94	0.7301
2009.97	0.7258
2019.01	0.7191
2028.04	0.7174
2037.08	0.7159
2046.12	0.7151
2055.15	0.7155
2064.19	0.718
2073.22	0.7153
2082.26	0.7083
2091.3	0.7049
2100.33	0.7055
2109.37	0.7044
2118.41	0.6984
2127.44	0.6925
2136.48	0.6895
2145.51	0.686
2154.55	0.6825
2163.59	0.6802
2172.62	0.6816
2181.66	0.6816
2190.7	0.674
2199.73	0.6683
2208.77	0.6626
2217.8	0.657
2226.84	0.6529
2235.88	0.6474
2244.91	0.6428
2253.95	0.6386
2262.98	0.6342
2272.02	0.6294
2281.06	0.6223
2290.09	0.6104
2299.13	0.591
2308.17	0.5671
2317.2	0.5449
2326.24	0.534
2335.27	0.531
2344.31	0.531
2353.35	0.5336
2362.38	0.5404
2371.42	0.5482
2380.45	0.548
2389.49	0.5445
2398.53	0.5403
2407.56	0.5349
2416.6	0.5285
2425.64	0.5216
2434.67	0.5146
2443.71	0.5078
2452.74	0.5011
2461.78	0.4952
2470.82	0.4901
2479.85	0.4723
2488.89	0.4599
2497.93	0.4514
2506.96	0.4432
2516	0.4347
2525.03	0.4262
2534.07	0.4185
2543.11	0.412
2552.14	0.4115
2561.18	0.4135
2570.21	0.4155
2579.25	0.421
2588.29	0.4257
2597.32	0.4147
2606.36	0.4134
2615.4	0.4068
2624.43	0.4001
2633.47	0.3902
2642.5	0.3823
2651.54	0.3777
2660.58	0.3762
2669.61	0.3781
2678.65	0.3799
2687.69	0.3811
2696.72	0.3824
2705.76	0.3832
2714.79	0.3847
2723.83	0.3892
2732.87	0.3963
2741.9	0.3968
2750.94	0.3948
2759.97	0.3825
2769.01	0.3818
2778.05	0.3866
2787.08	0.3956
2796.12	0.4071
2805.16	0.4194
2814.19	0.4369
2823.23	0.4601
2832.26	0.4707
2841.3	0.4749
2850.34	0.4778
2859.37	0.4837
2868.41	0.4893
2877.45	0.4817
2886.48	0.4698
2895.52	0.4343
2904.55	0.4138
2913.59	0.4078
2922.63	0.4062
2931.66	0.4077
2940.7	0.4155
2949.73	0.4261
2958.77	0.4372
2967.81	0.4494
2976.84	0.4799
2985.88	0.4829
2994.92	0.4757
3003.95	0.4655
3012.99	0.449
3022.02	0.4297
3031.06	0.4274
3040.1	0.4252
3049.13	0.4222
3058.17	0.4082
3067.2	0.4196
3076.24	0.4395
3085.28	0.4405
3094.31	0.4455
3103.35	0.4628
3112.39	0.5197
3121.42	0.5572
3130.46	0.5689
3139.49	0.5752
3148.53	0.5787
3157.57	0.5785
3166.6	0.5774
3175.64	0.5772
3184.68	0.5842
3193.71	0.5866
3202.75	0.586
3211.78	0.5866
3220.82	0.5866
3229.86	0.5863
3238.89	0.586
3247.93	0.5846
3256.96	0.5832
3266	0.5818
3275.04	0.5787
3284.07	0.5741
3293.11	0.57
3302.15	0.5647
3311.18	0.5588
3320.22	0.5535
3329.25	0.5482
3338.29	0.5412
3347.33	0.5346
3356.36	0.5281
3365.4	0.523
3374.44	0.516
3383.47	0.5097
3392.51	0.5038
3401.54	0.4993
3410.58	0.4955
3419.62	0.4916
3428.65	0.4879
3437.69	0.4855
3446.72	0.4849
3455.76	0.4868
3464.8	0.4935
3473.83	0.4962
3482.87	0.4949
3491.91	0.4961
3500.94	0.4982
3509.98	0.5036
3519.01	0.5132
3528.05	0.5112
3537.09	0.5114
3546.12	0.5263
3555.16	0.5326
3564.19	0.5335
3573.23	0.5385
3582.27	0.5473
3591.3	0.5505
3600.34	0.5529
3609.38	0.5573
3618.41	0.562
3627.45	0.5645
3636.48	0.5636
3645.52	0.5609
3654.56	0.5587
3663.59	0.5632
3672.63	0.5686
3681.67	0.5688
3690.7	0.5683
3699.74	0.5677
3708.77	0.5672
3717.81	0.567
3726.85	0.5668
3735.88	0.5666
3744.92	0.5663
3753.95	0.5661
3762.99	0.5661
3772.03	0.566
3781.06	0.5673
3790.1	0.5701
3799.14	0.5711
3808.17	0.5686
3817.21	0.5625
3826.24	0.5591
3835.28	0.5588
3844.32	0.5592
3853.35	0.5588
3862.39	0.5575
3871.43	0.554
3880.46	0.5522
3889.5	0.5523
3898.53	0.551
3907.57	0.5496
3916.61	0.5511
3925.64	0.5529
3934.68	0.5571
3943.71	0.5602
3952.75	0.5519
3961.79	0.5441
3970.82	0.543
3979.86	0.5445
3988.9	0.5475
3997.93	0.5503
4006.97	0.547
