Infrared Spectrum: 3,5-Dimethylcyclohexanol
Formula: C 8 H 16 O
CAS: 5441-52-1
State: gas
Instrument: HP-GC/MS/IRD
Origin: NIST Mass Spectrometry Data Center
1/CM	ABSORBANCE
550	0.0001104
562	0.000132
574	0
586	5.76e-05
598	0.0001656
610	0.0001776
622	0.0001104
634	0.0001968
646	0.0001632
658	0.0001176
670	0.0001272
682	0.0001872
694	0.0001848
706	0.0001368
718	0.0001224
730	0.0001344
742	0.0001296
754	6.96e-05
766	6.24e-05
778	6.24e-05
790	8.88e-05
802	0.0001032
814	0.0001248
826	0.0002784
838	0.0007728
850	0.0011784
862	0.000816
874	0.0003912
886	0.0003816
898	0.000696
910	0.0006792
922	0.0003984
934	0.0005304
946	0.0007992
958	0.00108
970	0.0011688
982	0.0009192
994	0.001212
1006	0.0029088
1018	0.0074496
1030	0.0117816
1042	0.007368
1054	0.001608
1066	0.0011232
1078	0.001524
1090	0.0023832
1102	0.003588
1114	0.0034104
1126	0.0018912
1138	0.0011304
1150	0.0010392
1162	0.0013008
1174	0.0014136
1186	0.0011616
1198	0.0011664
1210	0.0016392
1222	0.0022368
1234	0.002148
1246	0.0017784
1258	0.0020472
1270	0.0023304
1282	0.0020832
1294	0.0014616
1306	0.0010416
1318	0.0010056
1330	0.0013656
1342	0.002076
1354	0.003252
1366	0.0043392
1378	0.0039768
1390	0.0027624
1402	0.0015888
1414	0.0009864
1426	0.0009384
1438	0.0013944
1450	0.0027024
1462	0.004116
1474	0.0024096
1486	0.0008376
1498	0.0003792
1510	0.0002328
1522	0.0001752
1534	0.0001848
1546	0.000168
1558	0.0001224
1570	0.000108
1582	0.0001128
1594	0.0001248
1606	0.00012
1618	8.64e-05
1630	8.4e-05
1642	8.64e-05
1654	7.2e-05
1666	6.96e-05
1678	7.2e-05
1690	6.96e-05
1702	7.68e-05
1714	0.0001152
1726	0.0002064
1738	0.0001536
1750	6.24e-05
1762	2.4e-05
1774	4.56e-05
1786	5.52e-05
1798	4.8e-05
1810	3.12e-05
1822	2.88e-05
1834	3.36e-05
1846	2.88e-05
1858	3.12e-05
1870	3.12e-05
1882	5.04e-05
1894	2.16e-05
1906	1.68e-05
1918	0
1930	9.6e-06
1942	9.6e-06
1954	9.6e-06
1966	1.44e-05
1978	3.12e-05
1990	3.84e-05
2002	4.32e-05
2014	3.12e-05
2026	4.32e-05
2038	5.76e-05
2050	7.92e-05
2062	8.88e-05
2074	3.84e-05
2086	1.68e-05
2098	2.64e-05
2110	5.76e-05
2122	3.6e-05
2134	3.36e-05
2146	3.6e-05
2158	3.84e-05
2170	3.6e-05
2182	4.56e-05
2194	6.72e-05
2206	6.48e-05
2218	6.48e-05
2230	6.96e-05
2242	5.28e-05
2254	3.36e-05
2266	2.4e-05
2278	1.92e-05
2290	3.36e-05
2302	5.76e-05
2314	2.88e-05
2326	2.64e-05
2338	3.12e-05
2350	2.16e-05
2362	7.2e-06
2374	0
2386	6e-05
2398	8.64e-05
2410	0.000132
2422	0.000156
2434	0.00012
2446	9.12e-05
2458	9.6e-05
2470	8.16e-05
2482	7.92e-05
2494	9.6e-05
2506	9.36e-05
2518	7.2e-05
2530	8.4e-05
2542	9.12e-05
2554	7.68e-05
2566	6.48e-05
2578	0.0001128
2590	0.0002304
2602	0.000288
2614	0.0003504
2626	0.0003288
2638	0.0003144
2650	0.0003408
2662	0.000348
2674	0.000288
2686	0.0003408
2698	0.0003744
2710	0.0004824
2722	0.0005376
2734	0.0006408
2746	0.0006144
2758	0.0005136
2770	0.0005904
2782	0.0006672
2794	0.0009264
2806	0.0011304
2818	0.0014496
2830	0.0025728
2842	0.0056088
2854	0.007656
2866	0.0086664
2878	0.0115584
2890	0.0123864
2902	0.0142704
2914	0.0199008
2926	0.024
2938	0.0181656
2950	0.0153888
2962	0.0201432
2974	0.0104064
2986	0.0019344
2998	0.0007992
3010	0.0005304
3022	0.0004464
3034	0.0004032
3046	0.0003984
3058	0.0004584
3070	0.0004752
3082	0.0004416
3094	0.0004392
3106	0.0004248
3118	0.0003264
3130	0.0002712
3142	0.000216
3154	0.0002232
3166	0.0002328
3178	0.00024
3190	0.0002472
3202	0.0002016
3214	0.0001104
3226	0.0001032
3238	6.72e-05
3250	3.6e-05
3262	4.56e-05
3274	7.44e-05
3286	2.64e-05
3298	5.04e-05
3310	9.36e-05
3322	0.0001152
3334	0.0001248
3346	8.4e-05
3358	0.0001272
3370	6.24e-05
3382	8.4e-05
3394	0.0001176
3406	0.000156
3418	0.0001128
3430	0.0002112
3442	0.0001608
3454	9.12e-05
3466	0.0001128
3478	8.64e-05
3490	8.64e-05
3502	4.8e-05
3514	5.28e-05
3526	7.2e-05
3538	4.56e-05
3550	7.68e-05
3562	4.56e-05
3574	1.44e-05
3586	8.64e-05
3598	2.88e-05
3610	0.0001056
3622	0.000336
3634	0.0008616
3646	0.0016176
3658	0.0013344
3670	0.0003792
3682	0.0001776
3694	9.12e-05
3706	6.48e-05
3718	6.96e-05
3730	6e-05
3742	6.48e-05
3754	8.4e-05
3766	0.0001032
3778	0.0001536
3790	0.000132
3802	0.0001224
3814	0.0001344
3826	0.0001416
3838	6.96e-05
