Infrared Spectrum: 2,5-DIAZA-5-METHYLCYCLOHEPTANONE
Formula: C6 H12 N2 O
CAS: 5441-40-7
State: SOLUTION (7% IN CHCl3)
Class: COBLENTZ
Instrument: PERKIN-ELMER
Sampling: TRANSMISSION
Path length: 0.010 CM
Resolution: 4
Origin: ABBOTT LABORATORIES - WASHBURN
MICROMETERS	TRANSMITTANCE
2.055	0.949
2.09489	0.951
2.13479	0.953
2.17468	0.9561
2.21458	0.966
2.25447	0.9732
2.29436	0.979
2.33426	0.9827
2.37415	0.9743
2.41405	0.9811
2.45394	0.976
2.49383	0.9763
2.53373	0.986
2.57362	0.983
2.61352	0.984
2.65341	0.989
2.6933	0.9891
2.7332	0.998
2.77309	1.0078
2.81299	0.9946
2.85288	0.9901
2.89277	0.9436
2.93267	0.8893
2.97256	0.7049
3.01246	0.7352
3.05235	0.7054
3.09224	0.6169
3.13214	0.5436
3.17203	0.5511
3.21193	0.673
3.25182	0.7119
3.29171	0.686
3.33161	0.7261
3.3715	0.5551
3.4114	0.2848
3.45129	0.2629
3.49119	0.3276
3.53108	0.4868
3.57097	0.5195
3.61087	0.4054
3.65076	0.5006
3.69066	0.685
3.73055	0.8351
3.77044	0.8692
3.81034	0.9193
3.85023	0.9561
3.89013	0.966
3.93002	0.9587
3.96991	0.9419
4.00981	0.9089
4.0497	0.8815
4.0896	0.8688
4.12949	0.8822
4.16938	0.912
4.20928	0.9583
4.24917	0.9689
4.28907	0.954
4.32896	0.942
4.36885	0.9408
4.40875	0.934
4.44864	0.9269
4.48854	0.9188
4.52843	0.919
4.56832	0.916
4.60822	0.907
4.64811	0.907
4.68801	0.904
4.7279	0.9038
4.76779	0.894
4.80769	0.904
4.84758	0.901
4.88748	0.894
4.92737	0.894
4.96726	0.892
5.00716	0.889
5.04705	0.894
5.08695	0.884
5.12684	0.887
5.16673	0.883
5.20663	0.882
5.24652	0.887
5.28642	0.8822
5.32631	0.88
5.3662	0.88
5.4061	0.874
5.44599	0.872
5.48589	0.8711
5.52578	0.8647
5.56567	0.852
5.60557	0.85
5.64546	0.8449
5.68536	0.8322
5.72525	0.832
5.76514	0.8097
5.80504	0.7536
5.84493	0.6954
5.88483	0.6208
5.92472	0.2922
5.96461	0.0929
6.00451	0.0084
6.0444	0.0107
6.0843	0.1318
6.12419	0.3124
6.16409	0.5247
6.20398	0.6225
6.24387	0.6647
6.28377	0.7157
6.32366	0.7686
6.36356	0.7937
6.40345	0.8
6.44334	0.815
6.48324	0.812
6.52313	0.8076
6.56303	0.796
6.60292	0.7865
6.64281	0.7609
6.68271	0.705
6.7226	0.5521
6.7625	0.3798
6.80239	0.247
6.84228	0.2327
6.88218	0.261
6.92207	0.276
6.96197	0.3542
7.00186	0.2903
7.04175	0.3446
7.08165	0.5235
7.12154	0.578
7.16144	0.5833
7.20133	0.5878
7.24122	0.5576
7.28112	0.3421
7.32101	0.4721
7.36091	0.2859
7.4008	0.6174
7.44069	0.5504
7.48059	0.3793
7.52048	0.6236
7.56038	0.6334
7.60027	0.5063
7.64016	0.3948
7.68006	0.4401
7.71995	0.4346
7.75985	0.162
7.79974	0.4143
7.83963	0.5774
7.87953	0.607
7.91942	0.6042
7.95932	0.5829
7.99921	0.5145
8.0391	0.362
8.079	0.3559
8.11889	0.464
8.15879	0.5275
8.19868	0.5864
8.23857	0.6211
8.27847	0.6411
8.31836	0.6688
8.35826	0.7509
8.39815	0.7355
8.43804	0.628
8.47794	0.4613
8.51783	0.367
8.55773	0.6075
8.59762	0.7195
8.63751	0.733
8.67741	0.724
8.7173	0.7087
8.7572	0.6757
8.79709	0.5755
8.83699	0.4518
8.87688	0.3662
8.91677	0.3623
8.95667	0.365
8.99656	0.2964
9.03646	0.3813
9.07635	0.556
9.11624	0.6478
9.15614	0.6751
9.19603	0.681
9.23593	0.684
9.27582	0.6841
9.31571	0.563
9.35561	0.632
9.3955	0.7329
9.4354	0.7027
9.47529	0.7547
9.51518	0.7642
9.55508	0.7398
9.59497	0.6712
9.63487	0.5301
9.67476	0.6708
9.71465	0.8376
9.75455	0.859
9.79444	0.8526
9.83434	0.8427
9.87423	0.8309
9.91412	0.8138
9.95402	0.7584
9.99391	0.614
10.0338	0.437
10.0737	0.6198
10.1136	0.7717
10.1535	0.8154
10.1934	0.8214
10.2333	0.831
10.2732	0.8146
10.3131	0.7582
10.353	0.5787
10.3929	0.484
10.4327	0.5944
10.4726	0.7718
10.5125	0.805
10.5524	0.8135
10.5923	0.8106
10.6322	0.7699
10.6721	0.6551
10.712	0.5111
10.7519	0.5573
10.7918	0.7087
10.8317	0.7729
10.8716	0.7937
10.9115	0.802
10.9514	0.815
10.9913	0.813
11.0312	0.8175
11.0711	0.825
11.1109	0.8224
11.1508	0.8176
11.1907	0.7946
11.2306	0.7204
11.2705	0.6589
11.3104	0.6821
11.3503	0.7725
11.3902	0.8161
11.4301	0.8485
11.47	0.8594
11.5099	0.8478
11.5498	0.8368
11.5897	0.833
11.6296	0.835
11.6695	0.833
11.7094	0.8376
11.7492	0.842
11.7891	0.8423
11.829	0.8377
11.8689	0.8217
11.9088	0.808
11.9487	0.7982
11.9886	0.7915
12.0285	0.7837
12.0684	0.782
12.1083	0.775
12.1482	0.765
12.1881	0.755
12.228	0.7511
12.2679	0.7348
12.3078	0.733
12.3477	0.7319
12.3876	0.7236
12.4274	0.721
12.4673	0.7207
12.5072	0.7191
12.5471	0.7339
12.587	0.7405
12.6269	0.7592
12.6668	0.783
12.7067	0.817
12.7466	0.8257
12.7865	0.8423
12.8264	0.8519
12.8663	0.8632
12.9062	0.8798
12.9461	0.8936
12.986	0.9066
13.0259	0.9179
13.0658	0.914
13.1056	0.911
13.1455	0.9111
13.1854	0.9142
13.2253	0.9124
13.2652	0.914
13.3051	0.909
13.345	0.911
13.3849	0.909
13.4248	0.909
13.4647	0.912
13.5046	0.911
13.5445	0.9096
13.5844	0.9078
13.6243	0.907
13.6642	0.904
13.7041	0.907
13.744	0.909
13.7838	0.9061
13.8237	0.9044
13.8636	0.8927
13.9035	0.8707
13.9434	0.8363
13.9833	0.815
14.0232	0.8026
14.0631	0.796
14.103	0.791
14.1429	0.7833
14.1828	0.7708
14.2227	0.7738
14.2626	0.7671
14.3025	0.76
14.3424	0.766
14.3823	0.7731
14.4221	0.7847
14.462	0.791
14.5019	0.793
14.5418	0.8011
14.5817	0.812
14.6216	0.8223
14.6615	0.8339
14.7014	0.847
14.7413	0.8567
14.7812	0.8735
14.8211	0.8908
14.861	0.8989
14.9009	0.901
14.9408	0.894
14.9807	0.8864
15.0206	0.846
15.0605	0.7306
15.1003	0.5881
15.1402	0.4785
15.1801	0.5029
15.22	0.6128
15.2599	0.7329
15.2998	0.7688
15.3397	0.791
15.3796	0.8068
15.4195	0.8167
