Infrared Spectrum: ETHER, ALLYL, 2,4-DICHLOROPHENYL,
Formula: C9 H8 Cl2 O
CAS: 5441-16-7
State: SOLUTION (10% IN CCl4 FOR 3800-1300, 10% IN CS2 FOR 1300-650, AND 10% IN CCl4 FOR 650-250 CM^-^1) VERSUS SOLVENT
Class: COBLENTZ III
Instrument: PERKIN-ELMER 521 (GRATING)
Instrument parameters: FILTERS AT 3150, 2500, 2000, 1150, 700, 410; GRATING CHANGES AT 2000, 630 CM^-^1
Sampling: TRANSMISSION
Path length: 0.011, 0.011, AND 0.020 CM (CsBr CELL)
Resolution: 4
Origin: DOW CORNING CORP.
1/CM	TRANSMITTANCE
243.977	0.836
253.155	0.83
262.333	0.822
271.51	0.818
280.688	0.819
289.866	0.833
299.044	0.839
308.222	0.847
317.4	0.851
326.577	0.843
335.755	0.828
344.933	0.822
354.111	0.83
363.289	0.833
372.466	0.821
381.644	0.78
390.822	0.776
400	0.779
409.178	0.768
418.356	0.766
427.533	0.743
436.711	0.6351
445.889	0.7729
455.067	0.801
464.245	0.815
473.422	0.825
482.6	0.825
491.778	0.825
500.956	0.808
510.134	0.791
519.312	0.8
528.489	0.783
537.667	0.7291
546.845	0.5791
556.023	0.3571
565.201	0.583
574.378	0.764
583.556	0.796
592.734	0.787
601.912	0.742
611.09	0.668
620.268	0.704
629.445	0.6621
638.623	0.5101
647.801	0.73
656.979	0.748
666.157	0.828
675.334	0.819
684.512	0.811
693.69	0.778
702.868	0.711
712.046	0.568
721.224	0.711
730.401	0.712
739.579	0.588
748.757	0.299
757.935	0.4169
767.113	0.766
776.29	0.764
785.468	0.693
794.646	0.269
803.824	0.5708
813.002	0.687
822.18	0.703
831.357	0.5101
840.535	0.689
849.713	0.649
858.891	0.628
868.069	0.171
877.246	0.762
886.424	0.779
895.602	0.768
904.78	0.707
913.958	0.5921
923.136	0.2192
932.313	0.3459
941.491	0.714
950.669	0.746
959.847	0.711
969.025	0.625
978.202	0.342
987.38	0.2991
996.558	0.21
1005.74	0.381
1014.91	0.209
1024.09	0.5269
1033.27	0.746
1042.45	0.692
1051.62	0.457
1060.8	0.3071
1069.98	0.693
1079.16	0.6801
1088.34	0.5781
1097.51	0.284
1106.69	0.3369
1115.87	0.5399
1125.05	0.728
1134.23	0.719
1143.4	0.696
1152.58	0.791
1161.76	0.814
1170.94	0.814
1180.11	0.796
1189.29	0.775
1198.47	0.753
1207.65	0.711
1216.83	0.553
1226	0.303
1235.18	0.163
1244.36	0.109
1253.54	0.131
1262.71	0.1327
1271.89	0.3601
1281.07	0.0851
1290.25	0.1689
1299.43	0.4998
1308.6	0.746
1317.78	0.798
1326.96	0.803
1336.14	0.793
1345.32	0.758
1354.49	0.6171
1363.67	0.668
1372.85	0.639
1382.03	0.468
1391.2	0.715
1400.38	0.661
1409.56	0.59
1418.74	0.33
1427.92	0.568
1437.09	0.644
1446.27	0.4491
1455.45	0.257
1464.63	0.21
1473.8	0.009
1482.98	0.02
1492.16	0.3309
1501.34	0.532
1510.52	0.711
1519.69	0.764
1528.87	0.771
1538.05	0.768
1547.23	0.764
1556.4	0.729
1565.58	0.5501
1574.76	0.567
1583.94	0.54
1593.12	0.771
1602.29	0.815
1611.47	0.833
1620.65	0.834
1629.83	0.814
1639.01	0.7601
1648.18	0.8288
1657.36	0.844
1666.54	0.847
1675.72	0.848
1684.89	0.85
1694.07	0.844
1703.25	0.837
1712.43	0.829
1721.61	0.815
1730.78	0.8
1739.96	0.84
1749.14	0.851
1758.32	0.855
1767.49	0.858
1776.67	0.854
1785.85	0.848
1795.03	0.852
1804.21	0.858
1813.38	0.857
1822.56	0.85
1831.74	0.83
1840.92	0.787
1850.1	0.794
1859.27	0.811
1868.45	0.83
1877.63	0.851
1886.81	0.854
1895.98	0.855
1905.16	0.855
1914.34	0.857
1923.52	0.855
1932.7	0.852
1941.87	0.85
1951.05	0.852
1960.23	0.855
1969.41	0.852
1978.58	0.848
1987.76	0.85
1996.94	0.852
2006.12	0.855
2015.3	0.855
2024.47	0.854
2033.65	0.8545
2042.83	0.858
2052.01	0.858
2061.18	0.858
2070.36	0.857
2079.54	0.855
2088.72	0.854
2097.9	0.855
2107.07	0.857
2116.25	0.854
2125.43	0.851
2134.61	0.8539
2143.79	0.8559
2152.96	0.858
2162.14	0.858
2171.32	0.857
2180.5	0.857
2189.67	0.857
2198.85	0.857
2208.03	0.857
2217.21	0.857
2226.39	0.857
2235.56	0.857
2244.74	0.857
2253.92	0.857
2263.1	0.855
2272.27	0.854
2281.45	0.854
2290.63	0.8506
2299.81	0.8471
2308.99	0.847
2318.16	0.8479
2327.34	0.851
2336.52	0.855
2345.7	0.857
2354.88	0.857
2364.05	0.855
2373.23	0.855
2382.41	0.854
2391.59	0.8511
2400.76	0.851
2409.94	0.848
2419.12	0.848
2428.3	0.848
2437.48	0.846
2446.65	0.844
2455.83	0.843
2465.01	0.841
2474.19	0.8407
2483.36	0.837
2492.54	0.834
2501.72	0.833
2510.9	0.831
2520.08	0.8213
2529.25	0.811
2538.43	0.8145
2547.61	0.8253
2556.79	0.8316
2565.96	0.834
2575.14	0.836
2584.32	0.84
2593.5	0.8402
2602.68	0.836
2611.85	0.8398
2621.03	0.843
2630.21	0.844
2639.39	0.844
2648.57	0.843
2657.74	0.843
2666.92	0.84
2676.1	0.837
2685.28	0.836
2694.45	0.8337
2703.63	0.83
2712.81	0.829
2721.99	0.828
2731.17	0.83
2740.34	0.833
2749.52	0.8345
2758.7	0.836
2767.88	0.837
2777.05	0.837
2786.23	0.836
2795.41	0.8285
2804.59	0.8113
2813.77	0.8008
2822.94	0.7978
2832.12	0.7801
2841.3	0.7577
2850.48	0.7027
2859.66	0.6508
2868.83	0.6497
2878.01	0.6627
2887.19	0.6989
2896.37	0.715
2905.54	0.6753
2914.72	0.6572
2923.9	0.6711
2933.08	0.686
2942.26	0.7166
2951.43	0.749
2960.61	0.7732
2969.79	0.7812
2978.97	0.7425
2988.14	0.7429
2997.32	0.7714
3006.5	0.7834
3015.68	0.755
3024.86	0.7755
3034.03	0.808
3043.21	0.8188
3052.39	0.8153
3061.57	0.7926
3070.74	0.7137
3079.92	0.701
3089.1	0.7249
3098.28	0.7622
3107.46	0.831
3116.63	0.8379
3125.81	0.8489
3134.99	0.851
3144.17	0.8487
3153.35	0.8501
3162.52	0.854
3171.7	0.855
3180.88	0.855
3190.06	0.855
3199.23	0.857
3208.41	0.857
3217.59	0.857
3226.77	0.857
3235.95	0.857
3245.12	0.857
3254.3	0.857
3263.48	0.857
3272.66	0.858
3281.83	0.857
3291.01	0.857
3300.19	0.855
3309.37	0.854
3318.55	0.854
3327.72	0.854
3336.9	0.854
3346.08	0.854
3355.26	0.854
3364.43	0.854
3373.61	0.855
3382.79	0.855
3391.97	0.855
3401.15	0.855
3410.32	0.855
3419.5	0.855
3428.68	0.857
3437.86	0.857
3447.04	0.857
3456.21	0.858
3465.39	0.858
3474.57	0.859
3483.75	0.861
3492.92	0.862
3502.1	0.865
3511.28	0.866
3520.46	0.866
3529.64	0.868
3538.81	0.869
3547.99	0.87
3557.17	0.872
3566.35	0.873
3575.52	0.875
3584.7	0.875
3593.88	0.877
3603.06	0.877
3612.24	0.879
3621.41	0.88
3630.59	0.88
3639.77	0.882
3648.95	0.882
3658.13	0.882
3667.3	0.882
3676.48	0.881
3685.66	0.882
3694.84	0.883
3704.01	0.884
3713.19	0.884
3722.37	0.887
3731.55	0.889
3740.73	0.887
3749.9	0.886
3759.08	0.884
3768.26	0.883
3777.44	0.8859
3786.61	0.8894
3795.79	0.891
3804.97	0.891
