Infrared Spectrum: 2-Cyclohexyl-1-propanol
Formula: C 9 H 18 O
CAS: 5442-00-2
State: gas
Instrument: HP-GC/MS/IRD
Origin: NIST Mass Spectrometry Data Center
1/CM	ABSORBANCE
550	0.0004307
562	0.0001357
574	0.0002832
586	0.0003186
598	0.000236
610	0.0002537
622	0.0002891
634	0.0002183
646	0.0001593
658	0.0001357
670	6.49e-05
682	7.08e-05
694	6.49e-05
706	9.44e-05
718	0.0001062
730	5.9e-05
742	7.08e-05
754	0.000118
766	0.0001003
778	0.0001416
790	0.0001062
802	0.0001239
814	0.0001711
826	0.0003304
838	0.0004838
850	0.0007965
862	0.0007257
874	0.0006785
886	0.0010915
898	0.0011328
910	0.0009558
922	0.0010443
934	0.0012213
946	0.0011682
958	0.0013924
970	0.0021771
982	0.0028261
994	0.0040769
1006	0.0065254
1018	0.0104076
1030	0.0111451
1042	0.0089503
1054	0.0052156
1066	0.0029441
1078	0.0022243
1090	0.0018526
1102	0.0016343
1114	0.0015222
1126	0.0012685
1138	0.0011977
1150	0.0011918
1162	0.00118
1174	0.0011505
1186	0.0012744
1198	0.0014868
1210	0.0016461
1222	0.0016579
1234	0.0016166
1246	0.0016225
1258	0.0017877
1270	0.001888
1282	0.001593
1294	0.0014042
1306	0.0013806
1318	0.0013806
1330	0.0015045
1342	0.0017464
1354	0.0018939
1366	0.002183
1378	0.0027553
1390	0.0025016
1402	0.001652
1414	0.0010738
1426	0.0010266
1438	0.0022538
1450	0.0047908
1462	0.0045135
1474	0.0028025
1486	0.0014809
1498	0.0006431
1510	0.000354
1522	0.0002419
1534	0.0001829
1546	0.0001711
1558	0.0001239
1570	0.000118
1582	8.85e-05
1594	7.67e-05
1606	7.67e-05
1618	5.31e-05
1630	5.9e-05
1642	6.49e-05
1654	5.9e-05
1666	5.9e-05
1678	7.08e-05
1690	4.72e-05
1702	3.54e-05
1714	2.95e-05
1726	1.77e-05
1738	2.36e-05
1750	1.77e-05
1762	2.36e-05
1774	4.13e-05
1786	2.95e-05
1798	1.18e-05
1810	2.95e-05
1822	5.9e-06
1834	2.36e-05
1846	1.77e-05
1858	1.18e-05
1870	1.18e-05
1882	3.54e-05
1894	3.54e-05
1906	1.77e-05
1918	2.95e-05
1930	1.77e-05
1942	1.18e-05
1954	5.31e-05
1966	5.31e-05
1978	3.54e-05
1990	2.95e-05
2002	2.95e-05
2014	5.9e-05
2026	6.49e-05
2038	7.67e-05
2050	7.08e-05
2062	6.49e-05
2074	4.72e-05
2086	4.13e-05
2098	1.77e-05
2110	1.77e-05
2122	0
2134	5.9e-06
2146	1.18e-05
2158	1.18e-05
2170	4.72e-05
2182	4.13e-05
2194	7.08e-05
2206	2.36e-05
2218	5.9e-05
2230	4.13e-05
2242	5.9e-05
2254	3.54e-05
2266	5.31e-05
2278	3.54e-05
2290	2.95e-05
2302	2.95e-05
2314	4.72e-05
2326	4.72e-05
2338	5.31e-05
2350	7.67e-05
2362	7.67e-05
2374	8.85e-05
2386	8.85e-05
2398	0.0001062
2410	0.0001121
2422	0.0001121
2434	0.0001062
2446	8.85e-05
2458	5.9e-05
2470	5.9e-05
2482	9.44e-05
2494	0.0001062
2506	0.0001062
2518	8.85e-05
2530	0.0001416
2542	0.0001357
2554	0.0001357
2566	0.0001475
2578	0.0002478
2590	0.0003186
2602	0.0003835
2614	0.0004012
2626	0.0004071
2638	0.0004484
2650	0.0005959
2662	0.0007611
2674	0.0008024
2686	0.000708
2698	0.0006313
2710	0.0006431
2722	0.0006785
2734	0.0007611
2746	0.0008024
2758	0.0008968
2770	0.0010266
2782	0.0012508
2794	0.0015399
2806	0.001711
2818	0.0021063
2830	0.0030444
2842	0.0063071
2854	0.0166203
2866	0.0225144
2878	0.0178593
2890	0.0157884
2902	0.0170805
2914	0.0269512
2926	0.0494774
2938	0.0561031
2950	0.030916
2962	0.0156645
2974	0.0111805
2986	0.0066316
2998	0.0028556
3010	0.0013452
3022	0.0009617
3034	0.0007375
3046	0.0005841
3058	0.0005074
3070	0.0004425
3082	0.0003776
3094	0.0003186
3106	0.0003127
3118	0.0002714
3130	0.0002419
3142	0.0003009
3154	0.000295
3166	0.0002714
3178	0.0002124
3190	0.0001652
3202	0.0001829
3214	0.0001298
3226	0.0001003
3238	0.0001357
3250	8.26e-05
3262	0.000118
3274	7.08e-05
3286	2.95e-05
3298	5.9e-05
3310	5.9e-05
3322	4.13e-05
3334	4.13e-05
3346	0.0001298
3358	0.0001357
3370	0.0001357
3382	0.0001003
3394	0.0001357
3406	0.0001652
3418	0.0001652
3430	0.0002124
3442	0.0001888
3454	0.0001593
3466	0.0002065
3478	0.0001534
3490	0.0001947
3502	0.0002006
3514	0.0001888
3526	0.000118
3538	0.0001593
3550	0.0001652
3562	0.0001239
3574	0.0001534
3586	0.0001888
3598	0.0001711
3610	0.0002242
3622	0.0003068
3634	0.0004661
3646	0.0010089
3658	0.0020532
3670	0.0027553
3682	0.0016756
3694	0.0006608
3706	0.0003894
3718	0.0003363
3730	0.0002714
3742	0.0002419
3754	0.0002655
3766	0.0002714
3778	0.0002832
3790	0.0002419
3802	0.0002714
3814	0.0002419
3826	0.000236
3838	0.0003127
