Infrared Spectrum: 6-(n-Amylmercapto)purine
Formula: C 10 H 14 N 4 S
CAS: 5443-89-0
State: gas
Origin: EPA-IR VAPOR PHASE LIBRARY
1/CM	ABSORBANCE
549.8	0.016452
559.445	0.007002
569.09	0.002802
578.734	0.001362
588.379	0.002172
598.024	0.003852
607.669	0.001542
617.313	0.001682
626.958	0.001972
636.603	0.002672
646.248	0.002922
655.893	0.002192
665.537	0.001902
675.182	0.001572
684.827	0.001412
694.472	0.001121
704.116	0.0011286
713.761	0.001632
723.406	0.002282
733.051	0.001892
742.695	0.001742
752.34	0.001752
761.985	0.001432
771.63	0.001832
781.275	0.001932
790.919	0.002462
800.564	0.002412
810.209	0.002172
819.854	0.003212
829.498	0.005422
839.143	0.012682
848.788	0.016712
858.433	0.007722
868.078	0.003142
877.722	0.002182
887.367	0.001922
897.012	0.002022
906.657	0.004242
916.301	0.009152
925.946	0.002922
935.591	0.002522
945.236	0.003372
954.88	0.004312
964.525	0.007762
974.17	0.013132
983.815	0.034402
993.46	0.025502
1003.1	0.006642
1012.75	0.004142
1022.39	0.002792
1032.04	0.002682
1041.68	0.005042
1051.33	0.005632
1060.97	0.004632
1070.62	0.002642
1080.26	0.002212
1089.91	0.002452
1099.55	0.002552
1109.2	0.002522
1118.84	0.001852
1128.49	0.002032
1138.13	0.002872
1147.78	0.002452
1157.42	0.001782
1167.07	0.002222
1176.71	0.002532
1186.36	0.002982
1196	0.004992
1205.64	0.011652
1215.29	0.014742
1224.93	0.018402
1234.58	0.028302
1244.22	0.018292
1253.87	0.008772
1263.51	0.008782
1273.16	0.007722
1282.8	0.005482
1292.45	0.004822
1302.09	0.007612
1311.74	0.015672
1321.38	0.022962
1331.03	0.012362
1340.67	0.006302
1350.32	0.005772
1359.96	0.008192
1369.61	0.017452
1379.25	0.023002
1388.9	0.010712
1398.54	0.005432
1408.18	0.007762
1417.83	0.015182
1427.47	0.017392
1437.12	0.013752
1446.76	0.007012
1456.41	0.005582
1466.05	0.005622
1475.7	0.006132
1485.34	0.005432
1494.99	0.004032
1504.63	0.003432
1514.28	0.003972
1523.92	0.005102
1533.57	0.010192
1543.21	0.025412
1552.86	0.054692
1562.5	0.071512
1572.15	0.041692
1581.79	0.036502
1591.44	0.031662
1601.08	0.011832
1610.73	0.004192
1620.37	0.002692
1630.01	0.002172
1639.66	0.002212
1649.3	0.002542
1658.95	0.001792
1668.59	0.001412
1678.24	0.001482
1687.88	0.001902
1697.53	0.003342
1707.17	0.005162
1716.82	0.002722
1726.46	0.001502
1736.11	0.001432
1745.75	0.001322
1755.4	0.0012256
1765.04	0.0009628
1774.69	0.0008518
1784.33	0.0007317
1793.98	0.0009204
1803.62	0.0008339
1813.27	0.0008953
1822.91	0.000786
1832.55	0.0008078
1842.2	0.0009127
1851.84	0.0008157
1861.49	0.0009253
1871.13	0.001136
1880.78	0.001442
1890.42	0.001522
1900.07	0.001166
1909.71	0.000886
1919.36	0.0008775
1929	0.0006903
1938.65	0.0007518
1948.29	0.0006292
1957.94	0.0007731
1967.58	0.0009262
1977.23	0.0008699
1986.87	0.000829
1996.52	0.0008065
2006.16	0.0007451
2015.81	0.0007219
2025.45	0.0007857
2035.1	0.000957
2044.74	0.0007282
2054.38	0.0007617
2064.03	0.0007273
2073.67	0.0006639
2083.32	0.000702
2092.96	0.0006223
2102.61	0.0007068
2112.25	0.000472
2121.9	0.0005732
2131.54	0.0006934
2141.19	0.0006421
2150.83	0.0007524
2160.48	0.0007812
2170.12	0.0006379
2179.77	0.0006619
2189.41	0.0006149
2199.06	0.0006971
2208.7	0.0006417
2218.35	0.0006602
2227.99	0.0007099
2237.64	0.0007841
2247.28	0.0007927
2256.92	0.0006922
2266.57	0.0008409
2276.21	0.0008204
2285.86	0.0007695
2295.5	0.0006611
2305.15	0.0007055
2314.79	0.0008303
2324.44	0.0008775
2334.08	0.000799
2343.73	0.0008973
2353.37	0.000926
2363.02	0.0009513
2372.66	0.0009852
2382.31	0.0011239
2391.95	0.0008839
2401.6	0.0011406
2411.24	0.0010362
2420.89	0.0011472
2430.53	0.001502
2440.18	0.0013042
2449.82	0.0010237
2459.47	0.001055
2469.11	0.0010099
2478.75	0.0010527
2488.4	0.0009256
2498.04	0.0009571
2507.69	0.0008032
2517.33	0.0008308
2526.98	0.0010547
2536.62	0.0010462
2546.27	0.0006692
2555.91	0.0009806
2565.56	0.0009735
2575.2	0.000755
2584.85	0.0008034
2594.49	0.0008773
2604.14	0.0008756
2613.78	0.0009705
2623.43	0.0011334
2633.07	0.0010355
2642.72	0.001322
2652.36	0.0009531
2662.01	0.0008901
2671.65	0.0009048
2681.29	0.0011201
2690.94	0.0010236
2700.58	0.0010088
2710.23	0.0009578
2719.87	0.0009605
2729.52	0.0010576
2739.16	0.0011346
2748.81	0.0010286
2758.45	0.0010351
2768.1	0.0010226
2777.74	0.0012445
2787.39	0.001492
2797.03	0.001592
2806.68	0.001582
2816.32	0.002032
2825.97	0.002352
2835.61	0.003022
2845.26	0.004032
2854.9	0.007192
2864.55	0.010102
2874.19	0.010872
2883.84	0.010562
2893.48	0.008702
2903.12	0.009632
2912.77	0.012812
2922.41	0.019942
2932.06	0.027352
2941.7	0.027102
2951.35	0.020372
2960.99	0.019882
2970.64	0.021772
2980.28	0.011882
2989.93	0.006372
2999.57	0.004372
3009.22	0.003132
3018.86	0.002492
3028.51	0.002302
3038.15	0.002562
3047.8	0.003212
3057.44	0.006022
3067.09	0.006352
3076.73	0.002372
3086.38	0.001582
3096.02	0.0011545
3105.67	0.0012707
3115.31	0.001382
3124.95	0.001392
3134.6	0.0010036
3144.24	0.0009151
3153.89	0.0008528
3163.53	0.0007139
3173.18	0.0005869
3182.82	0.000806
3192.47	0.0007328
3202.11	0.0007519
3211.76	0.0009629
3221.4	0.0008151
3231.05	0.0007601
3240.69	0.0005256
3250.34	0.0004209
3259.98	0.00030842
3269.63	0.0005823
3279.27	0.0006018
3288.92	0.0008064
3298.56	0.0005352
3308.21	0.0004849
3317.85	0.0004734
3327.49	0.00041111
3337.14	0.0006811
3346.78	0.0005645
3356.43	0.0007857
3366.07	0.0009305
3375.72	0.0006817
3385.36	0.000168
3395.01	0.0006666
3404.65	0.0007665
3414.3	0.0004281
3423.94	0.00085
3433.59	0.0010895
3443.23	0.0009496
3452.88	0.001422
3462.52	0.002452
3472.17	0.004342
3481.81	0.011192
3491.46	0.016852
3501.1	0.032092
3510.75	0.007902
3520.39	0.001722
3530.04	0.0011716
3539.68	0.0010961
3549.32	0.0007174
3558.97	0.0007001
3568.61	0.0008429
3578.26	0.000598
3587.9	0.0006338
3597.55	0.0004637
3607.19	0.0006031
3616.84	0.0004256
3626.48	0.0005824
3636.13	0.0006815
3645.77	0.0005374
3655.42	0.0007133
3665.06	0.0006074
3674.71	0.0007693
3684.35	0.0005231
3694	0.0005292
3703.64	0.0008115
3713.29	0.0005852
3722.93	0.0008657
3732.58	0.0007032
3742.22	0.00035127
3751.86	0.0004741
3761.51	0.000576
3771.15	0.0006692
3780.8	0.0007703
3790.44	0.0002552
3800.09	0.00039444
3809.73	0.00041094
3819.38	0.00039845
3829.02	0.000164
3838.67	0.0006112
3848.31	0
3857.96	0.0006951
3867.6	0.00033705
3877.25	0.00038529
3886.89	0.00034205
3896.54	0.0002882
3906.18	0.00039407
3915.83	0.00040025
3925.47	0.0005121
3935.12	0.0008344
3944.76	0.0006395
3954.41	0.000499
3964.05	0.0006871
3973.69	0.0006153
3983.34	0.0005149
3992.98	0.0007777
