Infrared Spectrum: PURINE, 6-(p-TOLYLTHIO)-
Formula: C12 H10 N4 S
CAS: 5444-08-6
State: SOLID (0.6 mg / 650 mg KBr DISC)
Class: COBLENTZ III
Instrument: PERKIN-ELMER 21 (GRATING)
Instrument parameters: FILTER CHANGE AT 1090 CM^-^1
Sampling: TRANSMISSION
Resolution: 2
Origin: SOUTHERN RESEARCH INSTITUTE
1/CM	TRANSMITTANCE
614.603	0.859
623.443	0.8342
632.283	0.7792
641.122	0.6779
649.962	0.9378
658.802	1.0034
667.642	0.9892
676.481	0.9416
685.321	0.9296
694.161	0.8968
703.001	0.8823
711.841	0.8534
720.68	0.8464
729.52	0.8165
738.36	0.7931
747.2	0.7688
756.04	0.7489
764.879	0.7287
773.719	0.701
782.559	0.6639
791.399	0.616
800.238	0.5138
809.078	0.4208
817.918	0.5829
826.758	0.6057
835.598	0.5285
844.437	0.491
853.277	0.4533
862.117	0.2764
870.957	0.4802
879.796	0.6616
888.636	0.708
897.476	0.6622
906.316	0.6879
915.156	0.6777
923.995	0.5671
932.835	0.518
941.675	0.7336
950.515	0.6982
959.355	0.7084
968.194	0.7426
977.034	0.7308
985.874	0.7051
994.714	0.6574
1003.55	0.4633
1012.39	0.7127
1021.23	0.7007
1030.07	0.708
1038.91	0.704
1047.75	0.705
1056.59	0.712
1065.43	0.707
1074.27	0.694
1083.11	0.6802
1091.95	0.6623
1100.79	0.661
1109.63	0.6473
1118.47	0.65
1127.31	0.6555
1136.15	0.665
1144.99	0.665
1153.83	0.6487
1162.67	0.6414
1171.51	0.6304
1180.35	0.6099
1189.19	0.5661
1198.03	0.6042
1206.87	0.5586
1215.71	0.5171
1224.55	0.441
1233.39	0.4281
1242.23	0.2133
1251.07	0.4126
1259.91	0.5614
1268.75	0.671
1277.59	0.671
1286.43	0.6446
1295.27	0.66
1304.11	0.6212
1312.95	0.5954
1321.79	0.4645
1330.63	0.3375
1339.47	0.5731
1348.3	0.6439
1357.14	0.693
1365.98	0.6613
1374.82	0.6127
1383.66	0.5502
1392.5	0.4138
1401.34	0.4829
1410.18	0.5874
1419.02	0.5291
1427.86	0.4177
1436.7	0.506
1445.54	0.4719
1454.38	0.6684
1463.22	0.6306
1472.06	0.599
1480.9	0.604
1489.74	0.5827
1498.58	0.4997
1507.42	0.5887
1516.26	0.5863
1525.1	0.547
1533.94	0.4891
1542.78	0.4594
1551.62	0.3522
1560.46	0.2663
1569.3	0.1552
1578.14	0.2916
1586.98	0.4631
1595.82	0.3459
1604.66	0.397
1613.5	0.5984
1622.34	0.67
1631.18	0.6706
1640.02	0.6815
1648.86	0.6855
1657.7	0.685
1666.54	0.688
1675.38	0.6934
1684.22	0.7093
1693.06	0.709
1701.9	0.7023
1710.74	0.699
1719.58	0.693
1728.42	0.693
1737.26	0.6939
1746.1	0.693
1754.93	0.683
1763.77	0.681
1772.61	0.6722
1781.45	0.6738
1790.29	0.6927
1799.13	0.699
1807.97	0.6952
1816.81	0.691
1825.65	0.69
1834.49	0.6893
1843.33	0.6884
1852.17	0.688
1861.01	0.6869
1869.85	0.677
1878.69	0.6705
1887.53	0.6631
1896.37	0.643
1905.21	0.667
1914.05	0.6743
1922.89	0.6707
1931.73	0.669
1940.57	0.6692
1949.41	0.667
1958.25	0.666
1967.09	0.666
1975.93	0.665
1984.77	0.667
1993.61	0.661
2002.45	0.661
2011.29	0.66
2020.13	0.6561
2028.97	0.655
2037.81	0.65
2046.65	0.648
2055.49	0.6509
2064.33	0.652
2073.17	0.643
2082.01	0.642
2090.85	0.6401
2099.69	0.638
2108.53	0.637
2117.37	0.635
2126.21	0.632
2135.05	0.632
2143.89	0.632
2152.73	0.63
2161.56	0.6281
2170.4	0.617
2179.24	0.616
2188.08	0.616
2196.92	0.616
2205.76	0.616
2214.6	0.608
2223.44	0.607
2232.28	0.607
2241.12	0.6089
2249.96	0.604
2258.8	0.603
2267.64	0.602
2276.48	0.607
2285.32	0.606
2294.16	0.603
2303	0.601
2311.84	0.5921
2320.68	0.578
2329.52	0.577
2338.36	0.577
2347.2	0.575
2356.04	0.5711
2364.88	0.566
2373.72	0.566
2382.56	0.565
2391.4	0.563
2400.24	0.5601
2409.08	0.559
2417.92	0.559
2426.76	0.558
2435.6	0.5502
2444.44	0.5461
2453.28	0.544
2462.12	0.544
2470.96	0.5421
2479.8	0.535
2488.64	0.536
2497.48	0.536
2506.32	0.523
2515.16	0.523
2524	0.523
2532.84	0.521
2541.68	0.518
2550.52	0.5159
2559.36	0.515
2568.19	0.51
2577.03	0.506
2585.87	0.502
2594.71	0.4971
2603.55	0.493
2612.39	0.488
2621.23	0.484
2630.07	0.479
2638.91	0.476
2647.75	0.469
2656.59	0.4641
2665.43	0.462
2674.27	0.4591
2683.11	0.458
2691.95	0.4521
2700.79	0.4497
2709.63	0.454
2718.47	0.455
2727.31	0.4462
2736.15	0.443
2744.99	0.4361
2753.83	0.4301
2762.67	0.424
2771.51	0.411
2780.35	0.3951
2789.19	0.3881
2798.03	0.391
2806.87	0.3969
2815.71	0.4039
2824.55	0.4099
2833.39	0.4189
2842.23	0.4239
2851.07	0.425
2859.91	0.425
2868.75	0.4241
2877.59	0.4211
2886.43	0.4151
2895.27	0.4051
2904.11	0.3832
2912.95	0.377
2921.79	0.375
2930.63	0.371
2939.47	0.367
2948.31	0.367
2957.15	0.366
2965.99	0.359
2974.82	0.3709
2983.66	0.3819
2992.5	0.3958
3001.34	0.4139
3010.18	0.4149
3019.02	0.4041
3027.86	0.3861
3036.7	0.3781
3045.54	0.376
3054.38	0.373
3063.22	0.3711
3072.06	0.366
3080.9	0.367
3089.74	0.3709
3098.58	0.375
3107.42	0.382
3116.26	0.387
3125.1	0.3969
3133.94	0.4349
3142.78	0.4529
3151.62	0.458
3160.46	0.458
3169.3	0.4551
3178.14	0.4569
3186.98	0.462
3195.82	0.467
3204.66	0.4857
3213.5	0.5
3222.34	0.5119
3231.18	0.515
3240.02	0.5229
3248.86	0.5319
3257.7	0.536
3266.54	0.5389
3275.38	0.54
3284.22	0.541
3293.06	0.541
3301.9	0.541
3310.74	0.541
3319.58	0.5361
3328.42	0.525
3337.26	0.5251
3346.1	0.5211
3354.94	0.5171
3363.78	0.513
3372.62	0.51
3381.45	0.5051
3390.29	0.503
3399.13	0.5011
3407.97	0.5001
3416.81	0.4961
3425.65	0.487
3434.49	0.487
3443.33	0.488
3452.17	0.489
3461.01	0.4909
3469.85	0.488
3478.69	0.487
3487.53	0.488
3496.37	0.4929
3505.21	0.4939
3514.05	0.491
3522.89	0.4999
3531.73	0.498
3540.57	0.498
3549.41	0.5
3558.25	0.502
3567.09	0.505
3575.93	0.5071
3584.77	0.515
3593.61	0.5229
3602.45	0.53
3611.29	0.527
3620.13	0.531
3628.97	0.535
3637.81	0.5409
3646.65	0.542
3655.49	0.542
3664.33	0.542
3673.17	0.541
3682.01	0.5439
3690.85	0.537
3699.69	0.536
3708.53	0.535
3717.37	0.535
3726.21	0.5359
3735.05	0.536
3743.89	0.5389
3752.73	0.539
3761.57	0.539
3770.41	0.536
3779.25	0.527
3788.08	0.532
3796.92	0.5359
3805.76	0.537
3814.6	0.534
3823.44	0.5409
3832.28	0.537
3841.12	0.5369
3849.96	0.537
3858.8	0.537
3867.64	0.5341
3876.48	0.529
3885.32	0.529
3894.16	0.529
3903	0.5251
3911.84	0.523
3920.68	0.521
3929.52	0.521
3938.36	0.521
3947.2	0.521
3956.04	0.5219
3964.88	0.523
3973.72	0.522
3982.56	0.522
3991.4	0.522
