Infrared Spectrum: 2-Methyl-3-nonanone
Formula: C 10 H 20 O
CAS: 5445-31-8
State: gas
Instrument: HP-GC/MS/IRD
Origin: NIST Mass Spectrometry Data Center
1/CM	ABSORBANCE
550	0.0005673
562	0.0003565
574	0.0003503
586	0.0003596
598	0.0003286
610	0.0001612
622	0.0002604
634	0.0001643
646	0.0001364
658	7.44e-05
670	3.72e-05
682	0
694	7.75e-05
706	0.0003038
718	0.000496
730	0.000527
742	0.0004464
754	0.0003131
766	0.0003286
778	0.0003255
790	0.0002666
802	0.0002139
814	0.0002573
826	0.0001271
838	0.0002325
850	0.000372
862	0.0003875
874	0.0004061
886	0.000434
898	0.0004929
910	0.0004433
922	0.0005115
934	0.0005828
946	0.0008091
958	0.0013764
970	0.001922
982	0.0022227
994	0.0025916
1006	0.0025544
1018	0.0028303
1030	0.0032922
1042	0.0035774
1054	0.0041881
1066	0.0034503
1078	0.0027218
1090	0.0025978
1102	0.0029915
1114	0.0031806
1126	0.0028644
1138	0.0022413
1150	0.0015903
1162	0.0012214
1174	0.0013764
1186	0.0017019
1198	0.00186
1210	0.0016585
1222	0.0012989
1234	0.0011129
1246	0.0010416
1258	0.0011811
1270	0.0013981
1282	0.0015686
1294	0.0016399
1306	0.0017236
1318	0.0018631
1330	0.0024428
1342	0.0035061
1354	0.004216
1366	0.0040641
1378	0.00403
1390	0.0042284
1402	0.0023808
1414	0.00217
1426	0.002294
1438	0.002821
1450	0.0042408
1462	0.0059675
1474	0.0054219
1486	0.0025203
1498	0.0012679
1510	0.000744
1522	0.0005084
1534	0.0003596
1546	0.000279
1558	0.0002573
1570	0.0002511
1582	0.0002418
1594	0.0002573
1606	0.0002666
1618	0.0003131
1630	0.0003193
1642	0.0003999
1654	0.0005642
1666	0.0008649
1678	0.0014694
1690	0.0028055
1702	0.0063488
1714	0.0138539
1726	0.0172484
1738	0.0086955
1750	0.0029171
1762	0.0012555
1774	0.0006603
1786	0.0003751
1798	0.0002604
1810	0.0001984
1822	0.0001395
1834	0.0001209
1846	0.0001147
1858	9.61e-05
1870	8.06e-05
1882	5.58e-05
1894	6.51e-05
1906	4.96e-05
1918	6.82e-05
1930	5.27e-05
1942	3.41e-05
1954	3.72e-05
1966	2.48e-05
1978	3.41e-05
1990	6.2e-06
2002	9.3e-06
2014	3.41e-05
2026	5.58e-05
2038	6.51e-05
2050	7.44e-05
2062	6.2e-05
2074	5.58e-05
2086	2.79e-05
2098	3.1e-05
2110	3.41e-05
2122	6.2e-06
2134	1.55e-05
2146	4.34e-05
2158	4.03e-05
2170	4.03e-05
2182	5.89e-05
2194	2.79e-05
2206	1.55e-05
2218	2.48e-05
2230	2.48e-05
2242	3.41e-05
2254	4.96e-05
2266	4.96e-05
2278	9.3e-06
2290	4.03e-05
2302	4.34e-05
2314	4.34e-05
2326	8.37e-05
2338	9.61e-05
2350	7.13e-05
2362	0.0001209
2374	7.75e-05
2386	6.2e-05
2398	6.51e-05
2410	4.03e-05
2422	4.34e-05
2434	4.34e-05
2446	2.79e-05
2458	3.41e-05
2470	4.03e-05
2482	2.79e-05
2494	3.1e-05
2506	2.48e-05
2518	2.48e-05
2530	5.89e-05
2542	6.82e-05
2554	8.68e-05
2566	8.68e-05
2578	0.0001023
2590	9.92e-05
2602	8.68e-05
2614	0.0001209
2626	0.0001519
2638	0.0001984
2650	0.0002232
2662	0.0002232
2674	0.000279
2686	0.0002759
2698	0.0002666
2710	0.0003038
2722	0.0003627
2734	0.0004743
2746	0.0005518
2758	0.0005549
2770	0.0006572
2782	0.0007471
2794	0.0009734
2806	0.0013237
2818	0.0017701
2830	0.0023994
2842	0.0038378
2854	0.0074369
2866	0.0117645
2878	0.0139469
2890	0.0142631
2902	0.0149792
2914	0.0190526
2926	0.0265112
2938	0.031
2950	0.0275807
2962	0.0273079
2974	0.0287184
2986	0.0155961
2998	0.0069254
3010	0.0035681
3022	0.0021018
3034	0.0014074
3046	0.0010571
3058	0.0008432
3070	0.0007099
3082	0.0006789
3094	0.0005952
3106	0.0005301
3118	0.0004681
3130	0.0004185
3142	0.0003968
3154	0.0003534
3166	0.0003565
3178	0.0003441
3190	0.0002945
3202	0.0002356
3214	0.0001488
3226	0.0001116
3238	4.03e-05
3250	5.27e-05
3262	6.51e-05
3274	7.13e-05
3286	3.41e-05
3298	3.1e-05
3310	4.96e-05
3322	6.2e-06
3334	6.51e-05
3346	3.72e-05
3358	4.96e-05
3370	7.75e-05
3382	8.99e-05
3394	0.0001302
3406	0.0002356
3418	0.0003379
3430	0.0003596
3442	0.0002604
3454	0.0001581
3466	9.3e-05
3478	7.75e-05
3490	6.51e-05
3502	8.99e-05
3514	5.89e-05
3526	4.96e-05
3538	7.13e-05
3550	6.51e-05
3562	6.82e-05
3574	5.89e-05
3586	9.61e-05
3598	0.0001147
3610	0.0001395
3622	0.0001364
3634	0.0001426
3646	0.000155
3658	0.0001488
3670	0.0001364
3682	0.000124
3694	0.0001395
3706	0.0001085
3718	0.0001488
3730	0.0001643
3742	0.0001736
3754	0.0001829
3766	0.0001581
3778	0.0001705
3790	0.0001612
3802	0.0001457
3814	0.0002232
3826	0.0001953
3838	0.0002108
