Infrared Spectrum: Ethyl-p-nitrophenylacetate
Formula: C 10 H 11 N O 4
CAS: 5445-26-1
State: gas
Origin: EPA-IR VAPOR PHASE LIBRARY
1/CM	ABSORBANCE
501.5	0.001276
513.074	0.0004885
524.648	0.00034148
536.222	0.0001758
547.796	0.0004727
559.37	0.0007163
570.944	0.001576
582.518	0.002336
594.092	0.001866
605.666	0.001306
617.24	0.0010182
628.814	0.0009457
640.388	0.001606
651.962	0.002606
663.536	0.002886
675.11	0.003186
686.684	0.003756
698.258	0.004736
709.832	0.008236
721.406	0.012966
732.98	0.010646
744.554	0.006266
756.128	0.005516
767.702	0.004886
779.276	0.004206
790.85	0.004716
802.423	0.006406
813.997	0.009576
825.571	0.009226
837.145	0.010056
848.719	0.022796
860.293	0.021536
871.867	0.007576
883.441	0.004866
895.015	0.003276
906.589	0.003166
918.163	0.003816
929.737	0.004406
941.311	0.004146
952.885	0.003506
964.459	0.002626
976.033	0.002286
987.607	0.002786
999.181	0.004606
1010.76	0.012116
1022.33	0.024666
1033.9	0.028756
1045.48	0.015846
1057.05	0.007806
1068.63	0.006016
1080.2	0.007326
1091.77	0.012276
1103.35	0.018066
1114.92	0.021766
1126.49	0.031336
1138.07	0.052676
1149.64	0.066546
1161.22	0.057346
1172.79	0.040596
1184.36	0.033586
1195.94	0.026656
1207.51	0.029746
1219.09	0.038296
1230.66	0.047356
1242.23	0.059096
1253.81	0.056446
1265.38	0.035456
1276.96	0.023426
1288.53	0.021506
1300.1	0.024576
1311.68	0.028336
1323.25	0.034336
1334.83	0.048886
1346.4	0.085426
1357.97	0.075676
1369.55	0.032256
1381.12	0.015426
1392.7	0.010836
1404.27	0.009716
1415.84	0.009256
1427.42	0.009716
1438.99	0.009406
1450.57	0.008196
1462.14	0.008766
1473.71	0.010726
1485.29	0.013306
1496.86	0.019316
1508.44	0.017636
1520.01	0.032146
1531.58	0.064096
1543.16	0.070976
1554.73	0.039446
1566.31	0.019296
1577.88	0.012946
1589.45	0.015766
1601.03	0.025266
1612.6	0.017536
1624.18	0.007096
1635.75	0.003866
1647.32	0.003356
1658.9	0.003366
1670.47	0.003196
1682.05	0.003376
1693.62	0.004316
1705.19	0.006296
1716.77	0.009486
1728.34	0.017266
1739.92	0.041376
1751.49	0.078396
1763.06	0.073696
1774.64	0.035256
1786.21	0.013586
1797.79	0.006776
1809.36	0.003906
1820.93	0.002606
1832.51	0.002006
1844.08	0.001696
1855.66	0.001576
1867.23	0.001516
1878.8	0.001466
1890.38	0.001476
1901.95	0.001666
1913.53	0.002046
1925.1	0.001976
1936.67	0.001446
1948.25	0.0011182
1959.82	0.0010723
1971.4	0.0010382
1982.97	0.0010088
1994.54	0.0009159
2006.12	0.0008404
2017.69	0.0007619
2029.27	0.0007387
2040.84	0.0007015
2052.41	0.0007109
2063.99	0.0007311
2075.56	0.0007816
2087.14	0.0008112
2098.71	0.0007149
2110.28	0.0006189
2121.86	0.0005683
2133.43	0.0005137
2145.01	0.0004119
2156.58	0.0003716
2168.15	0.0003795
2179.73	0.0003659
2191.3	0.0003965
2202.88	0.000502
2214.45	0.0005416
2226.02	0.0004884
2237.6	0.0004595
2249.17	0.000443
2260.74	0.000438
2272.32	0.0004759
2283.89	0.0005451
2295.47	0.0005647
2307.04	0.000535
2318.61	0.0005424
2330.19	0.0005456
2341.76	0.0004866
2353.34	0.0005452
2364.91	0.0005609
2376.48	0.0005759
2388.06	0.0005578
2399.63	0.000525
2411.21	0.0005375
2422.78	0.0005522
2434.35	0.0005758
2445.93	0.0006726
2457.5	0.0008311
2469.08	0.0007045
2480.65	0.0005173
2492.22	0.0004344
2503.8	0.0003647
2515.37	0.0003857
2526.95	0.0003699
2538.52	0.0003528
2550.09	0.00030699
2561.67	0.00024137
2573.24	0.000253954
2584.82	0.00030851
2596.39	0.0004246
2607.96	0.000513
2619.54	0.000488
2631.11	0.0003946
2642.69	0.0003564
2654.26	0.00033228
2665.83	0.0003777
2677.41	0.0005066
2688.98	0.0006693
2700.56	0.0007793
2712.13	0.0007921
2723.7	0.0006676
2735.28	0.0006
2746.85	0.0005497
2758.43	0.0005833
2770	0.0006449
2781.57	0.0007153
2793.15	0.0007487
2804.72	0.0007803
2816.3	0.0009979
2827.87	0.001296
2839.44	0.001566
2851.02	0.002086
2862.59	0.002676
2874.17	0.003596
2885.74	0.004436
2897.31	0.004676
2908.89	0.005426
2920.46	0.006396
2932.04	0.007966
2943.61	0.011016
2955.18	0.010406
2966.76	0.010866
2978.33	0.015736
2989.91	0.020196
3001.48	0.012756
3013.05	0.007986
3024.63	0.004736
3036.2	0.003526
3047.78	0.003746
3059.35	0.004016
3070.92	0.003396
3082.5	0.003316
3094.07	0.001876
3105.65	0.0009873
3117.22	0.0007157
3128.79	0.0006855
3140.37	0.0005888
3151.94	0.0005172
3163.52	0.0004334
3175.09	0.0004103
3186.66	0.0004132
3198.24	0.0004862
3209.81	0.0004569
3221.39	0.0003668
3232.96	0.0002202
3244.53	0.0001949
3256.11	0.000116
3267.68	0.0001643
3279.26	0.000101
3290.83	8.8e-05
3302.4	0.000125
3313.98	1.2e-05
3325.55	9.3e-05
3337.13	0.0001636
3348.7	0.000103
3360.27	0.0001489
3371.85	0.0002046
3383.42	0.0001728
3395	0.0001798
3406.57	0.0001487
3418.14	0.000109
3429.72	0.0001876
3441.29	0.0001847
3452.86	0.00025699
3464.44	0.00030925
3476.01	0.0006333
3487.59	0.0009828
3499.16	0.0009817
3510.73	0.0006564
3522.31	0.0004533
3533.88	0.0002931
3545.46	0.0002092
3557.03	0.0001749
3568.6	0.000125
3580.18	0.000114
3591.75	0.00014
3603.33	0.000101
3614.9	6.1e-05
3626.47	9.9e-05
3638.05	9.1e-05
3649.62	0.000102
3661.2	0.000132
3672.77	0.00026914
3684.34	0.0002022
3695.92	0.0002281
3707.49	0.00013
3719.07	0.0001892
3730.64	0.00017
3742.21	0.0002048
3753.79	0.00027756
3765.36	0.0002047
3776.94	0.0001736
3788.51	0.00012
3800.08	0.000123
3811.66	0.0001612
3823.23	0.0001492
3834.81	0.000129
3846.38	0.000144
3857.95	0.0001758
3869.53	0.000186
3881.1	0.000208
3892.68	0.0001673
3904.25	0.0002216
3915.82	0.00023981
3927.4	0.0001973
3938.97	0.0001502
3950.55	0.00027311
3962.12	0.000205
3973.69	0.0002081
3985.27	0.0001501
3996.84	0.000251252
