Infrared Spectrum: Acetamide, N-(2,2,2-trichloro-1-hydroxyethyl)-
Formula: C4 H6 Cl3 N O2
CAS: 5445-85-2
State: SOLID (NUJOL MULL)
Melting point: 155-156 C
Class: COBLENTZ III
Instrument: PERKIN-ELMER 21 (GRATING)
Instrument parameters: FILTER AT ABOUT 10 MICRONS
Resolution: 2
Origin: ABBOTT LABORATORIES
1/CM	TRANSMITTANCE
663	0.5711
672	0.5547
681	0.5323
690	0.4967
699	0.4841
708	0.5067
717	0.5053
726	0.5328
735	0.5578
744	0.5693
753	0.5584
762	0.5368
771	0.5056
780	0.4635
789	0.4153
798	0.3544
807	0.2299
816	0.1654
825	0.2329
834	0.1278
843	0.4239
852	0.6098
861	0.6932
870	0.7171
879	0.7195
888	0.722
897	0.7549
906	0.7555
915	0.7472
924	0.7402
933	0.7203
942	0.7105
951	0.6661
960	0.5166
969	0.6479
978	0.7029
987	0.6874
996	0.6427
1005	0.5427
1014	0.386
1023	0.2627
1032	0.5575
1041	0.6323
1050	0.6708
1059	0.6496
1068	0.564
1077	0.4525
1086	0.2078
1095	0.1812
1104	0.278
1113	0.5451
1122	0.2476
1131	0.6105
1140	0.6634
1149	0.6816
1158	0.6998
1167	0.7059
1176	0.707
1185	0.7014
1194	0.6923
1203	0.6839
1212	0.6745
1221	0.6623
1230	0.6447
1239	0.6277
1248	0.6119
1257	0.579
1266	0.5416
1275	0.4654
1284	0.4338
1293	0.4778
1302	0.4066
1311	0.5174
1320	0.5138
1329	0.4662
1338	0.4273
1347	0.4456
1356	0.3715
1365	0.2487
1374	0.1316
1383	0.2442
1392	0.4323
1401	0.4563
1410	0.4468
1419	0.3835
1428	0.3039
1437	0.2252
1446	0.1376
1455	0.0923
1464	0.1036
1473	0.3178
1482	0.3697
1491	0.3691
1500	0.3466
1509	0.3066
1518	0.2524
1527	0.1717
1536	0.1612
1545	0.1973
1554	0.3104
1563	0.4205
1572	0.4986
1581	0.5269
1590	0.5343
1599	0.5106
1608	0.465
1617	0.4095
1626	0.3666
1635	0.2846
1644	0.2035
1653	0.1232
1662	0.0772
1671	0.2091
1680	0.381
1689	0.4626
1698	0.5803
1707	0.6754
1716	0.7104
1725	0.7526
1734	0.7798
1743	0.7849
1752	0.794
1761	0.8021
1770	0.8065
1779	0.8114
1788	0.817
1797	0.8242
1806	0.8257
1815	0.8267
1824	0.8302
1833	0.8357
1842	0.8373
1851	0.8389
1860	0.8395
1869	0.8385
1878	0.8376
1887	0.8372
1896	0.837
1905	0.8367
1914	0.8364
1923	0.8365
1932	0.8372
1941	0.8393
1950	0.8419
1959	0.8397
1968	0.8346
1977	0.8357
1986	0.8336
1995	0.8308
2004	0.8286
2013	0.8271
2022	0.8255
2031	0.8236
2040	0.8218
2049	0.8203
2058	0.8196
2067	0.819
2076	0.8184
2085	0.8176
2094	0.8161
2103	0.8147
2112	0.8133
2121	0.812
2130	0.8106
2139	0.8092
2148	0.8071
2157	0.8051
2166	0.803
2175	0.801
2184	0.799
2193	0.797
2202	0.7973
2211	0.7983
2220	0.7984
2229	0.7979
2238	0.797
2247	0.7957
2256	0.7945
2265	0.7911
2274	0.7871
2283	0.7832
2292	0.7794
2301	0.7757
2310	0.7747
2319	0.7741
2328	0.7732
2337	0.7705
2346	0.7678
2355	0.7647
2364	0.7601
2373	0.7556
2382	0.751
2391	0.7464
2400	0.7418
2409	0.7372
2418	0.7324
2427	0.7277
2436	0.7229
2445	0.7181
2454	0.7134
2463	0.7087
2472	0.7037
2481	0.6985
2490	0.6933
2499	0.6881
2508	0.683
2517	0.6776
2526	0.6719
2535	0.6663
2544	0.6559
2553	0.6427
2562	0.6298
2571	0.618
2580	0.6063
2589	0.5971
2598	0.5913
2607	0.5856
2616	0.578
2625	0.5693
2634	0.5479
2643	0.5247
2652	0.4963
2661	0.4519
2670	0.4356
2679	0.4195
2688	0.4088
2697	0.3991
2706	0.3963
2715	0.396
2724	0.3982
2733	0.4043
2742	0.4143
2751	0.4243
2760	0.4247
2769	0.4208
2778	0.4114
2787	0.3691
2796	0.3224
2805	0.276
2814	0.2299
2823	0.184
2832	0.1385
2841	0.0933
2850	0.0442
2859	0.0275
2868	0.0232
2877	0.022
2886	0.0215
2895	0.021
2904	0.0206
2913	0.0206
2922	0.0226
2931	0.0253
2940	0.0306
2949	0.0382
2958	0.0519
2967	0.0806
2976	0.1094
2985	0.1381
2994	0.1666
3003	0.2007
3012	0.2098
3021	0.2172
3030	0.221
3039	0.223
3048	0.2237
3057	0.2242
3066	0.2247
3075	0.2259
3084	0.2275
3093	0.2336
3102	0.2427
3111	0.2559
3120	0.271
3129	0.2862
3138	0.2972
3147	0.3073
3156	0.3174
3165	0.3333
3174	0.349
3183	0.3608
3192	0.3724
3201	0.382
3210	0.3901
3219	0.3929
3228	0.3931
3237	0.3912
3246	0.3855
3255	0.3529
3264	0.3181
3273	0.2836
3282	0.259
3291	0.2598
3300	0.2659
3309	0.3254
3318	0.3991
3327	0.4723
3336	0.538
3345	0.5705
3354	0.6559
3363	0.7171
3372	0.7349
3381	0.7484
3390	0.7572
3399	0.7635
3408	0.7671
3417	0.7706
3426	0.7741
3435	0.7769
3444	0.7795
3453	0.7819
3462	0.7844
3471	0.7869
3480	0.7885
3489	0.7899
3498	0.7912
3507	0.7925
3516	0.7938
3525	0.7944
3534	0.7948
3543	0.7951
3552	0.7954
3561	0.7949
3570	0.7941
3579	0.7933
3588	0.7925
3597	0.7917
3606	0.7904
3615	0.7886
3624	0.7869
3633	0.7851
3642	0.7836
3651	0.7821
3660	0.7807
3669	0.7793
3678	0.7779
3687	0.7775
3696	0.7771
3705	0.7768
3714	0.7765
3723	0.7754
3732	0.7737
3741	0.7716
3750	0.7692
3759	0.7668
3768	0.766
3777	0.7652
3786	0.7644
3795	0.7633
3804	0.7613
3813	0.7594
3822	0.7576
3831	0.7559
3840	0.7542
3849	0.7522
3858	0.7502
3867	0.7481
3876	0.7462
3885	0.7447
3894	0.7431
3903	0.7414
3912	0.7399
3921	0.7389
3930	0.7378
3939	0.7367
3948	0.7357
3957	0.7347
3966	0.7337
3975	0.7326
3984	0.7316
3993	0.7306
