Infrared Spectrum: 5-Chloro-1,3-dimethylpyrazole
Formula: C 5 H 7 Cl N 2
CAS: 54454-10-3
State: gas
Origin: EPA-IR VAPOR PHASE LIBRARY
1/CM	ABSORBANCE
549.8	0.0013089
559.445	0.000638
569.09	0.0012161
578.734	0.0013829
588.379	0.0016748
598.024	0.0018653
607.669	0.00433
617.313	0.00996
626.958	0.01228
636.603	0.01075
646.248	0.00524
655.893	0.00383
665.537	0.0027
675.182	0.00204
684.827	0.0012469
694.472	0.000894
704.116	0.0013188
713.761	0.0012372
723.406	0.0015082
733.051	0.00304
742.695	0.00819
752.34	0.02272
761.985	0.03889
771.63	0.07728
781.275	0.03532
790.919	0.01863
800.564	0.0074
810.209	0.0036
819.854	0.00218
829.498	0.002
839.143	0.0013597
848.788	0.0008877
858.433	0.0011638
868.078	0.001126
877.722	0.0013632
887.367	0.0014535
897.012	0.0017899
906.657	0.0018542
916.301	0.00194
925.946	0.0019206
935.591	0.0031
945.236	0.00376
954.88	0.00434
964.525	0.00678
974.17	0.00954
983.815	0.01685
993.46	0.02467
1003.1	0.02421
1012.75	0.01397
1022.39	0.00639
1032.04	0.00635
1041.68	0.00708
1051.33	0.01002
1060.97	0.01972
1070.62	0.03367
1080.26	0.03617
1089.91	0.02412
1099.55	0.01407
1109.2	0.01141
1118.84	0.00503
1128.49	0.00375
1138.13	0.005
1147.78	0.00593
1157.42	0.00834
1167.07	0.00835
1176.71	0.00518
1186.36	0.00442
1196	0.00362
1205.64	0.00362
1215.29	0.00419
1224.93	0.00675
1234.58	0.00938
1244.22	0.01284
1253.87	0.01585
1263.51	0.02112
1273.16	0.02372
1282.8	0.02058
1292.45	0.01486
1302.09	0.01016
1311.74	0.00998
1321.38	0.01048
1331.03	0.01104
1340.67	0.01567
1350.32	0.0339
1359.96	0.06323
1369.61	0.07951
1379.25	0.07027
1388.9	0.05568
1398.54	0.04689
1408.18	0.03639
1417.83	0.03074
1427.47	0.02683
1437.12	0.029
1446.76	0.03992
1456.41	0.05681
1466.05	0.06757
1475.7	0.06048
1485.34	0.04333
1494.99	0.05147
1504.63	0.09347
1514.28	0.13947
1523.92	0.1386
1533.57	0.08916
1543.21	0.04003
1552.86	0.02358
1562.5	0.01689
1572.15	0.01195
1581.79	0.0087
1591.44	0.0067
1601.08	0.00564
1610.73	0.00465
1620.37	0.00458
1630.01	0.00396
1639.66	0.00349
1649.3	0.00281
1658.95	0.0025
1668.59	0.00233
1678.24	0.002
1687.88	0.00215
1697.53	0.00234
1707.17	0.00202
1716.82	0.002
1726.46	0.0017567
1736.11	0.0016918
1745.75	0.0016816
1755.4	0.001658
1765.04	0.0013995
1774.69	0.001355
1784.33	0.0014114
1793.98	0.0012213
1803.62	0.0012604
1813.27	0.001307
1822.91	0.0014571
1832.55	0.0014184
1842.2	0.0012535
1851.84	0.0013353
1861.49	0.0010925
1871.13	0.0011552
1880.78	0.0012307
1890.42	0.0013909
1900.07	0.0013345
1909.71	0.0014268
1919.36	0.0013768
1929	0.0011865
1938.65	0.0011581
1948.29	0.0012715
1957.94	0.0013246
1967.58	0.0014918
1977.23	0.0013689
1986.87	0.0015535
1996.52	0.001426
2006.16	0.0014767
2015.81	0.0014371
2025.45	0.0014011
2035.1	0.0015746
2044.74	0.0013811
2054.38	0.0013745
2064.03	0.0014075
2073.67	0.0013255
2083.32	0.0010732
2092.96	0.0011305
2102.61	0.0011254
2112.25	0.0012375
2121.9	0.0013318
2131.54	0.0013249
2141.19	0.0013731
2150.83	0.0012221
2160.48	0.0013796
2170.12	0.0012012
2179.77	0.0014935
2189.41	0.0012708
2199.06	0.0013615
2208.7	0.0013347
2218.35	0.0013491
2227.99	0.0013859
2237.64	0.0016264
2247.28	0.0015324
2256.92	0.0016209
2266.57	0.0014248
2276.21	0.0014983
2285.86	0.0014501
2295.5	0.0014085
2305.15	0.0014275
2314.79	0.0015001
2324.44	0.001609
2334.08	0.0014313
2343.73	0.0013863
2353.37	0.0013666
2363.02	0.0014956
2372.66	0.0015845
2382.31	0.0014389
2391.95	0.00151
2401.6	0.0016284
2411.24	0.0016041
2420.89	0.0018024
2430.53	0.0016616
2440.18	0.0016054
2449.82	0.0013037
2459.47	0.0013838
2469.11	0.0016503
2478.75	0.0015586
2488.4	0.0017799
2498.04	0.0019203
2507.69	0.0018764
2517.33	0.0018506
2526.98	0.00202
2536.62	0.0017866
2546.27	0.00205
2555.91	0.00195
2565.56	0.00195
2575.2	0.0017526
2584.85	0.0018718
2594.49	0.0017668
2604.14	0.0016651
2613.78	0.0017292
2623.43	0.00202
2633.07	0.00215
2642.72	0.00203
2652.36	0.0019156
2662.01	0.00194
2671.65	0.00209
2681.29	0.00217
2690.94	0.002
2700.58	0.00207
2710.23	0.00232
2719.87	0.00266
2729.52	0.00287
2739.16	0.00348
2748.81	0.00327
2758.45	0.00307
2768.1	0.0029
2777.74	0.00347
2787.39	0.00445
2797.03	0.0051
2806.68	0.00622
2816.32	0.0066
2825.97	0.00678
2835.61	0.0072
2845.26	0.00815
2854.9	0.00995
2864.55	0.0136
2874.19	0.01821
2883.84	0.02112
2893.48	0.02152
2903.12	0.02185
2912.77	0.02316
2922.41	0.0306
2932.06	0.04899
2941.7	0.0635
2951.35	0.06672
2960.99	0.05566
2970.64	0.04155
2980.28	0.02635
2989.93	0.01892
2999.57	0.01402
3009.22	0.01182
3018.86	0.01037
3028.51	0.01093
3038.15	0.01207
3047.8	0.0125
3057.44	0.01114
3067.09	0.01024
3076.73	0.0086
3086.38	0.00554
3096.02	0.00379
3105.67	0.00304
3115.31	0.00298
3124.95	0.00283
3134.6	0.00268
3144.24	0.00228
3153.89	0.00209
3163.53	0.0013185
3173.18	0.0014734
3182.82	0.0013323
3192.47	0.0012685
3202.11	0.0013331
3211.76	0.00098534
3221.4	0.00100469
3231.05	0.0011067
3240.69	0.000772
3250.34	0.000837
3259.98	0.000634
3269.63	0.0010923
3279.27	0.000832
3288.92	0.00095866
3298.56	0.0010638
3308.21	0.0010431
3317.85	0.0010686
3327.49	0.000787
3337.14	0.0010481
3346.78	0.00100602
3356.43	0.00093015
3366.07	0.00097966
3375.72	0.0011979
3385.36	0.00101967
3395.01	0.0011585
3404.65	0.000513
3414.3	0.00097637
3423.94	0.00101156
3433.59	0.0009113
3443.23	0.0010727
3452.88	0.00101563
3462.52	0.000732
3472.17	0.00101566
3481.81	0.0009162
3491.46	0.0009027
3501.1	0.000809
3510.75	0.0008923
3520.39	0.000649
3530.04	0.000771
3539.68	0.000727
3549.32	0.0012702
3558.97	0.000741
3568.61	0.0009551
3578.26	0.0010484
3587.9	0.0009271
3597.55	0.000792
3607.19	0.0009246
3616.84	0.0010012
3626.48	0.00100022
3636.13	0.0010365
3645.77	0.0010603
3655.42	0.0008634
3665.06	0.0011929
3674.71	0.000606
3684.35	0.0011431
3694	0.0011193
3703.64	0.000547
3713.29	0.00116
3722.93	0.00099634
3732.58	0.000766
3742.22	0.0009163
3751.86	0.000777
3761.51	0.000582
3771.15	0.0010692
3780.8	0.0007
3790.44	0.000747
3800.09	0.0008572
3809.73	0.0008666
3819.38	0.000773
3829.02	0.000944329
3838.67	0.000627
3848.31	0.000941023
3857.96	0.000651
3867.6	0.0013622
3877.25	0.00098063
3886.89	0.0010143
3896.54	0.0015287
3906.18	0.0013271
3915.83	0.0012839
3925.47	0.00112
3935.12	0.0011043
3944.76	0.0010914
3954.41	0.0011133
3964.05	0.0011914
3973.69	0.0011546
3983.34	0.0011791
3992.98	0.0011737
