Infrared Spectrum: 1-Propylcyclohexanol
Formula: C 9 H 18 O
CAS: 5445-24-9
State: gas
Instrument: HP-GC/MS/IRD
Origin: NIST Mass Spectrometry Data Center
1/CM	ABSORBANCE
550	0.000245
562	0.000245
574	0.0001
586	7e-05
598	0.00013
610	0.000175
622	0.000145
634	0.000135
646	0.00016
658	0.000105
670	0.000145
682	0.00015
694	0.000205
706	0.000135
718	0.00036
730	0.00036
742	0.000375
754	0.000285
766	0.00025
778	0.00039
790	0.000395
802	0.00032
814	0.000375
826	0.000745
838	0.001125
850	0.00146
862	0.00153
874	0.001175
886	0.001055
898	0.00108
910	0.001205
922	0.0013
934	0.001625
946	0.00283
958	0.004845
970	0.00534
982	0.00278
994	0.00113
1006	0.001085
1018	0.001645
1030	0.00182
1042	0.001555
1054	0.00126
1066	0.00123
1078	0.001275
1090	0.001665
1102	0.002295
1114	0.00278
1126	0.003125
1138	0.003395
1150	0.003715
1162	0.003715
1174	0.00302
1186	0.001935
1198	0.00156
1210	0.00169
1222	0.001965
1234	0.00215
1246	0.00238
1258	0.00257
1270	0.00241
1282	0.0021
1294	0.00184
1306	0.00165
1318	0.00166
1330	0.00175
1342	0.00194
1354	0.00203
1366	0.002105
1378	0.00207
1390	0.001775
1402	0.00126
1414	0.00112
1426	0.001455
1438	0.002845
1450	0.00456
1462	0.0045
1474	0.002665
1486	0.001065
1498	0.000545
1510	0.00039
1522	0.000315
1534	0.000265
1546	0.000245
1558	0.00022
1570	0.00016
1582	0.000125
1594	0.000135
1606	0.000125
1618	0.00011
1630	0.0001
1642	0.000105
1654	0.000105
1666	9.5e-05
1678	8.5e-05
1690	5e-05
1702	7.5e-05
1714	5e-05
1726	5e-05
1738	4.5e-05
1750	6e-05
1762	6.5e-05
1774	4.5e-05
1786	7e-05
1798	5.5e-05
1810	3.5e-05
1822	3.5e-05
1834	1e-05
1846	4e-05
1858	2e-05
1870	2.5e-05
1882	3.5e-05
1894	3e-05
1906	2.5e-05
1918	4.5e-05
1930	3e-05
1942	3e-05
1954	2e-05
1966	1.5e-05
1978	2.5e-05
1990	3e-05
2002	1e-05
2014	0
2026	1.5e-05
2038	3e-05
2050	4e-05
2062	1.5e-05
2074	4e-05
2086	4e-05
2098	4e-05
2110	3.5e-05
2122	2.5e-05
2134	2.5e-05
2146	2.5e-05
2158	6e-05
2170	5.5e-05
2182	7.5e-05
2194	7.5e-05
2206	6e-05
2218	8.5e-05
2230	6.5e-05
2242	4.5e-05
2254	4.5e-05
2266	6.5e-05
2278	8.5e-05
2290	7.5e-05
2302	7e-05
2314	6e-05
2326	8.5e-05
2338	8.5e-05
2350	0.000105
2362	0.00011
2374	8.5e-05
2386	9e-05
2398	8.5e-05
2410	9.5e-05
2422	8e-05
2434	7e-05
2446	5e-05
2458	2.5e-05
2470	4.5e-05
2482	6.5e-05
2494	7.5e-05
2506	7e-05
2518	7.5e-05
2530	8e-05
2542	9.5e-05
2554	8.5e-05
2566	0.00012
2578	0.00014
2590	0.000205
2602	0.00021
2614	0.00026
2626	0.000295
2638	0.000325
2650	0.000465
2662	0.00053
2674	0.000555
2686	0.00047
2698	0.00044
2710	0.00041
2722	0.000435
2734	0.000495
2746	0.00057
2758	0.00058
2770	0.00067
2782	0.000835
2794	0.00099
2806	0.00118
2818	0.001555
2830	0.002445
2842	0.00511
2854	0.01008
2866	0.01355
2878	0.013365
2890	0.01158
2902	0.012245
2914	0.018305
2926	0.032845
2938	0.05
2950	0.037675
2962	0.02043
2974	0.012925
2986	0.00529
2998	0.00247
3010	0.001605
3022	0.001245
3034	0.00106
3046	0.000865
3058	0.000715
3070	0.000555
3082	0.00045
3094	0.000395
3106	0.00036
3118	0.00031
3130	0.00031
3142	0.000305
3154	0.00026
3166	0.000205
3178	0.00017
3190	0.00016
3202	0.000145
3214	0.000145
3226	0.00014
3238	0.00014
3250	0.000115
3262	0.00012
3274	7.5e-05
3286	0.000105
3298	8.5e-05
3310	5.5e-05
3322	2.5e-05
3334	5.5e-05
3346	6e-05
3358	0.0001
3370	9.5e-05
3382	0.000125
3394	0.000125
3406	0.000125
3418	0.00011
3430	0.00015
3442	0.000115
3454	0.00013
3466	7e-05
3478	4.5e-05
3490	6e-05
3502	7e-05
3514	4e-05
3526	4e-05
3538	8e-05
3550	3e-05
3562	5e-05
3574	6e-05
3586	7e-05
3598	0.000125
3610	0.000245
3622	0.00064
3634	0.00126
3646	0.001165
3658	0.00058
3670	0.000225
3682	0.00014
3694	9e-05
3706	8e-05
3718	0.000115
3730	0.000105
3742	0.00012
3754	0.000105
3766	0.000135
3778	0.00012
3790	0.000145
3802	0.00017
3814	0.00015
3826	0.000145
3838	0.00016
