Infrared Spectrum: 3-Chloro-2-methylbenzonitrile
Formula: C 8 H 6 Cl N
CAS: 54454-12-5
State: gas
Origin: EPA-IR VAPOR PHASE LIBRARY
1/CM	ABSORBANCE
549.8	0.001067
559.445	0.00275
569.09	0.00382
578.734	0.00281
588.379	0.0018464
598.024	0.0019925
607.669	0.0017107
617.313	0.0026
626.958	0.0020837
636.603	0.0018836
646.248	0.0023234
655.893	0.0019174
665.537	0.0018443
675.182	0.001299
684.827	0.00323
694.472	0.00811
704.116	0.01488
713.761	0.00709
723.406	0.00298
733.051	0.0021948
742.695	0.0023417
752.34	0.00256
761.985	0.00455
771.63	0.01326
781.275	0.02803
790.919	0.02576
800.564	0.01471
810.209	0.00635
819.854	0.01004
829.498	0.01203
839.143	0.00681
848.788	0.0032
858.433	0.00263
868.078	0.0018607
877.722	0.00285
887.367	0.0021442
897.012	0.0020152
906.657	0.0017671
916.301	0.0017433
925.946	0.0022215
935.591	0.0019828
945.236	0.0024427
954.88	0.00281
964.525	0.00442
974.17	0.00415
983.815	0.00662
993.46	0.00809
1003.1	0.01077
1012.75	0.01211
1022.39	0.01287
1032.04	0.00994
1041.68	0.0075
1051.33	0.0062
1060.97	0.00546
1070.62	0.00483
1080.26	0.00581
1089.91	0.00406
1099.55	0.000993
1109.2	0.001651
1118.84	0.00057
1128.49	0.00493
1138.13	0.00975
1147.78	0.01033
1157.42	0.00432
1167.07	0.0019975
1176.71	0.00439
1186.36	0.0017283
1196	0.00323
1205.64	0.00015
1215.29	0.0016916
1224.93	0.00503
1234.58	0.0022094
1244.22	0.00298
1253.87	0.00269
1263.51	0.00459
1273.16	0.00585
1282.8	0.004
1292.45	0.00326
1302.09	0.0026
1311.74	0.002205
1321.38	0.0023398
1331.03	0.0022896
1340.67	0.0027
1350.32	0.00251
1359.96	0.00255
1369.61	0.00277
1379.25	0.0035
1388.9	0.00492
1398.54	0.00498
1408.18	0.00398
1417.83	0.0054
1427.47	0.01265
1437.12	0.02218
1446.76	0.02303
1456.41	0.01569
1466.05	0.01157
1475.7	0.0073
1485.34	0.00418
1494.99	0.00384
1504.63	0.00286
1514.28	0.00318
1523.92	0.00323
1533.57	0.00415
1543.21	0.00523
1552.86	0.0075
1562.5	0.01114
1572.15	0.01122
1581.79	0.00638
1591.44	0.00379
1601.08	0.00335
1610.73	0.00288
1620.37	0.0024178
1630.01	0.00262
1639.66	0.00283
1649.3	0.0021595
1658.95	0.0023321
1668.59	0.00256
1678.24	0.0026
1687.88	0.00359
1697.53	0.00301
1707.17	0.0022949
1716.82	0.0018728
1726.46	0.0020716
1736.11	0.0019432
1745.75	0.0019121
1755.4	0.0019576
1765.04	0.0018105
1774.69	0.0020795
1784.33	0.00183
1793.98	0.0017756
1803.62	0.00261
1813.27	0.00257
1822.91	0.0022791
1832.55	0.0020665
1842.2	0.00150255
1851.84	0.0019815
1861.49	0.00284
1871.13	0.00305
1880.78	0.0024662
1890.42	0.0021349
1900.07	0.0019252
1909.71	0.0021197
1919.36	0.0022282
1929	0.00283
1938.65	0.00288
1948.29	0.0023856
1957.94	0.0021073
1967.58	0.0018317
1977.23	0.0018231
1986.87	0.0017867
1996.52	0.0020532
2006.16	0.0016673
2015.81	0.0016672
2025.45	0.0018721
2035.1	0.0016969
2044.74	0.0018477
2054.38	0.00156621
2064.03	0.0016186
2073.67	0.0018665
2083.32	0.0017792
2092.96	0.0019341
2102.61	0.0016902
2112.25	0.0017536
2121.9	0.00183
2131.54	0.0017081
2141.19	0.0021104
2150.83	0.0018918
2160.48	0.0017602
2170.12	0.0018298
2179.77	0.0021291
2189.41	0.0018922
2199.06	0.0019377
2208.7	0.0023638
2218.35	0.00369
2227.99	0.00597
2237.64	0.00563
2247.28	0.0028
2256.92	0.0020505
2266.57	0.0021238
2276.21	0.0021183
2285.86	0.0020646
2295.5	0.002072
2305.15	0.0018721
2314.79	0.0020047
2324.44	0.0024114
2334.08	0.0022236
2343.73	0.0018261
2353.37	0.0024255
2363.02	0.0022657
2372.66	0.0021022
2382.31	0.0017425
2391.95	0.0018428
2401.6	0.002336
2411.24	0.0019904
2420.89	0.002044
2430.53	0.0019803
2440.18	0.0017541
2449.82	0.001869
2459.47	0.0019029
2469.11	0.0017872
2478.75	0.0020604
2488.4	0.0019847
2498.04	0.0021386
2507.69	0.0022618
2517.33	0.001933
2526.98	0.0019478
2536.62	0.0021289
2546.27	0.0020201
2555.91	0.0023485
2565.56	0.0024831
2575.2	0.0018171
2584.85	0.0018944
2594.49	0.0019402
2604.14	0.0020911
2613.78	0.0019292
2623.43	0.0019909
2633.07	0.0024705
2642.72	0.0019455
2652.36	0.0022391
2662.01	0.0020723
2671.65	0.0023108
2681.29	0.0021597
2690.94	0.0018892
2700.58	0.00274
2710.23	0.0024696
2719.87	0.0023154
2729.52	0.0022192
2739.16	0.0022519
2748.81	0.00267
2758.45	0.002033
2768.1	0.0019623
2777.74	0.0019175
2787.39	0.0020073
2797.03	0.0020383
2806.68	0.0021674
2816.32	0.0023028
2825.97	0.0023156
2835.61	0.0024689
2845.26	0.002123
2854.9	0.00307
2864.55	0.0027
2874.19	0.0024111
2883.84	0.0028
2893.48	0.00271
2903.12	0.00277
2912.77	0.00337
2922.41	0.00363
2932.06	0.00433
2941.7	0.00582
2951.35	0.00553
2960.99	0.00466
2970.64	0.0041
2980.28	0.00334
2989.93	0.00362
2999.57	0.00352
3009.22	0.00373
3018.86	0.00338
3028.51	0.00308
3038.15	0.00253
3047.8	0.00265
3057.44	0.0039
3067.09	0.00384
3076.73	0.00654
3086.38	0.00562
3096.02	0.00456
3105.67	0.0026
3115.31	0.0024688
3124.95	0.0020323
3134.6	0.0024549
3144.24	0.002117
3153.89	0.002313
3163.53	0.0021894
3173.18	0.001969
3182.82	0.0020362
3192.47	0.0018804
3202.11	0.0016512
3211.76	0.00272
3221.4	0.0014292
3231.05	0.0018893
3240.69	0.00157722
3250.34	0.00269
3259.98	0.0020707
3269.63	0.0022949
3279.27	0.002466
3288.92	0.0022212
3298.56	0.0022932
3308.21	0.0017716
3317.85	0.0024688
3327.49	0.00256
3337.14	0.0016388
3346.78	0.0018146
3356.43	0.002067
3366.07	0.001826
3375.72	0.002237
3385.36	0.00252
3395.01	0.0021954
3404.65	0.0025
3414.3	0.0016441
3423.94	0.0020837
3433.59	0.0024163
3443.23	0.0021458
3452.88	0.0019936
3462.52	0.0013934
3472.17	0.0023386
3481.81	0.0021244
3491.46	0.0018469
3501.1	0.0019979
3510.75	0.0020175
3520.39	0.0020897
3530.04	0.0026
3539.68	0.0017855
3549.32	0.00267
3558.97	0.00125
3568.61	0.00261
3578.26	0.0014092
3587.9	0.00206
3597.55	0.0020855
3607.19	0.0023106
3616.84	0.0020826
3626.48	0.002065
3636.13	0.0023467
3645.77	0.0022512
3655.42	0.00149858
3665.06	0.0017921
3674.71	0.0018276
3684.35	0.001163
3694	0.001363
3703.64	0.0018519
3713.29	0.0021173
3722.93	0.0023361
3732.58	0.001166
3742.22	0.001002
3751.86	0.0014661
3761.51	0.0016579
3771.15	0.0022263
3780.8	0.0021434
3790.44	0.0024593
3800.09	0.0016863
3809.73	0.0017909
3819.38	0.0016343
3829.02	0.0022657
3838.67	0.0019051
3848.31	0.0022317
3857.96	0.0024001
3867.6	0.0017797
3877.25	0.0018861
3886.89	0.0018855
3896.54	0.0022182
3906.18	0.0019082
3915.83	0.00258
3925.47	0.0021351
3935.12	0.00148507
3944.76	0.0018854
3954.41	0.0018953
3964.05	0.0024784
3973.69	0.001625
3983.34	0.0022375
3992.98	0.0021578
