Infrared Spectrum: Methyl 2-hydroxy-4-methoxybenzoate
Formula: C 9 H 10 O 4
CAS: 5446-02-6
State: gas
Origin: EPA-IR VAPOR PHASE LIBRARY
1/CM	ABSORBANCE
549.8	0.003417
559.445	0.003057
569.09	0.003347
578.734	0.003807
588.379	0.004597
598.024	0.004257
607.669	0.005687
617.313	0.011897
626.958	0.014627
636.603	0.007257
646.248	0.004687
655.893	0.004257
665.537	0.004827
675.182	0.006307
684.827	0.010337
694.472	0.014697
704.116	0.013327
713.761	0.011047
723.406	0.008947
733.051	0.006507
742.695	0.004067
752.34	0.004457
761.985	0.010887
771.63	0.020427
781.275	0.020087
790.919	0.009317
800.564	0.004167
810.209	0.003187
819.854	0.004137
829.498	0.006677
839.143	0.012557
848.788	0.011677
858.433	0.010837
868.078	0.007437
877.722	0.003907
887.367	0.002387
897.012	0.002017
906.657	0.002287
916.301	0.002597
925.946	0.004237
935.591	0.008937
945.236	0.015197
954.88	0.016427
964.525	0.009857
974.17	0.006597
983.815	0.004777
993.46	0.003607
1003.1	0.004167
1012.75	0.007307
1022.39	0.019087
1032.04	0.037887
1041.68	0.026577
1051.33	0.009207
1060.97	0.007147
1070.62	0.009887
1080.26	0.016947
1089.91	0.025397
1099.55	0.026377
1109.2	0.024117
1118.84	0.029367
1128.49	0.058007
1138.13	0.110867
1147.78	0.104017
1157.42	0.081357
1167.07	0.059557
1176.71	0.048477
1186.36	0.052337
1196	0.062297
1205.64	0.059357
1215.29	0.067327
1224.93	0.088407
1234.58	0.089257
1244.22	0.126847
1253.87	0.183447
1263.51	0.175537
1273.16	0.125687
1282.8	0.080057
1292.45	0.042827
1302.09	0.035677
1311.74	0.033527
1321.38	0.044017
1331.03	0.073607
1340.67	0.099937
1350.32	0.073557
1359.96	0.036117
1369.61	0.026347
1379.25	0.024907
1388.9	0.023197
1398.54	0.019507
1408.18	0.015507
1417.83	0.013327
1427.47	0.018717
1437.12	0.054597
1446.76	0.073597
1456.41	0.040817
1466.05	0.032337
1475.7	0.026567
1485.34	0.029037
1494.99	0.042607
1504.63	0.051877
1514.28	0.035947
1523.92	0.019887
1533.57	0.013307
1543.21	0.013007
1552.86	0.015207
1562.5	0.021997
1572.15	0.037727
1581.79	0.052017
1591.44	0.047667
1601.08	0.040917
1610.73	0.060727
1620.37	0.107027
1630.01	0.084007
1639.66	0.032037
1649.3	0.022037
1658.95	0.025277
1668.59	0.045607
1678.24	0.097697
1687.88	0.140787
1697.53	0.107867
1707.17	0.048007
1716.82	0.020157
1726.46	0.012007
1736.11	0.011957
1745.75	0.016367
1755.4	0.011797
1765.04	0.006127
1774.69	0.004717
1784.33	0.003797
1793.98	0.003307
1803.62	0.003057
1813.27	0.002877
1822.91	0.002767
1832.55	0.002237
1842.2	0.001747
1851.84	0.001507
1861.49	0.001587
1871.13	0.001817
1880.78	0.002227
1890.42	0.002797
1900.07	0.003197
1909.71	0.003177
1919.36	0.002867
1929	0.002397
1938.65	0.001847
1948.29	0.001597
1957.94	0.001447
1967.58	0.001387
1977.23	0.001477
1986.87	0.001567
1996.52	0.001517
2006.16	0.001597
2015.81	0.001667
2025.45	0.001747
2035.1	0.001687
2044.74	0.002047
2054.38	0.002387
2064.03	0.002737
2073.67	0.002397
2083.32	0.001867
2092.96	0.001507
2102.61	0.001377
2112.25	0.001387
2121.9	0.001447
2131.54	0.001397
2141.19	0.001377
2150.83	0.001187
2160.48	0.001217
2170.12	0.001317
2179.77	0.001175
2189.41	0.001247
2199.06	0.001277
2208.7	0.001347
2218.35	0.0010943
2227.99	0.000968
2237.64	0.0009396
2247.28	0.0009626
2256.92	0.001022
2266.57	0.0009033
2276.21	0.0007664
2285.86	0.0009575
2295.5	0.0008766
2305.15	0.0010912
2314.79	0.001217
2324.44	0.0010838
2334.08	0.0011724
2343.73	0.001317
2353.37	0.001547
2363.02	0.001417
2372.66	0.001287
2382.31	0.001207
2391.95	0.001217
2401.6	0.001237
2411.24	0.001307
2420.89	0.001407
2430.53	0.001427
2440.18	0.001377
2449.82	0.001457
2459.47	0.001407
2469.11	0.001507
2478.75	0.001507
2488.4	0.001487
2498.04	0.001467
2507.69	0.001337
2517.33	0.001247
2526.98	0.001337
2536.62	0.001407
2546.27	0.001507
2555.91	0.001437
2565.56	0.001597
2575.2	0.001917
2584.85	0.002327
2594.49	0.002747
2604.14	0.002867
2613.78	0.002597
2623.43	0.002197
2633.07	0.002027
2642.72	0.002007
2652.36	0.002027
2662.01	0.002017
2671.65	0.002017
2681.29	0.001897
2690.94	0.002077
2700.58	0.001917
2710.23	0.002247
2719.87	0.002137
2729.52	0.001987
2739.16	0.001927
2748.81	0.001857
2758.45	0.001887
2768.1	0.001917
2777.74	0.002167
2787.39	0.002237
2797.03	0.002387
2806.68	0.002577
2816.32	0.003097
2825.97	0.004257
2835.61	0.006457
2845.26	0.011407
2854.9	0.013557
2864.55	0.009737
2874.19	0.006377
2883.84	0.006137
2893.48	0.007237
2903.12	0.009487
2912.77	0.011467
2922.41	0.012247
2932.06	0.012027
2941.7	0.016207
2951.35	0.024407
2960.99	0.036727
2970.64	0.027287
2980.28	0.013007
2989.93	0.010397
2999.57	0.012447
3009.22	0.018227
3018.86	0.016387
3028.51	0.010087
3038.15	0.008207
3047.8	0.006907
3057.44	0.006407
3067.09	0.006137
3076.73	0.006467
3086.38	0.006727
3096.02	0.006767
3105.67	0.006187
3115.31	0.005627
3124.95	0.005277
3134.6	0.005347
3144.24	0.005917
3153.89	0.006477
3163.53	0.007907
3173.18	0.009497
3182.82	0.011537
3192.47	0.013337
3202.11	0.014817
3211.76	0.015927
3221.4	0.017147
3231.05	0.018137
3240.69	0.017917
3250.34	0.016797
3259.98	0.015237
3269.63	0.013717
3279.27	0.012747
3288.92	0.012037
3298.56	0.011307
3308.21	0.010717
3317.85	0.010227
3327.49	0.009867
3337.14	0.009377
3346.78	0.008947
3356.43	0.008027
3366.07	0.007457
3375.72	0.007107
3385.36	0.006237
3395.01	0.005677
3404.65	0.004957
3414.3	0.004327
3423.94	0.004217
3433.59	0.003677
3443.23	0.003747
3452.88	0.004747
3462.52	0.006277
3472.17	0.007467
3481.81	0.006947
3491.46	0.005827
3501.1	0.004757
3510.75	0.003677
3520.39	0.003047
3530.04	0.002357
3539.68	0.002007
3549.32	0.001767
3558.97	0.001287
3568.61	0.001497
3578.26	0.0010634
3587.9	0.0011607
3597.55	0.0009296
3607.19	0.0007664
3616.84	0.0007901
3626.48	0.0006692
3636.13	0.0007322
3645.77	0.0005822
3655.42	0.0003312
3665.06	0.0005512
3674.71	0.0004086
3684.35	0.0004506
3694	0.00026823
3703.64	0.0003128
3713.29	0.0003035
3722.93	0.00023898
3732.58	0.0003383
3742.22	0.00024528
3751.86	0.0001646
3761.51	0.0003004
3771.15	0.0003162
3780.8	0.000329
3790.44	0.0003043
3800.09	0.0001512
3809.73	0.00026762
3819.38	0.00022683
3829.02	0.0001646
3838.67	0.0001105
3848.31	0.0001345
3857.96	0.0003323
3867.6	0.00021193
3877.25	0.00022444
3886.89	0.0003102
3896.54	0.00017899
3906.18	0.000146
3915.83	0.0003645
3925.47	0.0003829
3935.12	0.0003012
3944.76	0.000395
3954.41	0.0001049
3964.05	0.0004528
3973.69	0.00022207
3983.34	0.0004714
3992.98	0.0003764
