Infrared Spectrum: Purine, 6-(p-methoxyphenoxy)-
Formula: C12 H10 N4 O2
CAS: 5446-38-8
State: SOLID (0.7 mg / 650 mg KBr DISC)
Class: COBLENTZ III
Instrument: PERKIN-ELMER 21 (GRATING)
Instrument parameters: FILTER CHANGE ABOUT 1090 CM^-^1
Sampling: TRANSMISSION
Resolution: 2
Origin: SOUTHERN RESEARCH INSTITUTE
1/CM	TRANSMITTANCE
594	0.9771
603.026	0.9668
612.053	0.952
621.079	0.923
630.106	0.8207
639.132	0.7232
648.159	0.9288
657.185	0.7986
666.211	0.9367
675.238	0.9909
684.264	0.9777
693.291	0.9634
702.317	0.9573
711.344	0.9263
720.37	0.9047
729.396	0.8771
738.423	0.8318
747.449	0.7246
756.476	0.7913
765.502	0.8155
774.528	0.7883
783.555	0.744
792.581	0.6696
801.608	0.643
810.634	0.7248
819.661	0.3965
828.687	0.508
837.713	0.641
846.74	0.6461
855.766	0.6933
864.793	0.6733
873.819	0.524
882.846	0.3467
891.872	0.6109
900.898	0.7282
909.925	0.7133
918.951	0.6225
927.978	0.599
937.004	0.6104
946.031	0.6049
955.057	0.4761
964.083	0.3093
973.11	0.5784
982.136	0.7589
991.163	0.7631
1000.19	0.7492
1009.22	0.6971
1018.24	0.7187
1027.27	0.6683
1036.29	0.5682
1045.32	0.4121
1054.35	0.7563
1063.37	0.7565
1072.4	0.7092
1081.43	0.4761
1090.45	0.4751
1099.48	0.5645
1108.51	0.5699
1117.53	0.7094
1126.56	0.713
1135.59	0.6858
1144.61	0.6514
1153.64	0.5703
1162.66	0.556
1171.69	0.4945
1180.72	0.3162
1189.74	0.2236
1198.77	0.0797
1207.8	0.1896
1216.82	0.4253
1225.85	0.6043
1234.88	0.5287
1243.9	0.4272
1252.93	0.1624
1261.96	0.3445
1270.98	0.6132
1280.01	0.5724
1289.03	0.5664
1298.06	0.3619
1307.09	0.3701
1316.11	0.2777
1325.14	0.4597
1334.17	0.4117
1343.19	0.181
1352.22	0.4081
1361.25	0.7087
1370.27	0.7
1379.3	0.6934
1388.33	0.5711
1397.35	0.39
1406.38	0.1999
1415.4	0.3356
1424.43	0.5487
1433.46	0.5153
1442.48	0.2016
1451.51	0.1584
1460.54	0.3289
1469.56	0.4003
1478.59	0.3734
1487.62	0.3824
1496.64	0.3726
1505.67	0.0609
1514.7	0.2928
1523.72	0.5676
1532.75	0.6559
1541.77	0.6628
1550.8	0.6514
1559.83	0.5664
1568.85	0.5182
1577.88	0.5194
1586.91	0.3802
1595.93	0.2824
1604.96	0.38
1613.99	0.2293
1623.01	0.3054
1632.04	0.2299
1641.07	0.4544
1650.09	0.6537
1659.12	0.7044
1668.14	0.7245
1677.17	0.7436
1686.2	0.7465
1695.22	0.7416
1704.25	0.7373
1713.28	0.7318
1722.3	0.7266
1731.33	0.7221
1740.36	0.7118
1749.38	0.7017
1758.41	0.6896
1767.44	0.6645
1776.46	0.6428
1785.49	0.6251
1794.51	0.6103
1803.54	0.5921
1812.57	0.5814
1821.59	0.5804
1830.62	0.5902
1839.65	0.5977
1848.67	0.5968
1857.7	0.6041
1866.73	0.6111
1875.75	0.6183
1884.78	0.6261
1893.81	0.636
1902.83	0.6568
1911.86	0.6731
1920.88	0.6817
1929.91	0.6877
1938.94	0.6922
1947.96	0.6956
1956.99	0.6986
1966.02	0.7036
1975.04	0.7124
1984.07	0.7176
1993.1	0.7112
2002.12	0.7092
2011.15	0.7158
2020.17	0.72
2029.2	0.7174
2038.23	0.7115
2047.25	0.7075
2056.28	0.7054
2065.31	0.7018
2074.33	0.6989
2083.36	0.6971
2092.39	0.6958
2101.41	0.6943
2110.44	0.6926
2119.47	0.6913
2128.49	0.6899
2137.52	0.6862
2146.54	0.6778
2155.57	0.6707
2164.6	0.6668
2173.62	0.6608
2182.65	0.6516
2191.68	0.6423
2200.7	0.6331
2209.73	0.6236
2218.76	0.6141
2227.78	0.6031
2236.81	0.592
2245.84	0.5807
2254.86	0.5693
2263.89	0.5582
2272.91	0.5474
2281.94	0.5367
2290.97	0.5261
2299.99	0.5158
2309.02	0.5066
2318.05	0.498
2327.07	0.4891
2336.1	0.4806
2345.13	0.4742
2354.15	0.4691
2363.18	0.4637
2372.21	0.4605
2381.23	0.4593
2390.26	0.458
2399.28	0.4553
2408.31	0.4545
2417.34	0.4555
2426.36	0.4528
2435.39	0.4502
2444.42	0.4463
2453.44	0.4414
2462.47	0.4365
2471.5	0.4291
2480.52	0.4235
2489.55	0.4203
2498.58	0.4202
2507.6	0.4224
2516.63	0.4199
2525.65	0.4173
2534.68	0.4154
2543.71	0.4157
2552.73	0.419
2561.76	0.424
2570.79	0.4313
2579.81	0.4385
2588.84	0.4452
2597.87	0.4475
2606.89	0.4482
2615.92	0.453
2624.95	0.4612
2633.97	0.4659
2643	0.4681
2652.02	0.468
2661.05	0.4691
2670.08	0.4774
2679.1	0.4817
2688.13	0.488
2697.16	0.4913
2706.18	0.4919
2715.21	0.4919
2724.24	0.4949
2733.26	0.4915
2742.29	0.4908
2751.32	0.4927
2760.34	0.4927
2769.37	0.4947
2778.39	0.5033
2787.42	0.5101
2796.45	0.5155
2805.47	0.5213
2814.5	0.5224
2823.53	0.5246
2832.55	0.5498
2841.58	0.5779
2850.61	0.5867
2859.63	0.592
2868.66	0.5944
2877.69	0.5925
2886.71	0.5826
2895.74	0.5701
2904.76	0.5589
2913.79	0.5517
2922.82	0.54
2931.84	0.538
2940.87	0.5383
2949.9	0.5397
2958.92	0.5444
2967.95	0.5544
2976.98	0.5703
2986	0.5749
2995.03	0.5758
3004.06	0.5802
3013.08	0.5842
3022.11	0.5863
3031.13	0.5857
3040.16	0.582
3049.19	0.5791
3058.21	0.5776
3067.24	0.5792
3076.27	0.5826
3085.29	0.5856
3094.32	0.5903
3103.35	0.5971
3112.37	0.6055
3121.4	0.6142
3130.43	0.6261
3139.45	0.6438
3148.48	0.6504
3157.5	0.6528
3166.53	0.6529
3175.56	0.6525
3184.58	0.6516
3193.61	0.6504
3202.64	0.6492
3211.66	0.6473
3220.69	0.6452
3229.72	0.6471
3238.74	0.6545
3247.77	0.6593
3256.8	0.6608
3265.82	0.6614
3274.85	0.6605
3283.87	0.6581
3292.9	0.6568
3301.93	0.6561
3310.95	0.6514
3319.98	0.6476
3329.01	0.6448
3338.03	0.6432
3347.06	0.6397
3356.09	0.6237
3365.11	0.6182
3374.14	0.6135
3383.17	0.6092
3392.19	0.6053
3401.22	0.6022
3410.24	0.6001
3419.27	0.5984
3428.3	0.5966
3437.32	0.5972
3446.35	0.5983
3455.38	0.5995
3464.4	0.6018
3473.43	0.605
3482.46	0.6081
3491.48	0.6113
3500.51	0.6148
3509.53	0.6187
3518.56	0.6243
3527.59	0.632
3536.61	0.6398
3545.64	0.6479
3554.67	0.6563
3563.69	0.664
3572.72	0.6722
3581.75	0.6809
3590.77	0.6873
3599.8	0.6918
3608.83	0.696
3617.85	0.701
3626.88	0.704
3635.9	0.7054
3644.93	0.7063
3653.96	0.7083
3662.98	0.7132
3672.01	0.7197
3681.04	0.7138
3690.06	0.712
3699.09	0.7128
3708.12	0.7136
3717.14	0.7147
3726.17	0.7167
3735.2	0.7235
3744.22	0.7272
3753.25	0.7258
3762.27	0.7229
3771.3	0.7187
3780.33	0.7131
3789.35	0.7121
3798.38	0.7118
3807.41	0.7107
3816.43	0.7099
3825.46	0.7101
3834.49	0.7095
3843.51	0.7091
3852.54	0.7088
3861.57	0.7078
3870.59	0.7059
3879.62	0.7014
3888.64	0.6983
3897.67	0.6981
3906.7	0.6992
3915.72	0.7011
3924.75	0.7034
3933.78	0.7056
3942.8	0.706
3951.83	0.7033
3960.86	0.7008
3969.88	0.699
3978.91	0.6958
3987.94	0.6893
3996.96	0.6782
4005.99	0.6703
