Infrared Spectrum: 2-Bromo-2-nitropropane
Formula: C 3 H 6 Br N O 2
CAS: 5447-97-2
State: gas
Origin: EPA-IR VAPOR PHASE LIBRARY
1/CM	ABSORBANCE
549.8	0.002039
559.445	0.001689
569.09	0.001449
578.735	0.0012023
588.38	0.0013556
598.025	0.001619
607.67	0.003169
617.315	0.005089
626.96	0.007049
636.605	0.007849
646.251	0.007039
655.896	0.004509
665.541	0.002399
675.186	0.001509
684.831	0.0012123
694.476	0.0012471
704.121	0.0011136
713.766	0.0008652
723.411	0.0007981
733.056	0.0008317
742.701	0.0007306
752.346	0.0005733
761.991	0.00042759
771.636	0.0004038
781.281	0.00034
790.926	0.0006151
800.571	0.000486
810.216	0.0008484
819.861	0.001549
829.507	0.004689
839.152	0.009829
848.797	0.011429
858.442	0.006819
868.087	0.001959
877.732	0.0011013
887.377	0.0009919
897.022	0.001799
906.667	0.003709
916.312	0.005159
925.957	0.004229
935.602	0.001769
945.247	0.000695
954.892	0.0004754
964.537	0.00040492
974.182	0.0002736
983.827	0.00041025
993.472	0.0005922
1003.12	0.0007038
1012.76	0.0008437
1022.41	0.0006602
1032.05	0.0005444
1041.7	0.00044227
1051.34	0.0005812
1060.99	0.0006926
1070.63	0.0010035
1080.28	0.001359
1089.92	0.002019
1099.57	0.003589
1109.21	0.007819
1118.86	0.016969
1128.5	0.024359
1138.15	0.023189
1147.79	0.015619
1157.44	0.014899
1167.08	0.014169
1176.73	0.010239
1186.37	0.006899
1196.02	0.005729
1205.66	0.004849
1215.31	0.003849
1224.95	0.002569
1234.6	0.001779
1244.24	0.0013036
1253.89	0.0012
1263.53	0.0010721
1273.18	0.0009612
1282.82	0.0011054
1292.47	0.001549
1302.11	0.002809
1311.76	0.007009
1321.4	0.017069
1331.05	0.025879
1340.69	0.023049
1350.34	0.011259
1359.98	0.008219
1369.63	0.012509
1379.27	0.018889
1388.92	0.017259
1398.56	0.013359
1408.21	0.008069
1417.85	0.004189
1427.5	0.004389
1437.14	0.006069
1446.79	0.007829
1456.43	0.009389
1466.08	0.008719
1475.73	0.006009
1485.37	0.003269
1495.02	0.002449
1504.66	0.002969
1514.31	0.004699
1523.95	0.008379
1533.6	0.014929
1543.24	0.025899
1552.89	0.043169
1562.53	0.063149
1572.18	0.073619
1581.82	0.063449
1591.47	0.044129
1601.11	0.024099
1610.76	0.011629
1620.4	0.004339
1630.05	0.002019
1639.69	0.001429
1649.34	0.001094
1658.98	0.0009376
1668.63	0.0008279
1678.27	0.0007614
1687.92	0.0006861
1697.56	0.000589
1707.21	0.000575
1716.85	0.0005516
1726.5	0.0004773
1736.14	0.00043307
1745.79	0.00042297
1755.43	0.00043043
1765.08	0.0004265
1774.72	0.0004766
1784.37	0.00044254
1794.01	0.00043843
1803.66	0.0004623
1813.3	0.00037098
1822.95	0.000362597
1832.59	0.00041513
1842.24	0.00044627
1851.88	0.0004659
1861.53	0.0004602
1871.17	0.00044304
1880.82	0.00041826
1890.46	0.0004886
1900.11	0.00035469
1909.75	0.00040604
1919.4	0.00041265
1929.04	0.00038984
1938.69	0.00035051
1948.33	0.000362678
1957.98	0.00036941
1967.62	0.0002711
1977.27	0.0002994
1986.91	0.0003384
1996.56	0.00035078
2006.2	0.0002879
2015.85	0.0003298
2025.49	0.0003187
2035.14	0.00039558
2044.78	0.00038899
2054.43	0.00037083
2064.07	0.0002995
2073.72	0.0003356
2083.36	0.00035179
2093.01	0.0003269
2102.65	0.000360782
2112.3	0.000244
2121.94	0.0002935
2131.59	0.000285
2141.23	0.0002933
2150.88	0.0003557
2160.52	0.00037527
2170.17	0.0003134
2179.81	0.0003292
2189.46	0.000225
2199.1	0.000225
2208.75	0.000225
2218.39	0.0002673
2228.04	0.0002995
2237.68	0.000281
2247.33	0.0002759
2256.97	0.0003391
2266.62	0.00040917
2276.26	0.00042324
2285.91	0.0005021
2295.55	0.0005678
2305.2	0.00048
2314.84	0.000459
2324.49	0.000467
2334.13	0.00041716
2343.78	0.00034
2353.42	0.0002741
2363.07	0.0003305
2372.72	0.0002675
2382.36	0.0002716
2392.01	0.00038618
2401.65	0.00040459
2411.3	0.000360345
2420.94	0.0003119
2430.59	0.0002906
2440.23	0.0003002
2449.88	0.000237
2459.52	0.000163
2469.17	0.00017
2478.81	0.000259
2488.46	0.000226
2498.1	0.000204
2507.75	0.000194
2517.39	0.000256
2527.04	0.000358658
2536.68	0.0003196
2546.33	0.0002671
2555.97	0.000309
2565.62	0.0003376
2575.26	0.0004948
2584.91	0.00039247
2594.55	0.0003889
2604.2	0.00037988
2613.84	0.00042373
2623.49	0.00041448
2633.13	0.0005233
2642.78	0.0007533
2652.42	0.000985
2662.07	0.0011335
2671.71	0.0008503
2681.36	0.0005408
2691	0.00040175
2700.65	0.000254
2710.29	0.0003368
2719.94	0.0003413
2729.58	0.00045394
2739.23	0.00036306
2748.87	0.000364929
2758.52	0.000257
2768.16	0.0003176
2777.81	0.00041022
2787.45	0.00038317
2797.1	0.0004735
2806.74	0.00045026
2816.39	0.0005264
2826.03	0.0005739
2835.68	0.0007134
2845.32	0.0010186
2854.97	0.001399
2864.61	0.002019
2874.26	0.002449
2883.9	0.002759
2893.55	0.002879
2903.19	0.002789
2912.84	0.002649
2922.48	0.002729
2932.13	0.004209
2941.77	0.005789
2951.42	0.005339
2961.06	0.003449
2970.71	0.002139
2980.35	0.002879
2990	0.005509
2999.64	0.007109
3009.29	0.006069
3018.93	0.003659
3028.58	0.002229
3038.22	0.0010441
3047.87	0.0005161
3057.51	0.0003228
3067.16	0.000224
3076.8	0.000175
3086.45	0.000267
3096.09	8.6e-05
3105.74	0.000102
3115.38	0.000176
3125.03	0.000247
3134.67	0.000194
3144.32	8.1e-05
3153.96	0.000107
3163.61	0.000179
3173.25	0.000222
3182.9	0.000126
3192.54	0.000273
3202.19	0.0003237
3211.83	0.00039103
3221.48	0.0003522
3231.12	0.0005247
3240.77	0.0005189
3250.41	0.00044857
3260.06	0.0004792
3269.7	0.00043489
3279.35	0.00043177
3289	0.0002696
3298.64	0.00040361
3308.29	0.00045261
3317.93	0.0002934
3327.58	0.0004616
3337.22	0.000146
3346.87	0.000331
3356.51	0.000216
3366.16	0.0003324
3375.8	0.0002809
3385.45	0.00037655
3395.09	0.0003169
3404.74	0.00039715
3414.38	0.000226
3424.03	0.00044234
3433.67	0.000364841
3443.32	0.0003463
3452.96	0.000367458
3462.61	0.0002835
3472.25	0.0002872
3481.9	0.0003461
3491.54	0.0003554
3501.19	0.00037423
3510.83	0.00038782
3520.48	0.000318
3530.12	0.000317
3539.77	0.00039773
3549.41	0.0002686
3559.06	0.00037035
3568.7	0.00039583
3578.35	0.0002681
3587.99	0.00038318
3597.64	0.00044696
3607.28	0.00036947
3616.93	0.0002713
3626.57	0.000362518
3636.22	0.0003128
3645.86	0.00041781
3655.51	0.0003439
3665.15	0.000364267
3674.8	0.000461
3684.44	0.00043381
3694.09	0.00043665
3703.73	0.00044972
3713.38	0.00044322
3723.02	0.0003872
3732.67	0.0005926
3742.31	0.00038391
3751.96	0.0004762
3761.6	0.00038148
3771.25	0.00040369
3780.89	0.00040381
3790.54	0.00044311
3800.18	0.0005123
3809.83	0.0003392
3819.47	0.00043247
3829.12	0.00040454
3838.76	0.0005146
3848.41	0.00044485
3858.05	0.00038171
3867.7	0.0005045
3877.34	0.0004846
3886.99	0.00037293
3896.63	0.00038201
3906.28	0.0004618
3915.92	0.0005872
3925.57	0.0004641
3935.21	0.00037127
3944.86	0.00039276
3954.5	0.0004748
3964.15	0.0004772
3973.79	0.0003323
3983.44	0.0004775
3993.08	0.0005425
