Infrared Spectrum: 5-VANILLYLIDENE RHODANINE
Formula: C11 H9 N O3 S2
CAS: 5447-37-0
State: SOLID (MINERAL OIL MULL)
Class: COBLENTZ
Instrument: Not specified, most likely a prism, grating, or hybrid spectrometer.
Sampling: TRANSMISSION
Resolution: 4
Origin: DOW CHEMICAL COMPANY
MICROMETERS	TRANSMITTANCE
2.02	0.196
2.06066	0.207
2.10132	0.22
2.14198	0.23
2.18264	0.244
2.2233	0.252
2.26395	0.255
2.30461	0.265
2.34527	0.279
2.38593	0.292
2.42659	0.306
2.46725	0.321
2.50791	0.338
2.54857	0.353
2.58923	0.361
2.62989	0.375
2.67054	0.393
2.7112	0.409
2.75186	0.427
2.79252	0.442
2.83318	0.461
2.87384	0.462
2.9145	0.434
2.95516	0.34
2.99582	0.2
3.03648	0.215
3.07713	0.19
3.11779	0.304
3.15845	0.35
3.19911	0.382
3.23977	0.407
3.28043	0.407
3.32109	0.355
3.36175	0.144
3.40241	0.023
3.44307	0.033
3.48372	0.043
3.52438	0.202
3.56504	0.434
3.6057	0.531
3.64636	0.535
3.68702	0.543
3.72768	0.558
3.76834	0.562
3.809	0.585
3.84966	0.601
3.89031	0.622
3.93097	0.644
3.97163	0.653
4.01229	0.661
4.05295	0.676
4.09361	0.688
4.13427	0.695
4.17493	0.698
4.21559	0.696
4.25625	0.695
4.2969	0.71
4.33756	0.732
4.37822	0.737
4.41888	0.749
4.45954	0.754
4.5002	0.76
4.54086	0.765
4.58152	0.771
4.62218	0.779
4.66284	0.781
4.70349	0.791
4.74415	0.796
4.78481	0.791
4.82547	0.801
4.86613	0.796
4.90679	0.818
4.94745	0.818
4.98811	0.826
5.02877	0.829
5.06943	0.836
5.11009	0.845
5.15074	0.851
5.1914	0.86
5.23206	0.863
5.27272	0.861
5.31338	0.863
5.35404	0.838
5.3947	0.877
5.43536	0.867
5.47602	0.826
5.51668	0.872
5.55733	0.867
5.59799	0.861
5.63865	0.87
5.67931	0.846
5.71997	0.76
5.76063	0.555
5.80129	0.23
5.84195	0.181
5.88261	0.397
5.92327	0.569
5.96392	0.685
6.00458	0.762
6.04524	0.781
6.0859	0.803
6.12656	0.774
6.16722	0.528
6.20788	0.528
6.24854	0.149
6.2892	0.36
6.32986	0.587
6.37051	0.722
6.41117	0.767
6.45183	0.776
6.49249	0.728
6.53315	0.609
6.57381	0.331
6.61447	0.178
6.65513	0.444
6.69579	0.55
6.73645	0.407
6.7771	0.151
6.81776	0.072
6.85842	0.07
6.89908	0.089
6.93974	0.143
6.9804	0.188
7.02106	0.427
7.06172	0.533
7.10238	0.579
7.14304	0.569
7.18369	0.474
7.22435	0.247
7.26501	0.223
7.30567	0.432
7.34633	0.59
7.38699	0.649
7.42765	0.649
7.46831	0.646
7.50897	0.702
7.54963	0.646
7.59028	0.531
7.63094	0.501
7.6716	0.481
7.71226	0.345
7.75292	0.106
7.79358	0.062
7.83424	0.186
7.8749	0.309
7.91556	0.17
7.95622	0.05
7.99687	0.095
8.03753	0.377
8.07819	0.53
8.11885	0.548
8.15951	0.427
8.20017	0.176
8.24083	0.168
8.28149	0.264
8.32215	0.262
8.36281	0.156
8.40347	0.074
8.44412	0.09
8.48478	0.159
8.52544	0.163
8.5661	0.09
8.60676	0.031
8.64742	0.101
8.68808	0.271
8.72874	0.417
8.7694	0.53
8.81006	0.589
8.85071	0.624
8.89137	0.659
8.93203	0.676
8.97269	0.69
9.01335	0.7
9.05401	0.688
9.09467	0.659
9.13533	0.715
9.17599	0.754
9.21665	0.764
9.2573	0.764
9.29796	0.749
9.33862	0.71
9.37928	0.617
9.41994	0.42
9.4606	0.595
9.50126	0.728
9.54192	0.745
9.58258	0.737
9.62324	0.646
9.66389	0.461
9.70455	0.244
9.74521	0.41
9.78587	0.577
9.82653	0.552
9.86719	0.535
9.90785	0.703
9.94851	0.765
9.98917	0.794
10.0298	0.819
10.0705	0.829
10.1111	0.835
10.1518	0.84
10.1925	0.843
10.2331	0.841
10.2738	0.838
10.3144	0.843
10.3551	0.843
10.3958	0.823
10.4364	0.771
10.4771	0.654
10.5177	0.523
10.5584	0.609
10.5991	0.75
10.6397	0.765
10.6804	0.727
10.721	0.786
10.7617	0.826
10.8023	0.833
10.843	0.823
10.8837	0.814
10.9243	0.771
10.965	0.762
11.0056	0.824
11.0463	0.838
11.087	0.841
11.1276	0.843
11.1683	0.841
11.2089	0.841
11.2496	0.848
11.2903	0.853
11.3309	0.858
11.3716	0.858
11.4122	0.851
11.4529	0.843
11.4936	0.835
11.5342	0.829
11.5749	0.829
11.6155	0.826
11.6562	0.828
11.6968	0.818
11.7375	0.813
11.7782	0.814
11.8188	0.809
11.8595	0.801
11.9001	0.787
11.9408	0.759
11.9815	0.691
12.0221	0.516
12.0628	0.425
12.1034	0.515
12.1441	0.579
12.1848	0.51
12.2254	0.503
12.2661	0.597
12.3067	0.562
12.3474	0.604
12.388	0.74
12.4287	0.777
12.4694	0.792
12.51	0.797
12.5507	0.801
12.5913	0.804
12.632	0.808
12.6727	0.809
12.7133	0.809
12.754	0.809
12.7946	0.811
12.8353	0.806
12.876	0.794
12.9166	0.777
12.9573	0.782
12.9979	0.803
13.0386	0.811
13.0793	0.816
13.1199	0.811
13.1606	0.803
13.2012	0.796
13.2419	0.777
13.2825	0.764
13.3232	0.747
13.3639	0.712
13.4045	0.656
13.4452	0.569
13.4858	0.441
13.5265	0.304
13.5672	0.301
13.6078	0.42
13.6485	0.604
13.6891	0.678
13.7298	0.686
13.7705	0.681
13.8111	0.653
13.8518	0.594
13.8924	0.518
13.9331	0.483
13.9737	0.574
14.0144	0.707
14.0551	0.74
14.0957	0.728
14.1364	0.681
14.177	0.616
14.2177	0.55
14.2584	0.511
14.299	0.498
14.3397	0.496
14.3803	0.494
14.421	0.483
14.4617	0.468
14.5023	0.437
14.543	0.397
14.5836	0.383
14.6243	0.444
14.665	0.535
14.7056	0.609
14.7463	0.675
14.7869	0.71
14.8276	0.737
14.8682	0.742
14.9089	0.745
14.9496	0.769
14.9902	0.803
15.0309	0.808
15.0715	0.809
15.1122	0.808
15.1529	0.808
15.1935	0.811
15.2342	0.811
15.2748	0.814
15.3155	0.816
15.3562	0.814
15.3968	0.813
15.4375	0.808
15.4781	0.806
15.5188	0.804
15.5595	0.801
15.6001	0.799
15.6408	0.792
15.6814	0.786
15.7221	0.782
15.7627	0.776
15.8034	0.767
15.8441	0.764
15.8847	0.769
