Infrared Spectrum: BENZENE, 1,2-DICHLORO-3-ETHYL-
Formula: C8 H8 Cl2
CAS: 54484-61-6
State: SOLUTION (10% IN CCl4 FOR 3800-1340 AND 10% IN CS2 FOR 1340-450 CM^-^1)
Class: COBLENTZ III
Instrument: DOW KBr FOREPRISM-GRATING
Instrument parameters: BLAZED AT 3.5, 12.0, 20.0 MICRON, CHANGED AT 5.0, 7.5, 14.9 MICRON
Sampling: TRANSMISSION
Path length: 0.011, 0.011 CM
Resolution: 4
Origin: DOW CHEMICAL COMPANY
1/CM	TRANSMITTANCE
449.592	0.94
458.292	0.947
466.993	0.953
475.693	0.951
484.394	0.943
493.094	0.943
501.794	0.975
510.495	0.978
519.195	0.986
527.895	0.978
536.596	0.917
545.296	0.943
553.997	0.99
562.697	0.998
571.397	1.001
580.098	0.989
588.798	0.911
597.499	0.9
606.199	0.991
614.899	0.976
623.6	0.959
632.3	1
641	0.983
649.701	0.952
658.401	0.967
667.102	0.979
675.802	0.978
684.502	0.971
693.203	0.899
701.903	0.899
710.604	0.757
719.304	0.502
728.004	0.835
736.705	0.488
745.405	0.748
754.105	0.559
762.806	0.762
771.506	0.435
780.207	0.454
788.907	0.573
797.607	0.591
806.308	0.875
815.008	0.869
823.709	0.71
832.409	0.523
841.109	0.675
849.81	0.781
858.51	0.81
867.21	0.849
875.911	0.88
884.611	0.909
893.312	0.934
902.012	0.964
910.712	0.975
919.413	0.979
928.113	0.986
936.814	0.983
945.514	0.975
954.214	0.96
962.915	0.924
971.615	0.93
980.315	0.957
989.016	0.959
997.716	0.96
1006.42	0.896
1015.12	0.911
1023.82	0.86
1032.52	0.637
1041.22	0.758
1049.92	0.861
1058.62	0.67
1067.32	0.545
1076.02	0.693
1084.72	0.862
1093.42	0.831
1102.12	0.639
1110.82	0.93
1119.52	0.945
1128.22	0.936
1136.92	0.937
1145.62	0.905
1154.32	0.628
1163.02	0.818
1171.72	0.776
1180.42	0.421
1189.12	0.751
1197.83	0.929
1206.53	0.953
1215.23	0.959
1223.93	0.94
1232.63	0.953
1241.33	0.933
1250.03	0.899
1258.73	0.91
1267.43	0.928
1276.13	0.932
1284.83	0.93
1293.53	0.938
1302.23	0.933
1310.93	0.918
1319.63	0.854
1328.33	0.83
1337.03	0.89
1345.73	0.949
1354.43	0.953
1363.13	0.949
1371.83	0.881
1380.53	0.876
1389.23	0.909
1397.93	0.876
1406.63	0.801
1415.33	0.55
1424.04	0.1001
1432.74	0.55
1441.44	0.674
1450.14	0.2839
1458.84	0.468
1467.54	0.573
1476.24	0.829
1484.94	0.861
1493.64	0.842
1502.34	0.804
1511.04	0.759
1519.74	0.723
1528.44	0.681
1537.14	0.587
1545.84	0.489
1554.54	0.454
1563.24	0.503
1571.94	0.607
1580.64	0.586
1589.34	0.5761
1598.04	0.799
1606.74	0.88
1615.44	0.922
1624.14	0.943
1632.84	0.955
1641.54	0.953
1650.25	0.959
1658.95	0.948
1667.65	0.933
1676.35	0.938
1685.05	0.947
1693.75	0.955
1702.45	0.957
1711.15	0.955
1719.85	0.953
1728.55	0.951
1737.25	0.944
1745.95	0.951
1754.65	0.956
1763.35	0.957
1772.05	0.955
1780.75	0.932
1789.45	0.944
1798.15	0.962
1806.85	0.963
1815.55	0.963
1824.25	0.963
1832.95	0.96
1841.65	0.956
1850.35	0.921
1859.05	0.91
1867.75	0.96
1876.46	0.96
1885.16	0.966
1893.86	0.966
1902.56	0.966
1911.26	0.959
1919.96	0.928
1928.66	0.911
1937.36	0.964
1946.06	0.967
1954.76	0.967
1963.46	0.968
1972.16	0.968
1980.86	0.967
1989.56	0.966
1998.26	0.966
2006.96	0.953
2015.66	0.955
2024.36	0.956
2033.06	0.96
2041.76	0.962
2050.46	0.962
2059.16	0.963
2067.86	0.963
2076.56	0.964
2085.26	0.967
2093.96	0.966
2102.67	0.967
2111.37	0.967
2120.07	0.967
2128.77	0.966
2137.47	0.964
2146.17	0.964
2154.87	0.963
2163.57	0.963
2172.27	0.964
2180.97	0.966
2189.67	0.9669
2198.37	0.9661
2207.07	0.966
2215.77	0.966
2224.47	0.9639
2233.17	0.962
2241.87	0.9629
2250.57	0.9588
2259.27	0.955
2267.97	0.9529
2276.67	0.948
2285.37	0.9409
2294.07	0.9401
2302.77	0.9441
2311.47	0.947
2320.17	0.9511
2328.88	0.9561
2337.58	0.9631
2346.28	0.9621
2354.98	0.9741
2363.68	0.979
2372.38	0.975
2381.08	0.9709
2389.78	0.9679
2398.48	0.9671
2407.18	0.9679
2415.88	0.966
2424.58	0.963
2433.28	0.9661
2441.98	0.968
2450.68	0.971
2459.38	0.971
2468.08	0.971
2476.78	0.968
2485.48	0.967
2494.18	0.967
2502.88	0.966
2511.58	0.9657
2520.28	0.964
2528.98	0.9643
2537.68	0.964
2546.38	0.9657
2555.09	0.964
2563.79	0.9643
2572.49	0.966
2581.19	0.968
2589.89	0.967
2598.59	0.9656
2607.29	0.966
2615.99	0.964
2624.69	0.9616
2633.39	0.9554
2642.09	0.9632
2650.79	0.966
2659.49	0.966
2668.19	0.967
2676.89	0.967
2685.59	0.966
2694.29	0.966
2702.99	0.967
2711.69	0.966
2720.39	0.9621
2729.09	0.9552
2737.79	0.9592
2746.49	0.9622
2755.19	0.963
2763.89	0.957
2772.59	0.955
2781.3	0.953
2790	0.955
2798.7	0.959
2807.4	0.955
2816.1	0.9503
2824.8	0.9337
2833.5	0.9177
2842.2	0.918
2850.9	0.908
2859.6	0.8833
2868.3	0.8009
2877	0.589
2885.7	0.6857
2894.4	0.793
2903.1	0.7826
2911.8	0.7803
2920.5	0.7536
2929.2	0.7095
2937.9	0.478
2946.6	0.6496
2955.3	0.7031
2964	0.5377
2972.7	0.32
2981.4	0.3713
2990.1	0.5511
2998.8	0.8103
3007.51	0.8716
3016.21	0.8906
3024.91	0.9143
3033.61	0.9177
3042.31	0.9087
3051.01	0.8709
3059.71	0.8397
3068.41	0.8157
3077.11	0.852
3085.81	0.9307
3094.51	0.9443
3103.21	0.949
3111.91	0.951
3120.61	0.951
3129.31	0.951
3138.01	0.949
3146.71	0.948
3155.41	0.949
3164.11	0.949
3172.81	0.9537
3181.51	0.9577
3190.21	0.9624
3198.91	0.966
3207.61	0.967
3216.31	0.9688
3225.01	0.971
3233.72	0.972
3242.42	0.9732
3251.12	0.9754
3259.82	0.9754
3268.52	0.976
3277.22	0.978
3285.92	0.978
3294.62	0.978
3303.32	0.982
3312.02	0.985
3320.72	0.987
3329.42	0.9878
3338.12	0.987
3346.82	0.9894
3355.52	0.993
3364.22	0.9934
3372.92	0.9963
3381.62	1
3390.32	1.001
3399.02	1.001
3407.72	1.001
3416.42	1.001
3425.12	1.0006
3433.82	0.9991
3442.52	0.9976
3451.22	0.995
3459.93	0.994
3468.63	0.991
3477.33	0.993
3486.03	0.991
3494.73	0.9905
3503.43	0.9895
3512.13	0.989
3520.83	0.989
3529.53	0.987
3538.23	0.989
3546.93	0.987
3555.63	0.989
3564.33	0.986
3573.03	0.9865
3581.73	0.987
3590.43	0.9865
3599.13	0.9855
3607.83	0.986
3616.53	0.9865
3625.23	0.983
3633.93	0.985
3642.63	0.9855
3651.33	0.983
3660.03	0.9865
3668.73	0.9855
3677.43	0.985
3686.14	0.979
3694.84	0.983
3703.54	0.9839
3712.24	0.985
3720.94	0.9861
3729.64	0.9865
3738.34	0.9865
3747.04	0.982
3755.74	0.9839
3764.44	0.985
3773.14	0.9824
3781.84	0.981
3790.54	0.9784
