Infrared Spectrum: BENZENE, 1,4-DICHLORO-2-ETHYL-
Formula: C8 H8 Cl2
CAS: 54484-63-8
State: SOLUTION (10% IN CCl4 FOR 3800-1340 AND 10% IN CS2 FOR 1340-400 CM^-^1)
Class: COBLENTZ III
Instrument: DOW KBr FOREPRISM-GRATING
Instrument parameters: BLAZED AT 3.5, 12.0, 20.0 MICRON, CHANGED AT 5.0, 7.5, 14.9 MICRON
Sampling: TRANSMISSION
Path length: 0.010, 0.010CM
Resolution: 4
Origin: DOW CHEMICAL COMPANY
1/CM	TRANSMITTANCE
400.87	0.63
409.57	0.701
418.271	0.741
426.971	0.739
435.672	0.76
444.372	0.775
453.072	0.663
461.773	0.782
470.473	0.832
479.174	0.866
487.874	0.879
496.575	0.88
505.275	0.861
513.975	0.88
522.676	0.764
531.376	0.906
540.077	0.904
548.777	0.913
557.477	0.892
566.178	0.533
574.878	0.83
583.579	0.872
592.279	0.735
600.979	0.918
609.68	0.948
618.38	0.949
627.081	0.953
635.781	0.945
644.481	0.907
653.182	0.921
661.882	0.947
670.583	0.933
679.283	0.919
687.984	0.892
696.684	0.853
705.384	0.904
714.085	0.904
722.785	0.895
731.486	0.913
740.186	0.908
748.886	0.907
757.587	0.9
766.287	0.889
774.988	0.854
783.688	0.812
792.388	0.733
801.089	0.72
809.789	0.096
818.49	0.529
827.19	0.66
835.891	0.802
844.591	0.6219
853.291	0.582
861.992	0.682
870.692	0.63
879.393	0.3193
888.093	0.812
896.793	0.861
905.494	0.879
914.194	0.884
922.895	0.884
931.595	0.872
940.295	0.858
948.996	0.88
957.696	0.87
966.397	0.815
975.097	0.8
983.797	0.839
992.498	0.835
1001.2	0.865
1009.9	0.836
1018.6	0.822
1027.3	0.756
1036	0.3799
1044.7	0.618
1053.4	0.536
1062.1	0.153
1070.8	0.5101
1079.5	0.698
1088.2	0.589
1096.9	0.2519
1105.6	0.5761
1114.3	0.796
1123	0.793
1131.7	0.7629
1140.4	0.7241
1149.11	0.82
1157.81	0.865
1166.51	0.889
1175.21	0.892
1183.91	0.892
1192.61	0.854
1201.31	0.7521
1210.01	0.891
1218.71	0.895
1227.41	0.872
1236.11	0.845
1244.81	0.899
1253.51	0.862
1262.21	0.858
1270.91	0.881
1279.61	0.925
1288.31	0.929
1297.01	0.945
1305.71	0.945
1314.41	0.923
1323.11	0.862
1331.81	0.857
1340.51	0.8261
1349.21	0.873
1357.92	0.889
1366.62	0.879
1375.32	0.74
1384.02	0.763
1392.72	0.546
1401.42	0.6381
1410.12	0.819
1418.82	0.811
1427.52	0.801
1436.22	0.66
1444.92	0.622
1453.62	0.5288
1462.32	0.1729
1471.02	0.1333
1479.72	0.2751
1488.42	0.741
1497.12	0.785
1505.82	0.762
1514.52	0.73
1523.22	0.714
1531.92	0.658
1540.62	0.5819
1549.32	0.493
1558.02	0.493
1566.72	0.5361
1575.43	0.657
1584.13	0.6079
1592.83	0.6371
1601.53	0.8001
1610.23	0.876
1618.93	0.892
1627.63	0.898
1636.33	0.91
1645.03	0.94
1653.73	0.952
1662.43	0.959
1671.13	0.963
1679.83	0.966
1688.53	0.963
1697.23	0.961
1705.93	0.96
1714.63	0.959
1723.33	0.953
1732.03	0.945
1740.73	0.934
1749.43	0.891
1758.13	0.93
1766.83	0.956
1775.53	0.96
1784.24	0.96
1792.94	0.951
1801.64	0.96
1810.34	0.957
1819.04	0.948
1827.74	0.959
1836.44	0.957
1845.14	0.956
1853.84	0.953
1862.54	0.949
1871.24	0.93
1879.94	0.875
1888.64	0.941
1897.34	0.957
1906.04	0.963
1914.74	0.957
1923.44	0.959
1932.14	0.96
1940.84	0.963
1949.54	0.959
1958.24	0.953
1966.94	0.956
1975.64	0.952
1984.34	0.932
1993.05	0.949
2001.75	0.97
2010.45	0.944
2019.15	0.945
2027.85	0.942
2036.55	0.944
2045.25	0.945
2053.95	0.9489
2062.65	0.9521
2071.35	0.9508
2080.05	0.9519
2088.75	0.952
2097.45	0.953
2106.15	0.9522
2114.85	0.953
2123.55	0.955
2132.25	0.9546
2140.95	0.9562
2149.65	0.9574
2158.35	0.957
2167.05	0.9568
2175.75	0.955
2184.45	0.9575
2193.15	0.9576
2201.85	0.9579
2210.56	0.96
2219.26	0.956
2227.96	0.96
2236.66	0.956
2245.36	0.957
2254.06	0.956
2262.76	0.9556
2271.46	0.953
2280.16	0.9516
2288.86	0.9458
2297.56	0.947
2306.26	0.9431
2314.96	0.9479
2323.66	0.952
2332.36	0.9539
2341.06	0.956
2349.76	0.96
2358.46	0.956
2367.16	0.962
2375.86	0.963
2384.56	0.9665
2393.26	0.963
2401.96	0.9676
2410.66	0.97
2419.37	0.9704
2428.07	0.968
2436.77	0.9674
2445.47	0.9642
2454.17	0.97
2462.87	0.97
2471.57	0.967
2480.27	0.9703
2488.97	0.97
2497.67	0.97
2506.37	0.967
2515.07	0.966
2523.77	0.964
2532.47	0.964
2541.17	0.964
2549.87	0.9662
2558.57	0.967
2567.27	0.967
2575.97	0.9656
2584.67	0.967
2593.37	0.966
2602.07	0.964
2610.77	0.966
2619.47	0.96
2628.17	0.955
2636.88	0.9559
2645.58	0.9588
2654.28	0.9571
2662.98	0.9559
2671.68	0.959
2680.38	0.956
2689.08	0.956
2697.78	0.956
2706.48	0.956
2715.18	0.956
2723.88	0.9549
2732.58	0.9441
2741.28	0.9521
2749.98	0.9551
2758.68	0.9559
2767.38	0.9529
2776.08	0.948
2784.78	0.944
2793.48	0.9423
2802.18	0.9471
2810.88	0.945
2819.58	0.9397
2828.28	0.9285
2836.98	0.9202
2845.69	0.9108
2854.39	0.8956
2863.09	0.8856
2871.79	0.8102
2880.49	0.584
2889.19	0.7397
2897.89	0.7985
2906.59	0.8049
2915.29	0.7962
2923.99	0.7712
2932.69	0.675
2941.39	0.512
2950.09	0.6333
2958.79	0.7136
2967.49	0.5755
2976.19	0.2907
2984.89	0.4375
2993.59	0.7478
3002.29	0.8598
3010.99	0.8972
3019.69	0.9174
3028.39	0.9219
3037.09	0.9309
3045.79	0.9415
3054.5	0.939
3063.2	0.9325
3071.9	0.9335
3080.6	0.941
3089.3	0.9445
3098	0.952
3106.7	0.957
3115.4	0.959
3124.1	0.9606
3132.8	0.9622
3141.5	0.966
3150.2	0.9693
3158.9	0.964
3167.6	0.968
3176.3	0.97
3185	0.9731
3193.7	0.976
3202.4	0.9757
3211.1	0.979
3219.8	0.979
3228.5	0.976
3237.2	0.9742
3245.9	0.971
3254.6	0.9736
3263.3	0.9776
3272.01	0.9816
3280.71	0.98
3289.41	0.98
3298.11	0.979
3306.81	0.9781
3315.51	0.9707
3324.21	0.9719
3332.91	0.9682
3341.61	0.966
3350.31	0.9601
3359.01	0.9531
3367.71	0.947
3376.41	0.937
3385.11	0.932
3393.81	0.926
3402.51	0.927
3411.21	0.93
3419.91	0.9301
3428.61	0.938
3437.31	0.945
3446.01	0.9521
3454.71	0.9561
3463.41	0.9612
3472.11	0.966
3480.82	0.971
3489.52	0.975
3498.22	0.9783
3506.92	0.979
3515.62	0.979
3524.32	0.98
3533.02	0.979
3541.72	0.9834
3550.42	0.983
3559.12	0.991
3567.82	0.991
3576.52	0.9942
3585.22	0.9947
3593.92	0.9949
3602.62	0.9977
3611.32	0.9929
3620.02	0.9991
3628.72	0.9937
3637.42	0.9993
3646.12	0.991
3654.82	0.9957
3663.52	0.9936
3672.22	0.9969
3680.92	0.9958
3689.62	0.9896
3698.33	0.9936
3707.03	0.9883
3715.73	0.9856
3724.43	0.9865
3733.13	0.9905
3741.83	0.988
3750.53	0.987
3759.23	0.982
3767.93	0.983
3776.63	0.9841
3785.33	0.986
3794.03	0.9864
