Infrared Spectrum: Indole-3-acetic acid, hydrazide
Formula: C10 H11 N3 O
CAS: 5448-47-5
State: SOLID (SPLIT MULL), FLUOROLUBE FOR 3800-1330 CM^-^1, NUJOL FOR 1330-450 CM^-^1
Class: COBLENTZ III
Instrument: DOW KBr FOREPRISM-GRATING
Instrument parameters: BLAZED AT 3.5, 12.0, 20.0 MICRON AND CHANGED AT 5.0, 7.5, 14.9 MICRON
Sampling: TRANSMISSION
Resolution: 2
Origin: DOW CHEMICAL COMPANY
1/CM	TRANSMITTANCE
451	0.8096
460	0.8202
469	0.8025
478	0.8609
487	0.8814
496	0.8835
505	0.8818
514	0.8752
523	0.8393
532	0.8408
541	0.8521
550	0.8215
559	0.7083
568	0.6675
577	0.8024
586	0.7854
595	0.6337
604	0.6964
613	0.6993
622	0.5972
631	0.84
640	0.8183
649	0.764
658	0.6511
667	0.4947
676	0.4749
685	0.4778
694	0.5908
703	0.6327
712	0.6312
721	0.554
730	0.6084
739	0.3318
748	0.4783
757	0.1131
766	0.3334
775	0.6321
784	0.6997
793	0.7145
802	0.6208
811	0.8067
820	0.8324
829	0.8311
838	0.8198
847	0.7807
856	0.8428
865	0.8275
874	0.8106
883	0.8007
892	0.7837
901	0.813
910	0.7901
919	0.7458
928	0.6274
937	0.4746
946	0.7615
955	0.7951
964	0.7817
973	0.7491
982	0.6114
991	0.6439
1000	0.7356
1009	0.6215
1018	0.7634
1027	0.6507
1036	0.4671
1045	0.7315
1054	0.7621
1063	0.7183
1072	0.6248
1081	0.7137
1090	0.6515
1099	0.4688
1108	0.6379
1117	0.7646
1126	0.7808
1135	0.7844
1144	0.7464
1153	0.7634
1162	0.7635
1171	0.7357
1180	0.6778
1189	0.7181
1198	0.7408
1207	0.7174
1216	0.6586
1225	0.609
1234	0.3504
1243	0.6046
1252	0.6239
1261	0.6558
1270	0.6296
1279	0.566
1288	0.4297
1297	0.5617
1306	0.5616
1315	0.5374
1324	0.5248
1333	0.5076
1342	0.4665
1351	0.411
1360	0.4384
1369	0.546
1378	0.5589
1387	0.6145
1396	0.6146
1405	0.597
1414	0.542
1423	0.3579
1432	0.4625
1441	0.3984
1450	0.5457
1459	0.545
1468	0.6272
1477	0.6
1486	0.5406
1495	0.4497
1504	0.4909
1513	0.3934
1522	0.2728
1531	0.2587
1540	0.5403
1549	0.6038
1558	0.6853
1567	0.6837
1576	0.6599
1585	0.5837
1594	0.5165
1603	0.2556
1612	0.2468
1621	0.2769
1630	0.2897
1639	0.2479
1648	0.1062
1657	0.1674
1666	0.6127
1675	0.7558
1684	0.8175
1693	0.8463
1702	0.8623
1711	0.8705
1720	0.8713
1729	0.868
1738	0.862
1747	0.8566
1756	0.8514
1765	0.8428
1774	0.8316
1783	0.8199
1792	0.8359
1801	0.8382
1810	0.8308
1819	0.8268
1828	0.8297
1837	0.8262
1846	0.8216
1855	0.814
1864	0.8093
1873	0.8064
1882	0.8046
1891	0.7955
1900	0.7793
1909	0.7941
1918	0.8011
1927	0.7961
1936	0.7895
1945	0.7953
1954	0.7921
1963	0.7911
1972	0.7892
1981	0.786
1990	0.7826
1999	0.7792
2008	0.7778
2017	0.7771
2026	0.7751
2035	0.7724
2044	0.7694
2053	0.7662
2062	0.7631
2071	0.7594
2080	0.7556
2089	0.7521
2098	0.7488
2107	0.7454
2116	0.7421
2125	0.7387
2134	0.7349
2143	0.7311
2152	0.7274
2161	0.7237
2170	0.7203
2179	0.7174
2188	0.7145
2197	0.7115
2206	0.7086
2215	0.7051
2224	0.7015
2233	0.6971
2242	0.6926
2251	0.6883
2260	0.684
2269	0.6808
2278	0.678
2287	0.6753
2296	0.6728
2305	0.6705
2314	0.6689
2323	0.6675
2332	0.6664
2341	0.6651
2350	0.6641
2359	0.6632
2368	0.6622
2377	0.6614
2386	0.6601
2395	0.6588
2404	0.6574
2413	0.6558
2422	0.6545
2431	0.653
2440	0.6515
2449	0.6506
2458	0.6497
2467	0.6486
2476	0.6469
2485	0.6453
2494	0.6436
2503	0.6412
2512	0.639
2521	0.6365
2530	0.6341
2539	0.6316
2548	0.6286
2557	0.6256
2566	0.6226
2575	0.6196
2584	0.6167
2593	0.6141
2602	0.6117
2611	0.6092
2620	0.6068
2629	0.6034
2638	0.6001
2647	0.5966
2656	0.5933
2665	0.5899
2674	0.5865
2683	0.5832
2692	0.58
2701	0.5768
2710	0.5734
2719	0.5699
2728	0.5666
2737	0.5639
2746	0.561
2755	0.5581
2764	0.5547
2773	0.5512
2782	0.5475
2791	0.5432
2800	0.5388
2809	0.5341
2818	0.5291
2827	0.5212
2836	0.506
2845	0.4602
2854	0.4549
2863	0.4599
2872	0.4685
2881	0.4688
2890	0.458
2899	0.4382
2908	0.3947
2917	0.4036
2926	0.415
2935	0.4225
2944	0.43
2953	0.4291
2962	0.4149
2971	0.4354
2980	0.451
2989	0.4478
2998	0.436
3007	0.4223
3016	0.4096
3025	0.3974
3034	0.3853
3043	0.3806
3052	0.3899
3061	0.3966
3070	0.393
3079	0.3938
3088	0.3918
3097	0.3796
3106	0.3684
3115	0.354
3124	0.3404
3133	0.3262
3142	0.3108
3151	0.2933
3160	0.2745
3169	0.2594
3178	0.2446
3187	0.2309
3196	0.217
3205	0.2049
3214	0.1942
3223	0.1662
3232	0.1391
3241	0.1131
3250	0.0881
3259	0.0746
3268	0.0688
3277	0.0667
3286	0.0682
3295	0.0761
3304	0.0896
3313	0.1366
3322	0.1959
3331	0.179
3340	0.4133
3349	0.4443
3358	0.4902
3367	0.533
3376	0.5551
3385	0.5644
3394	0.5714
3403	0.5762
3412	0.5797
3421	0.581
3430	0.5815
3439	0.5804
3448	0.5783
3457	0.5756
3466	0.5712
3475	0.5666
3484	0.562
3493	0.5575
3502	0.5529
3511	0.5484
3520	0.5442
3529	0.54
3538	0.5357
3547	0.5312
3556	0.5269
3565	0.5229
3574	0.519
3583	0.5151
3592	0.5119
3601	0.5087
3610	0.5065
3619	0.5045
3628	0.5024
3637	0.4995
3646	0.4967
3655	0.4937
3664	0.4909
3673	0.4879
3682	0.4865
3691	0.4853
3700	0.4851
3709	0.4842
3718	0.4815
3727	0.478
3736	0.475
3745	0.4722
3754	0.4692
3763	0.4657
3772	0.4623
3781	0.4589
