Infrared Spectrum: BARBITURIC ACID, 5-(2-BROMOALLYL)-5-ISOPROPYL-
Formula: C10 H13 Br N2 O3
CAS: 545-93-7
State: SOLID (8 mg / 200 mg KBr DISC)
Melting point: 177-179 C
Class: COBLENTZ III
Instrument: PERKIN-ELMER 21 (GRATING)
Instrument parameters: FILTER AT ABOUT 10 MICRONS
Sampling: TRANSMISSION
Resolution: 2
1/CM	TRANSMITTANCE
4000	0.9411
3991	0.9413
3982	0.9415
3973	0.9418
3964	0.942
3955	0.9423
3946	0.9425
3937	0.9428
3928	0.9431
3919	0.9434
3910	0.9438
3901	0.9442
3892	0.9446
3883	0.9449
3874	0.9452
3865	0.9457
3856	0.9463
3847	0.9468
3838	0.9474
3829	0.948
3820	0.9488
3811	0.95
3802	0.9514
3793	0.9534
3784	0.9558
3775	0.9575
3766	0.959
3757	0.9605
3748	0.9618
3739	0.9625
3730	0.9633
3721	0.9641
3712	0.9648
3703	0.9655
3694	0.9659
3685	0.9663
3676	0.9668
3667	0.967
3658	0.9671
3649	0.9671
3640	0.967
3631	0.9666
3622	0.9662
3613	0.9644
3604	0.9621
3595	0.9592
3586	0.9553
3577	0.9513
3568	0.9468
3559	0.942
3550	0.9371
3541	0.9321
3532	0.9267
3523	0.9213
3514	0.9152
3505	0.9085
3496	0.9016
3487	0.8954
3478	0.8893
3469	0.8831
3460	0.8766
3451	0.8696
3442	0.8624
3433	0.8566
3424	0.8513
3415	0.8461
3406	0.8433
3397	0.8418
3388	0.8404
3379	0.8392
3370	0.8391
3361	0.8401
3352	0.8416
3343	0.8415
3334	0.818
3325	0.7778
3316	0.7376
3307	0.6971
3298	0.6565
3289	0.6155
3280	0.5743
3271	0.533
3262	0.4912
3253	0.4495
3244	0.4074
3235	0.365
3226	0.3225
3217	0.2942
3208	0.2917
3199	0.2907
3190	0.3095
3181	0.3374
3172	0.3656
3163	0.3939
3154	0.42
3145	0.4244
3136	0.4237
3127	0.417
3118	0.4057
3109	0.4004
3100	0.4003
3091	0.4117
3082	0.4417
3073	0.4723
3064	0.5031
3055	0.5341
3046	0.5652
3037	0.5966
3028	0.6281
3019	0.6598
3010	0.6803
3001	0.6843
2992	0.6858
2983	0.6858
2974	0.6833
2965	0.6801
2956	0.6791
2947	0.6822
2938	0.6912
2929	0.7021
2920	0.7121
2911	0.7211
2902	0.7293
2893	0.7367
2884	0.7418
2875	0.7469
2866	0.7525
2857	0.7564
2848	0.7598
2839	0.761
2830	0.7617
2821	0.7625
2812	0.7643
2803	0.7721
2794	0.7833
2785	0.7941
2776	0.8051
2767	0.8203
2758	0.8428
2749	0.862
2740	0.8763
2731	0.8905
2722	0.8992
2713	0.9039
2704	0.9077
2695	0.9111
2686	0.9141
2677	0.9166
2668	0.9198
2659	0.9245
2650	0.9318
2641	0.9361
2632	0.9389
2623	0.9391
2614	0.9388
2605	0.9386
2596	0.9389
2587	0.9392
2578	0.9395
2569	0.9408
2560	0.9421
2551	0.9437
2542	0.9455
2533	0.9482
2524	0.9509
2515	0.9536
2506	0.9556
2497	0.9568
2488	0.9568
2479	0.9554
2470	0.9538
2461	0.9531
2452	0.9532
2443	0.9545
2434	0.9568
2425	0.9598
2416	0.9632
2407	0.9663
2398	0.9693
2389	0.9721
2380	0.9732
2371	0.9732
2362	0.9727
2353	0.9712
2344	0.9699
2335	0.9692
2326	0.9688
2317	0.9686
2308	0.9731
2299	0.9771
2290	0.9787
2281	0.9796
2272	0.9815
2263	0.9839
2254	0.9874
2245	0.993
2236	0.9963
2227	0.9961
2218	0.9952
2209	0.9945
2200	0.9958
2191	0.9993
2182	1.0039
2173	1.0086
2164	1.0106
2155	1.0104
2146	1.0075
2137	1.0042
2128	1.003
2119	0.9971
2110	0.988
2101	0.9839
2092	0.9831
2083	0.9839
2074	0.9827
2065	0.9794
2056	0.9814
2047	0.9859
2038	0.9904
2029	0.993
2020	0.9937
2011	0.9909
2002	0.9885
1993	0.9878
1984	0.9873
1975	0.9865
1966	0.985
1957	0.9805
1948	0.9724
1939	0.9591
1930	0.9525
1921	0.9533
1912	0.9531
1903	0.9525
1894	0.9509
1885	0.9466
1876	0.9396
1867	0.9306
1858	0.9193
1849	0.9046
1840	0.888
1831	0.8677
1822	0.8404
1813	0.8138
1804	0.795
1795	0.7774
1786	0.7388
1777	0.6985
1768	0.6014
1759	0.5203
1750	0.3372
1741	0.1967
1732	0.0515
1723	0.0645
1714	0.0565
1705	0.0432
1696	0.0644
1687	0.2013
1678	0.2838
1669	0.3803
1660	0.4155
1651	0.4923
1642	0.5872
1633	0.5921
1624	0.5895
1615	0.6811
1606	0.7251
1597	0.7586
1588	0.7894
1579	0.8114
1570	0.8281
1561	0.8386
1552	0.8342
1543	0.8171
1534	0.8545
1525	0.8745
1516	0.8798
1507	0.8791
1498	0.9023
1489	0.892
1480	0.8337
1471	0.7683
1462	0.6735
1453	0.566
1444	0.368
1435	0.1874
1426	0.2878
1417	0.4707
1408	0.4471
1399	0.4953
1390	0.5427
1381	0.5335
1372	0.3159
1363	0.2591
1354	0.419
1345	0.5471
1336	0.4612
1327	0.4848
1318	0.3982
1309	0.5883
1300	0.4121
1291	0.5608
1282	0.6911
1273	0.7247
1264	0.7315
1255	0.5333
1246	0.7211
1237	0.7888
1228	0.779
1219	0.6634
1210	0.2747
1201	0.52
1192	0.6985
1183	0.7831
1174	0.6768
1165	0.7488
1156	0.7871
1147	0.8115
1138	0.8432
1129	0.8427
1120	0.8015
1111	0.7865
1102	0.7928
1093	0.8447
1084	0.8627
1075	0.8678
1066	0.8078
1057	0.8603
1048	0.879
1039	0.8507
1030	0.7033
1021	0.7569
1012	0.8571
1003	0.8838
994	0.8874
985	0.9009
976	0.8828
967	0.9064
958	0.9043
949	0.9099
940	0.919
931	0.8877
922	0.866
913	0.8786
904	0.7308
895	0.6734
886	0.8374
877	0.8087
868	0.7936
859	0.7296
850	0.6908
841	0.5627
832	0.4352
823	0.455
814	0.5392
805	0.6069
796	0.6451
787	0.5787
778	0.7011
769	0.7878
760	0.8257
751	0.8627
742	0.8857
733	0.9018
724	0.9098
715	0.9099
706	0.908
697	0.8921
688	0.9097
679	0.7925
670	0.8967
