Infrared Spectrum: 1-(3-METHYL-4-MORPHOLINO-2,2-DIPHENYLBUTYRYL-PYRROLIDINE
Formula: C25 H32 N2 O2
CAS: 545-59-5
State: SOLID (NUJOL MULL)
Class: COBLENTZ III
Instrument: Not specified, most likely a prism spectrometer.
Instrument parameters: NaCl PRISM
Sampling: TRANSMISSION
Resolution: 2
Origin: SMITH KLINE & FRENCH LABS.
MICROMETERS	TRANSMITTANCE
1.994	0.619
2.02835	0.62
2.06271	0.624
2.09706	0.628
2.13142	0.639
2.16577	0.645
2.20013	0.652
2.23448	0.66
2.26884	0.664
2.30319	0.663
2.33755	0.663
2.3719	0.668
2.40626	0.67
2.44061	0.678
2.47497	0.685
2.50932	0.691
2.54368	0.698
2.57803	0.702
2.61239	0.706
2.64674	0.719
2.6811	0.721
2.71545	0.724
2.74981	0.724
2.78416	0.725
2.81852	0.728
2.85287	0.73
2.88723	0.736
2.92158	0.737
2.95594	0.737
2.99029	0.737
3.02465	0.74
3.059	0.745
3.09336	0.747
3.12771	0.75
3.16207	0.751
3.19642	0.751
3.23078	0.743
3.26513	0.719
3.29949	0.673
3.33384	0.651
3.3682	0.425
3.40255	0.119
3.43691	0.05
3.47126	0.05
3.50562	0.103
3.53997	0.293
3.57433	0.575
3.60868	0.593
3.64304	0.603
3.67739	0.654
3.71175	0.713
3.7461	0.721
3.78046	0.736
3.81481	0.754
3.84917	0.776
3.88352	0.797
3.91788	0.819
3.95223	0.829
3.98659	0.834
4.02094	0.839
4.0553	0.846
4.08965	0.854
4.12401	0.856
4.15836	0.856
4.19272	0.856
4.22707	0.859
4.26143	0.86
4.29578	0.86
4.33014	0.86
4.36449	0.863
4.39885	0.865
4.4332	0.871
4.46756	0.87
4.50191	0.87
4.53627	0.873
4.57062	0.875
4.60498	0.88
4.63933	0.882
4.67369	0.885
4.70804	0.887
4.7424	0.89
4.77675	0.889
4.81111	0.891
4.84546	0.89
4.87982	0.891
4.91417	0.893
4.94853	0.895
4.98288	0.895
5.01724	0.89
5.05159	0.885
5.08595	0.871
5.1203	0.875
5.15466	0.889
5.18901	0.893
5.22337	0.89
5.25772	0.89
5.29208	0.891
5.32643	0.897
5.36079	0.901
5.39514	0.901
5.4295	0.897
5.46385	0.891
5.49821	0.896
5.53256	0.902
5.56692	0.904
5.60127	0.904
5.63563	0.904
5.66998	0.902
5.70434	0.902
5.73869	0.902
5.77305	0.902
5.8074	0.902
5.84176	0.9
5.87611	0.898
5.91047	0.895
5.94482	0.893
5.97918	0.889
6.01353	0.865
6.04789	0.835
6.08224	0.687
6.1166	0.546
6.15095	0.268
6.18531	0.157
6.21966	0.487
6.25402	0.519
6.28837	0.662
6.32273	0.592
6.35708	0.736
6.39144	0.802
6.42579	0.83
6.46015	0.851
6.4945	0.86
6.52886	0.862
6.56321	0.863
6.59757	0.863
6.63192	0.853
6.66628	0.704
6.70063	0.609
6.73499	0.63
6.76934	0.639
6.8037	0.501
6.83805	0.343
6.87241	0.34
6.90676	0.308
6.94112	0.385
6.97547	0.526
7.00983	0.636
7.04418	0.702
7.07854	0.66
7.11289	0.51
7.14725	0.379
7.1816	0.328
7.21596	0.314
7.25031	0.342
7.28467	0.392
7.31902	0.442
7.35338	0.609
7.38773	0.636
7.42209	0.681
7.45644	0.72
7.4908	0.712
7.52515	0.709
7.55951	0.731
7.59386	0.735
7.62822	0.704
7.66257	0.741
7.69693	0.701
7.73128	0.613
7.76564	0.692
7.79999	0.731
7.83435	0.689
7.8687	0.681
7.90306	0.78
7.93741	0.804
7.97177	0.767
8.00612	0.773
8.04048	0.745
8.07483	0.676
8.10919	0.748
8.14354	0.757
8.1779	0.77
8.21225	0.815
8.24661	0.84
8.28096	0.843
8.31532	0.826
8.34967	0.742
8.38403	0.728
8.41838	0.719
8.45274	0.741
8.48709	0.77
8.52145	0.752
8.5558	0.732
8.59016	0.748
8.62451	0.781
8.65887	0.781
8.69322	0.779
8.72758	0.782
8.76193	0.697
8.79629	0.585
8.83064	0.529
8.865	0.58
8.89935	0.604
8.93371	0.573
8.96806	0.436
9.00242	0.308
9.03677	0.378
9.07113	0.613
9.10548	0.689
9.13984	0.709
9.17419	0.746
9.20855	0.758
9.2429	0.786
9.27726	0.806
9.31161	0.808
9.34597	0.808
9.38032	0.678
9.41468	0.741
9.44903	0.771
9.48339	0.814
9.51774	0.842
9.5521	0.856
9.58645	0.857
9.62081	0.846
9.65516	0.689
9.68952	0.658
9.72387	0.747
9.75823	0.793
9.79258	0.824
9.82694	0.836
9.86129	0.829
9.89565	0.732
9.93	0.518
9.96436	0.589
9.99871	0.708
10.0331	0.769
10.0674	0.81
10.1018	0.841
10.1361	0.843
10.1705	0.845
10.2048	0.846
10.2392	0.841
10.2736	0.821
10.3079	0.78
10.3423	0.77
10.3766	0.839
10.411	0.848
10.4453	0.856
10.4797	0.859
10.514	0.859
10.5484	0.858
10.5827	0.836
10.6171	0.839
10.6515	0.846
10.6858	0.858
10.7202	0.86
10.7545	0.835
10.7889	0.809
10.8232	0.808
10.8576	0.787
10.8919	0.784
10.9263	0.784
10.9607	0.785
10.995	0.837
11.0294	0.863
11.0637	0.865
11.0981	0.864
11.1324	0.818
11.1668	0.751
11.2011	0.77
11.2355	0.835
11.2698	0.848
11.3042	0.853
11.3386	0.848
11.3729	0.825
11.4073	0.814
11.4416	0.803
11.476	0.802
11.5103	0.81
11.5447	0.812
11.579	0.759
11.6134	0.548
11.6478	0.45
11.6821	0.62
11.7165	0.725
11.7508	0.769
11.7852	0.764
11.8195	0.739
11.8539	0.735
11.8882	0.813
11.9226	0.862
11.9569	0.882
11.9913	0.891
12.0257	0.896
12.06	0.896
12.0944	0.896
12.1287	0.896
12.1631	0.895
12.1974	0.893
12.2318	0.895
12.2661	0.898
12.3005	0.901
12.3349	0.904
12.3692	0.903
12.4036	0.886
12.4379	0.843
12.4723	0.774
12.5066	0.774
12.541	0.82
12.5753	0.859
12.6097	0.875
12.644	0.893
12.6784	0.902
12.7128	0.902
12.7471	0.902
12.7815	0.902
12.8158	0.902
12.8502	0.902
12.8845	0.897
12.9189	0.887
12.9532	0.865
12.9876	0.812
13.022	0.639
13.0563	0.52
13.0907	0.609
13.125	0.664
13.1594	0.637
13.1937	0.54
13.2281	0.553
13.2624	0.67
13.2968	0.739
13.3311	0.78
13.3655	0.82
13.3999	0.842
13.4342	0.848
13.4686	0.853
13.5029	0.853
13.5373	0.85
13.5716	0.834
13.606	0.825
13.6403	0.823
13.6747	0.807
13.7091	0.75
13.7434	0.662
13.7778	0.584
13.8121	0.584
13.8465	0.634
13.8808	0.652
13.9152	0.635
13.9495	0.539
13.9839	0.401
14.0182	0.396
14.0526	0.473
14.087	0.6
14.1213	0.654
14.1557	0.653
14.19	0.551
14.2244	0.414
14.2587	0.291
14.2931	0.358
14.3274	0.528
14.3618	0.659
14.3962	0.717
14.4305	0.763
14.4649	0.778
14.4992	0.796
14.5336	0.817
14.5679	0.823
14.6023	0.826
14.6366	0.826
14.671	0.826
14.7053	0.823
14.7397	0.817
14.7741	0.795
14.8084	0.754
14.8428	0.721
14.8771	0.718
14.9115	0.745
14.9458	0.77
14.9802	0.782
15.0145	0.784
15.0489	0.786
15.0833	0.792
