Infrared Spectrum: TRIETHYLENE GLYCOL DIFORMATE
Formula: C8 H14 O6
CAS: 5451-65-0
State: LIQUID
Class: COBLENTZ
Instrument: PERKIN-ELMER
Sampling: TRANSMISSION
Path length: 0.0015 CM
Resolution: 4
Origin: STANDARD OIL OF OHIO
MICROMETERS	TRANSMITTANCE
2.041	0.972
2.07489	0.97
2.10878	0.969
2.14267	0.969
2.17655	0.969
2.21044	0.969
2.24433	0.965
2.27822	0.953
2.31211	0.931
2.346	0.921
2.37988	0.924
2.41377	0.928
2.44766	0.93
2.48155	0.931
2.51544	0.935
2.54933	0.94
2.58321	0.95
2.6171	0.95
2.65099	0.953
2.68488	0.959
2.71877	0.957
2.75266	0.959
2.78654	0.945
2.82043	0.89
2.85432	0.854
2.88821	0.851
2.9221	0.856
2.95599	0.89
2.98987	0.909
3.02376	0.919
3.05765	0.924
3.09154	0.926
3.12543	0.924
3.15932	0.923
3.1932	0.921
3.22709	0.911
3.26098	0.895
3.29487	0.856
3.32876	0.744
3.36265	0.365
3.39654	0.083
3.43042	0.049
3.46431	0.056
3.4982	0.158
3.53209	0.397
3.56598	0.689
3.59987	0.766
3.63375	0.812
3.66764	0.825
3.70153	0.836
3.73542	0.873
3.76931	0.897
3.8032	0.909
3.83708	0.918
3.87097	0.921
3.90486	0.926
3.93875	0.933
3.97264	0.94
4.00653	0.941
4.04041	0.943
4.0743	0.945
4.10819	0.948
4.14208	0.95
4.17597	0.948
4.20986	0.943
4.24374	0.941
4.27763	0.938
4.31152	0.943
4.34541	0.943
4.3793	0.948
4.41319	0.948
4.44708	0.948
4.48096	0.948
4.51485	0.945
4.54874	0.945
4.58263	0.947
4.61652	0.947
4.65041	0.945
4.68429	0.947
4.71818	0.947
4.75207	0.947
4.78596	0.95
4.81985	0.95
4.85374	0.95
4.88762	0.945
4.92151	0.938
4.9554	0.93
4.98929	0.924
5.02318	0.926
5.05707	0.928
5.09095	0.93
5.12484	0.931
5.15873	0.935
5.19262	0.938
5.22651	0.941
5.2604	0.941
5.29428	0.945
5.32817	0.947
5.36206	0.947
5.39595	0.945
5.42984	0.94
5.46373	0.933
5.49761	0.923
5.5315	0.902
5.56539	0.88
5.59928	0.848
5.63317	0.79
5.66706	0.703
5.70095	0.558
5.73483	0.206
5.76872	0.037
5.80261	0.013
5.8365	0.145
5.87039	0.44
5.90428	0.629
5.93816	0.718
5.97205	0.779
6.00594	0.807
6.03983	0.817
6.07372	0.832
6.10761	0.853
6.14149	0.883
6.17538	0.901
6.20927	0.907
6.24316	0.916
6.27705	0.923
6.31094	0.926
6.34482	0.926
6.37871	0.928
6.4126	0.93
6.44649	0.928
6.48038	0.928
6.51427	0.928
6.54815	0.928
6.58204	0.919
6.61593	0.909
6.64982	0.894
6.68371	0.853
6.7176	0.79
6.75149	0.663
6.78537	0.515
6.81926	0.269
6.85315	0.252
6.88704	0.288
6.92093	0.411
6.95482	0.522
6.9887	0.612
7.02259	0.691
7.05648	0.716
7.09037	0.716
7.12426	0.701
7.15815	0.662
7.19203	0.604
7.22592	0.373
7.25981	0.278
7.2937	0.366
7.32759	0.448
7.36148	0.486
7.39536	0.491
7.42925	0.546
7.46314	0.612
7.49703	0.645
7.53092	0.663
7.56481	0.667
7.59869	0.662
7.63258	0.616
7.66647	0.568
7.70036	0.511
7.73425	0.481
7.76814	0.464
7.80202	0.455
7.83591	0.452
7.8698	0.445
7.90369	0.431
7.93758	0.399
7.97147	0.298
8.00536	0.279
8.03924	0.244
8.07313	0.242
8.10702	0.252
8.14091	0.278
8.1748	0.331
8.20869	0.37
8.24257	0.372
8.27646	0.331
8.31035	0.249
8.34424	0.18
8.37813	0.124
8.41202	0.076
8.4459	0.044
8.47979	0.025
8.51368	0.023
8.54757	0.025
8.58146	0.035
8.61535	0.078
8.64923	0.102
8.68312	0.104
8.71701	0.098
8.7509	0.085
8.78479	0.075
8.81868	0.068
8.85256	0.056
8.88645	0.051
8.92034	0.049
8.95423	0.056
8.98812	0.076
9.02201	0.092
9.05589	0.11
9.08978	0.131
9.12367	0.168
9.15756	0.215
9.19145	0.252
9.22534	0.284
9.25923	0.315
9.29311	0.334
9.327	0.351
9.36089	0.361
9.39478	0.365
9.42867	0.368
9.46256	0.37
9.49644	0.373
9.53033	0.385
9.56422	0.402
9.59811	0.423
9.632	0.443
9.66589	0.47
9.69977	0.5
9.73366	0.529
9.76755	0.551
9.80144	0.566
9.83533	0.581
9.86922	0.598
9.9031	0.612
9.93699	0.621
9.97088	0.634
10.0048	0.65
10.0387	0.658
10.0725	0.668
10.1064	0.68
10.1403	0.686
10.1742	0.694
10.2081	0.696
10.242	0.697
10.2759	0.692
10.3098	0.68
10.3437	0.668
10.3775	0.658
10.4114	0.65
10.4453	0.639
10.4792	0.631
10.5131	0.622
10.547	0.616
10.5809	0.612
10.6148	0.61
10.6486	0.612
10.6825	0.614
10.7164	0.621
10.7503	0.631
10.7842	0.639
10.8181	0.65
10.852	0.658
10.8859	0.665
10.9198	0.67
10.9536	0.682
10.9875	0.691
11.0214	0.701
11.0553	0.711
11.0892	0.721
11.1231	0.728
11.157	0.732
11.1909	0.732
11.2248	0.732
11.2586	0.732
11.2925	0.73
11.3264	0.728
11.3603	0.728
11.3942	0.728
11.4281	0.728
11.462	0.73
11.4959	0.73
11.5297	0.728
11.5636	0.726
11.5975	0.725
11.6314	0.721
11.6653	0.715
11.6992	0.711
11.7331	0.703
11.767	0.696
11.8009	0.692
11.8347	0.689
11.8686	0.687
11.9025	0.687
11.9364	0.689
11.9703	0.692
12.0042	0.697
12.0381	0.706
12.072	0.716
12.1058	0.723
12.1397	0.726
12.1736	0.73
12.2075	0.737
12.2414	0.738
12.2753	0.744
12.3092	0.747
12.3431	0.749
12.377	0.75
12.4108	0.75
12.4447	0.75
12.4786	0.752
12.5125	0.752
12.5464	0.754
12.5803	0.754
12.6142	0.759
12.6481	0.764
12.682	0.774
12.7158	0.798
12.7497	0.813
12.7836	0.831
12.8175	0.841
12.8514	0.853
12.8853	0.86
12.9192	0.863
12.9531	0.866
12.9869	0.868
13.0208	0.87
13.0547	0.872
13.0886	0.872
13.1225	0.87
13.1564	0.872
13.1903	0.872
13.2242	0.872
13.2581	0.87
13.2919	0.868
13.3258	0.865
13.3597	0.854
13.3936	0.851
13.4275	0.841
13.4614	0.832
13.4953	0.824
13.5292	0.82
13.563	0.82
13.5969	0.827
13.6308	0.834
13.6647	0.844
13.6986	0.854
13.7325	0.863
13.7664	0.87
13.8003	0.873
13.8342	0.875
13.868	0.878
13.9019	0.88
13.9358	0.88
13.9697	0.883
14.0036	0.885
14.0375	0.889
14.0714	0.89
14.1053	0.89
14.1392	0.89
14.173	0.89
14.2069	0.89
14.2408	0.889
14.2747	0.883
14.3086	0.885
14.3425	0.883
14.3764	0.882
14.4103	0.88
14.4441	0.877
14.478	0.873
14.5119	0.873
14.5458	0.868
14.5797	0.866
14.6136	0.863
14.6475	0.861
14.6814	0.858
14.7153	0.854
14.7491	0.851
14.783	0.848
14.8169	0.843
14.8508	0.837
14.8847	0.832
14.9186	0.827
14.9525	0.822
14.9864	0.819
15.0203	0.812
15.0541	0.807
15.088	0.802
15.1219	0.802
15.1558	0.796
15.1897	0.793
15.2236	0.79
15.2575	0.784
15.2914	0.779
15.3252	0.774
15.3591	0.769
15.393	0.759
