Infrared Spectrum: 1,3-PROPANEDIOL, 2,2-DIMETHYL-, DIFORMATE
Formula: C7 H12 O4
CAS: 5451-58-1
Boiling point: 97 C AT 11 mmHg
Class: COBLENTZ
Instrument: Not specified, most likely a prism, grating, or hybrid spectrometer.
Sampling: TRANSMISSION
Path length: SMEAR
Resolution: 4
Origin: TENNESSEE EASTMAN COMPANY, RESEARCH LABORATORIES
MICROMETERS	TRANSMITTANCE
2.061	0.994
2.10196	0.994
2.14291	0.996
2.18387	0.996
2.22482	0.993
2.26578	0.989
2.30674	0.989
2.34769	0.988
2.38865	0.984
2.4296	0.981
2.47056	0.981
2.51152	0.982
2.55247	0.982
2.59343	0.982
2.63438	0.982
2.67534	0.982
2.7163	0.982
2.75725	0.981
2.79821	0.974
2.83916	0.964
2.88012	0.948
2.92108	0.902
2.96203	0.923
3.00299	0.931
3.04394	0.933
3.0849	0.935
3.12586	0.938
3.16681	0.938
3.20777	0.938
3.24872	0.929
3.28968	0.929
3.33064	0.81
3.37159	0.41
3.41255	0.582
3.4535	0.664
3.49446	0.852
3.53542	0.909
3.57637	0.933
3.61733	0.938
3.65828	0.931
3.69924	0.94
3.7402	0.948
3.78115	0.947
3.82211	0.948
3.86307	0.953
3.90402	0.957
3.94498	0.957
3.98593	0.957
4.02689	0.957
4.06785	0.957
4.1088	0.957
4.14976	0.957
4.19071	0.95
4.23167	0.945
4.27263	0.943
4.31358	0.94
4.35454	0.931
4.39549	0.938
4.43645	0.952
4.47741	0.955
4.51836	0.957
4.55932	0.957
4.60027	0.955
4.64123	0.95
4.68219	0.938
4.72314	0.933
4.7641	0.933
4.80505	0.935
4.84601	0.938
4.88697	0.943
4.92792	0.952
4.96888	0.957
5.00983	0.965
5.05079	0.967
5.09175	0.967
5.1327	0.96
5.17366	0.957
5.21461	0.957
5.25557	0.955
5.29653	0.948
5.33748	0.947
5.37844	0.948
5.41939	0.948
5.46035	0.94
5.50131	0.923
5.54226	0.899
5.58322	0.854
5.62417	0.793
5.66513	0.576
5.70609	0.22
5.74704	0.032
5.788	0.02
5.82895	0.119
5.86991	0.292
5.91087	0.56
5.95182	0.647
5.99278	0.735
6.03373	0.808
6.07469	0.822
6.11565	0.858
6.1566	0.871
6.19756	0.888
6.23851	0.909
6.27947	0.917
6.32043	0.928
6.36138	0.928
6.40234	0.928
6.44329	0.917
6.48425	0.917
6.52521	0.912
6.56616	0.904
6.60712	0.894
6.64807	0.87
6.68903	0.813
6.72999	0.485
6.77094	0.456
6.8119	0.57
6.85285	0.664
6.89381	0.77
6.93477	0.829
6.97572	0.851
7.01668	0.861
7.05763	0.842
7.09859	0.789
7.13955	0.673
7.1805	0.76
7.22146	0.7
7.26241	0.593
7.30337	0.482
7.34433	0.711
7.38528	0.82
7.42624	0.846
7.4672	0.847
7.50815	0.841
7.54911	0.822
7.59006	0.794
7.63102	0.77
7.67198	0.764
7.71293	0.738
7.75389	0.728
7.79484	0.714
7.8358	0.735
7.87676	0.74
7.91771	0.692
7.95867	0.6
7.99962	0.576
8.04058	0.555
8.08154	0.487
8.12249	0.429
8.16345	0.343
8.2044	0.256
8.24536	0.179
8.28632	0.129
8.32727	0.088
8.36823	0.071
8.40918	0.059
8.45014	0.052
8.4911	0.047
8.53205	0.042
8.57301	0.041
8.61396	0.042
8.65492	0.044
8.69588	0.063
8.73683	0.121
8.77779	0.206
8.81874	0.309
8.8597	0.405
8.90066	0.499
8.94161	0.593
8.98257	0.647
9.02352	0.7
9.06448	0.728
9.10544	0.755
9.14639	0.776
9.18735	0.798
9.2283	0.803
9.26926	0.813
9.31022	0.818
9.35117	0.818
9.39213	0.818
9.43308	0.8
9.47404	0.777
9.515	0.774
9.55595	0.777
9.59691	0.788
9.63786	0.788
9.67882	0.782
9.71978	0.777
9.76073	0.762
9.80169	0.743
9.84264	0.752
9.8836	0.798
9.92456	0.82
9.96551	0.83
10.0065	0.839
10.0474	0.851
10.0884	0.863
10.1293	0.87
10.1703	0.871
10.2112	0.87
10.2522	0.861
10.2932	0.837
10.3341	0.796
10.3751	0.738
10.416	0.641
10.457	0.591
10.4979	0.55
10.5389	0.495
10.5799	0.48
10.6208	0.505
10.6618	0.543
10.7027	0.56
10.7437	0.558
10.7846	0.557
10.8256	0.56
10.8665	0.603
10.9075	0.649
10.9485	0.695
10.9894	0.738
11.0304	0.765
11.0713	0.781
11.1123	0.791
11.1532	0.8
11.1942	0.827
11.2351	0.859
11.2761	0.89
11.3171	0.911
11.358	0.928
11.399	0.938
11.4399	0.943
11.4809	0.947
11.5218	0.948
11.5628	0.953
11.6038	0.957
11.6447	0.958
11.6857	0.958
11.7266	0.958
11.7676	0.958
11.8085	0.958
11.8495	0.958
11.8904	0.958
11.9314	0.957
11.9724	0.955
12.0133	0.953
12.0543	0.953
12.0952	0.948
12.1362	0.943
12.1771	0.938
12.2181	0.935
12.259	0.931
12.3	0.928
12.341	0.926
12.3819	0.924
12.4229	0.926
12.4638	0.926
12.5048	0.928
12.5457	0.928
12.5867	0.928
12.6277	0.924
12.6686	0.921
12.7096	0.914
12.7505	0.9
12.7915	0.88
12.8324	0.864
12.8734	0.859
12.9143	0.858
12.9553	0.856
12.9963	0.851
13.0372	0.847
13.0782	0.834
13.1191	0.83
13.1601	0.83
13.201	0.837
13.242	0.844
13.283	0.851
13.3239	0.856
13.3649	0.856
13.4058	0.859
13.4468	0.859
13.4877	0.849
13.5287	0.835
13.5696	0.83
13.6106	0.829
13.6516	0.822
13.6925	0.818
13.7335	0.817
13.7744	0.82
13.8154	0.83
13.8563	0.839
13.8973	0.842
13.9382	0.846
13.9792	0.849
14.0202	0.849
14.0611	0.849
14.1021	0.847
14.143	0.849
14.184	0.847
14.2249	0.841
14.2659	0.837
14.3069	0.835
14.3478	0.83
14.3888	0.829
14.4297	0.823
14.4707	0.818
14.5116	0.817
14.5526	0.81
14.5935	0.803
14.6345	0.798
14.6755	0.793
14.7164	0.786
14.7574	0.777
14.7983	0.772
14.8393	0.77
14.8802	0.769
14.9212	0.76
14.9621	0.752
15.0031	0.741
15.0441	0.738
15.085	0.738
15.126	0.736
15.1669	0.733
15.2079	0.728
15.2488	0.721
15.2898	0.717
15.3308	0.709
15.3717	0.704
15.4127	0.699
15.4536	0.692
15.4946	0.69
15.5355	0.687
15.5765	0.682
15.6174	0.68
15.6584	0.673
15.6994	0.67
15.7403	0.661
15.7813	0.661
15.8222	0.659
15.8632	0.652
15.9041	0.651
15.9451	0.652
15.986	0.649
