Infrared Spectrum: Adenine, N-butyl-
Formula: C9 H13 N5
CAS: 5451-41-2
State: SOLID (0.8 mg / 650 mg KBr DISC)
Class: COBLENTZ III
Instrument: PERKIN-ELMER 21 (GRATING)
Instrument parameters: FILTER CHANGE ABOUT 1025 CM^-^1
Sampling: TRANSMISSION
Resolution: 2
Origin: SOUTHERN RESEARCH INSTITUTE
1/CM	TRANSMITTANCE
600.749	0.6046
609.791	0.6017
618.833	0.5923
627.875	0.5712
636.917	0.5379
645.959	0.5113
655	0.4747
664.042	0.4421
673.084	0.5827
682.126	0.6081
691.168	0.6247
700.21	0.6168
709.252	0.6037
718.294	0.6033
727.336	0.601
736.378	0.5842
745.42	0.5892
754.462	0.6054
763.503	0.7009
772.545	0.708
781.587	0.6882
790.629	0.6032
799.671	0.6212
808.713	0.683
817.755	0.6792
826.797	0.6616
835.839	0.6438
844.881	0.6251
853.923	0.6039
862.965	0.5755
872.006	0.5
881.048	0.4222
890.09	0.3559
899.132	0.3283
908.174	0.2778
917.216	0.2852
926.258	0.2384
935.3	0.4229
944.342	0.568
953.384	0.712
962.426	0.7344
971.468	0.7466
980.509	0.7548
989.551	0.761
998.593	0.7637
1007.64	0.7664
1016.68	0.7853
1025.72	0.7438
1034.76	0.7408
1043.8	0.754
1052.84	0.7488
1061.89	0.7412
1070.93	0.7329
1079.97	0.7238
1089.01	0.7068
1098.05	0.6572
1107.1	0.5604
1116.14	0.531
1125.18	0.6173
1134.22	0.4963
1143.26	0.2845
1152.31	0.3074
1161.35	0.5307
1170.39	0.5393
1179.43	0.6246
1188.47	0.5712
1197.52	0.6475
1206.56	0.644
1215.6	0.6094
1224.64	0.4633
1233.68	0.2898
1242.73	0.3118
1251.77	0.2867
1260.81	0.351
1269.85	0.5931
1278.89	0.6046
1287.93	0.5077
1296.98	0.4383
1306.02	0.4669
1315.06	0.4927
1324.1	0.4035
1333.14	0.1261
1342.19	0.2686
1351.23	0.3278
1360.27	0.3789
1369.31	0.3141
1378.35	0.4569
1387.4	0.4928
1396.44	0.3975
1405.48	0.397
1414.52	0.4925
1423.56	0.4647
1432.61	0.3567
1441.65	0.3007
1450.69	0.2381
1459.73	0.2795
1468.77	0.3196
1477.81	0.3631
1486.86	0.3605
1495.9	0.3677
1504.94	0.3506
1513.98	0.4381
1523.02	0.4729
1532.07	0.4187
1541.11	0.3514
1550.15	0.2515
1559.19	0.0949
1568.23	0.1556
1577.28	0.3566
1586.32	0.3727
1595.36	0.2958
1604.4	0.1824
1613.44	0.0642
1622.49	0.0212
1631.53	0.0265
1640.57	0.0734
1649.61	0.2529
1658.65	0.364
1667.7	0.5246
1676.74	0.5951
1685.78	0.677
1694.82	0.7067
1703.86	0.7002
1712.9	0.6968
1721.95	0.6783
1730.99	0.6549
1740.03	0.6413
1749.07	0.6315
1758.11	0.6264
1767.16	0.6278
1776.2	0.6297
1785.24	0.6323
1794.28	0.6353
1803.32	0.6383
1812.37	0.6415
1821.41	0.6443
1830.45	0.6491
1839.49	0.6616
1848.53	0.6815
1857.58	0.6996
1866.62	0.7157
1875.66	0.7258
1884.7	0.729
1893.74	0.7319
1902.78	0.7343
1911.83	0.7357
1920.87	0.7373
1929.91	0.7407
1938.95	0.7448
1947.99	0.7489
1957.04	0.7549
1966.08	0.761
1975.12	0.7662
1984.16	0.7689
1993.2	0.7703
2002.25	0.7695
2011.29	0.7678
2020.33	0.7658
2029.37	0.7622
2038.41	0.7583
2047.46	0.7543
2056.5	0.7503
2065.54	0.747
2074.58	0.7443
2083.62	0.7408
2092.67	0.7366
2101.71	0.7324
2110.75	0.7259
2119.79	0.7188
2128.83	0.7119
2137.87	0.7045
2146.92	0.6948
2155.96	0.6821
2165	0.6697
2174.04	0.6576
2183.08	0.6471
2192.13	0.6376
2201.17	0.6273
2210.21	0.6169
2219.25	0.6079
2228.29	0.6007
2237.34	0.5933
2246.38	0.5839
2255.42	0.5695
2264.46	0.5533
2273.5	0.5369
2282.55	0.5184
2291.59	0.5016
2300.63	0.4887
2309.67	0.4735
2318.71	0.4587
2327.75	0.4461
2336.8	0.4356
2345.84	0.4252
2354.88	0.4166
2363.92	0.4131
2372.96	0.4104
2382.01	0.4038
2391.05	0.3927
2400.09	0.3808
2409.13	0.3684
2418.17	0.3574
2427.22	0.3512
2436.26	0.3465
2445.3	0.3409
2454.34	0.3307
2463.38	0.3213
2472.43	0.3156
2481.47	0.3096
2490.51	0.3056
2499.55	0.301
2508.59	0.2957
2517.64	0.2896
2526.68	0.2834
2535.72	0.2791
2544.76	0.2751
2553.8	0.2735
2562.84	0.2728
2571.89	0.2734
2580.93	0.2758
2589.97	0.2786
2599.01	0.2824
2608.05	0.2877
2617.1	0.2963
2626.14	0.3067
2635.18	0.3149
2644.22	0.3206
2653.26	0.3235
2662.31	0.3244
2671.35	0.3263
2680.39	0.3331
2689.43	0.3329
2698.47	0.3325
2707.52	0.3323
2716.56	0.3323
2725.6	0.3311
2734.64	0.3263
2743.68	0.3227
2752.73	0.3216
2761.77	0.3273
2770.81	0.3395
2779.85	0.3503
2788.89	0.3617
2797.93	0.3681
2806.98	0.3734
2816.02	0.3817
2825.06	0.3807
2834.1	0.3748
2843.14	0.3624
2852.19	0.3523
2861.23	0.3495
2870.27	0.3621
2879.31	0.372
2888.35	0.3707
2897.4	0.3566
2906.44	0.3349
2915.48	0.3004
2924.52	0.2767
2933.56	0.2667
2942.61	0.2706
2951.65	0.2772
2960.69	0.2846
2969.73	0.2953
2978.77	0.3396
2987.81	0.3712
2996.86	0.3645
3005.9	0.3439
3014.94	0.329
3023.98	0.3289
3033.02	0.3321
3042.07	0.3373
3051.11	0.3438
3060.15	0.3511
3069.19	0.3584
3078.23	0.3652
3087.28	0.3719
3096.32	0.3805
3105.36	0.4061
3114.4	0.4131
3123.44	0.4053
3132.49	0.3911
3141.53	0.3741
3150.57	0.3545
3159.61	0.3332
3168.65	0.3066
3177.7	0.2893
3186.74	0.2855
3195.78	0.2817
3204.82	0.2759
3213.86	0.268
3222.9	0.2615
3231.95	0.2603
3240.99	0.2698
3250.03	0.2917
3259.07	0.3183
3268.11	0.3444
3277.16	0.3703
3286.2	0.4088
3295.24	0.4418
3304.28	0.4719
3313.32	0.4983
3322.37	0.5309
3331.41	0.555
3340.45	0.5757
3349.49	0.5894
3358.53	0.5935
3367.58	0.5955
3376.62	0.5967
3385.66	0.5977
3394.7	0.5977
3403.74	0.5963
3412.78	0.5943
3421.83	0.5929
3430.87	0.5921
3439.91	0.5926
3448.95	0.5947
3457.99	0.5973
3467.04	0.5998
3476.08	0.605
3485.12	0.6107
3494.16	0.6162
3503.2	0.6224
3512.25	0.6286
3521.29	0.6353
3530.33	0.6419
3539.37	0.6504
3548.41	0.6605
3557.46	0.6728
3566.5	0.6894
3575.54	0.7031
3584.58	0.7111
3593.62	0.7177
3602.67	0.7237
3611.71	0.7309
3620.75	0.7385
3629.79	0.7472
3638.83	0.7555
3647.87	0.7624
3656.92	0.7673
3665.96	0.7713
3675	0.7746
3684.04	0.7761
3693.08	0.7772
3702.13	0.7774
3711.17	0.779
3720.21	0.7815
3729.25	0.7851
3738.29	0.7906
3747.34	0.7954
3756.38	0.7983
3765.42	0.7999
3774.46	0.8015
3783.5	0.8029
3792.55	0.8023
3801.59	0.8013
3810.63	0.7985
3819.67	0.7944
3828.71	0.7891
3837.75	0.7832
3846.8	0.7787
3855.84	0.7767
3864.88	0.776
3873.92	0.7755
3882.96	0.7761
3892.01	0.7767
3901.05	0.7768
3910.09	0.7767
3919.13	0.7765
3928.17	0.7762
3937.22	0.7752
3946.26	0.7739
3955.3	0.7723
3964.34	0.7706
3973.38	0.7739
3982.43	0.7699
3991.47	0.7685
4000.51	0.7676
4009.55	0.767
