Infrared Spectrum: Cycloheptylamine
Formula: C 7 H 15 N
CAS: 5452-35-7
State: gas
Origin: EPA-IR VAPOR PHASE LIBRARY
1/CM	ABSORBANCE
549.9	0.00052868
559.547	0.000402
569.193	0.00029
578.84	0.000404
588.486	0.000354
598.133	0.0004333
607.779	0.000382
617.426	0.00056313
627.072	0.00059873
636.719	0.00056384
646.365	0.00054131
656.012	0.0006723
665.658	0.0006732
675.305	0.0007393
684.951	0.0008342
694.598	0.0008317
704.245	0.0009717
713.891	0.0011384
723.538	0.0012358
733.184	0.0014549
742.831	0.001686
752.477	0.002026
762.124	0.002316
771.77	0.002716
781.417	0.002946
791.063	0.002896
800.71	0.002396
810.356	0.001846
820.003	0.001656
829.649	0.001536
839.296	0.0014529
848.943	0.0013178
858.589	0.00118
868.236	0.001032
877.882	0.0009014
887.529	0.0007367
897.175	0.0007073
906.822	0.0006758
916.468	0.0006238
926.115	0.0006459
935.761	0.0006546
945.408	0.0006379
955.054	0.0006356
964.701	0.00059425
974.347	0.00059677
983.994	0.00057012
993.64	0.00059679
1003.29	0.0006196
1012.93	0.0006296
1022.58	0.0007333
1032.23	0.0009054
1041.87	0.0010948
1051.52	0.0012836
1061.17	0.0012523
1070.81	0.0010393
1080.46	0.0006882
1090.11	0.00053742
1099.75	0.00056392
1109.4	0.00058339
1119.05	0.0006611
1128.69	0.0006377
1138.34	0.000514878
1147.99	0.000515775
1157.63	0.000505524
1167.28	0.00052351
1176.92	0.00057713
1186.57	0.0006346
1196.22	0.0006767
1205.86	0.0006697
1215.51	0.0007148
1225.16	0.00057323
1234.8	0.00055435
1244.45	0.00056206
1254.1	0.0004929
1263.74	0.00059796
1273.39	0.0005973
1283.04	0.000657
1292.68	0.000644
1302.33	0.0006819
1311.98	0.0006983
1321.62	0.0007264
1331.27	0.0007808
1340.92	0.0008637
1350.56	0.0009435
1360.21	0.0010223
1369.86	0.0010707
1379.5	0.0009095
1389.15	0.0007534
1398.79	0.0006128
1408.44	0.00059177
1418.09	0.0006711
1427.73	0.0008738
1437.38	0.0014273
1447.03	0.002016
1456.67	0.002256
1466.32	0.002046
1475.97	0.0013873
1485.61	0.0009625
1495.26	0.0007143
1504.91	0.0006261
1514.55	0.00057104
1524.2	0.00055788
1533.85	0.0005389
1543.49	0.00051148
1553.14	0.00049902
1562.79	0.00055633
1572.43	0.000642
1582.08	0.0007446
1591.73	0.0008673
1601.37	0.0011675
1611.02	0.0014593
1620.67	0.001556
1630.31	0.0013333
1639.96	0.0009699
1649.6	0.0006606
1659.25	0.0005647
1668.9	0.0004732
1678.54	0.000462
1688.19	0.0004281
1697.84	0.0004666
1707.48	0.0004539
1717.13	0.0004137
1726.78	0.000386
1736.42	0.0004099
1746.07	0.000401
1755.72	0.0004645
1765.36	0.000388
1775.01	0.0004147
1784.66	0.000392
1794.3	0.000418
1803.95	0.000417
1813.6	0.000375
1823.24	0.0004514
1832.89	0.0004503
1842.54	0.0004182
1852.18	0.00038
1861.83	0.0004063
1871.47	0.000342
1881.12	0.000385
1890.77	0.000376
1900.41	0.0004232
1910.06	0.000357
1919.71	0.000404
1929.35	0.000371
1939	0.0004074
1948.65	0.000393
1958.29	0.000341
1967.94	0.00036
1977.59	0.00038
1987.23	0.000382
1996.88	0.000368
2006.53	0.0004
2016.17	0.000379
2025.82	0.000375
2035.47	0.000385
2045.11	0.000356
2054.76	0.00038
2064.41	0.000369
2074.05	0.000354
2083.7	0.000349
2093.35	0.000374
2102.99	0.000366
2112.64	0.000354
2122.28	0.000329
2131.93	0.000356
2141.58	0.000362
2151.22	0.000389
2160.87	0.000381
2170.52	0.000374
2180.16	0.000343
2189.81	0.00037
2199.46	0.000337
2209.1	0.000396
2218.75	0.000372
2228.4	0.000395
2238.04	0.000373
2247.69	0.0004098
2257.34	0.000359
2266.98	0.00039
2276.63	0.000361
2286.28	0.000362
2295.92	0.000381
2305.57	0.000342
2315.22	0.000303
2324.86	0.000329
2334.51	0.00027
2344.16	0.000362
2353.8	0.000328
2363.45	0.000297
2373.09	0.000299
2382.74	0.000352
2392.39	0.000337
2402.03	0.000343
2411.68	0.000311
2421.33	0.000352
2430.97	0.000385
2440.62	0.000297
2450.27	0.000361
2459.91	0.000328
2469.56	0.000347
2479.21	0.000277
2488.85	0.000314
2498.5	0.000321
2508.15	0.000279
2517.79	0.000308
2527.44	0.000365
2537.09	0.00032
2546.73	0.0003
2556.38	0.000383
2566.03	0.000342
2575.67	0.00038
2585.32	0.000381
2594.96	0.000355
2604.61	0.000355
2614.26	0.000402
2623.9	0.000368
2633.55	0.000384
2643.2	0.0004867
2652.84	0.000511968
2662.49	0.00056661
2672.14	0.00060455
2681.78	0.00067
2691.43	0.0006467
2701.08	0.00057567
2710.72	0.0004816
2720.37	0.00049721
2730.02	0.00052026
2739.66	0.0004588
2749.31	0.0004449
2758.96	0.0004708
2768.6	0.0004195
2778.25	0.00050044
2787.9	0.0006428
2797.54	0.0007021
2807.19	0.000823
2816.84	0.0010644
2826.48	0.001314
2836.13	0.002116
2845.77	0.003636
2855.42	0.005866
2865.07	0.006846
2874.71	0.006176
2884.36	0.004986
2894.01	0.005556
2903.65	0.008696
2913.3	0.014216
2922.95	0.020746
2932.59	0.023076
2942.24	0.016696
2951.89	0.008226
2961.53	0.003386
2971.18	0.001546
2980.83	0.0007591
2990.47	0.0006226
3000.12	0.000505567
3009.77	0.000313
3019.41	0.00023
3029.06	0.000241
3038.71	0.000168
3048.35	0.000125
3058	0.000203
3067.64	0.000278
3077.29	0.000249
3086.94	8.9e-05
3096.58	0.000161
3106.23	0.000213
3115.88	0.000175
3125.52	0.00015
3135.17	0.000154
3144.82	5.4e-05
3154.46	9.4e-05
3164.11	0.000251
3173.76	0.000173
3183.4	0.000231
3193.05	0.000325
3202.7	0.000169
3212.34	0.00017
3221.99	0.000219
3231.64	0.00021
3241.28	0.000147
3250.93	0.000217
3260.58	0.000164
3270.22	0.000216
3279.87	0.000327
3289.52	0.000158
3299.16	0.000197
3308.81	0.000255
3318.45	0.0003
3328.1	0.000201
3337.75	0.000149
3347.39	0.000331
3357.04	0.000347
3366.69	0.00033
3376.33	0.000399
3385.98	0.000285
3395.63	0.000301
3405.27	0.000343
3414.92	0.000295
3424.57	0.000267
3434.21	0.000236
3443.86	0.000325
3453.51	0.00028
3463.15	0.00027
3472.8	0.000285
3482.45	9.6e-05
3492.09	0.000218
3501.74	0.000315
3511.39	0.000239
3521.03	0.000276
3530.68	0.000212
3540.33	0.00022
3549.97	0.000243
3559.62	0.000279
3569.26	0.000299
3578.91	0.000314
3588.56	0.000363
3598.2	0.000269
3607.85	0.000269
3617.5	0.000207
3627.14	0.000324
3636.79	0.000344
3646.44	0.00031
3656.08	0.000145
3665.73	0.000225
3675.38	0.000268
3685.02	0.000188
3694.67	0.000178
3704.32	0.000236
3713.96	0.000212
3723.61	0.000198
3733.26	0.00018
3742.9	0.000252
3752.55	0.000211
3762.2	0.000215
3771.84	0.000267
3781.49	0.000317
3791.13	0.000223
3800.78	0.000228
3810.43	0.000238
3820.07	0.0002
3829.72	0.000201
3839.37	0.000227
3849.01	0.00022
3858.66	0.000236
3868.31	0.000237
3877.95	0.000161
3887.6	0.00027
3897.25	0.000229
3906.89	0.000285
3916.54	0.000247
3926.19	0.000235
3935.83	0.000257
3945.48	0.000241
3955.13	0.000341
3964.77	0.000273
3974.42	0.000234
3984.07	0.000271
3993.71	0.000251
