Infrared Spectrum: cis-3-Methylcyclohexanol
Formula: C 7 H 14 O
CAS: 5454-79-5
State: gas
Instrument: HP-GC/MS/IRD
Origin: NIST Mass Spectrometry Data Center
1/CM	ABSORBANCE
550	0.000874
562	0.0004186
574	0.0002208
586	0.000207
598	0.0002024
610	0.0001426
622	0.0001334
634	0.0001242
646	8.74e-05
658	0.0001012
670	1.84e-05
682	0.0001104
694	0.0001196
706	0.0001012
718	9.66e-05
730	3.22e-05
742	4.6e-05
754	5.06e-05
766	9.2e-05
778	7.82e-05
790	0.0001426
802	0.0001242
814	0.0002622
826	0.0007314
838	0.0010488
850	0.0007912
862	0.0006578
874	0.0008786
886	0.0010258
898	0.0008832
910	0.0008096
922	0.001127
934	0.0019412
946	0.0018078
958	0.0013294
970	0.001403
982	0.0015272
994	0.0024702
1006	0.0061686
1018	0.0101108
1030	0.0108928
1042	0.010511
1054	0.0089608
1066	0.0043148
1078	0.0047012
1090	0.0068264
1102	0.0059708
1114	0.0030728
1126	0.0018906
1138	0.001679
1150	0.001449
1162	0.0013662
1174	0.0013708
1186	0.0015824
1198	0.002024
1210	0.0024196
1222	0.002898
1234	0.0033212
1246	0.0033304
1258	0.0032798
1270	0.0031878
1282	0.0026772
1294	0.0020608
1306	0.0016514
1318	0.0015548
1330	0.0018308
1342	0.0027462
1354	0.0040572
1366	0.004991
1378	0.0047564
1390	0.0035236
1402	0.0020608
1414	0.0012834
1426	0.0013432
1438	0.002806
1450	0.0048806
1462	0.0050094
1474	0.0028842
1486	0.0011822
1498	0.0004784
1510	0.0002576
1522	0.000184
1534	0.0001472
1546	0.0001058
1558	0.0001288
1570	0.0001058
1582	0.0001058
1594	7.82e-05
1606	0.0001012
1618	9.66e-05
1630	6.44e-05
1642	3.68e-05
1654	4.6e-05
1666	3.22e-05
1678	3.68e-05
1690	2.3e-05
1702	1.38e-05
1714	5.06e-05
1726	5.98e-05
1738	5.52e-05
1750	3.68e-05
1762	2.76e-05
1774	1.38e-05
1786	1.38e-05
1798	0
1810	0
1822	9.2e-06
1834	1.38e-05
1846	1.84e-05
1858	2.3e-05
1870	2.76e-05
1882	2.3e-05
1894	9.2e-06
1906	2.3e-05
1918	2.76e-05
1930	2.3e-05
1942	1.38e-05
1954	3.68e-05
1966	4.6e-05
1978	3.22e-05
1990	1.84e-05
2002	2.76e-05
2014	3.22e-05
2026	6.44e-05
2038	7.36e-05
2050	5.52e-05
2062	5.52e-05
2074	5.06e-05
2086	4.6e-05
2098	3.22e-05
2110	5.52e-05
2122	6.44e-05
2134	5.06e-05
2146	6.9e-05
2158	3.68e-05
2170	3.68e-05
2182	4.6e-05
2194	5.52e-05
2206	7.36e-05
2218	7.82e-05
2230	8.28e-05
2242	6.44e-05
2254	5.52e-05
2266	4.6e-05
2278	4.6e-05
2290	5.52e-05
2302	4.6e-05
2314	9.2e-06
2326	0
2338	0
2350	0
2362	0
2374	0
2386	7.36e-05
2398	0.0001104
2410	0.000138
2422	0.0001334
2434	0.0001242
2446	9.66e-05
2458	0.0001058
2470	0.0001012
2482	8.74e-05
2494	7.82e-05
2506	9.2e-05
2518	9.2e-05
2530	0.0001012
2542	9.2e-05
2554	0.0001104
2566	0.0001288
2578	0.000184
2590	0.000276
2602	0.0003588
2614	0.0004048
2626	0.000437
2638	0.0005106
2650	0.0005934
2662	0.0005934
2674	0.0005474
2686	0.0004876
2698	0.000506
2710	0.0005658
2722	0.000598
2734	0.0006578
2746	0.0006808
2758	0.00069
2770	0.0007958
2782	0.0009522
2794	0.0011638
2806	0.001403
2818	0.0017526
2830	0.0029624
2842	0.007015
2854	0.0136666
2866	0.0177238
2878	0.0167854
2890	0.0144164
2902	0.0163944
2914	0.0254058
2926	0.0400108
2938	0.044344
2950	0.0324254
2962	0.0219972
2974	0.0104236
2986	0.002645
2998	0.001035
3010	0.0006578
3022	0.0005152
3034	0.0004186
3046	0.0004002
3058	0.0004186
3070	0.0004646
3082	0.0004554
3094	0.0004186
3106	0.0003404
3118	0.0002484
3130	0.0002024
3142	0.000184
3154	0.0002116
3166	0.0002024
3178	0.0001932
3190	0.000207
3202	0.0001518
3214	0.0001564
3226	0.0001058
3238	8.28e-05
3250	4.6e-05
3262	4.14e-05
3274	4.14e-05
3286	2.3e-05
3298	5.06e-05
3310	4.6e-05
3322	8.74e-05
3334	9.66e-05
3346	0.0001196
3358	0.000138
3370	0.000138
3382	0.0001334
3394	0.0001196
3406	0.0001426
3418	0.0001564
3430	0.0001886
3442	0.000207
3454	0.0002254
3466	0.0001794
3478	0.0001656
3490	0.0001794
3502	0.0001702
3514	0.0001288
3526	0.0001242
3538	0.0001472
3550	0.0001334
3562	0.0001196
3574	8.28e-05
3586	0.0001196
3598	0.000207
3610	0.0002806
3622	0.0005198
3634	0.0014398
3646	0.0026036
3658	0.0023276
3670	0.0008418
3682	0.0002944
3694	0.0002162
3706	0.000161
3718	0.000184
3730	0.0001472
3742	0.0001518
3754	0.0001656
3766	0.0001748
3778	0.0002162
3790	0.0002254
3802	0.0002346
3814	0.000253
3826	0.0002116
3838	0.0002714
