Infrared Spectrum: ANDROSTAN-3-ONE, (5Alpha), 11Beta,17Beta-DIHYDROXY-17Alpha-METHYL-,
Formula: C20 H32 O3
CAS: 5454-55-7
State: SOLID (KBr DISC)
Class: COBLENTZ III
Instrument: BECKMAN IR-7
Sampling: TRANSMISSION
Resolution: 4
Origin: N. L. McNIVEN- THE WORCESTER FOUNDATION FOR EXPERIMENTAL BIOLOGY
1/CM	TRANSMITTANCE
601.331	0.715
609.985	0.781
618.64	0.858
627.294	0.891
635.948	0.904
644.603	0.907
653.257	0.904
661.911	0.906
670.565	0.889
679.22	0.863
687.874	0.946
696.528	0.921
705.183	0.944
713.837	0.969
722.491	0.983
731.146	0.988
739.8	0.986
748.454	0.941
757.108	0.97
765.763	0.94
774.417	0.948
783.071	0.986
791.726	0.971
800.38	0.902
809.034	0.98
817.689	0.971
826.343	0.958
834.997	0.974
843.651	0.946
852.306	0.94
860.96	0.896
869.614	0.909
878.269	0.805
886.923	0.907
895.577	0.918
904.232	0.907
912.886	0.844
921.54	0.801
930.194	0.7321
938.849	0.639
947.503	0.648
956.157	0.778
964.812	0.828
973.466	0.6799
982.12	0.798
990.775	0.833
999.429	0.7381
1008.08	0.655
1016.74	0.664
1025.39	0.596
1034.05	0.509
1042.7	0.659
1051.35	0.69
1060.01	0.675
1068.66	0.637
1077.32	0.553
1085.97	0.626
1094.63	0.48
1103.28	0.562
1111.93	0.614
1120.59	0.629
1129.24	0.645
1137.9	0.748
1146.55	0.6551
1155.21	0.61
1163.86	0.674
1172.51	0.6531
1181.17	0.651
1189.82	0.75
1198.48	0.738
1207.13	0.688
1215.79	0.649
1224.44	0.645
1233.1	0.604
1241.75	0.608
1250.4	0.665
1259.06	0.684
1267.71	0.653
1276.37	0.602
1285.02	0.765
1293.68	0.791
1302.33	0.595
1310.98	0.647
1319.64	0.641
1328.29	0.69
1336.95	0.7
1345.6	0.506
1354.26	0.514
1362.91	0.596
1371.56	0.551
1380.22	0.543
1388.87	0.657
1397.53	0.679
1406.18	0.653
1414.84	0.557
1423.49	0.622
1432.14	0.6429
1440.8	0.616
1449.45	0.523
1458.11	0.581
1466.76	0.69
1475.42	0.736
1484.07	0.832
1492.72	0.876
1501.38	0.892
1510.03	0.901
1518.69	0.904
1527.34	0.906
1536	0.907
1544.65	0.905
1553.3	0.9
1561.96	0.893
1570.61	0.883
1579.27	0.869
1587.92	0.864
1596.58	0.864
1605.23	0.861
1613.88	0.851
1622.54	0.838
1631.19	0.818
1639.85	0.799
1648.5	0.775
1657.16	0.736
1665.81	0.698
1674.46	0.641
1683.12	0.534
1691.77	0.1721
1700.43	0.196
1709.08	0.43
1717.74	0.564
1726.39	0.702
1735.04	0.743
1743.7	0.783
1752.35	0.823
1761.01	0.87
1769.66	0.885
1778.32	0.895
1786.97	0.901
1795.62	0.906
1804.28	0.909
1812.93	0.911
1821.59	0.913
1830.24	0.913
1838.9	0.913
1847.55	0.913
1856.2	0.91
1864.86	0.909
1873.51	0.908
1882.17	0.908
1890.82	0.908
1899.48	0.907
1908.13	0.906
1916.78	0.906
1925.44	0.905
1934.09	0.904
1942.75	0.903
1951.4	0.9
1960.06	0.897
1968.71	0.895
1977.36	0.893
1986.02	0.893
1994.67	0.893
2003.33	0.895
2011.98	0.895
2020.64	0.895
2029.29	0.895
2037.95	0.8946
2046.6	0.8933
2055.25	0.893
2063.91	0.8918
2072.56	0.891
2081.22	0.889
2089.87	0.887
2098.53	0.8856
2107.18	0.884
2115.83	0.8821
2124.49	0.8808
2133.14	0.879
2141.8	0.8772
2150.45	0.8769
2159.11	0.875
2167.76	0.8744
2176.41	0.874
2185.07	0.872
2193.72	0.8705
2202.38	0.8692
2211.03	0.868
2219.69	0.8667
2228.34	0.8654
2236.99	0.8631
2245.65	0.8618
2254.3	0.86
2262.96	0.8582
2271.61	0.857
2280.27	0.855
2288.92	0.8544
2297.57	0.854
2306.23	0.8562
2314.88	0.8595
2323.54	0.8627
2332.19	0.864
2340.85	0.864
2349.5	0.8634
2358.15	0.8601
2366.81	0.858
2375.46	0.8556
2384.12	0.8526
2392.77	0.848
2401.43	0.8394
2410.08	0.831
2418.73	0.8292
2427.39	0.8259
2436.04	0.8236
2444.7	0.8203
2453.35	0.818
2462.01	0.816
2470.66	0.8155
2479.31	0.814
2487.97	0.812
2496.62	0.811
2505.28	0.8093
2513.93	0.808
2522.59	0.806
2531.24	0.8045
2539.89	0.803
2548.55	0.801
2557.2	0.801
2565.86	0.8003
2574.51	0.7961
2583.17	0.7905
2591.82	0.783
2600.47	0.7764
2609.13	0.7698
2617.78	0.7646
2626.44	0.763
2635.09	0.761
2643.75	0.7598
2652.4	0.758
2661.05	0.7542
2669.71	0.7479
2678.36	0.7406
2687.02	0.7287
2695.67	0.723
2704.33	0.716
2712.98	0.714
2721.63	0.713
2730.29	0.714
2738.94	0.716
2747.6	0.718
2756.25	0.72
2764.91	0.721
2773.56	0.721
2782.21	0.7173
2790.87	0.7139
2799.52	0.7041
2808.18	0.687
2816.83	0.6606
2825.49	0.6261
2834.14	0.584
2842.8	0.4732
2851.45	0.4269
2860.1	0.3941
2868.76	0.3628
2877.41	0.3815
2886.07	0.404
2894.72	0.3541
2903.38	0.3243
2912.03	0.2941
2920.68	0.267
2929.34	0.3313
2937.99	0.3262
2946.65	0.286
2955.3	0.3119
2963.96	0.3436
2972.61	0.3698
2981.26	0.3667
2989.92	0.3851
2998.57	0.5218
3007.23	0.5677
3015.88	0.6274
3024.54	0.6904
3033.19	0.7257
3041.84	0.7377
3050.5	0.741
3059.15	0.742
3067.81	0.742
3076.46	0.742
3085.12	0.74
3093.77	0.739
3102.42	0.738
3111.08	0.736
3119.73	0.734
3128.39	0.7309
3137.04	0.7286
3145.7	0.727
3154.35	0.726
3163	0.726
3171.66	0.724
3180.31	0.7232
3188.97	0.722
3197.62	0.7207
3206.28	0.7168
3214.93	0.7121
3223.58	0.7098
3232.24	0.7065
3240.89	0.7025
3249.55	0.699
3258.2	0.696
3266.86	0.6908
3275.51	0.6815
3284.16	0.6788
3292.82	0.6751
3301.47	0.664
3310.13	0.6509
3318.78	0.6345
3327.44	0.614
3336.09	0.5985
3344.74	0.5832
3353.4	0.5635
3362.05	0.5328
3370.71	0.5049
3379.36	0.4777
3388.02	0.4467
3396.67	0.4048
3405.32	0.3623
3413.98	0.3154
3422.63	0.2624
3431.29	0.2341
3439.94	0.2282
3448.6	0.2525
3457.25	0.276
3465.9	0.3192
3474.56	0.3516
3483.21	0.3771
3491.87	0.3988
3500.52	0.4205
3509.18	0.4443
3517.83	0.4742
3526.48	0.5144
3535.14	0.5486
3543.79	0.5704
3552.45	0.5956
3561.1	0.6202
3569.76	0.632
3578.41	0.6394
3587.06	0.6505
3595.72	0.6727
3604.37	0.6985
3613.03	0.7138
3621.68	0.7249
3630.34	0.736
3638.99	0.7482
3647.65	0.755
3656.3	0.755
3664.95	0.755
3673.61	0.7531
3682.26	0.753
3690.92	0.752
3699.57	0.752
3708.23	0.751
3716.88	0.751
3725.53	0.75
3734.19	0.75
3742.84	0.749
3751.5	0.748
3760.15	0.748
3768.81	0.747
3777.46	0.746
3786.11	0.746
3794.77	0.7441
3803.42	0.7438
3812.08	0.7426
3820.73	0.742
3829.39	0.74
3838.04	0.739
3846.69	0.738
3855.35	0.737
3864	0.736
3872.66	0.7346
3881.31	0.734
3889.97	0.732
3898.62	0.731
3907.27	0.73
3915.93	0.729
3924.58	0.728
3933.24	0.726
3941.89	0.726
3950.55	0.724
3959.2	0.724
3967.85	0.723
3976.51	0.722
3985.16	0.722
