Infrared Spectrum: 2-Nitrobenzenesulphonamide
Formula: C 6 H 6 N 2 O 4 S
CAS: 5455-59-4
State: gas
Origin: EPA-IR VAPOR PHASE LIBRARY
1/CM	ABSORBANCE
549.9	0.00353
559.547	0.00291
569.193	0.00323
578.84	0.00609
588.486	0.00727
598.133	0.00461
607.779	0.0033
617.426	0.00277
627.072	0.0025079
636.719	0.0025331
646.365	0.003
656.012	0.00336
665.658	0.00284
675.305	0.0025201
684.951	0.0024686
694.598	0.0025657
704.245	0.00279
713.891	0.00283
723.538	0.00358
733.184	0.00465
742.831	0.00435
752.477	0.00323
762.124	0.00296
771.77	0.00357
781.417	0.00373
791.063	0.00277
800.71	0.0024298
810.356	0.0024323
820.003	0.0023538
829.649	0.0025671
839.296	0.00291
848.943	0.00407
858.589	0.00449
868.236	0.00417
877.882	0.00395
887.529	0.00306
897.175	0.0023543
906.822	0.0020512
916.468	0.0018523
926.115	0.00177643
935.761	0.00174011
945.408	0.00173844
955.054	0.00175681
964.701	0.0016891
974.347	0.0016378
983.994	0.001597
993.64	0.0016286
1003.29	0.001681
1012.93	0.0016219
1022.58	0.0016599
1032.23	0.0016271
1041.87	0.00171364
1051.52	0.0019087
1061.17	0.0019793
1070.81	0.0018583
1080.46	0.00171235
1090.11	0.0016951
1099.75	0.0016661
1109.4	0.00172577
1119.05	0.0020592
1128.69	0.0020957
1138.34	0.001548
1147.99	0.001553
1157.63	0.0018986
1167.28	0.00351
1176.92	0.00756
1186.57	0.00952
1196.22	0.00399
1205.86	0.000899
1215.51	0
1225.16	0.00068
1234.8	0.00086
1244.45	0.001105
1254.1	0.001419
1263.74	0.001408
1273.39	0.001452
1283.04	0.0016804
1292.68	0.0019968
1302.33	0.00178287
1311.98	0.00178167
1321.62	0.0018724
1331.27	0.0021335
1340.92	0.00285
1350.56	0.00469
1360.21	0.00601
1369.86	0.00504
1379.5	0.00631
1389.15	0.01086
1398.79	0.00929
1408.44	0.00391
1418.09	0.0023034
1427.73	0.0021596
1437.38	0.0024465
1447.03	0.002413
1456.67	0.0019892
1466.32	0.0018901
1475.97	0.0019052
1485.61	0.0019538
1495.26	0.0021445
1504.91	0.002661
1514.55	0.00352
1524.2	0.00486
1533.85	0.00664
1543.49	0.00814
1553.14	0.00922
1562.79	0.00774
1572.43	0.00409
1582.08	0.00282
1591.73	0.0025517
1601.37	0.0022197
1611.02	0.0019252
1620.67	0.0016113
1630.31	0.0016
1639.96	0.001543
1649.6	0.001535
1659.25	0.001485
1668.9	0.001358
1678.54	0.001395
1688.19	0.001403
1697.84	0.001381
1707.48	0.001384
1717.13	0.001417
1726.78	0.001456
1736.42	0.001428
1746.07	0.001404
1755.72	0.001404
1765.36	0.001464
1775.01	0.001403
1784.66	0.001407
1794.3	0.001415
1803.95	0.001393
1813.6	0.001439
1823.24	0.001437
1832.89	0.001452
1842.54	0.001487
1852.18	0.001426
1861.83	0.001394
1871.47	0.001398
1881.12	0.001347
1890.77	0.001355
1900.41	0.001395
1910.06	0.001413
1919.71	0.001423
1929.35	0.001467
1939	0.00148
1948.65	0.001479
1958.29	0.00146
1967.94	0.001525
1977.59	0.001497
1987.23	0.001493
1996.88	0.001477
2006.53	0.00143
2016.17	0.001449
2025.82	0.001495
2035.47	0.001516
2045.11	0.001477
2054.76	0.001518
2064.41	0.001516
2074.05	0.001532
2083.7	0.001561
2093.35	0.001564
2102.99	0.001574
2112.64	0.001587
2122.28	0.00161
2131.93	0.0016156
2141.58	0.001642
2151.22	0.0016241
2160.87	0.0016437
2170.52	0.0016383
2180.16	0.001595
2189.81	0.001609
2199.46	0.0016355
2209.1	0.0016192
2218.75	0.0016367
2228.4	0.0016532
2238.04	0.0016467
2247.69	0.0016418
2257.34	0.0016976
2266.98	0.0016606
2276.63	0.0016752
2286.28	0.0016857
2295.92	0.00173498
2305.57	0.00170056
2315.22	0.0016827
2324.86	0.0017197
2334.51	0.00173195
2344.16	0.00171374
2353.8	0.00173125
2363.45	0.00178295
2373.09	0.00174806
2382.74	0.00176012
2392.39	0.0018112
2402.03	0.001775
2411.68	0.0017953
2421.33	0.00175933
2430.97	0.00180951
2440.62	0.001772
2450.27	0.0018173
2459.91	0.0017878
2469.56	0.0018338
2479.21	0.0018399
2488.85	0.001818
2498.5	0.00178949
2508.15	0.00180733
2517.79	0.0018823
2527.44	0.0018712
2537.09	0.0018546
2546.73	0.0019313
2556.38	0.0019203
2566.03	0.0019933
2575.67	0.0019393
2585.32	0.0019333
2594.96	0.0019153
2604.61	0.0019713
2614.26	0.0020388
2623.9	0.002024
2633.55	0.0019749
2643.2	0.0019841
2652.84	0.0020434
2662.49	0.0020156
2672.14	0.0020521
2681.78	0.0020638
2691.43	0.0020657
2701.08	0.0021253
2710.72	0.0021514
2720.37	0.002069
2730.02	0.0020652
2739.66	0.0020455
2749.31	0.002068
2758.96	0.0021167
2768.6	0.0020843
2778.25	0.0021777
2787.9	0.0021544
2797.54	0.0021997
2807.19	0.0021781
2816.84	0.0021642
2826.48	0.0021337
2836.13	0.0021258
2845.77	0.002263
2855.42	0.0023122
2865.07	0.0023747
2874.71	0.0022893
2884.36	0.002284
2894.01	0.0024387
2903.65	0.0024095
2913.3	0.0024351
2922.95	0.0023254
2932.59	0.0024835
2942.24	0.0023937
2951.89	0.0023458
2961.53	0.0023862
2971.18	0.0023412
2980.83	0.0022516
2990.47	0.002406
3000.12	0.0022719
3009.77	0.0023188
3019.41	0.0022623
3029.06	0.0022698
3038.71	0.0022601
3048.35	0.0022975
3058	0.0023633
3067.64	0.0023375
3077.29	0.0026163
3086.94	0.002558
3096.58	0.0022977
3106.23	0.0022247
3115.88	0.0022141
3125.52	0.0022034
3135.17	0.0020152
3144.82	0.0019164
3154.46	0.0019633
3164.11	0.002146
3173.76	0.001942
3183.4	0.001935
3193.05	0.0020612
3202.7	0.0019599
3212.34	0.0019954
3221.99	0.0018216
3231.64	0.001818
3241.28	0.0019123
3250.93	0.0019158
3260.58	0.0019032
3270.22	0.0019082
3279.87	0.001825
3289.52	0.0018275
3299.16	0.00177265
3308.81	0.00176555
3318.45	0.00176686
3328.1	0.00173889
3337.75	0.0016854
3347.39	0.0019002
3357.04	0.0023609
3366.69	0.00309
3376.33	0.00328
3385.98	0.0024912
3395.63	0.0018597
3405.27	0.0016654
3414.92	0.00174398
3424.57	0.0016649
3434.21	0.00172601
3443.86	0.0018807
3453.51	0.0020457
3463.15	0.0023469
3472.8	0.0033
3482.45	0.00377
3492.09	0.00326
3501.74	0.0022792
3511.39	0.0018784
3521.03	0.00172191
3530.68	0.0018153
3540.33	0.0016444
3549.97	0.001577
3559.62	0.0016238
3569.26	0.001541
3578.91	0.001528
3588.56	0.0016611
3598.2	0.001465
3607.85	0.0016145
3617.5	0.00151
3627.14	0.001587
3636.79	0.001521
3646.44	0.00175382
3656.08	0.001607
3665.73	0.00173797
3675.38	0.00171418
3685.02	0.0016427
3694.67	0.00173762
3704.32	0.00173102
3713.96	0.0016265
3723.61	0.00174546
3733.26	0.001615
3742.9	0.00180715
3752.55	0.00172652
3762.2	0.001595
3771.84	0.00175406
3781.49	0.0018155
3791.13	0.0016576
3800.78	0.0018975
3810.43	0.00177211
3820.07	0.00174572
3829.72	0.00173945
3839.37	0.0018192
3849.01	0.00178679
3858.66	0.00179905
3868.31	0.0018517
3877.95	0.0018328
3887.6	0.00176245
3897.25	0.0018515
3906.89	0.0018241
3916.54	0.0018493
3926.19	0.0019805
3935.83	0.0018887
3945.48	0.0018769
3955.13	0.0018792
3964.77	0.0018805
3974.42	0.0018326
3984.07	0.0017867
3993.71	0.0018878
