Infrared Spectrum: 2,4-Dibromo-5-methoxytoluene
Formula: C 8 H 8 Br 2 O
CAS: 5456-94-0
State: gas
Origin: EPA-IR VAPOR PHASE LIBRARY
1/CM	ABSORBANCE
549.8	0.001745
559.445	0.002705
569.09	0.005495
578.734	0.005185
588.379	0.001745
598.024	0.001765
607.669	0.001855
617.313	0.002015
626.958	0.003995
636.603	0.009585
646.248	0.023405
655.893	0.040415
665.537	0.028255
675.182	0.008755
684.827	0.004275
694.472	0.003045
704.116	0.002715
713.761	0.004595
723.406	0.005135
733.051	0.002965
742.695	0.001475
752.34	0.001255
761.985	0.001335
771.63	0.002065
781.275	0.001855
790.919	0.001615
800.564	0.001345
810.209	0.001525
819.854	0.002385
829.498	0.005145
839.143	0.007395
848.788	0.004875
858.433	0.004285
868.078	0.012525
877.722	0.026225
887.367	0.009805
897.012	0.003465
906.657	0.003555
916.301	0.004995
925.946	0.010075
935.591	0.018255
945.236	0.012525
954.88	0.005305
964.525	0.004135
974.17	0.004085
983.815	0.004515
993.46	0.006555
1003.1	0.010695
1012.75	0.012825
1022.39	0.014965
1032.04	0.022285
1041.68	0.030095
1051.33	0.056875
1060.97	0.107365
1070.62	0.065115
1080.26	0.018995
1089.91	0.009145
1099.55	0.006565
1109.2	0.005195
1118.84	0.003275
1128.49	0.004505
1138.13	0.004835
1147.78	0.007815
1157.42	0.024275
1167.07	0.043265
1176.71	0.027405
1186.36	0.019065
1196	0.013805
1205.64	0.009525
1215.29	0.012035
1224.93	0.021065
1234.58	0.049525
1244.22	0.096605
1253.87	0.066635
1263.51	0.040045
1273.16	0.032985
1282.8	0.028565
1292.45	0.016275
1302.09	0.009505
1311.74	0.007845
1321.38	0.007045
1331.03	0.009165
1340.67	0.020605
1350.32	0.061305
1359.96	0.103345
1369.61	0.050815
1379.25	0.020765
1388.9	0.017975
1398.54	0.011855
1408.18	0.010505
1417.83	0.013395
1427.47	0.023775
1437.12	0.049555
1446.76	0.065085
1456.41	0.075475
1466.05	0.129115
1475.7	0.128135
1485.34	0.067125
1494.99	0.038695
1504.63	0.021015
1514.28	0.014185
1523.92	0.011005
1533.57	0.010675
1543.21	0.012625
1552.86	0.013395
1562.5	0.011405
1572.15	0.012895
1581.79	0.016385
1591.44	0.011245
1601.08	0.005775
1610.73	0.003985
1620.37	0.003085
1630.01	0.002375
1639.66	0.002115
1649.3	0.002025
1658.95	0.002065
1668.59	0.001905
1678.24	0.001665
1687.88	0.001445
1697.53	0.001465
1707.17	0.001665
1716.82	0.001995
1726.46	0.002305
1736.11	0.002735
1745.75	0.002725
1755.4	0.001835
1765.04	0.0011561
1774.69	0.0008652
1784.33	0.0008388
1793.98	0.0009633
1803.62	0.0008582
1813.27	0.0008618
1822.91	0.0010375
1832.55	0.0010502
1842.2	0.0009306
1851.84	0.0008598
1861.49	0.0008818
1871.13	0.0009272
1880.78	0.0010949
1890.42	0.001265
1900.07	0.001235
1909.71	0.001235
1919.36	0.0011613
1929	0.001225
1938.65	0.001355
1948.29	0.001585
1957.94	0.001865
1967.58	0.002035
1977.23	0.001915
1986.87	0.001705
1996.52	0.001365
2006.16	0.001205
2015.81	0.0009856
2025.45	0.0007612
2035.1	0.0008204
2044.74	0.0008517
2054.38	0.0009348
2064.03	0.0010717
2073.67	0.001315
2083.32	0.001355
2092.96	0.001515
2102.61	0.001475
2112.25	0.001285
2121.9	0.0010454
2131.54	0.0008226
2141.19	0.000775
2150.83	0.000791
2160.48	0.000883
2170.12	0.0011004
2179.77	0.001315
2189.41	0.001345
2199.06	0.0011558
2208.7	0.0009575
2218.35	0.0008595
2227.99	0.0006265
2237.64	0.0005843
2247.28	0.0004768
2256.92	0.0005472
2266.57	0.0005564
2276.21	0.0007659
2285.86	0.0008428
2295.5	0.0011261
2305.15	0.0010602
2314.79	0.0007868
2324.44	0.0007368
2334.08	0.0005373
2343.73	0.0006004
2353.37	0.0005521
2363.02	0.0005012
2372.66	0.0006091
2382.31	0.0007783
2391.95	0.0007911
2401.6	0.0009925
2411.24	0.0009813
2420.89	0.001067
2430.53	0.0008155
2440.18	0.0007261
2449.82	0.0007686
2459.47	0.000776
2469.11	0.0009377
2478.75	0.0010617
2488.4	0.00114
2498.04	0.001265
2507.69	0.001355
2517.33	0.001505
2526.98	0.001505
2536.62	0.001245
2546.27	0.0010878
2555.91	0.0009409
2565.56	0.0008615
2575.2	0.0008271
2584.85	0.0008859
2594.49	0.001205
2604.14	0.001465
2613.78	0.001415
2623.43	0.001275
2633.07	0.0011039
2642.72	0.001057
2652.36	0.0008922
2662.01	0.0007414
2671.65	0.0007164
2681.29	0.0006673
2690.94	0.0007652
2700.58	0.0008118
2710.23	0.0010062
2719.87	0.0010422
2729.52	0.0009442
2739.16	0.001245
2748.81	0.001605
2758.45	0.001665
2768.1	0.001565
2777.74	0.001455
2787.39	0.001945
2797.03	0.002505
2806.68	0.003195
2816.32	0.004215
2825.97	0.005595
2835.61	0.008635
2845.26	0.016145
2854.9	0.020355
2864.55	0.014095
2874.19	0.011335
2883.84	0.010305
2893.48	0.010465
2903.12	0.012025
2912.77	0.015235
2922.41	0.019295
2932.06	0.029445
2941.7	0.040005
2951.35	0.033355
2960.99	0.027045
2970.64	0.022845
2980.28	0.017705
2989.93	0.016345
2999.57	0.016015
3009.22	0.021935
3018.86	0.019095
3028.51	0.009585
3038.15	0.007055
3047.8	0.006525
3057.44	0.007265
3067.09	0.007395
3076.73	0.005625
3086.38	0.003605
3096.02	0.002945
3105.67	0.002235
3115.31	0.002035
3124.95	0.001465
3134.6	0.001505
3144.24	0.001445
3153.89	0.0010596
3163.53	0.0010881
3173.18	0.0007066
3182.82	0.0006169
3192.47	0.0006235
3202.11	0.0005451
3211.76	0.0004981
3221.4	0.0004773
3231.05	0.0003138
3240.69	0.0004069
3250.34	0.0003576
3259.98	0.0003614
3269.63	0.0003346
3279.27	0.00024235
3288.92	0.00025642
3298.56	0.0004811
3308.21	0.00022713
3317.85	0.00021209
3327.49	0.0002423
3337.14	0.000169
3346.78	0.00025282
3356.43	0.0003606
3366.07	0.0002953
3375.72	0.0003274
3385.36	0.0001098
3395.01	0.0001394
3404.65	0.00020284
3414.3	0.0003028
3423.94	0.00025551
3433.59	8.6e-05
3443.23	0.0003972
3452.88	0.0003247
3462.52	0.00028926
3472.17	0.0003311
3481.81	0.00022857
3491.46	0.00018825
3501.1	0.00029175
3510.75	0.000200624
3520.39	0.0001574
3530.04	0.0001215
3539.68	0.0003885
3549.32	0.00018963
3558.97	0.0005192
3568.61	0.0003736
3578.26	0.00021671
3587.9	0.0004043
3597.55	0.0003712
3607.19	0.00025173
3616.84	0.0003079
3626.48	0.00024938
3636.13	0.00021453
3645.77	5.2e-05
3655.42	0.0001472
3665.06	0.00026683
3674.71	0.0001662
3684.35	0.00027178
3694	0.0004084
3703.64	8.3e-05
3713.29	0.0001518
3722.93	0.0005115
3732.58	7e-05
3742.22	0.00020629
3751.86	0.00024644
3761.51	0.0003888
3771.15	0.00027755
3780.8	0
3790.44	0.0004062
3800.09	0.000408
3809.73	0.0003981
3819.38	0.0004433
3829.02	0.0003505
3838.67	0.0005366
3848.31	0.0003065
3857.96	0.0003206
3867.6	0.0004985
3877.25	0.0003319
3886.89	0.0005639
3896.54	0.0005499
3906.18	0.0005672
3915.83	0.0003562
3925.47	0.0003024
3935.12	0.0004702
3944.76	0.00027406
3954.41	0.0003691
3964.05	0.0005017
3973.69	0.0004814
3983.34	0.0004692
3992.98	0.0007392
