Infrared Spectrum: 3-Oxoadipic acid, dimethyl ester
Formula: C8 H12 O5
CAS: 5457-44-3
State: LIQUID (NEAT)
Class: COBLENTZ II
Instrument: BECKMAN IR-9 (GRATING)
Instrument parameters: ORDER CHANGES: 670, 1200, 2000 CM^-^1
Sampling: TRANSMISSION
Path length: CAPILLARY
Resolution: 2
Origin: DOW CHEMICAL COMPANY
1/CM	TRANSMITTANCE
3798	0.8931
3789	0.8932
3780	0.8934
3771	0.8931
3762	0.8925
3753	0.8918
3744	0.8912
3735	0.8904
3726	0.8889
3717	0.8868
3708	0.8824
3699	0.8775
3690	0.8704
3681	0.8608
3672	0.8502
3663	0.8386
3654	0.8282
3645	0.8202
3636	0.8153
3627	0.8165
3618	0.82
3609	0.8235
3600	0.8263
3591	0.8268
3582	0.8263
3573	0.8225
3564	0.8198
3555	0.8184
3546	0.8185
3537	0.8198
3528	0.8225
3519	0.8246
3510	0.8251
3501	0.8249
3492	0.8243
3483	0.8221
3474	0.8199
3465	0.8181
3456	0.8165
3447	0.8165
3438	0.8175
3429	0.8206
3420	0.8238
3411	0.8275
3402	0.8317
3393	0.8351
3384	0.8374
3375	0.8375
3366	0.8375
3357	0.8373
3348	0.8371
3339	0.8368
3330	0.8368
3321	0.8368
3312	0.8368
3303	0.8368
3294	0.8373
3285	0.8375
3276	0.838
3267	0.8383
3258	0.8386
3249	0.8389
3240	0.8393
3231	0.8395
3222	0.8398
3213	0.84
3204	0.8401
3195	0.8402
3186	0.8403
3177	0.8404
3168	0.8405
3159	0.8405
3150	0.8402
3141	0.8391
3132	0.8381
3123	0.837
3114	0.8343
3105	0.8313
3096	0.8286
3087	0.8254
3078	0.8218
3069	0.8146
3060	0.8019
3051	0.7836
3042	0.7588
3033	0.7349
3024	0.7132
3015	0.6918
3006	0.6771
2997	0.6825
2988	0.6915
2979	0.6897
2970	0.6497
2961	0.5212
2952	0.4973
2943	0.628
2934	0.6519
2925	0.6756
2916	0.7064
2907	0.7381
2898	0.765
2889	0.7889
2880	0.7998
2871	0.8011
2862	0.794
2853	0.7726
2844	0.7735
2835	0.8087
2826	0.8349
2817	0.846
2808	0.8501
2799	0.8517
2790	0.8532
2781	0.8532
2772	0.8533
2763	0.8533
2754	0.8533
2745	0.8533
2736	0.8534
2727	0.8534
2718	0.8533
2709	0.853
2700	0.8527
2691	0.8524
2682	0.8521
2673	0.8517
2664	0.8515
2655	0.8511
2646	0.8508
2637	0.8507
2628	0.851
2619	0.8513
2610	0.8521
2601	0.8531
2592	0.8553
2583	0.8587
2574	0.8634
2565	0.867
2556	0.8702
2547	0.8712
2538	0.8718
2529	0.8718
2520	0.8718
2511	0.8717
2502	0.8716
2493	0.8709
2484	0.8703
2475	0.8696
2466	0.869
2457	0.8684
2448	0.8678
2439	0.8671
2430	0.8666
2421	0.866
2412	0.8655
2403	0.865
2394	0.8646
2385	0.8641
2376	0.8637
2367	0.8632
2358	0.8628
2349	0.8631
2340	0.8635
2331	0.8639
2322	0.8643
2313	0.8646
2304	0.8651
2295	0.8654
2286	0.8658
2277	0.8662
2268	0.8666
2259	0.8667
2250	0.8668
2241	0.867
2232	0.8671
2223	0.8667
2214	0.866
2205	0.8654
2196	0.8645
2187	0.8631
2178	0.8618
2169	0.8605
2160	0.8593
2151	0.8578
2142	0.8561
2133	0.8543
2124	0.8525
2115	0.8508
2106	0.8493
2097	0.8478
2088	0.8466
2079	0.8453
2070	0.8444
2061	0.8435
2052	0.8425
2043	0.8416
2034	0.8421
2025	0.8428
2016	0.8436
2007	0.8448
1998	0.8468
1989	0.8485
1980	0.8497
1971	0.8509
1962	0.8495
1953	0.8532
1944	0.853
1935	0.8525
1926	0.8518
1917	0.8507
1908	0.8496
1899	0.8487
1890	0.8485
1881	0.8478
1872	0.8468
1863	0.8448
1854	0.8421
1845	0.8346
1836	0.8251
1827	0.8125
1818	0.798
1809	0.7771
1800	0.7496
1791	0.7103
1782	0.632
1773	0.5364
1764	0.3694
1755	0.1713
1746	0.1457
1737	0.1424
1728	0.1537
1719	0.1573
1710	0.2303
1701	0.3499
1692	0.4643
1683	0.5854
1674	0.6294
1665	0.64
1656	0.6315
1647	0.6123
1638	0.5905
1629	0.5808
1620	0.589
1611	0.5871
1602	0.5877
1593	0.5897
1584	0.5925
1575	0.5973
1566	0.6039
1557	0.6155
1548	0.6327
1539	0.6558
1530	0.6781
1521	0.6918
1512	0.7024
1503	0.7054
1494	0.7015
1485	0.6638
1476	0.6219
1467	0.5551
1458	0.443
1449	0.3439
1440	0.2154
1431	0.3806
1422	0.4002
1413	0.37
1404	0.4325
1395	0.5173
1386	0.4758
1377	0.4024
1368	0.3442
1359	0.3546
1350	0.4306
1341	0.3823
1332	0.3257
1323	0.3248
1314	0.3516
1305	0.3844
1296	0.3925
1287	0.3559
1278	0.3197
1269	0.2863
1260	0.2804
1251	0.2838
1242	0.2834
1233	0.2837
1224	0.2692
1215	0.2571
1206	0.2475
1197	0.2581
1188	0.2854
1179	0.2608
1170	0.2815
1161	0.321
1152	0.3759
1143	0.4287
1134	0.4577
1125	0.5502
1116	0.5584
1107	0.5334
1098	0.4279
1089	0.4087
1080	0.5499
1071	0.6526
1062	0.654
1053	0.6537
1044	0.6438
1035	0.5826
1026	0.5405
1017	0.5352
1008	0.5508
999	0.5506
990	0.591
981	0.6725
972	0.6831
963	0.7154
954	0.7438
945	0.7678
936	0.7751
927	0.7762
918	0.7767
909	0.7538
900	0.7206
891	0.7258
882	0.7569
873	0.7775
864	0.7737
855	0.7375
846	0.7346
837	0.7776
828	0.8047
819	0.7975
810	0.7665
801	0.7765
792	0.7856
783	0.8051
774	0.819
765	0.8344
756	0.8275
747	0.8107
738	0.8184
729	0.8255
720	0.8321
711	0.837
702	0.8407
693	0.8402
684	0.8336
675	0.8384
666	0.8391
657	0.8333
648	0.8284
639	0.8298
630	0.8296
621	0.8275
612	0.8112
603	0.7969
594	0.7946
585	0.7817
576	0.7875
567	0.7943
558	0.798
549	0.8001
540	0.8006
531	0.7997
522	0.7953
513	0.7865
504	0.771
495	0.7522
486	0.7328
477	0.714
468	0.699
459	0.6858
450	0.668
441	0.6403
432	0.5774
423	0.4923
414	0.4645
405	0.4729
