Infrared Spectrum: 3H-v-Triazolo[4,5-d]Pyrimidine, 5-amino-3-ethyl-7-Hydroxy-
Formula: C6 H8 N6 O
CAS: 5457-90-9
State: SOLID (0.8 mg / 650 mg KBr DISC)
Class: COBLENTZ III
Instrument: PERKIN-ELMER 21 (GRATING)
Instrument parameters: FILTER CHANGE ABOUT 1090 CM^-^1
Sampling: TRANSMISSION
Resolution: 2
Origin: SOUTHERN RESEARCH INSTITUTE
1/CM	TRANSMITTANCE
597	0.779
606	0.7824
615	0.7836
624	0.7832
633	0.7806
642	0.7769
651	0.7715
660	0.7549
669	0.6707
678	0.6255
687	0.6219
696	0.7399
705	0.6205
714	0.5207
723	0.6345
732	0.6308
741	0.7487
750	0.747
759	0.746
768	0.747
777	0.7185
786	0.4495
795	0.6142
804	0.6636
813	0.7073
822	0.7257
831	0.7394
840	0.7458
849	0.7432
858	0.6758
867	0.6694
876	0.7744
885	0.792
894	0.7945
903	0.7956
912	0.7937
921	0.7912
930	0.7883
939	0.7816
948	0.7665
957	0.7361
966	0.7438
975	0.7697
984	0.7676
993	0.7562
1002	0.7173
1011	0.6107
1020	0.6203
1029	0.6915
1038	0.7186
1047	0.7342
1056	0.7355
1065	0.7165
1074	0.6524
1083	0.683
1092	0.6416
1101	0.6696
1110	0.6802
1119	0.6835
1128	0.6834
1137	0.6811
1146	0.6578
1155	0.5925
1164	0.5004
1173	0.4789
1182	0.587
1191	0.5965
1200	0.602
1209	0.6699
1218	0.7192
1227	0.7267
1236	0.7164
1245	0.6949
1254	0.6459
1263	0.5904
1272	0.636
1281	0.4925
1290	0.5256
1299	0.6226
1308	0.6494
1317	0.5991
1326	0.5531
1335	0.5868
1344	0.5329
1353	0.4353
1362	0.3938
1371	0.3943
1380	0.4165
1389	0.5817
1398	0.6782
1407	0.7138
1416	0.72
1425	0.7067
1434	0.6612
1443	0.616
1452	0.5962
1461	0.6089
1470	0.6657
1479	0.6804
1488	0.6628
1497	0.6487
1506	0.6147
1515	0.5735
1524	0.4289
1533	0.3334
1542	0.3798
1551	0.367
1560	0.1659
1569	0.0691
1578	0.0846
1587	0.1101
1596	0.1401
1605	0.2506
1614	0.2281
1623	0.1364
1632	0.124
1641	0.1458
1650	0.1836
1659	0.259
1668	0.2795
1677	0.134
1686	0.0848
1695	0.078
1704	0.0944
1713	0.1309
1722	0.183
1731	0.2962
1740	0.4529
1749	0.5579
1758	0.6752
1767	0.7229
1776	0.7525
1785	0.7702
1794	0.7848
1803	0.7998
1812	0.8147
1821	0.8244
1830	0.8326
1839	0.8402
1848	0.8456
1857	0.8483
1866	0.8505
1875	0.8518
1884	0.8552
1893	0.8599
1902	0.8654
1911	0.8672
1920	0.8674
1929	0.8688
1938	0.8707
1947	0.8707
1956	0.8705
1965	0.87
1974	0.8699
1983	0.8737
1992	0.8709
2001	0.8676
2010	0.8637
2019	0.8583
2028	0.8618
2037	0.8564
2046	0.8523
2055	0.8566
2064	0.8609
2073	0.8653
2082	0.8665
2091	0.8662
2100	0.8661
2109	0.8665
2118	0.867
2127	0.8674
2136	0.8671
2145	0.8664
2154	0.8651
2163	0.8635
2172	0.8619
2181	0.8588
2190	0.8556
2199	0.855
2208	0.8573
2217	0.8615
2226	0.8613
2235	0.8569
2244	0.8536
2253	0.8515
2262	0.8508
2271	0.8508
2280	0.8506
2289	0.8503
2298	0.851
2307	0.859
2316	0.8601
2325	0.8576
2334	0.8536
2343	0.8525
2352	0.8511
2361	0.8455
2370	0.8403
2379	0.8421
2388	0.8449
2397	0.8422
2406	0.8391
2415	0.8369
2424	0.8351
2433	0.8342
2442	0.8337
2451	0.8331
2460	0.8321
2469	0.8304
2478	0.8294
2487	0.8285
2496	0.8265
2505	0.8243
2514	0.8206
2523	0.822
2532	0.8261
2541	0.8201
2550	0.8172
2559	0.8143
2568	0.8118
2577	0.8063
2586	0.8002
2595	0.7968
2604	0.7922
2613	0.7875
2622	0.7822
2631	0.7763
2640	0.7698
2649	0.763
2658	0.7551
2667	0.7454
2676	0.7356
2685	0.7241
2694	0.7133
2703	0.7061
2712	0.7027
2721	0.7007
2730	0.7005
2739	0.7
2748	0.6993
2757	0.7024
2766	0.69
2775	0.6808
2784	0.6759
2793	0.6738
2802	0.6714
2811	0.6671
2820	0.662
2829	0.6525
2838	0.6329
2847	0.6179
2856	0.6059
2865	0.6005
2874	0.5879
2883	0.5813
2892	0.5731
2901	0.5464
2910	0.544
2919	0.5488
2928	0.5515
2937	0.5589
2946	0.5508
2955	0.5377
2964	0.5348
2973	0.5315
2982	0.5302
2991	0.5289
3000	0.521
3009	0.5105
3018	0.5008
3027	0.4942
3036	0.4847
3045	0.4684
3054	0.4548
3063	0.4394
3072	0.4216
3081	0.4046
3090	0.3831
3099	0.3613
3108	0.3415
3117	0.3207
3126	0.3086
3135	0.3023
3144	0.3029
3153	0.3105
3162	0.3133
3171	0.3155
3180	0.326
3189	0.3341
3198	0.3387
3207	0.3625
3216	0.3724
3225	0.3814
3234	0.3821
3243	0.3729
3252	0.3567
3261	0.3351
3270	0.3125
3279	0.3011
3288	0.2974
3297	0.2966
3306	0.2975
3315	0.3014
3324	0.3113
3333	0.3259
3342	0.3451
3351	0.3546
3360	0.3645
3369	0.3745
3378	0.3813
3387	0.3837
3396	0.3853
3405	0.4041
3414	0.4182
3423	0.442
3432	0.4672
3441	0.5072
3450	0.5445
3459	0.5662
3468	0.5879
3477	0.6082
3486	0.6295
3495	0.6464
3504	0.6605
3513	0.6743
3522	0.688
3531	0.7007
3540	0.7142
3549	0.7277
3558	0.7409
3567	0.7543
3576	0.775
3585	0.7809
3594	0.786
3603	0.7901
3612	0.7951
3621	0.7995
3630	0.8032
3639	0.806
3648	0.8059
3657	0.8059
3666	0.8074
3675	0.8087
3684	0.8082
3693	0.8083
3702	0.8104
3711	0.8113
3720	0.806
3729	0.8041
3738	0.8046
3747	0.8038
3756	0.803
3765	0.8034
3774	0.8028
3783	0.801
3792	0.799
3801	0.7982
3810	0.7975
3819	0.7968
3828	0.796
3837	0.7948
3846	0.7931
3855	0.7899
3864	0.7875
3873	0.7857
3882	0.7853
3891	0.7867
3900	0.7904
3909	0.7943
3918	0.7932
3927	0.7901
3936	0.7864
3945	0.7841
3954	0.7838
3963	0.7838
3972	0.7831
3981	0.7821
3990	0.7811
3999	0.7802
