Infrared Spectrum: Indole-3-carbonitrile
Formula: C 9 H 6 N 2
CAS: 5457-28-3
State: gas
Origin: EPA-IR VAPOR PHASE LIBRARY
1/CM	ABSORBANCE
549.8	0.0018005
559.445	0.002627
569.09	0.004727
578.734	0.004137
588.379	0.002517
598.024	0.001243
607.669	0.0013018
617.313	0.0013267
626.958	0.0016609
636.603	0.0017143
646.248	0.001558
655.893	0.0016461
665.537	0.0013797
675.182	0.0012961
684.827	0.0011705
694.472	0.0017466
704.116	0.001917
713.761	0.002727
723.406	0.011907
733.051	0.026187
742.695	0.042197
752.34	0.021107
761.985	0.008157
771.63	0.004287
781.275	0.001877
790.919	0.002207
800.564	0.003797
810.209	0.005697
819.854	0.005287
829.498	0.004177
839.143	0.004117
848.788	0.006657
858.433	0.009847
868.078	0.008147
877.722	0.004777
887.367	0.003127
897.012	0.004057
906.657	0.004997
916.301	0.005847
925.946	0.008307
935.591	0.008387
945.236	0.006467
954.88	0.004627
964.525	0.003987
974.17	0.002927
983.815	0.002747
993.46	0.002527
1003.1	0.004427
1012.75	0.003227
1022.39	0.002427
1032.04	0.0007136
1041.68	0.002957
1051.33	0.005007
1060.97	0.006867
1070.62	0.004137
1080.26	0.003437
1089.91	0.007777
1099.55	0.008957
1109.2	0.007467
1118.84	0.003597
1128.49	0.004087
1138.13	0.004187
1147.78	0.0018039
1157.42	0.001937
1167.07	0.0017576
1176.71	0.002157
1186.36	0.002727
1196	0.002367
1205.64	0.002197
1215.29	0.004697
1224.93	0.007277
1234.58	0.010287
1244.22	0.013287
1253.87	0.011557
1263.51	0.004377
1273.16	0.002547
1282.8	0.003017
1292.45	0.003587
1302.09	0.003437
1311.74	0.004007
1321.38	0.008007
1331.03	0.009887
1340.67	0.006387
1350.32	0.004527
1359.96	0.003127
1369.61	0.001817
1379.25	0.001937
1388.9	0.003287
1398.54	0.010897
1408.18	0.019397
1417.83	0.014667
1427.47	0.004177
1437.12	0.003707
1446.76	0.008067
1456.41	0.010277
1466.05	0.007627
1475.7	0.003517
1485.34	0.002997
1494.99	0.002837
1504.63	0.0017971
1514.28	0.002117
1523.92	0.004277
1533.57	0.009937
1543.21	0.011677
1552.86	0.006437
1562.5	0.002667
1572.15	0.003077
1581.79	0.002867
1591.44	0.002897
1601.08	0.002977
1610.73	0.005227
1620.37	0.007937
1630.01	0.006867
1639.66	0.003227
1649.3	0.001967
1658.95	0.002167
1668.59	0.002287
1678.24	0.0017792
1687.88	0.0013627
1697.53	0.0010819
1707.17	0.0011083
1716.82	0.0013493
1726.46	0.0012749
1736.11	0.0011453
1745.75	0.0011619
1755.4	0.0015089
1765.04	0.001877
1774.69	0.0018056
1784.33	0.0012054
1793.98	0.0013096
1803.62	0.001533
1813.27	0.0012348
1822.91	0.001004
1832.55	0.0009444
1842.2	0.0010527
1851.84	0.0014356
1861.49	0.0013273
1871.13	0.0011087
1880.78	0.0015793
1890.42	0.001837
1900.07	0.0016084
1909.71	0.0011789
1919.36	0.001484
1929	0.0018021
1938.65	0.0014048
1948.29	0.00088843
1957.94	0.00079768
1967.58	0.000625
1977.23	0.00085899
1986.87	0.00082368
1996.52	0.00083706
2006.16	0.00089323
2015.81	0.0007784
2025.45	0.00086759
2035.1	0.0007742
2044.74	0.000665
2054.38	0.000673
2064.03	0.00083286
2073.67	0.0007531
2083.32	0.00090144
2092.96	0.00081083
2102.61	0.0007627
2112.25	0.000808757
2121.9	0.00081095
2131.54	0.000811758
2141.19	0.0007466
2150.83	0.00079839
2160.48	0.00091
2170.12	0.0009469
2179.77	0.0010554
2189.41	0.0010627
2199.06	0.0015152
2208.7	0.003097
2218.35	0.007127
2227.99	0.015817
2237.64	0.017157
2247.28	0.007157
2256.92	0.0015622
2266.57	0.0012439
2276.21	0.0011583
2285.86	0.001191
2295.5	0.0009108
2305.15	0.00080037
2314.79	0.00086155
2324.44	0.0009312
2334.08	0.00079946
2343.73	0.0012601
2353.37	0.0011701
2363.02	0.0011391
2372.66	0.00085026
2382.31	0.001062
2391.95	0.0011604
2401.6	0.0010609
2411.24	0.0010032
2420.89	0.0010564
2430.53	0.0009656
2440.18	0.000806906
2449.82	0.00082077
2459.47	0.0011345
2469.11	0.0015588
2478.75	0.0013128
2488.4	0.00125
2498.04	0.0011665
2507.69	0.0012701
2517.33	0.0013652
2526.98	0.0010885
2536.62	0.0010892
2546.27	0.0009356
2555.91	0.0011276
2565.56	0.000943
2575.2	0.0010559
2584.85	0.0010425
2594.49	0.0011623
2604.14	0.0011836
2613.78	0.0008247
2623.43	0.0010901
2633.07	0.0011986
2642.72	0.0010737
2652.36	0.0007723
2662.01	0.0009149
2671.65	0.00082492
2681.29	0.0012287
2690.94	0.0010173
2700.58	0.0010738
2710.23	0.0011154
2719.87	0.0010672
2729.52	0.0010448
2739.16	0.0010461
2748.81	0.0007597
2758.45	0.0007766
2768.1	0.0009557
2777.74	0.000342
2787.39	0.0009874
2797.03	0.0009457
2806.68	0.0008605
2816.32	0.000976
2825.97	0.00058
2835.61	0.000701
2845.26	0.0010338
2854.9	0.0010095
2864.55	0.0010646
2874.19	0.001087
2883.84	0.0010239
2893.48	0.00084435
2903.12	0.0007414
2912.77	0.001308
2922.41	0.0011723
2932.06	0.0007561
2941.7	0.0012434
2951.35	0.0013388
2960.99	0.0011087
2970.64	0.0010135
2980.28	0.0015031
2989.93	0.0012803
2999.57	0.001218
3009.22	0.0017205
3018.86	0.001219
3028.51	0.002127
3038.15	0.003697
3047.8	0.004937
3057.44	0.006597
3067.09	0.009457
3076.73	0.010187
3086.38	0.006507
3096.02	0.003847
3105.67	0.002037
3115.31	0.0011436
3124.95	0.0011692
3134.6	0.0011586
3144.24	0.0009906
3153.89	0.0009858
3163.53	0.0009461
3173.18	0.0010144
3182.82	0.00087633
3192.47	0.000435
3202.11	0.0007098
3211.76	0.00085846
3221.4	0.000559
3231.05	0.0007687
3240.69	0.000649
3250.34	0.000439
3259.98	0.000607
3269.63	0.0012899
3279.27	0.00053
3288.92	0.00087957
3298.56	0.0009826
3308.21	0.0008356
3317.85	0.0007683
3327.49	0.001161
3337.14	0.000583
3346.78	0.000438
3356.43	0.0007607
3366.07	0.000685
3375.72	0.000969
3385.36	0.000525
3395.01	0.0011783
3404.65	0.0009787
3414.3	0.0009503
3423.94	0.0009076
3433.59	0.000985
3443.23	0.0010375
3452.88	0.0015156
3462.52	0.002477
3472.17	0.004497
3481.81	0.007397
3491.46	0.012977
3501.1	0.022647
3510.75	0.030967
3520.39	0.024767
3530.04	0.008677
3539.68	0.002647
3549.32	0.0012349
3558.97	0.0009404
3568.61	0.0007234
3578.26	0.0007804
3587.9	0.0008293
3597.55	0.000644
3607.19	0.000481
3616.84	0.000642
3626.48	0.00088874
3636.13	0.000219
3645.77	0.0009831
3655.42	0.0010155
3665.06	0.0012302
3674.71	0.000136
3684.35	0.00081134
3694	0.0010228
3703.64	0.0009768
3713.29	0.0008507
3722.93	0.000604
3732.58	0.000196
3742.22	0.000382
3751.86	0.0012186
3761.51	0.0010154
3771.15	0.0012374
3780.8	0.0009591
3790.44	0.00086192
3800.09	0.0010514
3809.73	0.000679
3819.38	0.000587
3829.02	0.000531
3838.67	0.000659
3848.31	0.000706
3857.96	0.000529
3867.6	0.000301
3877.25	0.00085045
3886.89	0.000472
3896.54	0.0013107
3906.18	0.000256
3915.83	0.0010075
3925.47	0.0011289
3935.12	0.000591
3944.76	0.00082788
3954.41	0.000702
3964.05	0.000684
3973.69	0.000598
3983.34	0.000499
3992.98	0.0008402
