Infrared Spectrum: Triazolo[4,5-d]pyrimidine, 3H-v-, 5-amino-7-chloro-3-ethyl-
Formula: C6 H7 Cl N6
CAS: 5457-92-1
State: SOLID (0.8 mg / 650 mg KBr DISC)
Class: COBLENTZ III
Instrument: PERKIN-ELMER 21 (GRATING)
Instrument parameters: FILTER CHANGE ABOUT 1090 CM^-^1
Sampling: TRANSMISSION
Resolution: 2
Origin: SOUTHERN RESEARCH INSTITUTE
1/CM	TRANSMITTANCE
604	0.8979
613	0.8972
622	0.8856
631	0.8663
640	0.8325
649	0.8172
658	0.8405
667	0.8453
676	0.8398
685	0.8455
694	0.8307
703	0.7801
712	0.5718
721	0.8424
730	0.8291
739	0.7703
748	0.8225
757	0.8269
766	0.8141
775	0.7835
784	0.7436
793	0.3906
802	0.6956
811	0.7632
820	0.766
829	0.7503
838	0.7103
847	0.5812
856	0.7182
865	0.7088
874	0.6881
883	0.6682
892	0.6256
901	0.5965
910	0.5382
919	0.3681
928	0.328
937	0.5573
946	0.6514
955	0.6555
964	0.6478
973	0.5266
982	0.6607
991	0.6455
1000	0.5388
1009	0.4074
1018	0.4356
1027	0.223
1036	0.4087
1045	0.6975
1054	0.7029
1063	0.6999
1072	0.6989
1081	0.7029
1090	0.5483
1099	0.6092
1108	0.5491
1117	0.5702
1126	0.6219
1135	0.6417
1144	0.6299
1153	0.5871
1162	0.3783
1171	0.1047
1180	0.5427
1189	0.6528
1198	0.6876
1207	0.6778
1216	0.6407
1225	0.5382
1234	0.4332
1243	0.1374
1252	0.4372
1261	0.7014
1270	0.7007
1279	0.684
1288	0.7
1297	0.6839
1306	0.6789
1315	0.6543
1324	0.5943
1333	0.609
1342	0.5298
1351	0.5003
1360	0.5248
1369	0.6105
1378	0.4709
1387	0.4642
1396	0.2974
1405	0.4322
1414	0.3544
1423	0.3005
1432	0.203
1441	0.4311
1450	0.2459
1459	0.3993
1468	0.6053
1477	0.607
1486	0.554
1495	0.4256
1504	0.1807
1513	0.0962
1522	0.4388
1531	0.5268
1540	0.4716
1549	0.3335
1558	0.165
1567	0.0721
1576	0.3398
1585	0.31
1594	0.1172
1603	0.0295
1612	0.0208
1621	0.0377
1630	0.0937
1639	0.2345
1648	0.4542
1657	0.5671
1666	0.6839
1675	0.7228
1684	0.7607
1693	0.7845
1702	0.7952
1711	0.8118
1720	0.8322
1729	0.8339
1738	0.8326
1747	0.8183
1756	0.8164
1765	0.8245
1774	0.8342
1783	0.8379
1792	0.8386
1801	0.8338
1810	0.8285
1819	0.8245
1828	0.82
1837	0.8135
1846	0.8239
1855	0.815
1864	0.815
1873	0.8144
1882	0.8123
1891	0.8101
1900	0.8071
1909	0.8031
1918	0.7981
1927	0.794
1936	0.7906
1945	0.784
1954	0.7822
1963	0.7804
1972	0.7781
1981	0.7734
1990	0.7708
1999	0.7703
2008	0.7697
2017	0.7684
2026	0.7636
2035	0.7571
2044	0.7532
2053	0.751
2062	0.7522
2071	0.7585
2080	0.7581
2089	0.7504
2098	0.7496
2107	0.7477
2116	0.7445
2125	0.7436
2134	0.7422
2143	0.7359
2152	0.7334
2161	0.7311
2170	0.7296
2179	0.7285
2188	0.7285
2197	0.7269
2206	0.7254
2215	0.7246
2224	0.7223
2233	0.7198
2242	0.7199
2251	0.7191
2260	0.7186
2269	0.7226
2278	0.724
2287	0.7206
2296	0.7148
2305	0.7097
2314	0.704
2323	0.7019
2332	0.7029
2341	0.7075
2350	0.711
2359	0.7086
2368	0.7049
2377	0.7
2386	0.695
2395	0.6927
2404	0.6867
2413	0.6838
2422	0.6877
2431	0.6894
2440	0.6821
2449	0.6841
2458	0.6784
2467	0.6731
2476	0.6736
2485	0.6717
2494	0.6665
2503	0.6643
2512	0.6643
2521	0.6641
2530	0.6628
2539	0.6615
2548	0.6602
2557	0.6587
2566	0.6528
2575	0.6481
2584	0.6441
2593	0.6424
2602	0.6407
2611	0.6344
2620	0.6336
2629	0.6347
2638	0.6352
2647	0.6328
2656	0.6295
2665	0.626
2674	0.6213
2683	0.6156
2692	0.6123
2701	0.6095
2710	0.6077
2719	0.6063
2728	0.6017
2737	0.606
2746	0.6131
2755	0.6097
2764	0.605
2773	0.6028
2782	0.6013
2791	0.6007
2800	0.5979
2809	0.5877
2818	0.5843
2827	0.5812
2836	0.5786
2845	0.5736
2854	0.5692
2863	0.5675
2872	0.567
2881	0.565
2890	0.559
2899	0.5501
2908	0.5334
2917	0.5087
2926	0.4983
2935	0.4983
2944	0.5138
2953	0.5102
2962	0.4859
2971	0.4755
2980	0.4928
2989	0.5289
2998	0.5456
3007	0.5432
3016	0.5327
3025	0.5332
3034	0.5335
3043	0.5228
3052	0.5106
3061	0.5008
3070	0.4932
3079	0.4876
3088	0.4739
3097	0.4588
3106	0.4417
3115	0.4255
3124	0.4274
3133	0.4117
3142	0.3867
3151	0.3536
3160	0.3247
3169	0.3045
3178	0.2882
3187	0.2693
3196	0.2756
3205	0.3288
3214	0.3708
3223	0.376
3232	0.3622
3241	0.3401
3250	0.3115
3259	0.2821
3268	0.2556
3277	0.226
3286	0.1964
3295	0.1692
3304	0.1452
3313	0.1248
3322	0.1212
3331	0.1395
3340	0.236
3349	0.3273
3358	0.3685
3367	0.4077
3376	0.4273
3385	0.4297
3394	0.4272
3403	0.4225
3412	0.4162
3421	0.4009
3430	0.3762
3439	0.3425
3448	0.3069
3457	0.2375
3466	0.1846
3475	0.2766
3484	0.4327
3493	0.4994
3502	0.5232
3511	0.5297
3520	0.5334
3529	0.5371
3538	0.5446
3547	0.5494
3556	0.553
3565	0.5558
3574	0.5583
3583	0.5613
3592	0.5651
3601	0.5676
3610	0.5701
3619	0.5697
3628	0.5772
3637	0.5836
3646	0.5837
3655	0.5826
3664	0.58
3673	0.575
3682	0.5692
3691	0.5674
3700	0.5676
3709	0.568
3718	0.5694
3727	0.5682
3736	0.5656
3745	0.5626
3754	0.5569
3763	0.5524
3772	0.5523
3781	0.5597
3790	0.5509
3799	0.551
3808	0.5512
3817	0.5512
3826	0.5461
3835	0.5407
3844	0.5387
3853	0.5407
3862	0.5409
3871	0.5387
3880	0.5293
3889	0.5253
3898	0.5254
3907	0.5242
3916	0.5354
3925	0.5283
3934	0.5213
3943	0.5226
3952	0.5251
3961	0.5203
3970	0.5165
3979	0.5145
3988	0.5161
3997	0.5213
