Infrared Spectrum: 4,6-Dimethyl-2-mercaptopyridine-3-carbonitrile
Formula: C 8 H 8 N 2 S
CAS: 54585-47-6
State: gas
Origin: EPA-IR VAPOR PHASE LIBRARY
1/CM	ABSORBANCE
549.8	0.001302
559.445	0.00149
569.09	0.000241
578.734	0.0010145
588.379	0.00024
598.024	0.00168
607.669	0.0009257
617.313	0.00045701
626.958	0.0006552
636.603	0.0009203
646.248	0.0005098
655.893	0.000283
665.537	0.0008935
675.182	0.0009374
684.827	0.000985
694.472	0.0006566
704.116	0.0011097
713.761	0.0012607
723.406	0.0013083
733.051	0.0008166
742.695	0.0007917
752.34	0.0007363
761.985	0.0010828
771.63	0.0006794
781.275	0.00051633
790.919	0.0008177
800.564	0.0006838
810.209	0.00149
819.854	0.0016
829.498	0.00181
839.143	0.00278
848.788	0.00562
858.433	0.00638
868.078	0.00782
877.722	0.00726
887.367	0.00306
897.012	0.00191
906.657	0.00237
916.301	0.00216
925.946	0.00225
935.591	0.00178
945.236	0.0011078
954.88	0.0012294
964.525	0.0013042
974.17	0.0013567
983.815	0.00205
993.46	0.0018
1003.1	0.00168
1012.75	0.00162
1022.39	0.0008859
1032.04	0.0010544
1041.68	0.0008223
1051.33	0.0013934
1060.97	0.0008519
1070.62	0.0009553
1080.26	0.0009236
1089.91	0.00194
1099.55	0.0011591
1109.2	0.0003522
1118.84	0.00155
1128.49	0.00249
1138.13	0.00214
1147.78	0.00218
1157.42	0.00211
1167.07	0.00215
1176.71	0.00288
1186.36	0.00222
1196	0.0021
1205.64	0.0028
1215.29	0.00396
1224.93	0.00285
1234.58	0.00367
1244.22	0.00483
1253.87	0.0068
1263.51	0.01111
1273.16	0.01275
1282.8	0.00757
1292.45	0.00289
1302.09	0.00197
1311.74	0.00194
1321.38	0.00219
1331.03	0.00264
1340.67	0.00548
1350.32	0.01107
1359.96	0.01252
1369.61	0.00906
1379.25	0.00826
1388.9	0.00751
1398.54	0.00562
1408.18	0.00551
1417.83	0.00679
1427.47	0.00849
1437.12	0.00846
1446.76	0.0089
1456.41	0.00826
1466.05	0.00694
1475.7	0.00564
1485.34	0.00617
1494.99	0.00727
1504.63	0.00891
1514.28	0.01168
1523.92	0.0143
1533.57	0.01686
1543.21	0.01881
1552.86	0.01916
1562.5	0.01963
1572.15	0.02638
1581.79	0.03318
1591.44	0.02306
1601.08	0.0083
1610.73	0.00403
1620.37	0.00292
1630.01	0.00206
1639.66	0.00142
1649.3	0.0012498
1658.95	0.0012207
1668.59	0.0012258
1678.24	0.0011762
1687.88	0.0011056
1697.53	0.0012881
1707.17	0.0010348
1716.82	0.0005989
1726.46	0.0008123
1736.11	0.0008086
1745.75	0.0007491
1755.4	0.0008578
1765.04	0.0007955
1774.69	0.0008278
1784.33	0.0006401
1793.98	0.0007017
1803.62	0.0007768
1813.27	0.000834
1822.91	0.0008599
1832.55	0.0007192
1842.2	0.0006981
1851.84	0.0006504
1861.49	0.0008346
1871.13	0.0007677
1880.78	0.0008294
1890.42	0.0008131
1900.07	0.0008607
1909.71	0.0007925
1919.36	0.0007019
1929	0.0008065
1938.65	0.000785
1948.29	0.0007568
1957.94	0.0007881
1967.58	0.0007605
1977.23	0.0007847
1986.87	0.0006664
1996.52	0.0006727
2006.16	0.0006891
2015.81	0.0007539
2025.45	0.0008198
2035.1	0.0007304
2044.74	0.0007435
2054.38	0.0007204
2064.03	0.0006914
2073.67	0.000845
2083.32	0.0008087
2092.96	0.0008227
2102.61	0.0008563
2112.25	0.0009218
2121.9	0.0009302
2131.54	0.0006839
2141.19	0.0009712
2150.83	0.0009511
2160.48	0.0008333
2170.12	0.000796
2179.77	0.0008143
2189.41	0.0008723
2199.06	0.0010043
2208.7	0.00184
2218.35	0.00362
2227.99	0.00339
2237.64	0.00156
2247.28	0.0008272
2256.92	0.0008157
2266.57	0.0009003
2276.21	0.0007785
2285.86	0.0009131
2295.5	0.0006951
2305.15	0.0008306
2314.79	0.0008688
2324.44	0.0008438
2334.08	0.0007078
2343.73	0.0008408
2353.37	0.0009587
2363.02	0.0009491
2372.66	0.0009316
2382.31	0.0009157
2391.95	0.0009133
2401.6	0.000752
2411.24	0.0008575
2420.89	0.0007832
2430.53	0.0009516
2440.18	0.0009537
2449.82	0.0008449
2459.47	0.0008112
2469.11	0.0007255
2478.75	0.0009772
2488.4	0.0008511
2498.04	0.0009233
2507.69	0.0006663
2517.33	0.0008511
2526.98	0.0005619
2536.62	0.0008048
2546.27	0.0006269
2555.91	0.0007178
2565.56	0.000749
2575.2	0.0008503
2584.85	0.0013616
2594.49	0.00181
2604.14	0.0012796
2613.78	0.0009487
2623.43	0.0009231
2633.07	0.000901
2642.72	0.0011615
2652.36	0.0008905
2662.01	0.0010793
2671.65	0.0007748
2681.29	0.0010046
2690.94	0.000837
2700.58	0.000669
2710.23	0.000941
2719.87	0.0009809
2729.52	0.0009469
2739.16	0.0010325
2748.81	0.0010229
2758.45	0.0009878
2768.1	0.0008653
2777.74	0.0009508
2787.39	0.0010463
2797.03	0.0006848
2806.68	0.0007623
2816.32	0.0010001
2825.97	0.0011559
2835.61	0.0011491
2845.26	0.00165
2854.9	0.00175
2864.55	0.00172
2874.19	0.00181
2883.84	0.00151
2893.48	0.00151
2903.12	0.00189
2912.77	0.00258
2922.41	0.0035
2932.06	0.00489
2941.7	0.00492
2951.35	0.00336
2960.99	0.00244
2970.64	0.00246
2980.28	0.00252
2989.93	0.00267
2999.57	0.00296
3009.22	0.0025
3018.86	0.00208
3028.51	0.00232
3038.15	0.00268
3047.8	0.00342
3057.44	0.00367
3067.09	0.00273
3076.73	0.00169
3086.38	0.0012916
3096.02	0.0013907
3105.67	0.0011979
3115.31	0.0010009
3124.95	0.0008889
3134.6	0.0008692
3144.24	0.0009254
3153.89	0.0006365
3163.53	0.0009159
3173.18	0.0005537
3182.82	0.0010337
3192.47	0.00048158
3202.11	0.000832
3211.76	0.0007506
3221.4	0.00045563
3231.05	0.0004881
3240.69	0.0008762
3250.34	0.0008049
3259.98	0.0006575
3269.63	0.0006272
3279.27	0.0007976
3288.92	0.0007898
3298.56	0.000424852
3308.21	0.0006216
3317.85	0.0005867
3327.49	0.0005433
3337.14	0.000435
3346.78	0.0003995
3356.43	0.0010503
3366.07	0.0009246
3375.72	0.0009531
3385.36	0.0008538
3395.01	0.0009765
3404.65	0.0007832
3414.3	0.0005205
3423.94	0.0006743
3433.59	0.00044325
3443.23	0.0007759
3452.88	0.0005868
3462.52	0.0007481
3472.17	0.0006248
3481.81	0.0006893
3491.46	0.0008691
3501.1	0.0006888
3510.75	0.0006368
3520.39	0.00045687
3530.04	0.0006136
3539.68	0.000731
3549.32	0.00050097
3558.97	0.0005693
3568.61	0.000422549
3578.26	0.0007752
3587.9	0.00014
3597.55	0.00042106
3607.19	0.000165
3616.84	0.000364
3626.48	0.0003623
3636.13	0.0005363
3645.77	0.0006898
3655.42	0.0007368
3665.06	0.0006342
3674.71	0.00044154
3684.35	0.00051777
3694	0.0007281
3703.64	0.000422738
3713.29	0.000207
3722.93	0.0005866
3732.58	0.0006684
3742.22	0.000235
3751.86	0.000269
3761.51	0.00046736
3771.15	0.0003815
3780.8	0.0007009
3790.44	0.0007111
3800.09	0.00045
3809.73	0.000843
3819.38	0.000426752
3829.02	0.0006273
3838.67	0.0004407
3848.31	0.0008887
3857.96	0.000306
3867.6	0.0003979
3877.25	0.000197
3886.89	0.0005772
3896.54	0.0003941
3906.18	0.0006325
3915.83	0.0007816
3925.47	0.0007024
3935.12	0.0008847
3944.76	0.0008031
3954.41	0.000619
3964.05	0.0007086
3973.69	0.000157
3983.34	0.0007421
3992.98	0.00041828
