Infrared Spectrum: 1-Methylbutylcyclopropane
Formula: C 8 H 16
CAS: 5458-16-2
State: gas
Instrument: HP-GC/MS/IRD
Origin: NIST Mass Spectrometry Data Center
1/CM	ABSORBANCE
550	0.0003248
562	0.0001247
574	0.0001247
586	7.83e-05
598	7.54e-05
610	6.09e-05
622	3.48e-05
634	1.16e-05
646	6.96e-05
658	9.28e-05
670	0.0001276
682	0.0001421
694	0.000232
706	0.0002871
718	0.0004089
730	0.0004988
742	0.0003828
754	0.0003393
766	0.0002871
778	0.0002929
790	0.0003857
802	0.0009773
814	0.002088
826	0.0019256
838	0.0009802
850	0.0007047
862	0.0007482
874	0.0008497
886	0.0013108
898	0.0021141
910	0.0021605
922	0.0014036
934	0.000928
946	0.0008642
958	0.0007453
970	0.0006409
982	0.0007424
994	0.0010527
1006	0.0025172
1018	0.0037671
1030	0.0025955
1042	0.0013688
1054	0.0009019
1066	0.0004843
1078	0.0004031
1090	0.0004205
1102	0.0005423
1114	0.0006206
1126	0.0006699
1138	0.0008236
1150	0.0008584
1162	0.0006612
1174	0.0006003
1186	0.000551
1198	0.0004437
1210	0.0003451
1222	0.000319
1234	0.0004379
1246	0.000406
1258	0.0004176
1270	0.0005597
1282	0.0007598
1294	0.0009599
1306	0.0009918
1318	0.0007917
1330	0.0007105
1342	0.000812
1354	0.0010121
1366	0.0016733
1378	0.0024824
1390	0.0023258
1402	0.00116
1414	0.0008207
1426	0.0011571
1438	0.0018763
1450	0.0031842
1462	0.0041702
1474	0.0031987
1486	0.0015602
1498	0.0006815
1510	0.0004089
1522	0.0003277
1534	0.0002523
1546	0.0002001
1558	0.0001682
1570	0.0001595
1582	0.000145
1594	0.000116
1606	0.0001421
1618	0.0001624
1630	0.0001624
1642	0.0001566
1654	0.0001276
1666	9.57e-05
1678	0.0001073
1690	7.83e-05
1702	8.12e-05
1714	6.67e-05
1726	7.54e-05
1738	7.54e-05
1750	8.99e-05
1762	0.0001218
1774	0.0001218
1786	0.0001102
1798	0.0001131
1810	0.0001131
1822	0.0001131
1834	0.0001073
1846	0.0001102
1858	0.0001276
1870	0.0001015
1882	0.0001015
1894	0.0001479
1906	0.0001856
1918	0.0002494
1930	0.0002001
1942	0.0001537
1954	0.0001334
1966	6.38e-05
1978	5.51e-05
1990	6.09e-05
2002	5.22e-05
2014	7.54e-05
2026	9.57e-05
2038	0.0001914
2050	0.0002668
2062	0.0002668
2074	0.0001682
2086	0.0001305
2098	9.57e-05
2110	4.06e-05
2122	3.77e-05
2134	5.8e-05
2146	3.77e-05
2158	4.35e-05
2170	2.9e-05
2182	4.93e-05
2194	3.48e-05
2206	3.77e-05
2218	5.8e-05
2230	4.35e-05
2242	3.19e-05
2254	5.22e-05
2266	3.77e-05
2278	2.03e-05
2290	2.03e-05
2302	2.61e-05
2314	3.77e-05
2326	4.35e-05
2338	5.8e-05
2350	4.93e-05
2362	5.51e-05
2374	6.67e-05
2386	4.35e-05
2398	7.25e-05
2410	7.54e-05
2422	4.93e-05
2434	6.96e-05
2446	5.22e-05
2458	8.12e-05
2470	0.0001334
2482	0.000116
2494	7.83e-05
2506	6.96e-05
2518	8.41e-05
2530	5.51e-05
2542	9.86e-05
2554	0.0001247
2566	0.0001595
2578	0.0001885
2590	0.0002175
2602	0.0002175
2614	0.0002204
2626	0.0002436
2638	0.0002552
2650	0.0002465
2662	0.0002784
2674	0.0003016
2686	0.0002929
2698	0.0003161
2710	0.0003509
2722	0.0004292
2734	0.000551
2746	0.0006061
2758	0.0005684
2770	0.0005742
2782	0.0006786
2794	0.0008178
2806	0.0010527
2818	0.0014442
2830	0.0021083
2842	0.0036308
2854	0.0061712
2866	0.0096744
2878	0.0139461
2890	0.0142622
2902	0.0139316
2914	0.0162545
2926	0.0184759
2938	0.0195547
2950	0.0205726
2962	0.0280575
2974	0.0252938
2986	0.013108
2998	0.0106169
3010	0.010063
3022	0.0067135
3034	0.0033176
3046	0.0020387
3058	0.0022852
3070	0.0048923
3082	0.007569
3094	0.0044602
3106	0.001508
3118	0.0007569
3130	0.0006235
3142	0.0005597
3154	0.0005336
3166	0.0004814
3178	0.0004524
3190	0.0004118
3202	0.0003277
3214	0.0002436
3226	0.0001682
3238	0.0001537
3250	0.0001247
3262	0.0001305
3274	0.0001131
3286	8.99e-05
3298	0.0001044
3310	8.7e-05
3322	9.86e-05
3334	4.64e-05
3346	8.7e-05
3358	7.54e-05
3370	0.0001073
3382	0.0001044
3394	0.0001102
3406	6.96e-05
3418	7.83e-05
3430	8.41e-05
3442	6.96e-05
3454	6.96e-05
3466	5.51e-05
3478	5.22e-05
3490	4.06e-05
3502	6.67e-05
3514	2.9e-05
3526	4.93e-05
3538	0
3550	6.09e-05
3562	4.35e-05
3574	6.96e-05
3586	6.09e-05
3598	8.99e-05
3610	4.64e-05
3622	3.48e-05
3634	5.51e-05
3646	0.0001102
3658	0.0001073
3670	8.99e-05
3682	0.0001131
3694	7.25e-05
3706	0.0001015
3718	9.28e-05
3730	8.12e-05
3742	0.0001276
3754	8.12e-05
3766	9.28e-05
3778	0.0001044
3790	9.57e-05
3802	0.0001276
3814	0.0001566
3826	0.000145
3838	0.0001624
