Infrared Spectrum: ISOPROPYL, A,A-DICHLOROPROPIONATE
Formula: C6 H10 Cl2 O2
CAS: 54587-48-3
State: SOLUTION (10% CCl4 FOR 2.5-7.5, 10% CS2 FOR 7.5-16 MICRON)
Class: COBLENTZ
Instrument: Not specified, most likely a prism, grating, or hybrid spectrometer.
Sampling: TRANSMISSION
Path length: 0.01 CM, 0.01 CM
Resolution: 4
Origin: DOW CHEMICAL COMPANY
MICROMETERS	TRANSMITTANCE
2.046	0.862
2.08603	0.867
2.12605	0.867
2.16608	0.865
2.20611	0.87
2.24613	0.857
2.28616	0.845
2.32618	0.848
2.36621	0.863
2.40624	0.862
2.44626	0.857
2.48629	0.862
2.52632	0.873
2.56634	0.878
2.60637	0.878
2.64639	0.878
2.68642	0.878
2.72645	0.878
2.76647	0.877
2.8065	0.878
2.84653	0.87
2.88655	0.852
2.92658	0.85
2.9666	0.867
3.00663	0.865
3.04666	0.862
3.08668	0.863
3.12671	0.862
3.16674	0.862
3.20676	0.865
3.24679	0.867
3.28681	0.86
3.32684	0.797
3.36687	0.473
3.40689	0.475
3.44692	0.654
3.48695	0.752
3.52697	0.812
3.567	0.845
3.60702	0.87
3.64705	0.877
3.68708	0.872
3.7271	0.882
3.76713	0.88
3.80716	0.882
3.84718	0.88
3.88721	0.882
3.92723	0.88
3.96726	0.878
4.00729	0.88
4.04731	0.882
4.08734	0.882
4.12737	0.885
4.16739	0.883
4.20742	0.89
4.24744	0.9
4.28747	0.9
4.3275	0.89
4.36752	0.872
4.40755	0.88
4.44758	0.887
4.4876	0.9
4.52763	0.9
4.56765	0.9
4.60768	0.9
4.64771	0.9
4.68773	0.9
4.72776	0.9
4.76779	0.9
4.80781	0.9
4.84784	0.9
4.88786	0.9
4.92789	0.898
4.96792	0.898
5.00794	0.897
5.04797	0.897
5.088	0.897
5.12802	0.897
5.16805	0.897
5.20807	0.897
5.2481	0.897
5.28813	0.895
5.32815	0.895
5.36818	0.883
5.40821	0.863
5.44823	0.862
5.48826	0.847
5.52828	0.813
5.56831	0.802
5.60834	0.734
5.64836	0.536
5.68839	0.167
5.72842	0.074
5.76844	0.049
5.80847	0.275
5.84849	0.566
5.88852	0.697
5.92855	0.779
5.96857	0.808
6.0086	0.828
6.04863	0.835
6.08865	0.837
6.12868	0.842
6.16871	0.835
6.20873	0.775
6.24876	0.699
6.28878	0.639
6.32881	0.612
6.36884	0.579
6.40886	0.534
6.44889	0.476
6.48892	0.493
6.52894	0.554
6.56897	0.601
6.60899	0.649
6.64902	0.712
6.68905	0.755
6.72907	0.767
6.7691	0.657
6.80913	0.488
6.84915	0.534
6.88918	0.446
6.9292	0.446
6.96923	0.604
7.00926	0.73
7.04928	0.744
7.08931	0.75
7.12934	0.744
7.16936	0.622
7.20939	0.368
7.24941	0.2
7.28944	0.385
7.32947	0.498
7.36949	0.564
7.40952	0.568
7.44955	0.598
7.48957	0.632
7.5296	0.656
7.56962	0.676
7.60965	0.656
7.64968	0.609
7.6897	0.529
7.72973	0.365
7.76976	0.156
7.80978	0.038
7.84981	0.018
7.88983	0.048
7.92986	0.091
7.96989	0.081
8.00991	0.109
8.04994	0.26
8.08997	0.423
8.12999	0.548
8.17002	0.598
8.21004	0.627
8.25007	0.631
8.2901	0.639
8.33012	0.636
8.37015	0.589
8.41018	0.443
8.4502	0.372
8.49023	0.448
8.53025	0.558
8.57028	0.607
8.61031	0.626
8.65033	0.594
8.69036	0.456
8.73039	0.35
8.77041	0.368
8.81044	0.269
8.85046	0.152
8.89049	0.21
8.93052	0.284
8.97054	0.269
9.01057	0.089
9.0506	0.028
9.09062	0.019
9.13065	0.039
9.17067	0.098
9.2107	0.122
9.25073	0.119
9.29075	0.116
9.33078	0.111
9.37081	0.22
9.41083	0.38
9.45086	0.508
9.49088	0.609
9.53091	0.704
9.57094	0.757
9.61096	0.79
9.65099	0.805
9.69102	0.818
9.73104	0.83
9.77107	0.838
9.81109	0.847
9.85112	0.852
9.89115	0.853
9.93117	0.853
9.9712	0.852
10.0112	0.845
10.0513	0.835
10.0913	0.832
10.1313	0.833
10.1713	0.84
10.2114	0.852
10.2514	0.857
10.2914	0.868
10.3314	0.867
10.3715	0.865
10.4115	0.855
10.4515	0.852
10.4915	0.842
10.5316	0.835
10.5716	0.818
10.6116	0.784
10.6516	0.727
10.6917	0.644
10.7317	0.49
10.7717	0.342
10.8118	0.373
10.8518	0.531
10.8918	0.641
10.9318	0.739
10.9719	0.785
11.0119	0.808
11.0519	0.822
11.0919	0.822
11.132	0.815
11.172	0.802
11.212	0.72
11.252	0.594
11.2921	0.533
11.3321	0.576
11.3721	0.657
11.4121	0.724
11.4522	0.74
11.4922	0.74
11.5322	0.73
11.5723	0.71
11.6123	0.697
11.6523	0.697
11.6923	0.697
11.7324	0.702
11.7724	0.715
11.8124	0.735
11.8524	0.745
11.8925	0.744
11.9325	0.702
11.9725	0.646
12.0125	0.541
12.0526	0.456
12.0926	0.405
12.1326	0.4
12.1726	0.46
12.2127	0.564
12.2527	0.641
12.2927	0.692
12.3327	0.709
12.3728	0.715
12.4128	0.707
12.4528	0.686
12.4929	0.657
12.5329	0.594
12.5729	0.564
12.6129	0.573
12.653	0.601
12.693	0.619
12.733	0.636
12.773	0.651
12.8131	0.674
12.8531	0.692
12.8931	0.705
12.9331	0.715
12.9732	0.729
13.0132	0.735
13.0532	0.742
13.0932	0.744
13.1333	0.745
13.1733	0.744
13.2133	0.739
13.2534	0.735
13.2934	0.73
13.3334	0.724
13.3734	0.715
13.4135	0.705
13.4535	0.696
13.4935	0.679
13.5335	0.657
13.5736	0.619
13.6136	0.564
13.6536	0.513
13.6936	0.471
13.7337	0.468
13.7737	0.485
13.8137	0.506
13.8537	0.523
13.8938	0.523
13.9338	0.521
13.9738	0.516
14.0139	0.529
14.0539	0.543
14.0939	0.551
14.1339	0.553
14.174	0.551
14.214	0.548
14.254	0.538
14.294	0.529
14.3341	0.519
14.3741	0.504
14.4141	0.495
14.4541	0.485
14.4942	0.473
14.5342	0.458
14.5742	0.448
14.6142	0.431
14.6543	0.418
14.6943	0.398
14.7343	0.378
14.7744	0.358
14.8144	0.338
14.8544	0.322
14.8944	0.305
14.9345	0.297
14.9745	0.274
15.0145	0.23
15.0545	0.184
15.0946	0.147
15.1346	0.132
15.1746	0.122
15.2146	0.119
15.2547	0.124
15.2947	0.142
15.3347	0.161
15.3747	0.191
15.4148	0.219
15.4548	0.249
15.4948	0.277
15.5349	0.303
15.5749	0.327
15.6149	0.348
15.6549	0.36
15.695	0.37
15.735	0.378
15.775	0.387
15.815	0.397
15.8551	0.403
15.8951	0.406
