Infrared Spectrum: 4-Ethoxystyrene
Formula: C 10 H 12 O
CAS: 5459-40-5
State: gas
Origin: EPA-IR VAPOR PHASE LIBRARY
1/CM	ABSORBANCE
549.8	0.014579
559.445	0.012129
569.09	0.007909
578.734	0.004819
588.379	0.003809
598.024	0.002899
607.669	0.002489
617.313	0.002619
626.958	0.002129
636.603	0.003299
646.248	0.002909
655.893	0.001439
665.537	0.001979
675.182	0.001909
684.827	0.002819
694.472	0.004339
704.116	0.005529
713.761	0.005269
723.406	0.006809
733.051	0.005909
742.695	0.003329
752.34	0.002449
761.985	0.002889
771.63	0.003279
781.275	0.004429
790.919	0.007029
800.564	0.012179
810.209	0.019049
819.854	0.033839
829.498	0.055609
839.143	0.056979
848.788	0.037789
858.433	0.020259
868.078	0.013189
877.722	0.014479
887.367	0.024779
897.012	0.042649
906.657	0.052069
916.301	0.042039
925.946	0.026749
935.591	0.015639
945.236	0.011109
954.88	0.010269
964.525	0.012529
974.17	0.017229
983.815	0.021869
993.46	0.021229
1003.1	0.020779
1012.75	0.024279
1022.39	0.037129
1032.04	0.055679
1041.68	0.069299
1051.33	0.063679
1060.97	0.040739
1070.62	0.025209
1080.26	0.022079
1089.91	0.029359
1099.55	0.031199
1109.2	0.031919
1118.84	0.029019
1128.49	0.019859
1138.13	0.014929
1147.78	0.016719
1157.42	0.029059
1167.07	0.081939
1176.71	0.084819
1186.36	0.029019
1196	0.023029
1205.64	0.035169
1215.29	0.067019
1224.93	0.144199
1234.58	0.268589
1244.22	0.303859
1253.87	0.198119
1263.51	0.087819
1273.16	0.064959
1282.8	0.067739
1292.45	0.060299
1302.09	0.054919
1311.74	0.040349
1321.38	0.024799
1331.03	0.015029
1340.67	0.010749
1350.32	0.009639
1359.96	0.010609
1369.61	0.012619
1379.25	0.018449
1388.9	0.033659
1398.54	0.041749
1408.18	0.027409
1417.83	0.016419
1427.47	0.013229
1437.12	0.012459
1446.76	0.012519
1456.41	0.013019
1466.05	0.015969
1475.7	0.033269
1485.34	0.045119
1494.99	0.071989
1504.63	0.219569
1514.28	0.195439
1523.92	0.036289
1533.57	0.015119
1543.21	0.012259
1552.86	0.012739
1562.5	0.016099
1572.15	0.021799
1581.79	0.026259
1591.44	0.044589
1601.08	0.084499
1610.73	0.090149
1620.37	0.056929
1630.01	0.045109
1639.66	0.026569
1649.3	0.011989
1658.95	0.007509
1668.59	0.005639
1678.24	0.004369
1687.88	0.003469
1697.53	0.003049
1707.17	0.002879
1716.82	0.003049
1726.46	0.003239
1736.11	0.003369
1745.75	0.003949
1755.4	0.004059
1765.04	0.003049
1774.69	0.002599
1784.33	0.002829
1793.98	0.003909
1803.62	0.007129
1813.27	0.008899
1822.91	0.006329
1832.55	0.004019
1842.2	0.003409
1851.84	0.003609
1861.49	0.004389
1871.13	0.005379
1880.78	0.005459
1890.42	0.004619
1900.07	0.003489
1909.71	0.003029
1919.36	0.003069
1929	0.003719
1938.65	0.004179
1948.29	0.004219
1957.94	0.004209
1967.58	0.004279
1977.23	0.003949
1986.87	0.003369
1996.52	0.003109
2006.16	0.002859
2015.81	0.002549
2025.45	0.002469
2035.1	0.002499
2044.74	0.002929
2054.38	0.003139
2064.03	0.003289
2073.67	0.003199
2083.32	0.002689
2092.96	0.002219
2102.61	0.002039
2112.25	0.001729
2121.9	0.001569
2131.54	0.001449
2141.19	0.001449
2150.83	0.0012251
2160.48	0.0012099
2170.12	0.0009938
2179.77	0.000919
2189.41	0.0010455
2199.06	0.0011231
2208.7	0.0011816
2218.35	0.0011448
2227.99	0.0012103
2237.64	0.0010101
2247.28	0.0008762
2256.92	0.0009966
2266.57	0.0011221
2276.21	0.001309
2285.86	0.001439
2295.5	0.001619
2305.15	0.001659
2314.79	0.001719
2324.44	0.001649
2334.08	0.001769
2343.73	0.001439
2353.37	0.001309
2363.02	0.001104
2372.66	0.0011444
2382.31	0.0012466
2391.95	0.001629
2401.6	0.002149
2411.24	0.002449
2420.89	0.002509
2430.53	0.002479
2440.18	0.002289
2449.82	0.002429
2459.47	0.002639
2469.11	0.002959
2478.75	0.002939
2488.4	0.002809
2498.04	0.002689
2507.69	0.002759
2517.33	0.003069
2526.98	0.003359
2536.62	0.003449
2546.27	0.003149
2555.91	0.002349
2565.56	0.001919
2575.2	0.001619
2584.85	0.001499
2594.49	0.001349
2604.14	0.0012914
2613.78	0.0012642
2623.43	0.0012781
2633.07	0.0011923
2642.72	0.0009346
2652.36	0.001099
2662.01	0.0008499
2671.65	0.0010549
2681.29	0.0011004
2690.94	0.0011391
2700.58	0.001339
2710.23	0.001519
2719.87	0.002079
2729.52	0.002599
2739.16	0.002739
2748.81	0.002869
2758.45	0.002989
2768.1	0.002979
2777.74	0.003179
2787.39	0.003399
2797.03	0.003539
2806.68	0.003639
2816.32	0.004409
2825.97	0.005169
2835.61	0.005899
2845.26	0.006999
2854.9	0.009199
2864.55	0.013319
2874.19	0.020449
2883.84	0.027189
2893.48	0.029199
2903.12	0.031469
2912.77	0.032519
2922.41	0.031179
2932.06	0.034119
2941.7	0.041249
2951.35	0.035919
2960.99	0.031009
2970.64	0.040709
2980.28	0.059159
2989.93	0.064539
2999.57	0.049469
3009.22	0.045009
3018.86	0.037479
3028.51	0.028939
3038.15	0.033529
3047.8	0.029749
3057.44	0.021539
3067.09	0.020639
3076.73	0.023399
3086.38	0.031459
3096.02	0.036439
3105.67	0.018569
3115.31	0.009369
3124.95	0.006269
3134.6	0.004199
3144.24	0.002819
3153.89	0.002299
3163.53	0.001999
3173.18	0.001499
3182.82	0.001559
3192.47	0.001429
3202.11	0.001739
3211.76	0.001539
3221.4	0.001389
3231.05	0.001137
3240.69	0.0010056
3250.34	0.0010617
3259.98	0.0008141
3269.63	0.0004451
3279.27	0.000673
3288.92	0.0005555
3298.56	0.0007862
3308.21	0.0007319
3317.85	0.0004398
3327.49	0.0002948
3337.14	0.0006076
3346.78	0.00038184
3356.43	0.0005837
3366.07	0.00037136
3375.72	0.00038856
3385.36	0.00034287
3395.01	0.0004345
3404.65	0.0005487
3414.3	0.000123
3423.94	0.00039123
3433.59	0.000219
3443.23	0.00035469
3452.88	0.00032478
3462.52	0.0005384
3472.17	0.0002018
3481.81	0.000132
3491.46	0.0004284
3501.1	0.000182
3510.75	0.0002177
3520.39	0.0002794
3530.04	0.0003463
3539.68	0.00017
3549.32	0.00038725
3558.97	0.00032054
3568.61	0.00039494
3578.26	0.00034642
3587.9	0.000299684
3597.55	0.000224
3607.19	0.00029691
3616.84	0.0002413
3626.48	0.00039344
3636.13	0.00038627
3645.77	0.0004111
3655.42	0.000541
3665.06	0.0005353
3674.71	0.000301513
3684.35	0.0005506
3694	0.0006465
3703.64	0.0004458
3713.29	0.0004251
3722.93	0.0005469
3732.58	0.00038729
3742.22	0.00033248
3751.86	0.000404
3761.51	0.000525
3771.15	0.0005061
3780.8	0.0004636
3790.44	0
3800.09	0.0005787
3809.73	0.0002711
3819.38	0.0004496
3829.02	0.0006808
3838.67	0.0003996
3848.31	0.0005322
3857.96	0.0004475
3867.6	0.0004743
3877.25	0.000211
3886.89	0.0003633
3896.54	0.0004696
3906.18	0.0003902
3915.83	0.0004319
3925.47	0.0005664
3935.12	0.00032665
3944.76	0.0004242
3954.41	0.00038921
3964.05	0.0005002
3973.69	0.0004657
3983.34	0.0009106
3992.98	0.0006592
