Infrared Spectrum: 2,4-DIAMINO TOLUENE HYDROCHLORIDE
Formula: C7 H11 Cl N2
CAS: 5459-85-8
State: SOLID (MINERAL OIL MULL)
Class: COBLENTZ
Instrument: Not specified, most likely a prism, grating, or hybrid spectrometer.
Sampling: TRANSMISSION
Resolution: 4
Origin: DOW CHEMICAL COMPANY
MICROMETERS	TRANSMITTANCE
2.021	0.601
2.06218	0.606
2.10335	0.616
2.14453	0.629
2.1857	0.633
2.22688	0.638
2.26805	0.638
2.30923	0.634
2.3504	0.646
2.39158	0.663
2.43275	0.668
2.47393	0.696
2.5151	0.709
2.55628	0.726
2.59745	0.733
2.63863	0.75
2.67981	0.758
2.72098	0.77
2.76216	0.784
2.80333	0.794
2.84451	0.758
2.88568	0.572
2.92686	0.696
2.96803	0.424
3.00921	0.633
3.05038	0.738
3.09156	0.696
3.13273	0.704
3.17391	0.694
3.21508	0.655
3.25626	0.59
3.29744	0.509
3.33861	0.324
3.37979	0.096
3.42096	0.023
3.46214	0.028
3.50331	0.032
3.54449	0.098
3.58566	0.263
3.62684	0.373
3.66801	0.409
3.70919	0.47
3.75036	0.502
3.79154	0.449
3.83271	0.269
3.87389	0.376
3.91507	0.512
3.95624	0.609
3.99742	0.702
4.03859	0.743
4.07977	0.76
4.12094	0.787
4.16212	0.799
4.20329	0.806
4.24447	0.809
4.28564	0.814
4.32682	0.813
4.36799	0.813
4.40917	0.85
4.45034	0.853
4.49152	0.857
4.5327	0.864
4.57387	0.862
4.61505	0.859
4.65622	0.87
4.6974	0.877
4.73857	0.884
4.77975	0.886
4.82092	0.881
4.8621	0.896
4.90327	0.864
4.94445	0.833
4.98562	0.784
5.0268	0.707
5.06797	0.731
5.10915	0.806
5.15033	0.843
5.1915	0.869
5.23268	0.886
5.27385	0.899
5.31503	0.899
5.3562	0.899
5.39738	0.906
5.43855	0.91
5.47973	0.926
5.5209	0.945
5.56208	0.95
5.60325	0.954
5.64443	0.955
5.6856	0.957
5.72678	0.954
5.76796	0.949
5.80913	0.943
5.85031	0.942
5.89148	0.938
5.93266	0.896
5.97383	0.857
6.01501	0.828
6.05618	0.697
6.09736	0.366
6.13853	0.28
6.17971	0.504
6.22088	0.645
6.26206	0.691
6.30323	0.56
6.34441	0.49
6.38559	0.748
6.42676	0.831
6.46794	0.84
6.50911	0.779
6.55029	0.682
6.59146	0.509
6.63264	0.361
6.67381	0.278
6.71499	0.606
6.75616	0.585
6.79734	0.281
6.83851	0.212
6.87969	0.331
6.92086	0.421
6.96204	0.565
7.00322	0.758
7.04439	0.803
7.08557	0.811
7.12674	0.799
7.16792	0.675
7.20909	0.563
7.25027	0.521
7.29144	0.582
7.33262	0.719
7.37379	0.792
7.41497	0.799
7.45614	0.789
7.49732	0.701
7.53849	0.66
7.57967	0.64
7.62085	0.572
7.66202	0.741
7.7032	0.78
7.74437	0.782
7.78555	0.825
7.82672	0.85
7.8679	0.86
7.90907	0.869
7.95025	0.87
7.99142	0.87
8.0326	0.876
8.07377	0.886
8.11495	0.893
8.15612	0.893
8.1973	0.893
8.23848	0.85
8.27965	0.838
8.32083	0.845
8.362	0.862
8.40318	0.87
8.44435	0.87
8.48553	0.855
8.5267	0.784
8.56788	0.716
8.60905	0.767
8.65023	0.794
8.6914	0.648
8.73258	0.539
8.77375	0.609
8.81493	0.701
8.85611	0.845
8.89728	0.86
8.93846	0.877
8.97963	0.881
9.02081	0.887
9.06198	0.891
9.10316	0.889
9.14433	0.83
9.18551	0.735
9.22668	0.665
9.26786	0.764
9.30903	0.833
9.35021	0.85
9.39138	0.857
9.43256	0.867
9.47374	0.867
9.51491	0.862
9.55609	0.853
9.59726	0.845
9.63844	0.848
9.67961	0.865
9.72079	0.879
9.76196	0.882
9.80314	0.887
9.84431	0.889
9.88549	0.874
9.92666	0.803
9.96784	0.674
10.009	0.658
10.0502	0.808
10.0914	0.847
10.1325	0.855
10.1737	0.86
10.2149	0.862
10.2561	0.864
10.2972	0.865
10.3384	0.865
10.3796	0.862
10.4208	0.825
10.4619	0.83
10.5031	0.816
10.5443	0.826
10.5855	0.842
10.6266	0.825
10.6678	0.791
10.709	0.806
10.7502	0.85
10.7913	0.859
10.8325	0.867
10.8737	0.86
10.9149	0.86
10.956	0.879
10.9972	0.884
11.0384	0.887
11.0796	0.891
11.1207	0.891
11.1619	0.887
11.2031	0.882
11.2443	0.877
11.2854	0.879
11.3266	0.881
11.3678	0.879
11.409	0.877
11.4502	0.874
11.4913	0.876
11.5325	0.879
11.5737	0.877
11.6149	0.874
11.656	0.869
11.6972	0.86
11.7384	0.843
11.7796	0.784
11.8207	0.657
11.8619	0.59
11.9031	0.724
11.9443	0.809
11.9854	0.83
12.0266	0.842
12.0678	0.848
12.109	0.852
12.1501	0.852
12.1913	0.843
12.2325	0.842
12.2737	0.84
12.3148	0.833
12.356	0.825
12.3972	0.804
12.4384	0.789
12.4795	0.736
12.5207	0.59
12.5619	0.376
12.6031	0.419
12.6442	0.646
12.6854	0.747
12.7266	0.78
12.7678	0.791
12.8089	0.799
12.8501	0.801
12.8913	0.799
12.9325	0.794
12.9736	0.787
13.0148	0.782
13.056	0.779
13.0972	0.779
13.1383	0.775
13.1795	0.774
13.2207	0.775
13.2619	0.777
13.303	0.777
13.3442	0.775
13.3854	0.762
13.4266	0.758
13.4677	0.753
13.5089	0.743
13.5501	0.738
13.5913	0.733
13.6324	0.731
13.6736	0.73
13.7148	0.706
13.756	0.68
13.7971	0.657
13.8383	0.64
13.8795	0.643
13.9207	0.657
13.9618	0.662
14.003	0.662
14.0442	0.668
14.0854	0.692
14.1265	0.699
14.1677	0.704
14.2089	0.702
14.2501	0.701
14.2912	0.701
14.3324	0.697
14.3736	0.697
14.4148	0.694
14.456	0.685
14.4971	0.684
14.5383	0.682
14.5795	0.679
14.6207	0.675
14.6618	0.67
14.703	0.665
14.7442	0.658
14.7854	0.655
14.8265	0.651
14.8677	0.648
14.9089	0.64
14.9501	0.636
14.9912	0.631
15.0324	0.626
15.0736	0.624
15.1148	0.617
15.1559	0.612
15.1971	0.607
15.2383	0.602
15.2795	0.599
15.3206	0.592
15.3618	0.584
15.403	0.578
15.4442	0.573
15.4853	0.568
15.5265	0.561
15.5677	0.556
15.6089	0.55
15.65	0.546
15.6912	0.539
15.7324	0.536
15.7736	0.533
15.8147	0.533
15.8559	0.529
15.8971	0.533
15.9383	0.538
15.9794	0.544
