Infrared Spectrum: Acrylic acid, 2-bromo-, ethyl ester
Formula: C5 H7 Br O2
CAS: 5459-35-8
State: LIQUID (NEAT)
Class: COBLENTZ III
Instrument: PERKIN-ELMER 21 (GRATING)
Instrument parameters: FILTER CHANGE ABOUT 1085 CM^-^1
Path length: CAPILLARY
Resolution: 2
Origin: SOUTHERN RESEARCH INSTITUTE
1/CM	TRANSMITTANCE
604	0.52
612.025	0.5284
620.05	0.526
628.075	0.5172
636.1	0.5075
644.125	0.4987
652.15	0.48
660.175	0.4489
668.2	0.4557
676.225	0.5259
684.25	0.5485
692.275	0.5367
700.3	0.421
708.325	0.4008
716.35	0.449
724.375	0.4554
732.401	0.5451
740.426	0.5759
748.451	0.6209
756.476	0.6602
764.501	0.6882
772.526	0.6846
780.551	0.6722
788.576	0.6324
796.601	0.2802
804.626	0.4905
812.651	0.6851
820.676	0.7079
828.701	0.7168
836.726	0.7161
844.751	0.7026
852.776	0.6739
860.801	0.5877
868.826	0.5071
876.851	0.6665
884.876	0.6926
892.901	0.6859
900.926	0.6678
908.951	0.6461
916.976	0.6219
925.001	0.5913
933.026	0.4225
941.051	0.324
949.076	0.3986
957.101	0.537
965.126	0.6302
973.151	0.6706
981.176	0.6755
989.202	0.6696
997.227	0.6515
1005.25	0.6052
1013.28	0.4616
1021.3	0.2899
1029.33	0.3258
1037.35	0.4491
1045.38	0.5697
1053.4	0.6054
1061.43	0.611
1069.45	0.5901
1077.48	0.5602
1085.5	0.4584
1093.53	0.2537
1101.55	0.0392
1109.58	0.0534
1117.6	0.0978
1125.63	0.2214
1133.65	0.3528
1141.68	0.4544
1149.7	0.5154
1157.73	0.5397
1165.75	0.5439
1173.78	0.5306
1181.8	0.5159
1189.83	0.6037
1197.85	0.6102
1205.88	0.6003
1213.9	0.5784
1221.93	0.5637
1229.95	0.5296
1237.98	0.3651
1246	0.2117
1254.03	0.0533
1262.05	0.031
1270.08	0.0532
1278.1	0.1317
1286.13	0.224
1294.15	0.3102
1302.18	0.3089
1310.2	0.4027
1318.23	0.5072
1326.25	0.5519
1334.28	0.5786
1342.3	0.6067
1350.33	0.6196
1358.35	0.6211
1366.38	0.587
1374.4	0.5014
1382.43	0.3211
1390.45	0.1787
1398.48	0.2909
1406.5	0.3073
1414.53	0.5123
1422.55	0.5974
1430.58	0.6232
1438.6	0.6137
1446.63	0.5759
1454.65	0.4635
1462.68	0.4892
1470.7	0.4728
1478.73	0.4813
1486.75	0.5203
1494.78	0.6463
1502.8	0.6581
1510.83	0.6858
1518.85	0.7008
1526.88	0.704
1534.9	0.7083
1542.93	0.7161
1550.95	0.7164
1558.98	0.7042
1567	0.6966
1575.03	0.677
1583.05	0.6377
1591.08	0.5621
1599.1	0.4863
1607.13	0.3546
1615.15	0.4303
1623.18	0.4608
1631.2	0.5887
1639.23	0.6606
1647.25	0.6656
1655.28	0.6795
1663.3	0.6785
1671.33	0.6676
1679.35	0.6381
1687.38	0.5973
1695.4	0.5537
1703.43	0.4667
1711.45	0.3444
1719.48	0.0715
1727.5	0.0559
1735.53	0.0708
1743.55	0.1399
1751.58	0.4149
1759.6	0.5596
1767.63	0.6284
1775.65	0.6543
1783.68	0.6609
1791.7	0.67
1799.73	0.6789
1807.75	0.6861
1815.78	0.6923
1823.8	0.6959
1831.83	0.7024
1839.85	0.7058
1847.88	0.7069
1855.9	0.7034
1863.93	0.6981
1871.95	0.6921
1879.98	0.6928
1888.01	0.6953
1896.03	0.6992
1904.06	0.707
1912.08	0.7129
1920.11	0.7169
1928.13	0.721
1936.16	0.718
1944.18	0.718
1952.21	0.7219
1960.23	0.7162
1968.26	0.7145
1976.28	0.7166
1984.31	0.7202
1992.33	0.7236
2000.36	0.7192
2008.38	0.7124
2016.41	0.7212
2024.43	0.724
2032.46	0.7239
2040.48	0.7229
2048.51	0.7227
2056.53	0.7232
2064.56	0.7174
2072.58	0.7249
2080.61	0.7345
2088.63	0.7226
2096.66	0.7227
2104.68	0.7218
2112.71	0.7192
2120.73	0.7171
2128.76	0.7136
2136.78	0.7126
2144.81	0.7178
2152.83	0.72
2160.86	0.7223
2168.88	0.7216
2176.91	0.7208
2184.93	0.7221
2192.96	0.7218
2200.98	0.7219
2209.01	0.7162
2217.03	0.7239
2225.06	0.7207
2233.08	0.7245
2241.11	0.7247
2249.13	0.7296
2257.16	0.7287
2265.18	0.7261
2273.21	0.724
2281.23	0.7282
2289.26	0.7249
2297.28	0.7258
2305.31	0.7284
2313.33	0.7309
2321.36	0.731
2329.38	0.7328
2337.41	0.7321
2345.43	0.7294
2353.46	0.7258
2361.48	0.7231
2369.51	0.7208
2377.53	0.723
2385.56	0.7211
2393.58	0.7177
2401.61	0.7221
2409.63	0.7257
2417.66	0.7301
2425.68	0.7357
2433.71	0.7376
2441.73	0.7332
2449.76	0.7275
2457.78	0.7368
2465.81	0.7365
2473.83	0.734
2481.86	0.7318
2489.88	0.7298
2497.91	0.7282
2505.93	0.7281
2513.96	0.7265
2521.98	0.7252
2530.01	0.7273
2538.03	0.7311
2546.06	0.7316
2554.08	0.7317
2562.11	0.7383
2570.13	0.7392
2578.16	0.7393
2586.18	0.7399
2594.21	0.7401
2602.23	0.7372
2610.26	0.7342
2618.28	0.7337
2626.31	0.7355
2634.33	0.7302
2642.36	0.7324
2650.38	0.732
2658.41	0.7289
2666.43	0.7353
2674.46	0.7344
2682.48	0.7358
2690.51	0.7363
2698.53	0.7349
2706.56	0.7281
2714.58	0.7246
2722.61	0.7215
2730.63	0.7202
2738.66	0.7252
2746.68	0.7276
2754.71	0.7259
2762.73	0.7244
2770.76	0.7233
2778.78	0.7225
2786.81	0.727
2794.83	0.7243
2802.86	0.7162
2810.88	0.7155
2818.91	0.7098
2826.93	0.7064
2834.96	0.7034
2842.98	0.689
2851.01	0.6751
2859.03	0.6642
2867.06	0.6515
2875.08	0.6467
2883.11	0.6464
2891.13	0.6457
2899.16	0.642
2907.18	0.6228
2915.21	0.6129
2923.23	0.6094
2931.26	0.5859
2939.28	0.5683
2947.31	0.5605
2955.33	0.5494
2963.36	0.5193
2971.38	0.4728
2979.41	0.4381
2987.43	0.4284
2995.46	0.467
3003.48	0.5305
3011.51	0.5638
3019.53	0.6088
3027.56	0.6383
3035.58	0.6428
3043.61	0.6515
3051.63	0.6659
3059.66	0.6801
3067.68	0.6908
3075.71	0.6927
3083.73	0.6933
3091.76	0.6881
3099.78	0.6816
3107.81	0.6773
3115.83	0.6707
3123.86	0.6623
3131.88	0.6905
3139.91	0.6956
3147.93	0.6972
3155.96	0.6939
3163.98	0.6969
3172.01	0.7036
3180.04	0.7013
3188.06	0.697
3196.09	0.696
3204.11	0.6969
3212.14	0.7069
3220.16	0.7076
3228.19	0.7076
3236.21	0.709
3244.24	0.7095
3252.26	0.7091
3260.29	0.7092
3268.31	0.7099
3276.34	0.7101
3284.36	0.7098
3292.39	0.7091
3300.41	0.7046
3308.44	0.7027
3316.46	0.7032
3324.49	0.7031
3332.51	0.7029
3340.54	0.7
3348.56	0.7007
3356.59	0.7012
3364.61	0.703
3372.64	0.7033
3380.66	0.7
3388.69	0.6961
3396.71	0.6943
3404.74	0.6858
3412.76	0.6855
3420.79	0.6843
3428.81	0.6781
3436.84	0.6748
3444.86	0.6738
3452.89	0.6801
3460.91	0.6781
3468.94	0.6772
3476.96	0.6846
3484.99	0.683
3493.01	0.6822
3501.04	0.6792
3509.06	0.6702
3517.09	0.6696
3525.11	0.667
3533.14	0.6606
3541.16	0.6561
3549.19	0.6492
3557.21	0.6469
3565.24	0.6475
3573.26	0.6501
3581.29	0.6555
3589.31	0.663
3597.34	0.6705
3605.36	0.6766
3613.39	0.68
3621.41	0.6794
3629.44	0.6902
3637.46	0.6949
3645.49	0.6991
3653.51	0.7025
3661.54	0.7049
3669.56	0.7114
3677.59	0.7126
3685.61	0.7109
3693.64	0.7078
3701.66	0.706
3709.69	0.7064
3717.71	0.7118
3725.74	0.7116
3733.76	0.7075
3741.79	0.7086
3749.81	0.7148
3757.84	0.7144
3765.86	0.715
3773.89	0.7171
3781.91	0.7152
3789.94	0.7081
3797.96	0.7085
3805.99	0.7113
