Infrared Spectrum: 2-(Hexylamino)ethanol
Formula: C 8 H 19 N O
CAS: 54596-69-9
State: gas
Origin: EPA-IR VAPOR PHASE LIBRARY
1/CM	ABSORBANCE
549.8	0.0022633
559.445	0.0022333
569.09	0.0017333
578.734	0.0020333
588.379	0.0015333
598.024	0.0017933
607.669	0.0018033
617.313	0.0020133
626.958	0.0024533
636.603	0.0027633
646.248	0.0030133
655.893	0.0035833
665.537	0.0040433
675.182	0.0046333
684.827	0.0050733
694.472	0.0053333
704.116	0.0056533
713.761	0.0061133
723.406	0.0060133
733.051	0.0055533
742.695	0.0046833
752.34	0.0041833
761.985	0.0035433
771.63	0.0030533
781.275	0.0023333
790.919	0.0021533
800.564	0.0018733
810.209	0.0016033
819.854	0.0018433
829.498	0.0018633
839.143	0.0021233
848.788	0.0025233
858.433	0.0030133
868.078	0.0038333
877.722	0.0038333
887.367	0.0035133
897.012	0.0033833
906.657	0.0028033
916.301	0.0027833
925.946	0.0024133
935.591	0.0025033
945.236	0.0023633
954.88	0.0024333
964.525	0.0027233
974.17	0.0030533
983.815	0.0034733
993.46	0.0044333
1003.1	0.0059233
1012.75	0.0076333
1022.39	0.0102833
1032.04	0.0138633
1041.68	0.0169033
1051.33	0.0191033
1060.97	0.0187333
1070.62	0.0155733
1080.26	0.0102133
1089.91	0.0069333
1099.55	0.0059833
1109.2	0.0072133
1118.84	0.0085733
1128.49	0.0123133
1138.13	0.0140233
1147.78	0.0096633
1157.42	0.0061433
1167.07	0.0046133
1176.71	0.0046433
1186.36	0.0048933
1196	0.0047433
1205.64	0.0049833
1215.29	0.0048933
1224.93	0.0048033
1234.58	0.0043433
1244.22	0.0041133
1253.87	0.0042733
1263.51	0.0039133
1273.16	0.0042433
1282.8	0.0039233
1292.45	0.0040433
1302.09	0.0042333
1311.74	0.0044333
1321.38	0.0047933
1331.03	0.0058133
1340.67	0.0073233
1350.32	0.0080733
1359.96	0.0074033
1369.61	0.0066833
1379.25	0.0067933
1388.9	0.0070033
1398.54	0.0068533
1408.18	0.0062633
1417.83	0.0052633
1427.47	0.0051833
1437.12	0.0066233
1446.76	0.0095733
1456.41	0.0135233
1466.05	0.0137033
1475.7	0.0092033
1485.34	0.0050533
1494.99	0.0028033
1504.63	0.0019033
1514.28	0.0014633
1523.92	0.0010733
1533.57	0.0008721
1543.21	0.0007875
1552.86	0.0006817
1562.5	0.0005952
1572.15	0.0006232
1581.79	0.0006048
1591.44	0.0004897
1601.08	0.0004312
1610.73	0.0004409
1620.37	0.0004474
1630.01	0.0003938
1639.66	0.0003879
1649.3	0.0004301
1658.95	0.0004276
1668.59	0.000472
1678.24	0.0004025
1687.88	0.0003382
1697.53	0.0003016
1707.17	0.0004323
1716.82	0.0004494
1726.46	0.0005053
1736.11	0.0004434
1745.75	0.0004263
1755.4	0.0003921
1765.04	0.000406
1774.69	0.0003029
1784.33	0.0003054
1793.98	0.0003452
1803.62	0.0003969
1813.27	0.0003727
1822.91	0.0003653
1832.55	0.0003694
1842.2	0.0004316
1851.84	0.0003727
1861.49	0.0003518
1871.13	0.0003112
1880.78	0.0003739
1890.42	0.0003864
1900.07	0.0003335
1909.71	0.0003805
1919.36	0.0003693
1929	0.0003678
1938.65	0.0003703
1948.29	0.0003124
1957.94	0.0002946
1967.58	0.0003765
1977.23	0.000312
1986.87	0.0003083
1996.52	0.0001997
2006.16	0.0002816
2015.81	0.0003279
2025.45	0.0003597
2035.1	0.0002952
2044.74	0.0003515
2054.38	0.0003578
2064.03	0.000367
2073.67	0.0003734
2083.32	0.0002838
2092.96	0.0003433
2102.61	0.0003586
2112.25	0.0003544
2121.9	0.0003018
2131.54	0.0003446
2141.19	0.000369
2150.83	0.0003282
2160.48	0.0003459
2170.12	0.0002685
2179.77	0.0002352
2189.41	0.0002404
2199.06	0.0002733
2208.7	0.0002729
2218.35	0.000345
2227.99	0.0002691
2237.64	0.0001947
2247.28	0.000264
2256.92	0.0002981
2266.57	0.0002614
2276.21	0.0003136
2285.86	0.0002336
2295.5	0.0002916
2305.15	0.0003516
2314.79	0.0003805
2324.44	0.0003621
2334.08	0.0003502
2343.73	0.0004282
2353.37	0.0004029
2363.02	0.0004088
2372.66	0.000304
2382.31	0.0003699
2391.95	0.0003575
2401.6	0.0002717
2411.24	0.0002346
2420.89	0.0002505
2430.53	0.0002995
2440.18	0.0003292
2449.82	0.0003526
2459.47	0.0003409
2469.11	0.0004135
2478.75	0.0003147
2488.4	0.0004543
2498.04	0.0003376
2507.69	0.0003553
2517.33	0.0003688
2526.98	0.0004841
2536.62	0.0004941
2546.27	0.0005487
2555.91	0.0005554
2565.56	0.0005621
2575.2	0.0008041
2584.85	0.0006442
2594.49	0.0008534
2604.14	0.0008613
2613.78	0.0009096
2623.43	0.0011033
2633.07	0.0011633
2642.72	0.0013533
2652.36	0.0015933
2662.01	0.0018433
2671.65	0.0020033
2681.29	0.0022833
2690.94	0.0022833
2700.58	0.0026633
2710.23	0.0027333
2719.87	0.0029233
2729.52	0.0031833
2739.16	0.0035733
2748.81	0.0040533
2758.45	0.0042833
2768.1	0.0046233
2777.74	0.0055733
2787.39	0.0072933
2797.03	0.0095733
2806.68	0.0130433
2816.32	0.0170533
2825.97	0.0202333
2835.61	0.0213333
2845.26	0.0228733
2854.9	0.0281833
2864.55	0.0331733
2874.19	0.0334633
2883.84	0.0326033
2893.48	0.0308333
2903.12	0.0331333
2912.77	0.0421833
2922.41	0.0590233
2932.06	0.0740533
2941.7	0.0696933
2951.35	0.0514733
2960.99	0.0415133
2970.64	0.0351633
2980.28	0.0198533
2989.93	0.0102533
2999.57	0.0064333
3009.22	0.0043733
3018.86	0.0035033
3028.51	0.0026733
3038.15	0.0020633
3047.8	0.0018733
3057.44	0.0016233
3067.09	0.0012133
3076.73	0.0011533
3086.38	0.0011933
3096.02	0.0009116
3105.67	0.0009514
3115.31	0.0008307
3124.95	0.0006661
3134.6	0.0007121
3144.24	0.000382
3153.89	0.0005916
3163.53	0.0005723
3173.18	0.0002606
3182.82	0.0003723
3192.47	0.0004951
3202.11	0.0003772
3211.76	0.0002396
3221.4	0.000364
3231.05	0.0003332
3240.69	0.0003779
3250.34	0.000217
3259.98	0.0003151
3269.63	0.0001924
3279.27	0.0002608
3288.92	0.0001999
3298.56	0.0002584
3308.21	0.0004282
3317.85	0.0002257
3327.49	0.0002463
3337.14	0.0004004
3346.78	0.000417
3356.43	0.0003692
3366.07	0.0003802
3375.72	0.0005348
3385.36	0.0005429
3395.01	0.0005599
3404.65	0.0005525
3414.3	0.0006643
3423.94	0.0005778
3433.59	0.0006621
3443.23	0.0004684
3452.88	0.0007934
3462.52	0.0006893
3472.17	0.0005856
3481.81	0.0007504
3491.46	0.0007071
3501.1	0.0006807
3510.75	0.0007451
3520.39	0.0009118
3530.04	0.0012833
3539.68	0.0018133
3549.32	0.0022033
3558.97	0.0027433
3568.61	0.0026633
3578.26	0.0023133
3587.9	0.0017733
3597.55	0.0013633
3607.19	0.0011233
3616.84	0.0011633
3626.48	0.0010333
3636.13	0.0012033
3645.77	0.0015733
3655.42	0.0021433
3665.06	0.0026333
3674.71	0.0027433
3684.35	0.0022033
3694	0.0013333
3703.64	0.0008694
3713.29	0.0004753
3722.93	0.0005543
3732.58	0.000457
3742.22	0.0005063
3751.86	0.0005379
3761.51	0.0003911
3771.15	0.0003079
3780.8	0.0003421
3790.44	0.0002936
3800.09	0.0003737
3809.73	0.0002983
3819.38	0.0003572
3829.02	0.00010414
3838.67	0.0002704
3848.31	0.0001412
3857.96	0.0004162
3867.6	0.0003626
3877.25	0.0002278
3886.89	0.0002283
3896.54	0.0002959
3906.18	0.0001797
3915.83	0.0003035
3925.47	2.689e-05
3935.12	0.0001669
3944.76	0.0002145
3954.41	0.0003706
3964.05	0.0003796
3973.69	0.0002575
3983.34	0.0003388
3992.98	0.0001758
