Infrared Spectrum: Trans-trimethyltriphenylcyclotrisiloxane
Formula: C21 H24 O3 Si3
CAS: 546-45-2
State: SOLUTION (10% CCl4 FOR 3800-1300, 2% CS2 FOR 1300-630, AND 10% CCl4 FOR 630-270) VS SOLVENT
Melting point: 39.5 C
Class: COBLENTZ II
Instrument: PERKIN-ELMER 521 (GRATING)
Instrument parameters: FILTERS AT 3150, 2500, 2000, 1150, 700, 410. GRATING CHANGES: 2000, 630
Path length: 0.011 CM, 0.012 CM, AND 0.011 CM
Resolution: 2
Origin: DOW CORNING CORP.
1/CM	TRANSMITTANCE
269	0.8312
278	0.8274
287	0.8144
296	0.8025
305	0.7822
314	0.7475
323	0.7149
332	0.643
341	0.644
350	0.6471
359	0.6489
368	0.6726
377	0.6845
386	0.6863
395	0.7606
404	0.6649
413	0.2783
422	0.5211
431	0.0896
440	0.3874
449	0.722
458	0.6889
467	0.5053
476	0.4039
485	0.1418
494	0.7049
503	0.8378
512	0.8497
521	0.8105
530	0.8975
539	0.919
548	0.9248
557	0.9268
566	0.9276
575	0.9264
584	0.9032
593	0.8681
602	0.8983
611	0.8677
620	0.8425
629	0.8651
638	0.7748
647	0.8492
656	0.8897
665	0.8865
674	0.8769
683	0.8189
692	0.5383
701	0.7187
710	0.8166
719	0.6713
728	0.484
737	0.7535
746	0.7206
755	0.8086
764	0.7571
773	0.6821
782	0.502
791	0.3306
800	0.7174
809	0.8101
818	0.8082
827	0.7585
836	0.7927
845	0.8401
854	0.8541
863	0.8655
872	0.8757
881	0.8838
890	0.8865
899	0.8865
908	0.8901
917	0.8915
926	0.8874
935	0.8822
944	0.8742
953	0.8587
962	0.8398
971	0.7923
980	0.7025
989	0.4435
998	0.5456
1007	0.0758
1016	0.0313
1025	0.4404
1034	0.435
1043	0.7584
1052	0.8074
1061	0.8207
1070	0.8417
1079	0.8438
1088	0.8405
1097	0.8266
1106	0.7632
1115	0.5626
1124	0.6525
1133	0.7946
1142	0.8624
1151	0.8744
1160	0.88
1169	0.8825
1178	0.8832
1187	0.8864
1196	0.8932
1205	0.8961
1214	0.8941
1223	0.8873
1232	0.8766
1241	0.8489
1250	0.6192
1259	0.777
1268	0.8761
1277	0.8938
1286	0.919
1295	0.879
1304	0.846
1313	0.8457
1322	0.8767
1331	0.8941
1340	0.9066
1349	0.899
1358	0.888
1367	0.8523
1376	0.8557
1385	0.8294
1394	0.7776
1403	0.7503
1412	0.7785
1421	0.685
1430	0.4839
1439	0.8672
1448	0.8841
1457	0.8845
1466	0.8866
1475	0.8864
1484	0.8012
1493	0.9271
1502	0.9376
1511	0.9391
1520	0.9382
1529	0.9373
1538	0.9344
1547	0.9269
1556	0.9157
1565	0.9037
1574	0.8695
1583	0.7794
1592	0.5291
1601	0.8265
1610	0.8239
1619	0.8587
1628	0.8813
1637	0.8802
1646	0.8675
1655	0.8764
1664	0.8895
1673	0.9108
1682	0.9148
1691	0.9159
1700	0.9168
1709	0.9177
1718	0.9194
1727	0.9223
1736	0.9221
1745	0.9209
1754	0.9015
1763	0.8838
1772	0.8878
1781	0.9029
1790	0.9081
1799	0.9025
1808	0.8748
1817	0.8419
1826	0.8869
1835	0.8982
1844	0.9116
1853	0.9126
1862	0.9092
1871	0.8926
1880	0.8443
1889	0.872
1898	0.8632
1907	0.915
1916	0.9258
1925	0.9242
1934	0.9154
1943	0.8923
1952	0.8436
1961	0.884
1970	0.8911
1979	0.9182
1988	0.9181
1997	0.9201
2006	0.944
2015	0.9448
2024	0.9445
2033	0.9444
2042	0.9446
2051	0.9449
2060	0.9452
2069	0.9456
2078	0.9461
2087	0.9464
2096	0.9462
2105	0.9458
2114	0.9455
2123	0.9449
2132	0.9443
2141	0.9437
2150	0.943
2159	0.9423
2168	0.9414
2177	0.9403
2186	0.939
2195	0.9374
2204	0.9358
2213	0.9349
2222	0.9342
2231	0.9337
2240	0.9333
2249	0.933
2258	0.9328
2267	0.9326
2276	0.9324
2285	0.9321
2294	0.9313
2303	0.9293
2312	0.9278
2321	0.927
2330	0.9262
2339	0.9259
2348	0.9256
2357	0.9253
2366	0.9253
2375	0.9253
2384	0.9253
2393	0.9253
2402	0.9253
2411	0.924
2420	0.9223
2429	0.9222
2438	0.923
2447	0.924
2456	0.9255
2465	0.9238
2474	0.9227
2483	0.9204
2492	0.9175
2501	0.9139
2510	0.913
2519	0.9121
2528	0.9113
2537	0.9104
2546	0.9094
2555	0.9083
2564	0.9073
2573	0.9065
2582	0.906
2591	0.9055
2600	0.9051
2609	0.9045
2618	0.9037
2627	0.9027
2636	0.9009
2645	0.8991
2654	0.8972
2663	0.8953
2672	0.8941
2681	0.8933
2690	0.8906
2699	0.8875
2708	0.8856
2717	0.8865
2726	0.8901
2735	0.8908
2744	0.8899
2753	0.8882
2762	0.8868
2771	0.8855
2780	0.8844
2789	0.8838
2798	0.8838
2807	0.8841
2816	0.884
2825	0.8839
2834	0.8835
2843	0.883
2852	0.8825
2861	0.8811
2870	0.8789
2879	0.8695
2888	0.8571
2897	0.8439
2906	0.8383
2915	0.8409
2924	0.8414
2933	0.8374
2942	0.8217
2951	0.7817
2960	0.6699
2969	0.5481
2978	0.6588
2987	0.7741
2996	0.7178
3005	0.6369
3014	0.6225
3023	0.6304
3032	0.6459
3041	0.6892
3050	0.6177
3059	0.5219
3068	0.603
3077	0.462
3086	0.7538
3095	0.7922
3104	0.8559
3113	0.8872
3122	0.8871
3131	0.8826
3140	0.8804
3149	0.9083
3158	0.9196
3167	0.9263
3176	0.9307
3185	0.9328
3194	0.9339
3203	0.9345
3212	0.935
3221	0.9352
3230	0.9357
3239	0.9362
3248	0.9367
3257	0.9371
3266	0.9377
3275	0.9383
3284	0.9392
3293	0.94
3302	0.9409
3311	0.9419
3320	0.9425
3329	0.9426
3338	0.9426
3347	0.9427
3356	0.9428
3365	0.943
3374	0.9431
3383	0.943
3392	0.9429
3401	0.9427
3410	0.9425
3419	0.9422
3428	0.9417
3437	0.941
3446	0.9404
3455	0.94
3464	0.94
3473	0.9399
3482	0.9399
3491	0.9401
3500	0.9408
3509	0.9415
3518	0.9418
3527	0.9417
3536	0.9414
3545	0.941
3554	0.9407
3563	0.941
3572	0.9413
3581	0.9411
3590	0.9396
3599	0.9352
3608	0.9316
3617	0.9299
3626	0.9289
3635	0.9282
3644	0.9283
3653	0.9291
3662	0.9302
3671	0.9259
3680	0.9237
3689	0.9234
3698	0.9237
3707	0.9241
3716	0.9251
3725	0.9254
3734	0.9254
3743	0.9255
3752	0.926
3761	0.9308
3770	0.9328
3779	0.9342
3788	0.9344
3797	0.9333
3806	0.9316
