Infrared Spectrum: OCTAPHENYLCYCLOTETRASILOXANE
Formula: C48 H40 O4 Si4
CAS: 546-56-5
State: SOLUTION (5% IN CCl4 FOR 3800-1275, 2% IN CS2 FOR 1275-600, AND 5% IN CCl4 FOR 600-220 CM^-^1)
Melting point: 202 C
Class: COBLENTZ III
Instrument: PERKIN-ELMER 521 (GRATING)
Instrument parameters: FILTERS AT 3150, 2500, 2000, 1150, 700, 410. GRATING CHANGES: 2000, 630 CM^-^1
Sampling: TRANSMISSION
Path length: 0.011 CM, 0.011 CM, AND 0.021 CM
Resolution: 2
Origin: DOW CORNING CORP.
1/CM	TRANSMITTANCE
213.474	0.865
222.847	0.864
232.22	0.855
241.594	0.844
250.967	0.846
260.34	0.834
269.713	0.837
279.086	0.821
288.459	0.815
297.833	0.783
307.206	0.779
316.579	0.812
325.952	0.847
335.325	0.847
344.698	0.833
354.072	0.829
363.445	0.818
372.818	0.758
382.191	0.611
391.564	0.523
400.937	0.414
410.311	0.423
419.684	0.557
429.057	0.663
438.43	0.658
447.803	0.63
457.176	0.595
466.55	0.531
475.923	0.382
485.296	0.104
494.669	0.103
504.042	0.243
513.416	0.25
522.789	0.175
532.162	0.101
541.535	0.547
550.908	0.779
560.281	0.857
569.655	0.902
579.028	0.907
588.401	0.907
597.774	0.907
607.147	0.909
616.52	0.904
625.894	0.909
635.267	0.855
644.64	0.835
654.013	0.867
663.386	0.851
672.759	0.835
682.133	0.805
691.506	0.312
700.879	0.5571
710.252	0.587
719.625	0.474
728.998	0.637
738.372	0.682
747.745	0.851
757.118	0.846
766.491	0.869
775.864	0.881
785.238	0.884
794.611	0.885
803.984	0.886
813.357	0.885
822.73	0.884
832.103	0.883
841.477	0.875
850.85	0.871
860.223	0.876
869.596	0.877
878.969	0.883
888.342	0.884
897.716	0.882
907.089	0.876
916.462	0.881
925.835	0.879
935.208	0.884
944.581	0.879
953.955	0.872
963.328	0.861
972.701	0.853
982.074	0.821
991.447	0.7439
1000.82	0.797
1010.19	0.756
1019.57	0.677
1028.94	0.726
1038.31	0.621
1047.69	0.41
1057.06	0.255
1066.43	0.202
1075.81	0.186
1085.18	0.22
1094.55	0.284
1103.93	0.395
1113.3	0.171
1122.67	0.229
1132.04	0.547
1141.42	0.777
1150.79	0.81
1160.16	0.836
1169.54	0.837
1178.91	0.82
1188.28	0.832
1197.66	0.856
1207.03	0.856
1216.4	0.86
1225.78	0.863
1235.15	0.863
1244.52	0.86
1253.9	0.855
1263.27	0.86
1272.64	0.872
1282.02	0.811
1291.39	0.806
1300.76	0.794
1310.14	0.821
1319.51	0.817
1328.88	0.828
1338.25	0.843
1347.63	0.844
1357	0.84
1366.37	0.832
1375.75	0.836
1385.12	0.85
1394.49	0.85
1403.87	0.846
1413.24	0.822
1422.61	0.4229
1431.99	0.4702
1441.36	0.846
1450.73	0.853
1460.11	0.856
1469.48	0.854
1478.85	0.833
1488.23	0.797
1497.6	0.86
1506.97	0.855
1516.34	0.851
1525.72	0.848
1535.09	0.843
1544.46	0.839
1553.84	0.84
1563.21	0.831
1572.58	0.836
1581.96	0.815
1591.33	0.5831
1600.7	0.85
1610.08	0.856
1619.45	0.871
1628.82	0.869
1638.2	0.863
1647.57	0.855
1656.94	0.848
1666.32	0.855
1675.69	0.872
1685.06	0.874
1694.44	0.874
1703.81	0.874
1713.18	0.876
1722.55	0.876
1731.93	0.876
1741.3	0.876
1750.67	0.879
1760.05	0.868
1769.42	0.863
1778.79	0.872
1788.17	0.878
1797.54	0.876
1806.91	0.869
1816.29	0.831
1825.66	0.846
1835.03	0.862
1844.41	0.876
1853.78	0.879
1863.15	0.879
1872.53	0.874
1881.9	0.84
1891.27	0.853
1900.65	0.862
1910.02	0.886
1919.39	0.89
1928.76	0.891
1938.14	0.89
1947.51	0.87
1956.88	0.843
1966.26	0.868
1975.63	0.876
1985	0.891
1994.38	0.896
2003.75	0.898
2013.12	0.899
2022.5	0.9002
2031.87	0.903
2041.24	0.905
2050.62	0.905
2059.99	0.905
2069.36	0.904
2078.74	0.904
2088.11	0.904
2097.48	0.904
2106.85	0.904
2116.23	0.904
2125.6	0.9023
2134.97	0.9
2144.35	0.902
2153.72	0.902
2163.09	0.902
2172.47	0.902
2181.84	0.903
2191.21	0.903
2200.59	0.903
2209.96	0.903
2219.33	0.9017
2228.71	0.9
2238.08	0.899
2247.45	0.897
2256.83	0.8994
2266.2	0.903
2275.57	0.903
2284.95	0.902
2294.32	0.902
2303.69	0.9
2313.06	0.898
2322.44	0.9
2331.81	0.9
2341.18	0.9
2350.56	0.9
2359.93	0.9
2369.3	0.902
2378.68	0.902
2388.05	0.902
2397.42	0.902
2406.8	0.9017
2416.17	0.899
2425.54	0.8983
2434.92	0.899
2444.29	0.8986
2453.66	0.898
2463.04	0.898
2472.41	0.901
2481.78	0.8994
2491.15	0.897
2500.53	0.898
2509.9	0.898
2519.27	0.896
2528.65	0.896
2538.02	0.896
2547.39	0.896
2556.77	0.896
2566.14	0.895
2575.51	0.893
2584.89	0.892
2594.26	0.892
2603.63	0.893
2613.01	0.895
2622.38	0.897
2631.75	0.897
2641.13	0.897
2650.5	0.897
2659.87	0.897
2669.25	0.897
2678.62	0.897
2687.99	0.896
2697.36	0.8936
2706.74	0.8912
2716.11	0.891
2725.48	0.8959
2734.86	0.898
2744.23	0.898
2753.6	0.898
2762.98	0.898
2772.35	0.897
2781.72	0.895
2791.1	0.893
2800.47	0.8917
2809.84	0.89
2819.22	0.889
2828.59	0.889
2837.96	0.889
2847.34	0.885
2856.71	0.885
2866.08	0.885
2875.45	0.884
2884.83	0.882
2894.2	0.8742
2903.57	0.877
2912.95	0.8753
2922.32	0.874
2931.69	0.885
2941.07	0.885
2950.44	0.881
2959.81	0.877
2969.19	0.8773
2978.56	0.8716
2987.93	0.8593
2997.31	0.8317
3006.68	0.7144
3016.05	0.7416
3025.43	0.7236
3034.8	0.764
3044.17	0.6704
3053.55	0.5818
3062.92	0.6768
3072.29	0.5554
3081.66	0.715
3091.04	0.7912
3100.41	0.8433
3109.78	0.8828
3119.16	0.8909
3128.53	0.891
3137.9	0.8601
3147.28	0.8951
3156.65	0.897
3166.02	0.897
3175.4	0.8958
3184.77	0.8953
3194.14	0.898
3203.52	0.9
3212.89	0.9
3222.26	0.9
3231.64	0.9
3241.01	0.9
3250.38	0.9
3259.76	0.9
3269.13	0.9
3278.5	0.9
3287.87	0.899
3297.25	0.899
3306.62	0.899
3315.99	0.897
3325.37	0.898
3334.74	0.8989
3344.11	0.899
3353.49	0.899
3362.86	0.898
3372.23	0.897
3381.61	0.8963
3390.98	0.897
3400.35	0.897
3409.73	0.897
3419.1	0.8955
3428.47	0.8986
3437.85	0.9
3447.22	0.9
3456.59	0.8993
3465.96	0.899
3475.34	0.8988
3484.71	0.899
3494.08	0.9
3503.46	0.902
3512.83	0.903
3522.2	0.904
3531.58	0.905
3540.95	0.906
3550.32	0.907
3559.7	0.909
3569.07	0.909
3578.44	0.907
3587.82	0.906
3597.19	0.908
3606.56	0.91
3615.94	0.9078
3625.31	0.906
3634.68	0.9057
3644.06	0.906
3653.43	0.906
3662.8	0.906
3672.17	0.906
3681.55	0.903
3690.92	0.903
3700.29	0.903
3709.67	0.903
3719.04	0.9051
3728.41	0.906
3737.79	0.9058
3747.16	0.9047
3756.53	0.904
3765.91	0.904
3775.28	0.9044
3784.65	0.906
