Infrared Spectrum: N-(2-Phenylethyl)phenylacetamide
Formula: C 16 H 17 N O
CAS: 5460-60-6
State: gas
Origin: EPA-IR VAPOR PHASE LIBRARY
1/CM	ABSORBANCE
549.8	0.002558
559.445	0.003348
569.09	0.004358
578.734	0.003378
588.379	0.002638
598.024	0.002398
607.669	0.002858
617.313	0.002988
626.958	0.003598
636.603	0.003318
646.248	0.003248
655.893	0.003428
665.537	0.004728
675.182	0.007518
684.827	0.013168
694.472	0.031108
704.116	0.033038
713.761	0.021638
723.406	0.016028
733.051	0.017008
742.695	0.019148
752.34	0.011278
761.985	0.006108
771.63	0.003608
781.275	0.002488
790.919	0.001958
800.564	0.002098
810.209	0.002658
819.854	0.002568
829.498	0.002308
839.143	0.002068
848.788	0.001928
858.433	0.001908
868.078	0.002018
877.722	0.002288
887.367	0.002158
897.012	0.002508
906.657	0.002688
916.301	0.002888
925.946	0.002908
935.591	0.002488
945.236	0.002198
954.88	0.002058
964.525	0.002128
974.17	0.002178
983.815	0.001998
993.46	0.001878
1003.1	0.002418
1012.75	0.002428
1022.39	0.005068
1032.04	0.007148
1041.68	0.003258
1051.33	0.002618
1060.97	0.002738
1070.62	0.003978
1080.26	0.004828
1089.91	0.003538
1099.55	0.003358
1109.2	0.003168
1118.84	0.003788
1128.49	0.005488
1138.13	0.008068
1147.78	0.009398
1157.42	0.009378
1167.07	0.008178
1176.71	0.008028
1186.36	0.008028
1196	0.008008
1205.64	0.008088
1215.29	0.009468
1224.93	0.012448
1234.58	0.015808
1244.22	0.017138
1253.87	0.017608
1263.51	0.017908
1273.16	0.014068
1282.8	0.010368
1292.45	0.008798
1302.09	0.008378
1311.74	0.007578
1321.38	0.006978
1331.03	0.006628
1340.67	0.006358
1350.32	0.005758
1359.96	0.006048
1369.61	0.005958
1379.25	0.004778
1388.9	0.004068
1398.54	0.003978
1408.18	0.004878
1417.83	0.006868
1427.47	0.011398
1437.12	0.015148
1446.76	0.017918
1456.41	0.019108
1466.05	0.020838
1475.7	0.028758
1485.34	0.049638
1494.99	0.078818
1504.63	0.070368
1514.28	0.043618
1523.92	0.022338
1533.57	0.012748
1543.21	0.008208
1552.86	0.005708
1562.5	0.004458
1572.15	0.004098
1581.79	0.004858
1591.44	0.006108
1601.08	0.007908
1610.73	0.005958
1620.37	0.003478
1630.01	0.003068
1639.66	0.003388
1649.3	0.004338
1658.95	0.006168
1668.59	0.008788
1678.24	0.013858
1687.88	0.026458
1697.53	0.066488
1707.17	0.106898
1716.82	0.057608
1726.46	0.024938
1736.11	0.013128
1745.75	0.007818
1755.4	0.004878
1765.04	0.003248
1774.69	0.002578
1784.33	0.002318
1793.98	0.002868
1803.62	0.002538
1813.27	0.001698
1822.91	0.001378
1832.55	0.001168
1842.2	0.001188
1851.84	0.001308
1861.49	0.001568
1871.13	0.001658
1880.78	0.001698
1890.42	0.001318
1900.07	0.0011091
1909.71	0.0010256
1919.36	0.0010794
1929	0.001588
1938.65	0.002318
1948.29	0.002338
1957.94	0.001918
1967.58	0.0010343
1977.23	0.0007351
1986.87	0.0006966
1996.52	0.0006569
2006.16	0.000578
2015.81	0.0004592
2025.45	0.0005339
2035.1	0.0004953
2044.74	0.0004491
2054.38	0.0004504
2064.03	0.0004679
2073.67	0.0005402
2083.32	0.0004527
2092.96	0.0004686
2102.61	0.00057
2112.25	0.0004829
2121.9	0.0003938
2131.54	0.0004106
2141.19	0.000426
2150.83	0.0003772
2160.48	0.0003901
2170.12	0.0004513
2179.77	0.0004837
2189.41	0.0004401
2199.06	0.0003794
2208.7	0.0004101
2218.35	0.0003807
2227.99	0.0003561
2237.64	0.0003722
2247.28	0.0004171
2256.92	0.0004384
2266.57	0.000443
2276.21	0.0004097
2285.86	0.0004636
2295.5	0.0004462
2305.15	0.0005212
2314.79	0.0005935
2324.44	0.0005564
2334.08	0.0006449
2343.73	0.0006966
2353.37	0.0005625
2363.02	0.0004864
2372.66	0.0003471
2382.31	0.0004042
2391.95	0.0003615
2401.6	0.0003718
2411.24	0.0004443
2420.89	0.0003983
2430.53	0.0004109
2440.18	0.000347
2449.82	0.0003896
2459.47	0.0003717
2469.11	0.0002803
2478.75	0.0003658
2488.4	0.0003136
2498.04	0.0003139
2507.69	0.0003017
2517.33	0.0002549
2526.98	0.000292
2536.62	0.0003299
2546.27	0.0003214
2555.91	0.0004066
2565.56	0.0003993
2575.2	0.0004229
2584.85	0.0005177
2594.49	0.0004176
2604.14	0.000407
2613.78	0.0004468
2623.43	0.0004522
2633.07	0.0006275
2642.72	0.0005666
2652.36	0.0005065
2662.01	0.0004419
2671.65	0.0005192
2681.29	0.000474
2690.94	0.000593
2700.58	0.0006956
2710.23	0.0007035
2719.87	0.0005845
2729.52	0.0005235
2739.16	0.0005781
2748.81	0.0005336
2758.45	0.0005311
2768.1	0.0005156
2777.74	0.0006637
2787.39	0.0007775
2797.03	0.0008953
2806.68	0.0009345
2816.32	0.001238
2825.97	0.001388
2835.61	0.001778
2845.26	0.002498
2854.9	0.004008
2864.55	0.004968
2874.19	0.005308
2883.84	0.005838
2893.48	0.006478
2903.12	0.007648
2912.77	0.009948
2922.41	0.014928
2932.06	0.017788
2941.7	0.015788
2951.35	0.013128
2960.99	0.010018
2970.64	0.007318
2980.28	0.005548
2989.93	0.004438
2999.57	0.004338
3009.22	0.006058
3018.86	0.010478
3028.51	0.019948
3038.15	0.019658
3047.8	0.011178
3057.44	0.011788
3067.09	0.020638
3076.73	0.019108
3086.38	0.012718
3096.02	0.008578
3105.67	0.005308
3115.31	0.003358
3124.95	0.001678
3134.6	0.0008479
3144.24	0.0007667
3153.89	0.0006433
3163.53	0.0006452
3173.18	0.0004313
3182.82	0.0004445
3192.47	0.00023731
3202.11	0.0003245
3211.76	0.0003362
3221.4	0.0002956
3231.05	0.00022858
3240.69	0.0003539
3250.34	0.0002546
3259.98	0.0002973
3269.63	0.0002731
3279.27	0.00021447
3288.92	0.0002641
3298.56	0.0003918
3308.21	0.0003038
3317.85	0.00017607
3327.49	0.0003484
3337.14	0.0002425
3346.78	0.0002861
3356.43	0.0003944
3366.07	0.0005552
3375.72	0.0008583
3385.36	0.001348
3395.01	0.001808
3404.65	0.001998
3414.3	0.002558
3423.94	0.003588
3433.59	0.005298
3443.23	0.007338
3452.88	0.007738
3462.52	0.005338
3472.17	0.003618
3481.81	0.001988
3491.46	0.001388
3501.1	0.0009322
3510.75	0.0007274
3520.39	0.0005478
3530.04	0.000315
3539.68	0.0003978
3549.32	0.0002481
3558.97	0.00019089
3568.61	0.000138952
3578.26	3e-05
3587.9	8.17e-05
3597.55	0.00022649
3607.19	0.00014851
3616.84	0.0003481
3626.48	0.0003785
3636.13	0.000341
3645.77	0.0003763
3655.42	0.0003532
3665.06	0.0003134
3674.71	0.0002819
3684.35	0.00021309
3694	0.0004799
3703.64	0.0003417
3713.29	0.000452
3722.93	0.0003146
3732.58	6.46e-05
3742.22	0.0003917
3751.86	0.0004405
3761.51	0.0003199
3771.15	0.0002609
3780.8	0.0003384
3790.44	0.000399
3800.09	0.0003129
3809.73	0.0004163
3819.38	0.0004919
3829.02	0.0004644
3838.67	0.0003389
3848.31	0.0003621
3857.96	0.0005031
3867.6	0.0001572
3877.25	0.0003469
3886.89	0.0003741
3896.54	0.0003627
3906.18	0.0003523
3915.83	0.0004054
3925.47	0.0002829
3935.12	0.0006305
3944.76	0.0002992
3954.41	0.0001818
3964.05	0.00023343
3973.69	0.00021904
3983.34	0.0002733
3992.98	0.0005308
