Infrared Spectrum: RHODANINE, 5-p-METHOXYBENZYLIDENE-
Formula: C11 H9 N O2 S2
CAS: 5462-97-5
State: SOLID (KBr PELLET)
Melting point: 248-250 C
Class: COBLENTZ
Instrument: Not specified, most likely a prism, grating, or hybrid spectrometer.
Sampling: TRANSMISSION
Resolution: 4
Origin: TENNESSEE EASTMAN COMPANY, RESEARCH LABORATORIES
MICROMETERS	TRANSMITTANCE
1.993	0.715
2.03407	0.712
2.07515	0.712
2.11622	0.715
2.15729	0.72
2.19837	0.731
2.23944	0.743
2.28052	0.751
2.32159	0.753
2.36266	0.758
2.40374	0.765
2.44481	0.77
2.48588	0.787
2.52696	0.792
2.56803	0.797
2.6091	0.799
2.65018	0.803
2.69125	0.808
2.73232	0.797
2.7734	0.741
2.81447	0.698
2.85555	0.666
2.89662	0.643
2.93769	0.645
2.97877	0.679
3.01984	0.715
3.06091	0.731
3.10199	0.732
3.14306	0.71
3.18413	0.614
3.22521	0.618
3.26628	0.592
3.30735	0.534
3.34843	0.614
3.3895	0.667
3.43058	0.676
3.47165	0.611
3.51272	0.64
3.5538	0.753
3.59487	0.777
3.63594	0.789
3.67702	0.813
3.71809	0.83
3.75916	0.842
3.80024	0.851
3.84131	0.857
3.88238	0.871
3.92346	0.876
3.96453	0.883
4.00561	0.89
4.04668	0.9
4.08775	0.907
4.12883	0.912
4.1699	0.919
4.21097	0.924
4.25205	0.929
4.29312	0.929
4.33419	0.928
4.37527	0.929
4.41634	0.931
4.45741	0.933
4.49849	0.934
4.53956	0.94
4.58064	0.94
4.62171	0.941
4.66278	0.941
4.70386	0.941
4.74493	0.943
4.786	0.943
4.82708	0.943
4.86815	0.926
4.90922	0.929
4.9503	0.931
4.99137	0.948
5.03245	0.952
5.07352	0.952
5.11459	0.948
5.15567	0.95
5.19674	0.95
5.23781	0.948
5.27889	0.938
5.31996	0.945
5.36103	0.946
5.40211	0.946
5.44318	0.946
5.48425	0.948
5.52533	0.922
5.5664	0.922
5.60748	0.926
5.64855	0.912
5.68962	0.852
5.7307	0.82
5.77177	0.756
5.81284	0.724
5.85392	0.633
5.89499	0.244
5.93606	0.316
5.97714	0.613
6.01821	0.731
6.05928	0.741
6.10036	0.731
6.14143	0.751
6.18251	0.717
6.22358	0.566
6.26465	0.14
6.30573	0.202
6.3468	0.239
6.38787	0.469
6.42895	0.76
6.47002	0.775
6.51109	0.803
6.55217	0.527
6.59324	0.443
6.63431	0.791
6.67539	0.823
6.71646	0.821
6.75754	0.787
6.79861	0.698
6.83968	0.395
6.88076	0.315
6.92183	0.506
6.9629	0.551
7.00398	0.578
7.04505	0.767
7.08612	0.827
7.1272	0.837
7.16827	0.844
7.20934	0.845
7.25042	0.847
7.29149	0.849
7.33257	0.845
7.37364	0.827
7.41471	0.76
7.45579	0.76
7.49686	0.773
7.53793	0.63
7.57901	0.616
7.62008	0.623
7.66115	0.684
7.70223	0.719
7.7433	0.77
7.78437	0.78
7.82545	0.676
7.86652	0.349
7.9076	0.087
7.94867	0.335
7.98974	0.376
8.03082	0.217
8.07189	0.493
8.11296	0.7
8.15404	0.715
8.19511	0.577
8.23618	0.344
8.27726	0.188
8.31833	0.203
8.35941	0.493
8.40048	0.573
8.44155	0.301
8.48263	0.101
8.5237	0.303
8.56477	0.571
8.60585	0.679
8.64692	0.738
8.68799	0.78
8.72907	0.811
8.77014	0.82
8.81121	0.801
8.85229	0.801
8.89336	0.813
8.93444	0.823
8.97551	0.828
9.01658	0.82
9.05766	0.825
9.09873	0.833
9.1398	0.833
9.18088	0.827
9.22195	0.758
9.26302	0.648
9.3041	0.645
9.34517	0.722
9.38624	0.773
9.42732	0.799
9.46839	0.804
9.50947	0.816
9.55054	0.827
9.59161	0.832
9.63269	0.825
9.67376	0.791
9.71483	0.714
9.75591	0.58
9.79698	0.313
9.83805	0.556
9.87913	0.746
9.9202	0.773
9.96127	0.82
10.0023	0.849
10.0434	0.854
10.0845	0.866
10.1256	0.871
10.1666	0.873
10.2077	0.878
10.2488	0.881
10.2899	0.881
10.3309	0.885
10.372	0.886
10.4131	0.886
10.4542	0.886
10.4952	0.886
10.5363	0.88
10.5774	0.869
10.6185	0.869
10.6595	0.878
10.7006	0.885
10.7417	0.886
10.7827	0.89
10.8238	0.892
10.8649	0.893
10.906	0.892
10.947	0.893
10.9881	0.861
11.0292	0.815
11.0703	0.856
11.1113	0.866
11.1524	0.873
11.1935	0.88
11.2346	0.88
11.2756	0.88
11.3167	0.88
11.3578	0.88
11.3989	0.88
11.4399	0.876
11.481	0.868
11.5221	0.847
11.5631	0.821
11.6042	0.813
11.6453	0.801
11.6864	0.773
11.7274	0.75
11.7685	0.707
11.8096	0.686
11.8507	0.684
11.8917	0.698
11.9328	0.714
11.9739	0.715
12.015	0.686
12.056	0.582
12.0971	0.448
12.1382	0.609
12.1792	0.804
12.2203	0.847
12.2614	0.857
12.3025	0.854
12.3435	0.854
12.3846	0.864
12.4257	0.869
12.4668	0.873
12.5078	0.885
12.5489	0.893
12.59	0.895
12.6311	0.893
12.6721	0.881
12.7132	0.803
12.7543	0.714
12.7954	0.763
12.8364	0.845
12.8775	0.878
12.9186	0.883
12.9596	0.89
13.0007	0.897
13.0418	0.898
13.0829	0.898
13.1239	0.898
13.165	0.905
13.2061	0.91
13.2472	0.91
13.2882	0.91
13.3293	0.912
13.3704	0.916
13.4115	0.916
13.4525	0.902
13.4936	0.895
13.5347	0.902
13.5757	0.921
13.6168	0.924
13.6579	0.926
13.699	0.926
13.74	0.928
13.7811	0.931
13.8222	0.931
13.8633	0.929
13.9043	0.928
13.9454	0.928
13.9865	0.933
14.0276	0.943
14.0686	0.948
14.1097	0.95
14.1508	0.95
14.1919	0.95
14.2329	0.95
14.274	0.948
14.3151	0.948
14.3561	0.946
14.3972	0.948
14.4383	0.945
14.4794	0.916
14.5204	0.861
14.5615	0.78
14.6026	0.647
14.6437	0.534
14.6847	0.47
14.7258	0.491
14.7669	0.583
14.808	0.708
14.849	0.797
14.8901	0.84
14.9312	0.873
14.9723	0.892
15.0133	0.907
15.0544	0.924
15.0955	0.94
15.1365	0.95
15.1776	0.952
15.2187	0.953
15.2598	0.952
15.3008	0.952
15.3419	0.952
15.383	0.948
15.4241	0.929
15.4651	0.914
15.5062	0.9
15.5473	0.871
15.5884	0.845
15.6294	0.828
15.6705	0.823
15.7116	0.821
15.7526	0.823
15.7937	0.821
15.8348	0.821
15.8759	0.821
15.9169	0.821
15.958	0.82
