Infrared Spectrum: 1-Azaxanthone
Formula: C 12 H 7 N O 2
CAS: 54629-30-0
State: gas
Origin: EPA-IR VAPOR PHASE LIBRARY
1/CM	ABSORBANCE
549.8	0.00039009
559.445	0.00032834
569.09	0.00035344
578.735	0.00033461
588.38	0.000175
598.025	0.00030408
607.67	0.000159
617.315	0.000192
626.96	0.0008298
636.605	0.0007014
646.251	0.000207
655.896	0.0005322
665.541	0.0008442
675.186	0.0007942
684.831	0.0006411
694.476	0.00032792
704.121	0.00040296
713.766	0.0006249
723.411	0.00033448
733.056	0.0002271
742.701	0.0007924
752.346	0.002114
761.991	0.004514
771.636	0.002774
781.281	0.001794
790.926	0.0010996
800.571	0.00041097
810.216	0.0002787
819.861	0.000417
829.507	0.0004375
839.152	0.00038691
848.797	0.00030504
858.442	0.000177
868.087	0.00031218
877.732	0.000128
887.377	0.000191
897.022	0.0008059
906.667	0.0005974
916.312	0.0005056
925.957	0.0007724
935.602	0.002914
945.247	0.001694
954.892	0.00033253
964.537	0.0002692
974.182	0.000147
983.827	0.000124
993.472	0.000121
1003.12	0.000107
1012.76	0.000263
1022.41	0.00029
1032.05	0.0002583
1041.7	0.000188
1051.34	0.0002839
1060.99	0.00031292
1070.63	0.0002356
1080.28	0.000135
1089.92	0.0008831
1099.57	0.0012824
1109.21	0.0006938
1118.86	0.0004154
1128.5	0.000320173
1138.15	0.0002869
1147.79	0.0005852
1157.44	0.0004717
1167.08	0.000177
1176.73	0.00037639
1186.37	0.0010235
1196.02	0.002714
1205.66	0.002664
1215.31	0.002274
1224.95	0.003064
1234.6	0.001994
1244.24	0.001954
1253.89	0.001654
1263.53	0.0009702
1273.18	0.0009258
1282.82	0.0009936
1292.47	0.0009335
1302.11	0.00048
1311.76	0.0010376
1321.4	0.001594
1331.05	0.004094
1340.69	0.010674
1350.34	0.005204
1359.98	0.0012729
1369.63	0.0009063
1379.27	0.0006723
1388.92	0.0009054
1398.56	0.001464
1408.21	0.005764
1417.85	0.015604
1427.5	0.009634
1437.14	0.002284
1446.79	0.0011942
1456.43	0.002494
1466.08	0.006754
1475.73	0.008714
1485.37	0.003214
1495.02	0.001554
1504.66	0.0010613
1514.31	0.0008041
1523.95	0.0006635
1533.6	0.0005482
1543.24	0.0008115
1552.89	0.001544
1562.53	0.002354
1572.18	0.002644
1581.82	0.003874
1591.47	0.007004
1601.11	0.007634
1610.76	0.006274
1620.4	0.003994
1630.05	0.001404
1639.69	0.0008985
1649.34	0.0008769
1658.98	0.0011771
1668.63	0.002154
1678.27	0.006204
1687.92	0.011244
1697.56	0.008114
1707.21	0.001934
1716.85	0.0006266
1726.5	0.0004819
1736.14	0.00040802
1745.79	0.00039953
1755.43	0.00033997
1765.08	0.0002719
1774.72	0.0002294
1784.37	0.000193
1794.01	0.000183
1803.66	0.000187
1813.3	0.0002437
1822.95	0.0002844
1832.59	0.0002546
1842.24	0.000320891
1851.88	0.000274
1861.53	0.000207
1871.17	0.000159
1880.82	0.000132
1890.46	0.000135
1900.11	0.000123
1909.75	0.000199
1919.4	0.000231
1929.04	0.0002657
1938.69	0.00030734
1948.33	0.00033124
1957.98	0.000266
1967.62	0.000212
1977.27	0.0002418
1986.91	0.000169
1996.56	0.000214
2006.2	0.000162
2015.85	0.0002256
2025.49	0.000169
2035.14	0.000212
2044.78	0.000146
2054.43	0.000198
2064.07	0.0002959
2073.72	0.0003023
2083.36	0.00030482
2093.01	0.000211
2102.65	0.0002428
2112.3	0.0002407
2121.94	0.0002751
2131.59	0.000153
2141.23	0.00030925
2150.88	0.000208
2160.52	0.000194
2170.17	0.000237
2179.81	0.00021
2189.46	0.0002229
2199.1	0.0002366
2208.75	0.000203
2218.39	0.0002851
2228.04	0.0002817
2237.68	0.000209
2247.33	0.0002157
2256.97	0.0002702
2266.62	0.00035207
2276.26	0.00032555
2285.91	0.0002934
2295.55	0.0003007
2305.2	0.0004173
2314.84	0.00034908
2324.49	0.0004281
2334.13	0.0004167
2343.78	0.00038332
2353.42	0.00032467
2363.07	0.00040208
2372.72	0.0004771
2382.36	0.0003542
2392.01	0.00034252
2401.65	0.00032849
2411.3	0.00034408
2420.94	0.0003324
2430.59	0.00041134
2440.23	0.0004186
2449.88	0.0004787
2459.52	0.0004146
2469.17	0.00038539
2478.81	0.00039432
2488.46	0.0004324
2498.1	0.0004917
2507.75	0.0004674
2517.39	0.0005394
2527.04	0.000432
2536.68	0.0005267
2546.33	0.0004478
2555.97	0.0004527
2565.62	0.0004685
2575.26	0.0004418
2584.91	0.00040055
2594.55	0.0005127
2604.2	0.0005628
2613.84	0.0005498
2623.49	0.0005063
2633.13	0.0005081
2642.78	0.0005034
2652.42	0.0005987
2662.07	0.000497
2671.71	0.0005926
2681.36	0.0006199
2691	0.0006975
2700.65	0.0005166
2710.29	0.000597
2719.94	0.0005899
2729.58	0.0007177
2739.23	0.0005747
2748.87	0.0004833
2758.52	0.0005829
2768.16	0.0005691
2777.81	0.0006405
2787.45	0.0006105
2797.1	0.0006611
2806.74	0.0006055
2816.39	0.0006024
2826.03	0.0006035
2835.68	0.000688
2845.32	0.0006691
2854.97	0.000494
2864.61	0.0006588
2874.26	0.0006918
2883.9	0.0005748
2893.55	0.0006598
2903.19	0.0007393
2912.84	0.0007783
2922.48	0.0006345
2932.13	0.0006528
2941.77	0.0007645
2951.42	0.0006924
2961.06	0.000659
2970.71	0.0006752
2980.35	0.0007351
2990	0.0007284
2999.64	0.0008764
3009.29	0.0009432
3018.93	0.0008373
3028.58	0.0009079
3038.22	0.000872
3047.87	0.0011529
3057.51	0.0012095
3067.16	0.001394
3076.8	0.001614
3086.45	0.001684
3096.09	0.0013046
3105.74	0.0007657
3115.38	0.0005909
3125.03	0.0007303
3134.67	0.0006625
3144.32	0.0007353
3153.96	0.0007064
3163.61	0.0007931
3173.25	0.0005541
3182.9	0.0006695
3192.54	0.0007061
3202.19	0.0006059
3211.83	0.0006221
3221.48	0.00061
3231.12	0.0005058
3240.77	0.0005447
3250.41	0.00040347
3260.06	0.0004769
3269.7	0.0005795
3279.35	0.0006981
3289	0.0005046
3298.64	0.0006132
3308.29	0.0005134
3317.93	0.0003035
3327.58	0.0004907
3337.22	0.0006501
3346.87	0.0005834
3356.51	0.0007344
3366.16	0.0005508
3375.8	0.0004535
3385.45	0.0007405
3395.09	0.0004973
3404.74	0.0005435
3414.38	0.0004141
3424.03	0.0006634
3433.67	0.0006233
3443.32	0.00037861
3452.96	0.0002837
3462.61	0.0005826
3472.25	0.0005127
3481.9	0.0004429
3491.54	0.0004594
3501.19	0.0006846
3510.83	0.00038248
3520.48	0.0004226
3530.12	0.0004957
3539.77	0.0006204
3549.41	0.0004712
3559.06	0.0004894
3568.7	0.0004821
3578.35	0.0005058
3587.99	0.0007588
3597.64	0.0002959
3607.28	0.0005654
3616.93	0.0006168
3626.57	0.0007198
3636.22	0.000498
3645.86	0.0006365
3655.51	0.0005222
3665.15	0.0004344
3674.8	0.0004569
3684.44	0.00041356
3694.09	0.0006315
3703.73	0.0004724
3713.38	0.0006408
3723.02	0.0005879
3732.67	0.0005168
3742.31	0.0005912
3751.96	0.0004746
3761.6	0.0005324
3771.25	0.0006965
3780.89	0.0005704
3790.54	0.0005004
3800.18	0.0006433
3809.83	0.0006385
3819.47	0.0006754
3829.12	0.0007799
3838.76	0.0007562
3848.41	0.0005125
3858.05	0.0008423
3867.7	0.0008299
3877.34	0.0006409
3886.99	0.0009322
3896.63	0.0006351
3906.28	0.0007039
3915.92	0.000871
3925.57	0.0009283
3935.21	0.0007823
3944.86	0.0008083
3954.5	0.0005857
3964.15	0.0006852
3973.79	0.0007242
3983.44	0.0008042
3993.08	0.0007004
