Infrared Spectrum: 9H-Purine, 6-chloro-9-ethyl-
Formula: C7 H7 Cl N4
CAS: 5462-86-2
State: SOLID (1.6 mg / 650 mg KBr DISC)
Class: COBLENTZ III
Instrument: PERKIN-ELMER 21 (GRATING)
Instrument parameters: FILTER CHANGE ABOUT 1025 CM^-^1
Sampling: TRANSMISSION
Resolution: 2
Origin: SOUTHERN RESEARCH INSTITUTE
1/CM	TRANSMITTANCE
597.725	0.2636
606.771	0.3079
615.816	0.3217
624.862	0.2996
633.908	0.299
642.954	0.4389
651.999	0.6427
661.045	0.6581
670.091	0.642
679.137	0.699
688.182	0.6993
697.228	0.6653
706.274	0.5713
715.32	0.4814
724.365	0.7683
733.411	0.7798
742.457	0.7788
751.502	0.7754
760.548	0.7698
769.594	0.7554
778.64	0.7245
787.685	0.6137
796.731	0.4533
805.777	0.7101
814.823	0.7128
823.868	0.6971
832.914	0.6674
841.96	0.6063
851.005	0.3627
860.051	0.4411
869.097	0.6541
878.143	0.6786
887.188	0.7042
896.234	0.6751
905.28	0.5845
914.326	0.5686
923.371	0.3672
932.417	0.0939
941.463	0.3583
950.509	0.7469
959.554	0.742
968.6	0.7204
977.646	0.7899
986.691	0.7921
995.737	0.788
1004.78	0.7851
1013.83	0.7849
1022.87	0.7809
1031.92	0.7272
1040.97	0.7163
1050.01	0.7091
1059.06	0.7014
1068.1	0.6261
1077.15	0.5733
1086.19	0.6217
1095.24	0.584
1104.29	0.4924
1113.33	0.5512
1122.38	0.5194
1131.42	0.3905
1140.47	0.2032
1149.51	0.1122
1158.56	0.0873
1167.61	0.4316
1176.65	0.6419
1185.7	0.5708
1194.74	0.4264
1203.79	0.1003
1212.83	0.0929
1221.88	0.1191
1230.93	0.407
1239.97	0.6429
1249.02	0.5906
1258.06	0.3435
1267.11	0.5082
1276.15	0.569
1285.2	0.4899
1294.25	0.5927
1303.29	0.5773
1312.34	0.4148
1321.38	0.2078
1330.43	0.0396
1339.47	0.1116
1348.52	0.3373
1357.57	0.4205
1366.61	0.5105
1375.66	0.4746
1384.7	0.3523
1393.75	0.2578
1402.8	0.1172
1411.84	0.4036
1420.89	0.3765
1429.93	0.2312
1438.98	0.1431
1448.02	0.1983
1457.07	0.4494
1466.12	0.588
1475.16	0.5727
1484.21	0.6248
1493.25	0.484
1502.3	0.127
1511.34	0.2867
1520.39	0.5294
1529.44	0.5612
1538.48	0.3849
1547.53	0.208
1556.57	0.0679
1565.62	0.0953
1574.66	0.296
1583.71	0.3381
1592.76	0.0888
1601.8	0.1523
1610.85	0.4958
1619.89	0.6394
1628.94	0.7036
1637.98	0.7163
1647.03	0.7329
1656.08	0.7722
1665.12	0.7905
1674.17	0.8009
1683.21	0.8093
1692.26	0.8114
1701.3	0.8097
1710.35	0.8039
1719.4	0.786
1728.44	0.7443
1737.49	0.7242
1746.53	0.7738
1755.58	0.796
1764.62	0.79
1773.67	0.7782
1782.72	0.7638
1791.76	0.7535
1800.81	0.7421
1809.85	0.7437
1818.9	0.7588
1827.94	0.7689
1836.99	0.7709
1846.04	0.7662
1855.08	0.7601
1864.13	0.7518
1873.17	0.7407
1882.22	0.7266
1891.26	0.7358
1900.31	0.744
1909.36	0.7318
1918.4	0.7166
1927.45	0.7243
1936.49	0.7448
1945.54	0.7476
1954.58	0.7475
1963.63	0.746
1972.68	0.7449
1981.72	0.7437
1990.77	0.7413
1999.81	0.7371
2008.86	0.7261
2017.9	0.7241
2026.95	0.7247
2036	0.7238
2045.04	0.7225
2054.09	0.7206
2063.13	0.7164
2072.18	0.713
2081.22	0.7117
2090.27	0.7132
2099.32	0.7125
2108.36	0.7109
2117.41	0.7091
2126.45	0.7067
2135.5	0.7035
2144.55	0.7004
2153.59	0.6974
2162.64	0.6945
2171.68	0.6916
2180.73	0.6886
2189.77	0.6856
2198.82	0.6834
2207.87	0.6811
2216.91	0.6789
2225.96	0.6771
2235	0.6756
2244.05	0.6741
2253.09	0.6725
2262.14	0.6705
2271.19	0.6695
2280.23	0.669
2289.28	0.6686
2298.32	0.6682
2307.37	0.6677
2316.41	0.6671
2325.46	0.6657
2334.51	0.6632
2343.55	0.6599
2352.6	0.657
2361.64	0.6534
2370.69	0.6487
2379.73	0.6416
2388.78	0.6331
2397.83	0.6273
2406.87	0.6272
2415.92	0.6286
2424.96	0.6294
2434.01	0.6289
2443.05	0.6278
2452.1	0.6239
2461.15	0.6126
2470.19	0.605
2479.24	0.6001
2488.28	0.5975
2497.33	0.5956
2506.37	0.5944
2515.42	0.5957
2524.47	0.5969
2533.51	0.5965
2542.56	0.5957
2551.6	0.594
2560.65	0.5922
2569.69	0.5901
2578.74	0.588
2587.79	0.5857
2596.83	0.5833
2605.88	0.581
2614.92	0.5801
2623.97	0.5792
2633.01	0.5775
2642.06	0.5741
2651.11	0.5713
2660.15	0.5708
2669.2	0.57
2678.24	0.5691
2687.29	0.5682
2696.33	0.5674
2705.38	0.5659
2714.43	0.5633
2723.47	0.5608
2732.52	0.5581
2741.56	0.5552
2750.61	0.5523
2759.65	0.5497
2768.7	0.5471
2777.75	0.5434
2786.79	0.5395
2795.84	0.5353
2804.88	0.5311
2813.93	0.5269
2822.97	0.5204
2832.02	0.5129
2841.07	0.503
2850.11	0.4907
2859.16	0.4793
2868.2	0.4712
2877.25	0.4681
2886.29	0.4633
2895.34	0.4537
2904.39	0.4392
2913.43	0.4199
2922.48	0.4069
2931.52	0.4077
2940.57	0.4133
2949.62	0.4147
2958.66	0.4043
2967.71	0.3889
2976.75	0.3858
2985.8	0.4042
2994.84	0.4383
3003.89	0.4699
3012.94	0.4714
3021.98	0.4685
3031.03	0.4612
3040.07	0.4514
3049.12	0.4372
3058.16	0.4167
3067.21	0.3951
3076.26	0.3892
3085.3	0.3916
3094.35	0.4017
3103.39	0.4197
3112.44	0.4455
3121.48	0.4734
3130.53	0.4893
3139.58	0.4915
3148.62	0.4921
3157.67	0.491
3166.71	0.4874
3175.76	0.4828
3184.8	0.4794
3193.85	0.4776
3202.9	0.4745
3211.94	0.4698
3220.99	0.4651
3230.03	0.4603
3239.08	0.4558
3248.12	0.4513
3257.17	0.4466
3266.22	0.4414
3275.26	0.4362
3284.31	0.4284
3293.35	0.4205
3302.4	0.4123
3311.44	0.4039
3320.49	0.3956
3329.54	0.387
3338.58	0.3781
3347.63	0.3692
3356.67	0.3601
3365.72	0.3506
3374.76	0.3411
3383.81	0.3316
3392.86	0.3223
3401.9	0.3131
3410.95	0.304
3419.99	0.2973
3429.04	0.2938
3438.08	0.2932
3447.13	0.2951
3456.18	0.2977
3465.22	0.3007
3474.27	0.3072
3483.31	0.3126
3492.36	0.3169
3501.4	0.3213
3510.45	0.3256
3519.5	0.3299
3528.54	0.3342
3537.59	0.3385
3546.63	0.3435
3555.68	0.3488
3564.72	0.3542
3573.77	0.3597
3582.82	0.3666
3591.86	0.3735
3600.91	0.3804
3609.95	0.3893
3619	0.3992
3628.04	0.4091
3637.09	0.4204
3646.14	0.4318
3655.18	0.4411
3664.23	0.4436
3673.27	0.4443
3682.32	0.444
3691.37	0.4438
3700.41	0.4441
3709.46	0.4443
3718.5	0.4446
3727.55	0.4453
3736.59	0.4462
3745.64	0.447
3754.69	0.4478
3763.73	0.4483
3772.78	0.4486
3781.82	0.4489
3790.87	0.4491
3799.91	0.4495
3808.96	0.4499
