Infrared Spectrum: CYCLOHEXANOL, 2-(9H-6-CHLOROPURIN-9-YL)-, TRANS
Formula: C11 H13 Cl N4 O
CAS: 5463-96-7
State: SOLID (1.8 mg / 650 mg KBr DISC)
Class: COBLENTZ III
Instrument: PERKIN-ELMER 21 (GRATING)
Instrument parameters: FILTER CHANGE AT 1090 CM^-^1
Sampling: TRANSMISSION
Resolution: 2
Origin: SOUTHERN RESEARCH INSTITUTE
1/CM	TRANSMITTANCE
611.94	0.491
620.822	0.498
629.704	0.4726
638.586	0.4069
647.467	0.4426
656.349	0.4116
665.231	0.5109
674.113	0.5374
682.995	0.549
691.877	0.5146
700.758	0.5803
709.64	0.5924
718.522	0.6009
727.404	0.606
736.286	0.613
745.168	0.615
754.049	0.6078
762.931	0.5905
771.813	0.4922
780.695	0.6112
789.577	0.6303
798.459	0.4805
807.34	0.5495
816.222	0.648
825.104	0.6454
833.986	0.6333
842.868	0.614
851.75	0.5146
860.631	0.5095
869.513	0.5384
878.395	0.589
887.277	0.586
896.159	0.605
905.041	0.5617
913.922	0.5507
922.804	0.527
931.686	0.5273
940.568	0.4225
949.45	0.368
958.332	0.5884
967.213	0.5944
976.095	0.5442
984.977	0.575
993.859	0.6053
1002.74	0.6355
1011.62	0.6316
1020.5	0.6206
1029.39	0.6014
1038.27	0.5735
1047.15	0.4796
1056.03	0.422
1064.91	0.5339
1073.8	0.4818
1082.68	0.2945
1091.56	0.3652
1100.44	0.3883
1109.32	0.4703
1118.2	0.4854
1127.09	0.484
1135.97	0.4401
1144.85	0.365
1153.73	0.313
1162.61	0.5014
1171.5	0.5668
1180.38	0.5624
1189.26	0.5188
1198.14	0.4647
1207.02	0.3393
1215.9	0.3693
1224.79	0.3509
1233.67	0.4023
1242.55	0.4483
1251.43	0.4367
1260.31	0.3732
1269.2	0.5208
1278.08	0.5299
1286.96	0.4584
1295.84	0.435
1304.72	0.4595
1313.61	0.432
1322.49	0.4696
1331.37	0.3614
1340.25	0.2361
1349.13	0.2502
1358.01	0.4474
1366.9	0.5545
1375.78	0.5559
1384.66	0.527
1393.54	0.403
1402.42	0.448
1411.31	0.4275
1420.19	0.373
1429.07	0.5397
1437.95	0.5604
1446.83	0.5321
1455.71	0.4378
1464.6	0.4528
1473.48	0.589
1482.36	0.589
1491.24	0.5493
1500.12	0.4364
1509.01	0.4482
1517.89	0.6011
1526.77	0.6047
1535.65	0.5598
1544.53	0.5064
1553.41	0.4035
1562.3	0.2927
1571.18	0.2948
1580.06	0.3995
1588.94	0.4053
1597.82	0.1989
1606.71	0.3484
1615.59	0.599
1624.47	0.6725
1633.35	0.675
1642.23	0.6914
1651.11	0.7006
1660	0.724
1668.88	0.7252
1677.76	0.734
1686.64	0.726
1695.52	0.722
1704.41	0.7211
1713.29	0.72
1722.17	0.717
1731.05	0.7135
1739.93	0.7079
1748.82	0.706
1757.7	0.712
1766.58	0.7065
1775.46	0.702
1784.34	0.6897
1793.22	0.6836
1802.11	0.6777
1810.99	0.6715
1819.87	0.663
1828.75	0.67
1837.63	0.6842
1846.52	0.696
1855.4	0.703
1864.28	0.705
1873.16	0.705
1882.04	0.702
1890.92	0.702
1899.81	0.703
1908.69	0.702
1917.57	0.7
1926.45	0.697
1935.33	0.6876
1944.22	0.6816
1953.1	0.676
1961.98	0.6723
1970.86	0.6812
1979.74	0.6922
1988.62	0.6929
1997.51	0.691
2006.39	0.689
2015.27	0.688
2024.15	0.687
2033.03	0.686
2041.92	0.686
2050.8	0.686
2059.68	0.6869
2068.56	0.683
2077.44	0.6809
2086.32	0.678
2095.21	0.681
2104.09	0.682
2112.97	0.681
2121.85	0.678
2130.73	0.672
2139.62	0.672
2148.5	0.669
2157.38	0.669
2166.26	0.665
2175.14	0.664
2184.03	0.665
2192.91	0.6671
2201.79	0.67
2210.67	0.6701
2219.55	0.667
2228.43	0.669
2237.32	0.6669
2246.2	0.663
2255.08	0.663
2263.96	0.67
2272.84	0.665
2281.73	0.6669
2290.61	0.665
2299.49	0.665
2308.37	0.665
2317.25	0.665
2326.13	0.669
2335.02	0.6719
2343.9	0.668
2352.78	0.668
2361.66	0.6669
2370.54	0.655
2379.43	0.654
2388.31	0.651
2397.19	0.649
2406.07	0.646
2414.95	0.648
2423.83	0.65
2432.72	0.6601
2441.6	0.65
2450.48	0.646
2459.36	0.648
2468.24	0.6479
2477.13	0.645
2486.01	0.643
2494.89	0.641
2503.77	0.643
2512.65	0.644
2521.53	0.645
2530.42	0.6461
2539.3	0.648
2548.18	0.648
2557.06	0.649
2565.94	0.649
2574.83	0.649
2583.71	0.653
2592.59	0.6509
2601.47	0.6389
2610.35	0.6391
2619.24	0.643
2628.12	0.634
2637	0.64
2645.88	0.626
2654.76	0.631
2663.64	0.636
2672.53	0.634
2681.41	0.634
2690.29	0.634
2699.17	0.634
2708.05	0.632
2716.94	0.6289
2725.82	0.626
2734.7	0.621
2743.58	0.617
2752.46	0.616
2761.34	0.616
2770.23	0.611
2779.11	0.606
2787.99	0.5959
2796.87	0.5959
2805.75	0.584
2814.64	0.5727
2823.52	0.5499
2832.4	0.5108
2841.28	0.4666
2850.16	0.446
2859.04	0.4593
2867.93	0.5082
2876.81	0.5271
2885.69	0.5239
2894.57	0.5099
2903.45	0.4938
2912.34	0.4198
2921.22	0.3748
2930.1	0.349
2938.98	0.3641
2947.86	0.3895
2956.74	0.4884
2965.63	0.5431
2974.51	0.5621
2983.39	0.578
2992.27	0.592
3001.15	0.6
3010.04	0.5999
3018.92	0.588
3027.8	0.5688
3036.68	0.5461
3045.56	0.5359
3054.45	0.5179
3063.33	0.4859
3072.21	0.481
3081.09	0.5021
3089.97	0.535
3098.85	0.5461
3107.74	0.5622
3116.62	0.597
3125.5	0.597
3134.38	0.5889
3143.26	0.583
3152.15	0.5749
3161.03	0.56
3169.91	0.5559
3178.79	0.545
3187.67	0.5389
3196.55	0.5269
3205.44	0.515
3214.32	0.508
3223.2	0.487
3232.08	0.477
3240.96	0.4599
3249.85	0.451
3258.73	0.445
3267.61	0.4318
3276.49	0.412
3285.37	0.4029
3294.25	0.3959
3303.14	0.3819
3312.02	0.3689
3320.9	0.3619
3329.78	0.355
3338.66	0.339
3347.55	0.3389
3356.43	0.327
3365.31	0.324
3374.19	0.318
3383.07	0.316
3391.95	0.316
3400.84	0.316
3409.72	0.322
3418.6	0.336
3427.48	0.341
3436.36	0.358
3445.25	0.367
3454.13	0.381
3463.01	0.391
3471.89	0.4021
3480.77	0.426
3489.66	0.4371
3498.54	0.4582
3507.42	0.478
3516.3	0.4891
3525.18	0.498
3534.06	0.506
3542.95	0.5171
3551.83	0.5323
3560.71	0.5511
3569.59	0.559
3578.47	0.567
3587.36	0.5751
3596.24	0.5891
3605.12	0.601
3614	0.61
3622.88	0.612
3631.76	0.625
3640.65	0.631
3649.53	0.637
3658.41	0.6411
3667.29	0.646
3676.17	0.646
3685.06	0.644
3693.94	0.643
3702.82	0.644
3711.7	0.6461
3720.58	0.649
3729.46	0.649
3738.35	0.648
3747.23	0.648
3756.11	0.648
3764.99	0.648
3773.87	0.65
3782.76	0.65
3791.64	0.65
3800.52	0.65
3809.4	0.65
3818.28	0.651
3827.16	0.651
3836.05	0.651
3844.93	0.651
3853.81	0.651
3862.69	0.651
3871.57	0.65
3880.46	0.645
3889.34	0.64
3898.22	0.64
3907.1	0.64
3915.98	0.64
3924.87	0.64
3933.75	0.639
3942.63	0.639
3951.51	0.64
3960.39	0.64
3969.27	0.639
3978.16	0.639
3987.04	0.639
3995.92	0.637
4004.8	0.637
4013.68	0.637
