Infrared Spectrum: 4,4'-BIS(4-AMINO-1-NAPHTHYLAZO)-2,2'-STILBENEDISULFONIC ACID
Formula: C34 H26 N6 O6 S2
CAS: 5463-64-9
State: SOLID (KBr PELLET)
Class: COBLENTZ
Instrument: Not specified, most likely a prism, grating, or hybrid spectrometer.
Sampling: TRANSMISSION
Resolution: 4
Origin: WYANDOTTE CHEMICALS CORP., WYANDOTTE, MICHIGAN, USA
MICROMETERS	TRANSMITTANCE
2.074	0.64
2.11109	0.648
2.14817	0.651
2.18526	0.662
2.22234	0.68
2.25943	0.682
2.29651	0.683
2.3336	0.686
2.37068	0.693
2.40777	0.699
2.44485	0.7
2.48194	0.703
2.51902	0.71
2.55611	0.716
2.59319	0.724
2.63028	0.733
2.66736	0.734
2.70445	0.731
2.74153	0.714
2.77862	0.663
2.81571	0.601
2.85279	0.562
2.88988	0.533
2.92696	0.508
2.96405	0.502
3.00113	0.52
3.03822	0.564
3.0753	0.601
3.11239	0.601
3.14947	0.593
3.18656	0.589
3.22364	0.578
3.26073	0.572
3.29781	0.586
3.3349	0.589
3.37198	0.593
3.40907	0.593
3.44616	0.62
3.48324	0.644
3.52033	0.654
3.55741	0.689
3.5945	0.713
3.63158	0.719
3.66867	0.728
3.70575	0.731
3.74284	0.739
3.77992	0.742
3.81701	0.753
3.85409	0.759
3.89118	0.761
3.92826	0.767
3.96535	0.764
4.00243	0.77
4.03952	0.773
4.0766	0.778
4.11369	0.792
4.15078	0.79
4.18786	0.792
4.22495	0.795
4.26203	0.81
4.29912	0.801
4.3362	0.796
4.37329	0.789
4.41037	0.803
4.44746	0.81
4.48454	0.813
4.52163	0.813
4.55871	0.817
4.5958	0.818
4.63288	0.817
4.66997	0.817
4.70705	0.818
4.74414	0.823
4.78122	0.82
4.81831	0.823
4.8554	0.827
4.89248	0.824
4.92957	0.824
4.96665	0.826
5.00374	0.827
5.04082	0.824
5.07791	0.832
5.11499	0.84
5.15208	0.846
5.18916	0.851
5.22625	0.86
5.26333	0.863
5.30042	0.863
5.3375	0.863
5.37459	0.868
5.41167	0.871
5.44876	0.882
5.48584	0.879
5.52293	0.882
5.56002	0.885
5.5971	0.888
5.63419	0.894
5.67127	0.893
5.70836	0.894
5.74544	0.879
5.78253	0.854
5.81961	0.801
5.8567	0.796
5.89378	0.781
5.93087	0.773
5.96795	0.733
6.00504	0.716
6.04212	0.713
6.07921	0.717
6.11629	0.733
6.15338	0.733
6.19047	0.682
6.22755	0.589
6.26464	0.572
6.30172	0.652
6.33881	0.751
6.37589	0.748
6.41298	0.697
6.45006	0.66
6.48715	0.668
6.52423	0.679
6.56132	0.652
6.5984	0.683
6.63549	0.741
6.67257	0.739
6.70966	0.722
6.74674	0.713
6.78383	0.724
6.82091	0.742
6.858	0.649
6.89509	0.59
6.93217	0.609
6.96926	0.669
7.00634	0.553
7.04343	0.483
7.08051	0.485
7.1176	0.53
7.15468	0.572
7.19177	0.643
7.22885	0.682
7.26594	0.677
7.30302	0.638
7.34011	0.561
7.37719	0.506
7.41428	0.573
7.45136	0.658
7.48845	0.697
7.52553	0.598
7.56262	0.497
7.59971	0.493
7.63679	0.582
7.67388	0.62
7.71096	0.609
7.74805	0.596
7.78513	0.593
7.82222	0.57
7.8593	0.564
7.89639	0.6
7.93347	0.603
7.97056	0.579
8.00764	0.55
8.04473	0.536
8.08181	0.513
8.1189	0.483
8.15598	0.472
8.19307	0.449
8.23015	0.46
8.26724	0.438
8.30433	0.401
8.34141	0.353
8.3785	0.336
8.41558	0.331
8.45267	0.339
8.48975	0.339
8.52684	0.339
8.56392	0.359
8.60101	0.372
8.63809	0.376
8.67518	0.364
8.71226	0.382
8.74935	0.409
8.78643	0.421
8.82352	0.421
8.8606	0.413
8.89769	0.412
8.93478	0.4
8.97186	0.389
9.00895	0.37
9.04603	0.35
9.08312	0.331
9.1202	0.319
9.15729	0.311
9.19437	0.308
9.23146	0.311
9.26854	0.317
9.30563	0.351
9.34271	0.398
9.3798	0.432
9.41688	0.438
9.45397	0.462
9.49105	0.513
9.52814	0.544
9.56522	0.57
9.60231	0.581
9.6394	0.586
9.67648	0.578
9.71357	0.542
9.75065	0.499
9.78774	0.482
9.82482	0.499
9.86191	0.528
9.89899	0.522
9.93608	0.502
9.97316	0.499
10.0102	0.519
10.0473	0.548
10.0844	0.579
10.1215	0.603
10.1586	0.623
10.1957	0.649
10.2328	0.657
10.2698	0.663
10.3069	0.672
10.344	0.683
10.3811	0.683
10.4182	0.686
10.4553	0.691
10.4924	0.696
10.5294	0.702
10.5665	0.713
10.6036	0.722
10.6407	0.722
10.6778	0.73
10.7149	0.728
10.752	0.73
10.789	0.727
10.8261	0.731
10.8632	0.728
10.9003	0.728
10.9374	0.728
10.9745	0.73
11.0116	0.731
11.0486	0.728
11.0857	0.722
11.1228	0.725
11.1599	0.722
11.197	0.727
11.2341	0.727
11.2711	0.731
11.3082	0.734
11.3453	0.739
11.3824	0.745
11.4195	0.747
11.4566	0.748
11.4937	0.751
11.5307	0.751
11.5678	0.753
11.6049	0.758
11.642	0.762
11.6791	0.764
11.7162	0.758
11.7533	0.751
11.7903	0.731
11.8274	0.717
11.8645	0.705
11.9016	0.702
11.9387	0.699
11.9758	0.699
12.0129	0.696
12.0499	0.7
12.087	0.708
12.1241	0.713
12.1612	0.725
12.1983	0.727
12.2354	0.73
12.2724	0.728
12.3095	0.73
12.3466	0.73
12.3837	0.73
12.4208	0.719
12.4579	0.699
12.495	0.68
12.532	0.666
12.5691	0.666
12.6062	0.682
12.6433	0.7
12.6804	0.706
12.7175	0.711
12.7546	0.71
12.7916	0.693
12.8287	0.686
12.8658	0.688
12.9029	0.686
12.94	0.691
12.9771	0.691
13.0142	0.691
13.0512	0.688
13.0883	0.689
13.1254	0.696
13.1625	0.696
13.1996	0.699
13.2367	0.708
13.2738	0.72
13.3108	0.733
13.3479	0.745
13.385	0.751
13.4221	0.762
13.4592	0.762
13.4963	0.77
13.5333	0.773
13.5704	0.77
13.6075	0.775
13.6446	0.775
13.6817	0.776
13.7188	0.776
13.7559	0.778
13.7929	0.775
13.83	0.779
13.8671	0.787
13.9042	0.79
13.9413	0.792
13.9784	0.796
14.0155	0.796
14.0525	0.792
14.0896	0.779
14.1267	0.736
14.1638	0.702
14.2009	0.688
14.238	0.685
14.2751	0.691
14.3121	0.716
14.3492	0.736
14.3863	0.75
14.4234	0.761
14.4605	0.77
14.4976	0.77
14.5347	0.787
14.5717	0.795
14.6088	0.798
14.6459	0.798
14.683	0.8
14.7201	0.801
14.7572	0.801
14.7942	0.801
14.8313	0.798
14.8684	0.798
14.9055	0.801
14.9426	0.803
14.9797	0.796
15.0168	0.772
15.0538	0.751
15.0909	0.756
15.128	0.787
15.1651	0.803
15.2022	0.8
15.2393	0.798
15.2764	0.786
15.3134	0.775
15.3505	0.772
15.3876	0.767
15.4247	0.761
15.4618	0.751
15.4989	0.742
15.536	0.737
15.573	0.727
15.6101	0.711
15.6472	0.7
15.6843	0.683
15.7214	0.671
15.7585	0.652
15.7956	0.641
15.8326	0.621
15.8697	0.617
15.9068	0.615
15.9439	0.612
15.981	0.609
