Infrared Spectrum: 5-Methyl-3-heptanol
Formula: C 8 H 18 O
CAS: 54630-50-1
State: gas
Instrument: HP-GC/MS/IRD
Origin: NIST Mass Spectrometry Data Center
1/CM	ABSORBANCE
550	0.0002356
562	0.0001748
574	0.000171
586	0.0002147
598	0.000228
610	0.0002375
622	0.0001558
634	0.0002375
646	0.0001197
658	0.0001824
670	0.0002679
682	0.0002964
694	0.0002128
706	0.0001444
718	0.00019
730	0.0002622
742	0.0003059
754	0.0002945
766	0.0004446
778	0.0003895
790	0.0003287
802	0.0003515
814	0.0003515
826	0.0002109
838	0.0006023
850	0.0007315
862	0.000627
874	0.000608
886	0.0007087
898	0.0006859
910	0.0008892
922	0.001387
934	0.0019456
946	0.0018354
958	0.001292
970	0.0012901
982	0.0013205
994	0.0014649
1006	0.0016283
1018	0.0017955
1030	0.0019969
1042	0.0022458
1054	0.0025194
1066	0.0025099
1078	0.0025954
1090	0.0028975
1102	0.0028386
1114	0.0023959
1126	0.0023579
1138	0.0023845
1150	0.0020349
1162	0.0014421
1174	0.0009823
1186	0.0009234
1198	0.001083
1210	0.0013091
1222	0.0014782
1234	0.0018316
1246	0.0019589
1258	0.0017328
1270	0.0014079
1282	0.0011666
1294	0.0010545
1306	0.0010013
1318	0.0010184
1330	0.0012369
1342	0.0015827
1354	0.0020843
1366	0.0027664
1378	0.0039824
1390	0.0036594
1402	0.0020273
1414	0.0012236
1426	0.0010811
1438	0.0013547
1450	0.0022515
1462	0.0028747
1474	0.0021299
1486	0.0010013
1498	0.0005092
1510	0.0003002
1522	0.0002185
1534	0.0002147
1546	0.0001539
1558	0.0001007
1570	0.0001387
1582	0.0001159
1594	0.0001425
1606	0.0001653
1618	9.5e-05
1630	0.0001026
1642	0.0001026
1654	7.6e-05
1666	4.75e-05
1678	5.51e-05
1690	3.23e-05
1702	2.28e-05
1714	2.09e-05
1726	8.93e-05
1738	3.8e-05
1750	3.23e-05
1762	3.04e-05
1774	2.47e-05
1786	7.41e-05
1798	0
1810	3.99e-05
1822	3.61e-05
1834	4.56e-05
1846	1.71e-05
1858	4.75e-05
1870	7.6e-06
1882	4.94e-05
1894	4.18e-05
1906	5.7e-05
1918	6.27e-05
1930	7.98e-05
1942	5.32e-05
1954	6.27e-05
1966	5.89e-05
1978	4.94e-05
1990	5.7e-05
2002	6.65e-05
2014	5.51e-05
2026	6.46e-05
2038	3.42e-05
2050	3.99e-05
2062	7.41e-05
2074	6.27e-05
2086	4.94e-05
2098	7.79e-05
2110	6.27e-05
2122	8.74e-05
2134	6.46e-05
2146	8.93e-05
2158	9.69e-05
2170	9.88e-05
2182	8.36e-05
2194	0.0001007
2206	0.0001045
2218	0.000114
2230	0.0001159
2242	0.0001425
2254	0.0001216
2266	0.0001235
2278	0.0001368
2290	0.0001539
2302	0.0001691
2314	0.0001824
2326	0.0001729
2338	0.0001862
2350	0.0002318
2362	0.0002071
2374	0.000228
2386	0.0002128
2398	0.0002451
2410	0.0002109
2422	0.0002394
2434	0.0001919
2446	0.0002394
2458	0.0002717
2470	0.0002508
2482	0.0002318
2494	0.0002375
2506	0.0002527
2518	0.0002907
2530	0.0002964
2542	0.000304
2554	0.0003496
2566	0.0003838
2578	0.0003781
2590	0.0004351
2602	0.000437
2614	0.000456
2626	0.0004902
2638	0.0005073
2650	0.0005491
2662	0.0005529
2674	0.0006042
2686	0.0005833
2698	0.0006137
2710	0.0006194
2722	0.0006422
2734	0.0007391
2746	0.0008075
2758	0.0007923
2770	0.0008151
2782	0.0008664
2794	0.0010526
2806	0.0012084
2818	0.0014725
2830	0.0018582
2842	0.0026999
2854	0.0045638
2866	0.0072903
2878	0.0096102
2890	0.0095266
2902	0.0090896
2914	0.0120878
2926	0.0153976
2938	0.0157187
2950	0.0139574
2962	0.0171665
2974	0.0178486
2986	0.0091238
2998	0.0034447
3010	0.0018582
3022	0.0013167
3034	0.0010792
3046	0.0009348
3058	0.0008341
3070	0.0008246
3082	0.0007619
3094	0.0006764
3106	0.0006289
3118	0.0006232
3130	0.0005814
3142	0.0005548
3154	0.0005643
3166	0.0005529
3178	0.0004674
3190	0.0005035
3202	0.000475
3214	0.0003838
3226	0.0003458
3238	0.0002831
3250	0.0002945
3262	0.0003667
3274	0.0002888
3286	0.0002546
3298	0.0002413
3310	0.0001729
3322	0.0002451
3334	0.0002451
3346	0.0002451
3358	0.0002375
3370	0.0002812
3382	0.0002698
3394	0.0002299
3406	0.0002394
3418	0.0002907
3430	0.000304
3442	0.0002717
3454	0.0002071
3466	0.0002204
3478	0.0001634
3490	0.0002014
3502	0.0001824
3514	0.0001843
3526	0.0001368
3538	0.0001235
3550	0.0001596
3562	7.79e-05
3574	0.0001653
3586	0.000133
3598	0.0001824
3610	0.0002242
3622	0.0003667
3634	0.0005985
3646	0.0009728
3658	0.0011894
3670	0.0006384
3682	0.0003268
3694	0.0002375
3706	0.0002394
3718	0.0001957
3730	0.0001957
3742	0.0001577
3754	0.0001368
3766	0.0002128
3778	0.0001444
3790	0.0002223
3802	0.000171
3814	0.0001995
3826	0.000152
3838	0.0002052
