Infrared Spectrum: PURINE, 2-(n-BUTYLAMINO)-6-(DIMETHYLAMINO)-
Formula: C11 H18 N6
CAS: 5463-10-5
State: SOLID (0.4 mg / 650 mg KBr DISC)
Class: COBLENTZ III
Instrument: PERKIN-ELMER 21 (GRATING)
Instrument parameters: FILTER CHANGE ABOUT 1020 CM^-^1
Sampling: TRANSMISSION
Resolution: 4
Origin: SOUTHERN RESEARCH INSTITUTE
1/CM	TRANSMITTANCE
614.445	0.918
622.785	0.919
631.124	0.9491
639.464	0.997
647.803	0.9943
656.143	0.9894
664.482	0.9814
672.822	0.967
681.161	0.9619
689.501	0.9447
697.84	0.9291
706.18	0.899
714.519	0.8969
722.859	0.8756
731.198	0.8501
739.538	0.8183
747.878	0.8492
756.217	0.8365
764.557	0.8152
772.896	0.7947
781.236	0.7445
789.575	0.7693
797.915	0.7816
806.254	0.7593
814.594	0.7232
822.933	0.6801
831.273	0.6737
839.612	0.7031
847.952	0.7389
856.291	0.7657
864.631	0.771
872.97	0.768
881.31	0.767
889.65	0.7594
897.989	0.7509
906.329	0.7335
914.668	0.7258
923.008	0.7077
931.347	0.6549
939.687	0.5601
948.026	0.7722
956.366	0.776
964.705	0.772
973.045	0.7692
981.384	0.7672
989.724	0.7613
998.063	0.756
1006.4	0.7488
1014.74	0.7198
1023.08	0.6985
1031.42	0.7268
1039.76	0.7506
1048.1	0.7463
1056.44	0.73
1064.78	0.734
1073.12	0.7082
1081.46	0.7036
1089.8	0.6504
1098.14	0.539
1106.48	0.7205
1114.82	0.748
1123.16	0.7251
1131.5	0.679
1139.84	0.6916
1148.18	0.728
1156.51	0.7526
1164.85	0.753
1173.19	0.7478
1181.53	0.7293
1189.87	0.685
1198.21	0.7076
1206.55	0.7407
1214.89	0.7294
1223.23	0.7018
1231.57	0.6866
1239.91	0.7096
1248.25	0.7015
1256.59	0.6683
1264.93	0.66
1273.27	0.6521
1281.61	0.5952
1289.95	0.6715
1298.29	0.684
1306.63	0.653
1314.97	0.5956
1323.31	0.5186
1331.64	0.6818
1339.98	0.6624
1348.32	0.6386
1356.66	0.6236
1365	0.5475
1373.34	0.5718
1381.68	0.5636
1390.02	0.5105
1398.36	0.4405
1406.7	0.4449
1415.04	0.5167
1423.38	0.4969
1431.72	0.5641
1440.06	0.5981
1448.4	0.6105
1456.74	0.5731
1465.08	0.4845
1473.42	0.4373
1481.76	0.3515
1490.1	0.4248
1498.44	0.428
1506.77	0.5146
1515.11	0.5958
1523.45	0.595
1531.79	0.5825
1540.13	0.5323
1548.47	0.5061
1556.81	0.4518
1565.15	0.3999
1573.49	0.2614
1581.83	0.1946
1590.17	0.2857
1598.51	0.3731
1606.85	0.2928
1615.19	0.3516
1623.53	0.4825
1631.87	0.5654
1640.21	0.6271
1648.55	0.6611
1656.89	0.7009
1665.23	0.7343
1673.57	0.7728
1681.91	0.7907
1690.24	0.8084
1698.58	0.8182
1706.92	0.8295
1715.26	0.832
1723.6	0.8318
1731.94	0.8369
1740.28	0.842
1748.62	0.845
1756.96	0.8491
1765.3	0.852
1773.64	0.851
1781.98	0.8481
1790.32	0.846
1798.66	0.846
1807	0.846
1815.34	0.846
1823.68	0.845
1832.02	0.846
1840.36	0.846
1848.7	0.8453
1857.04	0.845
1865.37	0.845
1873.71	0.844
1882.05	0.843
1890.39	0.842
1898.73	0.839
1907.07	0.838
1915.41	0.836
1923.75	0.836
1932.09	0.836
1940.43	0.835
1948.77	0.833
1957.11	0.832
1965.45	0.8297
1973.79	0.829
1982.13	0.827
1990.47	0.826
1998.81	0.827
2007.15	0.824
2015.49	0.824
2023.83	0.823
2032.17	0.817
2040.5	0.817
2048.84	0.817
2057.18	0.818
2065.52	0.817
2073.86	0.817
2082.2	0.817
2090.54	0.814
2098.88	0.813
2107.22	0.813
2115.56	0.811
2123.9	0.806
2132.24	0.806
2140.58	0.806
2148.92	0.806
2157.26	0.806
2165.6	0.806
2173.94	0.805
2182.28	0.805
2190.62	0.805
2198.96	0.803
2207.3	0.799
2215.64	0.799
2223.97	0.799
2232.31	0.798
2240.65	0.791
2248.99	0.79
2257.33	0.788
2265.67	0.786
2274.01	0.786
2282.35	0.785
2290.69	0.779
2299.03	0.778
2307.37	0.776
2315.71	0.778
2324.05	0.778
2332.39	0.778
2340.73	0.778
2349.07	0.778
2357.41	0.778
2365.75	0.778
2374.09	0.779
2382.43	0.778
2390.77	0.775
2399.1	0.772
2407.44	0.769
2415.78	0.769
2424.12	0.768
2432.46	0.766
2440.8	0.765
2449.14	0.763
2457.48	0.761
2465.82	0.755
2474.16	0.754
2482.5	0.75
2490.84	0.744
2499.18	0.742
2507.52	0.735
2515.86	0.733
2524.2	0.728
2532.54	0.717
2540.88	0.716
2549.22	0.715
2557.56	0.717
2565.9	0.716
2574.23	0.717
2582.57	0.715
2590.91	0.711
2599.25	0.709
2607.59	0.706
2615.93	0.702
2624.27	0.699
2632.61	0.699
2640.95	0.696
2649.29	0.691
2657.63	0.689
2665.97	0.684
2674.31	0.673
2682.65	0.664
2690.99	0.655
2699.33	0.653
2707.67	0.653
2716.01	0.654
2724.35	0.655
2732.69	0.655
2741.03	0.654
2749.37	0.648
2757.7	0.627
2766.04	0.61
2774.38	0.596
2782.72	0.584
2791.06	0.572
2799.4	0.564
2807.74	0.563
2816.08	0.564
2824.42	0.569
2832.76	0.567
2841.1	0.564
2849.44	0.567
2857.78	0.578
2866.12	0.584
2874.46	0.586
2882.8	0.584
2891.14	0.575
2899.48	0.558
2907.82	0.531
2916.16	0.531
2924.5	0.54
2932.83	0.55
2941.17	0.561
2949.51	0.568
2957.85	0.583
2966.19	0.596
2974.53	0.613
2982.87	0.622
2991.21	0.634
2999.55	0.645
3007.89	0.65
3016.23	0.65
3024.57	0.646
3032.91	0.641
3041.25	0.639
3049.59	0.627
3057.93	0.621
3066.27	0.616
3074.61	0.619
3082.95	0.625
3091.29	0.628
3099.63	0.641
3107.96	0.645
3116.3	0.657
3124.64	0.673
3132.98	0.688
3141.32	0.688
3149.66	0.686
3158	0.685
3166.34	0.685
3174.68	0.686
3183.02	0.686
3191.36	0.685
3199.7	0.686
3208.04	0.686
3216.38	0.688
3224.72	0.688
3233.06	0.682
3241.4	0.679
3249.74	0.678
3258.08	0.674
3266.42	0.673
3274.76	0.671
3283.1	0.666
3291.43	0.664
3299.77	0.66
3308.11	0.653
3316.45	0.646
3324.79	0.637
3333.13	0.625
3341.47	0.614
3349.81	0.602
3358.15	0.583
3366.49	0.575
3374.83	0.539
3383.17	0.518
3391.51	0.504
3399.85	0.512
3408.19	0.527
3416.53	0.565
3424.87	0.577
3433.21	0.59
3441.55	0.596
3449.89	0.6
3458.23	0.601
3466.56	0.603
3474.9	0.609
3483.24	0.615
3491.58	0.619
3499.92	0.623
3508.26	0.631
3516.6	0.635
3524.94	0.644
3533.28	0.647
3541.62	0.652
3549.96	0.658
3558.3	0.665
3566.64	0.676
3574.98	0.688
3583.32	0.697
3591.66	0.703
3600	0.708
3608.34	0.721
3616.68	0.723
3625.02	0.728
3633.36	0.736
3641.69	0.739
3650.03	0.74
3658.37	0.742
3666.71	0.742
3675.05	0.743
3683.39	0.743
3691.73	0.744
3700.07	0.744
3708.41	0.744
3716.75	0.744
3725.09	0.744
3733.43	0.744
3741.77	0.743
3750.11	0.741
3758.45	0.741
3766.79	0.742
3775.13	0.743
3783.47	0.741
3791.81	0.737
3800.15	0.736
3808.49	0.737
3816.83	0.735
3825.16	0.734
3833.5	0.734
3841.84	0.731
3850.18	0.731
3858.52	0.734
3866.86	0.733
3875.2	0.731
3883.54	0.731
3891.88	0.73
3900.22	0.731
3908.56	0.73
