Infrared Spectrum: 2-Methyl-3-decanone
Formula: C 11 H 22 O
CAS: 5463-82-1
State: gas
Instrument: HP-GC/MS/IRD
Origin: NIST Mass Spectrometry Data Center
1/CM	ABSORBANCE
550	0.0002346
562	0.0001656
574	0.000115
586	5.06e-05
598	0.0001932
610	0.0001748
622	0.0001104
634	0.0001472
646	0.000138
658	8.74e-05
670	1.84e-05
682	9.66e-05
694	0.0001932
706	0.0004922
718	0.0007314
730	0.0008096
742	0.000598
754	0.0005014
766	0.000529
778	0.0005704
790	0.0005382
802	0.0004968
814	0.0004968
826	0.0004554
838	0.0003542
850	0.0003496
862	0.0004278
874	0.0005382
886	0.000575
898	0.0005842
910	0.000667
922	0.0008832
934	0.000989
946	0.0011684
958	0.0014766
970	0.0019964
982	0.0026634
994	0.0033304
1006	0.0039698
1018	0.0037674
1030	0.0037168
1042	0.0041078
1054	0.0044344
1066	0.0043286
1078	0.003611
1090	0.0033258
1102	0.003588
1114	0.0035788
1126	0.0032844
1138	0.0025852
1150	0.0018952
1162	0.0014582
1174	0.0018078
1186	0.002254
1198	0.0023828
1210	0.001909
1222	0.0014904
1234	0.0013616
1246	0.0014582
1258	0.0016192
1270	0.001748
1282	0.0018768
1294	0.0021896
1306	0.0022862
1318	0.002415
1330	0.0030912
1342	0.0044896
1354	0.0054878
1366	0.0051152
1378	0.0049128
1390	0.0052072
1402	0.002898
1414	0.0027186
1426	0.0028382
1438	0.0035604
1450	0.005566
1462	0.0078016
1474	0.006854
1486	0.0031418
1498	0.0015548
1510	0.0009016
1522	0.0006072
1534	0.0004278
1546	0.000322
1558	0.0002944
1570	0.0002806
1582	0.000276
1594	0.000276
1606	0.0002898
1618	0.0003174
1630	0.0003818
1642	0.000483
1654	0.0006624
1666	0.0010258
1678	0.0018354
1690	0.0034316
1702	0.0076452
1714	0.0167164
1726	0.0210358
1738	0.010235
1750	0.0035282
1762	0.0015088
1774	0.0007636
1786	0.0004416
1798	0.0003036
1810	0.0002116
1822	0.0001426
1834	0.0001288
1846	0.0001196
1858	9.66e-05
1870	9.2e-05
1882	6.44e-05
1894	6.44e-05
1906	4.6e-05
1918	5.52e-05
1930	4.14e-05
1942	5.06e-05
1954	2.3e-05
1966	1.84e-05
1978	2.76e-05
1990	4.6e-06
2002	2.3e-05
2014	1.84e-05
2026	5.52e-05
2038	5.98e-05
2050	5.98e-05
2062	4.14e-05
2074	3.22e-05
2086	1.38e-05
2098	2.3e-05
2110	1.84e-05
2122	3.22e-05
2134	3.22e-05
2146	1.84e-05
2158	2.76e-05
2170	2.76e-05
2182	3.68e-05
2194	1.84e-05
2206	5.06e-05
2218	2.3e-05
2230	4.6e-05
2242	7.36e-05
2254	7.82e-05
2266	4.14e-05
2278	7.36e-05
2290	5.98e-05
2302	6.9e-05
2314	8.74e-05
2326	8.74e-05
2338	0.0001058
2350	0.0001104
2362	0.0001196
2374	0.0001058
2386	9.2e-05
2398	8.74e-05
2410	6.9e-05
2422	9.66e-05
2434	0.0001012
2446	9.2e-05
2458	0.0001104
2470	8.74e-05
2482	7.82e-05
2494	9.2e-05
2506	0.0001058
2518	0.0001012
2530	0.0001518
2542	0.0001656
2554	0.0001932
2566	0.0001702
2578	0.0002024
2590	0.0002254
2602	0.0002392
2614	0.0002944
2626	0.0003312
2638	0.0003634
2650	0.000414
2662	0.0004968
2674	0.0005336
2686	0.000575
2698	0.0005566
2710	0.0005612
2722	0.0006348
2734	0.0007406
2746	0.0008326
2758	0.0008786
2770	0.0009844
2782	0.0011546
2794	0.0015134
2806	0.0019228
2818	0.0025806
2830	0.0035144
2842	0.0056718
2854	0.011523
2866	0.0178572
2878	0.019044
2890	0.0188462
2902	0.0204148
2914	0.0272136
2926	0.0403052
2938	0.0458988
2950	0.037513
2962	0.0348864
2974	0.0355396
2986	0.0191084
2998	0.0087354
3010	0.0046046
3022	0.0028152
3034	0.0019642
3046	0.0014996
3058	0.001242
3070	0.0010718
3082	0.0009568
3094	0.0009108
3106	0.0008326
3118	0.000736
3130	0.0006486
3142	0.000621
3154	0.0005612
3166	0.000575
3178	0.0005566
3190	0.0004738
3202	0.0004508
3214	0.000299
3226	0.00023
3238	0.0001702
3250	0.000115
3262	0.000138
3274	8.74e-05
3286	0.0001104
3298	9.66e-05
3310	0.0001058
3322	0.0001012
3334	9.2e-05
3346	9.2e-05
3358	7.36e-05
3370	0.0001472
3382	0.0001472
3394	0.0001886
3406	0.000276
3418	0.0003956
3430	0.000437
3442	0.000322
3454	0.0001932
3466	0.0001334
3478	8.74e-05
3490	3.68e-05
3502	4.14e-05
3514	3.22e-05
3526	6.44e-05
3538	3.68e-05
3550	3.68e-05
3562	4.6e-05
3574	3.68e-05
3586	3.68e-05
3598	3.68e-05
3610	6.44e-05
3622	6.44e-05
3634	5.06e-05
3646	7.82e-05
3658	8.28e-05
3670	8.28e-05
3682	7.36e-05
3694	6.44e-05
3706	0.0001196
3718	8.28e-05
3730	8.28e-05
3742	9.66e-05
3754	0.0001334
3766	0.000115
3778	8.74e-05
3790	0.0001426
3802	0.0001334
3814	0.0001472
3826	0.0001472
3838	0.0001058
