Infrared Spectrum: Alpha^2,Alpha^4,Alpha^6-TRI(4-MORPHOLINYL)MESITOL
Formula: C21 H33 N3 O4
CAS: 5464-87-9
State: SOLUTION (10% CCl4 FOR 5000-1330, 10% CS2 FOR 1330-625 CM^-^1)
Class: COBLENTZ
Instrument: Not specified, most likely a prism, grating, or hybrid spectrometer.
Sampling: TRANSMISSION
Path length: 0.0128 CM, 0.0126 CM
Resolution: 4
Origin: DOW CHEMICAL COMPANY
MICROMETERS	TRANSMITTANCE
2.04	0.89
2.0801	0.894
2.12019	0.895
2.16029	0.894
2.20038	0.882
2.24048	0.872
2.28057	0.869
2.32067	0.869
2.36077	0.869
2.40086	0.864
2.44096	0.869
2.48105	0.864
2.52115	0.87
2.56124	0.872
2.60134	0.877
2.64144	0.877
2.68153	0.877
2.72163	0.875
2.76172	0.869
2.80182	0.867
2.84192	0.862
2.88201	0.85
2.92211	0.831
2.9622	0.799
3.0023	0.763
3.04239	0.725
3.08249	0.677
3.12259	0.637
3.16268	0.609
3.20278	0.592
3.24287	0.576
3.28297	0.544
3.32306	0.463
3.36316	0.142
3.40326	0.168
3.44335	0.17
3.48345	0.109
3.52354	0.105
3.56364	0.175
3.60373	0.284
3.64383	0.438
3.68393	0.49
3.72402	0.551
3.76412	0.617
3.80421	0.662
3.84431	0.695
3.8844	0.728
3.9245	0.751
3.9646	0.759
4.00469	0.774
4.04479	0.793
4.08488	0.799
4.12498	0.806
4.16507	0.811
4.20517	0.811
4.24527	0.816
4.28536	0.814
4.32546	0.807
4.36555	0.811
4.40565	0.816
4.44575	0.827
4.48584	0.836
4.52594	0.846
4.56603	0.849
4.60613	0.849
4.64622	0.846
4.68632	0.85
4.72642	0.847
4.76651	0.842
4.80661	0.849
4.8467	0.852
4.8868	0.85
4.92689	0.834
4.96699	0.839
5.00709	0.816
5.04718	0.812
5.08728	0.842
5.12737	0.846
5.16747	0.826
5.20756	0.841
5.24766	0.85
5.28776	0.854
5.32785	0.849
5.36795	0.849
5.40804	0.85
5.44814	0.849
5.48823	0.846
5.52833	0.837
5.56843	0.834
5.60852	0.836
5.64862	0.824
5.68871	0.788
5.72881	0.751
5.76891	0.821
5.809	0.829
5.8491	0.839
5.88919	0.842
5.92929	0.847
5.96938	0.847
6.00948	0.844
6.04958	0.832
6.08967	0.801
6.12977	0.723
6.16986	0.567
6.20996	0.584
6.25005	0.594
6.29015	0.562
6.33025	0.546
6.37034	0.504
6.41044	0.453
6.45053	0.427
6.49063	0.529
6.53072	0.571
6.57082	0.615
6.61092	0.65
6.65101	0.64
6.69111	0.514
6.7312	0.268
6.7713	0.188
6.81139	0.216
6.85149	0.165
6.89159	0.304
6.93168	0.567
6.97178	0.678
7.01187	0.668
7.05197	0.609
7.09206	0.518
7.13216	0.433
7.17226	0.382
7.21235	0.488
7.25245	0.534
7.29254	0.483
7.33264	0.506
7.37274	0.326
7.41283	0.17
7.45293	0.425
7.49302	0.256
7.53312	0.476
7.57321	0.447
7.61331	0.281
7.65341	0.173
7.6935	0.158
7.7336	0.201
7.77369	0.291
7.81379	0.359
7.85388	0.301
7.89398	0.301
7.93408	0.392
7.97417	0.44
8.01427	0.435
8.05436	0.425
8.09446	0.463
8.13455	0.44
8.17465	0.559
8.21475	0.64
8.25484	0.576
8.29494	0.69
8.33503	0.804
8.37513	0.812
8.41522	0.814
8.45532	0.793
8.49542	0.741
8.53551	0.657
8.57561	0.536
8.6157	0.465
8.6558	0.412
8.69589	0.342
8.73599	0.331
8.77609	0.281
8.81618	0.205
8.85628	0.114
8.89637	0.024
8.93647	0.006
8.97657	0.008
9.01666	0.158
9.05676	0.437
9.09685	0.639
9.13695	0.71
9.17704	0.754
9.21714	0.759
9.25724	0.731
9.29733	0.599
9.33743	0.437
9.37752	0.571
9.41762	0.769
9.45771	0.793
9.49781	0.789
9.53791	0.764
9.578	0.743
9.6181	0.605
9.65819	0.468
9.69829	0.43
9.73838	0.546
9.77848	0.46
9.81858	0.316
9.85867	0.324
9.89877	0.423
9.93886	0.405
9.97896	0.445
10.0191	0.422
10.0592	0.347
10.0992	0.395
10.1393	0.642
10.1794	0.735
10.2195	0.779
10.2596	0.799
10.2997	0.817
10.3398	0.829
10.3799	0.834
10.42	0.836
10.4601	0.826
10.5002	0.822
10.5403	0.834
10.5804	0.846
10.6205	0.857
10.6606	0.857
10.7007	0.855
10.7408	0.837
10.7809	0.802
10.821	0.745
10.8611	0.683
10.9012	0.562
10.9413	0.427
10.9814	0.288
11.0214	0.241
11.0615	0.258
11.1016	0.349
11.1417	0.47
11.1818	0.504
11.2219	0.422
11.262	0.322
11.3021	0.226
11.3422	0.23
11.3823	0.307
11.4224	0.397
11.4625	0.43
11.5026	0.344
11.5427	0.157
11.5828	0.049
11.6229	0.105
11.663	0.298
11.7031	0.442
11.7432	0.495
11.7833	0.584
11.8234	0.647
11.8635	0.678
11.9036	0.711
11.9437	0.731
11.9837	0.736
12.0238	0.746
12.0639	0.748
12.104	0.748
12.1441	0.745
12.1842	0.736
12.2243	0.726
12.2644	0.7
12.3045	0.653
12.3446	0.591
12.3847	0.531
12.4248	0.485
12.4649	0.448
12.505	0.42
12.5451	0.42
12.5852	0.473
12.6253	0.529
12.6654	0.523
12.7055	0.481
12.7456	0.43
12.7857	0.442
12.8258	0.518
12.8659	0.576
12.9059	0.634
12.946	0.653
12.9861	0.667
13.0262	0.67
13.0663	0.68
13.1064	0.695
13.1465	0.71
13.1866	0.713
13.2267	0.701
13.2668	0.692
13.3069	0.687
13.347	0.692
13.3871	0.698
13.4272	0.7
13.4673	0.693
13.5074	0.695
13.5475	0.715
13.5876	0.735
13.6277	0.743
13.6678	0.745
13.7079	0.745
13.748	0.738
13.7881	0.735
13.8282	0.731
13.8682	0.726
13.9083	0.723
13.9484	0.715
13.9885	0.71
14.0286	0.698
14.0687	0.695
14.1088	0.688
14.1489	0.682
14.189	0.677
14.2291	0.675
14.2692	0.67
14.3093	0.667
14.3494	0.663
14.3895	0.662
14.4296	0.653
14.4697	0.649
14.5098	0.642
14.5499	0.634
14.59	0.627
14.6301	0.622
14.6702	0.609
14.7103	0.6
14.7504	0.591
14.7904	0.582
14.8305	0.574
14.8706	0.566
14.9107	0.557
14.9508	0.544
14.9909	0.534
15.031	0.524
15.0711	0.508
15.1112	0.495
15.1513	0.481
15.1914	0.471
15.2315	0.46
15.2716	0.448
15.3117	0.437
15.3518	0.427
15.3919	0.418
15.432	0.417
15.4721	0.412
15.5122	0.403
15.5523	0.4
15.5924	0.397
15.6325	0.392
15.6726	0.379
15.7127	0.367
15.7527	0.362
15.7928	0.354
15.8329	0.349
15.873	0.346
