Infrared Spectrum: 3,4-Dimethylcyclohexanone
Formula: C 8 H 14 O
CAS: 5465-09-8
State: gas
Instrument: HP-GC/MS/IRD
Origin: NIST Mass Spectrometry Data Center
1/CM	ABSORBANCE
550	0.0002983
562	0.0001976
574	8.93e-05
586	7.41e-05
598	0.0001596
610	0.0001881
622	0.00019
634	0.0002584
646	0.0001824
658	0.0002717
670	0.0002812
682	0.0002888
694	0.0002926
706	0.0002926
718	0.0003591
730	0.0003477
742	0.0004332
754	0.0004617
766	0.0004902
778	0.0005092
790	0.0003401
802	0.0003268
814	0.0003135
826	0.0003819
838	0.0004218
850	0.0004351
862	0.0004218
874	0.0003325
886	0.0002641
898	0.0003021
910	0.0003496
922	0.0003914
934	0.0004427
946	0.0004199
958	0.0004085
970	0.0005434
982	0.0005719
994	0.0006137
1006	0.0006099
1018	0.0005795
1030	0.0004598
1042	0.0004845
1054	0.0008056
1066	0.0013737
1078	0.0015827
1090	0.0011229
1102	0.00076
1114	0.0007372
1126	0.000779
1138	0.0009975
1150	0.001444
1162	0.0016853
1174	0.0016511
1186	0.0017727
1198	0.0017005
1210	0.0014858
1222	0.0015846
1234	0.0016986
1246	0.0013794
1258	0.0010602
1270	0.0010526
1282	0.0009519
1294	0.0008987
1306	0.0010488
1318	0.0012616
1330	0.0015181
1342	0.0014782
1354	0.0011951
1366	0.0011305
1378	0.0018183
1390	0.0022306
1402	0.0014345
1414	0.0017347
1426	0.0024111
1438	0.0023617
1450	0.0023522
1462	0.0025327
1474	0.0018373
1486	0.0009386
1498	0.0004883
1510	0.0003211
1522	0.0002698
1534	0.0002356
1546	0.0002565
1558	0.0002394
1570	0.0002489
1582	0.0002812
1594	0.0002945
1606	0.0003097
1618	0.0003838
1630	0.0004275
1642	0.0005263
1654	0.0006574
1666	0.0007923
1678	0.0010944
1690	0.0017385
1702	0.0032794
1714	0.0080693
1726	0.01729
1738	0.0175294
1750	0.0072447
1762	0.0024757
1774	0.0011343
1786	0.0006954
1798	0.0005491
1810	0.0004085
1822	0.0003059
1834	0.0002394
1846	0.0002014
1858	0.0001976
1870	0.0001596
1882	0.0001425
1894	0.0001349
1906	0.0001216
1918	0.0001216
1930	0.0001121
1942	0.0001045
1954	8.55e-05
1966	7.03e-05
1978	9.69e-05
1990	7.03e-05
2002	9.5e-05
2014	7.79e-05
2026	7.79e-05
2038	7.79e-05
2050	7.03e-05
2062	8.74e-05
2074	5.89e-05
2086	6.27e-05
2098	4.94e-05
2110	8.17e-05
2122	5.89e-05
2134	4.56e-05
2146	3.8e-05
2158	6.27e-05
2170	5.7e-05
2182	6.46e-05
2194	2.85e-05
2206	7.03e-05
2218	2.09e-05
2230	3.8e-05
2242	3.04e-05
2254	1.52e-05
2266	3.42e-05
2278	4.94e-05
2290	4.37e-05
2302	4.75e-05
2314	3.04e-05
2326	2.47e-05
2338	6.08e-05
2350	6.65e-05
2362	6.65e-05
2374	1.9e-05
2386	6.84e-05
2398	6.65e-05
2410	8.93e-05
2422	7.79e-05
2434	8.93e-05
2446	7.79e-05
2458	8.55e-05
2470	8.36e-05
2482	7.79e-05
2494	9.5e-05
2506	9.88e-05
2518	9.12e-05
2530	9.88e-05
2542	0.0001349
2554	0.0001197
2566	0.0001425
2578	0.0001444
2590	0.0001672
2602	0.0001748
2614	0.0002128
2626	0.000228
2638	0.0002698
2650	0.0002527
2662	0.0002812
2674	0.0003021
2686	0.0003325
2698	0.000285
2710	0.0002812
2722	0.0002755
2734	0.0003249
2746	0.0003743
2758	0.0003401
2770	0.0003363
2782	0.0003629
2794	0.0004503
2806	0.0005282
2818	0.0007486
2830	0.0010697
2842	0.0013243
2854	0.0020045
2866	0.0039691
2878	0.0066747
2890	0.0083258
2902	0.0088483
2914	0.0078983
2926	0.0089832
2938	0.0105754
2950	0.0107179
2962	0.0136819
2974	0.0137655
2986	0.006403
2998	0.0019247
3010	0.0009215
3022	0.0006536
3034	0.0005814
3046	0.0005035
3058	0.000456
3070	0.0003971
3082	0.0004199
3094	0.0004199
3106	0.0003914
3118	0.0003344
3130	0.0003154
3142	0.0003306
3154	0.0003116
3166	0.0002508
3178	0.0001938
3190	0.0002318
3202	0.0002052
3214	0.0001558
3226	0.0001273
3238	0.0001026
3250	0.0001577
3262	0.0001482
3274	0.0001007
3286	0.0001482
3298	0.0001026
3310	0.0001045
3322	6.46e-05
3334	8.93e-05
3346	0.0001197
3358	8.93e-05
3370	9.88e-05
3382	0.0001368
3394	0.0001159
3406	0.0001577
3418	0.0001767
3430	0.0002774
3442	0.0003971
3454	0.0003192
3466	0.000228
3478	0.0001482
3490	9.31e-05
3502	0.0001406
3514	9.12e-05
3526	4.75e-05
3538	3.99e-05
3550	4.56e-05
3562	7.98e-05
3574	1.9e-05
3586	5.89e-05
3598	5.13e-05
3610	1.9e-05
3622	3.04e-05
3634	2.85e-05
3646	5.89e-05
3658	4.75e-05
3670	6.65e-05
3682	6.84e-05
3694	9.5e-06
3706	7.6e-06
3718	7.41e-05
3730	7.98e-05
3742	4.94e-05
3754	3.23e-05
3766	6.08e-05
3778	7.79e-05
3790	4.18e-05
3802	9.5e-05
3814	0.0001045
3826	0.0001216
3838	0.0001083
