Infrared Spectrum: 9H-PURINE, 6-CHLORO-2,9-DIETHYL
Formula: C9 H11 Cl N4
CAS: 5466-13-7
State: SOLID (1.3 mg / 650 mg KBr DISC)
Class: COBLENTZ III
Instrument: PERKIN-ELMER 21 (GRATING)
Instrument parameters: FILTER CHANGE AT 1090 CM^-^1
Sampling: TRANSMISSION
Resolution: 2
Origin: SOUTHERN RESEARCH INSTITUTE
1/CM	TRANSMITTANCE
603.757	0.772
612.922	0.7668
622.088	0.7337
631.253	0.682
640.418	0.5916
649.584	0.5211
658.749	0.8003
667.914	0.81
677.079	0.8081
686.245	0.7892
695.41	0.7455
704.575	0.7831
713.741	0.795
722.906	0.7941
732.071	0.797
741.237	0.787
750.402	0.788
759.567	0.776
768.732	0.77
777.898	0.75
787.063	0.7013
796.228	0.6167
805.394	0.5116
814.559	0.6464
823.724	0.7114
832.89	0.7342
842.055	0.72
851.22	0.6975
860.385	0.6412
869.551	0.5153
878.716	0.2398
887.881	0.434
897.047	0.6289
906.212	0.6887
915.377	0.711
924.543	0.7033
933.708	0.656
942.873	0.4211
952.038	0.3125
961.204	0.6554
970.369	0.6608
979.534	0.6514
988.7	0.6774
997.865	0.664
1007.03	0.6109
1016.2	0.6361
1025.36	0.638
1034.53	0.6297
1043.69	0.6154
1052.86	0.6001
1062.02	0.562
1071.19	0.5289
1080.35	0.563
1089.52	0.563
1098.68	0.563
1107.85	0.562
1117.01	0.562
1126.18	0.56
1135.34	0.5063
1144.51	0.3938
1153.68	0.119
1162.84	0.4522
1172.01	0.602
1181.17	0.5922
1190.34	0.5594
1199.5	0.4197
1208.67	0.2502
1217.83	0.2491
1227	0.2044
1236.16	0.3719
1245.33	0.5042
1254.49	0.59
1263.66	0.5753
1272.82	0.5397
1281.99	0.4775
1291.15	0.4614
1300.32	0.4885
1309.49	0.3839
1318.65	0.362
1327.82	0.3672
1336.98	0.432
1346.15	0.4002
1355.31	0.3099
1364.48	0.2361
1373.64	0.2865
1382.81	0.335
1391.97	0.2868
1401.14	0.1858
1410.3	0.1417
1419.47	0.3593
1428.63	0.3899
1437.8	0.358
1446.96	0.431
1456.13	0.3793
1465.3	0.3538
1474.46	0.3053
1483.63	0.5648
1492.79	0.5812
1501.96	0.5035
1511.12	0.3618
1520.29	0.3703
1529.45	0.5092
1538.62	0.4834
1547.78	0.3194
1556.95	0.0973
1566.11	0.122
1575.28	0.2766
1584.44	0.393
1593.61	0.3289
1602.77	0.1438
1611.94	0.2008
1621.11	0.4188
1630.27	0.4942
1639.44	0.527
1648.6	0.532
1657.77	0.5689
1666.93	0.5844
1676.1	0.595
1685.26	0.6139
1694.43	0.6245
1703.59	0.6344
1712.76	0.643
1721.92	0.642
1731.09	0.6388
1740.25	0.6298
1749.42	0.628
1758.58	0.628
1767.75	0.6317
1776.92	0.6433
1786.08	0.6547
1795.25	0.6676
1804.41	0.673
1813.58	0.6748
1822.74	0.6817
1831.91	0.681
1841.07	0.681
1850.24	0.686
1859.4	0.683
1868.57	0.6801
1877.73	0.682
1886.9	0.678
1896.06	0.68
1905.23	0.6791
1914.39	0.6766
1923.56	0.6747
1932.73	0.676
1941.89	0.676
1951.06	0.676
1960.22	0.67
1969.39	0.673
1978.55	0.673
1987.72	0.672
1996.88	0.672
2006.05	0.672
2015.21	0.6684
2024.38	0.663
2033.54	0.665
2042.71	0.663
2051.87	0.66
2061.04	0.659
2070.21	0.659
2079.37	0.659
2088.54	0.6562
2097.7	0.654
2106.87	0.6514
2116.03	0.6516
2125.2	0.648
2134.36	0.643
2143.53	0.643
2152.69	0.646
2161.86	0.642
2171.02	0.643
2180.19	0.641
2189.35	0.638
2198.52	0.638
2207.68	0.639
2216.85	0.638
2226.02	0.6348
2235.18	0.6308
2244.35	0.628
2253.51	0.629
2262.68	0.6284
2271.84	0.628
2281.01	0.626
2290.17	0.626
2299.34	0.624
2308.5	0.624
2317.67	0.6244
2326.83	0.623
2336	0.62
2345.16	0.62
2354.33	0.62
2363.49	0.615
2372.66	0.6114
2381.83	0.61
2390.99	0.608
2400.16	0.606
2409.32	0.606
2418.49	0.602
2427.65	0.5974
2436.82	0.594
2445.98	0.593
2455.15	0.594
2464.31	0.5921
2473.48	0.5886
2482.64	0.5904
2491.81	0.586
2500.97	0.5936
2510.14	0.5974
2519.3	0.5854
2528.47	0.5809
2537.64	0.575
2546.8	0.576
2555.97	0.577
2565.13	0.573
2574.3	0.571
2583.46	0.569
2592.63	0.568
2601.79	0.575
2610.96	0.573
2620.12	0.571
2629.29	0.571
2638.45	0.568
2647.62	0.5648
2656.78	0.5632
2665.95	0.569
2675.11	0.569
2684.28	0.5684
2693.45	0.558
2702.61	0.5544
2711.78	0.55
2720.94	0.55
2730.11	0.5522
2739.27	0.555
2748.44	0.5465
2757.6	0.5374
2766.77	0.5412
2775.93	0.545
2785.1	0.5415
2794.26	0.529
2803.43	0.527
2812.59	0.514
2821.76	0.514
2830.92	0.5064
2840.09	0.4844
2849.26	0.4695
2858.42	0.4555
2867.59	0.4381
2876.75	0.4268
2885.92	0.422
2895.08	0.423
2904.25	0.424
2913.41	0.4055
2922.58	0.3765
2931.74	0.3568
2940.91	0.334
2950.07	0.3548
2959.24	0.37
2968.4	0.3467
2977.57	0.3087
2986.74	0.3056
2995.9	0.3536
3005.07	0.4115
3014.23	0.4568
3023.4	0.4806
3032.56	0.4862
3041.73	0.4952
3050.89	0.497
3060.06	0.4941
3069.22	0.483
3078.39	0.4744
3087.55	0.4593
3096.72	0.4546
3105.88	0.463
3115.05	0.4656
3124.21	0.4901
3133.38	0.5
3142.55	0.5
3151.71	0.5
3160.88	0.5
3170.04	0.498
3179.21	0.498
3188.37	0.492
3197.54	0.492
3206.7	0.488
3215.87	0.487
3225.03	0.481
3234.2	0.489
3243.36	0.4834
3252.53	0.4754
3261.69	0.471
3270.86	0.47
3280.02	0.47
3289.19	0.47
3298.36	0.4624
3307.52	0.462
3316.69	0.462
3325.85	0.4591
3335.02	0.455
3344.18	0.457
3353.35	0.454
3362.51	0.4524
3371.68	0.4444
3380.84	0.4378
3390.01	0.4338
3399.17	0.43
3408.34	0.427
3417.5	0.424
3426.67	0.422
3435.83	0.422
3445	0.422
3454.17	0.4226
3463.33	0.4288
3472.5	0.4342
3481.66	0.435
3490.83	0.4338
3499.99	0.4366
3509.16	0.4456
3518.32	0.448
3527.49	0.4542
3536.65	0.455
3545.82	0.4649
3554.98	0.4756
3564.15	0.4806
3573.31	0.484
3582.48	0.4886
3591.64	0.4936
3600.81	0.5016
3609.98	0.5146
3619.14	0.5225
3628.31	0.5326
3637.47	0.542
3646.64	0.5488
3655.8	0.551
3664.97	0.549
3674.13	0.551
3683.3	0.5596
3692.46	0.564
3701.63	0.567
3710.79	0.569
3719.96	0.573
3729.12	0.577
3738.29	0.582
3747.45	0.5778
3756.62	0.572
3765.79	0.576
3774.95	0.5764
3784.12	0.575
3793.28	0.5832
3802.45	0.5854
3811.61	0.5814
3820.78	0.5764
3829.94	0.5698
3839.11	0.575
3848.27	0.576
3857.44	0.581
3866.6	0.5798
3875.77	0.577
3884.93	0.576
3894.1	0.579
3903.27	0.572
3912.43	0.577
3921.6	0.58
3930.76	0.5814
3939.93	0.575
3949.09	0.5724
3958.26	0.572
3967.42	0.572
3976.59	0.572
3985.75	0.571
3994.92	0.5686
4004.08	0.576
