Infrared Spectrum: 4-Nitrophthalic anhydride
Formula: C 8 H 3 N O 5
CAS: 5466-84-2
State: gas
Origin: EPA-IR VAPOR PHASE LIBRARY
1/CM	ABSORBANCE
549.8	0.003064
559.445	0.001374
569.09	0.0010147
578.734	0.001324
588.379	0.003534
598.024	0.007494
607.669	0.006604
617.313	0.003134
626.958	0.001954
636.603	0.001794
646.248	0.001624
655.893	0.002134
665.537	0.002254
675.182	0.002804
684.827	0.008524
694.472	0.024224
704.116	0.035304
713.761	0.059304
723.406	0.026844
733.051	0.006514
742.695	0.002674
752.34	0.001854
761.985	0.001424
771.63	0.001244
781.275	0.001524
790.919	0.002964
800.564	0.007134
810.209	0.034154
819.854	0.024144
829.498	0.004384
839.143	0.003664
848.788	0.008024
858.433	0.015014
868.078	0.014304
877.722	0.025684
887.367	0.055944
897.012	0.073414
906.657	0.064714
916.301	0.082754
925.946	0.113924
935.591	0.083684
945.236	0.034834
954.88	0.017084
964.525	0.009684
974.17	0.005544
983.815	0.002794
993.46	0.002064
1003.1	0.002194
1012.75	0.002304
1022.39	0.002504
1032.04	0.002574
1041.68	0.005504
1051.33	0.010064
1060.97	0.008044
1070.62	0.005274
1080.26	0.007184
1089.91	0.013644
1099.55	0.023754
1109.2	0.016394
1118.84	0.026334
1128.49	0.038914
1138.13	0.008804
1147.78	0.002954
1157.42	0.004934
1167.07	0.005844
1176.71	0.004214
1186.36	0.004734
1196	0.007114
1205.64	0.011034
1215.29	0.018064
1224.93	0.030304
1234.58	0.062304
1244.22	0.092604
1253.87	0.103864
1263.51	0.114314
1273.16	0.045894
1282.8	0.017374
1292.45	0.011584
1302.09	0.011574
1311.74	0.015124
1321.38	0.029384
1331.03	0.063814
1340.67	0.080214
1350.32	0.057364
1359.96	0.036624
1369.61	0.015674
1379.25	0.007024
1388.9	0.005524
1398.54	0.006294
1408.18	0.005654
1417.83	0.004384
1427.47	0.006384
1437.12	0.007784
1446.76	0.005874
1456.41	0.005354
1466.05	0.005954
1475.7	0.005224
1485.34	0.004664
1494.99	0.006814
1504.63	0.012014
1514.28	0.017504
1523.92	0.016094
1533.57	0.015344
1543.21	0.034174
1552.86	0.090324
1562.5	0.114734
1572.15	0.057694
1581.79	0.021564
1591.44	0.018094
1601.08	0.019604
1610.73	0.015664
1620.37	0.012014
1630.01	0.007904
1639.66	0.004554
1649.3	0.003404
1658.95	0.003194
1668.59	0.002854
1678.24	0.002374
1687.88	0.002064
1697.53	0.002274
1707.17	0.003144
1716.82	0.004294
1726.46	0.004504
1736.11	0.004544
1745.75	0.005424
1755.4	0.008204
1765.04	0.015844
1774.69	0.035484
1784.33	0.080914
1793.98	0.155114
1803.62	0.258774
1813.27	0.282384
1822.91	0.173924
1832.55	0.087324
1842.2	0.047994
1851.84	0.039234
1861.49	0.040984
1871.13	0.061814
1880.78	0.068764
1890.42	0.044104
1900.07	0.022714
1909.71	0.009494
1919.36	0.004904
1929	0.004104
1938.65	0.004604
1948.29	0.004824
1957.94	0.004194
1967.58	0.003254
1977.23	0.003114
1986.87	0.003124
1996.52	0.003314
2006.16	0.003424
2015.81	0.003224
2025.45	0.003044
2035.1	0.002684
2044.74	0.002514
2054.38	0.002404
2064.03	0.001834
2073.67	0.001384
2083.32	0.001154
2092.96	0.001134
2102.61	0.000944
2112.25	0.0009736
2121.9	0.0010134
2131.54	0.001184
2141.19	0.001384
2150.83	0.001494
2160.48	0.001484
2170.12	0.001464
2179.77	0.001424
2189.41	0.001324
2199.06	0.0010555
2208.7	0.0010437
2218.35	0.0008936
2227.99	0.0008155
2237.64	0.0008099
2247.28	0.000995
2256.92	0.0010668
2266.57	0.001174
2276.21	0.0010114
2285.86	0.0008933
2295.5	0.0009706
2305.15	0.0008947
2314.79	0.0006877
2324.44	0.0005797
2334.08	0.0004982
2343.73	0.000679
2353.37	0.000773
2363.02	0.0008992
2372.66	0.0007959
2382.31	0.0006803
2391.95	0.0007357
2401.6	0.0006516
2411.24	0.000786
2420.89	0.0007262
2430.53	0.0007453
2440.18	0.0006518
2449.82	0.0006661
2459.47	0.0006401
2469.11	0.0006393
2478.75	0.0006814
2488.4	0.0005886
2498.04	0.0006403
2507.69	0.0006696
2517.33	0.0007229
2526.98	0.0006272
2536.62	0.0005318
2546.27	0.0004023
2555.91	0.0004332
2565.56	0.0004739
2575.2	0.0004955
2584.85	0.0006207
2594.49	0.000694
2604.14	0.0005348
2613.78	0.000637
2623.43	0.0004986
2633.07	0.0005166
2642.72	0.0005637
2652.36	0.0007501
2662.01	0.0007918
2671.65	0.001144
2681.29	0.001404
2690.94	0.001404
2700.58	0.001334
2710.23	0.001154
2719.87	0.0009713
2729.52	0.0006766
2739.16	0.0006856
2748.81	0.0005941
2758.45	0.0006883
2768.1	0.0009202
2777.74	0.0010794
2787.39	0.0008013
2797.03	0.0006698
2806.68	0.0005761
2816.32	0.0006589
2825.97	0.0006315
2835.61	0.0007719
2845.26	0.0007861
2854.9	0.0010347
2864.55	0.001084
2874.19	0.001424
2883.84	0.002264
2893.48	0.002344
2903.12	0.002224
2912.77	0.001634
2922.41	0.001204
2932.06	0.0011191
2941.7	0.0010651
2951.35	0.0009928
2960.99	0.0008486
2970.64	0.000629
2980.28	0.0006927
2989.93	0.0005714
2999.57	0.0005956
3009.22	0.0004993
3018.86	0.0006138
3028.51	0.0005148
3038.15	0.0009161
3047.8	0.001224
3057.44	0.001464
3067.09	0.001524
3076.73	0.001934
3086.38	0.003324
3096.02	0.004694
3105.67	0.005224
3115.31	0.003444
3124.95	0.001244
3134.6	0.0004774
3144.24	0.0003735
3153.89	0.0002705
3163.53	0.0004366
3173.18	0.0003958
3182.82	0.0003837
3192.47	0.0003417
3202.11	0.0003071
3211.76	0.0002887
3221.4	0.00021379
3231.05	0.0004365
3240.69	0.000418
3250.34	0.00019319
3259.98	0.0002763
3269.63	0.0003032
3279.27	0.0003651
3288.92	0.0002395
3298.56	0.000129755
3308.21	0.00015238
3317.85	0.0002311
3327.49	0.0002716
3337.14	0.000327
3346.78	0.0003936
3356.43	0.0003073
3366.07	0.00013534
3375.72	0.000444
3385.36	0.000369
3395.01	0.0003457
3404.65	0.0005061
3414.3	0.0005037
3423.94	0.0002274
3433.59	0.00022343
3443.23	0.000335
3452.88	0.0004713
3462.52	0.0003148
3472.17	0.0002955
3481.81	0.0004177
3491.46	0.0003636
3501.1	0.0004214
3510.75	0.0002899
3520.39	0.0004735
3530.04	0.0003411
3539.68	0.0003577
3549.32	0.0003242
3558.97	0.0005754
3568.61	0.0007003
3578.26	0.0008974
3587.9	0.001194
3597.55	0.001624
3607.19	0.002204
3616.84	0.002474
3626.48	0.002864
3636.13	0.003284
3645.77	0.003444
3655.42	0.003284
3665.06	0.002824
3674.71	0.002604
3684.35	0.002014
3694	0.001574
3703.64	0.001134
3713.29	0.0009961
3722.93	0.0008365
3732.58	0.000733
3742.22	0.0007143
3751.86	0.0006718
3761.51	0.0006363
3771.15	0.0005043
3780.8	0.0005454
3790.44	0.0003348
3800.09	0.0004907
3809.73	0.000422
3819.38	0.0004018
3829.02	0.0003197
3838.67	0.0004168
3848.31	0.0003284
3857.96	0.0005747
3867.6	0.0002867
3877.25	0.0002528
3886.89	0.0003401
3896.54	0.0006962
3906.18	0.0002541
3915.83	0.0003681
3925.47	0.0002532
3935.12	0.0003553
3944.76	0.0004897
3954.41	0.0001361
3964.05	0.0004893
3973.69	0.0003124
3983.34	0.00021261
3992.98	0.0003626
