Infrared Spectrum: N-(2-Acetoxyethyl)phthalimide
Formula: C 12 H 11 N O 4
CAS: 5466-90-0
State: gas
Origin: EPA-IR VAPOR PHASE LIBRARY
1/CM	ABSORBANCE
549.8	0.003629
559.445	0.0011646
569.09	0.0006767
578.734	0.0011995
588.379	0.001719
598.024	0.004809
607.669	0.005739
617.313	0.003589
626.958	0.003339
636.603	0.004829
646.248	0.004019
655.893	0.002359
665.537	0.001409
675.182	0.001439
684.827	0.002559
694.472	0.005299
704.116	0.014399
713.761	0.053059
723.406	0.040919
733.051	0.008509
742.695	0.003769
752.34	0.002999
761.985	0.002609
771.63	0.003119
781.275	0.005959
790.919	0.006489
800.564	0.005589
810.209	0.005479
819.854	0.003499
829.498	0.002979
839.143	0.003389
848.788	0.004989
858.433	0.006429
868.078	0.006409
877.722	0.006679
887.367	0.006069
897.012	0.005559
906.657	0.005519
916.301	0.005299
925.946	0.005059
935.591	0.004829
945.236	0.005359
954.88	0.005129
964.525	0.005659
974.17	0.007959
983.815	0.012849
993.46	0.017139
1003.1	0.021649
1012.75	0.033099
1022.39	0.044039
1032.04	0.046959
1041.68	0.042649
1051.33	0.031519
1060.97	0.028629
1070.62	0.026059
1080.26	0.020719
1089.91	0.015369
1099.55	0.010949
1109.2	0.007599
1118.84	0.006699
1128.49	0.005729
1138.13	0.006199
1147.78	0.008449
1157.42	0.011589
1167.07	0.011139
1176.71	0.015919
1186.36	0.023239
1196	0.028049
1205.64	0.046989
1215.29	0.115039
1224.93	0.175969
1234.58	0.101219
1244.22	0.043869
1253.87	0.025819
1263.51	0.018989
1273.16	0.017429
1282.8	0.016279
1292.45	0.014249
1302.09	0.015929
1311.74	0.021529
1321.38	0.027219
1331.03	0.024169
1340.67	0.024909
1350.32	0.044429
1359.96	0.082849
1369.61	0.097159
1379.25	0.133109
1388.9	0.128369
1398.54	0.060389
1408.18	0.034109
1417.83	0.024909
1427.47	0.031709
1437.12	0.030709
1446.76	0.020259
1456.41	0.015539
1466.05	0.015959
1475.7	0.011619
1485.34	0.006369
1494.99	0.005069
1504.63	0.004449
1514.28	0.004319
1523.92	0.004329
1533.57	0.004009
1543.21	0.003799
1552.86	0.003589
1562.5	0.003469
1572.15	0.003679
1581.79	0.004059
1591.44	0.005009
1601.08	0.005439
1610.73	0.006529
1620.37	0.005389
1630.01	0.003969
1639.66	0.003499
1649.3	0.003619
1658.95	0.004089
1668.59	0.005089
1678.24	0.006769
1687.88	0.009859
1697.53	0.016899
1707.17	0.029759
1716.82	0.060469
1726.46	0.174979
1736.11	0.295309
1745.75	0.183219
1755.4	0.109319
1765.04	0.136559
1774.69	0.101849
1784.33	0.078349
1793.98	0.048149
1803.62	0.018499
1813.27	0.010919
1822.91	0.007299
1832.55	0.006019
1842.2	0.005629
1851.84	0.004719
1861.49	0.004109
1871.13	0.003989
1880.78	0.003489
1890.42	0.003089
1900.07	0.003009
1909.71	0.002899
1919.36	0.002469
1929	0.002519
1938.65	0.002689
1948.29	0.002109
1957.94	0.001779
1967.58	0.002199
1977.23	0.001909
1986.87	0.001569
1996.52	0.001489
2006.16	0.001659
2015.81	0.001769
2025.45	0.001849
2035.1	0.001709
2044.74	0.001579
2054.38	0.001549
2064.03	0.001529
2073.67	0.001489
2083.32	0.001469
2092.96	0.001339
2102.61	0.0012787
2112.25	0.0010372
2121.9	0.0009992
2131.54	0.0011017
2141.19	0.0009382
2150.83	0.0008921
2160.48	0.0009865
2170.12	0.0009649
2179.77	0.0009076
2189.41	0.0008021
2199.06	0.0007703
2208.7	0.0008255
2218.35	0.0007812
2227.99	0.000821
2237.64	0.0008963
2247.28	0.0009641
2256.92	0.0009491
2266.57	0.0008371
2276.21	0.0008669
2285.86	0.0008979
2295.5	0.0007637
2305.15	0.0010709
2314.79	0.0011846
2324.44	0.001177
2334.08	0.0010775
2343.73	0.0011172
2353.37	0.0010779
2363.02	0.0010015
2372.66	0.0010187
2382.31	0.0010065
2391.95	0.0009549
2401.6	0.0009977
2411.24	0.0009658
2420.89	0.0012003
2430.53	0.001166
2440.18	0.001245
2449.82	0.0010563
2459.47	0.0010001
2469.11	0.0009087
2478.75	0.0008341
2488.4	0.0008161
2498.04	0.0007118
2507.69	0.000595
2517.33	0.0006423
2526.98	0.0006197
2536.62	0.0007376
2546.27	0.0007599
2555.91	0.0006651
2565.56	0.0005748
2575.2	0.0005903
2584.85	0.0006344
2594.49	0.0005504
2604.14	0.0004101
2613.78	0.0005904
2623.43	0.0006093
2633.07	0.0007408
2642.72	0.0006994
2652.36	0.0006128
2662.01	0.000649
2671.65	0.0007529
2681.29	0.0007821
2690.94	0.0009079
2700.58	0.000925
2710.23	0.0007077
2719.87	0.0006778
2729.52	0.0006696
2739.16	0.0006056
2748.81	0.00075
2758.45	0.0007533
2768.1	0.0008365
2777.74	0.0008966
2787.39	0.0010605
2797.03	0.0008359
2806.68	0.0006949
2816.32	0.0008052
2825.97	0.0008162
2835.61	0.0009149
2845.26	0.0010749
2854.9	0.001195
2864.55	0.0012254
2874.19	0.001389
2883.84	0.001679
2893.48	0.002329
2903.12	0.002869
2912.77	0.003129
2922.41	0.003539
2932.06	0.004849
2941.7	0.008939
2951.35	0.012299
2960.99	0.013849
2970.64	0.011439
2980.28	0.006259
2989.93	0.005089
2999.57	0.004779
3009.22	0.003419
3018.86	0.002379
3028.51	0.002529
3038.15	0.003029
3047.8	0.003609
3057.44	0.004979
3067.09	0.005899
3076.73	0.006219
3086.38	0.008119
3096.02	0.005319
3105.67	0.002039
3115.31	0.0011435
3124.95	0.0009465
3134.6	0.0006157
3144.24	0.00033249
3153.89	0.0003896
3163.53	0.0004009
3173.18	0.00034403
3182.82	0.0004615
3192.47	0.0005183
3202.11	0.0006069
3211.76	0.0007434
3221.4	0.0004384
3231.05	0.0004614
3240.69	0.0003228
3250.34	0.0003763
3259.98	0.0004323
3269.63	0.00037149
3279.27	0.0001809
3288.92	0.000259
3298.56	0.0003878
3308.21	0.0002251
3317.85	0.00031694
3327.49	0.000341
3337.14	0.0004469
3346.78	0.0002547
3356.43	0.00030848
3366.07	0.0002067
3375.72	0.0004185
3385.36	0.00032685
3395.01	0.0004485
3404.65	0.00036048
3414.3	0.0004104
3423.94	0.000457
3433.59	0.0005208
3443.23	0.000778
3452.88	0.0009087
3462.52	0.0012534
3472.17	0.001449
3481.81	0.001729
3491.46	0.002499
3501.1	0.003979
3510.75	0.003819
3520.39	0.002579
3530.04	0.0012141
3539.68	0.0010387
3549.32	0.0008017
3558.97	0.0006917
3568.61	0.0008007
3578.26	0.0005561
3587.9	0.0003831
3597.55	0.0005563
3607.19	0.0002216
3616.84	0.0002491
3626.48	0.0002592
3636.13	0.00031446
3645.77	0.0003018
3655.42	0.00033027
3665.06	0.0002241
3674.71	0.000164
3684.35	0.00034257
3694	0.00030505
3703.64	0.0001817
3713.29	0.0002146
3722.93	0.000468
3732.58	0.0004497
3742.22	0.000421
3751.86	0.0001914
3761.51	0.00034337
3771.15	0.00035441
3780.8	0.0004914
3790.44	0.0004853
3800.09	0.00032259
3809.73	0.0003454
3819.38	0.0001939
3829.02	9.4e-05
3838.67	6.1e-05
3848.31	0.000144
3857.96	0.0002143
3867.6	0.00031139
3877.25	0.00021
3886.89	0.00029423
3896.54	0.0004486
3906.18	0.00031192
3915.83	0.000164
3925.47	0.0002525
3935.12	0.00037356
3944.76	0.00037384
3954.41	0.0004535
3964.05	0.00030213
3973.69	0.000172
3983.34	0.0003868
3992.98	0.0004043
