Infrared Spectrum: Nicotinamide, 1,6-dihydro-4-hydroxy-6-oxo-
Formula: C6 H6 N2 O3
CAS: 5466-41-1
State: SOLID (KBr DISC)
Class: COBLENTZ III
Instrument: PERKIN-ELMER 21 (GRATING)
Instrument parameters: FILTER CHANGE ABOUT 1090 CM^-^1
Sampling: TRANSMISSION
Resolution: 2
Origin: SOUTHERN RESEARCH INSTITUTE
1/CM	TRANSMITTANCE
601.012	0.6372
610.052	0.6381
619.092	0.6322
628.132	0.615
637.172	0.609
646.212	0.622
655.252	0.632
664.291	0.6339
673.331	0.6929
682.371	0.7002
691.411	0.6983
700.451	0.6741
709.491	0.6499
718.531	0.633
727.571	0.6253
736.611	0.5726
745.651	0.5282
754.691	0.481
763.731	0.4243
772.77	0.4686
781.81	0.5384
790.85	0.5208
799.89	0.4777
808.93	0.4906
817.97	0.4887
827.01	0.4781
836.05	0.3621
845.09	0.3703
854.13	0.5142
863.17	0.5346
872.21	0.5352
881.25	0.5239
890.289	0.5037
899.329	0.5006
908.369	0.4992
917.409	0.4988
926.449	0.4939
935.489	0.481
944.529	0.4621
953.569	0.4343
962.609	0.4297
971.649	0.4175
980.689	0.4089
989.729	0.4089
998.769	0.4082
1007.81	0.407
1016.85	0.4029
1025.89	0.3956
1034.93	0.3842
1043.97	0.3751
1053.01	0.3704
1062.05	0.3639
1071.09	0.356
1080.13	0.3443
1089.17	0.3261
1098.21	0.3082
1107.25	0.2885
1116.29	0.2661
1125.33	0.2432
1134.37	0.2484
1143.41	0.2849
1152.45	0.289
1161.49	0.2876
1170.53	0.2807
1179.57	0.2727
1188.61	0.2442
1197.65	0.2212
1206.69	0.1915
1215.73	0.1709
1224.77	0.2187
1233.81	0.2916
1242.85	0.2731
1251.89	0.2458
1260.93	0.2899
1269.97	0.3328
1279.01	0.3285
1288.05	0.3063
1297.09	0.2651
1306.13	0.2343
1315.17	0.2158
1324.21	0.2009
1333.25	0.2104
1342.29	0.2846
1351.33	0.2547
1360.37	0.214
1369.41	0.1829
1378.45	0.1548
1387.49	0.1433
1396.53	0.141
1405.56	0.1428
1414.6	0.1483
1423.64	0.1601
1432.68	0.1633
1441.72	0.1694
1450.76	0.2073
1459.8	0.2344
1468.84	0.2418
1477.88	0.2447
1486.92	0.2741
1495.96	0.3197
1505	0.333
1514.04	0.3054
1523.08	0.2606
1532.12	0.2403
1541.16	0.2065
1550.2	0.1741
1559.24	0.1674
1568.28	0.1663
1577.32	0.1653
1586.36	0.1645
1595.4	0.1653
1604.44	0.1713
1613.48	0.1826
1622.52	0.1818
1631.56	0.167
1640.6	0.1442
1649.64	0.124
1658.68	0.1107
1667.72	0.1102
1676.76	0.1544
1685.8	0.1682
1694.84	0.1823
1703.88	0.2002
1712.92	0.2855
1721.96	0.3869
1731	0.4238
1740.04	0.4987
1749.08	0.551
1758.12	0.6076
1767.16	0.6345
1776.2	0.6483
1785.24	0.6588
1794.28	0.6688
1803.32	0.6739
1812.36	0.6754
1821.4	0.6754
1830.44	0.6759
1839.48	0.6765
1848.52	0.677
1857.56	0.6768
1866.6	0.6772
1875.64	0.6762
1884.68	0.6714
1893.72	0.6667
1902.76	0.6661
1911.8	0.6679
1920.84	0.6714
1929.88	0.6688
1938.92	0.6691
1947.96	0.6757
1957	0.6837
1966.04	0.6893
1975.08	0.6927
1984.12	0.6956
1993.16	0.6986
2002.2	0.7006
2011.24	0.7008
2020.28	0.7011
2029.32	0.7031
2038.36	0.7015
2047.4	0.7001
2056.44	0.6991
2065.48	0.6977
2074.52	0.6964
2083.56	0.6954
2092.6	0.6948
2101.64	0.6952
2110.68	0.6948
2119.72	0.6891
2128.76	0.684
2137.8	0.6785
2146.84	0.6746
2155.88	0.6709
2164.92	0.6656
2173.96	0.6603
2183	0.6562
2192.04	0.6511
2201.08	0.6519
2210.12	0.6393
2219.16	0.6295
2228.2	0.6243
2237.24	0.6161
2246.28	0.6138
2255.32	0.612
2264.36	0.6088
2273.4	0.6041
2282.44	0.599
2291.48	0.5945
2300.52	0.5918
2309.56	0.5899
2318.6	0.5883
2327.64	0.5884
2336.68	0.5895
2345.72	0.5847
2354.76	0.5768
2363.8	0.569
2372.84	0.5619
2381.88	0.5519
2390.92	0.5413
2399.96	0.5319
2409	0.5269
2418.04	0.5243
2427.08	0.5227
2436.12	0.5223
2445.16	0.5209
2454.2	0.5183
2463.24	0.5139
2472.28	0.5106
2481.32	0.508
2490.36	0.5053
2499.4	0.5031
2508.44	0.5017
2517.48	0.4999
2526.52	0.4996
2535.56	0.5078
2544.59	0.5145
2553.63	0.515
2562.67	0.5148
2571.71	0.5147
2580.75	0.5147
2589.79	0.5149
2598.83	0.515
2607.87	0.5143
2616.91	0.5136
2625.95	0.5138
2634.99	0.5136
2644.03	0.512
2653.07	0.5105
2662.11	0.5085
2671.15	0.506
2680.19	0.5031
2689.23	0.4999
2698.27	0.4966
2707.31	0.494
2716.35	0.4919
2725.39	0.4913
2734.43	0.4942
2743.47	0.4985
2752.51	0.5015
2761.55	0.5007
2770.59	0.4995
2779.63	0.4981
2788.67	0.4958
2797.71	0.4925
2806.75	0.4891
2815.79	0.4853
2824.83	0.4814
2833.87	0.477
2842.91	0.4712
2851.95	0.4661
2860.99	0.4688
2870.03	0.4745
2879.07	0.4784
2888.11	0.4776
2897.15	0.4754
2906.19	0.4717
2915.23	0.4556
2924.27	0.4554
2933.31	0.454
2942.35	0.4522
2951.39	0.4509
2960.43	0.4511
2969.47	0.4543
2978.51	0.4594
2987.55	0.4605
2996.59	0.4569
3005.63	0.4507
3014.67	0.4447
3023.71	0.4395
3032.75	0.4323
3041.79	0.4249
3050.83	0.417
3059.87	0.4084
3068.91	0.4011
3077.95	0.3942
3086.99	0.3875
3096.03	0.3807
3105.07	0.3735
3114.11	0.3656
3123.15	0.3504
3132.19	0.3379
3141.23	0.3282
3150.27	0.3211
3159.31	0.3142
3168.35	0.3076
3177.39	0.3015
3186.43	0.2975
3195.47	0.2917
3204.51	0.2867
3213.55	0.2838
3222.59	0.2831
3231.63	0.2843
3240.67	0.2876
3249.71	0.2922
3258.75	0.2971
3267.79	0.3008
3276.83	0.3028
3285.87	0.3061
3294.91	0.309
3303.95	0.311
3312.99	0.3149
3322.03	0.3193
3331.07	0.3275
3340.11	0.3361
3349.15	0.3408
3358.19	0.3365
3367.23	0.3275
3376.27	0.3281
3385.31	0.3159
3394.35	0.298
3403.39	0.276
3412.43	0.2522
3421.47	0.2301
3430.51	0.2163
3439.55	0.2243
3448.59	0.2472
3457.63	0.2758
3466.67	0.3177
3475.71	0.3478
3484.75	0.3703
3493.79	0.3878
3502.83	0.4001
3511.87	0.4144
3520.91	0.4234
3529.95	0.4279
3538.99	0.4548
3548.03	0.4707
3557.07	0.4867
3566.11	0.5033
3575.15	0.5173
3584.19	0.5313
3593.23	0.5469
3602.27	0.5634
3611.31	0.5815
3620.35	0.5991
3629.39	0.6171
3638.43	0.6371
3647.47	0.6526
3656.51	0.6729
3665.55	0.6947
3674.59	0.7006
3683.62	0.7039
3692.66	0.7099
3701.7	0.7095
3710.74	0.7079
3719.78	0.7117
3728.82	0.721
3737.86	0.7206
3746.9	0.7196
3755.94	0.719
3764.98	0.7185
3774.02	0.7184
3783.06	0.7161
3792.1	0.7092
3801.14	0.7033
3810.18	0.7007
3819.22	0.6992
3828.26	0.6991
3837.3	0.6996
3846.34	0.7006
3855.38	0.7014
3864.42	0.7021
3873.46	0.7022
3882.5	0.6996
3891.54	0.6965
3900.58	0.6957
3909.62	0.6965
3918.66	0.6995
3927.7	0.6977
3936.74	0.6974
3945.78	0.7
3954.82	0.7051
3963.86	0.7064
3972.9	0.7076
3981.94	0.7183
3990.98	0.7372
