Infrared Spectrum: 9H-PURINE, 2-CHLORO-9-(Beta-D-RIBOFURANOSYL)-
Formula: C10 H11 Cl N4 O4
CAS: 5466-11-5
State: SOLID (0.9 mg / 650 mg KBr DISC)
Class: COBLENTZ III
Instrument: PERKIN-ELMER 21 (GRATING)
Instrument parameters: FILTER CHANGE AT 1090 CM^-^1
Sampling: TRANSMISSION
Resolution: 2
Origin: SOUTHERN RESEARCH INSTITUTE
1/CM	TRANSMITTANCE
623.185	0.541
632.181	0.535
641.177	0.5338
650.173	0.5815
659.169	0.5783
668.165	0.5538
677.161	0.547
686.157	0.5608
695.153	0.6888
704.149	0.7042
713.145	0.6878
722.141	0.6687
731.137	0.5925
740.133	0.3831
749.129	0.5118
758.125	0.685
767.121	0.685
776.117	0.6711
785.113	0.5906
794.109	0.515
803.105	0.5447
812.101	0.4958
821.097	0.6428
830.093	0.6277
839.089	0.5872
848.085	0.4566
857.081	0.5147
866.076	0.4431
875.072	0.3628
884.068	0.5079
893.064	0.4215
902.06	0.396
911.056	0.286
920.052	0.442
929.048	0.3038
938.044	0.589
947.04	0.5795
956.036	0.5135
965.032	0.439
974.028	0.4598
983.024	0.4009
992.02	0.561
1001.02	0.5554
1010.01	0.5254
1019.01	0.4569
1028	0.3933
1037	0.321
1046	0.2191
1054.99	0.2329
1063.99	0.285
1072.98	0.1166
1081.98	0.193
1090.98	0.093
1099.97	0.2247
1108.97	0.1206
1117.96	0.1678
1126.96	0.322
1135.96	0.2868
1144.95	0.275
1153.95	0.3181
1162.94	0.2205
1171.94	0.1578
1180.94	0.3
1189.93	0.189
1198.93	0.1984
1207.92	0.074
1216.92	0.2235
1225.92	0.3326
1234.91	0.508
1243.91	0.4848
1252.9	0.3294
1261.9	0.5024
1270.9	0.4614
1279.89	0.4256
1288.89	0.45
1297.88	0.4254
1306.88	0.3444
1315.88	0.4512
1324.87	0.4334
1333.87	0.3749
1342.86	0.1344
1351.86	0.0546
1360.86	0.1931
1369.85	0.3638
1378.85	0.4182
1387.84	0.5111
1396.84	0.4367
1405.84	0.3651
1414.83	0.2613
1423.83	0.3348
1432.82	0.4567
1441.82	0.4437
1450.82	0.3978
1459.81	0.547
1468.81	0.6135
1477.8	0.6423
1486.8	0.6334
1495.8	0.5627
1504.79	0.3937
1513.79	0.4875
1522.78	0.6813
1531.78	0.6831
1540.78	0.646
1549.77	0.619
1558.77	0.5098
1567.76	0.2425
1576.76	0.1899
1585.75	0.441
1594.75	0.1783
1603.75	0.2681
1612.74	0.5129
1621.74	0.5845
1630.73	0.628
1639.73	0.6547
1648.73	0.6792
1657.72	0.7045
1666.72	0.72
1675.71	0.728
1684.71	0.7335
1693.71	0.738
1702.7	0.746
1711.7	0.747
1720.69	0.748
1729.69	0.748
1738.69	0.747
1747.68	0.746
1756.68	0.746
1765.67	0.7202
1774.67	0.708
1783.67	0.6786
1792.66	0.747
1801.66	0.757
1810.65	0.756
1819.65	0.7527
1828.65	0.748
1837.64	0.746
1846.64	0.746
1855.63	0.746
1864.63	0.7431
1873.63	0.742
1882.62	0.7396
1891.62	0.738
1900.61	0.735
1909.61	0.735
1918.61	0.734
1927.6	0.7337
1936.6	0.725
1945.59	0.725
1954.59	0.7239
1963.59	0.72
1972.58	0.72
1981.58	0.719
1990.57	0.719
1999.57	0.715
2008.57	0.714
2017.56	0.714
2026.56	0.7113
2035.55	0.7087
2044.55	0.706
2053.55	0.703
2062.54	0.702
2071.54	0.701
2080.53	0.6987
2089.53	0.6963
2098.53	0.694
2107.52	0.693
2116.52	0.691
2125.51	0.6873
2134.51	0.6883
2143.51	0.688
2152.5	0.6857
2161.5	0.687
2170.49	0.683
2179.49	0.68
2188.49	0.6793
2197.48	0.679
2206.48	0.679
2215.47	0.676
2224.47	0.674
2233.47	0.671
2242.46	0.6677
2251.46	0.662
2260.45	0.66
2269.45	0.66
2278.45	0.6603
2287.44	0.6563
2296.44	0.6507
2305.43	0.641
2314.43	0.638
2323.43	0.638
2332.42	0.638
2341.42	0.638
2350.41	0.638
2359.41	0.638
2368.41	0.638
2377.4	0.637
2386.4	0.633
2395.39	0.6293
2404.39	0.626
2413.39	0.626
2422.38	0.6257
2431.38	0.625
2440.37	0.623
2449.37	0.62
2458.37	0.6177
2467.36	0.6163
2476.36	0.612
2485.35	0.612
2494.35	0.612
2503.35	0.612
2512.34	0.611
2521.34	0.6103
2530.33	0.607
2539.33	0.6037
2548.32	0.6007
2557.32	0.597
2566.32	0.596
2575.31	0.597
2584.31	0.5923
2593.3	0.589
2602.3	0.584
2611.3	0.582
2620.29	0.578
2629.29	0.5737
2638.28	0.571
2647.28	0.569
2656.28	0.564
2665.27	0.564
2674.27	0.561
2683.26	0.5587
2692.26	0.5573
2701.26	0.557
2710.25	0.556
2719.25	0.5553
2728.24	0.5523
2737.24	0.548
2746.24	0.544
2755.23	0.542
2764.23	0.541
2773.22	0.537
2782.22	0.5323
2791.22	0.529
2800.21	0.5243
2809.21	0.5203
2818.2	0.5153
2827.2	0.508
2836.2	0.4987
2845.19	0.486
2854.19	0.467
2863.18	0.444
2872.18	0.428
2881.18	0.423
2890.17	0.425
2899.17	0.4417
2908.16	0.4496
2917.16	0.4663
2926.16	0.4793
2935.15	0.492
2944.15	0.492
2953.14	0.4913
2962.14	0.4897
2971.14	0.4883
2980.13	0.488
2989.13	0.487
2998.12	0.485
3007.12	0.4793
3016.12	0.475
3025.11	0.464
3034.11	0.4537
3043.1	0.4423
3052.1	0.43
3061.1	0.429
3070.09	0.426
3079.09	0.423
3088.08	0.4143
3097.08	0.412
3106.08	0.4073
3115.07	0.3947
3124.07	0.3833
3133.06	0.359
3142.06	0.3397
3151.06	0.3167
3160.05	0.2977
3169.05	0.2813
3178.04	0.268
3187.04	0.2567
3196.04	0.2413
3205.03	0.2267
3214.03	0.2073
3223.02	0.1913
3232.02	0.176
3241.02	0.1717
3250.01	0.166
3259.01	0.165
3268	0.162
3277	0.162
3286	0.162
3294.99	0.1587
3303.99	0.156
3312.98	0.153
3321.98	0.15
3330.98	0.147
3339.97	0.1423
3348.97	0.138
3357.96	0.1323
3366.96	0.128
3375.96	0.129
3384.95	0.13
3393.95	0.132
3402.94	0.133
3411.94	0.1403
3420.94	0.1527
3429.93	0.1693
3438.93	0.202
3447.92	0.24
3456.92	0.281
3465.91	0.3047
3474.91	0.3387
3483.91	0.3683
3492.9	0.3927
3501.9	0.4253
3510.89	0.4557
3519.89	0.4717
3528.89	0.488
3537.88	0.5027
3546.88	0.5263
3555.87	0.537
3564.87	0.5596
3573.87	0.5753
3582.86	0.5883
3591.86	0.5993
3600.85	0.6077
3609.85	0.612
3618.85	0.612
3627.84	0.612
3636.84	0.612
3645.83	0.612
3654.83	0.612
3663.83	0.612
3672.82	0.612
3681.82	0.611
3690.81	0.61
3699.81	0.6053
3708.81	0.603
3717.8	0.601
3726.8	0.601
3735.79	0.601
3744.79	0.602
3753.79	0.601
3762.78	0.598
3771.78	0.597
3780.77	0.594
3789.77	0.589
3798.77	0.5883
3807.76	0.5873
3816.76	0.585
3825.75	0.5823
3834.75	0.582
3843.75	0.58
3852.74	0.582
3861.74	0.58
3870.73	0.579
3879.73	0.578
3888.73	0.578
3897.72	0.5767
3906.72	0.575
3915.71	0.5717
3924.71	0.57
3933.71	0.57
3942.7	0.57
3951.7	0.57
3960.69	0.57
3969.69	0.57
3978.69	0.57
3987.68	0.57
3996.68	0.569
4005.67	0.569
4014.67	0.567
4023.67	0.566
4032.66	0.5653
4041.66	0.566
4050.65	0.565
4059.65	0.564
