Infrared Spectrum: Urea, 1,3-diphenethyl-
Formula: C17 H20 N2 O
CAS: 5467-84-5
State: SOLID (0.7 mg / 650 mg KBr DISC)
Class: COBLENTZ III
Instrument: PERKIN-ELMER 221 (GRATING)
Instrument parameters: FILTER AT 2490, 980 CM^-^1. GRATING 4000-1428 CM^-^1, NaCl PRISM 1428-650 CM^-^1
Sampling: TRANSMISSION
Resolution: 2
Origin: SOUTHERN RESEARCH INSTITUTE
1/CM	TRANSMITTANCE
627	0.6553
636	0.6688
645	0.684
654	0.7246
663	0.7275
672	0.7208
681	0.6978
690	0.4955
699	0.2762
708	0.8459
717	0.8276
726	0.7739
735	0.6436
744	0.4616
753	0.7274
762	0.8222
771	0.8748
780	0.9579
789	0.9713
798	0.9717
807	0.9606
816	0.9575
825	0.9876
834	0.9787
843	0.9545
852	0.9881
861	0.9813
870	0.9756
879	0.9661
888	0.9571
897	0.9384
906	0.8304
915	0.9399
924	0.9432
933	0.9365
942	0.9266
951	0.9136
960	0.8946
969	0.8921
978	0.7163
987	0.8805
996	0.8731
1005	0.8585
1014	0.8378
1023	0.7978
1032	0.7387
1041	0.8241
1050	0.8082
1059	0.7898
1068	0.7874
1077	0.7619
1086	0.8276
1095	0.8495
1104	0.8509
1113	0.851
1122	0.8487
1131	0.8459
1140	0.842
1149	0.82
1158	0.8198
1167	0.8057
1176	0.7829
1185	0.752
1194	0.7106
1203	0.7529
1212	0.6998
1221	0.6257
1230	0.5616
1239	0.6314
1248	0.7368
1257	0.7863
1266	0.7957
1275	0.786
1284	0.7575
1293	0.6969
1302	0.7856
1311	0.85
1320	0.8547
1329	0.8611
1338	0.8662
1347	0.8568
1356	0.8451
1365	0.8329
1374	0.826
1383	0.8226
1392	0.8269
1401	0.8418
1410	0.7915
1419	0.8002
1428	0.7759
1437	0.7232
1446	0.5722
1455	0.6121
1464	0.6069
1473	0.5088
1482	0.6996
1491	0.5536
1500	0.6141
1509	0.5832
1518	0.5911
1527	0.5691
1536	0.502
1545	0.4347
1554	0.3145
1563	0.2267
1572	0.2092
1581	0.2692
1590	0.306
1599	0.2707
1608	0.2158
1617	0.2845
1626	0.4342
1635	0.5557
1644	0.6492
1653	0.7276
1662	0.7784
1671	0.8434
1680	0.8882
1689	0.9048
1698	0.9198
1707	0.9327
1716	0.9458
1725	0.9566
1734	0.96
1743	0.9562
1752	0.9493
1761	0.9629
1770	0.9776
1779	0.9836
1788	0.9794
1797	0.9682
1806	0.9537
1815	0.9689
1824	0.9839
1833	0.9885
1842	0.9858
1851	0.9803
1860	0.9692
1869	0.9458
1878	0.9454
1887	0.9573
1896	0.9637
1905	0.9681
1914	0.9653
1923	0.9599
1932	0.9481
1941	0.9064
1950	0.9196
1959	0.9403
1968	0.9488
1977	0.947
1986	0.9417
1995	0.9401
2004	0.9388
2013	0.9376
2022	0.9365
2031	0.9358
2040	0.9351
2049	0.9331
2058	0.931
2067	0.9286
2076	0.9261
2085	0.9236
2094	0.9211
2103	0.9186
2112	0.9167
2121	0.9149
2130	0.9131
2139	0.9119
2148	0.9108
2157	0.9098
2166	0.9087
2175	0.9077
2184	0.9068
2193	0.9059
2202	0.905
2211	0.9042
2220	0.9032
2229	0.9022
2238	0.9016
2247	0.901
2256	0.9009
2265	0.9011
2274	0.8998
2283	0.898
2292	0.8962
2301	0.893
2310	0.8877
2319	0.8831
2328	0.8816
2337	0.8801
2346	0.8806
2355	0.8797
2364	0.8787
2373	0.8778
2382	0.8769
2391	0.876
2400	0.8751
2409	0.8741
2418	0.8729
2427	0.8718
2436	0.8707
2445	0.8697
2454	0.8689
2463	0.8681
2472	0.8672
2481	0.8642
2490	0.8577
2499	0.8528
2508	0.8521
2517	0.851
2526	0.85
2535	0.8489
2544	0.8473
2553	0.8458
2562	0.8442
2571	0.8426
2580	0.8411
2589	0.8395
2598	0.8379
2607	0.8362
2616	0.8342
2625	0.8319
2634	0.8296
2643	0.8272
2652	0.8252
2661	0.8232
2670	0.8222
2679	0.822
2688	0.8215
2697	0.8202
2706	0.8187
2715	0.8145
2724	0.8103
2733	0.8064
2742	0.8057
2751	0.804
2760	0.7999
2769	0.7932
2778	0.7852
2787	0.7766
2796	0.7686
2805	0.7631
2814	0.76
2823	0.7555
2832	0.741
2841	0.7143
2850	0.677
2859	0.6321
2868	0.6101
2877	0.6026
2886	0.6115
2895	0.6794
2904	0.6882
2913	0.6674
2922	0.6471
2931	0.6287
2940	0.6308
2949	0.6403
2958	0.6754
2967	0.7021
2976	0.7264
2985	0.7328
2994	0.7325
3003	0.7294
3012	0.7186
3021	0.6635
3030	0.6454
3039	0.7542
3048	0.747
3057	0.6947
3066	0.7279
3075	0.761
3084	0.7534
3093	0.7559
3102	0.7411
3111	0.7302
3120	0.7298
3129	0.7335
3138	0.7367
3147	0.7384
3156	0.7389
3165	0.7379
3174	0.7353
3183	0.7318
3192	0.7253
3201	0.718
3210	0.7068
3219	0.6917
3228	0.6753
3237	0.658
3246	0.6395
3255	0.6194
3264	0.5963
3273	0.5731
3282	0.5466
3291	0.5183
3300	0.4874
3309	0.4528
3318	0.4127
3327	0.3699
3336	0.3247
3345	0.3389
3354	0.4161
3363	0.4728
3372	0.5315
3381	0.5795
3390	0.6186
3399	0.6554
3408	0.684
3417	0.709
3426	0.7184
3435	0.7214
3444	0.7234
3453	0.7239
3462	0.724
3471	0.7241
3480	0.7251
3489	0.727
3498	0.7288
3507	0.73
3516	0.7314
3525	0.7334
3534	0.7409
3543	0.7504
3552	0.7525
3561	0.7545
3570	0.7564
3579	0.7583
3588	0.76
3597	0.7616
3606	0.7622
3615	0.7628
3624	0.7634
3633	0.7636
3642	0.7634
3651	0.7632
3660	0.7629
3669	0.7624
3678	0.7619
3687	0.7614
3696	0.7614
3705	0.7616
3714	0.7617
3723	0.7622
3732	0.7629
3741	0.7636
3750	0.7641
3759	0.7643
3768	0.7644
3777	0.7645
3786	0.7638
3795	0.7629
3804	0.7621
3813	0.7579
3822	0.7526
3831	0.7491
3840	0.7472
3849	0.747
3858	0.7466
3867	0.746
3876	0.7454
3885	0.7447
3894	0.7441
3903	0.7436
3912	0.7431
3921	0.7432
3930	0.7434
3939	0.7437
3948	0.7438
3957	0.7438
3966	0.7433
3975	0.7423
3984	0.7386
3993	0.7365
