Infrared Spectrum: .alpha.-Cyano-3-hydroxycinnamic acid
Formula: C 10 H 7 N O 3
CAS: 54673-07-3
State: gas
Instrument: HP-GC/MS/IRD
Origin: NIST Mass Spectrometry Data Center
1/CM	ABSORBANCE
550	0.0012067
562	0.0006809
574	0.0010021
586	0.0017413
598	0.0015004
610	0.00077
622	0.000484
634	0.0003256
646	0.0003883
658	0.0005038
670	0.0027643
682	0.0038786
694	0.0012408
706	0.0003938
718	0.0001881
730	0.0001969
742	0.0004378
754	0.0007964
766	0.0012683
778	0.0018227
790	0.0013486
802	0.0003179
814	4.62e-05
826	9.02e-05
838	9.35e-05
850	0.0002486
862	0.0004752
874	0.0004224
886	0.0002002
898	0.0002398
910	0.0002321
922	0.0001738
934	0.0002992
946	0.0005555
958	0.0007865
970	0.0005588
982	0.0002904
994	0.0004224
1006	0.0002057
1018	0.0001617
1030	0.0003707
1042	0.0007282
1054	0.001056
1066	0.0008107
1078	0.0012419
1090	0.0015136
1102	0.0011935
1114	0.0016434
1126	0.0031306
1138	0.0069366
1150	0.008382
1162	0.0080179
1174	0.0060885
1186	0.005236
1198	0.0041789
1210	0.0026818
1222	0.0015081
1234	0.0011924
1246	0.0015147
1258	0.0026862
1270	0.0035332
1282	0.0028006
1294	0.002035
1306	0.002464
1318	0.0025201
1330	0.0021967
1342	0.0017171
1354	0.0015213
1366	0.0015455
1378	0.0012881
1390	0.0008195
1402	0.0004147
1414	0.00033
1426	0.0005225
1438	0.0015081
1450	0.002541
1462	0.0013574
1474	0.0008173
1486	0.0009812
1498	0.0007821
1510	0.0002596
1522	0.0001848
1534	0.0002167
1546	0.0002937
1558	0.0006171
1570	0.0017534
1582	0.0035629
1594	0.0038148
1606	0.0049577
1618	0.0038885
1630	0.0009427
1642	0.0004004
1654	0.0002409
1666	0.00022
1678	0.000242
1690	0.0002893
1702	0.0004521
1714	0.0008052
1726	0.0010538
1738	0.0013222
1750	0.0029689
1762	0.0095018
1774	0.0083479
1786	0.0024706
1798	0.0011693
1810	0.0007117
1822	0.0005181
1834	0.0002651
1846	0.0002046
1858	0.0001529
1870	0.0001166
1882	7.92e-05
1894	6.93e-05
1906	8.36e-05
1918	0.0001342
1930	0.0001298
1942	4.07e-05
1954	1.32e-05
1966	1.65e-05
1978	2.2e-05
1990	9.9e-06
2002	4.4e-06
2014	1.87e-05
2026	1.43e-05
2038	3.19e-05
2050	3.74e-05
2062	3.74e-05
2074	4.73e-05
2086	3.96e-05
2098	3.74e-05
2110	4.62e-05
2122	3.96e-05
2134	6.49e-05
2146	5.28e-05
2158	4.62e-05
2170	7.15e-05
2182	5.39e-05
2194	7.37e-05
2206	0.000132
2218	0.0002805
2230	0.0002981
2242	0.0001947
2254	0.0002002
2266	0.0002904
2278	0.0005632
2290	0.0011495
2302	0.0022066
2314	0.0035464
2326	0.004312
2338	0.0039512
2350	0.0033506
2362	0.0055814
2374	0.004125
2386	0.0010219
2398	0.0001936
2410	0.0001375
2422	0.0001265
2434	0.0001078
2446	0.0001342
2458	0.0001155
2470	0.0001287
2482	9.68e-05
2494	9.68e-05
2506	7.7e-05
2518	0.0001056
2530	6.05e-05
2542	7.37e-05
2554	9.46e-05
2566	8.58e-05
2578	8.8e-05
2590	6.38e-05
2602	5.94e-05
2614	7.04e-05
2626	5.94e-05
2638	5.17e-05
2650	6.6e-05
2662	4.95e-05
2674	4.95e-05
2686	4.07e-05
2698	8.8e-05
2710	6.82e-05
2722	6.93e-05
2734	0.0001177
2746	0.0001001
2758	7.7e-05
2770	8.36e-05
2782	9.13e-05
2794	9.9e-05
2806	5.94e-05
2818	7.26e-05
2830	0.0001342
2842	0.0001309
2854	9.79e-05
2866	0.0001166
2878	0.0001243
2890	0.0001375
2902	0.000143
2914	0.0001386
2926	0.0001617
2938	0.0002684
2950	0.0002552
2962	0.0002266
2974	0.0002123
2986	0.0002255
2998	0.0002739
3010	0.0002882
3022	0.0004191
3034	0.0004301
3046	0.0005676
3058	0.0006446
3070	0.000693
3082	0.0005687
3094	0.0002981
3106	0.0002178
3118	0.0002068
3130	8.8e-05
3142	0.0001331
3154	0.0001342
3166	0.0001298
3178	0.00011
3190	0.0001122
3202	0.0001639
3214	0.0001122
3226	0.0001023
3238	6.49e-05
3250	9.24e-05
3262	0.0001221
3274	9.68e-05
3286	6.71e-05
3298	9.79e-05
3310	8.36e-05
3322	0.0001188
3334	0.0001045
3346	0.0001485
3358	8.47e-05
3370	0.000154
3382	0.000165
3394	0.0001133
3406	0.0001155
3418	0.0001705
3430	0.0001529
3442	0.0001364
3454	6.49e-05
3466	5.5e-05
3478	0.0001309
3490	0.0001188
3502	0.0001903
3514	0.0001969
3526	0.0001705
3538	0.0001936
3550	0.0002266
3562	0.0005412
3574	0.0027687
3586	0.0047971
3598	0.0007975
3610	0.0003399
3622	0.0004598
3634	0.0014003
3646	0.0030591
3658	0.0020339
3670	0.0003828
3682	0.000198
3694	0.0001617
3706	0.0001782
3718	0.0001265
3730	0.0001793
3742	0.0001419
3754	5.5e-05
3766	4.29e-05
3778	8.58e-05
3790	5.61e-05
3802	6.38e-05
3814	5.17e-05
3826	0.0001397
3838	7.81e-05
