Infrared Spectrum: 1,2-DIBENZAMIDO BENZENE
Formula: C20 H16 N2 O2
CAS: 5467-04-9
State: SOLID (1.0% IN KBr PELLET)
Class: COBLENTZ
Instrument: Not specified, most likely a prism, grating, or hybrid spectrometer.
Sampling: TRANSMISSION
Path length: 0.0355 CM
Resolution: 4
Origin: ANDERSON PHYSICAL LABORATORY
1/CM	TRANSMITTANCE
669.988	0.701
678.394	0.5803
686.8	0.38
695.206	0.602
703.612	0.4401
712.018	0.208
720.424	0.908
728.83	0.967
737.236	0.926
745.642	0.815
754.048	0.328
762.454	0.5535
770.86	0.895
779.266	0.92
787.672	0.916
796.078	0.74
804.484	0.907
812.89	0.911
821.296	0.91
829.702	0.904
838.108	0.893
846.514	0.856
854.92	0.7821
863.326	0.7958
871.732	0.8529
880.138	0.877
888.544	0.866
896.95	0.851
905.356	0.802
913.762	0.586
922.168	0.652
930.574	0.8063
938.98	0.8259
947.386	0.878
955.792	0.875
964.198	0.871
972.604	0.862
981.01	0.761
989.416	0.836
997.822	0.82
1006.23	0.796
1014.63	0.815
1023.04	0.7721
1031.45	0.563
1039.85	0.817
1048.26	0.808
1056.66	0.802
1065.07	0.772
1073.48	0.706
1081.88	0.658
1090.29	0.758
1098.69	0.737
1107.1	0.6611
1115.51	0.5
1123.91	0.733
1132.32	0.766
1140.72	0.775
1149.13	0.767
1157.54	0.745
1165.94	0.668
1174.35	0.703
1182.75	0.727
1191.16	0.706
1199.57	0.697
1207.97	0.689
1216.38	0.653
1224.78	0.596
1233.19	0.53
1241.6	0.578
1250	0.538
1258.41	0.508
1266.81	0.446
1275.22	0.3889
1283.63	0.338
1292.03	0.416
1300.44	0.2871
1308.84	0.286
1317.25	0.235
1325.66	0.404
1334.06	0.491
1342.47	0.604
1350.87	0.631
1359.28	0.688
1367.69	0.694
1376.09	0.686
1384.5	0.676
1392.9	0.649
1401.31	0.631
1409.72	0.637
1418.12	0.614
1426.53	0.607
1434.93	0.545
1443.34	0.448
1451.75	0.4481
1460.15	0.505
1468.56	0.485
1476.96	0.433
1485.37	0.314
1493.78	0.212
1502.18	0.172
1510.59	0.218
1518.99	0.1991
1527.4	0.139
1535.81	0.067
1544.21	0.2209
1552.62	0.449
1561.02	0.553
1569.43	0.656
1577.84	0.572
1586.24	0.523
1594.65	0.6139
1603.05	0.386
1611.46	0.5329
1619.87	0.626
1628.27	0.592
1636.68	0.481
1645.08	0.29
1653.49	0.193
1661.9	0.083
1670.3	0.313
1678.71	0.511
1687.11	0.664
1695.52	0.769
1703.93	0.835
1712.33	0.88
1720.74	0.923
1729.14	0.898
1737.55	0.895
1745.96	0.904
1754.36	0.908
1762.77	0.904
1771.17	0.896
1779.58	0.869
1787.99	0.874
1796.39	0.887
1804.8	0.887
1813.2	0.887
1821.61	0.863
1830.02	0.868
1838.42	0.874
1846.83	0.878
1855.23	0.881
1863.64	0.874
1872.05	0.875
1880.45	0.869
1888.86	0.86
1897.26	0.85
1905.67	0.836
1914.08	0.817
1922.48	0.829
1930.89	0.823
1939.29	0.839
1947.7	0.844
1956.11	0.839
1964.51	0.814
1972.92	0.796
1981.32	0.805
1989.73	0.821
1998.14	0.821
2006.54	0.7172
2014.95	0.68
2023.35	0.6768
2031.76	0.674
2040.17	0.6715
2048.57	0.67
2056.98	0.665
2065.38	0.664
2073.79	0.6613
2082.2	0.659
2090.6	0.6575
2099.01	0.6555
2107.41	0.6523
2115.82	0.65
2124.23	0.647
2132.63	0.6451
2141.04	0.6433
2149.44	0.64
2157.85	0.638
2166.26	0.637
2174.66	0.635
2183.07	0.634
2191.47	0.632
2199.88	0.631
2208.29	0.629
2216.69	0.628
2225.1	0.6258
2233.5	0.623
2241.91	0.622
2250.32	0.6191
2258.72	0.617
2267.13	0.616
2275.53	0.6133
2283.94	0.611
2292.35	0.608
2300.75	0.6061
2309.16	0.6043
2317.56	0.602
2325.97	0.6006
2334.37	0.5986
2342.78	0.598
2351.19	0.598
2359.59	0.599
2368	0.599
2376.4	0.599
2384.81	0.599
2393.22	0.598
2401.62	0.5972
2410.03	0.595
2418.43	0.593
2426.84	0.5917
2435.25	0.5896
2443.65	0.5877
2452.06	0.587
2460.46	0.587
2468.87	0.5866
2477.28	0.586
2485.68	0.584
2494.09	0.5838
2502.49	0.583
2510.9	0.581
2519.31	0.577
2527.71	0.575
2536.12	0.574
2544.52	0.572
2552.93	0.571
2561.34	0.5688
2569.74	0.5672
2578.15	0.5654
2586.55	0.5632
2594.96	0.5629
2603.37	0.5612
2611.77	0.559
2620.18	0.5561
2628.58	0.5539
2636.99	0.551
2645.4	0.551
2653.8	0.5501
2662.21	0.55
2670.61	0.5492
2679.02	0.548
2687.43	0.548
2695.83	0.547
2704.24	0.547
2712.64	0.547
2721.05	0.545
2729.46	0.5419
2737.86	0.5373
2746.27	0.5338
2754.67	0.5303
2763.08	0.5258
2771.49	0.5204
2779.89	0.5182
2788.3	0.5114
2796.7	0.508
2805.11	0.506
2813.52	0.5054
2821.92	0.505
2830.33	0.5048
2838.73	0.503
2847.14	0.502
2855.55	0.4973
2863.95	0.496
2872.36	0.496
2880.76	0.494
2889.17	0.494
2897.58	0.4939
2905.98	0.4923
2914.39	0.4904
2922.79	0.4842
2931.2	0.4789
2939.61	0.4773
2948.01	0.4738
2956.42	0.4722
2964.82	0.4699
2973.23	0.4667
2981.64	0.4618
2990.04	0.4555
2998.45	0.4476
3006.85	0.4351
3015.26	0.4253
3023.67	0.4194
3032.07	0.418
3040.48	0.4157
3048.88	0.4091
3057.29	0.4035
3065.7	0.403
3074.1	0.4033
3082.51	0.4077
3090.91	0.4144
3099.32	0.4212
3107.73	0.425
3116.13	0.4245
3124.54	0.4068
3132.94	0.3978
3141.35	0.3917
3149.76	0.3864
3158.16	0.3796
3166.57	0.3708
3174.97	0.3608
3183.38	0.3493
3191.79	0.3316
3200.19	0.3167
3208.6	0.2999
3217	0.2832
3225.41	0.2647
3233.82	0.2446
3242.22	0.2228
3250.63	0.2007
3259.03	0.1661
3267.44	0.142
3275.85	0.1423
3284.25	0.1558
3292.66	0.1856
3301.06	0.2394
3309.47	0.2905
3317.88	0.3333
3326.28	0.3637
3334.69	0.4042
3343.09	0.4372
3351.5	0.4617
3359.91	0.4751
3368.31	0.4781
3376.72	0.4895
3385.12	0.5006
3393.53	0.5053
3401.94	0.511
3410.34	0.511
3418.75	0.51
3427.15	0.509
3435.56	0.508
3443.97	0.4963
3452.37	0.492
3460.78	0.491
3469.18	0.491
3477.59	0.488
3486	0.488
3494.4	0.488
3502.81	0.488
3511.21	0.4895
3519.62	0.489
3528.03	0.4907
3536.43	0.493
3544.84	0.494
3553.24	0.494
3561.65	0.494
3570.06	0.494
3578.46	0.494
3586.87	0.495
3595.27	0.496
3603.68	0.497
3612.09	0.4975
3620.49	0.499
3628.9	0.4997
3637.3	0.5019
3645.71	0.5065
3654.12	0.5085
3662.52	0.5104
3670.93	0.512
3679.33	0.512
3687.74	0.5115
3696.15	0.511
3704.55	0.512
3712.96	0.514
3721.36	0.514
3729.77	0.514
3738.18	0.514
3746.58	0.5104
3754.99	0.5056
3763.39	0.5036
3771.8	0.503
3780.21	0.503
3788.61	0.5039
3797.02	0.505
3805.42	0.505
3813.83	0.5028
3822.24	0.4996
3830.64	0.496
3839.05	0.496
3847.45	0.494
3855.86	0.4936
3864.27	0.493
3872.67	0.493
3881.08	0.4926
3889.48	0.491
3897.89	0.491
3906.3	0.491
3914.7	0.491
3923.11	0.491
3931.51	0.491
3939.92	0.4901
3948.33	0.488
3956.73	0.4876
3965.14	0.487
3973.54	0.485
