Infrared Spectrum: 2-Trifluoromethyl-N,N-dimethyl-4-nitroaniline
Formula: C9 H9 F3 N2 O2
CAS: 54672-09-2
State: gas
Origin: EPA-IR VAPOR PHASE LIBRARY
1/CM	ABSORBANCE
551.7	0.005118
563.274	0.004118
574.848	0.006178
586.421	0.008408
597.995	0.009148
609.569	0.009748
621.143	0.012408
632.717	0.011128
644.291	0.004598
655.864	0.012298
667.438	0.035758
679.012	0.017118
690.586	0.007898
702.16	0.006578
713.734	0.007478
725.307	0.015558
736.881	0.032898
748.455	0.014038
760.029	0.006038
771.603	0.004718
783.177	0.017088
794.75	0.033778
806.324	0.008268
817.898	0.006438
829.472	0.013388
841.046	0.013698
852.619	0.006328
864.193	0.004368
875.767	0.006908
887.341	0.013638
898.915	0.009228
910.489	0.017088
922.062	0.032318
933.636	0.031638
945.21	0.049468
956.784	0.024418
968.358	0.009308
979.932	0.006018
991.505	0.005428
1003.08	0.005928
1014.65	0.007228
1026.23	0.012518
1037.8	0.038388
1049.37	0.090238
1060.95	0.051578
1072.52	0.028038
1084.1	0.027168
1095.67	0.040648
1107.24	0.084738
1118.82	0.190558
1130.39	0.217788
1141.97	0.215638
1153.54	0.176498
1165.11	0.178368
1176.69	0.187988
1188.26	0.100038
1199.83	0.059648
1211.41	0.042678
1222.98	0.034778
1234.56	0.034298
1246.13	0.043028
1257.7	0.062278
1269.28	0.098308
1280.85	0.166368
1292.42	0.137058
1304	0.171168
1315.57	0.192288
1327.15	0.166558
1338.72	0.227178
1350.29	0.270598
1361.87	0.132558
1373.44	0.045508
1385.02	0.031368
1396.59	0.033698
1408.16	0.052308
1419.74	0.080788
1431.31	0.059418
1442.88	0.050358
1454.46	0.050028
1466.03	0.053728
1477.61	0.056968
1489.18	0.104498
1500.75	0.133238
1512.33	0.082868
1523.9	0.073028
1535.48	0.139918
1547.05	0.109358
1558.62	0.049408
1570.2	0.056168
1581.77	0.106298
1593.34	0.145028
1604.92	0.116438
1616.49	0.089228
1628.07	0.035978
1639.64	0.018648
1651.21	0.013028
1662.79	0.009978
1674.36	0.007668
1685.93	0.006108
1697.51	0.004728
1709.08	0.003698
1720.66	0.003268
1732.23	0.003088
1743.8	0.002898
1755.38	0.002678
1766.95	0.002448
1778.53	0.002518
1790.1	0.002668
1801.67	0.002608
1813.25	0.002618
1824.82	0.003178
1836.39	0.003948
1847.97	0.003218
1859.54	0.002238
1871.12	0.002098
1882.69	0.002278
1894.26	0.002538
1905.84	0.003118
1917.41	0.003818
1928.99	0.003108
1940.56	0.002198
1952.13	0.001698
1963.71	0.001338
1975.28	0.001238
1986.85	0.001228
1998.43	0.001208
2010	0.001278
2021.58	0.001228
2033.15	0.001358
2044.72	0.001638
2056.3	0.001798
2067.87	0.001898
2079.44	0.001858
2091.02	0.001848
2102.59	0.001708
2114.17	0.001408
2125.74	0.001298
2137.31	0.001278
2148.89	0.001268
2160.46	0.001318
2172.04	0.001298
2183.61	0.001278
2195.18	0.001438
2206.76	0.001488
2218.33	0.001658
2229.9	0.002158
2241.48	0.002168
2253.05	0.001878
2264.63	0.001658
2276.2	0.001598
2287.77	0.001588
2299.35	0.001738
2310.92	0.001908
2322.5	0.002078
2334.07	0.001838
2345.64	0.001538
2357.22	0.001338
2368.79	0.001268
2380.36	0.001268
2391.94	0.001338
2403.51	0.001428
2415.09	0.001568
2426.66	0.001798
2438.23	0.001908
2449.81	0.002238
2461.38	0.002658
2472.96	0.002758
2484.53	0.002378
2496.1	0.002098
2507.68	0.001988
2519.25	0.002018
2530.82	0.002118
2542.4	0.002048
2553.97	0.001908
2565.55	0.001828
2577.12	0.001888
2588.69	0.002048
2600.27	0.002088
2611.84	0.002288
2623.41	0.002588
2634.99	0.002838
2646.56	0.002788
2658.14	0.002468
2669.71	0.002358
2681.28	0.002468
2692.86	0.002688
2704.43	0.002848
2716.01	0.003128
2727.58	0.003668
2739.15	0.004448
2750.73	0.005458
2762.3	0.007338
2773.87	0.010918
2785.45	0.018138
2797.02	0.031338
2808.6	0.037688
2820.17	0.028948
2831.74	0.025398
2843.32	0.033148
2854.89	0.037728
2866.47	0.034928
2878.04	0.034138
2889.61	0.032928
2901.19	0.029968
2912.76	0.027348
2924.33	0.026528
2935.91	0.028188
2947.48	0.036778
2959.06	0.048718
2970.63	0.032228
2982.2	0.021578
2993.78	0.021658
3005.35	0.014948
3016.92	0.008878
3028.5	0.006378
3040.07	0.004818
3051.65	0.003928
3063.22	0.003678
3074.79	0.004348
3086.37	0.007668
3097.94	0.010538
3109.52	0.005648
3121.09	0.002948
3132.66	0.001928
3144.24	0.001348
3155.81	0.001158
3167.38	0.0010736
3178.96	0.001218
3190.53	0.001328
3202.11	0.001488
3213.68	0.001148
3225.25	0.0008108
3236.83	0.0007173
3248.4	0.0006012
3259.98	0.0004462
3271.55	0.0003939
3283.12	0.0002347
3294.7	0.00016595
3306.27	0.0002091
3317.84	0.000137
3329.42	0.0002798
3340.99	4.66e-05
3352.57	0.0002406
3364.14	8.54e-05
3375.71	0.0001586
3387.29	0.00016514
3398.86	0.000120985
3410.43	0.00014931
3422.01	0.00012559
3433.58	0.00019642
3445.16	0.0002195
3456.73	0.000101
3468.3	0.0002358
3479.88	8.28e-05
3491.45	0.00017599
3503.03	0.00016213
3514.6	0.00016719
3526.17	0.00011522
3537.75	0.0001013
3549.32	0.00010909
3560.89	0.00014081
3572.47	0.0001031
3584.04	0.00014979
3595.62	5.21e-05
3607.19	0
3618.76	0.00016047
3630.34	0.0001016
3641.91	0.0002689
3653.49	5.28e-05
3665.06	4.82e-05
3676.63	0.000120394
3688.21	0.00016235
3699.78	0.00018974
3711.35	0.0002309
3722.93	0.000118921
3734.5	0.00020576
3746.08	0.0003202
3757.65	0.0004392
3769.22	0.0002214
3780.8	0.0002723
3792.37	0.0002424
3803.94	0.000238
3815.52	0.00021432
3827.09	0.00015818
3838.67	0.00018938
3850.24	0.0002834
3861.81	0.0002435
3873.39	0.0002804
3884.96	0.0003207
3896.54	0.0003278
3908.11	0.0002812
3919.68	0.0003348
3931.26	0.0002527
3942.83	0.0002769
3954.4	0.0004144
3965.98	0.0004
3977.55	0.0004605
3989.13	0.0004667
4000.7	0.0005223
