Infrared Spectrum: TARTRONIC ACID, DIETHYL ESTER, ACETATE
Formula: C9 H14 O6
CAS: 5468-23-5
State: SOLUTION (10% CCl4 FOR 3800-1330, 10% CS2 FOR 1330-400 CM^-^1)
Class: COBLENTZ III
Instrument: DOW KBr FOREPRISM-GRATING
Instrument parameters: BLAZED AT 3.5, 12.0, 20.0 MICRON AND CHANGED AT 5.0, 7.5, 14.9 MICRON
Sampling: TRANSMISSION
Path length: 0.011 CM, 0.012 CM
Resolution: 2
Origin: DOW CHEMICAL COMPANY
1/CM	TRANSMITTANCE
384	0.1894
393	0.1984
402	0.2347
411	0.4568
420	0.6845
429	0.8078
438	0.8325
447	0.8586
456	0.888
465	0.9368
474	0.9718
483	0.9758
492	0.9555
501	0.9037
510	0.8711
519	0.8301
528	0.891
537	0.9737
546	0.9951
555	0.9935
564	0.9809
573	0.9246
582	0.8536
591	0.8514
600	0.818
609	0.855
618	0.906
627	0.9346
636	0.9267
645	0.867
654	0.7921
663	0.9007
672	0.9581
681	0.9559
690	0.9503
699	0.9402
708	0.9228
717	0.9028
726	0.8805
735	0.8599
744	0.8208
753	0.8468
762	0.9105
771	0.9417
780	0.9408
789	0.933
798	0.9311
807	0.9253
816	0.926
825	0.935
834	0.9332
843	0.8985
852	0.7798
861	0.4639
870	0.5927
879	0.8178
888	0.945
897	0.9607
906	0.8368
915	0.6508
924	0.9289
933	0.9355
942	0.8456
951	0.8328
960	0.9001
969	0.8654
978	0.7843
987	0.7862
996	0.7989
1005	0.6884
1014	0.518
1023	0.1685
1032	0.0482
1041	0.0855
1050	0.3787
1059	0.5495
1068	0.5001
1077	0.32
1086	0.1539
1095	0.0411
1104	0.0502
1113	0.13
1122	0.3878
1131	0.563
1140	0.5582
1149	0.3556
1158	0.1379
1167	0.0932
1176	0.0625
1185	0.0327
1194	0.0295
1203	0.0022
1212	0.0032
1221	0.01
1230	0.0506
1239	0.1259
1248	0.1026
1257	0.0704
1266	0.0833
1275	0.1109
1284	0.122
1293	0.1446
1302	0.149
1311	0.1969
1320	0.2362
1329	0.2802
1338	0.2579
1347	0.2759
1356	0.5815
1365	0.4276
1374	0.0339
1383	0.2184
1392	0.4197
1401	0.3937
1410	0.638
1419	0.6725
1428	0.6285
1437	0.5882
1446	0.4835
1455	0.5364
1464	0.5399
1473	0.4512
1482	0.4579
1491	0.7445
1500	0.7428
1509	0.6958
1518	0.6639
1527	0.6196
1536	0.5696
1545	0.486
1554	0.4655
1563	0.5169
1572	0.5834
1581	0.6246
1590	0.6476
1599	0.7112
1608	0.7795
1617	0.813
1626	0.8315
1635	0.8341
1644	0.8297
1653	0.8225
1662	0.8204
1671	0.8126
1680	0.7997
1689	0.7757
1698	0.7235
1707	0.6272
1716	0.5321
1725	0.3192
1734	0.1318
1743	0.0034
1752	0.0008
1761	0.0017
1770	0.0031
1779	0.0135
1788	0.2218
1797	0.5436
1806	0.6539
1815	0.711
1824	0.7599
1833	0.7845
1842	0.8048
1851	0.8236
1860	0.8351
1869	0.8416
1878	0.8468
1887	0.8533
1896	0.8673
1905	0.8806
1914	0.8877
1923	0.893
1932	0.8968
1941	0.8989
1950	0.9007
1959	0.9048
1968	0.9014
1977	0.8973
1986	0.8951
1995	0.8943
2004	0.8684
2013	0.8649
2022	0.8618
2031	0.8623
2040	0.8657
2049	0.8671
2058	0.868
2067	0.8683
2076	0.8685
2085	0.8688
2094	0.8684
2103	0.8653
2112	0.8628
2121	0.862
2130	0.8637
2139	0.865
2148	0.8661
2157	0.8671
2166	0.868
2175	0.8686
2184	0.8689
2193	0.8694
2202	0.8709
2211	0.8723
2220	0.8744
2229	0.8725
2238	0.871
2247	0.8725
2256	0.873
2265	0.8703
2274	0.8662
2283	0.8621
2292	0.8584
2301	0.8575
2310	0.8583
2319	0.8603
2328	0.8611
2337	0.8615
2346	0.864
2355	0.8671
2364	0.8705
2373	0.8675
2382	0.8675
2391	0.8677
2400	0.8674
2409	0.8665
2418	0.8652
2427	0.8637
2436	0.8618
2445	0.8634
2454	0.8644
2463	0.8645
2472	0.8639
2481	0.8646
2490	0.8671
2499	0.8704
2508	0.8712
2517	0.8708
2526	0.8698
2535	0.8689
2544	0.8684
2553	0.8685
2562	0.8685
2571	0.8684
2580	0.8678
2589	0.8671
2598	0.8666
2607	0.8666
2616	0.8668
2625	0.867
2634	0.8671
2643	0.8671
2652	0.8671
2661	0.867
2670	0.8668
2679	0.8668
2688	0.8663
2697	0.8654
2706	0.8636
2715	0.8606
2724	0.8571
2733	0.8531
2742	0.8517
2751	0.852
2760	0.851
2769	0.8484
2778	0.8464
2787	0.8489
2796	0.8511
2805	0.8494
2814	0.8442
2823	0.8375
2832	0.8402
2841	0.8348
2850	0.8285
2859	0.8203
2868	0.8025
2877	0.733
2886	0.7615
2895	0.7667
2904	0.6318
2913	0.584
2922	0.6615
2931	0.6731
2940	0.5502
2949	0.5039
2958	0.588
2967	0.4844
2976	0.4212
2985	0.346
2994	0.221
3003	0.347
3012	0.4866
3021	0.6252
3030	0.6761
3039	0.7354
3048	0.7932
3057	0.8115
3066	0.8174
3075	0.8238
3084	0.8284
3093	0.8318
3102	0.8345
3111	0.836
3120	0.837
3129	0.8373
3138	0.8375
3147	0.8375
3156	0.8377
3165	0.8377
3174	0.8377
3183	0.8375
3192	0.8378
3201	0.8382
3210	0.8386
3219	0.8393
3228	0.8404
3237	0.8413
3246	0.8413
3255	0.841
3264	0.8408
3273	0.8397
3282	0.8386
3291	0.8375
3300	0.8365
3309	0.8354
3318	0.8344
3327	0.8334
3336	0.8324
3345	0.8311
3354	0.8299
3363	0.8286
3372	0.8273
3381	0.8253
3390	0.8232
3399	0.8209
3408	0.8188
3417	0.8165
3426	0.8137
3435	0.8108
3444	0.808
3453	0.8017
3462	0.7951
3471	0.7865
3480	0.7751
3489	0.7614
3498	0.7524
3507	0.7525
3516	0.7584
3525	0.771
3534	0.7826
3543	0.7951
3552	0.8054
3561	0.8145
3570	0.8213
3579	0.8268
3588	0.8314
3597	0.84
3606	0.8481
3615	0.8539
3624	0.8581
3633	0.8603
3642	0.8608
3651	0.8602
3660	0.8591
3669	0.8568
3678	0.8537
3687	0.851
3696	0.8493
3705	0.8516
3714	0.8651
3723	0.8689
3732	0.8691
3741	0.8644
3750	0.8661
3759	0.8742
3768	0.8752
3777	0.8728
3786	0.8689
