Infrared Spectrum: 4'-Benzyloxyacetophenone
Formula: C 15 H 14 O 2
CAS: 54696-05-8
State: gas
Origin: EPA-IR VAPOR PHASE LIBRARY
1/CM	ABSORBANCE
551.7	0.00685
563.274	0.01111
574.848	0.011
586.421	0.01378
597.995	0.01776
609.569	0.01304
621.143	0.00546
632.717	0.00404
644.291	0.00378
655.864	0.00342
667.438	0.00478
679.012	0.00802
690.586	0.01471
702.16	0.01547
713.734	0.01222
725.307	0.01473
736.881	0.01775
748.455	0.0114
760.029	0.00658
771.603	0.00382
783.177	0.00364
794.75	0.00673
806.324	0.00988
817.898	0.01202
829.472	0.02164
841.046	0.01968
852.619	0.01207
864.193	0.00694
875.767	0.00483
887.341	0.00455
898.915	0.00551
910.489	0.00562
922.062	0.00504
933.636	0.00663
945.21	0.01623
956.784	0.01979
968.358	0.01193
979.932	0.01341
991.505	0.01866
1003.08	0.02704
1014.65	0.03576
1026.23	0.03289
1037.8	0.01731
1049.37	0.00919
1060.95	0.00686
1072.52	0.00692
1084.1	0.00608
1095.67	0.00595
1107.24	0.00761
1118.82	0.00743
1130.39	0.0064
1141.97	0.00751
1153.54	0.01439
1165.11	0.06407
1176.69	0.06426
1188.26	0.01951
1199.83	0.02141
1211.41	0.04925
1222.98	0.09837
1234.56	0.11242
1246.13	0.12522
1257.7	0.11807
1269.28	0.07383
1280.85	0.03515
1292.42	0.03342
1304	0.03161
1315.57	0.02367
1327.15	0.01477
1338.72	0.01411
1350.29	0.02333
1361.87	0.04067
1373.44	0.02318
1385.02	0.01558
1396.59	0.01058
1408.16	0.015
1419.74	0.01534
1431.31	0.0106
1442.88	0.01032
1454.46	0.01204
1466.03	0.01371
1477.61	0.00935
1489.18	0.01264
1500.75	0.04066
1512.33	0.03239
1523.9	0.00994
1535.48	0.00794
1547.05	0.00843
1558.62	0.01209
1570.2	0.02365
1581.77	0.03876
1593.34	0.07565
1604.92	0.08587
1616.49	0.02885
1628.07	0.01241
1639.64	0.00822
1651.21	0.00778
1662.79	0.00901
1674.36	0.01312
1685.93	0.03201
1697.51	0.09068
1709.08	0.0458
1720.66	0.01468
1732.23	0.00786
1743.8	0.00581
1755.38	0.00479
1766.95	0.0039
1778.53	0.00311
1790.1	0.00305
1801.67	0.00332
1813.25	0.0026
1824.82	0.00228
1836.39	0.00215
1847.97	0.00235
1859.54	0.00282
1871.12	0.00302
1882.69	0.00309
1894.26	0.00289
1905.84	0.00267
1917.41	0.00252
1928.99	0.00287
1940.56	0.00316
1952.13	0.00311
1963.71	0.00283
1975.28	0.00234
1986.85	0.00218
1998.43	0.0021
2010	0.00223
2021.58	0.0025
2033.15	0.00232
2044.72	0.00208
2056.3	0.00193
2067.87	0.00175
2079.44	0.00155
2091.02	0.00151
2102.59	0.00142
2114.17	0.00128
2125.74	0.00108
2137.31	0.0009851
2148.89	0.0009508
2160.46	0.001
2172.04	0.00106
2183.61	0.00101
2195.18	0.0009888
2206.76	0.00101
2218.33	0.0009724
2229.9	0.0009361
2241.48	0.0009136
2253.05	0.0009598
2264.63	0.0009866
2276.2	0.00106
2287.77	0.00108
2299.35	0.00118
2310.92	0.00131
2322.5	0.00127
2334.07	0.00123
2345.64	0.00119
2357.22	0.00111
2368.79	0.0011
2380.36	0.00117
2391.94	0.00129
2403.51	0.00144
2415.09	0.00146
2426.66	0.00143
2438.23	0.00134
2449.81	0.00136
2461.38	0.00142
2472.96	0.0014
2484.53	0.00138
2496.1	0.00136
2507.68	0.00151
2519.25	0.00172
2530.82	0.00188
2542.4	0.00195
2553.97	0.00194
2565.55	0.00195
2577.12	0.00186
2588.69	0.00174
2600.27	0.00151
2611.84	0.00134
2623.41	0.00112
2634.99	0.00102
2646.56	0.0009588
2658.14	0.0008964
2669.71	0.000893
2681.28	0.000906
2692.86	0.0008897
2704.43	0.0009619
2716.01	0.00104
2727.58	0.0011
2739.15	0.00113
2750.73	0.00112
2762.3	0.00119
2773.87	0.00123
2785.45	0.00122
2797.02	0.00132
2808.6	0.00151
2820.17	0.00182
2831.74	0.00217
2843.32	0.00257
2854.89	0.00315
2866.47	0.00458
2878.04	0.00654
2889.61	0.00774
2901.19	0.00659
2912.76	0.0062
2924.33	0.00705
2935.91	0.0082
2947.48	0.00839
2959.06	0.00836
2970.63	0.00641
2982.2	0.00489
2993.78	0.00431
3005.35	0.00595
3016.92	0.00865
3028.5	0.01114
3040.07	0.01505
3051.65	0.01342
3063.22	0.01351
3074.79	0.01787
3086.37	0.01199
3097.94	0.0095
3109.52	0.00669
3121.09	0.00397
3132.66	0.00211
3144.24	0.0016
3155.81	0.00141
3167.38	0.00119
3178.96	0.00107
3190.53	0.000953
3202.11	0.0009284
3213.68	0.0008404
3225.25	0.000707
3236.83	0.0007081
3248.4	0.0007092
3259.98	0.0006587
3271.55	0.0006948
3283.12	0.0006773
3294.7	0.0007306
3306.27	0.000716
3317.84	0.0007069
3329.42	0.0007448
3340.99	0.000796
3352.57	0.0009086
3364.14	0.00122
3375.71	0.00199
3387.29	0.00197
3398.86	0.00116
3410.43	0.0008576
3422.01	0.0007572
3433.58	0.0006538
3445.16	0.0007045
3456.73	0.0006812
3468.3	0.0006595
3479.88	0.0007055
3491.45	0.0007293
3503.03	0.0006988
3514.6	0.0006197
3526.17	0.00062
3537.75	0.0006801
3549.32	0.000726
3560.89	0.000723
3572.47	0.0006815
3584.04	0.0006814
3595.62	0.0006202
3607.19	0.0006054
3618.76	0.0007481
3630.34	0.000758
3641.91	0.0007247
3653.49	0.0008257
3665.06	0.0008096
3676.63	0.0008812
3688.21	0.0008243
3699.78	0.0007172
3711.35	0.0007642
3722.93	0.0007303
3734.5	0.0007667
3746.08	0.0007956
3757.65	0.0006896
3769.22	0.0006366
3780.8	0.0007838
3792.37	0.0007267
3803.94	0.0006772
3815.52	0.0006888
3827.09	0.0006846
3838.67	0.0007826
3850.24	0.0008356
3861.81	0.0007544
3873.39	0.0008281
3884.96	0.0009068
3896.54	0.0008123
3908.11	0.0007928
3919.68	0.000842
3931.26	0.0008328
3942.83	0.000873
3954.4	0.0008472
3965.98	0.0008274
3977.55	0.0007609
3989.13	0.0007448
4000.7	0.0007759
