Infrared Spectrum: 1-Bromo-3,3-dimethyl-2-butanone
Formula: C 6 H 11 Br O
CAS: 5469-26-1
State: gas
Instrument: HP-GC/MS/IRD
Origin: NIST Mass Spectrometry Data Center
1/CM	ABSORBANCE
550	0.0003105
562	0.0004896
574	0.0010701
586	0.0010548
598	0.000396
610	0.0001278
622	4.32e-05
634	0.000126
646	0.0002547
658	0.0005238
670	0.0013482
682	0.001368
694	0.0007848
706	0.0002916
718	0.0001908
730	9.45e-05
742	4.5e-05
754	9.45e-05
766	0.000135
778	4.41e-05
790	7.11e-05
802	9.18e-05
814	9.72e-05
826	0.0002673
838	0.0002232
850	8.91e-05
862	9.36e-05
874	5.13e-05
886	0.0001017
898	9.54e-05
910	0.0001071
922	0.000171
934	0.0002673
946	0.0002682
958	0.0002205
970	0.0002799
982	0.0006822
994	0.0018225
1006	0.0023571
1018	0.0017541
1030	0.0015489
1042	0.0022869
1054	0.0035181
1066	0.0022842
1078	0.0008154
1090	0.0004104
1102	0.0003348
1114	0.0004329
1126	0.0006642
1138	0.0011232
1150	0.0018396
1162	0.0015885
1174	0.0009198
1186	0.0007866
1198	0.0010458
1210	0.0014202
1222	0.0012258
1234	0.0007137
1246	0.0005463
1258	0.0006417
1270	0.000954
1282	0.0008406
1294	0.000405
1306	0.0002214
1318	0.0002115
1330	0.0002007
1342	0.0003357
1354	0.0008118
1366	0.001746
1378	0.0018585
1390	0.0016425
1402	0.0017181
1414	0.0012843
1426	0.0013833
1438	0.0011313
1450	0.0011421
1462	0.0017847
1474	0.0026388
1486	0.0023544
1498	0.0008883
1510	0.0004131
1522	0.0002745
1534	0.0001863
1546	0.0001989
1558	0.0001818
1570	0.0001431
1582	0.0001296
1594	0.0001251
1606	0.0001404
1618	0.0001638
1630	0.000171
1642	0.0001899
1654	0.0003114
1666	0.0004734
1678	0.0008064
1690	0.0016191
1702	0.003519
1714	0.0059472
1726	0.0066186
1738	0.0047502
1750	0.0024318
1762	0.0010179
1774	0.0004518
1786	0.0002277
1798	0.0001602
1810	0.0001107
1822	0.0001332
1834	7.74e-05
1846	0.0001143
1858	0.0001143
1870	0.0001044
1882	0.0001116
1894	9.99e-05
1906	9.36e-05
1918	0.0001107
1930	9.81e-05
1942	9.36e-05
1954	9.27e-05
1966	6.93e-05
1978	5.67e-05
1990	7.74e-05
2002	3.69e-05
2014	7.29e-05
2026	4.95e-05
2038	5.4e-05
2050	6.66e-05
2062	7.56e-05
2074	7.65e-05
2086	6.12e-05
2098	8.82e-05
2110	5.31e-05
2122	9e-06
2134	5.4e-05
2146	8.1e-05
2158	5.04e-05
2170	4.32e-05
2182	5.49e-05
2194	7.74e-05
2206	4.95e-05
2218	4.05e-05
2230	6.12e-05
2242	7.11e-05
2254	3.33e-05
2266	5.49e-05
2278	5.67e-05
2290	9.72e-05
2302	9.99e-05
2314	5.49e-05
2326	6.21e-05
2338	6.3e-06
2350	4.05e-05
2362	1.62e-05
2374	1.17e-05
2386	7.02e-05
2398	6.66e-05
2410	7.92e-05
2422	5.85e-05
2434	6.57e-05
2446	6.21e-05
2458	6.3e-05
2470	7.92e-05
2482	4.59e-05
2494	6.03e-05
2506	4.59e-05
2518	9.9e-06
2530	6.39e-05
2542	7.38e-05
2554	2.7e-05
2566	6.39e-05
2578	8.1e-05
2590	7.11e-05
2602	7.11e-05
2614	0.0001098
2626	4.41e-05
2638	7.65e-05
2650	8.37e-05
2662	4.41e-05
2674	5.04e-05
2686	7.47e-05
2698	9e-05
2710	9.45e-05
2722	0.0001332
2734	0.0001575
2746	0.0001386
2758	0.0001602
2770	0.0001368
2782	0.0001233
2794	0.0002385
2806	0.0002196
2818	0.0002691
2830	0.0003474
2842	0.0004014
2854	0.0006525
2866	0.0012258
2878	0.0019656
2890	0.0021267
2902	0.0022158
2914	0.0025722
2926	0.0029889
2938	0.0035703
2950	0.0047403
2962	0.0071424
2974	0.009
2986	0.0064089
2998	0.0030978
3010	0.0011484
3022	0.0005229
3034	0.0003186
3046	0.0002862
3058	0.0002205
3070	0.0002088
3082	0.0001863
3094	0.0001971
3106	0.0001962
3118	0.0001872
3130	0.0002088
3142	0.0002007
3154	0.0002232
3166	0.000252
3178	0.0001557
3190	0.0001899
3202	0.000162
3214	0.000198
3226	0.0001683
3238	0.0001917
3250	0.0001323
3262	0.0001611
3274	0.0001521
3286	0.0001557
3298	0.0001377
3310	0.0001332
3322	0.0001035
3334	0.0001179
3346	8.28e-05
3358	0.0001386
3370	0.0001593
3382	0.0001809
3394	0.0002106
3406	0.0001692
3418	0.0001629
3430	0.0001764
3442	0.000162
3454	0.0001188
3466	0.0001188
3478	5.49e-05
3490	5.4e-05
3502	1.08e-05
3514	9e-05
3526	7.65e-05
3538	5.22e-05
3550	5.04e-05
3562	5.4e-05
3574	9.27e-05
3586	4.95e-05
3598	5.58e-05
3610	5.31e-05
3622	3.6e-05
3634	9.27e-05
3646	7.11e-05
3658	8.46e-05
3670	0.0001098
3682	8.1e-05
3694	8.64e-05
3706	6.39e-05
3718	8.19e-05
3730	6.93e-05
3742	0.0001188
3754	0.0001638
3766	0.0001044
3778	2.43e-05
3790	6.84e-05
3802	8.91e-05
3814	0.0001017
3826	0.0001548
3838	6.12e-05
