Infrared Spectrum: .alpha.-Acetoamidocinnamic acid
Formula: C 11 H 11 N O 3
CAS: 5469-45-4
State: gas
Instrument: HP-GC/MS/IRD
Origin: NIST Mass Spectrometry Data Center
1/CM	ABSORBANCE
550	0.0004004
562	0.000266
574	1.96e-05
586	9.8e-05
598	0.0002968
610	0.0011284
622	0.0008008
634	0.0003332
646	0.00063
658	0.0007588
670	0.0010724
682	0.002646
694	0.0029316
706	0.0012516
718	0.000854
730	0.000672
742	0.0010584
754	0.0022988
766	0.0036204
778	0.001652
790	0.000672
802	0.000602
814	0.001078
826	0.0023324
838	0.0035672
850	0.0077252
862	0.0070896
874	0.0035336
886	0.00616
898	0.0045416
910	0.0014728
922	0.00126
934	0.0010976
946	0.0005684
958	0.000518
970	0.000476
982	0.0006664
994	0.0007112
1006	0.0002996
1018	0.0004256
1030	0.00098
1042	0.0010556
1054	0.0008652
1066	0.0006608
1078	0.000672
1090	0.0007616
1102	0.000854
1114	0.0007588
1126	0.0009912
1138	0.0022988
1150	0.0078736
1162	0.0108724
1174	0.0036932
1186	0.0016044
1198	0.001358
1210	0.0017584
1222	0.0025228
1234	0.0025704
1246	0.0029568
1258	0.0078456
1270	0.014672
1282	0.0062916
1294	0.0025844
1306	0.0022008
1318	0.0018004
1330	0.001442
1342	0.0012936
1354	0.0019236
1366	0.0026544
1378	0.0033432
1390	0.0046256
1402	0.0015512
1414	0.0008792
1426	0.0011704
1438	0.0017472
1450	0.0016324
1462	0.0008904
1474	0.0004704
1486	0.0007252
1498	0.0008904
1510	0.0004956
1522	0.0004536
1534	0.0005348
1546	0.000602
1558	0.0007224
1570	0.0010192
1582	0.0017388
1594	0.0037324
1606	0.006006
1618	0.003164
1630	0.0026236
1642	0.0053228
1654	0.0116452
1666	0.0131796
1678	0.00735
1690	0.0031388
1702	0.0019264
1714	0.0013664
1726	0.0012684
1738	0.0015708
1750	0.0019628
1762	0.002828
1774	0.0037604
1786	0.003472
1798	0.0047012
1810	0.0098868
1822	0.0260008
1834	0.0195888
1846	0.0063168
1858	0.0030744
1870	0.0023828
1882	0.00189
1894	0.001176
1906	0.0008596
1918	0.0006132
1930	0.0004956
1942	0.0004648
1954	0.000476
1966	0.0003976
1978	0.0002828
1990	0.0002548
2002	0.000266
2014	0.0002548
2026	0.000308
2038	0.0003836
2050	0.0003556
2062	0.000224
2074	0.0001456
2086	0.0001456
2098	0.0001288
2110	0.0001456
2122	0.0001148
2134	0.0001456
2146	0.0001624
2158	0.0001484
2170	8.4e-05
2182	7.28e-05
2194	9.8e-05
2206	0.0001036
2218	0.0001008
2230	0.0001008
2242	9.8e-05
2254	8.68e-05
2266	6.44e-05
2278	6.44e-05
2290	7.56e-05
2302	0.0001428
2314	0.0002044
2326	9.8e-05
2338	6.16e-05
2350	6.16e-05
2362	1.96e-05
2374	6.72e-05
2386	5.6e-05
2398	7.28e-05
2410	8.4e-05
2422	8.4e-05
2434	0.0001148
2446	0.0001092
2458	0.0001288
2470	6.72e-05
2482	7.56e-05
2494	6.16e-05
2506	3.08e-05
2518	7.84e-05
2530	3.64e-05
2542	5.88e-05
2554	4.76e-05
2566	4.2e-05
2578	5.6e-05
2590	4.2e-05
2602	5.32e-05
2614	3.64e-05
2626	2.8e-05
2638	2.24e-05
2650	7e-05
2662	5.88e-05
2674	8.4e-06
2686	4.48e-05
2698	6.72e-05
2710	3.36e-05
2722	7.28e-05
2734	5.04e-05
2746	5.32e-05
2758	4.2e-05
2770	1.96e-05
2782	3.08e-05
2794	1.68e-05
2806	3.36e-05
2818	5.88e-05
2830	3.08e-05
2842	4.48e-05
2854	0.0001092
2866	0.0001288
2878	8.4e-05
2890	5.88e-05
2902	6.16e-05
2914	8.96e-05
2926	0.0001176
2938	0.0004144
2950	0.0003976
2962	0.0001568
2974	0.000224
2986	0.0003024
2998	0.0002856
3010	0.0003836
3022	0.0007728
3034	0.0012684
3046	0.0010864
3058	0.0014448
3070	0.0028448
3082	0.0020188
3094	0.0011368
3106	0.0005096
3118	0.0002576
3130	0.000182
3142	0.0001288
3154	0.0001624
3166	0.0001092
3178	0.0001064
3190	0.0001204
3202	0.0001484
3214	8.68e-05
3226	3.64e-05
3238	2.8e-05
3250	2.52e-05
3262	6.72e-05
3274	5.88e-05
3286	9.24e-05
3298	2.8e-05
3310	3.92e-05
3322	6.16e-05
3334	7e-05
3346	3.08e-05
3358	6.16e-05
3370	1.12e-05
3382	8.68e-05
3394	1.96e-05
3406	1.96e-05
3418	7e-05
3430	2.24e-05
3442	9.52e-05
3454	0.0001008
3466	3.92e-05
3478	4.48e-05
3490	3.36e-05
3502	9.8e-05
3514	7.84e-05
3526	5.04e-05
3538	0.0001036
3550	2.24e-05
3562	7.84e-05
3574	6.72e-05
3586	0.0001512
3598	0.0001232
3610	0.0002016
3622	0.0002352
3634	0.0003444
3646	0.0003444
3658	0.0002156
3670	0.0001708
3682	0.0001736
3694	9.52e-05
3706	7e-05
3718	2.52e-05
3730	5.04e-05
3742	2.24e-05
3754	0
3766	4.76e-05
3778	0
3790	2.24e-05
3802	4.2e-05
3814	5.6e-05
3826	0
3838	5.88e-05
