Infrared Spectrum: 8-HYDROXY-7-IODO-5-QUINOLINE SULFONIC ACID
Formula: C9 H6 I N O4 S
CAS: 547-91-1
State: SOLID (MULL)
Class: COBLENTZ
Instrument: Not specified, most likely a prism, grating, or hybrid spectrometer.
Sampling: TRANSMISSION
Resolution: 4
Origin: WYANDOTTE CHEMICALS CORP., WYANDOTTE, MICHIGAN, USA
MICROMETERS	TRANSMITTANCE
2.016	0.351
2.05589	0.356
2.09579	0.362
2.13568	0.376
2.17558	0.392
2.21547	0.394
2.25536	0.391
2.29526	0.409
2.33515	0.412
2.37505	0.415
2.41494	0.42
2.45484	0.43
2.49473	0.442
2.53462	0.442
2.57452	0.454
2.61441	0.462
2.65431	0.475
2.6942	0.484
2.73409	0.48
2.77399	0.485
2.81388	0.484
2.85378	0.484
2.89367	0.484
2.93357	0.48
2.97346	0.485
3.01335	0.482
3.05325	0.47
3.09314	0.427
3.13304	0.394
3.17293	0.344
3.21282	0.299
3.25272	0.196
3.29261	0.171
3.33251	0.104
3.3724	0.033
3.4123	0.023
3.45219	0.026
3.49208	0.029
3.53198	0.061
3.57187	0.106
3.61177	0.111
3.65166	0.111
3.69155	0.136
3.73145	0.149
3.77134	0.158
3.81124	0.191
3.85113	0.212
3.89103	0.242
3.93092	0.261
3.97081	0.276
4.01071	0.316
4.0506	0.366
4.0905	0.404
4.13039	0.417
4.17028	0.452
4.21018	0.475
4.25007	0.48
4.28997	0.49
4.32986	0.507
4.36975	0.537
4.40965	0.569
4.44954	0.577
4.48944	0.587
4.52933	0.595
4.56923	0.602
4.60912	0.613
4.64901	0.612
4.68891	0.633
4.7288	0.642
4.7687	0.653
4.80859	0.652
4.84848	0.645
4.88838	0.635
4.92827	0.572
4.96817	0.579
5.00806	0.622
5.04796	0.67
5.08785	0.68
5.12774	0.678
5.16764	0.62
5.20753	0.657
5.24743	0.65
5.28732	0.715
5.32721	0.743
5.36711	0.713
5.407	0.665
5.4469	0.722
5.48679	0.732
5.52669	0.765
5.56658	0.783
5.60647	0.801
5.64637	0.808
5.68626	0.805
5.72616	0.782
5.76605	0.826
5.80594	0.835
5.84584	0.811
5.88573	0.841
5.92563	0.858
5.96552	0.873
6.00542	0.876
6.04531	0.87
6.0852	0.713
6.1251	0.179
6.16499	0.539
6.20489	0.675
6.24478	0.717
6.28467	0.512
6.32457	0.407
6.36446	0.371
6.40436	0.131
6.44425	0.101
6.48414	0.272
6.52404	0.404
6.56393	0.437
6.60383	0.525
6.64372	0.599
6.68362	0.623
6.72351	0.597
6.7634	0.414
6.8033	0.274
6.84319	0.361
6.88309	0.482
6.92298	0.617
6.96287	0.728
7.00277	0.78
7.04266	0.816
7.08256	0.745
7.12245	0.599
7.16235	0.53
7.20224	0.272
7.24213	0.367
7.28203	0.517
7.32192	0.549
7.36182	0.464
7.40171	0.359
7.4416	0.5
7.4815	0.632
7.52139	0.682
7.56129	0.569
7.60118	0.354
7.64108	0.194
7.68097	0.118
7.72086	0.222
7.76076	0.424
7.80065	0.376
7.84055	0.415
7.88044	0.474
7.92033	0.522
7.96023	0.499
8.00012	0.379
8.04002	0.154
8.07991	0.136
8.11981	0.144
8.1597	0.139
8.19959	0.094
8.23949	0.064
8.27938	0.103
8.31928	0.084
8.35917	0.048
8.39906	0.026
8.43896	0.019
8.47885	0.021
8.51875	0.043
8.55864	0.129
8.59853	0.257
8.63843	0.332
8.67832	0.111
8.71822	0.038
8.75811	0.166
8.79801	0.337
8.8379	0.447
8.87779	0.515
8.91769	0.559
8.95758	0.613
8.99748	0.637
9.03737	0.589
9.07726	0.364
9.11716	0.126
9.15705	0.276
9.19695	0.519
9.23684	0.613
9.27674	0.633
9.31663	0.572
9.35652	0.43
9.39642	0.316
9.43631	0.234
9.47621	0.109
9.5161	0.034
9.55599	0.019
9.59589	0.033
9.63578	0.061
9.67568	0.068
9.71557	0.081
9.75547	0.161
9.79536	0.242
9.83525	0.324
9.87515	0.379
9.91504	0.444
9.95494	0.485
9.99483	0.525
10.0347	0.544
10.0746	0.557
10.1145	0.589
10.1544	0.615
10.1943	0.637
10.2342	0.652
10.2741	0.663
10.314	0.685
10.3539	0.702
10.3938	0.615
10.4337	0.371
10.4736	0.236
10.5135	0.389
10.5533	0.499
10.5932	0.547
10.6331	0.572
10.673	0.519
10.7129	0.49
10.7528	0.579
10.7927	0.618
10.8326	0.632
10.8725	0.544
10.9124	0.301
10.9523	0.585
10.9922	0.677
11.0321	0.73
11.072	0.752
11.1119	0.755
11.1518	0.76
11.1917	0.765
11.2315	0.765
11.2714	0.767
11.3113	0.77
11.3512	0.78
11.3911	0.788
11.431	0.79
11.4709	0.793
11.5108	0.801
11.5507	0.806
11.5906	0.803
11.6305	0.808
11.6704	0.801
11.7103	0.787
11.7502	0.727
11.7901	0.57
11.83	0.607
11.8699	0.687
11.9097	0.73
11.9496	0.755
11.9895	0.76
12.0294	0.76
12.0693	0.75
12.1092	0.72
12.1491	0.68
12.189	0.623
12.2289	0.525
12.2688	0.346
12.3087	0.154
12.3486	0.168
12.3885	0.396
12.4284	0.692
12.4683	0.811
12.5082	0.856
12.5481	0.873
12.588	0.878
12.6278	0.871
12.6677	0.86
12.7076	0.86
12.7475	0.848
12.7874	0.825
12.8273	0.778
12.8672	0.68
12.9071	0.48
12.947	0.282
12.9869	0.399
13.0268	0.688
13.0667	0.848
13.1066	0.901
13.1465	0.935
13.1864	0.961
13.2263	0.965
13.2662	0.965
13.306	0.961
13.3459	0.96
13.3858	0.958
13.4257	0.95
13.4656	0.94
13.5055	0.933
13.5454	0.918
13.5853	0.906
13.6252	0.856
13.6651	0.785
13.705	0.638
13.7449	0.444
13.7848	0.309
13.8247	0.342
13.8646	0.46
13.9045	0.557
13.9444	0.613
13.9842	0.579
14.0241	0.435
14.064	0.435
14.1039	0.554
14.1438	0.688
14.1837	0.763
14.2236	0.81
14.2635	0.836
14.3034	0.846
14.3433	0.853
14.3832	0.863
14.4231	0.858
14.463	0.856
14.5029	0.85
14.5428	0.836
14.5827	0.831
14.6226	0.818
14.6624	0.808
14.7023	0.803
14.7422	0.801
14.7821	0.793
14.822	0.793
14.8619	0.787
14.9018	0.777
14.9417	0.767
14.9816	0.755
15.0215	0.713
15.0614	0.668
15.1013	0.655
15.1412	0.673
15.1811	0.698
15.221	0.705
15.2609	0.708
15.3008	0.707
15.3406	0.697
15.3805	0.688
15.4204	0.675
15.4603	0.672
15.5002	0.67
15.5401	0.665
15.58	0.667
15.6199	0.655
15.6598	0.632
15.6997	0.587
15.7396	0.517
15.7795	0.437
15.8194	0.386
15.8593	0.364
15.8992	0.359
15.9391	0.362
15.979	0.362
