Infrared Spectrum: ESTRA-1,3,5(10)-TRIENE-3,16Beta,17Beta-TRIOL
Formula: C18 H24 O3
CAS: 547-81-9
State: SOLID (KBr DISC)
Class: COBLENTZ III
Instrument: BECKMAN IR-7
Sampling: TRANSMISSION
Resolution: 4
Origin: THE WORCESTER FOUNDATION FOR EXPERIMENTAL BIOLOGY, Neal L. McNiven
1/CM	TRANSMITTANCE
600	0.472
608.75	0.481
617.5	0.476
626.25	0.467
635	0.564
643.75	0.605
652.5	0.642
661.25	0.658
670	0.656
678.75	0.645
687.5	0.584
696.25	0.544
705	0.638
713.75	0.615
722.5	0.6969
731.25	0.731
740	0.752
748.75	0.792
757.5	0.805
766.25	0.832
775	0.765
783.75	0.369
792.5	0.402
801.25	0.7549
810	0.808
818.75	0.444
827.5	0.672
836.25	0.76
845	0.8
853.75	0.8049
862.5	0.833
871.25	0.85
880	0.4651
888.75	0.7769
897.5	0.898
906.25	0.732
915	0.684
923.75	0.821
932.5	0.5731
941.25	0.6938
950	0.885
958.75	0.808
967.5	0.645
976.25	0.831
985	0.768
993.75	0.754
1002.5	0.604
1011.25	0.485
1020	0.417
1028.75	0.4963
1037.5	0.361
1046.25	0.394
1055	0.201
1063.75	0.264
1072.5	0.092
1081.25	0.372
1090	0.629
1098.75	0.667
1107.5	0.557
1116.25	0.5361
1125	0.391
1133.75	0.2999
1142.5	0.488
1151.25	0.4962
1160	0.528
1168.75	0.684
1177.5	0.594
1186.25	0.647
1195	0.733
1203.75	0.634
1212.5	0.64
1221.25	0.601
1230	0.477
1238.75	0.3261
1247.5	0.216
1256.25	0.174
1265	0.496
1273.75	0.552
1282.5	0.2812
1291.25	0.184
1300	0.362
1308.75	0.422
1317.5	0.415
1326.25	0.56
1335	0.673
1343.75	0.429
1352.5	0.366
1361.25	0.309
1370	0.383
1378.75	0.461
1387.5	0.247
1396.25	0.352
1405	0.385
1413.75	0.432
1422.5	0.4899
1431.25	0.432
1440	0.541
1448.75	0.255
1457.5	0.328
1466.25	0.322
1475	0.406
1483.75	0.506
1492.5	0.183
1501.25	0.224
1510	0.4938
1518.75	0.749
1527.5	0.817
1536.25	0.867
1545	0.867
1553.75	0.837
1562.5	0.809
1571.25	0.636
1580	0.315
1588.75	0.5269
1597.5	0.732
1606.25	0.637
1615	0.44
1623.75	0.498
1632.5	0.692
1641.25	0.764
1650	0.804
1658.75	0.861
1667.5	0.888
1676.25	0.903
1685	0.914
1693.75	0.904
1702.5	0.893
1711.25	0.858
1720	0.858
1728.75	0.866
1737.5	0.884
1746.25	0.896
1755	0.863
1763.75	0.914
1772.5	0.962
1781.25	0.975
1790	0.977
1798.75	0.981
1807.5	0.978
1816.25	0.975
1825	0.972
1833.75	0.965
1842.5	0.958
1851.25	0.938
1860	0.898
1868.75	0.936
1877.5	0.952
1886.25	0.955
1895	0.957
1903.75	0.958
1912.5	0.96
1921.25	0.96
1930	0.954
1938.75	0.955
1947.5	0.949
1956.25	0.946
1965	0.943
1973.75	0.942
1982.5	0.94
1991.25	0.936
2000	0.937
2008.75	0.936
2017.5	0.9359
2026.25	0.9339
2035	0.933
2043.75	0.932
2052.5	0.9313
2061.25	0.9324
2070	0.9316
2078.75	0.9305
2087.5	0.933
2096.25	0.9324
2105	0.93
2113.75	0.9283
2122.5	0.9277
2131.25	0.93
2140	0.932
2148.75	0.931
2157.5	0.9291
2166.25	0.926
2175	0.927
2183.75	0.9291
2192.5	0.9311
2201.25	0.9278
2210	0.9111
2218.75	0.9034
2227.5	0.8987
2236.25	0.8936
2245	0.893
2253.75	0.8915
2262.5	0.8885
2271.25	0.885
2280	0.8814
2288.75	0.8786
2297.5	0.8753
2306.25	0.8722
2315	0.8691
2323.75	0.866
2332.5	0.862
2341.25	0.858
2350	0.8581
2358.75	0.8631
2367.5	0.867
2376.25	0.8674
2385	0.8582
2393.75	0.8537
2402.5	0.8439
2411.25	0.8362
2420	0.8271
2428.75	0.816
2437.5	0.8124
2446.25	0.8084
2455	0.8023
2463.75	0.7965
2472.5	0.7897
2481.25	0.7815
2490	0.7743
2498.75	0.7662
2507.5	0.7571
2516.25	0.7459
2525	0.7429
2533.75	0.7407
2542.5	0.738
2551.25	0.737
2560	0.7357
2568.75	0.7313
2577.5	0.7218
2586.25	0.709
2595	0.704
2603.75	0.6963
2612.5	0.6888
2621.25	0.6843
2630	0.684
2638.75	0.685
2647.5	0.686
2656.25	0.6804
2665	0.6743
2673.75	0.672
2682.5	0.6609
2691.25	0.6392
2700	0.6145
2708.75	0.6015
2717.5	0.5905
2726.25	0.5993
2735	0.6243
2743.75	0.64
2752.5	0.6416
2761.25	0.6266
2770	0.6124
2778.75	0.6012
2787.5	0.5802
2796.25	0.5713
2805	0.5342
2813.75	0.4328
2822.5	0.3898
2831.25	0.3191
2840	0.2565
2848.75	0.2151
2857.5	0.24
2866.25	0.208
2875	0.304
2883.75	0.2435
2892.5	0.1885
2901.25	0.092
2910	0.0654
2918.75	0.0867
2927.5	0.1193
2936.25	0.1792
2945	0.2759
2953.75	0.3191
2962.5	0.3553
2971.25	0.3709
2980	0.3588
2988.75	0.3895
2997.5	0.4234
3006.25	0.4462
3015	0.3929
3023.75	0.4022
3032.5	0.4282
3041.25	0.4364
3050	0.3887
3058.75	0.3572
3067.5	0.3616
3076.25	0.3537
3085	0.3343
3093.75	0.3153
3102.5	0.3015
3111.25	0.2768
3120	0.2526
3128.75	0.222
3137.5	0.1976
3146.25	0.18
3155	0.166
3163.75	0.1558
3172.5	0.1521
3181.25	0.151
3190	0.149
3198.75	0.1479
3207.5	0.146
3216.25	0.144
3225	0.1428
3233.75	0.1423
3242.5	0.145
3251.25	0.1531
3260	0.1645
3268.75	0.1793
3277.5	0.1936
3286.25	0.2074
3295	0.2173
3303.75	0.2287
3312.5	0.2422
3321.25	0.2551
3330	0.2707
3338.75	0.2784
3347.5	0.2849
3356.25	0.288
3365	0.29
3373.75	0.288
3382.5	0.2819
3391.25	0.27
3400	0.2506
3408.75	0.2144
3417.5	0.1752
3426.25	0.1636
3435	0.162
3443.75	0.1605
3452.5	0.1466
3461.25	0.1169
3470	0.0893
3478.75	0.1122
3487.5	0.1508
3496.25	0.1851
3505	0.2418
3513.75	0.2995
3522.5	0.3791
3531.25	0.4224
3540	0.4895
3548.75	0.5283
3557.5	0.5773
3566.25	0.6243
3575	0.6508
3583.75	0.6856
3592.5	0.7078
3601.25	0.7268
3610	0.744
3618.75	0.7505
3627.5	0.7661
3636.25	0.7762
3645	0.7847
3653.75	0.7877
3662.5	0.7906
3671.25	0.793
3680	0.7959
3688.75	0.797
3697.5	0.798
3706.25	0.797
3715	0.795
3723.75	0.7938
3732.5	0.792
3741.25	0.7907
3750	0.7887
3758.75	0.787
3767.5	0.786
3776.25	0.784
3785	0.7815
3793.75	0.78
3802.5	0.778
3811.25	0.776
3820	0.7733
3828.75	0.7722
3837.5	0.771
3846.25	0.77
3855	0.7681
3863.75	0.766
3872.5	0.764
3881.25	0.762
3890	0.76
3898.75	0.7578
3907.5	0.7523
3916.25	0.7477
3925	0.746
3933.75	0.7446
3942.5	0.744
3951.25	0.743
3960	0.741
3968.75	0.741
3977.5	0.741
3986.25	0.74
