Infrared Spectrum: 5-Cyclopropyl-5-methylhydantoin
Formula: C 7 H 10 N 2 O 2
CAS: 5470-46-2
State: gas
Origin: EPA-IR VAPOR PHASE LIBRARY
1/CM	ABSORBANCE
549.8	0.00784
559.445	0.00883
569.09	0.00948
578.734	0.00634
588.379	0.00454
598.024	0.00353
607.669	0.00222
617.313	0.00244
626.958	0.0028
636.603	0.00279
646.248	0.0018106
655.893	0.0018203
665.537	0.0011609
675.182	0.00126777
684.827	0.0014069
694.472	0.0014384
704.116	0.0024
713.761	0.0018881
723.406	0.00288
733.051	0.00244
742.695	0.00307
752.34	0.00314
761.985	0.0025
771.63	0.0020953
781.275	0.0018161
790.919	0.0020857
800.564	0.00123552
810.209	0.001777
819.854	0.00268
829.498	0.0020739
839.143	0.00237
848.788	0.0021886
858.433	0.0018027
868.078	0.0015049
877.722	0.0014006
887.367	0.00164
897.012	0.0013972
906.657	0.0016032
916.301	0.0016029
925.946	0.0020144
935.591	0.0021051
945.236	0.00236
954.88	0.00259
964.525	0.0033
974.17	0.00412
983.815	0.0045
993.46	0.0036
1003.1	0.0021912
1012.75	0.00255
1022.39	0.0026
1032.04	0.00273
1041.68	0.0017082
1051.33	0.00222
1060.97	0.00305
1070.62	0.00244
1080.26	0.00292
1089.91	0.00517
1099.55	0.00471
1109.2	0.00516
1118.84	0.00426
1128.49	0.00295
1138.13	0.0016093
1147.78	0.00237
1157.42	0.00226
1167.07	0.00244
1176.71	0.00249
1186.36	0.0013779
1196	0.0020397
1205.64	0.000698
1215.29	0.00235
1224.93	0.0018997
1234.58	0.0017872
1244.22	0.00487
1253.87	0.00555
1263.51	0.00482
1273.16	0.00391
1282.8	0.00376
1292.45	0.00365
1302.09	0.0041
1311.74	0.00406
1321.38	0.0052
1331.03	0.0067
1340.67	0.00741
1350.32	0.00918
1359.96	0.01202
1369.61	0.01342
1379.25	0.01194
1388.9	0.00878
1398.54	0.0051
1408.18	0.00289
1417.83	0.00225
1427.47	0.0019911
1437.12	0.00224
1446.76	0.0021087
1456.41	0.0024
1466.05	0.001973
1475.7	0.0015083
1485.34	0.0015883
1494.99	0.0017566
1504.63	0.0018379
1514.28	0.0015465
1523.92	0.001666
1533.57	0.00129466
1543.21	0.0013121
1552.86	0.0014148
1562.5	0.0011437
1572.15	0.00125119
1581.79	0.001067
1591.44	0.001461
1601.08	0.001081
1610.73	0.0014332
1620.37	0.001057
1630.01	0.0011663
1639.66	0.00125411
1649.3	0.0014668
1658.95	0.001371
1668.59	0.0015714
1678.24	0.0014381
1687.88	0.0017072
1697.53	0.0023
1707.17	0.0025
1716.82	0.00324
1726.46	0.00438
1736.11	0.00645
1745.75	0.01085
1755.4	0.02657
1765.04	0.06609
1774.69	0.08648
1784.33	0.05292
1793.98	0.0234
1803.62	0.02906
1813.27	0.02755
1822.91	0.01261
1832.55	0.00557
1842.2	0.00348
1851.84	0.00281
1861.49	0.00238
1871.13	0.00222
1880.78	0.0020523
1890.42	0.0018622
1900.07	0.0018316
1909.71	0.0018473
1919.36	0.001886
1929	0.0019738
1938.65	0.0021275
1948.29	0.0020038
1957.94	0.0017705
1967.58	0.0015445
1977.23	0.0014146
1986.87	0.0014724
1996.52	0.0014494
2006.16	0.0014149
2015.81	0.0013365
2025.45	0.0013239
2035.1	0.0013515
2044.74	0.00130496
2054.38	0.0011382
2064.03	0.00123123
2073.67	0.0013475
2083.32	0.0012273
2092.96	0.0011503
2102.61	0.0014841
2112.25	0.0013713
2121.9	0.00122815
2131.54	0.000998
2141.19	0.001075
2150.83	0.001095
2160.48	0.00124263
2170.12	0.001094
2179.77	0.001107
2189.41	0.0013649
2199.06	0.001106
2208.7	0.001143
2218.35	0.0013623
2227.99	0.001094
2237.64	0.0013553
2247.28	0.0011752
2256.92	0.00127005
2266.57	0.00130817
2276.21	0.001174
2285.86	0.00120183
2295.5	0.0013651
2305.15	0.0014219
2314.79	0.00121419
2324.44	0.0011224
2334.08	0.0011578
2343.73	0.0014519
2353.37	0.00129852
2363.02	0.0012444
2372.66	0.001084
2382.31	0.00128471
2391.95	0.0013767
2401.6	0.00128098
2411.24	0.00123039
2420.89	0.001037
2430.53	0.0011886
2440.18	0.0011605
2449.82	0.0011243
2459.47	0.0013434
2469.11	0.0011414
2478.75	0.00124691
2488.4	0.0011868
2498.04	0.0013043
2507.69	0.00129537
2517.33	0.0014456
2526.98	0.00121197
2536.62	0.001355
2546.27	0.0014162
2555.91	0.00126115
2565.56	0.0011486
2575.2	0.00122733
2584.85	0.001101
2594.49	0.001376
2604.14	0.00123248
2613.78	0.00130652
2623.43	0.0015033
2633.07	0.00125742
2642.72	0.0013538
2652.36	0.00130688
2662.01	0.001407
2671.65	0.00142
2681.29	0.0012978
2690.94	0.00121328
2700.58	0.0014739
2710.23	0.0011665
2719.87	0.00122258
2729.52	0.0011996
2739.16	0.001057
2748.81	0.0013574
2758.45	0.001078
2768.1	0.00120563
2777.74	0.00125977
2787.39	0.0016155
2797.03	0.00121506
2806.68	0.0013763
2816.32	0.0013589
2825.97	0.00125551
2835.61	0.0013143
2845.26	0.0013223
2854.9	0.0015078
2864.55	0.0013703
2874.19	0.001878
2883.84	0.0016902
2893.48	0.0017336
2903.12	0.0017329
2912.77	0.0016004
2922.41	0.0017234
2932.06	0.0020483
2941.7	0.00256
2951.35	0.00241
2960.99	0.0021983
2970.64	0.00245
2980.28	0.00372
2989.93	0.00362
2999.57	0.00349
3009.22	0.00319
3018.86	0.00336
3028.51	0.00256
3038.15	0.001679
3047.8	0.0014081
3057.44	0.0013492
3067.09	0.0015617
3076.73	0.00223
3086.38	0.0025
3096.02	0.00267
3105.67	0.00233
3115.31	0.0014144
3124.95	0.0014701
3134.6	0.0011347
3144.24	0.001662
3153.89	0.0017665
3163.53	0.0011809
3173.18	0.0013193
3182.82	0.0013287
3192.47	0.0014165
3202.11	0.0011843
3211.76	0.001084
3221.4	0.001053
3231.05	0.00126473
3240.69	0.00121235
3250.34	0.00126095
3259.98	0.001546
3269.63	0.00130849
3279.27	0.0016348
3288.92	0.00122035
3298.56	0.0017227
3308.21	0.0015841
3317.85	0.0011482
3327.49	0.0014834
3337.14	0.0011778
3346.78	0.0011935
3356.43	0.0017459
3366.07	0.0011817
3375.72	0.000783
3385.36	0.0011395
3395.01	0.000839
3404.65	0.001036
3414.3	0.000918
3423.94	0.0017936
3433.59	0.001316
3443.23	0.0017931
3452.88	0.00286
3462.52	0.00549
3472.17	0.00955
3481.81	0.01126
3491.46	0.00717
3501.1	0.00288
3510.75	0.0015476
3520.39	0.0015515
3530.04	0.0016896
3539.68	0.0015742
3549.32	0.0019646
3558.97	0.001647
3568.61	0.0017148
3578.26	0.0015977
3587.9	0.001433
3597.55	0.0013878
3607.19	0.00122588
3616.84	0.0015035
3626.48	0.0014569
3636.13	0.001046
3645.77	0.001481
3655.42	0.000965
3665.06	0.000606
3674.71	0.000962
3684.35	0.000919
3694	0.000981
3703.64	0.000846
3713.29	0.00123502
3722.93	0.0011359
3732.58	0.0011847
3742.22	0.0015295
3751.86	0.00122571
3761.51	0.0013431
3771.15	0.00126436
3780.8	0.000895
3790.44	0.00123017
3800.09	0.0011305
3809.73	0.000706
3819.38	0.0016091
3829.02	0.000915
3838.67	0.0015121
3848.31	0.0011522
3857.96	0.0011696
3867.6	0.00085
3877.25	0.0013486
3886.89	0.000936
3896.54	0.0012979
3906.18	0.000849
3915.83	0.0011549
3925.47	0.0012947
3935.12	0.000907
3944.76	0.000962
3954.41	0.0011424
3964.05	0.0014976
3973.69	0.001027
3983.34	0.000674
3992.98	0.0014509
