Infrared Spectrum: QUINOLINE-2-CARBOXALDEHYDE
Formula: C10 H7 N O
CAS: 5470-96-2
State: SOLUTION (10% CCl4 FOR 5000-1330, 10% CS2 FOR 1330-625 CM^-^1)
Class: COBLENTZ
Instrument: Not specified, most likely a prism, grating, or hybrid spectrometer.
Sampling: TRANSMISSION
Path length: 0.0114 CM, 0.0114 CM
Resolution: 4
Origin: DOW CHEMICAL COMPANY
MICROMETERS	TRANSMITTANCE
2.062	0.89
2.10303	0.883
2.14407	0.883
2.1851	0.885
2.22614	0.892
2.26717	0.886
2.30821	0.892
2.34924	0.89
2.39028	0.893
2.43131	0.89
2.47235	0.89
2.51338	0.888
2.55442	0.89
2.59545	0.893
2.63648	0.895
2.67752	0.897
2.71855	0.886
2.75959	0.89
2.80062	0.886
2.84166	0.892
2.88269	0.881
2.92373	0.842
2.96476	0.881
3.0058	0.873
3.04683	0.876
3.08787	0.876
3.1289	0.869
3.16993	0.854
3.21097	0.806
3.252	0.676
3.29304	0.702
3.33407	0.804
3.37511	0.832
3.41614	0.828
3.45718	0.78
3.49821	0.522
3.53925	0.47
3.58028	0.823
3.62131	0.863
3.66235	0.849
3.70338	0.859
3.74442	0.851
3.78545	0.881
3.82649	0.89
3.86752	0.892
3.90856	0.893
3.94959	0.892
3.99063	0.892
4.03166	0.895
4.0727	0.897
4.11373	0.9
4.15476	0.902
4.1958	0.893
4.23683	0.885
4.27787	0.881
4.3189	0.883
4.35994	0.883
4.40097	0.888
4.44201	0.898
4.48304	0.905
4.52408	0.91
4.56511	0.91
4.60615	0.912
4.64718	0.909
4.68821	0.907
4.72925	0.902
4.77028	0.909
4.81132	0.91
4.85235	0.909
4.89339	0.909
4.93442	0.9
4.97546	0.897
5.01649	0.886
5.05753	0.869
5.09856	0.823
5.1396	0.854
5.18063	0.866
5.22166	0.875
5.2627	0.878
5.30373	0.886
5.34477	0.88
5.3858	0.851
5.42684	0.861
5.46787	0.828
5.50891	0.842
5.54994	0.839
5.59098	0.75
5.63201	0.63
5.67304	0.758
5.71408	0.72
5.75511	0.592
5.79615	0.321
5.83718	0.07
5.87822	0.191
5.91925	0.671
5.96029	0.708
6.00132	0.767
6.04236	0.77
6.08339	0.753
6.12443	0.748
6.16546	0.698
6.20649	0.702
6.24753	0.493
6.28856	0.489
6.3296	0.472
6.37063	0.385
6.41167	0.393
6.4527	0.412
6.49374	0.498
6.53477	0.577
6.57581	0.597
6.61684	0.551
6.65788	0.611
6.69891	0.756
6.73994	0.761
6.78098	0.702
6.82201	0.53
6.86305	0.842
6.90408	0.83
6.94512	0.702
6.98615	0.66
7.02719	0.823
7.06822	0.82
7.10926	0.818
7.15029	0.782
7.19133	0.678
7.23236	0.511
7.27339	0.515
7.31443	0.589
7.35546	0.76
7.3965	0.751
7.43753	0.748
7.47857	0.712
7.5196	0.78
7.56064	0.696
7.60167	0.501
7.64271	0.486
7.68374	0.597
7.72478	0.672
7.76581	0.768
7.80684	0.696
7.84788	0.65
7.88891	0.655
7.92995	0.535
7.97098	0.726
8.01202	0.758
8.05305	0.7
8.09409	0.561
8.13512	0.493
8.17616	0.614
8.21719	0.679
8.25822	0.565
8.29926	0.39
8.34029	0.64
8.38133	0.756
8.42236	0.779
8.4634	0.787
8.50443	0.792
8.54547	0.787
8.5865	0.777
8.62754	0.756
8.66857	0.679
8.70961	0.537
8.75064	0.542
8.79167	0.652
8.83271	0.736
8.87374	0.739
8.91478	0.729
8.95581	0.66
8.99685	0.518
9.03788	0.647
9.07892	0.751
9.11995	0.773
9.16099	0.787
9.20202	0.796
9.24306	0.799
9.28409	0.799
9.32512	0.799
9.36616	0.801
9.40719	0.806
9.44823	0.809
9.48926	0.808
9.5303	0.809
9.57133	0.801
9.61237	0.806
9.6534	0.816
9.69444	0.818
9.73547	0.801
9.77651	0.779
9.81754	0.734
9.85857	0.662
9.89961	0.743
9.94064	0.801
9.98168	0.768
10.0227	0.775
10.0637	0.815
10.1048	0.816
10.1458	0.806
10.1869	0.789
10.2279	0.751
10.2689	0.773
10.31	0.803
10.351	0.804
10.392	0.785
10.4331	0.714
10.4741	0.611
10.5151	0.678
10.5562	0.799
10.5972	0.823
10.6382	0.83
10.6793	0.833
10.7203	0.839
10.7613	0.842
10.8024	0.833
10.8434	0.827
10.8844	0.821
10.9255	0.821
10.9665	0.816
11.0075	0.808
11.0486	0.801
11.0896	0.797
11.1306	0.782
11.1717	0.761
11.2127	0.69
11.2538	0.51
11.2948	0.27
11.3358	0.416
11.3769	0.592
11.4179	0.587
11.4589	0.546
11.5	0.546
11.541	0.602
11.582	0.623
11.6231	0.619
11.6641	0.607
11.7051	0.601
11.7462	0.594
11.7872	0.577
11.8282	0.551
11.8693	0.53
11.9103	0.477
11.9513	0.347
11.9924	0.208
12.0334	0.068
12.0744	0.01
12.1155	0.053
12.1565	0.232
12.1975	0.4
12.2386	0.522
12.2796	0.573
12.3207	0.595
12.3617	0.597
12.4027	0.592
12.4438	0.601
12.4848	0.604
12.5258	0.595
12.5669	0.587
12.6079	0.577
12.6489	0.506
12.69	0.373
12.731	0.222
12.772	0.301
12.8131	0.398
12.8541	0.407
12.8951	0.34
12.9362	0.356
12.9772	0.44
13.0182	0.511
13.0593	0.51
13.1003	0.482
13.1413	0.417
13.1824	0.311
13.2234	0.171
13.2644	0.061
13.3055	0.001
13.3465	0
13.3876	0
13.4286	0.047
13.4696	0.19
13.5107	0.356
13.5517	0.476
13.5927	0.544
13.6338	0.595
13.6748	0.628
13.7158	0.645
13.7569	0.652
13.7979	0.662
13.8389	0.662
13.88	0.667
13.921	0.667
13.962	0.66
14.0031	0.657
14.0441	0.652
14.0851	0.647
14.1262	0.643
14.1672	0.638
14.2082	0.635
14.2493	0.63
14.2903	0.626
14.3313	0.623
14.3724	0.619
14.4134	0.616
14.4544	0.611
14.4955	0.607
14.5365	0.604
14.5776	0.601
14.6186	0.595
14.6596	0.59
14.7007	0.585
14.7417	0.578
14.7827	0.571
14.8238	0.565
14.8648	0.554
14.9058	0.542
14.9469	0.537
14.9879	0.539
15.0289	0.53
15.07	0.518
15.111	0.508
15.152	0.496
15.1931	0.482
15.2341	0.469
15.2751	0.458
15.3162	0.448
15.3572	0.441
15.3982	0.434
15.4393	0.429
15.4803	0.422
15.5213	0.419
15.5624	0.412
15.6034	0.407
15.6445	0.402
15.6855	0.395
15.7265	0.39
15.7676	0.381
15.8086	0.38
15.8496	0.375
15.8907	0.375
