Infrared Spectrum: ANDROSTANE, 3,17-DIONE, (5Alpha), 2Alpha-METHYL-,
Formula: C20 H30 O2
CAS: 5470-27-9
State: SOLID (KBr DISC)
Class: COBLENTZ III
Instrument: BECKMAN IR-7
Sampling: TRANSMISSION
Resolution: 4
Origin: N. L. McNIVEN- THE WORCESTER FOUNDATION FOR EXPERIMENTAL BIOLOGY
1/CM	TRANSMITTANCE
609.272	0.58
617.881	0.824
626.491	0.867
635.1	0.928
643.709	0.889
652.318	0.801
660.928	0.889
669.537	0.913
678.146	0.887
686.755	0.693
695.365	0.878
703.974	0.895
712.583	0.752
721.192	0.7749
729.802	0.692
738.411	0.884
747.02	0.913
755.63	0.777
764.239	0.905
772.848	0.934
781.457	0.934
790.067	0.928
798.676	0.911
807.285	0.828
815.894	0.833
824.504	0.678
833.113	0.6481
841.722	0.79
850.332	0.719
858.941	0.873
867.55	0.862
876.159	0.838
884.769	0.5831
893.378	0.6789
901.987	0.717
910.596	0.648
919.206	0.546
927.815	0.792
936.424	0.769
945.033	0.615
953.643	0.709
962.252	0.585
970.861	0.711
979.471	0.731
988.08	0.598
996.689	0.5381
1005.3	0.2501
1013.91	0.35
1022.52	0.384
1031.13	0.622
1039.74	0.49
1048.34	0.363
1056.95	0.4701
1065.56	0.4199
1074.17	0.609
1082.78	0.619
1091.39	0.536
1100	0.631
1108.61	0.575
1117.22	0.5561
1125.83	0.395
1134.44	0.503
1143.05	0.437
1151.66	0.662
1160.27	0.569
1168.87	0.5361
1177.48	0.26
1186.09	0.581
1194.7	0.617
1203.31	0.45
1211.92	0.599
1220.53	0.69
1229.14	0.499
1237.75	0.255
1246.36	0.462
1254.97	0.561
1263.58	0.581
1272.19	0.374
1280.79	0.5819
1289.4	0.536
1298.01	0.485
1306.62	0.635
1315.23	0.667
1323.84	0.657
1332.45	0.492
1341.06	0.485
1349.67	0.538
1358.28	0.448
1366.89	0.315
1375.5	0.286
1384.11	0.295
1392.72	0.552
1401.32	0.5101
1409.93	0.3399
1418.54	0.345
1427.15	0.473
1435.76	0.2239
1444.37	0.232
1452.98	0.248
1461.59	0.331
1470.2	0.33
1478.81	0.614
1487.42	0.708
1496.03	0.738
1504.64	0.745
1513.25	0.755
1521.85	0.767
1530.46	0.768
1539.07	0.765
1547.68	0.763
1556.29	0.749
1564.9	0.731
1573.51	0.725
1582.12	0.72
1590.73	0.716
1599.34	0.706
1607.95	0.694
1616.56	0.68
1625.17	0.656
1633.78	0.627
1642.38	0.601
1650.99	0.57
1659.6	0.483
1668.21	0.498
1676.82	0.439
1685.43	0.3271
1694.04	0.1142
1702.65	0.049
1711.26	0.152
1719.87	0.243
1728.48	0.121
1737.09	0.015
1745.7	0.084
1754.3	0.2889
1762.91	0.453
1771.52	0.553
1780.13	0.642
1788.74	0.668
1797.35	0.72
1805.96	0.738
1814.57	0.749
1823.18	0.753
1831.79	0.763
1840.4	0.777
1849.01	0.791
1857.62	0.8
1866.23	0.803
1874.83	0.812
1883.44	0.813
1892.05	0.814
1900.66	0.814
1909.27	0.815
1917.88	0.814
1926.49	0.812
1935.1	0.808
1943.71	0.805
1952.32	0.801
1960.93	0.802
1969.54	0.803
1978.15	0.804
1986.76	0.804
1995.36	0.802
2003.97	0.8
2012.58	0.8
2021.19	0.7999
2029.8	0.799
2038.41	0.798
2047.02	0.7961
2055.63	0.795
2064.24	0.794
2072.85	0.7922
2081.46	0.7919
2090.07	0.79
2098.68	0.7894
2107.28	0.788
2115.89	0.787
2124.5	0.786
2133.11	0.785
2141.72	0.784
2150.33	0.7827
2158.94	0.781
2167.55	0.7801
2176.16	0.779
2184.77	0.7776
2193.38	0.7763
2201.99	0.774
2210.6	0.7707
2219.21	0.7653
2227.81	0.7602
2236.42	0.7589
2245.03	0.7566
2253.64	0.7543
2262.25	0.753
2270.86	0.751
2279.47	0.7495
2288.08	0.7472
2296.69	0.7459
2305.3	0.745
2313.91	0.745
2322.52	0.744
2331.13	0.744
2339.74	0.743
2348.34	0.742
2356.95	0.741
2365.56	0.7396
2374.17	0.739
2382.78	0.739
2391.39	0.7356
2400	0.7305
2408.61	0.7272
2417.22	0.7249
2425.83	0.723
2434.44	0.7214
2443.05	0.721
2451.66	0.72
2460.26	0.719
2468.87	0.719
2477.48	0.717
2486.09	0.7157
2494.7	0.7144
2503.31	0.7131
2511.92	0.7118
2520.53	0.7096
2529.14	0.7065
2537.75	0.703
2546.36	0.6967
2554.97	0.6954
2563.58	0.6921
2572.19	0.6899
2580.79	0.6876
2589.4	0.6819
2598.01	0.6731
2606.62	0.6606
2615.23	0.652
2623.84	0.651
2632.45	0.65
2641.06	0.65
2649.67	0.649
2658.28	0.648
2666.89	0.644
2675.5	0.6234
2684.11	0.6174
2692.72	0.617
2701.32	0.6131
2709.93	0.5957
2718.54	0.587
2727.15	0.5868
2735.76	0.583
2744.37	0.5828
2752.98	0.5912
2761.59	0.5977
2770.2	0.6014
2778.81	0.5865
2787.42	0.5722
2796.03	0.5571
2804.64	0.5304
2813.24	0.481
2821.85	0.3995
2830.46	0.2778
2839.07	0.2762
2847.68	0.2306
2856.29	0.1145
2864.9	0.1262
2873.51	0.1689
2882.12	0.1418
2890.73	0.1342
2899.34	0.1363
2907.95	0.0878
2916.56	0.0534
2925.17	0.0456
2933.77	0.061
2942.38	0.0516
2950.99	0.0759
2959.6	0.1154
2968.21	0.105
2976.82	0.1048
2985.43	0.1572
2994.04	0.1804
3002.65	0.3505
3011.26	0.4498
3019.87	0.5096
3028.48	0.5406
3037.09	0.5555
3045.7	0.5686
3054.3	0.5789
3062.91	0.5832
3071.52	0.5855
3080.13	0.587
3088.74	0.589
3097.35	0.5904
3105.96	0.5916
3114.57	0.593
3123.18	0.595
3131.79	0.596
3140.4	0.597
3149.01	0.597
3157.62	0.598
3166.22	0.599
3174.83	0.599
3183.44	0.6
3192.05	0.601
3200.66	0.602
3209.27	0.603
3217.88	0.603
3226.49	0.604
3235.1	0.604
3243.71	0.604
3252.32	0.604
3260.93	0.604
3269.54	0.603
3278.15	0.603
3286.75	0.603
3295.36	0.603
3303.97	0.603
3312.58	0.6026
3321.19	0.601
3329.8	0.601
3338.41	0.6007
3347.02	0.5995
3355.63	0.5974
3364.24	0.5865
3372.85	0.5277
3381.46	0.5578
3390.07	0.5602
3398.68	0.572
3407.28	0.595
3415.89	0.596
3424.5	0.5959
3433.11	0.5933
3441.72	0.5784
3450.33	0.5565
3458.94	0.5138
3467.55	0.5275
3476.16	0.5666
3484.77	0.5872
3493.38	0.5953
3501.99	0.599
3510.6	0.601
3519.2	0.6032
3527.81	0.605
3536.42	0.6068
3545.03	0.608
3553.64	0.609
3562.25	0.611
3570.86	0.611
3579.47	0.6122
3588.08	0.613
3596.69	0.6185
3605.3	0.622
3613.91	0.625
3622.52	0.625
3631.13	0.626
3639.73	0.625
3648.34	0.625
3656.95	0.624
3665.56	0.624
3674.17	0.623
3682.78	0.623
3691.39	0.622
3700	0.623
3708.61	0.623
3717.22	0.623
3725.83	0.623
3734.44	0.624
3743.05	0.6235
3751.66	0.6222
3760.26	0.6169
3768.87	0.6126
3777.48	0.6093
3786.09	0.6071
3794.7	0.606
3803.31	0.6045
3811.92	0.603
3820.53	0.601
3829.14	0.6
3837.75	0.599
3846.36	0.5981
3854.97	0.597
3863.58	0.595
3872.18	0.5932
3880.79	0.591
3889.4	0.5897
3898.01	0.588
3906.62	0.5861
3915.23	0.5838
3923.84	0.5815
3932.45	0.5793
3941.06	0.578
3949.67	0.577
3958.28	0.577
3966.89	0.576
3975.5	0.575
3984.11	0.574
