Infrared Spectrum: 4-Nitro-2-picoline-N-oxide
Formula: C 6 H 6 N 2 O 3
CAS: 5470-66-6
State: gas
Origin: EPA-IR VAPOR PHASE LIBRARY
1/CM	ABSORBANCE
549.8	0.001619
559.445	3.5e-05
569.09	0.001669
578.734	0.0012991
588.379	0.002509
598.024	0.0007576
607.669	0.0009832
617.313	0.0013846
626.958	0.0008713
636.603	0.002349
646.248	0.008539
655.893	0.015719
665.537	0.009999
675.182	0.002439
684.827	0.002089
694.472	0.003499
704.116	0.002279
713.761	0.001639
723.406	0.0014203
733.051	0.003409
742.695	0.006379
752.34	0.005549
761.985	0.003189
771.63	0.003669
781.275	0.004439
790.919	0.001909
800.564	0.002459
810.209	0.005089
819.854	0.010349
829.498	0.007679
839.143	0.003179
848.788	0.0010811
858.433	0.0009307
868.078	0.0010854
877.722	0.002359
887.367	0.005209
897.012	0.007149
906.657	0.005219
916.301	0.005899
925.946	0.012629
935.591	0.012459
945.236	0.004359
954.88	0.0013245
964.525	0.0009753
974.17	0.0014271
983.815	0.002539
993.46	0.004309
1003.1	0.003979
1012.75	0.001649
1022.39	0.0014565
1032.04	0.0015428
1041.68	0.002209
1051.33	0.002019
1060.97	0.001869
1070.62	0.003029
1080.26	0.007089
1089.91	0.015559
1099.55	0.013219
1109.2	0.005599
1118.84	0.003329
1128.49	0.002039
1138.13	0.003009
1147.78	0.001939
1157.42	0.001709
1167.07	0.002009
1176.71	0.003999
1186.36	0.007699
1196	0.014519
1205.64	0.015979
1215.29	0.013129
1224.93	0.017339
1234.58	0.013259
1244.22	0.006309
1253.87	0.014889
1263.51	0.019089
1273.16	0.012809
1282.8	0.014589
1292.45	0.031749
1302.09	0.092409
1311.74	0.106979
1321.38	0.040119
1331.03	0.038829
1340.67	0.095239
1350.32	0.097249
1359.96	0.031809
1369.61	0.013139
1379.25	0.009269
1388.9	0.007009
1398.54	0.004889
1408.18	0.006399
1417.83	0.007769
1427.47	0.007949
1437.12	0.009129
1446.76	0.013659
1456.41	0.020519
1466.05	0.019849
1475.7	0.014869
1485.34	0.012919
1494.99	0.011349
1504.63	0.019629
1514.28	0.037419
1523.92	0.046909
1533.57	0.040159
1543.21	0.027169
1552.86	0.024109
1562.5	0.025579
1572.15	0.028649
1581.79	0.027739
1591.44	0.020049
1601.08	0.015649
1610.73	0.014969
1620.37	0.009429
1630.01	0.004999
1639.66	0.003739
1649.3	0.002949
1658.95	0.002599
1668.59	0.001899
1678.24	0.002049
1687.88	0.001669
1697.53	0.001699
1707.17	0.001609
1716.82	0.0013556
1726.46	0.0013856
1736.11	0.0012355
1745.75	0.0013389
1755.4	0.0015166
1765.04	0.0013562
1774.69	0.001372
1784.33	0.0015238
1793.98	0.0013466
1803.62	0.0011212
1813.27	0.0006996
1822.91	0.000809
1832.55	0.0007498
1842.2	0.0009352
1851.84	0.0010091
1861.49	0.0015215
1871.13	0.001609
1880.78	0.0013846
1890.42	0.0009925
1900.07	0.0007699
1909.71	0.0007913
1919.36	0.00066094
1929	0.0006861
1938.65	0.0006985
1948.29	0.0007602
1957.94	0.0007843
1967.58	0.0009229
1977.23	0.000998
1986.87	0.0010296
1996.52	0.0011415
2006.16	0.0011087
2015.81	0.0010422
2025.45	0.0008926
2035.1	0.0008531
2044.74	0.0007694
2054.38	0.0007881
2064.03	0.0008433
2073.67	0.0009214
2083.32	0.0010108
2092.96	0.0008826
2102.61	0.0008406
2112.25	0.0008044
2121.9	0.0011112
2131.54	0.0011261
2141.19	0.0010051
2150.83	0.0009045
2160.48	0.0006954
2170.12	0.0008154
2179.77	0.0007755
2189.41	0.0007783
2199.06	0.0008136
2208.7	0.000787
2218.35	0.0009152
2227.99	0.0012669
2237.64	0.0010948
2247.28	0.0011369
2256.92	0.0010607
2266.57	0.0008266
2276.21	0.0010427
2285.86	0.0011658
2295.5	0.0010396
2305.15	0.0010167
2314.79	0.0010582
2324.44	0.0012261
2334.08	0.0014121
2343.73	0.0015596
2353.37	0.0014133
2363.02	0.0012024
2372.66	0.0011088
2382.31	0.0011552
2391.95	0.0014978
2401.6	0.001443
2411.24	0.0014424
2420.89	0.001649
2430.53	0.001769
2440.18	0.001759
2449.82	0.001749
2459.47	0.0015525
2469.11	0.0011748
2478.75	0.0010908
2488.4	0.000884
2498.04	0.0011199
2507.69	0.0010285
2517.33	0.001301
2526.98	0.0012791
2536.62	0.0014222
2546.27	0.0013297
2555.91	0.0013043
2565.56	0.0011538
2575.2	0.001314
2584.85	0.0012457
2594.49	0.002059
2604.14	0.002349
2613.78	0.002219
2623.43	0.001427
2633.07	0.0009509
2642.72	0.0009768
2652.36	0.0008825
2662.01	0.0010679
2671.65	0.0008518
2681.29	0.0009602
2690.94	0.0009053
2700.58	0.0009615
2710.23	0.0010241
2719.87	0.0010507
2729.52	0.000989
2739.16	0.0010075
2748.81	0.0010143
2758.45	0.0011093
2768.1	0.001039
2777.74	0.0012946
2787.39	0.0011596
2797.03	0.0014415
2806.68	0.0013299
2816.32	0.0015104
2825.97	0.001649
2835.61	0.001879
2845.26	0.001739
2854.9	0.001759
2864.55	0.001709
2874.19	0.001749
2883.84	0.0014278
2893.48	0.001579
2903.12	0.001909
2912.77	0.002049
2922.41	0.002789
2932.06	0.003539
2941.7	0.002809
2951.35	0.002249
2960.99	0.002139
2970.64	0.002289
2980.28	0.002059
2989.93	0.002159
2999.57	0.002129
3009.22	0.002529
3018.86	0.001789
3028.51	0.0014219
3038.15	0.0012909
3047.8	0.0013755
3057.44	0.0012908
3067.09	0.001689
3076.73	0.0015226
3086.38	0.001889
3096.02	0.002049
3105.67	0.002129
3115.31	0.001709
3124.95	0.001619
3134.6	0.0012365
3144.24	0.0006838
3153.89	0.00085
3163.53	0.00063468
3173.18	0.0008123
3182.82	0.00081
3192.47	0.000769
3202.11	0.0007727
3211.76	0.00058608
3221.4	0.0010309
3231.05	0.0005296
3240.69	0.0008719
3250.34	0.0005539
3259.98	0.000412
3269.63	0.0007896
3279.27	0.00061307
3288.92	0.000242
3298.56	0.0007369
3308.21	0.00065444
3317.85	0.0009195
3327.49	0.0008356
3337.14	0.0008052
3346.78	0.0006781
3356.43	0.00063631
3366.07	0.00058199
3375.72	0.000267
3385.36	0.00065137
3395.01	0.00066813
3404.65	0.0008081
3414.3	0.0004913
3423.94	0.0009394
3433.59	0.00058905
3443.23	0.00060193
3452.88	0.0006727
3462.52	0.0008368
3472.17	0.000425
3481.81	0.0005116
3491.46	0.00062716
3501.1	0.000574985
3510.75	0.0007097
3520.39	0.0007483
3530.04	0.0005144
3539.68	0.0004969
3549.32	0.00059216
3558.97	0.0008043
3568.61	0.0005182
3578.26	0.00060239
3587.9	0.000253
3597.55	0.0007448
3607.19	0.0008625
3616.84	0.000309
3626.48	0.0008877
3636.13	0.000542
3645.77	0.00062447
3655.42	0.0007215
3665.06	0.0006924
3674.71	0.00060907
3684.35	0.0007795
3694	0.00056069
3703.64	0.000416
3713.29	0.000346
3722.93	0.00056319
3732.58	0.0006806
3742.22	0.00063161
3751.86	0.000441
3761.51	0.000743
3771.15	0.0008347
3780.8	0.0007747
3790.44	0.0007255
3800.09	0.0006951
3809.73	0.000129
3819.38	0.000354
3829.02	0.0005235
3838.67	0.0009561
3848.31	0.0007531
3857.96	0.0005364
3867.6	0.000227
3877.25	0.00065594
3886.89	0.0005424
3896.54	0.0007179
3906.18	0.0007956
3915.83	0.0008683
3925.47	0.0007508
3935.12	0.0005328
3944.76	0.0009142
3954.41	0.0005274
3964.05	0.0007156
3973.69	0.0006877
3983.34	0.0008175
3992.98	0.000856
