Infrared Spectrum: 2-Imidazoline, 2-(o-chlorobenzyl)-, hydrochloride
Formula: C10 H11 Cl N2  * H Cl
CAS: 54707-86-7
State: SOLID (OIL MULL)
Class: COBLENTZ III
Instrument: PERKIN-ELMER 21 (GRATING)
Instrument parameters: NaCl PRISM
Sampling: TRANSMISSION
Resolution: 2
Origin: SMITH KLINE & FRENCH LABS.
1/CM	TRANSMITTANCE
668	0.6278
677	0.5978
686	0.5297
695	0.4132
704	0.5721
713	0.4764
722	0.3781
731	0.3042
740	0.1906
749	0.0976
758	0.2284
767	0.4733
776	0.5781
785	0.6403
794	0.7143
803	0.7232
812	0.6916
821	0.7186
830	0.7508
839	0.7532
848	0.7647
857	0.774
866	0.7641
875	0.7772
884	0.787
893	0.7722
902	0.7583
911	0.7326
920	0.7335
929	0.6531
938	0.7166
947	0.6876
956	0.671
965	0.7144
974	0.7057
983	0.7097
992	0.7001
1001	0.632
1010	0.6228
1019	0.5895
1028	0.445
1037	0.3516
1046	0.3242
1055	0.6179
1064	0.7079
1073	0.622
1082	0.7062
1091	0.6872
1100	0.6522
1109	0.6857
1118	0.5984
1127	0.6369
1136	0.6471
1145	0.6056
1154	0.569
1163	0.5594
1172	0.4918
1181	0.2693
1190	0.5579
1199	0.5269
1208	0.5718
1217	0.562
1226	0.5285
1235	0.5034
1244	0.4712
1253	0.4002
1262	0.4005
1271	0.2962
1280	0.2392
1289	0.242
1298	0.1568
1307	0.4693
1316	0.5487
1325	0.5763
1334	0.5522
1343	0.5149
1352	0.4409
1361	0.3535
1370	0.2868
1379	0.2658
1388	0.363
1397	0.3399
1406	0.2806
1415	0.2566
1424	0.2493
1433	0.1541
1442	0.1593
1451	0.146
1460	0.1317
1469	0.2107
1478	0.3193
1487	0.4336
1496	0.5181
1505	0.5287
1514	0.5591
1523	0.568
1532	0.5606
1541	0.5542
1550	0.5264
1559	0.4947
1568	0.43
1577	0.4111
1586	0.3056
1595	0.2585
1604	0.1355
1613	0.0961
1622	0.1046
1631	0.3154
1640	0.5732
1649	0.6726
1658	0.6946
1667	0.7184
1676	0.724
1685	0.7266
1694	0.7241
1703	0.7268
1712	0.7319
1721	0.7295
1730	0.7264
1739	0.7249
1748	0.7315
1757	0.7316
1766	0.7278
1775	0.7201
1784	0.7172
1793	0.7104
1802	0.7036
1811	0.6835
1820	0.6934
1829	0.7039
1838	0.7036
1847	0.7017
1856	0.6991
1865	0.6943
1874	0.6797
1883	0.6739
1892	0.6706
1901	0.668
1910	0.6612
1919	0.6403
1928	0.6474
1937	0.6549
1946	0.6526
1955	0.6609
1964	0.6654
1973	0.6536
1982	0.6486
1991	0.6479
2000	0.6462
2009	0.6436
2018	0.6394
2027	0.6316
2036	0.625
2045	0.622
2054	0.62
2063	0.6174
2072	0.6146
2081	0.612
2090	0.6101
2099	0.6089
2108	0.6083
2117	0.6062
2126	0.6029
2135	0.5964
2144	0.5885
2153	0.5847
2162	0.5855
2171	0.5805
2180	0.5802
2189	0.5769
2198	0.5687
2207	0.5599
2216	0.5535
2225	0.549
2234	0.5453
2243	0.5405
2252	0.5329
2261	0.5237
2270	0.516
2279	0.5118
2288	0.5127
2297	0.5155
2306	0.5117
2315	0.495
2324	0.4929
2333	0.4935
2342	0.4949
2351	0.4952
2360	0.4945
2369	0.4931
2378	0.4896
2387	0.4836
2396	0.4748
2405	0.4645
2414	0.4555
2423	0.4467
2432	0.439
2441	0.4331
2450	0.4297
2459	0.4278
2468	0.4268
2477	0.4219
2486	0.4108
2495	0.4017
2504	0.3924
2513	0.3824
2522	0.3746
2531	0.351
2540	0.3307
2549	0.324
2558	0.3084
2567	0.2993
2576	0.2906
2585	0.2803
2594	0.2748
2603	0.2657
2612	0.2413
2621	0.2353
2630	0.1963
2639	0.1479
2648	0.1418
2657	0.1506
2666	0.1848
2675	0.2188
2684	0.2327
2693	0.2348
2702	0.2108
2711	0.1863
2720	0.1768
2729	0.1689
2738	0.1612
2747	0.1539
2756	0.1492
2765	0.1493
2774	0.1467
2783	0.1392
2792	0.126
2801	0.1079
2810	0.0962
2819	0.0898
2828	0.0888
2837	0.0909
2846	0.0887
2855	0.0837
2864	0.0855
2873	0.0874
2882	0.0861
2891	0.082
2900	0.0788
2909	0.0758
2918	0.0721
2927	0.0709
2936	0.0724
2945	0.0774
2954	0.0857
2963	0.094
2972	0.1022
2981	0.1059
2990	0.1061
2999	0.1032
3008	0.0976
3017	0.0928
3026	0.0917
3035	0.0936
3044	0.1025
3053	0.1113
3062	0.1157
3071	0.1269
3080	0.1299
3089	0.1305
3098	0.1391
3107	0.1789
3116	0.2012
3125	0.2134
3134	0.2239
3143	0.234
3152	0.2417
3161	0.2483
3170	0.2524
3179	0.2536
3188	0.2535
3197	0.2526
3206	0.2531
3215	0.2594
3224	0.2807
3233	0.3003
3242	0.3197
3251	0.3361
3260	0.3511
3269	0.3655
3278	0.3729
3287	0.3795
3296	0.3876
3305	0.3994
3314	0.4067
3323	0.4117
3332	0.4156
3341	0.4186
3350	0.4203
3359	0.4216
3368	0.4256
3377	0.4313
3386	0.4354
3395	0.439
3404	0.4412
3413	0.4432
3422	0.4445
3431	0.4457
3440	0.4455
3449	0.4447
3458	0.4438
3467	0.4428
3476	0.4416
3485	0.4401
3494	0.4386
3503	0.4388
3512	0.4424
3521	0.4461
3530	0.4501
3539	0.452
3548	0.451
3557	0.4466
3566	0.4419
3575	0.4353
3584	0.4325
3593	0.4322
3602	0.4328
3611	0.4334
3620	0.4348
3629	0.4368
3638	0.4331
3647	0.427
3656	0.4225
3665	0.4202
3674	0.4197
3683	0.4195
3692	0.4194
3701	0.4192
3710	0.4188
3719	0.4182
3728	0.4177
3737	0.417
3746	0.4162
3755	0.4153
3764	0.4145
3773	0.4134
3782	0.411
3791	0.4085
3800	0.4061
3809	0.4027
3818	0.3993
3827	0.3964
3836	0.3936
3845	0.3916
3854	0.3908
3863	0.3899
3872	0.3893
3881	0.3889
3890	0.3884
3899	0.3879
3908	0.3876
3917	0.3871
3926	0.3868
3935	0.3863
3944	0.3856
3953	0.3833
3962	0.3811
3971	0.3782
3980	0.3741
3989	0.3704
3998	0.3691
