Infrared Spectrum: 2-Chloro-3-nitropyridine
Formula: C 5 H 3 Cl N 2 O 2
CAS: 5470-18-8
State: gas
Instrument: HP-GC/MS/IRD
Origin: NIST Mass Spectrometry Data Center
1/CM	ABSORBANCE
550	0.000588
562	0.00012
574	0.000456
586	0.000336
598	0
610	6e-05
622	0.000528
634	0.00462
646	0.006768
658	0.002364
670	0.000348
682	0.000312
694	0.000612
706	0.001788
718	0.00474
730	0.01464
742	0.040572
754	0.035268
766	0.011328
778	0.004728
790	0.006144
802	0.013752
814	0.015084
826	0.007512
838	0.009516
850	0.036972
862	0.035508
874	0.004692
886	0.000864
898	0.000336
910	0.00042
922	0.000432
934	0.000324
946	0.000432
958	0.000516
970	0.000828
982	0.000768
994	0.000552
1006	0.00066
1018	0.000828
1030	0.002076
1042	0.006924
1054	0.01962
1066	0.030612
1078	0.019284
1090	0.004872
1102	0.003036
1114	0.005988
1126	0.012996
1138	0.01152
1150	0.010896
1162	0.02436
1174	0.02244
1186	0.006876
1198	0.004644
1210	0.005292
1222	0.005352
1234	0.007008
1246	0.007236
1258	0.003708
1270	0.0024
1282	0.003216
1294	0.004992
1306	0.008148
1318	0.011232
1330	0.019272
1342	0.050244
1354	0.076764
1366	0.049008
1378	0.01908
1390	0.019344
1402	0.05004
1414	0.076824
1426	0.040824
1438	0.01164
1450	0.0078
1462	0.006372
1474	0.005124
1486	0.005844
1498	0.009768
1510	0.017952
1522	0.032604
1534	0.058848
1546	0.094656
1558	0.112548
1570	0.118644
1582	0.118848
1594	0.089976
1606	0.034656
1618	0.011676
1630	0.006
1642	0.003612
1654	0.002352
1666	0.001764
1678	0.001416
1690	0.001092
1702	0.000864
1714	0.00078
1726	0.000744
1738	0.000984
1750	0.001296
1762	0.001164
1774	0.000924
1786	0.000696
1798	0.000468
1810	0.000444
1822	0.000312
1834	0.000144
1846	0.000144
1858	0.000252
1870	0.00054
1882	0.000804
1894	0.0009
1906	0.001404
1918	0.001764
1930	0.001152
1942	0.001188
1954	0.001152
1966	0.000396
1978	3.6e-05
1990	2.4e-05
2002	0
2014	2.4e-05
2026	6e-05
2038	0.000132
2050	0.000252
2062	0.000264
2074	0.00012
2086	8.4e-05
2098	7.2e-05
2110	6e-05
2122	0
2134	2.4e-05
2146	6e-05
2158	7.2e-05
2170	6e-05
2182	4.8e-05
2194	8.4e-05
2206	0.000252
2218	0.000252
2230	0.000108
2242	4.8e-05
2254	0.000204
2266	0.000288
2278	0.0003
2290	0.000288
2302	0.000288
2314	0.000192
2326	0.000108
2338	0.00012
2350	9.6e-05
2362	0.000288
2374	0.000504
2386	0.000504
2398	0.00042
2410	0.00036
2422	0.000288
2434	0.000216
2446	0.000216
2458	0.000336
2470	0.000468
2482	0.000492
2494	0.00024
2506	8.4e-05
2518	1.2e-05
2530	1.2e-05
2542	2.4e-05
2554	0.000144
2566	0.000276
2578	0.000264
2590	0.000216
2602	0.000204
2614	0.000228
2626	0.000288
2638	0.000324
2650	0.000408
2662	0.000468
2674	0.000576
2686	0.000708
2698	0.00066
2710	0.000576
2722	0.00036
2734	0.00024
2746	0.000264
2758	0.000204
2770	0.000228
2782	0.000324
2794	0.00042
2806	0.000456
2818	0.000396
2830	0.000456
2842	0.000576
2854	0.000912
2866	0.00138
2878	0.001788
2890	0.002112
2902	0.002064
2914	0.001848
2926	0.001476
2938	0.001092
2950	0.000756
2962	0.00066
2974	0.000804
2986	0.000804
2998	0.000696
3010	0.000588
3022	0.000504
3034	0.000552
3046	0.001368
3058	0.005484
3070	0.008772
3082	0.006204
3094	0.003132
3106	0.001188
3118	0.000852
3130	0.000672
3142	0.000552
3154	0.000468
3166	0.000348
3178	0.000252
3190	0.000156
3202	0.000132
3214	2.4e-05
3226	2.4e-05
3238	3.6e-05
3250	4.8e-05
3262	0
3274	9.6e-05
3286	2.4e-05
3298	0.00012
3310	6e-05
3322	9.6e-05
3334	8.4e-05
3346	4.8e-05
3358	0.000108
3370	0.000156
3382	0.000168
3394	0.000132
3406	0.000228
3418	0.00018
3430	0.00018
3442	0.000204
3454	0.000216
3466	0.000192
3478	0.000216
3490	0.000204
3502	0.000216
3514	0.000276
3526	0.000336
3538	0.000276
3550	0.000264
3562	0.000264
3574	0.000264
3586	0.000276
3598	0.0003
3610	0.000288
3622	0.0003
3634	0.000324
3646	0.0003
3658	0.000348
3670	0.000348
3682	0.000336
3694	0.000456
3706	0.000492
3718	0.000516
3730	0.00042
3742	0.000396
3754	0.000456
3766	0.000444
3778	0.000456
3790	0.00048
3802	0.000588
3814	0.000612
3826	0.000612
3838	0.0006
