Infrared Spectrum: PROPIONIC ACID, 2-[(ISOPROPYLIDENEAMINO)OXY]- ETHYL ESTER
Formula: C8 H15 N O3
CAS: 54716-29-9
State: LIQUID (NEAT)
Class: COBLENTZ III
Instrument: PERKIN-ELMER 21 (GRATING)
Instrument parameters: FILTER CHANGE AT ABOUT 1090 CM^-^1
Sampling: TRANSMISSION
Path length: CAPILLARY
Resolution: 2
Origin: SOUTHERN RESEARCH INSTITUTE
1/CM	TRANSMITTANCE
609.2	0.62
617.54	0.6229
625.881	0.6153
634.221	0.617
642.562	0.6142
650.902	0.613
659.243	0.6247
667.583	0.629
675.923	0.6358
684.264	0.636
692.604	0.653
700.945	0.6652
709.285	0.6888
717.626	0.7214
725.966	0.737
734.307	0.7445
742.647	0.7482
750.987	0.7323
759.328	0.717
767.668	0.7472
776.009	0.77
784.349	0.782
792.69	0.7879
801.03	0.7939
809.37	0.8038
817.711	0.804
826.051	0.779
834.392	0.7207
842.732	0.7756
851.073	0.7828
859.413	0.7405
867.753	0.7
876.094	0.7146
884.434	0.632
892.775	0.5495
901.115	0.4174
909.456	0.4444
917.796	0.6763
926.137	0.7253
934.477	0.7186
942.817	0.6499
951.158	0.477
959.498	0.435
967.839	0.5101
976.179	0.6035
984.52	0.6909
992.86	0.7353
1001.2	0.748
1009.54	0.7151
1017.88	0.6383
1026.22	0.5425
1034.56	0.5751
1042.9	0.62
1051.24	0.4216
1059.58	0.3235
1067.92	0.4103
1076.26	0.4258
1084.6	0.526
1092.95	0.4885
1101.29	0.377
1109.63	0.3421
1117.97	0.4099
1126.31	0.4122
1134.65	0.4226
1142.99	0.3209
1151.33	0.1038
1159.67	0.1842
1168.01	0.3954
1176.35	0.524
1184.69	0.532
1193.03	0.4125
1201.37	0.2315
1209.71	0.2229
1218.05	0.3325
1226.39	0.4675
1234.73	0.5537
1243.07	0.5966
1251.41	0.6138
1259.75	0.5917
1268.09	0.4983
1276.43	0.3599
1284.78	0.405
1293.12	0.4893
1301.46	0.5259
1309.8	0.5361
1318.14	0.6117
1326.48	0.6437
1334.82	0.6216
1343.16	0.6425
1351.5	0.6424
1359.84	0.627
1368.18	0.6361
1376.52	0.424
1384.86	0.3541
1393.2	0.5507
1401.54	0.6207
1409.88	0.6865
1418.22	0.6938
1426.56	0.6863
1434.9	0.6505
1443.24	0.5896
1451.58	0.4942
1459.92	0.4783
1468.26	0.5482
1476.61	0.5973
1484.95	0.6638
1493.29	0.7115
1501.63	0.7527
1509.97	0.7636
1518.31	0.777
1526.65	0.7941
1534.99	0.788
1543.33	0.7907
1551.67	0.797
1560.01	0.8
1568.35	0.7964
1576.69	0.794
1585.03	0.7952
1593.37	0.799
1601.71	0.799
1610.05	0.791
1618.39	0.8
1626.73	0.7941
1635.07	0.7912
1643.41	0.7699
1651.75	0.759
1660.09	0.749
1668.44	0.7632
1676.78	0.789
1685.12	0.783
1693.46	0.7655
1701.8	0.736
1710.14	0.7231
1718.48	0.6486
1726.82	0.5597
1735.16	0.3242
1743.5	0.186
1751.84	0.1485
1760.18	0.1597
1768.52	0.3039
1776.86	0.588
1785.2	0.702
1793.54	0.7395
1801.88	0.7577
1810.22	0.775
1818.56	0.791
1826.9	0.791
1835.24	0.7924
1843.58	0.796
1851.92	0.802
1860.27	0.806
1868.61	0.809
1876.95	0.809
1885.29	0.809
1893.63	0.809
1901.97	0.8093
1910.31	0.813
1918.65	0.815
1926.99	0.815
1935.33	0.8139
1943.67	0.814
1952.01	0.816
1960.35	0.815
1968.69	0.816
1977.03	0.819
1985.37	0.82
1993.71	0.814
2002.05	0.8093
2010.39	0.808
2018.73	0.8144
2027.07	0.82
2035.41	0.8207
2043.75	0.8183
2052.1	0.821
2060.44	0.8146
2068.78	0.813
2077.12	0.815
2085.46	0.815
2093.8	0.818
2102.14	0.82
2110.48	0.821
2118.82	0.82
2127.16	0.819
2135.5	0.818
2143.84	0.8207
2152.18	0.8226
2160.52	0.8193
2168.86	0.8249
2177.2	0.8243
2185.54	0.818
2193.88	0.8193
2202.22	0.816
2210.56	0.8187
2218.9	0.822
2227.24	0.82
2235.58	0.831
2243.93	0.825
2252.27	0.826
2260.61	0.8281
2268.95	0.8273
2277.29	0.8296
2285.63	0.828
2293.97	0.828
2302.31	0.8364
2310.65	0.8356
2318.99	0.829
2327.33	0.831
2335.67	0.8347
2344.01	0.8424
2352.35	0.8477
2360.69	0.8587
2369.03	0.8511
2377.37	0.84
2385.71	0.833
2394.05	0.832
2402.39	0.833
2410.73	0.833
2419.07	0.834
2427.41	0.8323
2435.76	0.831
2444.1	0.8356
2452.44	0.834
2460.78	0.834
2469.12	0.832
2477.46	0.8296
2485.8	0.831
2494.14	0.8364
2502.48	0.8333
2510.82	0.832
2519.16	0.8364
2527.5	0.839
2535.84	0.8378
2544.18	0.8313
2552.52	0.829
2560.86	0.834
2569.2	0.834
2577.54	0.833
2585.88	0.832
2594.22	0.829
2602.56	0.8273
2610.9	0.826
2619.24	0.826
2627.59	0.828
2635.93	0.8337
2644.27	0.8407
2652.61	0.843
2660.95	0.8333
2669.29	0.831
2677.63	0.832
2685.97	0.833
2694.31	0.832
2702.65	0.831
2710.99	0.829
2719.33	0.8304
2727.67	0.832
2736.01	0.833
2744.35	0.8313
2752.69	0.829
2761.03	0.828
2769.37	0.826
2777.71	0.825
2786.05	0.824
2794.39	0.82
2802.73	0.8143
2811.07	0.81
2819.42	0.8063
2827.76	0.7883
2836.1	0.7813
2844.44	0.7713
2852.78	0.7593
2861.12	0.7508
2869.46	0.7393
2877.8	0.7313
2886.14	0.7193
2894.48	0.7073
2902.82	0.6751
2911.16	0.6158
2919.5	0.5683
2927.84	0.564
2936.18	0.563
2944.52	0.564
2952.86	0.5807
2961.2	0.5753
2969.54	0.5507
2977.88	0.485
2986.22	0.4786
2994.56	0.5173
3002.9	0.5944
3011.25	0.6832
3019.59	0.7293
3027.93	0.7586
3036.27	0.774
3044.61	0.787
3052.95	0.794
3061.29	0.8032
3069.63	0.81
3077.97	0.81
3086.31	0.813
3094.65	0.815
3102.99	0.816
3111.33	0.821
3119.67	0.821
3128.01	0.819
3136.35	0.818
3144.69	0.818
3153.03	0.82
3161.37	0.819
3169.71	0.814
3178.05	0.813
3186.39	0.82
3194.73	0.8166
3203.08	0.82
3211.42	0.818
3219.76	0.8183
3228.1	0.815
3236.44	0.815
3244.78	0.8197
3253.12	0.822
3261.46	0.8203
3269.8	0.8153
3278.14	0.812
3286.48	0.813
3294.82	0.814
3303.16	0.814
3311.5	0.812
3319.84	0.809
3328.18	0.81
3336.52	0.813
3344.86	0.815
3353.2	0.815
3361.54	0.814
3369.88	0.812
3378.22	0.81
3386.56	0.808
3394.91	0.806
3403.25	0.806
3411.59	0.806
3419.93	0.803
3428.27	0.8
3436.61	0.797
3444.95	0.797
3453.29	0.796
3461.63	0.796
3469.97	0.795
3478.31	0.795
3486.65	0.795
3494.99	0.793
3503.33	0.793
3511.67	0.795
3520.01	0.797
3528.35	0.797
3536.69	0.797
3545.03	0.796
3553.37	0.796
3561.71	0.796
3570.05	0.796
3578.39	0.797
3586.74	0.799
3595.08	0.799
3603.42	0.799
3611.76	0.799
3620.1	0.7976
3628.44	0.797
3636.78	0.799
3645.12	0.799
3653.46	0.799
3661.8	0.799
3670.14	0.799
3678.48	0.8017
3686.82	0.8077
3695.16	0.8157
3703.5	0.824
3711.84	0.825
3720.18	0.828
3728.52	0.831
3736.86	0.829
3745.2	0.828
3753.54	0.821
3761.88	0.829
3770.22	0.826
3778.57	0.819
3786.91	0.815
3795.25	0.8174
3803.59	0.8207
3811.93	0.822
