Infrared Spectrum: Hexamethyleneiminoacetonitrile
Formula: C 8 H 14 N 2
CAS: 54714-50-0
State: gas
Origin: EPA-IR VAPOR PHASE LIBRARY
1/CM	ABSORBANCE
549.8	0.0008801
559.445	0.0005651
569.09	0.0008384
578.735	0.0005375
588.38	0.0006464
598.025	0.0004575
607.67	0.0008193
617.315	0.0005531
626.96	0.0009247
636.605	0.001042
646.251	0.0011389
655.896	0.0010187
665.541	0.001151
675.186	0.0008153
684.831	0.0008622
694.476	0.0009399
704.121	0.001152
713.766	0.00237
723.411	0.00167
733.056	0.00191
742.701	0.00156
752.346	0.00169
761.991	0.00141
771.636	0.0012073
781.281	0.0014
790.926	0.0017
800.571	0.00205
810.216	0.00218
819.861	0.00225
829.507	0.00239
839.152	0.00295
848.797	0.00447
858.442	0.00637
868.087	0.00648
877.732	0.00459
887.377	0.00321
897.022	0.00318
906.667	0.00349
916.312	0.00369
925.957	0.00436
935.602	0.00558
945.247	0.00715
954.892	0.00776
964.537	0.0071
974.182	0.00637
983.827	0.00512
993.472	0.00378
1003.12	0.00343
1012.76	0.00334
1022.41	0.0026
1032.05	0.00164
1041.7	0.00151
1051.34	0.00175
1060.99	0.00249
1070.63	0.00476
1080.28	0.00958
1089.92	0.01176
1099.57	0.00879
1109.21	0.00672
1118.86	0.00953
1128.5	0.01659
1138.15	0.02138
1147.79	0.01769
1157.44	0.01276
1167.08	0.00912
1176.73	0.00672
1186.37	0.00505
1196.02	0.00363
1205.66	0.00293
1215.31	0.00339
1224.95	0.00456
1234.6	0.00488
1244.24	0.00426
1253.89	0.00363
1263.53	0.00333
1273.18	0.00347
1282.82	0.00413
1292.47	0.00511
1302.11	0.00686
1311.76	0.01091
1321.4	0.01581
1331.05	0.01525
1340.69	0.01227
1350.34	0.01074
1359.98	0.0085
1369.63	0.00637
1379.27	0.00505
1388.92	0.00478
1398.56	0.0044
1408.21	0.00366
1417.85	0.00494
1427.5	0.00812
1437.14	0.01067
1446.79	0.01401
1456.43	0.0166
1466.08	0.01458
1475.73	0.0091
1485.37	0.0048
1495.02	0.00246
1504.66	0.00147
1514.31	0.0011173
1523.95	0.0008233
1533.6	0.0008029
1543.24	0.0006562
1552.89	0.0006051
1562.53	0.0005979
1572.18	0.0005678
1581.82	0.0005456
1591.47	0.0004331
1601.11	0.000516
1610.76	0.0005568
1620.4	0.0006227
1630.05	0.000612
1639.69	0.0005636
1649.34	0.0006133
1658.98	0.0006309
1668.63	0.000594
1678.27	0.000465
1687.92	0.0005803
1697.56	0.0005499
1707.21	0.0004644
1716.85	0.0005078
1726.5	0.0004394
1736.14	0.0004533
1745.79	0.00039596
1755.43	0.0004379
1765.08	0.00041492
1774.72	0.0004962
1784.37	0.00041595
1794.01	0.00039947
1803.66	0.0004297
1813.3	0.00041406
1822.95	0.0004439
1832.59	0.0004935
1842.24	0.0004364
1851.88	0.0005694
1861.53	0.0004809
1871.17	0.000514
1880.82	0.000533
1890.46	0.0004633
1900.11	0.0004374
1909.75	0.0004925
1919.4	0.0004772
1929.04	0.000556
1938.69	0.0004495
1948.33	0.0005009
1957.98	0.0005501
1967.62	0.0004898
1977.27	0.0004905
1986.91	0.00041066
1996.56	0.00041748
2006.2	0.00034482
2015.85	0.00038453
2025.49	0.00040426
2035.14	0.0004298
2044.78	0.0004293
2054.43	0.0004507
2064.07	0.0004839
2073.72	0.0004328
2083.36	0.0004372
2093.01	0.00039158
2102.65	0.0004871
2112.3	0.0004582
2121.94	0.0004864
2131.59	0.0004568
2141.23	0.00041081
2150.88	0.0004562
2160.52	0.0005008
2170.17	0.0005444
2179.81	0.0005633
2189.46	0.0005821
2199.1	0.0006105
2208.75	0.0005485
2218.39	0.0005515
2228.04	0.000492
2237.68	0.0004918
2247.33	0.0004995
2256.97	0.0005086
2266.62	0.0004885
2276.26	0.0005486
2285.91	0.0005265
2295.55	0.0005606
2305.2	0.0005247
2314.84	0.000524
2324.49	0.0004371
2334.13	0.0004973
2343.78	0.0005073
2353.42	0.0004462
2363.07	0.0005091
2372.72	0.0004744
2382.36	0.0003976
2392.01	0.0004562
2401.65	0.00034475
2411.3	0.0004221
2420.94	0.0004446
2430.59	0.00037717
2440.23	0.00034114
2449.88	0.00039817
2459.52	0.00040471
2469.17	0.0004409
2478.81	0.00037417
2488.46	0.00034587
2498.1	0.00038528
2507.75	0.0004218
2517.39	0.00041127
2527.04	0.0004203
2536.68	0.0005193
2546.33	0.0005848
2555.97	0.0005689
2565.62	0.0006228
2575.26	0.0004637
2584.91	0.0006817
2594.55	0.0006863
2604.2	0.0007976
2613.84	0.0007792
2623.49	0.0009558
2633.13	0.001091
2642.78	0.0012779
2652.42	0.00165
2662.07	0.00204
2671.71	0.00245
2681.36	0.00302
2691	0.00321
2700.65	0.00347
2710.29	0.00377
2719.94	0.00397
2729.58	0.00458
2739.23	0.00521
2748.87	0.00616
2758.52	0.00681
2768.16	0.00747
2777.81	0.00832
2787.45	0.00961
2797.1	0.0125
2806.74	0.01633
2816.39	0.01912
2826.03	0.02108
2835.68	0.02208
2845.32	0.02337
2854.97	0.02771
2864.61	0.03197
2874.26	0.02957
2883.9	0.02464
2893.55	0.02393
2903.19	0.02874
2912.84	0.04246
2922.48	0.07261
2932.13	0.11236
2941.77	0.11549
2951.42	0.07156
2961.06	0.03336
2970.71	0.01468
2980.35	0.00691
2990	0.00414
2999.64	0.00272
3009.29	0.00204
3018.93	0.00141
3028.58	0.0011683
3038.22	0.0010047
3047.87	0.0006779
3057.51	0.0006276
3067.16	0.0006015
3076.8	0.0007026
3086.45	0.0005546
3096.09	0.0005535
3105.74	0.0004699
3115.38	0.0003725
3125.03	0.0002969
3134.67	0.00037315
3144.32	0.0002801
3153.96	0.00040656
3163.61	0.0004861
3173.25	0.00033169
3182.9	0.0002973
3192.54	0.00031531
3202.19	0.000168
3211.83	0.0002592
3221.48	0.0002727
3231.12	0.0002604
3240.77	0.00036703
3250.41	0.00037622
3260.06	0.00039268
3269.7	0.0005514
3279.35	0.00033705
3289	0.0005336
3298.64	0.0002883
3308.29	0.00034234
3317.93	0.0002871
3327.58	0.0002948
3337.22	0.00040601
3346.87	0.000315
3356.51	0.0002714
3366.16	0.000217
3375.8	0.0002696
3385.45	0.000113
3395.09	0.0002413
3404.74	0.0002295
3414.38	9.9e-05
3424.03	0.0004816
3433.67	0.00034529
3443.32	0.00035643
3452.96	0.000183
3462.61	0.0002971
3472.25	0.0002621
3481.9	0.0002942
3491.54	0.000118
3501.19	0.0002286
3510.83	0.000136
3520.48	4.5e-05
3530.12	0.000219
3539.77	0.000203
3549.41	5.7e-05
3559.06	0.000159
3568.7	0.000134
3578.35	0.000126
3587.99	0.000219
3597.64	0.0002214
3607.28	0.000174
3616.93	0.000154
3626.57	0.000164
3636.22	0.0003001
3645.86	0.000205
3655.51	0.00031632
3665.15	0.000157
3674.8	0.00022
3684.44	0.000213
3694.09	0.000186
3703.73	0.00041929
3713.38	0.000215
3723.02	0.0002518
3732.67	0.00021
3742.31	0.000135
3751.96	0.0002519
3761.6	0.00036712
3771.25	0.00039384
3780.89	0.0002259
3790.54	0.0004501
3800.18	0.0002466
3809.83	0.000183
3819.47	0.00037793
3829.12	0.0003011
3838.76	0.0002586
3848.41	0.000113
3858.05	5.8e-05
3867.7	0.0002832
3877.34	0.000192
3886.99	0.0002985
3896.63	0.00034998
3906.28	0.0002634
3915.92	0.0002
3925.57	0.0002234
3935.21	0.000204
3944.86	0.000126
3954.5	0.0002658
3964.15	0.000219
3973.79	0.000128
3983.44	0.000208
3993.08	0.00031411
