Infrared Spectrum: 4-(4-Hydroxyphenyl)-2-butanone
Formula: C 10 H 12 O 2
CAS: 5471-51-2
State: gas
Instrument: HP-GC/MS/IRD
Origin: NIST Mass Spectrometry Data Center
1/CM	ABSORBANCE
550	0.001352
562	0.0007536
574	0.0004672
586	0.000416
598	0.0001776
610	0.0001328
622	7.52e-05
634	1.92e-05
646	4.48e-05
658	1.28e-05
670	2.56e-05
682	7.68e-05
694	0.0001856
706	0.0003392
718	0.0003792
730	0.0003328
742	0.0004624
754	0.000664
766	0.0004208
778	0.0005552
790	0.001136
802	0.0022496
814	0.0029696
826	0.0027008
838	0.0018368
850	0.001056
862	0.000768
874	0.000488
886	0.0003568
898	0.0003584
910	0.0003392
922	0.0003984
934	0.0004736
946	0.0004848
958	0.0004672
970	0.0004016
982	0.0003216
994	0.0003072
1006	0.0004768
1018	0.0005824
1030	0.0004416
1042	0.0004864
1054	0.0004656
1066	0.000528
1078	0.00064
1090	0.0012352
1102	0.0016352
1114	0.0014272
1126	0.0017264
1138	0.0027856
1150	0.005384
1162	0.0102992
1174	0.016
1186	0.0095936
1198	0.0054048
1210	0.003752
1222	0.0031568
1234	0.0029584
1246	0.0051296
1258	0.0089216
1270	0.0034688
1282	0.0017712
1294	0.0014496
1306	0.0014704
1318	0.002
1330	0.0031792
1342	0.0033152
1354	0.0037136
1366	0.0039568
1378	0.0022224
1390	0.0012432
1402	0.001136
1414	0.0015056
1426	0.002208
1438	0.0024064
1450	0.0016496
1462	0.0010992
1474	0.0008224
1486	0.0009872
1498	0.0028736
1510	0.0107584
1522	0.0071632
1534	0.0014944
1546	0.000728
1558	0.0005792
1570	0.0006112
1582	0.0010592
1594	0.002064
1606	0.0023888
1618	0.0023296
1630	0.0011488
1642	0.000608
1654	0.0005152
1666	0.0005552
1678	0.0008176
1690	0.0013856
1702	0.0023072
1714	0.0042912
1726	0.0078736
1738	0.0078576
1750	0.0038496
1762	0.0017152
1774	0.0008384
1786	0.0004368
1798	0.0002704
1810	0.0001792
1822	0.000144
1834	0.000176
1846	0.0002016
1858	0.0002432
1870	0.0002768
1882	0.0002608
1894	0.0001792
1906	0.0001056
1918	7.68e-05
1930	6.56e-05
1942	4.8e-05
1954	6.4e-05
1966	5.76e-05
1978	6.56e-05
1990	7.04e-05
2002	6.56e-05
2014	7.2e-05
2026	5.12e-05
2038	2.88e-05
2050	5.12e-05
2062	8e-05
2074	7.52e-05
2086	9.12e-05
2098	0.0001008
2110	7.52e-05
2122	4e-05
2134	3.84e-05
2146	4.8e-06
2158	2.24e-05
2170	3.04e-05
2182	3.2e-05
2194	3.36e-05
2206	2.72e-05
2218	2.08e-05
2230	1.76e-05
2242	2.08e-05
2254	3.52e-05
2266	3.36e-05
2278	4.48e-05
2290	4.48e-05
2302	6.56e-05
2314	5.12e-05
2326	7.36e-05
2338	8.64e-05
2350	8.16e-05
2362	7.52e-05
2374	4.16e-05
2386	4.16e-05
2398	5.44e-05
2410	0.000104
2422	0.0001856
2434	0.000176
2446	9.92e-05
2458	5.76e-05
2470	6.24e-05
2482	7.2e-05
2494	9.44e-05
2506	0.0001024
2518	7.84e-05
2530	3.84e-05
2542	2.56e-05
2554	1.12e-05
2566	2.72e-05
2578	5.44e-05
2590	6.24e-05
2602	5.6e-05
2614	5.92e-05
2626	3.84e-05
2638	4.96e-05
2650	3.84e-05
2662	4.32e-05
2674	4.32e-05
2686	6.24e-05
2698	4.48e-05
2710	3.04e-05
2722	4.16e-05
2734	5.92e-05
2746	3.68e-05
2758	8.8e-05
2770	8.48e-05
2782	8.96e-05
2794	8.16e-05
2806	0.0001024
2818	0.0001632
2830	0.000224
2842	0.0003264
2854	0.0004928
2866	0.0007408
2878	0.0008016
2890	0.0010368
2902	0.0014432
2914	0.0018464
2926	0.0023088
2938	0.0024112
2950	0.0019968
2962	0.0017984
2974	0.0012816
2986	0.000888
2998	0.0011536
3010	0.0020624
3022	0.0022912
3034	0.0021776
3046	0.0015872
3058	0.0011264
3070	0.0009328
3082	0.0007088
3094	0.0004688
3106	0.0003712
3118	0.0002912
3130	0.0002144
3142	0.0001584
3154	9.44e-05
3166	3.04e-05
3178	4e-05
3190	3.04e-05
3202	6.72e-05
3214	1.6e-06
3226	2.72e-05
3238	6.72e-05
3250	3.52e-05
3262	2.4e-05
3274	6.4e-05
3286	4.8e-05
3298	1.28e-05
3310	4.16e-05
3322	4.32e-05
3334	5.28e-05
3346	0.000128
3358	0.0001216
3370	8.32e-05
3382	0.0001056
3394	0.0001056
3406	0.0001168
3418	0.0001552
3430	0.0001856
3442	0.0002432
3454	0.0001968
3466	0.0001568
3478	0.00012
3490	6.08e-05
3502	3.52e-05
3514	8.8e-05
3526	1.92e-05
3538	4.48e-05
3550	2.56e-05
3562	6.08e-05
3574	7.36e-05
3586	7.84e-05
3598	7.04e-05
3610	0.0001744
3622	0.0003744
3634	0.0011072
3646	0.0046704
3658	0.0048208
3670	0.0008592
3682	0.0002512
3694	0.0001456
3706	0.0001296
3718	5.76e-05
3730	2.4e-05
3742	3.52e-05
3754	1.92e-05
3766	5.44e-05
3778	7.68e-05
3790	4e-05
3802	5.92e-05
3814	4.64e-05
3826	1.44e-05
3838	7.2e-05
