Infrared Spectrum: Ethyl 3-pyrrolidinocrotonate
Formula: C 10 H 17 N O 2
CAS: 54716-02-8
State: gas
Origin: EPA-IR VAPOR PHASE LIBRARY
1/CM	ABSORBANCE
549.9	0.0035551
559.547	0.0033895
569.193	0.0033986
578.84	0.0033074
588.486	0.00305655
598.133	0.002404
607.779	0.002259
617.426	0.00235
627.072	0.002241
636.719	0.002326
646.365	0.002437
656.012	0.002363
665.658	0.002745
675.305	0.002817
684.951	0.0031698
694.598	0.00303698
704.245	0.0029301
713.891	0.0032414
723.538	0.0036094
733.184	0.0037146
742.831	0.0037843
752.477	0.0042
762.124	0.00497
771.77	0.00587
781.417	0.00826
791.063	0.01349
800.71	0.01803
810.356	0.01417
820.003	0.00883
829.649	0.00629
839.296	0.00535
848.943	0.00492
858.589	0.00547
868.236	0.0062
877.882	0.00642
887.529	0.00586
897.175	0.00579
906.822	0.0061
916.468	0.00567
926.115	0.00468
935.761	0.00437
945.408	0.00463
955.054	0.00545
964.701	0.00719
974.347	0.00894
983.994	0.00955
993.64	0.01078
1003.29	0.01307
1012.93	0.01903
1022.58	0.02925
1032.23	0.02677
1041.87	0.03248
1051.52	0.0527
1061.17	0.0596
1070.81	0.04735
1080.46	0.03706
1090.11	0.0352
1099.75	0.04025
1109.4	0.04846
1119.05	0.07446
1128.69	0.13917
1138.34	0.28917
1147.99	0.31102
1157.63	0.13126
1167.28	0.06554
1176.92	0.05087
1186.57	0.04128
1196.22	0.02531
1205.86	0.01708
1215.51	0.01547
1225.16	0.01726
1234.8	0.02087
1244.45	0.02629
1254.1	0.03148
1263.74	0.0309
1273.39	0.02034
1283.04	0.01428
1292.68	0.01393
1302.33	0.01561
1311.98	0.01566
1321.62	0.01804
1331.27	0.0232
1340.92	0.0352
1350.56	0.03777
1360.21	0.03235
1369.86	0.03939
1379.5	0.03413
1389.15	0.04067
1398.79	0.05684
1408.44	0.08044
1418.09	0.07773
1427.73	0.04616
1437.38	0.03389
1447.03	0.02974
1456.67	0.02698
1466.32	0.02546
1475.97	0.01945
1485.61	0.01936
1495.26	0.01829
1504.91	0.01296
1514.55	0.01236
1524.2	0.01361
1533.85	0.01546
1543.49	0.01864
1553.14	0.02613
1562.79	0.04333
1572.43	0.08131
1582.08	0.16226
1591.73	0.235
1601.37	0.19277
1611.02	0.10188
1620.67	0.04437
1630.31	0.02485
1639.96	0.01767
1649.6	0.01422
1659.25	0.01269
1668.9	0.01294
1678.54	0.01477
1688.19	0.02374
1697.84	0.05939
1707.48	0.12254
1717.13	0.09299
1726.78	0.02975
1736.42	0.01206
1746.07	0.00902
1755.72	0.00833
1765.36	0.00727
1775.01	0.00602
1784.66	0.00482
1794.3	0.00397
1803.95	0.0034186
1813.6	0.0030912
1823.24	0.002926
1832.89	0.0028949
1842.54	0.0029431
1852.18	0.0029416
1861.83	0.00304475
1871.47	0.0031425
1881.12	0.0032256
1890.77	0.0032308
1900.41	0.0031864
1910.06	0.0030995
1919.71	0.0030923
1929.35	0.00297353
1939	0.002784
1948.65	0.002537
1958.29	0.002382
1967.94	0.002276
1977.59	0.002103
1987.23	0.002087
1996.88	0.002108
2006.53	0.002288
2016.17	0.002556
2025.82	0.002608
2035.47	0.002435
2045.11	0.002281
2054.76	0.002122
2064.41	0.00203
2074.05	0.00197
2083.7	0.00195
2093.35	0.00192
2102.99	0.00194
2112.64	0.002
2122.28	0.002055
2131.93	0.00208
2141.58	0.002107
2151.22	0.002056
2160.87	0.00195
2170.52	0.0019
2180.16	0.00184
2189.81	0.00183
2199.46	0.00179
2209.1	0.00181
2218.75	0.00173
2228.4	0.00169
2238.04	0.00172
2247.69	0.00173
2257.34	0.00186
2266.98	0.001977
2276.63	0.002071
2286.28	0.002333
2295.92	0.002669
2305.57	0.0032633
2315.22	0.003802
2324.86	0.00411
2334.51	0.0039232
2344.16	0.0036466
2353.8	0.00401
2363.45	0.00479
2373.09	0.00415
2382.74	0.002584
2392.39	0.00184
2402.03	0.00173
2411.68	0.00164
2421.33	0.00161
2430.97	0.00154
2440.62	0.00148
2450.27	0.00144
2459.91	0.00147
2469.56	0.00143
2479.21	0.00157
2488.85	0.0016
2498.5	0.00166
2508.15	0.00155
2517.79	0.00136
2527.44	0.00137
2537.09	0.00134
2546.73	0.00136
2556.38	0.00136
2566.03	0.00136
2575.67	0.00128
2585.32	0.00122
2594.96	0.00126
2604.61	0.00135
2614.26	0.00136
2623.9	0.00138
2633.55	0.00146
2643.2	0.00161
2652.84	0.00179
2662.49	0.00186
2672.14	0.0018
2681.78	0.00183
2691.43	0.00182
2701.08	0.00186
2710.72	0.002193
2720.37	0.002392
2730.02	0.002679
2739.66	0.00301114
2749.31	0.00299563
2758.96	0.0032442
2768.6	0.0035968
2778.25	0.0038293
2787.9	0.0042
2797.54	0.00481
2807.19	0.00582
2816.84	0.00734
2826.48	0.00924
2836.13	0.01225
2845.77	0.01799
2855.42	0.02702
2865.07	0.03018
2874.71	0.02681
2884.36	0.02747
2894.01	0.02432
2903.65	0.02312
2913.3	0.02443
2922.95	0.02712
2932.59	0.03405
2942.24	0.04079
2951.89	0.03981
2961.53	0.04495
2971.18	0.06063
2980.83	0.06711
2990.47	0.03954
3000.12	0.02085
3009.77	0.01278
3019.41	0.00856
3029.06	0.00604
3038.71	0.00438
3048.35	0.0034597
3058	0.0029365
3067.64	0.002526
3077.29	0.002851
3086.94	0.0031992
3096.58	0.0031025
3106.23	0.002111
3115.88	0.00149
3125.52	0.00119
3135.17	0.00082
3144.82	0.00082
3154.46	0.00065
3164.11	0.00066
3173.76	0.0005
3183.4	0.00045
3193.05	0.00032
3202.7	0.00021
3212.34	2e-05
3221.99	0.00012
3231.64	0.00016
3241.28	0.00016
3250.93	0.00012
3260.58	0.00012
3270.22	0.00023
3279.87	0.00041
3289.52	0.00054
3299.16	0.00074
3308.81	0.00065
3318.45	0.00055
3328.1	0.00036
3337.75	0.00037
3347.39	0.00049
3357.04	0.00044
3366.69	0.0003
3376.33	0.0005
3385.98	0.00083
3395.63	0.00112
3405.27	0.00117
3414.92	0.00116
3424.57	0.00082
3434.21	0.0008
3443.86	0.00052
3453.51	0.00074
3463.15	0.00072
3472.8	0.00064
3482.45	0.00068
3492.09	0.00072
3501.74	0.00071
3511.39	0.00085
3521.03	0.00091
3530.68	0.00087
3540.33	0.00086
3549.97	0.00085
3559.62	0.00107
3569.26	0.00104
3578.91	0.00091
3588.56	0.00104
3598.2	0.00106
3607.85	0.00113
3617.5	0.00098
3627.14	0.00112
3636.79	0.00124
3646.44	0.00144
3656.08	0.00142
3665.73	0.00129
3675.38	0.0012
3685.02	0.00127
3694.67	0.0013
3704.32	0.00128
3713.96	0.00131
3723.61	0.00133
3733.26	0.00154
3742.9	0.00134
3752.55	0.00136
3762.2	0.00136
3771.84	0.00142
3781.49	0.00132
3791.13	0.00142
3800.78	0.0015
3810.43	0.00141
3820.07	0.00151
3829.72	0.0015
3839.37	0.00159
3849.01	0.00148
3858.66	0.00138
3868.31	0.00149
3877.95	0.00155
3887.6	0.00148
3897.25	0.00143
3906.89	0.00141
3916.54	0.00129
3926.19	0.00143
3935.83	0.00133
3945.48	0.00143
3955.13	0.0014
3964.77	0.00139
3974.42	0.00157
3984.07	0.0015
3993.71	0.00159
