Infrared Spectrum: Alpha-P-BROMO-BENZOHYDRYL-ACETOPHENONE
Formula: C21 H17 Br O
CAS: 5472-01-5
State: SOLID (1.0% IN KBr PELLET)
Class: COBLENTZ
Instrument: Not specified, most likely a prism, grating, or hybrid spectrometer.
Sampling: TRANSMISSION
Path length: 0.0355 CM THICK
Resolution: 4
Origin: ANDERSON PHYSICAL LABORATORY
1/CM	TRANSMITTANCE
669.476	0.695
677.903	0.6681
686.33	0.5208
694.757	0.5872
703.184	0.6866
711.611	0.603
720.038	0.8689
728.465	0.844
736.892	0.735
745.319	0.527
753.746	0.37
762.173	0.8157
770.6	0.8367
779.027	0.8489
787.454	0.8341
795.881	0.899
804.307	0.899
812.734	0.841
821.161	0.677
829.588	0.859
838.015	0.916
846.442	0.919
854.869	0.923
863.296	0.926
871.723	0.919
880.15	0.908
888.577	0.932
897.004	0.934
905.431	0.922
913.858	0.878
922.285	0.865
930.712	0.934
939.139	0.928
947.566	0.914
955.993	0.8771
964.42	0.862
972.847	0.834
981.274	0.72
989.701	0.692
998.128	0.799
1006.55	0.663
1014.98	0.6259
1023.41	0.919
1031.84	0.878
1040.26	0.925
1048.69	0.911
1057.12	0.886
1065.54	0.88
1073.97	0.747
1082.4	0.823
1090.82	0.908
1099.25	0.895
1107.68	0.832
1116.11	0.852
1124.53	0.898
1132.96	0.913
1141.39	0.911
1149.81	0.893
1158.24	0.849
1166.67	0.834
1175.09	0.795
1183.52	0.748
1191.95	0.787
1200.38	0.7471
1208.8	0.5971
1217.23	0.6329
1225.66	0.865
1234.08	0.884
1242.51	0.855
1250.94	0.789
1259.36	0.635
1267.79	0.6599
1276.22	0.813
1284.64	0.831
1293.07	0.82
1301.5	0.808
1309.93	0.789
1318.35	0.792
1326.78	0.811
1335.21	0.795
1343.63	0.795
1352.06	0.8499
1360.49	0.85
1368.91	0.7681
1377.34	0.662
1385.77	0.774
1394.2	0.84
1402.62	0.78
1411.05	0.777
1419.48	0.753
1427.9	0.763
1436.33	0.869
1444.76	0.84
1453.18	0.5933
1461.61	0.7387
1470.04	0.896
1478.46	0.838
1486.89	0.72
1495.32	0.547
1503.75	0.843
1512.17	0.928
1520.6	0.928
1529.03	0.925
1537.45	0.916
1545.88	0.919
1554.31	0.898
1562.73	0.883
1571.16	0.863
1579.59	0.778
1588.02	0.778
1596.44	0.698
1604.87	0.7629
1613.3	0.847
1621.72	0.846
1630.15	0.829
1638.58	0.805
1647	0.784
1655.43	0.748
1663.86	0.693
1672.29	0.499
1680.71	0.236
1689.14	0.6746
1697.57	0.8519
1705.99	0.961
1714.42	0.965
1722.85	0.979
1731.27	0.98
1739.7	0.976
1748.13	0.968
1756.55	0.962
1764.98	0.955
1773.41	0.959
1781.84	0.962
1790.26	0.958
1798.69	0.953
1807.12	0.946
1815.54	0.944
1823.97	0.947
1832.4	0.952
1840.82	0.955
1849.25	0.958
1857.68	0.956
1866.11	0.953
1874.53	0.953
1882.96	0.937
1891.39	0.931
1899.81	0.934
1908.24	0.94
1916.67	0.941
1925.09	0.949
1933.52	0.949
1941.95	0.95
1950.38	0.95
1958.8	0.944
1967.23	0.941
1975.66	0.946
1984.08	0.949
1992.51	0.95
2000.94	0.958
2009.36	0.958
2017.79	0.958
2026.22	0.958
2034.64	0.956
2043.07	0.956
2051.5	0.955
2059.93	0.953
2068.35	0.953
2076.78	0.9509
2085.21	0.9492
2093.63	0.949
2102.06	0.949
2110.49	0.947
2118.91	0.947
2127.34	0.9459
2135.77	0.9437
2144.2	0.943
2152.62	0.9414
2161.05	0.941
2169.48	0.941
2177.9	0.941
2186.33	0.941
2194.76	0.9409
2203.18	0.94
2211.61	0.9374
2220.04	0.935
2228.47	0.935
2236.89	0.934
2245.32	0.934
2253.75	0.932
2262.17	0.932
2270.6	0.9286
2279.03	0.928
2287.45	0.9262
2295.88	0.926
2304.31	0.9268
2312.73	0.9303
2321.16	0.9367
2329.59	0.938
2338.02	0.9404
2346.44	0.943
2354.87	0.944
2363.3	0.944
2371.72	0.946
2380.15	0.944
2388.58	0.9411
2397	0.94
2405.43	0.9404
2413.86	0.941
2422.29	0.941
2430.71	0.941
2439.14	0.94
2447.57	0.9373
2455.99	0.9351
2464.42	0.935
2472.85	0.9359
2481.27	0.9377
2489.7	0.938
2498.13	0.9365
2506.56	0.933
2514.98	0.932
2523.41	0.931
2531.84	0.929
2540.26	0.929
2548.69	0.9305
2557.12	0.931
2565.54	0.931
2573.97	0.932
2582.4	0.932
2590.82	0.934
2599.25	0.9343
2607.68	0.935
2616.11	0.9324
2624.53	0.932
2632.96	0.931
2641.39	0.931
2649.81	0.929
2658.24	0.928
2666.67	0.926
2675.09	0.9272
2683.52	0.9288
2691.95	0.9311
2700.38	0.932
2708.8	0.9314
2717.23	0.929
2725.66	0.925
2734.08	0.9219
2742.51	0.9194
2750.94	0.9161
2759.36	0.914
2767.79	0.9136
2776.22	0.911
2784.65	0.91
2793.07	0.9097
2801.5	0.9046
2809.93	0.9014
2818.35	0.899
2826.78	0.8977
2835.21	0.8896
2843.63	0.8877
2852.06	0.8804
2860.49	0.8735
2868.91	0.8617
2877.34	0.8576
2885.77	0.8599
2894.2	0.8716
2902.62	0.875
2911.05	0.8743
2919.48	0.874
2927.9	0.872
2936.33	0.871
2944.76	0.872
2953.18	0.871
2961.61	0.8621
2970.04	0.8555
2978.47	0.8523
2986.89	0.847
2995.32	0.8388
3003.75	0.8256
3012.17	0.811
3020.6	0.807
3029.03	0.805
3037.45	0.805
3045.88	0.805
3054.31	0.805
3062.74	0.81
3071.16	0.8161
3079.59	0.8304
3088.02	0.8403
3096.44	0.8518
3104.87	0.8581
3113.3	0.859
3121.72	0.8558
3130.15	0.8514
3138.58	0.8494
3147	0.847
3155.43	0.8469
3163.86	0.846
3172.29	0.8448
3180.71	0.8432
3189.14	0.838
3197.57	0.834
3205.99	0.8314
3214.42	0.829
3222.85	0.829
3231.27	0.8273
3239.7	0.822
3248.13	0.82
3256.56	0.814
3264.98	0.814
3273.41	0.813
3281.84	0.811
3290.26	0.8076
3298.69	0.8032
3307.12	0.8001
3315.54	0.7924
3323.97	0.7835
3332.4	0.7762
3340.83	0.7677
3349.25	0.765
3357.68	0.761
3366.11	0.7506
3374.53	0.7453
3382.96	0.7362
3391.39	0.7298
3399.81	0.7251
3408.24	0.724
3416.67	0.723
3425.09	0.723
3433.52	0.723
3441.95	0.7237
3450.38	0.7259
3458.8	0.727
3467.23	0.7284
3475.66	0.7357
3484.08	0.739
3492.51	0.7477
3500.94	0.7535
3509.36	0.7622
3517.79	0.766
3526.22	0.7695
3534.65	0.773
3543.07	0.7778
3551.5	0.784
3559.93	0.7883
3568.35	0.7955
3576.78	0.8014
3585.21	0.8071
3593.63	0.8139
3602.06	0.8181
3610.49	0.8244
3618.92	0.8262
3627.34	0.8313
3635.77	0.834
3644.2	0.835
3652.62	0.837
3661.05	0.837
3669.48	0.837
3677.9	0.8378
3686.33	0.84
3694.76	0.84
3703.18	0.8388
3711.61	0.838
3720.04	0.838
3728.47	0.8376
3736.89	0.8344
3745.32	0.834
3753.75	0.835
3762.17	0.835
3770.6	0.834
3779.03	0.8314
3787.45	0.8277
3795.88	0.826
3804.31	0.826
3812.74	0.828
3821.16	0.826
3829.59	0.826
3838.02	0.826
3846.44	0.826
3854.87	0.826
3863.3	0.826
3871.72	0.826
3880.15	0.826
3888.58	0.826
3897	0.826
3905.43	0.8236
3913.86	0.8201
3922.29	0.8168
3930.71	0.816
3939.14	0.816
3947.57	0.816
3955.99	0.816
3964.42	0.816
3972.85	0.816
3981.27	0.816
