Infrared Spectrum: Beta-PHENYL, Beta-1-NAPHTHYL P-BROMOPROPIOPHENONE
Formula: C25 H19 Br O
CAS: 5472-05-9
State: SOLID (1.0% IN KBr PELLET)
Class: COBLENTZ
Instrument: Not specified, most likely a prism, grating, or hybrid spectrometer.
Sampling: TRANSMISSION
Path length: 0.0355 CM THICK
Resolution: 4
Origin: ANDERSON PHYSICAL LABORATORY
1/CM	TRANSMITTANCE
672.285	0.767
680.712	0.76
689.139	0.772
697.566	0.68
705.993	0.763
714.42	0.718
722.847	0.779
731.274	0.764
739.701	0.763
748.128	0.766
756.555	0.776
764.982	0.728
773.409	0.5711
781.836	0.1852
790.263	0.52
798.69	0.3387
807.117	0.6437
815.544	0.6051
823.971	0.265
832.398	0.722
840.825	0.787
849.252	0.821
857.679	0.851
866.106	0.844
874.533	0.869
882.96	0.851
891.387	0.86
899.814	0.865
908.241	0.854
916.668	0.838
925.095	0.848
933.522	0.844
941.949	0.7701
950.376	0.8
958.803	0.782
967.23	0.754
975.657	0.67
984.084	0.439
992.511	0.626
1000.94	0.703
1009.36	0.262
1017.79	0.46
1026.22	0.8139
1034.65	0.818
1043.07	0.833
1051.5	0.839
1059.93	0.814
1068.35	0.703
1076.78	0.365
1085.21	0.694
1093.63	0.809
1102.06	0.763
1110.49	0.76
1118.92	0.784
1127.34	0.827
1135.77	0.839
1144.2	0.835
1152.62	0.824
1161.05	0.812
1169.48	0.766
1177.9	0.676
1186.33	0.6248
1194.76	0.706
1203.19	0.4761
1211.61	0.5469
1220.04	0.746
1228.47	0.754
1236.89	0.697
1245.32	0.595
1253.75	0.5171
1262.17	0.731
1270.6	0.749
1279.03	0.724
1287.46	0.7
1295.88	0.752
1304.31	0.749
1312.74	0.707
1321.16	0.737
1329.59	0.703
1338.02	0.616
1346.44	0.706
1354.87	0.626
1363.3	0.715
1371.73	0.67
1380.15	0.697
1388.58	0.682
1397.01	0.487
1405.43	0.326
1413.86	0.517
1422.29	0.6169
1430.71	0.5451
1439.14	0.784
1447.57	0.802
1456	0.803
1464.42	0.797
1472.85	0.776
1481.28	0.7
1489.7	0.3709
1498.13	0.5271
1506.56	0.787
1514.98	0.763
1523.41	0.76
1531.84	0.8
1540.27	0.805
1548.69	0.793
1557.12	0.779
1565.55	0.73
1573.97	0.583
1582.4	0.5568
1590.83	0.281
1599.25	0.6171
1607.68	0.754
1616.11	0.784
1624.54	0.773
1632.96	0.76
1641.39	0.725
1649.82	0.68
1658.24	0.671
1666.67	0.622
1675.1	0.4459
1683.52	0.1579
1691.95	0.3039
1700.38	0.566
1708.81	0.773
1717.23	0.823
1725.66	0.845
1734.09	0.85
1742.51	0.847
1750.94	0.847
1759.37	0.841
1767.79	0.83
1776.22	0.827
1784.65	0.821
1793.08	0.821
1801.5	0.823
1809.93	0.82
1818.36	0.82
1826.78	0.821
1835.21	0.821
1843.64	0.821
1852.06	0.823
1860.49	0.821
1868.92	0.815
1877.35	0.811
1885.77	0.802
1894.2	0.787
1902.63	0.781
1911.05	0.79
1919.48	0.791
1927.91	0.787
1936.33	0.781
1944.76	0.781
1953.19	0.791
1961.62	0.796
1970.04	0.797
1978.47	0.8
1986.9	0.803
1995.32	0.803
2003.75	0.802
2012.18	0.8015
2020.6	0.8
2029.03	0.7992
2037.46	0.799
2045.89	0.7984
2054.31	0.797
2062.74	0.797
2071.17	0.796
2079.59	0.7953
2088.02	0.794
2096.45	0.793
2104.87	0.791
2113.3	0.7906
2121.73	0.79
2130.15	0.788
2138.58	0.7867
2147.01	0.7838
2155.44	0.7813
2163.86	0.781
2172.29	0.779
2180.72	0.778
2189.14	0.776
2197.57	0.775
2206	0.7728
2214.42	0.7711
2222.85	0.7693
2231.28	0.767
2239.71	0.7655
2248.13	0.763
2256.56	0.7603
2264.99	0.758
2273.41	0.7565
2281.84	0.753
2290.27	0.7512
2298.69	0.749
2307.12	0.7474
2315.55	0.7454
2323.98	0.7422
2332.4	0.7399
2340.83	0.7367
2349.26	0.736
2357.68	0.734
2366.11	0.7339
2374.54	0.733
2382.96	0.733
2391.39	0.731
2399.82	0.731
2408.25	0.731
2416.67	0.731
2425.1	0.731
2433.53	0.7308
2441.95	0.73
2450.38	0.73
2458.81	0.73
2467.23	0.73
2475.66	0.728
2484.09	0.7273
2492.52	0.727
2500.94	0.725
2509.37	0.725
2517.8	0.7225
2526.22	0.721
2534.65	0.719
2543.08	0.718
2551.5	0.715
2559.93	0.7119
2568.36	0.71
2576.79	0.71
2585.21	0.7074
2593.64	0.7058
2602.07	0.7053
2610.49	0.7034
2618.92	0.7013
2627.35	0.6998
2635.77	0.6976
2644.2	0.6957
2652.63	0.695
2661.06	0.694
2669.48	0.692
2677.91	0.6913
2686.34	0.689
2694.76	0.6876
2703.19	0.686
2711.62	0.6874
2720.04	0.689
2728.47	0.689
2736.9	0.689
2745.33	0.6865
2753.75	0.685
2762.18	0.683
2770.61	0.681
2779.03	0.679
2787.46	0.677
2795.89	0.676
2804.31	0.674
2812.74	0.6732
2821.17	0.6699
2829.6	0.668
2838.02	0.667
2846.45	0.6653
2854.88	0.6638
2863.3	0.6592
2871.73	0.6538
2880.16	0.6474
2888.58	0.6386
2897.01	0.626
2905.44	0.622
2913.87	0.622
2922.29	0.62
2930.72	0.62
2939.15	0.62
2947.57	0.6172
2956	0.6164
2964.43	0.6086
2972.85	0.6043
2981.28	0.602
2989.71	0.599
2998.14	0.599
3006.56	0.599
3014.99	0.599
3023.42	0.5975
3031.84	0.5934
3040.27	0.5783
3048.7	0.5679
3057.12	0.5627
3065.55	0.5579
3073.98	0.5562
3082.41	0.5542
3090.83	0.5593
3099.26	0.5696
3107.69	0.5805
3116.11	0.5921
3124.54	0.5979
3132.97	0.6033
3141.39	0.6049
3149.82	0.605
3158.25	0.6032
3166.68	0.602
3175.1	0.602
3183.53	0.601
3191.96	0.601
3200.38	0.5996
3208.81	0.598
3217.24	0.598
3225.66	0.598
3234.09	0.598
3242.52	0.598
3250.95	0.596
3259.37	0.596
3267.8	0.596
3276.23	0.595
3284.65	0.595
3293.08	0.595
3301.51	0.5934
3309.93	0.5929
3318.36	0.592
3326.79	0.59
3335.22	0.5892
3343.64	0.5858
3352.07	0.5813
3360.5	0.577
3368.92	0.5741
3377.35	0.5738
3385.78	0.572
3394.2	0.571
3402.63	0.569
3411.06	0.568
3419.49	0.5672
3427.91	0.565
3436.34	0.563
3444.77	0.5616
3453.19	0.5596
3461.62	0.559
3470.05	0.559
3478.47	0.557
3486.9	0.556
3495.33	0.554
3503.76	0.554
3512.18	0.554
3520.61	0.554
3529.04	0.554
3537.46	0.554
3545.89	0.554
3554.32	0.554
3562.74	0.554
3571.17	0.553
3579.6	0.553
3588.02	0.553
3596.45	0.551
3604.88	0.551
3613.31	0.551
3621.73	0.5536
3630.16	0.5557
3638.59	0.556
3647.01	0.556
3655.44	0.557
3663.87	0.5588
3672.29	0.5592
3680.72	0.56
3689.15	0.56
3697.58	0.56
3706	0.56
3714.43	0.56
3722.86	0.5593
3731.28	0.557
3739.71	0.556
3748.14	0.554
3756.56	0.554
3764.99	0.554
3773.42	0.554
3781.85	0.554
3790.27	0.554
3798.7	0.553
3807.13	0.551
3815.55	0.55
3823.98	0.547
3832.41	0.5418
3840.83	0.538
3849.26	0.536
3857.69	0.536
3866.12	0.536
3874.54	0.535
3882.97	0.535
3891.4	0.535
3899.82	0.5351
3908.25	0.536
3916.68	0.5353
3925.1	0.535
3933.53	0.5328
3941.96	0.532
3950.39	0.5327
3958.81	0.5349
3967.24	0.5346
3975.67	0.533
3984.09	0.533
