Infrared Spectrum: ISOPROPYL-Alpha,Beta-DICHLORO PROPIONATE
Formula: C6 H10 Cl2 O2
CAS: 54774-99-1
State: SOLUTION (10% CCl4 FOR 2.5-7.5, 10% CS2 FOR 7.5-16 MICRONS)
Class: COBLENTZ
Instrument: Not specified, most likely a prism, grating, or hybrid spectrometer.
Sampling: TRANSMISSION
Path length: 0.01 CM, 0.01 CM
Resolution: 4
Origin: DOW CHEMICAL COMPANY
MICROMETERS	TRANSMITTANCE
1.992	0.868
2.03206	0.866
2.07212	0.866
2.11218	0.87
2.15224	0.87
2.1923	0.863
2.23236	0.863
2.27242	0.861
2.31247	0.866
2.35253	0.866
2.39259	0.87
2.43265	0.888
2.47271	0.895
2.51277	0.9
2.55283	0.9
2.59289	0.898
2.63295	0.903
2.67301	0.898
2.71307	0.893
2.75313	0.863
2.79319	0.853
2.83325	0.831
2.8733	0.82
2.91336	0.828
2.95342	0.825
2.99348	0.82
3.03354	0.815
3.0736	0.815
3.11366	0.813
3.15372	0.818
3.19378	0.818
3.23384	0.813
3.2739	0.78
3.31396	0.56
3.35402	0.377
3.39408	0.557
3.43414	0.678
3.47419	0.75
3.51425	0.835
3.55431	0.868
3.59437	0.876
3.63443	0.88
3.67449	0.893
3.71455	0.891
3.75461	0.898
3.79467	0.898
3.83473	0.9
3.87479	0.9
3.91485	0.9
3.95491	0.9
3.99497	0.911
4.03502	0.92
4.07508	0.92
4.11514	0.921
4.1552	0.923
4.19526	0.908
4.23532	0.901
4.27538	0.9
4.31544	0.915
4.3555	0.916
4.39556	0.93
4.43562	0.946
4.47568	0.955
4.51574	0.958
4.5558	0.958
4.59586	0.951
4.63591	0.953
4.67597	0.955
4.71603	0.953
4.75609	0.951
4.79615	0.953
4.83621	0.95
4.87627	0.948
4.91633	0.95
4.95639	0.95
4.99645	0.945
5.03651	0.95
5.07657	0.955
5.11663	0.956
5.15669	0.95
5.19674	0.95
5.2368	0.95
5.27686	0.94
5.31692	0.928
5.35698	0.915
5.39704	0.913
5.4371	0.911
5.47716	0.888
5.51722	0.85
5.55728	0.8
5.59734	0.708
5.6374	0.5
5.67746	0.214
5.71752	0.033
5.75758	0.043
5.79763	0.149
5.83769	0.487
5.87775	0.665
5.91781	0.783
5.95787	0.831
5.99793	0.843
6.03799	0.84
6.07805	0.841
6.11811	0.846
6.15817	0.801
6.19823	0.758
6.23829	0.688
6.27835	0.622
6.31841	0.608
6.35847	0.57
6.39852	0.51
6.43858	0.472
6.47864	0.509
6.5187	0.608
6.55876	0.648
6.59882	0.697
6.63888	0.757
6.67894	0.79
6.719	0.782
6.75906	0.617
6.79912	0.482
6.83918	0.555
6.87924	0.6
6.9193	0.628
6.95935	0.6
6.99941	0.635
7.03947	0.602
7.07953	0.602
7.11959	0.632
7.15965	0.517
7.19971	0.357
7.23977	0.189
7.27983	0.143
7.31989	0.314
7.35995	0.432
7.40001	0.419
7.44007	0.361
7.48013	0.377
7.52019	0.484
7.56024	0.542
7.6003	0.559
7.64036	0.547
7.68042	0.404
7.72048	0.227
7.76054	0.141
7.8006	0.136
7.84066	0.159
7.88072	0.211
7.92078	0.226
7.96084	0.241
8.0009	0.217
8.04096	0.221
8.08102	0.201
8.12107	0.133
8.16113	0.199
8.20119	0.312
8.24125	0.347
8.28131	0.307
8.32137	0.281
8.36143	0.231
8.40149	0.141
8.44155	0.118
8.48161	0.186
8.52167	0.239
8.56173	0.239
8.60179	0.199
8.64185	0.184
8.68191	0.221
8.72196	0.241
8.76202	0.367
8.80208	0.47
8.84214	0.485
8.8822	0.472
8.92226	0.429
8.96232	0.299
9.00238	0.106
9.04244	0.028
9.0825	0.068
9.12256	0.301
9.16262	0.499
9.20268	0.569
9.24274	0.6
9.28279	0.623
9.32285	0.628
9.36291	0.61
9.40297	0.605
9.44303	0.65
9.48309	0.708
9.52315	0.757
9.56321	0.777
9.60327	0.78
9.64333	0.78
9.68339	0.778
9.72345	0.785
9.76351	0.795
9.80357	0.801
9.84363	0.805
9.88368	0.805
9.92374	0.803
9.9638	0.795
10.0039	0.773
10.0439	0.71
10.084	0.618
10.124	0.554
10.1641	0.564
10.2042	0.62
10.2442	0.672
10.2843	0.66
10.3243	0.602
10.3644	0.54
10.4045	0.519
10.4445	0.462
10.4846	0.399
10.5246	0.42
10.5647	0.552
10.6048	0.627
10.6448	0.652
10.6849	0.66
10.7249	0.675
10.765	0.685
10.805	0.688
10.8451	0.652
10.8852	0.633
10.9252	0.678
10.9653	0.733
11.0053	0.708
11.0454	0.608
11.0855	0.55
11.1255	0.62
11.1656	0.72
11.2056	0.753
11.2457	0.758
11.2858	0.753
11.3258	0.742
11.3659	0.708
11.4059	0.69
11.446	0.673
11.4861	0.657
11.5261	0.653
11.5662	0.662
11.6062	0.67
11.6463	0.675
11.6864	0.68
11.7264	0.685
11.7665	0.697
11.8065	0.713
11.8466	0.723
11.8867	0.722
11.9267	0.705
11.9668	0.69
12.0068	0.647
12.0469	0.59
12.0869	0.502
12.127	0.419
12.1671	0.445
12.2071	0.529
12.2472	0.59
12.2872	0.628
12.3273	0.662
12.3674	0.69
12.4074	0.712
12.4475	0.715
12.4875	0.715
12.5276	0.708
12.5677	0.69
12.6077	0.67
12.6478	0.652
12.6878	0.642
12.7279	0.642
12.768	0.642
12.808	0.642
12.8481	0.642
12.8881	0.643
12.9282	0.658
12.9683	0.682
13.0083	0.707
13.0484	0.723
13.0884	0.742
13.1285	0.753
13.1685	0.757
13.2086	0.757
13.2487	0.752
13.2887	0.742
13.3288	0.732
13.3688	0.713
13.4089	0.685
13.449	0.643
13.489	0.582
13.5291	0.54
13.5691	0.532
13.6092	0.547
13.6493	0.582
13.6893	0.618
13.7294	0.642
13.7694	0.658
13.8095	0.658
13.8496	0.652
13.8896	0.638
13.9297	0.622
13.9697	0.602
14.0098	0.574
14.0499	0.542
14.0899	0.5
14.13	0.42
14.17	0.336
14.2101	0.252
14.2501	0.198
14.2902	0.179
14.3303	0.176
14.3703	0.211
14.4104	0.261
14.4504	0.306
14.4905	0.359
14.5306	0.409
14.5706	0.442
14.6107	0.467
14.6507	0.484
14.6908	0.49
14.7309	0.494
14.7709	0.494
14.811	0.494
14.851	0.494
14.8911	0.487
14.9312	0.482
14.9712	0.474
15.0113	0.454
15.0513	0.43
15.0914	0.405
15.1315	0.391
15.1715	0.377
15.2116	0.374
15.2516	0.377
15.2917	0.381
15.3318	0.382
15.3718	0.382
15.4119	0.382
15.4519	0.382
15.492	0.371
15.532	0.372
15.5721	0.372
15.6122	0.372
15.6522	0.372
15.6923	0.372
15.7323	0.371
15.7724	0.371
15.8125	0.352
15.8525	0.352
15.8926	0.351
15.9326	0.352
15.9727	0.352
