Infrared Spectrum: 4-Acetamidobenzyl chloride
Formula: C 9 H 10 Cl N O
CAS: 54777-65-0
State: gas
Origin: EPA-IR VAPOR PHASE LIBRARY
1/CM	ABSORBANCE
551.7	0.00128
563.274	0.00109
574.848	0.00122
586.421	0.00116
597.995	0.00107
609.569	0.00115
621.143	0.00135
632.717	0.00129
644.291	0.0014
655.864	0.00132
667.438	0.00143
679.012	0.00181
690.586	0.00187
702.16	0.00151
713.734	0.00136
725.307	0.00143
736.881	0.00173
748.455	0.00145
760.029	0.00122
771.603	0.00121
783.177	0.00141
794.75	0.00133
806.324	0.00143
817.898	0.00152
829.472	0.00147
841.046	0.0015
852.619	0.00131
864.193	0.00111
875.767	0.00107
887.341	0.0009603
898.915	0.00107
910.489	0.00102
922.062	0.00109
933.636	0.00108
945.21	0.00109
956.784	0.00116
968.358	0.00112
979.932	0.00132
991.505	0.0014
1003.08	0.00121
1014.65	0.00115
1026.23	0.00114
1037.8	0.00101
1049.37	0.00122
1060.95	0.00118
1072.52	0.00133
1084.1	0.00121
1095.67	0.00137
1107.24	0.00113
1118.82	0.00118
1130.39	0.00125
1141.97	0.00116
1153.54	0.00105
1165.11	0.00112
1176.69	0.00109
1188.26	0.00131
1199.83	0.00148
1211.41	0.00216
1222.98	0.00263
1234.56	0.00324
1246.13	0.00314
1257.7	0.0022
1269.28	0.00262
1280.85	0.00254
1292.42	0.00308
1304	0.0034
1315.57	0.00269
1327.15	0.0016
1338.72	0.00138
1350.29	0.00137
1361.87	0.00195
1373.44	0.0023
1385.02	0.00193
1396.59	0.00263
1408.16	0.00347
1419.74	0.002
1431.31	0.00159
1442.88	0.00157
1454.46	0.00172
1466.03	0.00205
1477.61	0.0029
1489.18	0.00443
1500.75	0.00576
1512.33	0.00743
1523.9	0.00542
1535.48	0.00235
1547.05	0.00167
1558.62	0.0014
1570.2	0.00133
1581.77	0.00158
1593.34	0.00208
1604.92	0.00213
1616.49	0.00207
1628.07	0.00137
1639.64	0.00108
1651.21	0.00102
1662.79	0.00106
1674.36	0.00112
1685.93	0.00128
1697.51	0.00167
1709.08	0.00282
1720.66	0.00552
1732.23	0.00526
1743.8	0.00334
1755.38	0.00195
1766.95	0.00139
1778.53	0.00113
1790.1	0.00104
1801.67	0.000919
1813.25	0.0008808
1824.82	0.0008579
1836.39	0.0008687
1847.97	0.0008519
1859.54	0.0008677
1871.12	0.0008535
1882.69	0.0008711
1894.26	0.0008697
1905.84	0.0008426
1917.41	0.0008069
1928.99	0.0007563
1940.56	0.0007614
1952.13	0.000736
1963.71	0.0007741
1975.28	0.0007364
1986.85	0.0007306
1998.43	0.0007114
2010	0.0006876
2021.58	0.0006861
2033.15	0.0006387
2044.72	0.0006348
2056.3	0.0006003
2067.87	0.0006207
2079.44	0.0005915
2091.02	0.0005805
2102.59	0.0005618
2114.17	0.0005448
2125.74	0.0005485
2137.31	0.0005758
2148.89	0.0005664
2160.46	0.0005466
2172.04	0.0005432
2183.61	0.0004923
2195.18	0.0005384
2206.76	0.0005742
2218.33	0.0004742
2229.9	0.0004895
2241.48	0.0005372
2253.05	0.0005254
2264.63	0.0005335
2276.2	0.0005458
2287.77	0.0005434
2299.35	0.0005121
2310.92	0.0005124
2322.5	0.0005397
2334.07	0.0005435
2345.64	0.0005321
2357.22	0.0005364
2368.79	0.0005202
2380.36	0.0005558
2391.94	0.0005452
2403.51	0.0005289
2415.09	0.0005239
2426.66	0.000537
2438.23	0.00059
2449.81	0.0005597
2461.38	0.0005766
2472.96	0.0005847
2484.53	0.0005472
2496.1	0.0005315
2507.68	0.0004864
2519.25	0.000573
2530.82	0.0005517
2542.4	0.000546
2553.97	0.0004896
2565.55	0.0005486
2577.12	0.0004932
2588.69	0.0005379
2600.27	0.0005003
2611.84	0.0004978
2623.41	0.0005008
2634.99	0.0004546
2646.56	0.0005555
2658.14	0.0005277
2669.71	0.0005149
2681.28	0.0005795
2692.86	0.0005214
2704.43	0.000599
2716.01	0.0005837
2727.58	0.0005104
2739.15	0.0005018
2750.73	0.0005684
2762.3	0.0005915
2773.87	0.0005211
2785.45	0.0005231
2797.02	0.0005628
2808.6	0.0004949
2820.17	0.0005766
2831.74	0.0006116
2843.32	0.0005924
2854.89	0.0006257
2866.47	0.000613
2878.04	0.0005485
2889.61	0.000634
2901.19	0.0006983
2912.76	0.000742
2924.33	0.0007142
2935.91	0.0008537
2947.48	0.000866
2959.06	0.0009472
2970.63	0.000861
2982.2	0.0008044
2993.78	0.0007468
3005.35	0.0009093
3016.92	0.0011
3028.5	0.00114
3040.07	0.00121
3051.65	0.0009104
3063.22	0.00104
3074.79	0.0008354
3086.37	0.0008803
3097.94	0.0006893
3109.52	0.0007511
3121.09	0.0008266
3132.66	0.00068
3144.24	0.0005973
3155.81	0.0006169
3167.38	0.0005871
3178.96	0.0006298
3190.53	0.0004676
3202.11	0.0004756
3213.68	0.0005364
3225.25	0.0004752
3236.83	0.0005787
3248.4	0.0005341
3259.98	0.000452
3271.55	0.0004995
3283.12	0.0005131
3294.7	0.0005539
3306.27	0.00056
3317.84	0.0006727
3329.42	0.0005613
3340.99	0.0005234
3352.57	0.0006601
3364.14	0.000548
3375.71	0.0005096
3387.29	0.0006571
3398.86	0.0005966
3410.43	0.000717
3422.01	0.0008031
3433.58	0.0007492
3445.16	0.0008085
3456.73	0.0009442
3468.3	0.0011
3479.88	0.0008617
3491.45	0.0007312
3503.03	0.0006981
3514.6	0.0006978
3526.17	0.000651
3537.75	0.0006508
3549.32	0.0006198
3560.89	0.0006411
3572.47	0.0005637
3584.04	0.0006668
3595.62	0.000788
3607.19	0.0005528
3618.76	0.0007414
3630.34	0.0006497
3641.91	0.000543
3653.49	0.0007315
3665.06	0.0006538
3676.63	0.0007562
3688.21	0.0006438
3699.78	0.0006358
3711.35	0.0006578
3722.93	0.0006906
3734.5	0.0006816
3746.08	0.0006273
3757.65	0.0006051
3769.22	0.0006955
3780.8	0.0006641
3792.37	0.0007384
3803.94	0.0006131
3815.52	0.0006148
3827.09	0.0007307
3838.67	0.0006448
3850.24	0.0007108
3861.81	0.000666
3873.39	0.0006472
3884.96	0.0006371
3896.54	0.0006086
3908.11	0.0007267
3919.68	0.0006827
3931.26	0.0007327
3942.83	0.0007357
3954.4	0.0006843
3965.98	0.0006375
3977.55	0.0006283
3989.13	0.0005804
4000.7	0.0006982
