Infrared Spectrum: p-(Alpha-CHLOROETHYL)BENZYL CHLORIDE
Formula: C9 H10 Cl2
CAS: 54789-30-9
State: SOLUTION (10% CCl4 FOR 5000-1330, 10% CS2 FOR 1330-625 CM^-^1)
Class: COBLENTZ
Instrument: Not specified, most likely a prism, grating, or hybrid spectrometer.
Sampling: TRANSMISSION
Path length: 0.0110 CM, 0.0120 CM
Resolution: 4
Origin: DOW CHEMICAL COMPANY
MICROMETERS	TRANSMITTANCE
2.055	0.894
2.09606	0.892
2.13711	0.889
2.17817	0.887
2.21922	0.882
2.26028	0.877
2.30133	0.88
2.34239	0.882
2.38344	0.882
2.4245	0.882
2.46555	0.887
2.50661	0.897
2.54766	0.899
2.58872	0.901
2.62978	0.901
2.67083	0.901
2.71189	0.899
2.75294	0.897
2.794	0.899
2.83505	0.901
2.87611	0.901
2.91716	0.899
2.95822	0.897
2.99927	0.899
3.04033	0.897
3.08138	0.899
3.12244	0.899
3.16349	0.896
3.20455	0.87
3.24561	0.828
3.28666	0.761
3.32772	0.675
3.36877	0.608
3.40983	0.816
3.45088	0.848
3.49194	0.874
3.53299	0.891
3.57405	0.906
3.6151	0.904
3.65616	0.901
3.69721	0.901
3.73827	0.909
3.77933	0.906
3.82038	0.904
3.86144	0.909
3.90249	0.911
3.94355	0.913
3.9846	0.913
4.02566	0.914
4.06671	0.916
4.10777	0.916
4.14882	0.921
4.18988	0.918
4.23093	0.906
4.27199	0.901
4.31304	0.899
4.3541	0.901
4.39516	0.911
4.43621	0.923
4.47727	0.926
4.51832	0.928
4.55938	0.928
4.60043	0.928
4.64149	0.93
4.68254	0.93
4.7236	0.93
4.76465	0.928
4.80571	0.928
4.84676	0.928
4.88782	0.925
4.92888	0.928
4.96993	0.926
5.01099	0.923
5.05204	0.923
5.0931	0.921
5.13415	0.92
5.17521	0.904
5.21626	0.87
5.25732	0.87
5.29837	0.906
5.33943	0.908
5.38048	0.908
5.42154	0.908
5.4626	0.911
5.50365	0.911
5.54471	0.894
5.58576	0.882
5.62682	0.899
5.66787	0.909
5.70893	0.911
5.74998	0.908
5.79104	0.909
5.83209	0.909
5.87315	0.906
5.9142	0.901
5.95526	0.889
5.99631	0.886
6.03737	0.88
6.07843	0.892
6.11948	0.889
6.16054	0.853
6.20159	0.806
6.24265	0.743
6.2837	0.659
6.32476	0.624
6.36581	0.583
6.40687	0.547
6.44792	0.471
6.48898	0.517
6.53003	0.588
6.57109	0.573
6.61215	0.549
6.6532	0.705
6.69426	0.787
6.73531	0.826
6.77637	0.826
6.81742	0.756
6.85848	0.6
6.89953	0.508
6.94059	0.644
6.98164	0.675
7.0227	0.568
7.06375	0.697
7.10481	0.799
7.14587	0.824
7.18692	0.823
7.22798	0.715
7.26903	0.698
7.31009	0.857
7.35114	0.85
7.3922	0.838
7.43325	0.807
7.47431	0.818
7.51536	0.828
7.55642	0.823
7.59747	0.795
7.63853	0.792
7.67958	0.792
7.72064	0.738
7.7617	0.714
7.80275	0.721
7.84381	0.608
7.88486	0.397
7.92592	0.387
7.96697	0.644
8.00803	0.593
8.04908	0.528
8.09014	0.518
8.13119	0.508
8.17225	0.586
8.2133	0.678
8.25436	0.705
8.29542	0.707
8.33647	0.738
8.37753	0.758
8.41858	0.758
8.45964	0.758
8.50069	0.773
8.54175	0.773
8.5828	0.768
8.62386	0.767
8.66491	0.765
8.70597	0.763
8.74702	0.767
8.78808	0.772
8.82913	0.777
8.87019	0.767
8.91125	0.721
8.9523	0.676
8.99336	0.693
9.03441	0.746
9.07547	0.767
9.11652	0.773
9.15758	0.785
9.19863	0.787
9.23969	0.785
9.28074	0.763
9.3218	0.715
9.36285	0.707
9.40391	0.726
9.44497	0.712
9.48602	0.6
9.52708	0.413
9.56813	0.358
9.60919	0.632
9.65024	0.743
9.6913	0.775
9.73235	0.78
9.77341	0.695
9.81446	0.646
9.85552	0.767
9.89657	0.819
9.93763	0.826
9.97869	0.829
10.0197	0.831
10.0608	0.828
10.1019	0.811
10.1429	0.79
10.184	0.76
10.225	0.717
10.2661	0.653
10.3071	0.617
10.3482	0.634
10.3892	0.712
10.4303	0.775
10.4713	0.806
10.5124	0.814
10.5535	0.818
10.5945	0.819
10.6356	0.824
10.6766	0.826
10.7177	0.835
10.7587	0.829
10.7998	0.823
10.8408	0.816
10.8819	0.806
10.923	0.787
10.964	0.772
11.0051	0.765
11.0461	0.775
11.0872	0.799
11.1282	0.801
11.1693	0.804
11.2103	0.795
11.2514	0.787
11.2925	0.772
11.3335	0.746
11.3746	0.736
11.4156	0.717
11.4567	0.705
11.4977	0.693
11.5388	0.68
11.5798	0.664
11.6209	0.642
11.662	0.629
11.703	0.615
11.7441	0.596
11.7851	0.585
11.8262	0.545
11.8672	0.484
11.9083	0.418
11.9493	0.414
11.9904	0.447
12.0315	0.457
12.0725	0.423
12.1136	0.404
12.1546	0.438
12.1957	0.494
12.2367	0.564
12.2778	0.622
12.3188	0.658
12.3599	0.688
12.401	0.71
12.442	0.721
12.4831	0.731
12.5241	0.736
12.5652	0.738
12.6062	0.738
12.6473	0.738
12.6883	0.738
12.7294	0.738
12.7704	0.736
12.8115	0.731
12.8526	0.719
12.8936	0.705
12.9347	0.688
12.9757	0.664
13.0168	0.624
13.0578	0.581
13.0989	0.54
13.1399	0.498
13.181	0.462
13.2221	0.438
13.2631	0.392
13.3042	0.35
13.3452	0.294
13.3863	0.26
13.4273	0.231
13.4684	0.217
13.5094	0.212
13.5505	0.236
13.5916	0.304
13.6326	0.396
13.6737	0.476
13.7147	0.523
13.7558	0.557
13.7968	0.573
13.8379	0.578
13.8789	0.579
13.92	0.574
13.9611	0.557
14.0021	0.552
14.0432	0.545
14.0842	0.537
14.1253	0.518
14.1663	0.494
14.2074	0.465
14.2484	0.435
14.2895	0.399
14.3306	0.357
14.3716	0.311
14.4127	0.265
14.4537	0.226
14.4948	0.193
14.5358	0.161
14.5769	0.147
14.6179	0.137
14.659	0.136
14.7001	0.136
14.7411	0.144
14.7822	0.159
14.8232	0.18
14.8643	0.204
14.9053	0.219
14.9464	0.241
14.9874	0.268
15.0285	0.295
15.0696	0.302
15.1106	0.311
15.1517	0.318
15.1927	0.318
15.2338	0.314
15.2748	0.312
15.3159	0.312
15.3569	0.314
15.398	0.316
15.439	0.319
15.4801	0.319
15.5212	0.318
15.5622	0.312
15.6033	0.312
15.6443	0.312
15.6854	0.312
15.7264	0.312
15.7675	0.309
15.8085	0.304
15.8496	0.299
15.8907	0.295
