Infrared Spectrum: Dimethyl indole-2,3-dicarboxylate
Formula: C 12 H 11 N O 4
CAS: 54781-93-0
State: gas
Origin: EPA-IR VAPOR PHASE LIBRARY
1/CM	ABSORBANCE
549.8	0.004069
559.445	0.005139
569.09	0.007279
578.734	0.005799
588.379	0.004319
598.024	0.003829
607.669	0.003539
617.313	0.004149
626.958	0.003159
636.603	0.004989
646.248	0.005249
655.893	0.003019
665.537	0.001679
675.182	0.0012921
684.827	0.001719
694.472	0.002209
704.116	0.002659
713.761	0.002869
723.406	0.006209
733.051	0.032619
742.695	0.050099
752.34	0.020529
761.985	0.012599
771.63	0.016129
781.275	0.013439
790.919	0.008919
800.564	0.009939
810.209	0.010149
819.854	0.005449
829.498	0.005419
839.143	0.006819
848.788	0.008209
858.433	0.006159
868.078	0.004659
877.722	0.004059
887.367	0.005159
897.012	0.006529
906.657	0.005019
916.301	0.004759
925.946	0.005899
935.591	0.008339
945.236	0.011119
954.88	0.010889
964.525	0.011029
974.17	0.012669
983.815	0.016339
993.46	0.018149
1003.1	0.016069
1012.75	0.012169
1022.39	0.012259
1032.04	0.012729
1041.68	0.016849
1051.33	0.028869
1060.97	0.059919
1070.62	0.072999
1080.26	0.035049
1089.91	0.017399
1099.55	0.015119
1109.2	0.015709
1118.84	0.031609
1128.49	0.030189
1138.13	0.031479
1147.78	0.068099
1157.42	0.084069
1167.07	0.078159
1176.71	0.060869
1186.36	0.054489
1196	0.060409
1205.64	0.078949
1215.29	0.121369
1224.93	0.139609
1234.58	0.158019
1244.22	0.178949
1253.87	0.118969
1263.51	0.086809
1273.16	0.067139
1282.8	0.034899
1292.45	0.026399
1302.09	0.037029
1311.74	0.060649
1321.38	0.100929
1331.03	0.082239
1340.67	0.059039
1350.32	0.048589
1359.96	0.037949
1369.61	0.033999
1379.25	0.019489
1388.9	0.012739
1398.54	0.012019
1408.18	0.015889
1417.83	0.027199
1427.47	0.033919
1437.12	0.059829
1446.76	0.081589
1456.41	0.042649
1466.05	0.017899
1475.7	0.013229
1485.34	0.011449
1494.99	0.011249
1504.63	0.011219
1514.28	0.013669
1523.92	0.022129
1533.57	0.042029
1543.21	0.069949
1552.86	0.061209
1562.5	0.031739
1572.15	0.021109
1581.79	0.017969
1591.44	0.012299
1601.08	0.009119
1610.73	0.008209
1620.37	0.007389
1630.01	0.005959
1639.66	0.005649
1649.3	0.006429
1658.95	0.007829
1668.59	0.011229
1678.24	0.014919
1687.88	0.019789
1697.53	0.029079
1707.17	0.053429
1716.82	0.126249
1726.46	0.172939
1736.11	0.115069
1745.75	0.102809
1755.4	0.097559
1765.04	0.082309
1774.69	0.051529
1784.33	0.026099
1793.98	0.014249
1803.62	0.010039
1813.27	0.007169
1822.91	0.005129
1832.55	0.004539
1842.2	0.004129
1851.84	0.003729
1861.49	0.003859
1871.13	0.003569
1880.78	0.003379
1890.42	0.003949
1900.07	0.003929
1909.71	0.003069
1919.36	0.002999
1929	0.003679
1938.65	0.003099
1948.29	0.002459
1957.94	0.002579
1967.58	0.002419
1977.23	0.002559
1986.87	0.002849
1996.52	0.003009
2006.16	0.002579
2015.81	0.002799
2025.45	0.002639
2035.1	0.002319
2044.74	0.002179
2054.38	0.002489
2064.03	0.002509
2073.67	0.002569
2083.32	0.002149
2092.96	0.002519
2102.61	0.002259
2112.25	0.002019
2121.9	0.002099
2131.54	0.002029
2141.19	0.001969
2150.83	0.001919
2160.48	0.001919
2170.12	0.001859
2179.77	0.001629
2189.41	0.001481
2199.06	0.001679
2208.7	0.001599
2218.35	0.001509
2227.99	0.001609
2237.64	0.001879
2247.28	0.001709
2256.92	0.0014589
2266.57	0.0014353
2276.21	0.0014766
2285.86	0.001719
2295.5	0.001354
2305.15	0.0014937
2314.79	0.001519
2324.44	0.0013095
2334.08	0.001539
2343.73	0.001639
2353.37	0.001659
2363.02	0.0014829
2372.66	0.001729
2382.31	0.001879
2391.95	0.001819
2401.6	0.001979
2411.24	0.001729
2420.89	0.001599
2430.53	0.0014824
2440.18	0.001819
2449.82	0.001709
2459.47	0.001809
2469.11	0.001869
2478.75	0.001929
2488.4	0.001849
2498.04	0.001499
2507.69	0.0014873
2517.33	0.001499
2526.98	0.001609
2536.62	0.001599
2546.27	0.0014474
2555.91	0.001999
2565.56	0.001909
2575.2	0.002319
2584.85	0.001999
2594.49	0.002159
2604.14	0.002159
2613.78	0.002019
2623.43	0.0013356
2633.07	0.001619
2642.72	0.001559
2652.36	0.0013905
2662.01	0.001519
2671.65	0.0014701
2681.29	0.001739
2690.94	0.001739
2700.58	0.001509
2710.23	0.001749
2719.87	0.001789
2729.52	0.001539
2739.16	0.0014033
2748.81	0.001899
2758.45	0.001969
2768.1	0.002019
2777.74	0.001549
2787.39	0.001969
2797.03	0.001919
2806.68	0.002119
2816.32	0.002819
2825.97	0.003329
2835.61	0.004869
2845.26	0.008169
2854.9	0.007579
2864.55	0.005769
2874.19	0.004759
2883.84	0.005379
2893.48	0.006629
2903.12	0.007929
2912.77	0.008629
2922.41	0.008779
2932.06	0.008899
2941.7	0.012349
2951.35	0.028649
2960.99	0.047499
2970.64	0.021779
2980.28	0.011329
2989.93	0.010899
2999.57	0.011789
3009.22	0.011559
3018.86	0.009919
3028.51	0.010449
3038.15	0.010489
3047.8	0.010489
3057.44	0.013229
3067.09	0.020579
3076.73	0.015599
3086.38	0.009069
3096.02	0.007979
3105.67	0.004719
3115.31	0.003269
3124.95	0.002999
3134.6	0.002369
3144.24	0.002439
3153.89	0.002979
3163.53	0.002089
3173.18	0.001669
3182.82	0.001414
3192.47	0.0011748
3202.11	0.0010995
3211.76	0.0013589
3221.4	0.0008351
3231.05	0.0009331
3240.69	0.0012342
3250.34	0.0011604
3259.98	0.0008975
3269.63	0.0010295
3279.27	0.001103
3288.92	0.0010216
3298.56	0.0011035
3308.21	0.001226
3317.85	0.0007407
3327.49	0.0014424
3337.14	0.0010273
3346.78	0.0013161
3356.43	0.0011358
3366.07	0.0013975
3375.72	0.0014843
3385.36	0.0011536
3395.01	0.001589
3404.65	0.001659
3414.3	0.001889
3423.94	0.003189
3433.59	0.003959
3443.23	0.005069
3452.88	0.009329
3462.52	0.017739
3472.17	0.039169
3481.81	0.047639
3491.46	0.023999
3501.1	0.019459
3510.75	0.008139
3520.39	0.003059
3530.04	0.002559
3539.68	0.001879
3549.32	0.001579
3558.97	0.0008176
3568.61	0.0008939
3578.26	0.0008595
3587.9	0.0009801
3597.55	0.0010709
3607.19	0.00057478
3616.84	0.00058107
3626.48	0.0008739
3636.13	0.0010369
3645.77	0.0006148
3655.42	0.0008071
3665.06	0.000205
3674.71	0.000397
3684.35	0.0011835
3694	0.001118
3703.64	0.0011485
3713.29	0.0007471
3722.93	0.0007336
3732.58	0.0014899
3742.22	0.0009183
3751.86	0.000439
3761.51	0.0010298
3771.15	0.001162
3780.8	0.000876
3790.44	0.000935
3800.09	0.0005711
3809.73	0.0013523
3819.38	0.0012047
3829.02	0.0010402
3838.67	0.0008899
3848.31	0.0012269
3857.96	0.0008844
3867.6	0.001509
3877.25	0.001499
3886.89	0.001001
3896.54	0.00048977
3906.18	0.001539
3915.83	0.0014883
3925.47	0.0012705
3935.12	0.001111
3944.76	0.0012893
3954.41	0.0011231
3964.05	0.001271
3973.69	0.0011002
3983.34	0.0007053
3992.98	0.001619
