Infrared Spectrum: 10,15-DIHYDRO-5H-DIINDENO-[1,2-a;1',2'-c]FLUORENE
Formula: C27 H18
CAS: 548-35-6
State: SOLID (KBr PELLET)
Melting point: 365-8 C
Class: COBLENTZ
Instrument: Not specified, most likely a prism, grating, or hybrid spectrometer.
Sampling: TRANSMISSION
Resolution: 4
Origin: UNION CARBIDE CORPORATION (CARBON PRODUCTS DIVISION)
MICROMETERS	TRANSMITTANCE
2.027	0.55
2.06018	0.553
2.09336	0.553
2.12654	0.559
2.15972	0.569
2.1929	0.575
2.22608	0.589
2.25926	0.593
2.29243	0.597
2.32561	0.598
2.35879	0.601
2.39197	0.601
2.42515	0.602
2.45833	0.603
2.49151	0.607
2.52469	0.611
2.55787	0.615
2.59105	0.615
2.62423	0.614
2.65741	0.615
2.69059	0.613
2.72377	0.617
2.75695	0.617
2.79012	0.615
2.8233	0.607
2.85648	0.602
2.88966	0.594
2.92284	0.589
2.95602	0.59
2.9892	0.598
3.02238	0.601
3.05556	0.611
3.08874	0.613
3.12192	0.615
3.1551	0.617
3.18828	0.619
3.22146	0.621
3.25464	0.602
3.28782	0.53
3.32099	0.49
3.35417	0.537
3.38735	0.581
3.42053	0.61
3.45371	0.607
3.48689	0.541
3.52007	0.605
3.55325	0.622
3.58643	0.626
3.61961	0.621
3.65279	0.63
3.68597	0.635
3.71915	0.638
3.75233	0.638
3.78551	0.638
3.81868	0.636
3.85186	0.638
3.88504	0.642
3.91822	0.644
3.9514	0.644
3.98458	0.647
4.01776	0.65
4.05094	0.654
4.08412	0.658
4.1173	0.662
4.15048	0.664
4.18366	0.671
4.21684	0.676
4.25002	0.672
4.2832	0.671
4.31637	0.671
4.34955	0.676
4.38273	0.687
4.41591	0.7
4.44909	0.7
4.48227	0.703
4.51545	0.708
4.54863	0.716
4.58181	0.72
4.61499	0.722
4.64817	0.73
4.68135	0.732
4.71453	0.74
4.74771	0.74
4.78089	0.744
4.81406	0.744
4.84724	0.75
4.88042	0.752
4.9136	0.76
4.94678	0.761
4.97996	0.761
5.01314	0.765
5.04632	0.767
5.0795	0.769
5.11268	0.771
5.14586	0.764
5.17904	0.751
5.21222	0.751
5.2454	0.755
5.27858	0.764
5.31176	0.755
5.34493	0.761
5.37811	0.772
5.41129	0.781
5.44447	0.787
5.47765	0.772
5.51083	0.775
5.54401	0.776
5.57719	0.785
5.61037	0.792
5.64355	0.793
5.67673	0.796
5.70991	0.803
5.74309	0.811
5.77627	0.811
5.80945	0.809
5.84262	0.807
5.8758	0.812
5.90898	0.808
5.94216	0.811
5.97534	0.813
6.00852	0.812
6.0417	0.805
6.07488	0.809
6.10806	0.803
6.14124	0.801
6.17442	0.793
6.2076	0.706
6.24078	0.772
6.27396	0.796
6.30714	0.789
6.34031	0.781
6.37349	0.805
6.40667	0.816
6.43985	0.841
6.47303	0.84
6.50621	0.843
6.53939	0.851
6.57257	0.849
6.60575	0.845
6.63893	0.847
6.67211	0.851
6.70529	0.848
6.73847	0.817
6.77165	0.453
6.80483	0.601
6.83801	0.643
6.87118	0.686
6.90436	0.803
6.93754	0.828
6.97072	0.839
7.0039	0.844
7.03708	0.853
7.07026	0.821
7.10344	0.682
7.13662	0.662
7.1698	0.215
7.20298	0.517
7.23616	0.703
7.26934	0.781
7.30252	0.811
7.3357	0.82
7.36887	0.831
7.40205	0.831
7.43523	0.829
7.46841	0.84
7.50159	0.844
7.53477	0.849
7.56795	0.759
7.60113	0.718
7.63431	0.809
7.66749	0.833
7.70067	0.845
7.73385	0.851
7.76703	0.852
7.80021	0.852
7.83339	0.852
7.86656	0.853
7.89974	0.859
7.93292	0.869
7.9661	0.871
7.99928	0.871
8.03246	0.871
8.06564	0.871
8.09882	0.865
8.132	0.86
8.16518	0.773
8.19836	0.65
8.23154	0.755
8.26472	0.831
8.2979	0.831
8.33108	0.832
8.36425	0.835
8.39743	0.847
8.43061	0.859
8.46379	0.863
8.49697	0.867
8.53015	0.867
8.56333	0.819
8.59651	0.679
8.62969	0.698
8.66287	0.777
8.69605	0.787
8.72923	0.839
8.76241	0.849
8.79559	0.852
8.82877	0.853
8.86195	0.868
8.89512	0.882
8.9283	0.885
8.96148	0.89
8.99466	0.89
9.02784	0.888
9.06102	0.88
9.0942	0.827
9.12738	0.815
9.16056	0.857
9.19374	0.878
9.22692	0.89
9.2601	0.89
9.29328	0.892
9.32646	0.892
9.35964	0.894
9.39281	0.898
9.42599	0.901
9.45917	0.9
9.49235	0.9
9.52553	0.901
9.55871	0.901
9.59189	0.901
9.62507	0.9
9.65825	0.9
9.69143	0.88
9.72461	0.631
9.75779	0.694
9.79097	0.823
9.82415	0.863
9.85733	0.871
9.8905	0.861
9.92368	0.848
9.95686	0.851
9.99004	0.876
10.0232	0.852
10.0564	0.832
10.0896	0.836
10.1228	0.852
10.1559	0.853
10.1891	0.852
10.2223	0.857
10.2555	0.867
10.2887	0.872
10.3218	0.872
10.355	0.871
10.3882	0.88
10.4214	0.888
10.4546	0.89
10.4877	0.89
10.5209	0.869
10.5541	0.815
10.5873	0.732
10.6205	0.664
10.6536	0.734
10.6868	0.832
10.72	0.868
10.7532	0.875
10.7863	0.882
10.8195	0.884
10.8527	0.882
10.8859	0.861
10.9191	0.823
10.9522	0.835
10.9854	0.857
11.0186	0.876
11.0518	0.882
11.085	0.885
11.1181	0.892
11.1513	0.889
11.1845	0.89
11.2177	0.89
11.2509	0.89
11.284	0.89
11.3172	0.89
11.3504	0.89
11.3836	0.89
11.4168	0.89
11.4499	0.894
11.4831	0.89
11.5163	0.892
11.5495	0.89
11.5827	0.872
11.6158	0.851
11.649	0.799
11.6822	0.772
11.7154	0.769
11.7485	0.801
11.7817	0.84
11.8149	0.86
11.8481	0.871
11.8813	0.881
11.9144	0.881
11.9476	0.886
11.9808	0.885
12.014	0.886
12.0472	0.886
12.0803	0.886
12.1135	0.888
12.1467	0.89
12.1799	0.892
12.2131	0.89
12.2462	0.89
12.2794	0.889
12.3126	0.89
12.3458	0.889
12.379	0.889
12.4121	0.89
12.4453	0.89
12.4785	0.89
12.5117	0.889
12.5449	0.889
12.578	0.886
12.6112	0.886
12.6444	0.882
12.6776	0.884
12.7107	0.882
12.7439	0.873
12.7771	0.857
12.8103	0.807
12.8435	0.68
12.8766	0.371
12.9098	0.285
12.943	0.621
12.9762	0.775
13.0094	0.813
13.0425	0.813
13.0757	0.812
13.1089	0.8
13.1421	0.812
13.1753	0.832
13.2084	0.839
13.2416	0.848
13.2748	0.848
13.308	0.84
13.3412	0.824
13.3743	0.78
13.4075	0.711
13.4407	0.594
13.4739	0.402
13.5071	0.2
13.5402	0.085
13.5734	0.03
13.6066	0.025
13.6398	0.023
13.673	0.05
13.7061	0.171
13.7393	0.305
13.7725	0.446
13.8057	0.559
13.8388	0.605
13.872	0.632
13.9052	0.643
13.9384	0.67
13.9716	0.702
14.0047	0.724
14.0379	0.751
14.0711	0.765
14.1043	0.779
14.1375	0.783
14.1706	0.783
14.2038	0.785
14.237	0.787
14.2702	0.788
14.3034	0.787
14.3365	0.788
14.3697	0.787
14.4029	0.783
14.4361	0.773
14.4693	0.76
14.5024	0.757
14.5356	0.763
14.5688	0.767
14.602	0.768
14.6352	0.771
14.6683	0.771
14.7015	0.765
14.7347	0.763
14.7679	0.763
14.801	0.76
14.8342	0.757
14.8674	0.755
14.9006	0.751
14.9338	0.747
14.9669	0.722
15.0001	0.67
15.0333	0.69
15.0665	0.735
15.0997	0.732
15.1328	0.727
15.166	0.722
15.1992	0.707
