Infrared Spectrum: Perinaphthenone
Formula: C 13 H 8 O
CAS: 548-39-0
State: gas
Instrument: HP-GC/MS/IRD
Origin: NIST Mass Spectrometry Data Center
1/CM	ABSORBANCE
550	0.00162
562	0.000423
574	0.0002295
586	0.000441
598	0.000684
610	0.0015525
622	0.000603
634	0.000216
646	0.000261
658	0.00027
670	0.0003285
682	0.0001575
694	0.0010935
706	0.0017955
718	0.0007785
730	0.00054
742	0.0004815
754	0.001098
766	0.006939
778	0.016029
790	0.004635
802	0.0014445
814	0.0035505
826	0.010107
838	0.007866
850	0.0016245
862	0.000243
874	0.000126
886	0.0002115
898	0.000405
910	0.000594
922	0.000342
934	0.000324
946	0.0008325
958	0.001089
970	0.000288
982	0.000108
994	0
1006	9.45e-05
1018	0.000306
1030	0.0007425
1042	0.0004455
1054	0.000405
1066	0.0008685
1078	0.000981
1090	0.001341
1102	0.002034
1114	0.003942
1126	0.0035685
1138	0.0011925
1150	0.0008415
1162	0.0006165
1174	0.002754
1186	0.003384
1198	0.0011565
1210	0.0009585
1222	0.0023985
1234	0.004815
1246	0.002034
1258	0.001926
1270	0.0055575
1282	0.0067545
1294	0.002169
1306	0.0005715
1318	0.000477
1330	0.0006075
1342	0.00315
1354	0.004941
1366	0.00171
1378	0.0018135
1390	0.0038745
1402	0.002655
1414	0.001116
1426	0.001008
1438	0.0012645
1450	0.00063
1462	0.0003735
1474	0.0004095
1486	0.0007515
1498	0.0016875
1510	0.001953
1522	0.000846
1534	0.000585
1546	0.0010125
1558	0.002052
1570	0.0058275
1582	0.0103635
1594	0.007722
1606	0.0025605
1618	0.001872
1630	0.002925
1642	0.0070335
1654	0.0279765
1666	0.044892
1678	0.0164925
1690	0.003483
1702	0.0017865
1714	0.00126
1726	0.000864
1738	0.0010845
1750	0.0011565
1762	0.000594
1774	0.0004005
1786	0.000486
1798	0.000774
1810	0.000891
1822	0.0004275
1834	0.0002835
1846	0.0003645
1858	0.000549
1870	0.0006435
1882	0.0003915
1894	0.00036
1906	0.0004815
1918	0.000639
1930	0.000639
1942	0.000585
1954	0.000603
1966	0.000279
1978	9.9e-05
1990	7.65e-05
2002	0.0001035
2014	9.9e-05
2026	6.75e-05
2038	6.3e-05
2050	4.95e-05
2062	5.4e-05
2074	6.3e-05
2086	5.85e-05
2098	1.8e-05
2110	4.5e-05
2122	4.05e-05
2134	6.75e-05
2146	9e-05
2158	6.3e-05
2170	5.4e-05
2182	5.85e-05
2194	6.75e-05
2206	7.65e-05
2218	6.75e-05
2230	6.75e-05
2242	0.0001125
2254	0.0001485
2266	0.000108
2278	9.45e-05
2290	0.000135
2302	0.00018
2314	0.0002565
2326	0.0003645
2338	0.0003645
2350	0.0002655
2362	0.000531
2374	0.0002925
2386	0.0001125
2398	7.2e-05
2410	6.3e-05
2422	4.05e-05
2434	4.95e-05
2446	6.75e-05
2458	8.1e-05
2470	8.1e-05
2482	3.15e-05
2494	7.2e-05
2506	0.000108
2518	9e-05
2530	0.0001125
2542	9.9e-05
2554	9.45e-05
2566	8.55e-05
2578	6.75e-05
2590	0.0001035
2602	7.2e-05
2614	0.000135
2626	0.000153
2638	0.0001035
2650	1.8e-05
2662	7.65e-05
2674	3.6e-05
2686	4.5e-05
2698	5.4e-05
2710	5.85e-05
2722	5.85e-05
2734	0.000108
2746	9e-05
2758	2.25e-05
2770	3.6e-05
2782	9e-05
2794	9.45e-05
2806	6.75e-05
2818	4.95e-05
2830	4.5e-05
2842	5.4e-05
2854	0.000207
2866	0.000153
2878	6.3e-05
2890	9.45e-05
2902	0.000117
2914	0.0001935
2926	0.000315
2938	0.000306
2950	0.00027
2962	0.0002925
2974	0.0002295
2986	0.0002745
2998	0.000513
3010	0.0010125
3022	0.002007
3034	0.003816
3046	0.005958
3058	0.007011
3070	0.0060885
3082	0.002952
3094	0.0020565
3106	0.000936
3118	0.000378
3130	0.00027
3142	0.000306
3154	0.000297
3166	0.000252
3178	0.000135
3190	0.000144
3202	0.0001575
3214	0.000216
3226	0.0002115
3238	0.000207
3250	0.0001575
3262	0.0001575
3274	0.0002025
3286	0.0003285
3298	0.0004725
3310	0.000675
3322	0.0006615
3334	0.0003105
3346	0.0001665
3358	5.85e-05
3370	9.9e-05
3382	7.2e-05
3394	2.7e-05
3406	2.25e-05
3418	3.6e-05
3430	6.75e-05
3442	6.3e-05
3454	8.1e-05
3466	6.3e-05
3478	0.000117
3490	4.95e-05
3502	0.0001575
3514	7.2e-05
3526	0.000108
3538	0.0001125
3550	0.000117
3562	0.0001575
3574	8.55e-05
3586	0.0002115
3598	0.000117
3610	0.000108
3622	8.1e-05
3634	8.55e-05
3646	0.000108
3658	5.4e-05
3670	3.15e-05
3682	9e-06
3694	6.75e-05
3706	2.25e-05
3718	9.9e-05
3730	0.000135
3742	0.0001395
3754	8.55e-05
3766	7.65e-05
3778	9.45e-05
3790	0.0001665
3802	0.000144
3814	7.65e-05
3826	0.000108
3838	8.55e-05
