Infrared Spectrum: 4-CHLORO-A-(DIMETHYLAMINO)-o-CRESOL
Formula: C9 H12 Cl N O
CAS: 54828-00-1
State: SOLUTION (10% CCl4 FOR 5000-1300, 10% CS2 FOR 1300-625 CM^-^1)
Class: COBLENTZ
Instrument: Not specified, most likely a prism, grating, or hybrid spectrometer.
Sampling: TRANSMISSION
Path length: 0.01 CM, 0.01 CM
Resolution: 4
Origin: DOW CHEMICAL COMPANY
MICROMETERS	TRANSMITTANCE
2.027	0.829
2.06766	0.835
2.10832	0.837
2.14898	0.839
2.18964	0.839
2.2303	0.837
2.27096	0.832
2.31162	0.835
2.35228	0.835
2.39294	0.84
2.4336	0.847
2.47425	0.851
2.51491	0.854
2.55557	0.851
2.59623	0.856
2.63689	0.859
2.67755	0.859
2.71821	0.857
2.75887	0.851
2.79953	0.825
2.84019	0.808
2.88085	0.78
2.92151	0.736
2.96217	0.698
3.00283	0.67
3.04349	0.649
3.08415	0.615
3.12481	0.573
3.16547	0.539
3.20613	0.512
3.24679	0.499
3.28745	0.472
3.32811	0.439
3.36876	0.304
3.40942	0.289
3.45008	0.306
3.49074	0.247
3.5314	0.206
3.57206	0.201
3.61272	0.252
3.65338	0.377
3.69404	0.414
3.7347	0.438
3.77536	0.497
3.81602	0.507
3.85668	0.539
3.89734	0.583
3.938	0.602
3.97866	0.619
4.01932	0.67
4.05998	0.697
4.10064	0.697
4.1413	0.73
4.18196	0.751
4.22262	0.751
4.26327	0.756
4.30393	0.766
4.34459	0.776
4.38525	0.78
4.42591	0.79
4.46657	0.802
4.50723	0.812
4.54789	0.817
4.58855	0.824
4.62921	0.825
4.66987	0.832
4.71053	0.839
4.75119	0.84
4.79185	0.842
4.83251	0.84
4.87317	0.84
4.91383	0.839
4.95449	0.839
4.99515	0.851
5.03581	0.859
5.07647	0.866
5.11713	0.866
5.15778	0.857
5.19844	0.862
5.2391	0.861
5.27976	0.854
5.32042	0.822
5.36108	0.805
5.40174	0.839
5.4424	0.849
5.48306	0.852
5.52372	0.854
5.56438	0.857
5.60504	0.857
5.6457	0.842
5.68636	0.807
5.72702	0.795
5.76768	0.817
5.80834	0.825
5.849	0.822
5.88966	0.822
5.93032	0.824
5.97098	0.817
6.01164	0.808
6.05229	0.798
6.09295	0.761
6.13361	0.719
6.17427	0.56
6.21493	0.49
6.25559	0.45
6.29625	0.329
6.33691	0.419
6.37757	0.472
6.41823	0.45
6.45889	0.434
6.49955	0.494
6.54021	0.538
6.58087	0.549
6.62153	0.495
6.66219	0.265
6.70285	0.057
6.74351	0.03
6.78417	0.055
6.82483	0.103
6.86549	0.321
6.90615	0.416
6.9468	0.489
6.98746	0.419
7.02812	0.431
7.06878	0.56
7.10944	0.504
7.1501	0.402
7.19076	0.299
7.23142	0.414
7.27208	0.516
7.31274	0.536
7.3534	0.467
7.39406	0.397
7.43472	0.695
7.47538	0.766
7.51604	0.774
7.5567	0.776
7.59736	0.766
7.63802	0.737
7.67868	0.609
7.71934	0.421
7.76	0.419
7.80066	0.36
7.84131	0.147
7.88197	0.06
7.92263	0.045
7.96329	0.047
8.00395	0.196
8.04461	0.262
8.08527	0.355
8.12593	0.527
8.16659	0.609
8.20725	0.651
8.24791	0.688
8.28857	0.71
8.32923	0.695
8.36989	0.56
8.41055	0.37
8.45121	0.285
8.49187	0.394
8.53253	0.593
8.57319	0.654
8.61385	0.692
8.65451	0.686
8.69517	0.725
8.73582	0.786
8.77648	0.796
8.81714	0.798
8.8578	0.79
8.89846	0.744
8.93912	0.629
8.97978	0.565
9.02044	0.561
9.0611	0.5
9.10176	0.48
9.14242	0.58
9.18308	0.558
9.22374	0.609
9.2644	0.781
9.30506	0.802
9.34572	0.812
9.38638	0.815
9.42704	0.8
9.4677	0.769
9.50836	0.7
9.54902	0.529
9.58968	0.409
9.63033	0.61
9.67099	0.639
9.71165	0.544
9.75231	0.38
9.79297	0.228
9.83363	0.404
9.87429	0.664
9.91495	0.749
9.95561	0.798
9.99627	0.822
10.0369	0.822
10.0776	0.818
10.1182	0.8
10.1589	0.749
10.1996	0.578
10.2402	0.385
10.2809	0.424
10.3215	0.708
10.3622	0.795
10.4029	0.822
10.4435	0.83
10.4842	0.835
10.5248	0.835
10.5655	0.829
10.6062	0.818
10.6468	0.798
10.6875	0.776
10.7281	0.793
10.7688	0.8
10.8095	0.802
10.8501	0.796
10.8908	0.786
10.9314	0.769
10.9721	0.751
11.0128	0.7
11.0534	0.612
11.0941	0.538
11.1347	0.595
11.1754	0.636
11.2161	0.614
11.2567	0.549
11.2974	0.461
11.338	0.297
11.3787	0.137
11.4194	0.219
11.46	0.394
11.5007	0.51
11.5413	0.539
11.582	0.546
11.6227	0.529
11.6633	0.517
11.704	0.5
11.7446	0.473
11.7853	0.434
11.8259	0.348
11.8666	0.243
11.9073	0.23
11.9479	0.329
11.9886	0.404
12.0292	0.451
12.0699	0.424
12.1106	0.355
12.1512	0.279
12.1919	0.162
12.2325	0.045
12.2732	0.045
12.3139	0.155
12.3545	0.282
12.3952	0.377
12.4358	0.439
12.4765	0.483
12.5172	0.517
12.5578	0.541
12.5985	0.561
12.6391	0.578
12.6798	0.588
12.7205	0.6
12.7611	0.609
12.8018	0.615
12.8424	0.609
12.8831	0.58
12.9238	0.504
12.9644	0.409
13.0051	0.328
13.0457	0.379
13.0864	0.495
13.1271	0.585
13.1677	0.624
13.2084	0.654
13.249	0.668
13.2897	0.68
13.3304	0.688
13.371	0.692
13.4117	0.697
13.4523	0.698
13.493	0.698
13.5337	0.697
13.5743	0.69
13.615	0.688
13.6556	0.69
13.6963	0.688
13.7369	0.683
13.7776	0.671
13.8183	0.641
13.8589	0.598
13.8996	0.58
13.9402	0.609
13.9809	0.644
14.0216	0.663
14.0622	0.67
14.1029	0.671
14.1435	0.671
14.1842	0.67
14.2249	0.663
14.2655	0.656
14.3062	0.653
14.3468	0.649
14.3875	0.649
14.4282	0.639
14.4688	0.632
14.5095	0.627
14.5501	0.612
14.5908	0.598
14.6315	0.58
14.6721	0.56
14.7128	0.538
14.7534	0.502
14.7941	0.47
14.8348	0.416
14.8754	0.341
14.9161	0.263
14.9567	0.177
14.9974	0.142
15.0381	0.181
15.0787	0.255
15.1194	0.333
15.16	0.38
15.2007	0.411
15.2414	0.424
15.282	0.431
15.3227	0.433
15.3633	0.433
15.404	0.429
15.4446	0.416
15.4853	0.389
15.526	0.345
15.5666	0.296
15.6073	0.253
15.6479	0.238
15.6886	0.245
15.7293	0.267
15.7699	0.296
15.8106	0.313
15.8512	0.321
15.8919	0.282
15.9326	0.324
15.9732	0.377
