Infrared Spectrum: 1-(ACETOXY METHYL)-2,2-DIPHENYL CYCLOPROPANE
Formula: C18 H18 O2
CAS: 54835-94-8
State: LIQUID (UNDILUTED)
Class: COBLENTZ
Instrument: Not specified, most likely a grating spectrometer.
Sampling: TRANSMISSION
Resolution: 4
Origin: ABBOTT LABORATORIES
MICROMETERS	TRANSMITTANCE
2.015	0.838
2.05522	0.837
2.09544	0.832
2.13566	0.835
2.17588	0.832
2.2161	0.83
2.25633	0.832
2.29655	0.832
2.33677	0.829
2.37699	0.829
2.41721	0.829
2.45743	0.814
2.49765	0.83
2.53787	0.835
2.57809	0.838
2.61831	0.838
2.65853	0.84
2.69876	0.84
2.73898	0.832
2.7792	0.829
2.81942	0.822
2.85964	0.809
2.89986	0.801
2.94008	0.806
2.9803	0.801
3.02052	0.803
3.06074	0.809
3.10097	0.811
3.14119	0.808
3.18141	0.801
3.22163	0.727
3.26185	0.65
3.30207	0.643
3.34229	0.716
3.38251	0.719
3.42273	0.753
3.46295	0.775
3.50317	0.804
3.5434	0.817
3.58362	0.825
3.62384	0.833
3.66406	0.837
3.70428	0.838
3.7445	0.838
3.78472	0.843
3.82494	0.84
3.86516	0.841
3.90538	0.845
3.9456	0.841
3.98583	0.843
4.02605	0.841
4.06627	0.843
4.10649	0.846
4.14671	0.85
4.18693	0.851
4.22715	0.853
4.26737	0.853
4.30759	0.85
4.34781	0.848
4.38803	0.848
4.42826	0.85
4.46848	0.841
4.5087	0.846
4.54892	0.848
4.58914	0.841
4.62936	0.841
4.66958	0.84
4.7098	0.84
4.75002	0.837
4.79024	0.835
4.83046	0.838
4.87069	0.837
4.91091	0.84
4.95113	0.837
4.99135	0.835
5.03157	0.822
5.07179	0.812
5.11201	0.801
5.15223	0.809
5.19245	0.822
5.23267	0.819
5.2729	0.811
5.31312	0.809
5.35334	0.811
5.39356	0.817
5.43378	0.819
5.474	0.811
5.51422	0.795
5.55444	0.782
5.59466	0.779
5.63488	0.743
5.6751	0.645
5.71533	0.287
5.75555	0.13
5.79577	0.285
5.83599	0.577
5.87621	0.698
5.91643	0.725
5.95665	0.75
5.99687	0.751
6.03709	0.756
6.07731	0.762
6.11753	0.774
6.15776	0.779
6.19798	0.741
6.2382	0.579
6.27842	0.717
6.31864	0.738
6.35886	0.777
6.39908	0.791
6.4393	0.796
6.47952	0.796
6.51974	0.791
6.55996	0.795
6.60019	0.79
6.64041	0.759
6.68063	0.412
6.72085	0.596
6.76107	0.745
6.80129	0.727
6.84151	0.648
6.88173	0.583
6.92195	0.451
6.96217	0.598
7.00239	0.672
7.04262	0.695
7.08284	0.708
7.12306	0.701
7.16328	0.701
7.2035	0.706
7.24372	0.662
7.28394	0.493
7.32416	0.319
7.36438	0.583
7.4046	0.7
7.44483	0.735
7.48505	0.746
7.52527	0.746
7.56549	0.743
7.60571	0.733
7.64593	0.72
7.68615	0.725
7.72637	0.709
7.76659	0.65
7.80681	0.59
7.84703	0.551
7.88726	0.522
7.92748	0.466
7.9677	0.335
8.00792	0.25
8.04814	0.177
8.08836	0.133
8.12858	0.119
8.1688	0.138
8.20902	0.283
8.24924	0.485
8.28946	0.582
8.32969	0.643
8.36991	0.675
8.41013	0.696
8.45035	0.693
8.49057	0.69
8.53079	0.7
8.57101	0.701
8.61123	0.714
8.65145	0.722
8.69167	0.716
8.73189	0.741
8.77212	0.716
8.81234	0.688
8.85256	0.741
8.89278	0.769
8.933	0.78
8.97322	0.78
9.01344	0.77
9.05366	0.766
9.09388	0.759
9.1341	0.746
9.17432	0.701
9.21455	0.695
9.25477	0.675
9.29499	0.604
9.33521	0.64
9.37543	0.677
9.41565	0.703
9.45587	0.696
9.49609	0.654
9.53631	0.601
9.57653	0.546
9.61676	0.469
9.65698	0.383
9.6972	0.332
9.73742	0.309
9.77764	0.312
9.81786	0.353
9.85808	0.482
9.8983	0.551
9.93852	0.622
9.97874	0.659
10.019	0.67
10.0592	0.696
10.0994	0.716
10.1396	0.719
10.1798	0.701
10.2201	0.688
10.2603	0.666
10.3005	0.633
10.3407	0.629
10.381	0.64
10.4212	0.658
10.4614	0.711
10.5016	0.761
10.5418	0.782
10.5821	0.796
10.6223	0.798
10.6625	0.79
10.7027	0.796
10.7429	0.787
10.7832	0.779
10.8234	0.762
10.8636	0.754
10.9038	0.753
10.944	0.761
10.9843	0.769
11.0245	0.775
11.0647	0.774
11.1049	0.775
11.1452	0.767
11.1854	0.754
11.2256	0.75
11.2658	0.758
11.306	0.767
11.3463	0.77
11.3865	0.793
11.4267	0.801
11.4669	0.812
11.5071	0.814
11.5474	0.812
11.5876	0.816
11.6278	0.809
11.668	0.809
11.7082	0.809
11.7485	0.806
11.7887	0.8
11.8289	0.793
11.8691	0.79
11.9093	0.795
11.9496	0.796
11.9898	0.79
12.03	0.783
12.0702	0.785
12.1105	0.791
12.1507	0.798
12.1909	0.801
12.2311	0.808
12.2713	0.809
12.3116	0.811
12.3518	0.811
12.392	0.811
12.4322	0.811
12.4724	0.812
12.5127	0.817
12.5529	0.822
12.5931	0.824
12.6333	0.819
12.6735	0.812
12.7138	0.812
12.754	0.808
12.7942	0.803
12.8344	0.785
12.8747	0.751
12.9149	0.683
12.9551	0.617
12.9953	0.587
13.0355	0.585
13.0758	0.588
13.116	0.572
13.1562	0.553
13.1964	0.538
13.2366	0.509
13.2769	0.454
13.3171	0.412
13.3573	0.419
13.3975	0.495
13.4377	0.575
13.478	0.641
13.5182	0.68
13.5584	0.714
13.5986	0.729
13.6388	0.74
13.6791	0.746
13.7193	0.753
13.7595	0.751
13.7997	0.743
13.84	0.74
13.8802	0.733
13.9204	0.716
13.9606	0.695
14.0008	0.653
14.0411	0.58
14.0813	0.454
14.1215	0.345
14.1617	0.251
14.2019	0.222
14.2422	0.22
14.2824	0.222
14.3226	0.222
14.3628	0.23
14.403	0.288
14.4433	0.388
14.4835	0.498
14.5237	0.553
14.5639	0.603
14.6042	0.617
14.6444	0.624
14.6846	0.632
14.7248	0.632
14.765	0.632
14.8053	0.62
14.8455	0.619
14.8857	0.611
14.9259	0.606
14.9661	0.6
15.0064	0.593
15.0466	0.591
15.0868	0.588
15.127	0.579
15.1672	0.575
15.2075	0.575
15.2477	0.575
15.2879	0.569
15.3281	0.561
15.3683	0.553
15.4086	0.546
15.4488	0.538
