Infrared Spectrum: NAPHTHALENE, 2,6-DIMETHOXY-
Formula: C12 H12 O2
CAS: 5486-55-5
State: SOLID (SPLIT MULL), FLUOROLUBE FOR 3800-1330 CM^-^1, NUJOL FOR 1330-450 CM^-^1
Class: COBLENTZ III
Instrument: DOW KBr FOREPRISM-GRATING
Instrument parameters: BLAZED AT 3.5, 12.0, 20.0 MICRON AND CHANGED AT 5.0, 7.5, 14.9 MICRON
Sampling: TRANSMISSION
Resolution: 2
Origin: DOW CHEMICAL COMPANY
1/CM	TRANSMITTANCE
464	0.7134
473	0.6056
482	0.6922
491	0.8083
500	0.7651
509	0.8309
518	0.8357
527	0.8321
536	0.8287
545	0.8249
554	0.8198
563	0.8135
572	0.8022
581	0.7708
590	0.5188
599	0.5046
608	0.816
617	0.8495
626	0.8728
635	0.8795
644	0.8782
653	0.8575
662	0.6883
671	0.847
680	0.8521
689	0.8658
698	0.8658
707	0.8565
716	0.8406
725	0.8336
734	0.8524
743	0.8638
752	0.872
761	0.8752
770	0.8756
779	0.8732
788	0.8664
797	0.8308
806	0.5005
815	0.6715
824	0.8471
833	0.8307
842	0.753
851	0.0675
860	0.2666
869	0.768
878	0.7878
887	0.7864
896	0.7855
905	0.78
914	0.7536
923	0.7001
932	0.4427
941	0.8227
950	0.7991
959	0.613
968	0.7662
977	0.7526
986	0.7525
995	0.7126
1004	0.6561
1013	0.4401
1022	0.1556
1031	0.5821
1040	0.7612
1049	0.7511
1058	0.738
1067	0.7201
1076	0.6931
1085	0.6605
1094	0.6082
1103	0.4247
1112	0.0548
1121	0.8501
1130	0.7955
1139	0.7239
1148	0.606
1157	0.2968
1166	0.6561
1175	0.6561
1184	0.6099
1193	0.5701
1202	0.4814
1211	0.3875
1220	0.2413
1229	0.0652
1238	0.0338
1247	0.2296
1256	0.527
1265	0.7111
1274	0.5033
1283	0.8575
1292	0.8425
1301	0.8209
1310	0.7971
1319	0.7675
1328	0.6617
1337	0.6808
1346	0.5927
1355	0.6127
1364	0.5453
1373	0.4071
1382	0.3672
1391	0.1735
1400	0.4662
1409	0.7883
1418	0.7267
1427	0.7601
1436	0.6698
1445	0.4941
1454	0.2319
1463	0.4004
1472	0.7745
1481	0.7426
1490	0.7034
1499	0.5152
1508	0.1889
1517	0.7889
1526	0.7726
1535	0.7374
1544	0.7418
1553	0.7198
1562	0.7021
1571	0.6728
1580	0.6199
1589	0.5189
1598	0.276
1607	0.0922
1616	0.453
1625	0.6828
1634	0.874
1643	0.876
1652	0.8574
1661	0.8394
1670	0.8386
1679	0.8298
1688	0.8176
1697	0.8078
1706	0.7855
1715	0.7555
1724	0.7915
1733	0.7869
1742	0.7803
1751	0.7691
1760	0.7571
1769	0.7654
1778	0.7657
1787	0.7661
1796	0.7611
1805	0.7628
1814	0.7565
1823	0.7587
1832	0.7576
1841	0.7488
1850	0.7474
1859	0.7461
1868	0.7339
1877	0.7418
1886	0.7418
1895	0.7384
1904	0.7258
1913	0.6882
1922	0.7348
1931	0.7358
1940	0.7287
1949	0.7297
1958	0.7315
1967	0.7125
1976	0.706
1985	0.6996
1994	0.7055
2003	0.6868
2012	0.6822
2021	0.6771
2030	0.6708
2039	0.6601
2048	0.6437
2057	0.6569
2066	0.6601
2075	0.6534
2084	0.6534
2093	0.6539
2102	0.6488
2111	0.6443
2120	0.6408
2129	0.6374
2138	0.6355
2147	0.6345
2156	0.6348
2165	0.6309
2174	0.6238
2183	0.6188
2192	0.6145
2201	0.611
2210	0.6089
2219	0.6054
2228	0.6009
2237	0.5968
2246	0.5926
2255	0.5883
2264	0.5845
2273	0.5812
2282	0.5786
2291	0.5762
2300	0.5745
2309	0.5758
2318	0.5775
2327	0.5772
2336	0.5765
2345	0.5755
2354	0.5727
2363	0.5698
2372	0.5666
2381	0.5624
2390	0.5595
2399	0.5583
2408	0.5571
2417	0.5591
2426	0.5637
2435	0.5673
2444	0.568
2453	0.5664
2462	0.565
2471	0.5636
2480	0.5623
2489	0.5608
2498	0.5594
2507	0.558
2516	0.5565
2525	0.5541
2534	0.5518
2543	0.5495
2552	0.5472
2561	0.5447
2570	0.5419
2579	0.539
2588	0.5362
2597	0.5336
2606	0.5316
2615	0.534
2624	0.5351
2633	0.5332
2642	0.5316
2651	0.5302
2660	0.5283
2669	0.526
2678	0.5237
2687	0.5219
2696	0.5201
2705	0.5178
2714	0.5151
2723	0.5125
2732	0.5095
2741	0.5064
2750	0.5031
2759	0.4988
2768	0.4946
2777	0.4898
2786	0.4847
2795	0.4784
2804	0.4715
2813	0.4605
2822	0.4456
2831	0.4292
2840	0.4122
2849	0.4537
2858	0.4672
2867	0.4623
2876	0.4528
2885	0.4352
2894	0.4138
2903	0.4034
2912	0.4088
2921	0.4171
2930	0.3856
2939	0.3666
2948	0.4166
2957	0.3532
2966	0.2938
2975	0.458
2984	0.4605
2993	0.4522
3002	0.4396
3011	0.4366
3020	0.4596
3029	0.4587
3038	0.4564
3047	0.4516
3056	0.4362
3065	0.4238
3074	0.4574
3083	0.4546
3092	0.453
3101	0.451
3110	0.4495
3119	0.4478
3128	0.4458
3137	0.4436
3146	0.4416
3155	0.4392
3164	0.4366
3173	0.4341
3182	0.4318
3191	0.4295
3200	0.4272
3209	0.4247
3218	0.4223
3227	0.4199
3236	0.4175
3245	0.4155
3254	0.4143
3263	0.4131
3272	0.4119
3281	0.4106
3290	0.4095
3299	0.4082
3308	0.4072
3317	0.406
3326	0.405
3335	0.404
3344	0.4029
3353	0.4018
3362	0.4006
3371	0.3993
3380	0.398
3389	0.3966
3398	0.3954
3407	0.3939
3416	0.3925
3425	0.391
3434	0.3897
3443	0.3882
3452	0.3871
3461	0.3864
3470	0.3857
3479	0.3849
3488	0.3842
3497	0.3834
3506	0.3828
3515	0.3814
3524	0.3798
3533	0.3782
3542	0.377
3551	0.3757
3560	0.3738
3569	0.37
3578	0.3636
3587	0.3628
3596	0.3634
3605	0.3644
3614	0.364
3623	0.3632
3632	0.3627
3641	0.3621
3650	0.3614
3659	0.3605
3668	0.3588
3677	0.357
3686	0.3552
3695	0.3534
3704	0.3518
3713	0.35
3722	0.3484
3731	0.3468
3740	0.3454
3749	0.3438
3758	0.3421
3767	0.3406
3776	0.3396
3785	0.3384
3794	0.3375
