Infrared Spectrum: UREA,1-PHENYL-3-(2-IODOETHYL)-
Formula: C9 H11 I N2 O
CAS: 5488-50-6
State: SOLID (1 mg / 500 mg KBr DISC)
Class: COBLENTZ III
Instrument: PERKIN-ELMER 21 (GRATING)
Instrument parameters: FILTER CHANGE ABOUT 1100 CM ^-^1
Sampling: TRANSMISSION
Resolution: 4
Origin: SOUTHERN RES. INSTITUTE
1/CM	TRANSMITTANCE
603.043	0.656
612.174	0.659
621.304	0.66
630.435	0.655
639.565	0.629
648.696	0.62
657.826	0.626
666.957	0.65
676.087	0.684
685.218	0.725
694.348	0.707
703.479	0.6341
712.609	0.61
721.74	0.7848
730.87	0.856
740.001	0.745
749.131	0.743
758.262	0.805
767.392	0.7911
776.523	0.765
785.653	0.848
794.784	0.918
803.914	0.933
813.045	0.936
822.175	0.937
831.306	0.937
840.436	0.933
849.567	0.936
858.697	0.931
867.828	0.94
876.958	0.943
886.089	0.942
895.219	0.94
904.35	0.9131
913.48	0.911
922.611	0.934
931.742	0.933
940.872	0.917
950.003	0.924
959.133	0.928
968.264	0.924
977.394	0.919
986.525	0.916
995.655	0.912
1004.79	0.898
1013.92	0.867
1023.05	0.864
1032.18	0.834
1041.31	0.83
1050.44	0.87
1059.57	0.87
1068.7	0.858
1077.83	0.829
1086.96	0.847
1096.09	0.858
1105.22	0.85
1114.35	0.814
1123.48	0.785
1132.61	0.832
1141.74	0.843
1150.87	0.838
1160	0.779
1169.13	0.621
1178.27	0.6487
1187.4	0.746
1196.53	0.823
1205.66	0.818
1214.79	0.806
1223.92	0.7701
1233.05	0.694
1242.18	0.5829
1251.31	0.499
1260.44	0.57
1269.57	0.6779
1278.7	0.756
1287.83	0.779
1296.96	0.728
1306.09	0.664
1315.22	0.605
1324.35	0.715
1333.48	0.8271
1342.61	0.859
1351.75	0.859
1360.88	0.853
1370.01	0.869
1379.14	0.88
1388.27	0.875
1397.4	0.868
1406.53	0.862
1415.66	0.857
1424.79	0.81
1433.92	0.771
1443.05	0.7189
1452.18	0.4691
1461.31	0.795
1470.44	0.854
1479.57	0.826
1488.7	0.779
1497.83	0.6861
1506.96	0.59
1516.09	0.725
1525.22	0.667
1534.36	0.661
1543.49	0.5971
1552.62	0.46
1561.75	0.3529
1570.88	0.148
1580.01	0.2521
1589.14	0.375
1598.27	0.304
1607.4	0.4542
1616.53	0.491
1625.66	0.1568
1634.79	0.116
1643.92	0.3831
1653.05	0.5781
1662.18	0.687
1671.31	0.757
1680.44	0.788
1689.57	0.816
1698.7	0.8491
1707.84	0.895
1716.97	0.914
1726.1	0.924
1735.23	0.925
1744.36	0.936
1753.49	0.938
1762.62	0.939
1771.75	0.942
1780.88	0.943
1790.01	0.941
1799.14	0.943
1808.27	0.946
1817.4	0.949
1826.53	0.95
1835.66	0.949
1844.79	0.948
1853.92	0.943
1863.05	0.948
1872.18	0.951
1881.31	0.953
1890.45	0.955
1899.58	0.952
1908.71	0.947
1917.84	0.942
1926.97	0.94
1936.1	0.942
1945.23	0.945
1954.36	0.947
1963.49	0.949
1972.62	0.948
1981.75	0.946
1990.88	0.946
2000.01	0.946
2009.14	0.945
2018.27	0.943
2027.4	0.943
2036.53	0.943
2045.66	0.9414
2054.79	0.94
2063.93	0.94
2073.06	0.9387
2082.19	0.937
2091.32	0.936
2100.45	0.936
2109.58	0.934
2118.71	0.933
2127.84	0.933
2136.97	0.933
2146.1	0.933
2155.23	0.933
2164.36	0.931
2173.49	0.931
2182.62	0.93
2191.75	0.93
2200.88	0.929
2210.01	0.9279
2219.14	0.926
2228.27	0.925
2237.41	0.924
2246.54	0.924
2255.67	0.9233
2264.8	0.923
2273.93	0.922
2283.06	0.921
2292.19	0.9186
2301.32	0.916
2310.45	0.914
2319.58	0.912
2328.71	0.911
2337.84	0.911
2346.97	0.912
2356.1	0.913
2365.23	0.913
2374.36	0.914
2383.49	0.914
2392.62	0.914
2401.75	0.9136
2410.88	0.912
2420.02	0.911
2429.15	0.912
2438.28	0.913
2447.41	0.914
2456.54	0.9131
2465.67	0.9112
2474.8	0.91
2483.93	0.908
2493.06	0.9044
2502.19	0.902
2511.32	0.899
2520.45	0.898
2529.58	0.896
2538.71	0.895
2547.84	0.894
2556.97	0.894
2566.1	0.894
2575.23	0.893
2584.36	0.892
2593.5	0.892
2602.63	0.891
2611.76	0.89
2620.89	0.889
2630.02	0.889
2639.15	0.888
2648.28	0.887
2657.41	0.886
2666.54	0.886
2675.67	0.884
2684.8	0.883
2693.93	0.881
2703.06	0.88
2712.19	0.878
2721.32	0.8765
2730.45	0.873
2739.58	0.87
2748.71	0.8667
2757.84	0.8628
2766.97	0.8599
2776.11	0.858
2785.24	0.8541
2794.37	0.852
2803.5	0.851
2812.63	0.8497
2821.76	0.8494
2830.89	0.848
2840.02	0.848
2849.15	0.8466
2858.28	0.845
2867.41	0.8428
2876.54	0.839
2885.67	0.834
2894.8	0.8261
2903.93	0.8153
2913.06	0.81
2922.19	0.808
2931.32	0.809
2940.45	0.811
2949.59	0.8144
2958.72	0.814
2967.85	0.8012
2976.98	0.7948
2986.11	0.7899
2995.24	0.785
3004.37	0.78
3013.5	0.778
3022.63	0.775
3031.76	0.776
3040.89	0.779
3050.02	0.784
3059.15	0.7735
3068.28	0.7619
3077.41	0.753
3086.54	0.7606
3095.67	0.7707
3104.8	0.785
3113.93	0.785
3123.06	0.7724
3132.2	0.7622
3141.33	0.7536
3150.46	0.7434
3159.59	0.7354
3168.72	0.7266
3177.85	0.7148
3186.98	0.6961
3196.11	0.6708
3205.24	0.6513
3214.37	0.6115
3223.5	0.5641
3232.63	0.5335
3241.76	0.4955
3250.89	0.4404
3260.02	0.3882
3269.15	0.3517
3278.28	0.3345
3287.41	0.3364
3296.54	0.3549
3305.68	0.3917
3314.81	0.4314
3323.94	0.4947
3333.07	0.5609
3342.2	0.6153
3351.33	0.6513
3360.46	0.6862
3369.59	0.7186
3378.72	0.7537
3387.85	0.776
3396.98	0.7888
3406.11	0.795
3415.24	0.7995
3424.37	0.805
3433.5	0.807
3442.63	0.807
3451.76	0.809
3460.89	0.813
3470.02	0.819
3479.15	0.8227
3488.29	0.826
3497.42	0.827
3506.55	0.829
3515.68	0.83
3524.81	0.8323
3533.94	0.835
3543.07	0.8371
3552.2	0.839
3561.33	0.8419
3570.46	0.8429
3579.59	0.8468
3588.72	0.851
3597.85	0.854
3606.98	0.855
3616.11	0.856
3625.24	0.858
3634.37	0.858
3643.5	0.858
3652.63	0.858
3661.77	0.858
3670.9	0.858
3680.03	0.858
3689.16	0.858
3698.29	0.859
3707.42	0.859
3716.55	0.859
3725.68	0.859
3734.81	0.861
3743.94	0.862
3753.07	0.861
3762.2	0.858
3771.33	0.856
3780.46	0.854
3789.59	0.852
3798.72	0.854
3807.85	0.855
3816.98	0.857
3826.11	0.856
3835.24	0.854
3844.38	0.8526
3853.51	0.8517
3862.64	0.851
3871.77	0.85
3880.9	0.849
3890.03	0.848
3899.16	0.847
3908.29	0.846
3917.42	0.8477
3926.55	0.848
3935.68	0.849
3944.81	0.848
3953.94	0.8446
3963.07	0.8407
3972.2	0.8378
3981.33	0.838
3990.46	0.839
3999.59	0.841
4008.72	0.842
