Infrared Spectrum: t-Butyldimethylsilylimidazole
Formula: C 9 H 18 N 2 Si
CAS: 54925-64-3
State: gas
Origin: EPA-IR VAPOR PHASE LIBRARY
1/CM	ABSORBANCE
549.8	0.00102696
559.445	0.00147696
569.09	0.00397696
578.734	0.00900696
588.379	0.00908696
598.024	0.00434696
607.669	0.00190696
617.313	0.00248696
626.958	0.00297696
636.603	0.00329696
646.248	0.00719696
655.893	0.016507
665.537	0.020347
675.182	0.025847
684.827	0.022167
694.472	0.012077
704.116	0.00855696
713.761	0.010027
723.406	0.019497
733.051	0.025007
742.695	0.015417
752.34	0.011137
761.985	0.013267
771.63	0.024447
781.275	0.047467
790.919	0.054497
800.564	0.051177
810.209	0.074677
819.854	0.091237
829.498	0.078307
839.143	0.072847
848.788	0.054747
858.433	0.031007
868.078	0.018037
877.722	0.012677
887.367	0.010347
897.012	0.012637
906.657	0.011937
916.301	0.00566696
925.946	0.00690696
935.591	0.00769696
945.236	0.00470696
954.88	0.00283696
964.525	0.00240696
974.17	0.00228696
983.815	0.00273696
993.46	0.00650696
1003.1	0.013207
1012.75	0.00952696
1022.39	0.00403696
1032.04	0.00283696
1041.68	0.00351696
1051.33	0.00773696
1060.97	0.034167
1070.62	0.093927
1080.26	0.060037
1089.91	0.00750696
1099.55	0.00627696
1109.2	0.00747696
1118.84	0.00415696
1128.49	0.00382696
1138.13	0.00701696
1147.78	0.029567
1157.42	0.098987
1167.07	0.111527
1176.71	0.031577
1186.36	0.00984696
1196	0.011127
1205.64	0.016977
1215.29	0.013607
1224.93	0.00688696
1234.58	0.00553696
1244.22	0.012017
1253.87	0.029827
1263.51	0.054117
1273.16	0.043787
1282.8	0.015017
1292.45	0.00439696
1302.09	0.00236696
1311.74	0.00208696
1321.38	0.00211696
1331.03	0.00231696
1340.67	0.00258696
1350.32	0.00327696
1359.96	0.00610696
1369.61	0.00949696
1379.25	0.00686696
1388.9	0.00719696
1398.54	0.00919696
1408.18	0.00747696
1417.83	0.00652696
1427.47	0.00797696
1437.12	0.013717
1446.76	0.017197
1456.41	0.021127
1466.05	0.041547
1475.7	0.061477
1485.34	0.036247
1494.99	0.013267
1504.63	0.014417
1514.28	0.00842696
1523.92	0.00383696
1533.57	0.00334696
1543.21	0.00327696
1552.86	0.00326696
1562.5	0.00229696
1572.15	0.00340696
1581.79	0.00571696
1591.44	0.00461696
1601.08	0.00238696
1610.73	0.00249696
1620.37	0.00370696
1630.01	0.00446696
1639.66	0.00337696
1649.3	0.00197696
1658.95	0.00230696
1668.59	0.00308696
1678.24	0.00266696
1687.88	0.00139696
1697.53	0.00185696
1707.17	0.00279696
1716.82	0.00161696
1726.46	0.00075446
1736.11	0.00056126
1745.75	0.00055976
1755.4	0.00068766
1765.04	0.00058856
1774.69	0.00056466
1784.33	0.00059466
1793.98	0.00061566
1803.62	0.00048386
1813.27	0.00040146
1822.91	0.00045046
1832.55	0.00051436
1842.2	0.00052886
1851.84	0.00060596
1861.49	0.00028336
1871.13	0.00040306
1880.78	0.00057396
1890.42	0.00045396
1900.07	0.00050876
1909.71	0.00037096
1919.36	0.00062726
1929	0.00086896
1938.65	0.00106696
1948.29	0.00087766
1957.94	0.00091476
1967.58	0.00072336
1977.23	0.00062656
1986.87	0.00053566
1996.52	0.00046156
2006.16	0.00054556
2015.81	0.00058196
2025.45	0.00058306
2035.1	0.00058716
2044.74	0.00072676
2054.38	0.00074116
2064.03	0.00068406
2073.67	0.00084166
2083.32	0.00056676
2092.96	0.00069506
2102.61	0.00070326
2112.25	0.00066266
2121.9	0.00066256
2131.54	0.00049716
2141.19	0.00066146
2150.83	0.00085726
2160.48	0.00099936
2170.12	0.00089106
2179.77	0.00064456
2189.41	0.00069746
2199.06	0.00038716
2208.7	0.00050956
2218.35	0.00054906
2227.99	0.00042326
2237.64	0.00028356
2247.28	0.00054786
2256.92	0.00043816
2266.57	0.00061836
2276.21	0.00065536
2285.86	0.00055026
2295.5	0.00056916
2305.15	0.00053606
2314.79	0.00061636
2324.44	0.00061766
2334.08	0.00055326
2343.73	0.00060706
2353.37	0.00050856
2363.02	0.00044806
2372.66	0.00091346
2382.31	0.00099486
2391.95	0.00146696
2401.6	0.00179696
2411.24	0.00196696
2420.89	0.00142696
2430.53	0.00093926
2440.18	0.00082256
2449.82	0.00065466
2459.47	0.00071626
2469.11	0.00074256
2478.75	0.00071326
2488.4	0.00037286
2498.04	0.00061456
2507.69	0.00069126
2517.33	0.00065936
2526.98	0.00080136
2536.62	0.00093316
2546.27	0.00086346
2555.91	0.00073976
2565.56	0.00067076
2575.2	0.00067616
2584.85	0.00080586
2594.49	0.00081266
2604.14	0.00085796
2613.78	0.00108696
2623.43	0.00081066
2633.07	0.00075946
2642.72	0.00111696
2652.36	0.00094236
2662.01	0.00105696
2671.65	0.00092406
2681.29	0.00097596
2690.94	0.00116696
2700.58	0.00106696
2710.23	0.00142696
2719.87	0.00170696
2729.52	0.00204696
2739.16	0.00162696
2748.81	0.00184696
2758.45	0.00201696
2768.1	0.00216696
2777.74	0.00202696
2787.39	0.00265696
2797.03	0.00269696
2806.68	0.00341696
2816.32	0.00353696
2825.97	0.00403696
2835.61	0.00481696
2845.26	0.00700696
2854.9	0.014457
2864.55	0.032097
2874.19	0.039327
2883.84	0.031097
2893.48	0.030197
2903.12	0.030487
2912.77	0.028377
2922.41	0.029477
2932.06	0.046167
2941.7	0.063097
2951.35	0.058897
2960.99	0.059497
2970.64	0.049987
2980.28	0.025577
2989.93	0.011547
2999.57	0.00643696
3009.22	0.00403696
3018.86	0.00302696
3028.51	0.00242696
3038.15	0.00204696
3047.8	0.00264696
3057.44	0.00229696
3067.09	0.00258696
3076.73	0.00249696
3086.38	0.00279696
3096.02	0.00304696
3105.67	0.00438696
3115.31	0.00652696
3124.95	0.00547696
3134.6	0.00431696
3144.24	0.00479696
3153.89	0.00355696
3163.53	0.00225696
3173.18	0.00195696
3182.82	0.00177696
3192.47	0.00154696
3202.11	0.00132696
3211.76	0.00114696
3221.4	0.00066976
3231.05	0.00078216
3240.69	0.00080746
3250.34	0.00071386
3259.98	0.00073996
3269.63	0.00075196
3279.27	0.00076646
3288.92	0.00027166
3298.56	0.00066956
3308.21	0.00068376
3317.85	0.00035126
3327.49	0.00043236
3337.14	0.00096146
3346.78	0.00054866
3356.43	0.00022866
3366.07	0.00054496
3375.72	0.00052306
3385.36	0.00042596
3395.01	0.00047786
3404.65	0.00054076
3414.3	0.00041976
3423.94	0.00037186
3433.59	0.00026586
3443.23	0.00020406
3452.88	0.00025576
3462.52	0.00032426
3472.17	0.00030396
3481.81	0.00031846
3491.46	0.00014076
3501.1	0.00028986
3510.75	0.00012026
3520.39	0.00050536
3530.04	0.00010273
3539.68	0.00019706
3549.32	0.00023726
3558.97	0.00064046
3568.61	0.00015326
3578.26	0.00050086
3587.9	0.00053396
3597.55	0.00067146
3607.19	0.00052326
3616.84	0.00054826
3626.48	0.00065746
3636.13	0.00047586
3645.77	0.00044506
3655.42	0.00028176
3665.06	0.00083466
3674.71	0.00080046
3684.35	0.00064526
3694	0.00061176
3703.64	0.00078056
3713.29	0.00043106
3722.93	0.00048036
3732.58	0.00064346
3742.22	0.00055256
3751.86	0.00058766
3761.51	0.00033076
3771.15	0.00048246
3780.8	0.00071026
3790.44	0.00048786
3800.09	0.00077576
3809.73	0.00060846
3819.38	0.00073306
3829.02	0.00018416
3838.67	0.00035346
3848.31	0.00100696
3857.96	0.00050036
3867.6	0.00041426
3877.25	0.00027906
3886.89	0.00070616
3896.54	0.00035606
3906.18	0.00051326
3915.83	0.00065736
3925.47	0.00030356
3935.12	0.00037096
3944.76	0.00053986
3954.41	0.00044826
3964.05	0.00072616
3973.69	0.00054036
3983.34	9.784e-05
3992.98	0.00038326
