Infrared Spectrum: ETHYLENE GLYCOL BIS(Alpha,Alpha-DICHLOROPROPIONATE)
Formula: C8 H10 Cl4 O4
CAS: 54934-49-5
State: SOLUTION (10% CCl4 FOR 5000-1330, 10% CS2 FOR 1330-625 CM^-^1)
Class: COBLENTZ
Instrument: Not specified, most likely a prism, grating, or hybrid spectrometer.
Sampling: TRANSMISSION
Path length: 0.0120 CM, 0.0120 CM
Resolution: 4
Origin: DOW CHEMICAL COMPANY
MICROMETERS	TRANSMITTANCE
2.041	0.895
2.08212	0.897
2.12323	0.897
2.16435	0.897
2.20547	0.889
2.24658	0.88
2.2877	0.87
2.32881	0.885
2.36993	0.885
2.41105	0.883
2.45216	0.878
2.49328	0.887
2.5344	0.895
2.57551	0.899
2.61663	0.901
2.65775	0.899
2.69886	0.895
2.73998	0.895
2.78109	0.894
2.82221	0.882
2.86333	0.868
2.90444	0.86
2.94556	0.88
2.98668	0.88
3.02779	0.87
3.06891	0.878
3.11003	0.88
3.15114	0.887
3.19226	0.885
3.23337	0.89
3.27449	0.885
3.31561	0.87
3.35672	0.783
3.39784	0.73
3.43896	0.854
3.48007	0.856
3.52119	0.88
3.56231	0.887
3.60342	0.887
3.64454	0.89
3.68565	0.887
3.72677	0.892
3.76789	0.892
3.809	0.889
3.85012	0.894
3.89124	0.892
3.93235	0.89
3.97347	0.887
4.01459	0.885
4.0557	0.883
4.09682	0.889
4.13793	0.889
4.17905	0.883
4.22017	0.889
4.26128	0.887
4.3024	0.889
4.34352	0.878
4.38463	0.87
4.42575	0.882
4.46687	0.889
4.50798	0.892
4.5491	0.892
4.59021	0.892
4.63133	0.887
4.67245	0.887
4.71356	0.88
4.75468	0.877
4.7958	0.88
4.83691	0.883
4.87803	0.885
4.91915	0.885
4.96026	0.887
5.00138	0.885
5.04249	0.878
5.08361	0.878
5.12473	0.878
5.16584	0.885
5.20696	0.885
5.24808	0.885
5.28919	0.885
5.33031	0.88
5.37143	0.877
5.41254	0.858
5.45366	0.849
5.49477	0.827
5.53589	0.798
5.57701	0.744
5.61812	0.518
5.65924	0.165
5.70036	0.042
5.74147	0.059
5.78259	0.305
5.82371	0.687
5.86482	0.728
5.90594	0.783
5.94705	0.844
5.98817	0.854
6.02929	0.861
6.0704	0.865
6.11152	0.86
6.15264	0.86
6.19375	0.849
6.23487	0.8
6.27599	0.723
6.3171	0.645
6.35822	0.61
6.39933	0.58
6.44045	0.511
6.48157	0.469
6.52268	0.523
6.5638	0.6
6.60492	0.634
6.64603	0.691
6.68715	0.754
6.72827	0.788
6.76938	0.8
6.8105	0.774
6.85161	0.699
6.89273	0.486
6.93385	0.331
6.97496	0.488
7.01608	0.738
7.0572	0.75
7.09831	0.757
7.13943	0.75
7.18055	0.747
7.22166	0.692
7.26278	0.43
7.30389	0.636
7.34501	0.75
7.38613	0.807
7.42724	0.788
7.46836	0.732
7.50948	0.728
7.55059	0.749
7.59171	0.694
7.63283	0.617
7.67394	0.517
7.71506	0.351
7.75617	0.186
7.79729	0.105
7.83841	0.087
7.87952	0.083
7.92064	0.085
7.96176	0.068
8.00287	0.051
8.04399	0.049
8.08511	0.047
8.12622	0.071
8.16734	0.211
8.20845	0.36
8.24957	0.52
8.29069	0.602
8.3318	0.653
8.37292	0.687
8.41404	0.701
8.45515	0.696
8.49627	0.656
8.53739	0.609
8.5785	0.568
8.61962	0.534
8.66073	0.522
8.70185	0.527
8.74297	0.479
8.78408	0.334
8.8252	0.175
8.86632	0.109
8.90743	0.078
8.94855	0.064
8.98967	0.059
9.03078	0.056
9.0719	0.069
9.11301	0.119
9.15413	0.148
9.19525	0.122
9.23636	0.08
9.27748	0.116
9.3186	0.146
9.35971	0.141
9.40083	0.23
9.44195	0.377
9.48306	0.476
9.52418	0.51
9.56529	0.518
9.60641	0.508
9.64753	0.498
9.68864	0.522
9.72976	0.559
9.77088	0.588
9.81199	0.622
9.85311	0.663
9.89423	0.723
9.93534	0.771
9.97646	0.798
10.0176	0.807
10.0587	0.81
10.0998	0.803
10.1409	0.784
10.182	0.778
10.2232	0.784
10.2643	0.81
10.3054	0.819
10.3465	0.82
10.3876	0.813
10.4287	0.805
10.4699	0.796
10.511	0.798
10.5521	0.8
10.5932	0.795
10.6343	0.769
10.6754	0.728
10.7166	0.679
10.7577	0.651
10.7988	0.65
10.8399	0.662
10.881	0.699
10.9221	0.72
10.9633	0.732
11.0044	0.735
11.0455	0.732
11.0866	0.726
11.1277	0.728
11.1688	0.732
11.2099	0.732
11.2511	0.726
11.2922	0.718
11.3333	0.689
11.3744	0.651
11.4155	0.633
11.4566	0.624
11.4978	0.622
11.5389	0.622
11.58	0.617
11.6211	0.614
11.6622	0.609
11.7033	0.604
11.7445	0.607
11.7856	0.617
11.8267	0.634
11.8678	0.66
11.9089	0.68
11.95	0.708
11.9912	0.721
12.0323	0.737
12.0734	0.744
12.1145	0.747
12.1556	0.749
12.1967	0.749
12.2379	0.745
12.279	0.732
12.3201	0.723
12.3612	0.721
12.4023	0.721
12.4434	0.718
12.4846	0.701
12.5257	0.662
12.5668	0.585
12.6079	0.51
12.649	0.474
12.6901	0.489
12.7313	0.508
12.7724	0.513
12.8135	0.537
12.8546	0.561
12.8957	0.59
12.9368	0.627
12.978	0.648
13.0191	0.668
13.0602	0.687
13.1013	0.697
13.1424	0.703
13.1835	0.704
13.2247	0.703
13.2658	0.703
13.3069	0.701
13.348	0.694
13.3891	0.675
13.4302	0.65
13.4713	0.626
13.5125	0.588
13.5536	0.551
13.5947	0.513
13.6358	0.467
13.6769	0.438
13.718	0.411
13.7592	0.395
13.8003	0.39
13.8414	0.407
13.8825	0.438
13.9236	0.469
13.9647	0.498
14.0059	0.511
14.047	0.527
14.0881	0.53
14.1292	0.537
14.1703	0.535
14.2114	0.527
14.2526	0.511
14.2937	0.506
14.3348	0.491
14.3759	0.479
14.417	0.469
14.4581	0.453
14.4993	0.441
14.5404	0.43
14.5815	0.416
14.6226	0.399
14.6637	0.382
14.7048	0.36
14.746	0.339
14.7871	0.319
14.8282	0.295
14.8693	0.261
14.9104	0.24
14.9515	0.211
14.9927	0.179
15.0338	0.143
15.0749	0.11
15.116	0.088
15.1571	0.083
15.1982	0.081
15.2394	0.09
15.2805	0.116
15.3216	0.139
15.3627	0.162
15.4038	0.197
15.4449	0.23
15.4861	0.264
15.5272	0.284
15.5683	0.303
15.6094	0.324
15.6505	0.334
15.6916	0.339
15.7327	0.343
15.7739	0.344
15.815	0.349
15.8561	0.348
15.8972	0.349
15.9383	0.349
15.9794	0.349
