Infrared Spectrum: 4-Methyloctanoic acid
Formula: C 9 H 18 O 2
CAS: 54947-74-9
State: gas
Origin: EPA-IR VAPOR PHASE LIBRARY
1/CM	ABSORBANCE
549.8	0.004545
559.445	0.005415
569.09	0.006295
578.734	0.005875
588.379	0.006235
598.024	0.006275
607.669	0.006435
617.313	0.006275
626.958	0.005735
636.603	0.004645
646.248	0.003215
655.893	0.002515
665.537	0.002165
675.182	0.002035
684.827	0.001875
694.472	0.001625
704.116	0.001695
713.761	0.001575
723.406	0.001445
733.051	0.001495
742.695	0.0010411
752.34	0.0010438
761.985	0.001365
771.63	0.001355
781.275	0.001505
790.919	0.001205
800.564	0.0008938
810.209	0.0008244
819.854	0.0006053
829.498	0.0005389
839.143	0.000363
848.788	0.000697
858.433	0.000806
868.078	0.0009503
877.722	0.0008436
887.367	0.0010559
897.012	0.001275
906.657	0.00098
916.301	0.001255
925.946	0.001245
935.591	0.001315
945.236	0.001195
954.88	0.001365
964.525	0.001325
974.17	0.0011442
983.815	0.0009987
993.46	0.001315
1003.1	0.001405
1012.75	0.001585
1022.39	0.001775
1032.04	0.002765
1041.68	0.003175
1051.33	0.003765
1060.97	0.005255
1070.62	0.006745
1080.26	0.009485
1089.91	0.013795
1099.55	0.017055
1109.2	0.016355
1118.84	0.014475
1128.49	0.014795
1138.13	0.014725
1147.78	0.012805
1157.42	0.010395
1167.07	0.007925
1176.71	0.006075
1186.36	0.004805
1196	0.004825
1205.64	0.003815
1215.29	0.003635
1224.93	0.002665
1234.58	0.003135
1244.22	0.002765
1253.87	0.003055
1263.51	0.003085
1273.16	0.003275
1282.8	0.003015
1292.45	0.002795
1302.09	0.002805
1311.74	0.002825
1321.38	0.002875
1331.03	0.003225
1340.67	0.003925
1350.32	0.004695
1359.96	0.005045
1369.61	0.005635
1379.25	0.006775
1388.9	0.006145
1398.54	0.003835
1408.18	0.002615
1417.83	0.002345
1427.47	0.002575
1437.12	0.002825
1446.76	0.003515
1456.41	0.004875
1466.05	0.004975
1475.7	0.003385
1485.34	0.001875
1494.99	0.0010894
1504.63	0.000919
1514.28	0.0006793
1523.92	0.0006385
1533.57	0.0004598
1543.21	0.0004166
1552.86	0.0004943
1562.5	0.0004152
1572.15	0.0004314
1581.79	0.000336
1591.44	0.0003338
1601.08	0.0003844
1610.73	0.000395
1620.37	0.00032
1630.01	0.000351
1639.66	0.0003811
1649.3	0.000457
1658.95	0.0004176
1668.59	0.0004323
1678.24	0.0006467
1687.88	0.0007739
1697.53	0.0010373
1707.17	0.001485
1716.82	0.002235
1726.46	0.003635
1736.11	0.006015
1745.75	0.009735
1755.4	0.015215
1765.04	0.024925
1774.69	0.034595
1784.33	0.029245
1793.98	0.017465
1803.62	0.010295
1813.27	0.005625
1822.91	0.002955
1832.55	0.001805
1842.2	0.0011544
1851.84	0.0007454
1861.49	0.0006657
1871.13	0.0005344
1880.78	0.0004716
1890.42	0.0004192
1900.07	0.0003685
1909.71	0.0004181
1919.36	0.0003544
1929	0.0003374
1938.65	0.0003815
1948.29	0.000323
1957.94	0.00024265
1967.58	0.0003788
1977.23	0.0003017
1986.87	0.0003307
1996.52	0.00023737
2006.16	0.00024153
2015.81	0.0003505
2025.45	0.0002292
2035.1	0.00021645
2044.74	0.00017523
2054.38	0.00022637
2064.03	0.00022088
2073.67	0.0002881
2083.32	0.0002876
2092.96	0.00026099
2102.61	0.0003413
2112.25	0.0002915
2121.9	0.0003144
2131.54	0.0002626
2141.19	0.0003494
2150.83	0.0003386
2160.48	0.0002867
2170.12	0.0003421
2179.77	0.00024892
2189.41	0.0003407
2199.06	0.00025823
2208.7	0.0003277
2218.35	0.00027263
2227.99	0.000346
2237.64	0.00027579
2247.28	0.0004285
2256.92	0.0003402
2266.57	0.0003309
2276.21	0.0003871
2285.86	0.0002337
2295.5	0.0002945
2305.15	0.00025995
2314.79	0.00024355
2324.44	0.0003415
2334.08	0.00026629
2343.73	0.00027739
2353.37	0.0003169
2363.02	0.00025069
2372.66	0.0002885
2382.31	0.00026218
2391.95	0.0003205
2401.6	0.00023059
2411.24	0.0003689
2420.89	0.0002928
2430.53	0.00041
2440.18	0.0002898
2449.82	0.00027354
2459.47	0.0003148
2469.11	0.00026202
2478.75	0.0003266
2488.4	0.00027478
2498.04	0.0002985
2507.69	0.0002972
2517.33	0.00027093
2526.98	0.0003066
2536.62	0.00027936
2546.27	0.0003762
2555.91	0.0003801
2565.56	0.0004344
2575.2	0.0003555
2584.85	0.0004301
2594.49	0.0003895
2604.14	0.000376
2613.78	0.0004256
2623.43	0.000378
2633.07	0.0004131
2642.72	0.0004689
2652.36	0.0004882
2662.01	0.0004559
2671.65	0.0004504
2681.29	0.0005586
2690.94	0.0004858
2700.58	0.0004943
2710.23	0.0005798
2719.87	0.0006589
2729.52	0.0006887
2739.16	0.0008238
2748.81	0.0008832
2758.45	0.0007448
2768.1	0.0006644
2777.74	0.0009785
2787.39	0.0008681
2797.03	0.001175
2806.68	0.001235
2816.32	0.001535
2825.97	0.002005
2835.61	0.002515
2845.26	0.003995
2854.9	0.006735
2864.55	0.010175
2874.19	0.012825
2883.84	0.013135
2893.48	0.011245
2903.12	0.011775
2912.77	0.015635
2922.41	0.022195
2932.06	0.028225
2941.7	0.026575
2951.35	0.021765
2960.99	0.024845
2970.64	0.026395
2980.28	0.014065
2989.93	0.006375
2999.57	0.003955
3009.22	0.002665
3018.86	0.001915
3028.51	0.001595
3038.15	0.001365
3047.8	0.0011655
3057.44	0.0010601
3067.09	0.0008374
3076.73	0.0008633
3086.38	0.0008229
3096.02	0.0008591
3105.67	0.0008201
3115.31	0.0006922
3124.95	0.0006557
3134.6	0.0004769
3144.24	0.0003526
3153.89	0.0004753
3163.53	0.0004741
3173.18	0.0004579
3182.82	0.0001624
3192.47	0.000386
3202.11	0.0003624
3211.76	0.0004965
3221.4	0.0003551
3231.05	0.0003126
3240.69	0.00026333
3250.34	0.00028156
3259.98	0.0003552
3269.63	0.0003739
3279.27	0.00026616
3288.92	0.0003178
3298.56	0.000325
3308.21	0.00024462
3317.85	0.00023362
3327.49	0.0003658
3337.14	0.0003102
3346.78	0.00020421
3356.43	0.0003424
3366.07	0.0001019
3375.72	0.0003027
3385.36	0.0003268
3395.01	0.00024985
3404.65	0.00019515
3414.3	0.00021921
3423.94	0.00025639
3433.59	0.0003053
3443.23	0.0003479
3452.88	0.00025872
3462.52	0.0002911
3472.17	0.0003148
3481.81	0.0003543
3491.46	0.0002867
3501.1	0.0003668
3510.75	0.0004691
3520.39	0.0007431
3530.04	0.0007272
3539.68	0.0008967
3549.32	0.001395
3558.97	0.003105
3568.61	0.011195
3578.26	0.013465
3587.9	0.003865
3597.55	0.001475
3607.19	0.0011772
3616.84	0.0006228
3626.48	0.0004867
3636.13	0.0003703
3645.77	0.0002936
3655.42	8.57e-05
3665.06	0.0004205
3674.71	0.0002762
3684.35	0.0003103
3694	0.0003161
3703.64	0.0004095
3713.29	0.000291
3722.93	0.00027867
3732.58	0.000165
3742.22	0.0003414
3751.86	0.000286
3761.51	0.0004064
3771.15	0.000193104
3780.8	0.0001992
3790.44	0.0004773
3800.09	0.0003392
3809.73	0.00056
3819.38	0.0003109
3829.02	0.00022771
3838.67	0.0004089
3848.31	0.0003751
3857.96	0.0003054
3867.6	0.0002923
3877.25	0.000275
3886.89	0.00025242
3896.54	0.000333
3906.18	0.0004067
3915.83	0.000183
3925.47	0.0003838
3935.12	0.0004483
3944.76	0.00024392
3954.41	0.0004471
3964.05	0.0005157
3973.69	0.0003746
3983.34	0.0003301
3992.98	0.0006072
