Infrared Spectrum: Benzamide
Formula: C 7 H 7 N O
CAS: 55-21-0
State: gas
Instrument: HP-GC/MS/IRD
Origin: NIST Mass Spectrometry Data Center
1/CM	ABSORBANCE
550	0.000756
562	0.000252
574	0.0001395
586	0.00045
598	0.0028035
610	0.004941
622	0.0030825
634	0.001593
646	0.0017685
658	0.0021015
670	0.0029745
682	0.005805
694	0.011205
706	0.016659
718	0.0118845
730	0.0061065
742	0.003177
754	0.0026325
766	0.002403
778	0.0024075
790	0.002556
802	0.00243
814	0.002214
826	0.001854
838	0.0016965
850	0.0015525
862	0.0015615
874	0.001629
886	0.001521
898	0.0014175
910	0.00144
922	0.001584
934	0.001413
946	0.0011385
958	0.000891
970	0.0007965
982	0.0007875
994	0.000864
1006	0.001062
1018	0.002232
1030	0.0022275
1042	0.0017235
1054	0.0026145
1066	0.002646
1078	0.001611
1090	0.0009405
1102	0.0004995
1114	0.0004905
1126	0.0005445
1138	0.000378
1150	0.0001215
1162	4.5e-05
1174	0.0006075
1186	0.000639
1198	0.000144
1210	0.0002745
1222	0.0006525
1234	0.000882
1246	0.000828
1258	0.00081
1270	0.0012105
1282	0.00207
1294	0.00324
1306	0.004923
1318	0.008406
1330	0.0177075
1342	0.031608
1354	0.0269145
1366	0.00792
1378	0.0031545
1390	0.001674
1402	0.0009585
1414	0.000702
1426	0.0007965
1438	0.0014805
1450	0.0017415
1462	0.0011475
1474	0.0007785
1486	0.0009675
1498	0.0009495
1510	0.000819
1522	0.000909
1534	0.001368
1546	0.002259
1558	0.0042165
1570	0.0101385
1582	0.01773
1594	0.0162225
1606	0.008739
1618	0.004428
1630	0.002484
1642	0.001926
1654	0.0021285
1666	0.003384
1678	0.005517
1690	0.008712
1702	0.0192915
1714	0.0430605
1726	0.045
1738	0.019053
1750	0.007398
1762	0.0048555
1774	0.002457
1786	0.001206
1798	0.00099
1810	0.000918
1822	0.000657
1834	0.0004815
1846	0.000387
1858	0.0003825
1870	0.0004635
1882	0.000585
1894	0.0006885
1906	0.000612
1918	0.0004365
1930	0.000441
1942	0.000567
1954	0.000639
1966	0.0005625
1978	0.000378
1990	0.0002205
2002	0.00018
2014	0.000162
2026	0.0001575
2038	0.000162
2050	0.0001845
2062	0.0001935
2074	0.0002655
2086	0.00027
2098	0.000243
2110	0.0001935
2122	0.0001845
2134	0.0001755
2146	0.000171
2158	0.0001665
2170	0.0001935
2182	0.000198
2194	0.000207
2206	0.0002115
2218	0.0001845
2230	0.000171
2242	0.000207
2254	0.0001935
2266	0.000207
2278	0.0002025
2290	0.0002115
2302	0.0001755
2314	0.0002655
2326	0.000261
2338	0.000261
2350	0.000198
2362	0.000189
2374	0.000198
2386	0.000243
2398	0.0002385
2410	0.0002745
2422	0.000252
2434	0.000225
2446	0.000198
2458	0.000171
2470	0.000207
2482	0.00018
2494	0.0001395
2506	0.000162
2518	0.0001755
2530	0.00018
2542	0.00018
2554	0.0001485
2566	0.000189
2578	0.00018
2590	0.000189
2602	0.0002115
2614	0.0001935
2626	0.000198
2638	0.000198
2650	0.000198
2662	0.000234
2674	0.0002295
2686	0.0002295
2698	0.0002385
2710	0.0002565
2722	0.0002835
2734	0.0002565
2746	0.000225
2758	0.0002295
2770	0.0003105
2782	0.000306
2794	0.000351
2806	0.0002655
2818	0.0003105
2830	0.00027
2842	0.0002565
2854	0.0002565
2866	0.0002565
2878	0.0002475
2890	0.000288
2902	0.000333
2914	0.0003735
2926	0.0003915
2938	0.0004005
2950	0.0003465
2962	0.000324
2974	0.0002655
2986	0.0003195
2998	0.000441
3010	0.000765
3022	0.0014985
3034	0.0025695
3046	0.002898
3058	0.003087
3070	0.00459
3082	0.004536
3094	0.002871
3106	0.001764
3118	0.0009495
3130	0.000594
3142	0.000441
3154	0.0004365
3166	0.0004635
3178	0.000396
3190	0.0003375
3202	0.0002385
3214	0.00027
3226	0.000189
3238	0.000225
3250	0.0002745
3262	0.000162
3274	0.000288
3286	0.000279
3298	0.0003285
3310	0.0003735
3322	0.000252
3334	0.0002835
3346	0.0002835
3358	0.000297
3370	0.000441
3382	0.0006345
3394	0.001017
3406	0.0017145
3418	0.0032175
3430	0.004815
3442	0.0042435
3454	0.0021825
3466	0.000855
3478	0.0006615
3490	0.000576
3502	0.000864
3514	0.0012375
3526	0.0021015
3538	0.0031275
3550	0.0039735
3562	0.0030645
3574	0.0012555
3586	0.000441
3598	0.0003105
3610	0.000234
3622	0.000243
3634	0.0002295
3646	0.000162
3658	0.000243
3670	0.000144
3682	0.00018
3694	0.000126
3706	0.000189
3718	0.000153
3730	0.0001755
3742	0.0001215
3754	0.000108
3766	0.000189
3778	0.000108
3790	0.000153
3802	0.0001575
3814	0.0002115
3826	0.000243
3838	0.000207
