Infrared Spectrum: DIBENZYLAMINE, N-(2-CHLOROETHYL)-, HYDROCHLORIDE
Formula: C16 H19 Cl2 N
CAS: 55-43-6
State: SOLID (NUJOL MULL)
Class: COBLENTZ III
Instrument: PERKIN-ELMER 21 (GRATING)
Instrument parameters: NaCl PRISM
Sampling: TRANSMISSION
Resolution: 2
Origin: SMITH, KLINE & FRENCH LABS.
MICROMETERS	TRANSMITTANCE
2.002	0.374
2.04096	0.375
2.07992	0.383
2.11888	0.399
2.15784	0.403
2.1968	0.412
2.23576	0.417
2.27472	0.407
2.31369	0.408
2.35265	0.422
2.39161	0.433
2.43057	0.44
2.46953	0.459
2.50849	0.47
2.54745	0.479
2.58641	0.48
2.62537	0.482
2.66433	0.493
2.70329	0.5
2.74225	0.512
2.78121	0.513
2.82017	0.521
2.85913	0.525
2.89809	0.529
2.93706	0.527
2.97602	0.526
3.01498	0.529
3.05394	0.531
3.0929	0.526
3.13186	0.524
3.17082	0.525
3.20978	0.509
3.24874	0.437
3.2877	0.4
3.32666	0.228
3.36562	0.038
3.40458	0.024
3.44354	0.03
3.4825	0.041
3.52147	0.434
3.56043	0.546
3.59939	0.574
3.63835	0.583
3.67731	0.551
3.71627	0.476
3.75523	0.501
3.79419	0.506
3.83315	0.501
3.87211	0.429
3.91107	0.351
3.95003	0.301
3.98899	0.199
4.02795	0.165
4.06691	0.156
4.10587	0.154
4.14484	0.176
4.1838	0.2
4.22276	0.187
4.26172	0.192
4.30068	0.239
4.33964	0.321
4.3786	0.361
4.41756	0.413
4.45652	0.463
4.49548	0.493
4.53444	0.526
4.5734	0.549
4.61236	0.571
4.65132	0.588
4.69028	0.603
4.72925	0.62
4.76821	0.628
4.80717	0.633
4.84613	0.635
4.88509	0.649
4.92405	0.658
4.96301	0.661
5.00197	0.658
5.04093	0.649
5.07989	0.659
5.11885	0.68
5.15781	0.678
5.19677	0.675
5.23573	0.676
5.27469	0.681
5.31366	0.695
5.35262	0.7
5.39158	0.701
5.43054	0.694
5.4695	0.693
5.50846	0.701
5.54742	0.711
5.58638	0.711
5.62534	0.714
5.6643	0.718
5.70326	0.722
5.74222	0.731
5.78118	0.734
5.82014	0.738
5.8591	0.731
5.89806	0.736
5.93703	0.732
5.97599	0.733
6.01495	0.732
6.05391	0.729
6.09287	0.733
6.13183	0.722
6.17079	0.718
6.20975	0.712
6.24871	0.711
6.28767	0.711
6.32663	0.727
6.36559	0.736
6.40455	0.732
6.44351	0.725
6.48247	0.716
6.52144	0.71
6.5604	0.709
6.59936	0.704
6.63832	0.559
6.67728	0.551
6.71624	0.56
6.7552	0.413
6.79416	0.171
6.83312	0.107
6.87208	0.088
6.91104	0.22
6.95	0.346
6.98896	0.514
7.02792	0.604
7.06688	0.65
7.10584	0.648
7.14481	0.645
7.18377	0.541
7.22273	0.281
7.26169	0.233
7.30065	0.399
7.33961	0.538
7.37857	0.591
7.41753	0.615
7.45649	0.616
7.49545	0.637
7.53441	0.659
7.57337	0.666
7.61233	0.663
7.65129	0.659
7.69025	0.642
7.72922	0.622
7.76818	0.57
7.80714	0.649
7.8461	0.667
7.88506	0.675
7.92402	0.689
7.96298	0.703
8.00194	0.718
8.0409	0.718
8.07986	0.725
8.11882	0.722
8.15778	0.682
8.19674	0.572
8.2357	0.553
8.27466	0.66
8.31362	0.714
8.35259	0.723
8.39155	0.7
8.43051	0.708
8.46947	0.722
8.50843	0.722
8.54739	0.728
8.58635	0.722
8.62531	0.718
8.66427	0.725
8.70323	0.737
8.74219	0.74
8.78115	0.743
8.82011	0.757
8.85907	0.751
8.89803	0.76
8.937	0.753
8.97596	0.759
9.01492	0.759
9.05388	0.76
9.09284	0.753
9.1318	0.751
9.17076	0.718
9.20972	0.7
9.24868	0.712
9.28764	0.708
9.3266	0.708
9.36556	0.731
9.40452	0.748
9.44348	0.75
9.48244	0.751
9.5214	0.749
9.56037	0.733
9.59933	0.682
9.63829	0.588
9.67725	0.631
9.71621	0.591
9.75517	0.678
9.79413	0.718
9.83309	0.738
9.87205	0.742
9.91101	0.746
9.94997	0.734
9.98893	0.709
10.0279	0.624
10.0669	0.648
10.1058	0.7
10.1448	0.729
10.1837	0.739
10.2227	0.738
10.2617	0.734
10.3006	0.731
10.3396	0.727
10.3785	0.706
10.4175	0.632
10.4565	0.558
10.4954	0.547
10.5344	0.6
10.5733	0.653
10.6123	0.68
10.6513	0.689
10.6902	0.66
10.7292	0.563
10.7681	0.521
10.8071	0.452
10.8461	0.495
10.885	0.574
10.924	0.683
10.9629	0.733
11.0019	0.757
11.0409	0.762
11.0798	0.762
11.1188	0.779
11.1578	0.774
11.1967	0.788
11.2357	0.783
11.2746	0.785
11.3136	0.788
11.3526	0.791
11.3915	0.8
11.4305	0.801
11.4694	0.804
11.5084	0.81
11.5474	0.812
11.5863	0.812
11.6253	0.799
11.6642	0.791
11.7032	0.794
11.7422	0.794
11.7811	0.793
11.8201	0.788
11.859	0.785
11.898	0.774
11.937	0.765
11.9759	0.779
12.0149	0.784
12.0538	0.781
12.0928	0.776
12.1318	0.785
12.1707	0.798
12.2097	0.815
12.2487	0.809
12.2876	0.809
12.3266	0.81
12.3655	0.817
12.4045	0.818
12.4435	0.817
12.4824	0.816
12.5214	0.817
12.5603	0.812
12.5993	0.812
12.6383	0.806
12.6772	0.802
12.7162	0.79
12.7551	0.781
12.7941	0.761
12.8331	0.721
12.872	0.676
12.911	0.658
12.9499	0.631
12.9889	0.576
13.0279	0.442
13.0668	0.31
13.1058	0.239
13.1447	0.273
13.1837	0.322
13.2227	0.334
13.2616	0.265
13.3006	0.184
13.3395	0.205
13.3785	0.38
13.4175	0.512
13.4564	0.554
13.4954	0.547
13.5344	0.439
13.5733	0.402
13.6123	0.531
13.6512	0.619
13.6902	0.688
13.7292	0.708
13.7681	0.712
13.8071	0.728
13.846	0.727
13.885	0.725
13.924	0.733
13.9629	0.749
14.0019	0.742
14.0408	0.738
14.0798	0.716
14.1188	0.688
14.1577	0.6
14.1967	0.508
14.2356	0.311
14.2746	0.164
14.3136	0.147
14.3525	0.186
14.3915	0.218
14.4304	0.431
14.4694	0.552
14.5084	0.639
14.5473	0.692
14.5863	0.706
14.6252	0.722
14.6642	0.722
14.7032	0.728
14.7421	0.731
14.7811	0.726
14.8201	0.733
14.859	0.737
14.898	0.739
14.9369	0.737
14.9759	0.742
15.0149	0.737
15.0538	0.749
15.0928	0.75
15.1317	0.748
15.1707	0.744
15.2097	0.744
15.2486	0.743
15.2876	0.738
15.3265	0.739
15.3655	0.736
15.4045	0.732
15.4434	0.732
15.4824	0.727
15.5213	0.726
15.5603	0.721
15.5993	0.714
15.6382	0.709
15.6772	0.709
15.7161	0.71
15.7551	0.704
15.7941	0.686
15.833	0.689
