Infrared Spectrum: p-Methoxyphenethylamine
Formula: C9 H13 N O
CAS: 55-81-2
State: LIQUID (NEAT)
Class: COBLENTZ III
Instrument: BECKMAN IR-4 (HYBRID PRISM-GRATING)
Sampling: TRANSMISSION
Path length: CAPILLARY
Resolution: 2
Origin: UNIVERSITY OF FLORIDA
1/CM	TRANSMITTANCE
666	0.6369
675	0.6502
684	0.6715
693	0.67
702	0.6511
711	0.7012
720	0.7159
729	0.7309
738	0.7472
747	0.7271
756	0.6916
765	0.7357
774	0.7347
783	0.722
792	0.6942
801	0.5893
810	0.4579
819	0.4129
828	0.4679
837	0.5338
846	0.5656
855	0.6109
864	0.6167
873	0.6257
882	0.6339
891	0.6567
900	0.6837
909	0.705
918	0.7158
927	0.7216
936	0.7274
945	0.7443
954	0.7609
963	0.7786
972	0.7949
981	0.801
990	0.7866
999	0.7619
1008	0.7413
1017	0.6695
1026	0.4956
1035	0.3718
1044	0.5159
1053	0.7035
1062	0.7538
1071	0.7347
1080	0.758
1089	0.7761
1098	0.7811
1107	0.7074
1116	0.7077
1125	0.7679
1134	0.7962
1143	0.8078
1152	0.8091
1161	0.8065
1170	0.787
1179	0.4929
1188	0.6001
1197	0.7601
1206	0.788
1215	0.7735
1224	0.719
1233	0.5893
1242	0.33
1251	0.212
1260	0.4574
1269	0.6109
1278	0.6626
1287	0.6779
1296	0.6496
1305	0.5177
1314	0.6995
1323	0.7255
1332	0.7427
1341	0.7693
1350	0.7802
1359	0.7795
1368	0.7804
1377	0.7911
1386	0.7814
1395	0.7848
1404	0.7982
1413	0.8015
1422	0.7902
1431	0.7745
1440	0.7282
1449	0.6154
1458	0.6223
1467	0.5876
1476	0.5714
1485	0.6905
1494	0.719
1503	0.7074
1512	0.6092
1521	0.4379
1530	0.4386
1539	0.5705
1548	0.6187
1557	0.7095
1566	0.7185
1575	0.7294
1584	0.6737
1593	0.627
1602	0.653
1611	0.5523
1620	0.487
1629	0.6046
1638	0.6951
1647	0.7214
1656	0.7299
1665	0.7499
1674	0.7706
1683	0.7817
1692	0.7925
1701	0.8035
1710	0.806
1719	0.821
1728	0.8305
1737	0.8451
1746	0.8507
1755	0.8504
1764	0.8563
1773	0.8606
1782	0.8617
1791	0.8626
1800	0.866
1809	0.8696
1818	0.8719
1827	0.8733
1836	0.8745
1845	0.8755
1854	0.8759
1863	0.8756
1872	0.8738
1881	0.87
1890	0.8635
1899	0.8598
1908	0.8597
1917	0.861
1926	0.8626
1935	0.8644
1944	0.8657
1953	0.8669
1962	0.8682
1971	0.8707
1980	0.8725
1989	0.8733
1998	0.8724
2007	0.8698
2016	0.8698
2025	0.8717
2034	0.8725
2043	0.8725
2052	0.8709
2061	0.8669
2070	0.8595
2079	0.8577
2088	0.861
2097	0.8667
2106	0.8722
2115	0.8758
2124	0.8775
2133	0.8784
2142	0.879
2151	0.8794
2160	0.8799
2169	0.8802
2178	0.8805
2187	0.8807
2196	0.8808
2205	0.8807
2214	0.8807
2223	0.8806
2232	0.8804
2241	0.8798
2250	0.8794
2259	0.8788
2268	0.8784
2277	0.8782
2286	0.878
2295	0.8779
2304	0.8777
2313	0.8774
2322	0.8765
2331	0.8757
2340	0.8748
2349	0.8739
2358	0.8725
2367	0.8711
2376	0.8696
2385	0.8696
2394	0.8706
2403	0.874
2412	0.877
2421	0.8782
2430	0.8784
2439	0.8785
2448	0.8784
2457	0.8782
2466	0.8779
2475	0.877
2484	0.8761
2493	0.8753
2502	0.8747
2511	0.8741
2520	0.8737
2529	0.8733
2538	0.8729
2547	0.8724
2556	0.8718
2565	0.8697
2574	0.8686
2583	0.8681
2592	0.8677
2601	0.8674
2610	0.8673
2619	0.8672
2628	0.8671
2637	0.8668
2646	0.8666
2655	0.8664
2664	0.8662
2673	0.8655
2682	0.8647
2691	0.8639
2700	0.863
2709	0.8618
2718	0.8599
2727	0.8581
2736	0.8555
2745	0.8528
2754	0.8492
2763	0.8457
2772	0.8437
2781	0.8415
2790	0.8402
2799	0.8395
2808	0.8387
2817	0.8359
2826	0.825
2835	0.8052
2844	0.7775
2853	0.7225
2862	0.6678
2871	0.631
2880	0.6283
2889	0.6317
2898	0.6488
2907	0.6593
2916	0.6319
2925	0.6034
2934	0.5751
2943	0.547
2952	0.5256
2961	0.5246
2970	0.541
2979	0.5832
2988	0.6251
2997	0.6617
3006	0.67
3015	0.6716
3024	0.6728
3033	0.6744
3042	0.677
3051	0.6857
3060	0.7081
3069	0.7221
3078	0.73
3087	0.7369
3096	0.7432
3105	0.7466
3114	0.7485
3123	0.7492
3132	0.7494
3141	0.7489
3150	0.7471
3159	0.7447
3168	0.7406
3177	0.7356
3186	0.7313
3195	0.7265
3204	0.7219
3213	0.7195
3222	0.7177
3231	0.7165
3240	0.7151
3249	0.7134
3258	0.7109
3267	0.7047
3276	0.7007
3285	0.6969
3294	0.6933
3303	0.691
3312	0.6898
3321	0.69
3330	0.6923
3339	0.6925
3348	0.6901
3357	0.6835
3366	0.6717
3375	0.6716
3384	0.672
3393	0.6758
3402	0.6838
3411	0.69
3420	0.6961
3429	0.7032
3438	0.7103
3447	0.7178
3456	0.7252
3465	0.7322
3474	0.7387
3483	0.7452
3492	0.7517
3501	0.7572
3510	0.7628
3519	0.7683
3528	0.7734
3537	0.7778
3546	0.7822
3555	0.7866
3564	0.7907
3573	0.7942
3582	0.7975
3591	0.8007
3600	0.804
3609	0.8072
3618	0.8105
3627	0.8129
3636	0.8154
3645	0.8178
3654	0.8201
3663	0.8214
3672	0.8227
3681	0.8239
3690	0.8252
3699	0.8277
3708	0.8322
3717	0.8371
3726	0.8418
3735	0.8458
3744	0.8498
3753	0.8537
3762	0.8574
3771	0.8609
3780	0.8642
3789	0.8658
3798	0.8669
3807	0.868
3816	0.8692
3825	0.8702
3834	0.8722
3843	0.8752
3852	0.877
3861	0.8785
3870	0.8796
3879	0.8799
3888	0.8801
3897	0.8804
3906	0.8807
3915	0.881
3924	0.8813
3933	0.8816
3942	0.8818
3951	0.8821
3960	0.8824
3969	0.8826
3978	0.8827
3987	0.8828
3996	0.883
