Infrared Spectrum: 1,4-BUTANEDIOL, S-DIMETHANETHIOSULFONATE
Formula: C6 H14 O4 S4
CAS: 55-99-2
State: SOLID (0.8 mg / 650 mg KBr DISC)
Class: COBLENTZ III
Instrument: PERKIN-ELMER 221 (GRATING)
Instrument parameters: FILTER AT 980 CM^-^1. GRATING 4000-1428 CM^-^1, NaCl PRISM 1428-650 CM^-^1
Sampling: TRANSMISSION
Resolution: 2
Origin: SOUTHERN RESEARCH INSTITUTE
1/CM	TRANSMITTANCE
614.547	0.9513
623.594	0.9452
632.641	0.9351
641.687	0.923
650.734	0.9076
659.781	0.8894
668.828	0.8697
677.875	0.8278
686.922	0.7717
695.968	0.7953
705.015	0.7618
714.062	0.6391
723.109	0.536
732.156	0.5281
741.203	0.3288
750.249	0.3679
759.296	0.6887
768.343	0.8029
777.39	0.8403
786.437	0.8494
795.484	0.849
804.53	0.8463
813.577	0.8423
822.624	0.8377
831.671	0.8328
840.718	0.8276
849.765	0.8221
858.811	0.8163
867.858	0.8123
876.905	0.794
885.952	0.7835
894.999	0.7761
904.046	0.7678
913.092	0.7581
922.139	0.743
931.186	0.7116
940.233	0.6521
949.28	0.3467
958.327	0.3913
967.373	0.5129
976.42	0.7684
985.467	0.699
994.514	0.7744
1003.56	0.7683
1012.61	0.7592
1021.65	0.7479
1030.7	0.7346
1039.75	0.7181
1048.79	0.7012
1057.84	0.6747
1066.89	0.6436
1075.94	0.5971
1084.98	0.5315
1094.03	0.4099
1103.08	0.3031
1112.12	0.2226
1121.17	0.1502
1130.22	0.2054
1139.26	0.4715
1148.31	0.6216
1157.36	0.7096
1166.4	0.7395
1175.45	0.751
1184.5	0.7542
1193.54	0.7514
1202.59	0.746
1211.64	0.7527
1220.68	0.7436
1229.73	0.7208
1238.78	0.6959
1247.83	0.672
1256.87	0.6371
1265.92	0.5737
1274.97	0.3735
1284.01	0.249
1293.06	0.1747
1302.11	0.1398
1311.15	0.1742
1320.2	0.3542
1329.25	0.5325
1338.29	0.6069
1347.34	0.6745
1356.39	0.7391
1365.43	0.7661
1374.48	0.7874
1383.53	0.7837
1392.57	0.7471
1401.62	0.7323
1410.67	0.7223
1419.71	0.715
1428.76	0.7532
1437.81	0.7831
1446.86	0.7867
1455.9	0.6796
1464.95	0.7714
1474	0.8338
1483.04	0.8357
1492.09	0.8315
1501.14	0.8298
1510.18	0.8367
1519.23	0.8383
1528.28	0.8374
1537.32	0.8359
1546.37	0.8335
1555.42	0.8306
1564.46	0.8272
1573.51	0.8231
1582.56	0.8176
1591.6	0.8107
1600.65	0.8002
1609.7	0.7892
1618.75	0.7813
1627.79	0.7796
1636.84	0.7806
1645.89	0.7831
1654.93	0.7879
1663.98	0.7932
1673.03	0.7977
1682.07	0.8023
1691.12	0.8066
1700.17	0.811
1709.21	0.8149
1718.26	0.8189
1727.31	0.8222
1736.35	0.8244
1745.4	0.8282
1754.45	0.8315
1763.49	0.8336
1772.54	0.8299
1781.59	0.8319
1790.63	0.8279
1799.68	0.8281
1808.73	0.8287
1817.78	0.8287
1826.82	0.8286
1835.87	0.8287
1844.92	0.828
1853.96	0.8267
1863.01	0.8252
1872.06	0.8235
1881.1	0.8218
1890.15	0.82
1899.2	0.8187
1908.24	0.8177
1917.29	0.8167
1926.34	0.8158
1935.38	0.8149
1944.43	0.8139
1953.48	0.8128
1962.52	0.8117
1971.57	0.8109
1980.62	0.8105
1989.67	0.8113
1998.71	0.8033
2007.76	0.7962
2016.81	0.7933
2025.85	0.7915
2034.9	0.79
2043.95	0.7893
2052.99	0.7889
2062.04	0.7895
2071.09	0.7903
2080.13	0.7923
2089.18	0.7954
2098.23	0.7975
2107.27	0.7973
2116.32	0.796
2125.37	0.794
2134.41	0.7919
2143.46	0.7905
2152.51	0.7891
2161.55	0.7879
2170.6	0.7867
2179.65	0.7856
2188.7	0.7854
2197.74	0.7851
2206.79	0.785
2215.84	0.7827
2224.88	0.7749
2233.93	0.7717
2242.98	0.7679
2252.02	0.765
2261.07	0.7631
2270.12	0.7614
2279.16	0.7597
2288.21	0.7602
2297.26	0.7604
2306.3	0.7602
2315.35	0.7595
2324.4	0.7585
2333.44	0.7575
2342.49	0.7564
2351.54	0.7553
2360.59	0.7545
2369.63	0.7553
2378.68	0.758
2387.73	0.7601
2396.77	0.7605
2405.82	0.7584
2414.87	0.7565
2423.91	0.7549
2432.96	0.755
2442.01	0.7559
2451.05	0.7559
2460.1	0.7533
2469.15	0.736
2478.19	0.7582
2487.24	0.7592
2496.29	0.7579
2505.33	0.757
2514.38	0.7565
2523.43	0.7559
2532.47	0.7547
2541.52	0.7532
2550.57	0.7516
2559.62	0.7502
2568.66	0.7488
2577.71	0.7474
2586.76	0.7459
2595.8	0.7443
2604.85	0.7427
2613.9	0.7411
2622.94	0.7396
2631.99	0.738
2641.04	0.7365
2650.08	0.735
2659.13	0.7334
2668.18	0.7319
2677.22	0.7304
2686.27	0.7289
2695.32	0.7274
2704.36	0.7265
2713.41	0.7256
2722.46	0.7247
2731.51	0.7239
2740.55	0.723
2749.6	0.7219
2758.65	0.7197
2767.69	0.7171
2776.74	0.714
2785.79	0.7109
2794.83	0.7078
2803.88	0.7039
2812.93	0.6999
2821.97	0.6953
2831.02	0.69
2840.07	0.6813
2849.11	0.6634
2858.16	0.6462
2867.21	0.6414
2876.25	0.6517
2885.3	0.66
2894.35	0.655
2903.39	0.6434
2912.44	0.6277
2921.49	0.5893
2930.54	0.517
2939.58	0.5242
2948.63	0.5987
2957.68	0.6272
2966.72	0.6581
2975.77	0.6501
2984.82	0.6443
2993.86	0.6402
3002.91	0.6136
3011.96	0.5018
3021	0.5548
3030.05	0.4908
3039.1	0.5337
3048.14	0.6673
3057.19	0.6697
3066.24	0.6696
3075.28	0.6697
3084.33	0.6696
3093.38	0.6693
3102.43	0.669
3111.47	0.6687
3120.52	0.6682
3129.57	0.6676
3138.61	0.6669
3147.66	0.666
3156.71	0.6635
3165.75	0.6606
3174.8	0.6573
3183.85	0.6514
3192.89	0.6487
3201.94	0.6469
3210.99	0.6451
3220.03	0.643
3229.08	0.6408
3238.13	0.6387
3247.17	0.636
3256.22	0.6326
3265.27	0.6291
3274.31	0.6255
3283.36	0.622
3292.41	0.6185
3301.46	0.615
3310.5	0.6112
3319.55	0.6075
3328.6	0.6037
3337.64	0.5999
3346.69	0.5966
3355.74	0.5895
3364.78	0.5767
3373.83	0.5697
3382.88	0.5658
3391.92	0.5619
3400.97	0.558
3410.02	0.5543
3419.06	0.5507
3428.11	0.5481
3437.16	0.5476
3446.2	0.5481
3455.25	0.5499
3464.3	0.5529
3473.35	0.5566
3482.39	0.5606
3491.44	0.5647
3500.49	0.5689
3509.53	0.5735
3518.58	0.5784
3527.63	0.5815
3536.67	0.5841
3545.72	0.5858
3554.77	0.5882
3563.81	0.593
3572.86	0.5992
3581.91	0.6057
3590.95	0.6117
3600	0.6154
3609.05	0.6194
3618.09	0.6265
3627.14	0.6323
3636.19	0.6464
3645.23	0.6575
3654.28	0.662
3663.33	0.6622
3672.38	0.6621
3681.42	0.6615
3690.47	0.6608
3699.52	0.6603
3708.56	0.6599
3717.61	0.6595
3726.66	0.6595
3735.7	0.6597
3744.75	0.66
3753.8	0.6601
3762.84	0.66
3771.89	0.6599
3780.94	0.6598
3789.98	0.6589
3799.03	0.658
3808.08	0.657
3817.12	0.6566
3826.17	0.6566
3835.22	0.6565
3844.27	0.6565
3853.31	0.6558
3862.36	0.655
3871.41	0.6543
3880.45	0.6538
3889.5	0.6534
3898.55	0.6533
3907.59	0.6539
3916.64	0.6544
3925.69	0.6538
3934.73	0.6526
3943.78	0.6465
3952.83	0.6422
3961.87	0.6403
3970.92	0.6389
3979.97	0.6383
3989.01	0.638
3998.06	0.6383
4007.11	0.638
4016.15	0.6372
