Infrared Spectrum: Diisopropylfluorophosphate
Formula: C 6 H 14 F O 3 P
CAS: 55-91-4
State: liquid
Instrument: Bruker Tensor 27 FTIR
Resolution: 0.48212986
Origin: Pacific Northwest National Laboratory Under IARPA Contract
1/cm	dispersion index
7797.49	1.36743
7778.69	1.36744
7759.88	1.36743
7741.08	1.36743
7722.28	1.36742
7703.47	1.36742
7684.67	1.36741
7665.87	1.36741
7647.07	1.3674
7628.26	1.3674
7609.46	1.36739
7590.66	1.36739
7571.85	1.36738
7553.05	1.36738
7534.25	1.36737
7515.44	1.36736
7496.64	1.36736
7477.84	1.36735
7459.03	1.36734
7440.23	1.36734
7421.43	1.36733
7402.63	1.36732
7383.82	1.36732
7365.02	1.36732
7346.22	1.36731
7327.41	1.3673
7308.61	1.3673
7289.81	1.3673
7271	1.36729
7252.2	1.36729
7233.4	1.36728
7214.6	1.36728
7195.79	1.36727
7176.99	1.36726
7158.19	1.36726
7139.38	1.36725
7120.58	1.36725
7101.78	1.36724
7082.97	1.36723
7064.17	1.36722
7045.37	1.36722
7026.56	1.36721
7007.76	1.3672
6988.96	1.36719
6970.16	1.36719
6951.35	1.36718
6932.55	1.36717
6913.75	1.36716
6894.94	1.36715
6876.14	1.36715
6857.34	1.36714
6838.53	1.36713
6819.73	1.36712
6800.93	1.36711
6782.12	1.3671
6763.32	1.3671
6744.52	1.36709
6725.72	1.36708
6706.91	1.36707
6688.11	1.36706
6669.31	1.36705
6650.5	1.36704
6631.7	1.36703
6612.9	1.36702
6594.09	1.36702
6575.29	1.36701
6556.49	1.367
6537.68	1.36699
6518.88	1.36698
6500.08	1.36697
6481.28	1.36696
6462.47	1.36695
6443.67	1.36694
6424.87	1.36692
6406.06	1.36691
6387.26	1.3669
6368.46	1.36689
6349.65	1.36688
6330.85	1.36687
6312.05	1.36686
6293.24	1.36685
6274.44	1.36684
6255.64	1.36682
6236.84	1.36681
6218.03	1.3668
6199.23	1.36679
6180.43	1.36678
6161.62	1.36676
6142.82	1.36675
6124.02	1.36674
6105.21	1.36672
6086.41	1.36671
6067.61	1.36669
6048.81	1.36667
6030	1.36665
6011.2	1.36663
5992.4	1.3666
5973.59	1.36657
5954.79	1.3666
5935.99	1.36659
5917.18	1.36661
5898.38	1.36664
5879.58	1.36661
5860.77	1.36658
5841.97	1.36656
5823.17	1.36655
5804.37	1.36654
5785.56	1.36656
5766.76	1.36656
5747.96	1.36654
5729.15	1.36651
5710.35	1.3665
5691.55	1.36649
5672.74	1.36648
5653.94	1.36646
5635.14	1.36644
5616.33	1.36642
5597.53	1.3664
5578.73	1.36639
5559.93	1.36638
5541.12	1.36637
5522.32	1.36635
5503.52	1.36633
5484.71	1.36631
5465.91	1.36629
5447.11	1.36627
5428.3	1.36625
5409.5	1.36623
5390.7	1.36621
5371.89	1.36619
5353.09	1.36617
5334.29	1.36615
5315.49	1.36613
5296.68	1.36611
5277.88	1.36609
5259.08	1.36608
5240.27	1.36606
5221.47	1.36604
5202.67	1.36602
5183.86	1.366
5165.06	1.36597
5146.26	1.36595
5127.45	1.36592
5108.65	1.3659
5089.85	1.36588
5071.05	1.36585
5052.24	1.36583
5033.44	1.3658
5014.64	1.36579
4995.83	1.36576
4977.03	1.36574
4958.23	1.36571
4939.42	1.36568
4920.62	1.36565
4901.82	1.36562
4883.02	1.36559
4864.21	1.36556
4845.41	1.36554
4826.61	1.36551
4807.8	1.36548
4789	1.36544
4770.2	1.36541
4751.39	1.36538
4732.59	1.36534
4713.79	1.36531
4694.98	1.36527
4676.18	1.36523
4657.38	1.36519
4638.58	1.36515
4619.77	1.36511
4600.97	1.36506
4582.17	1.36502
4563.36	1.36497
4544.56	1.36491
4525.76	1.36484
4506.95	1.36477
4488.15	1.36467
4469.35	1.36454
4450.54	1.36444
4431.74	1.36442
4412.94	1.36473
4394.14	1.36461
4375.33	1.36449
4356.53	1.3647
4337.73	1.3647
4318.92	1.36489
4300.12	1.36501
4281.32	1.36487
4262.51	1.36481
4243.71	1.36469
4224.91	1.36458
4206.1	1.36444
4187.3	1.36426
4168.5	1.36438
4149.7	1.36446
4130.89	1.36434
4112.09	1.36444
4093.29	1.36443
4074.48	1.36448
4055.68	1.36439
4036.88	1.36438
4018.07	1.36434
3999.27	1.36431
3980.47	1.36424
3961.66	1.36416
3942.86	1.36408
3924.06	1.36399
3905.26	1.36393
3886.45	1.36384
3867.65	1.36381
3848.85	1.36373
3830.04	1.36364
3811.24	1.36358
3792.44	1.36349
3773.63	1.36339
3754.83	1.3633
3736.03	1.36321
3717.23	1.36311
3698.42	1.36302
3679.62	1.36292
3660.82	1.36283
3642.01	1.36272
3623.21	1.36259
3604.41	1.36246
3585.6	1.36234
3566.8	1.36221
3548	1.36205
3529.19	1.3619
3510.39	1.36179
3491.59	1.36174
3472.79	1.36165
3453.98	1.3615
3435.18	1.36134
3416.38	1.36122
3397.57	1.36108
3378.77	1.36089
3359.97	1.36068
3341.16	1.36047
3322.36	1.36025
3303.56	1.36002
3284.75	1.35977
3265.95	1.35947
3247.15	1.35923
3228.35	1.35904
3209.54	1.35884
3190.74	1.35863
3171.94	1.35821
3153.13	1.35764
3134.33	1.35696
3115.53	1.35614
3096.72	1.35511
3077.92	1.35373
3059.12	1.35178
3040.31	1.34863
3021.51	1.34257
3002.71	1.32728
2983.91	1.36934
2965.1	1.37453
2946.3	1.36546
2927.5	1.37694
2908.69	1.37367
2889.89	1.37071
2871.09	1.37359
2852.28	1.37036
2833.48	1.36878
2814.68	1.36822
2795.87	1.36691
2777.07	1.36586
2758.27	1.36506
2739.47	1.36511
2720.66	1.36451
2701.86	1.36414
2683.06	1.36362
2664.25	1.36314
2645.45	1.36291
2626.65	1.36257
2607.84	1.3622
2589.04	1.3618
2570.24	1.36152
2551.44	1.36127
2532.63	1.36093
2513.83	1.36087
2495.03	1.36052
2476.22	1.36024
2457.42	1.35989
2438.62	1.35964
2419.81	1.35928
2401.01	1.35889
2382.21	1.35863
2363.4	1.35828
2344.6	1.35781
2325.8	1.35757
2307	1.35787
2288.19	1.35728
2269.39	1.35731
2250.59	1.35687
2231.78	1.3565
2212.98	1.35605
2194.18	1.35558
2175.37	1.35503
2156.57	1.35462
2137.77	1.35436
2118.96	1.35399
2100.16	1.35342
2081.36	1.3528
2062.56	1.35233
2043.75	1.35204
2024.95	1.35189
2006.15	1.35143
1987.34	1.35058
1968.54	1.34968
1949.74	1.3488
1930.93	1.34844
1912.13	1.34808
1893.33	1.34724
1874.52	1.34634
1855.72	1.34521
1836.92	1.34389
1818.12	1.34272
1799.31	1.34251
1780.51	1.34195
1761.71	1.34239
1742.9	1.34228
1724.1	1.34145
1705.3	1.33978
1686.49	1.33803
1667.69	1.33651
1648.89	1.33494
1630.08	1.33301
1611.28	1.33092
1592.48	1.32832
1573.68	1.32542
1554.87	1.32207
1536.07	1.318
1517.27	1.31283
1498.46	1.3061
1479.66	1.29114
1460.86	1.30688
1442.05	1.31241
1423.25	1.29437
1404.45	1.26343
1385.65	1.29054
1366.84	1.30016
1348.04	1.29272
1329.24	1.23394
1310.43	1.24961
1291.63	1.44245
1272.83	1.42206
1254.02	1.37606
1235.22	1.34633
1216.42	1.32297
1197.61	1.29254
1178.81	1.30805
1160.01	1.28004
1141.21	1.30685
1122.4	1.24461
1103.6	1.27075
1084.8	1.19862
1065.99	1.06453
1047.19	0.881247
1028.39	1.20996
1009.58	1.92457
990.781	1.75448
971.978	1.59086
953.175	1.51092
934.372	1.46387
915.568	1.38193
896.765	1.53252
877.962	1.41996
859.159	1.51075
840.356	1.55222
821.553	1.48999
802.75	1.45424
783.947	1.41873
765.144	1.45897
746.341	1.47191
727.538	1.46302
708.735	1.45961
689.932	1.45001
671.129	1.43726
652.326	1.42679
633.523	1.41597
614.719	1.40398
595.916	1.38726
577.113	1.35485
558.31	1.35621
539.507	1.44456
520.704	1.36127
501.901	1.47171
483.098	1.4758
464.295	1.44758
445.492	1.42596
426.689	1.45596
407.886	1.50946
