Infrared Spectrum: AMISOMETRADINE
Formula: C9 H13 N3 O2
CAS: 550-28-7
State: SOLID (1 mg / 200 mg KBr DISC) VS KBr
Melting point: 175 C
Class: COBLENTZ III
Instrument: PERKIN-ELMER 21 (GRATING)
Instrument parameters: FILTER AT ABOUT 10 MICRONS
Sampling: TRANSMISSION
Path length: 0.055 CM (THICKNESS)
Resolution: 2
1/CM	TRANSMITTANCE
4000	0.9321
3991	0.9328
3982	0.9335
3973	0.9343
3964	0.935
3955	0.9357
3946	0.9366
3937	0.9375
3928	0.9384
3919	0.9394
3910	0.9405
3901	0.9416
3892	0.9425
3883	0.9433
3874	0.9441
3865	0.9448
3856	0.945
3847	0.9451
3838	0.9453
3829	0.9454
3820	0.9453
3811	0.9452
3802	0.9449
3793	0.9447
3784	0.9447
3775	0.9447
3766	0.9448
3757	0.9448
3748	0.9449
3739	0.9451
3730	0.9454
3721	0.9456
3712	0.9462
3703	0.9474
3694	0.9486
3685	0.9496
3676	0.9506
3667	0.9516
3658	0.9525
3649	0.953
3640	0.9532
3631	0.9535
3622	0.9538
3613	0.954
3604	0.9543
3595	0.9546
3586	0.9549
3577	0.9549
3568	0.9546
3559	0.9534
3550	0.9517
3541	0.9501
3532	0.9488
3523	0.9478
3514	0.9474
3505	0.9471
3496	0.9466
3487	0.9449
3478	0.936
3469	0.9194
3460	0.901
3451	0.8606
3442	0.7593
3433	0.5843
3424	0.5958
3415	0.6162
3406	0.6368
3397	0.6438
3388	0.6291
3379	0.5619
3370	0.488
3361	0.4876
3352	0.4964
3343	0.5093
3334	0.5221
3325	0.5351
3316	0.548
3307	0.5612
3298	0.5743
3289	0.5853
3280	0.586
3271	0.5779
3262	0.5602
3253	0.5425
3244	0.5265
3235	0.5109
3226	0.4671
3217	0.4253
3208	0.384
3199	0.3591
3190	0.3568
3181	0.3572
3172	0.3794
3163	0.4314
3154	0.4836
3145	0.5219
3136	0.5425
3127	0.5717
3118	0.5926
3109	0.6256
3100	0.6442
3091	0.6618
3082	0.6747
3073	0.6876
3064	0.7068
3055	0.7269
3046	0.7472
3037	0.7676
3028	0.7881
3019	0.7958
3010	0.7986
3001	0.7989
2992	0.789
2983	0.7578
2974	0.7467
2965	0.74
2956	0.7384
2947	0.7389
2938	0.7418
2929	0.7497
2920	0.7572
2911	0.7651
2902	0.7749
2893	0.7846
2884	0.7933
2875	0.8018
2866	0.8103
2857	0.8186
2848	0.8278
2839	0.837
2830	0.846
2821	0.8549
2812	0.8616
2803	0.8675
2794	0.8724
2785	0.8756
2776	0.8774
2767	0.8788
2758	0.8799
2749	0.8807
2740	0.8814
2731	0.8818
2722	0.8821
2713	0.8828
2704	0.885
2695	0.8888
2686	0.8932
2677	0.898
2668	0.9024
2659	0.9066
2650	0.9108
2641	0.9144
2632	0.9175
2623	0.9193
2614	0.9207
2605	0.922
2596	0.9234
2587	0.925
2578	0.9267
2569	0.9285
2560	0.9305
2551	0.9325
2542	0.9347
2533	0.9357
2524	0.9361
2515	0.9366
2506	0.9368
2497	0.9368
2488	0.9368
2479	0.9368
2470	0.9375
2461	0.9386
2452	0.9397
2443	0.9408
2434	0.9421
2425	0.9434
2416	0.9449
2407	0.9465
2398	0.9485
2389	0.9507
2380	0.953
2371	0.954
2362	0.9549
2353	0.9553
2344	0.9555
2335	0.9557
2326	0.9552
2317	0.9532
2308	0.9493
2299	0.9462
2290	0.9471
2281	0.9508
2272	0.9525
2263	0.9533
2254	0.953
2245	0.9528
2236	0.9533
2227	0.9537
2218	0.9545
2209	0.9559
2200	0.9587
2191	0.9625
2182	0.9661
2173	0.969
2164	0.9706
2155	0.968
2146	0.9654
2137	0.9651
2128	0.9659
2119	0.9671
2110	0.9678
2101	0.9684
2092	0.969
2083	0.9695
2074	0.9699
2065	0.9707
2056	0.972
2047	0.9723
2038	0.9706
2029	0.9663
2020	0.9639
2011	0.9628
2002	0.9625
1993	0.9641
1984	0.9658
1975	0.9671
1966	0.9673
1957	0.9654
1948	0.9611
1939	0.956
1930	0.9513
1921	0.949
1912	0.9482
1903	0.9463
1894	0.943
1885	0.9385
1876	0.933
1867	0.9221
1858	0.9171
1849	0.9118
1840	0.9015
1831	0.8909
1822	0.8773
1813	0.8621
1804	0.8413
1795	0.8111
1786	0.7838
1777	0.7731
1768	0.7543
1759	0.7082
1750	0.6671
1741	0.6278
1732	0.585
1723	0.5286
1714	0.4256
1705	0.2677
1696	0.1136
1687	0.0885
1678	0.0974
1669	0.0467
1660	0.031
1651	0.0317
1642	0.0302
1633	0.0918
1624	0.0978
1615	0.0806
1606	0.077
1597	0.1284
1588	0.2392
1579	0.2649
1570	0.3758
1561	0.423
1552	0.5709
1543	0.6096
1534	0.6
1525	0.5735
1516	0.4268
1507	0.2493
1498	0.0749
1489	0.1545
1480	0.2877
1471	0.3566
1462	0.3776
1453	0.3197
1444	0.3337
1435	0.2865
1426	0.3187
1417	0.4446
1408	0.5575
1399	0.606
1390	0.5916
1381	0.4416
1372	0.501
1363	0.5812
1354	0.6574
1345	0.7125
1336	0.7293
1327	0.7421
1318	0.6362
1309	0.7428
1300	0.7668
1291	0.6572
1282	0.4187
1273	0.342
1264	0.5275
1255	0.6582
1246	0.6728
1237	0.6878
1228	0.7057
1219	0.5838
1210	0.6432
1201	0.7131
1192	0.7539
1183	0.7519
1174	0.7436
1165	0.7915
1156	0.8035
1147	0.7807
1138	0.6471
1129	0.6392
1120	0.7232
1111	0.7705
1102	0.7875
1093	0.7455
1084	0.6965
1075	0.6984
1066	0.7325
1057	0.775
1048	0.7934
1039	0.8043
1030	0.7531
1021	0.7017
1012	0.7367
1003	0.7658
994	0.8218
985	0.8387
976	0.8437
967	0.8064
958	0.7048
949	0.6392
940	0.783
931	0.8432
922	0.8547
913	0.8511
904	0.8261
895	0.7849
886	0.5324
877	0.7914
868	0.85
859	0.8615
850	0.8627
841	0.8521
832	0.8475
823	0.8518
814	0.7717
805	0.4243
796	0.54
787	0.7146
778	0.8261
769	0.7268
760	0.7317
751	0.8084
742	0.7756
733	0.8204
724	0.8471
715	0.8689
706	0.825
697	0.7112
688	0.7306
679	0.7287
670	0.736
