Infrared Spectrum: N-Methylphthalimide
Formula: C 9 H 7 N O 2
CAS: 550-44-7
State: gas
Origin: EPA-IR VAPOR PHASE LIBRARY
1/CM	ABSORBANCE
549.8	0.002777
559.445	0.001507
569.09	0.0005053
578.734	0.0004395
588.379	0.0008102
598.024	0.002377
607.669	0.002307
617.313	0.0010507
626.958	6.3e-05
636.603	0.0001438
646.248	0.000446
655.893	0.000359
665.537	0.000517
675.182	0.0010134
684.827	0.002577
694.472	0.010027
704.116	0.036487
713.761	0.078607
723.406	0.040297
733.051	0.013017
742.695	0.004747
752.34	0.003567
761.985	0.002677
771.63	0.002947
781.275	0.004387
790.919	0.004947
800.564	0.002077
810.209	0.0007321
819.854	0.0008184
829.498	0.0005377
839.143	0.000946
848.788	0.002427
858.433	0.003607
868.078	0.003237
877.722	0.0011885
887.367	0.001597
897.012	0.001907
906.657	0.001857
916.301	0.002027
925.946	0.002507
935.591	0.003267
945.236	0.004447
954.88	0.008317
964.525	0.016377
974.17	0.021437
983.815	0.031647
993.46	0.065647
1003.1	0.079027
1012.75	0.048147
1022.39	0.010617
1032.04	0.003137
1041.68	0.001977
1051.33	0.002437
1060.97	0.003457
1070.62	0.004447
1080.26	0.006017
1089.91	0.005567
1099.55	0.003247
1109.2	0.002617
1118.84	0.003437
1128.49	0.007167
1138.13	0.009087
1147.78	0.007257
1157.42	0.006447
1167.07	0.007767
1176.71	0.011517
1186.36	0.013257
1196	0.009337
1205.64	0.003947
1215.29	0.003427
1224.93	0.005047
1234.58	0.012567
1244.22	0.024797
1253.87	0.027147
1263.51	0.015477
1273.16	0.007307
1282.8	0.008637
1292.45	0.010297
1302.09	0.008587
1311.74	0.007177
1321.38	0.007067
1331.03	0.008337
1340.67	0.012797
1350.32	0.025927
1359.96	0.061307
1369.61	0.129027
1379.25	0.152797
1388.9	0.087047
1398.54	0.035987
1408.18	0.028677
1417.83	0.041307
1427.47	0.075227
1437.12	0.084117
1446.76	0.047567
1456.41	0.019977
1466.05	0.016477
1475.7	0.013027
1485.34	0.007287
1494.99	0.006137
1504.63	0.006457
1514.28	0.007687
1523.92	0.008077
1533.57	0.006597
1543.21	0.005077
1552.86	0.004787
1562.5	0.005197
1572.15	0.005497
1581.79	0.005367
1591.44	0.005527
1601.08	0.006547
1610.73	0.007327
1620.37	0.006077
1630.01	0.004297
1639.66	0.003917
1649.3	0.004857
1658.95	0.005707
1668.59	0.005777
1678.24	0.006127
1687.88	0.009337
1697.53	0.017967
1707.17	0.033447
1716.82	0.078097
1726.46	0.268167
1736.11	0.461247
1745.75	0.374787
1755.4	0.076177
1765.04	0.028717
1774.69	0.039397
1784.33	0.057087
1793.98	0.042467
1803.62	0.013647
1813.27	0.008487
1822.91	0.009027
1832.55	0.008227
1842.2	0.005367
1851.84	0.004197
1861.49	0.003887
1871.13	0.003767
1880.78	0.002877
1890.42	0.002497
1900.07	0.002477
1909.71	0.002237
1919.36	0.002297
1929	0.002947
1938.65	0.003787
1948.29	0.003317
1957.94	0.002827
1967.58	0.003097
1977.23	0.002307
1986.87	0.0009737
1996.52	0.000681
2006.16	0.0007711
2015.81	0.0009099
2025.45	0.000888
2035.1	0.0007106
2044.74	0.000658
2054.38	0.0006241
2064.03	0.0006704
2073.67	0.0006387
2083.32	0.0005595
2092.96	0.0004302
2102.61	0.0005186
2112.25	0.0004888
2121.9	0.0006231
2131.54	0.0007884
2141.19	0.0009394
2150.83	0.0010491
2160.48	0.0008384
2170.12	0.0006731
2179.77	0.0006137
2189.41	0.0005034
2199.06	0.0005204
2208.7	0.000515
2218.35	0.00061
2227.99	0.0005865
2237.64	0.0006313
2247.28	0.0008328
2256.92	0.0008953
2266.57	0.0007085
2276.21	0.0005543
2285.86	0.0005347
2295.5	0.0005964
2305.15	0.0008059
2314.79	0.0009415
2324.44	0.0011244
2334.08	0.001237
2343.73	0.001377
2353.37	0.0012002
2363.02	0.001327
2372.66	0.001367
2382.31	0.001367
2391.95	0.0010221
2401.6	0.0008197
2411.24	0.0008977
2420.89	0.0009747
2430.53	0.001225
2440.18	0.001367
2449.82	0.001183
2459.47	0.0008948
2469.11	0.0007492
2478.75	0.0007193
2488.4	0.0007283
2498.04	0.0007191
2507.69	0.0006528
2517.33	0.0006003
2526.98	0.0004867
2536.62	0.0005387
2546.27	0.000488
2555.91	0.0004246
2565.56	0.0004248
2575.2	0.0004101
2584.85	0.0004404
2594.49	0.000594
2604.14	0.0007999
2613.78	0.000986
2623.43	0.0010665
2633.07	0.0011104
2642.72	0.0009211
2652.36	0.000736
2662.01	0.0005944
2671.65	0.0007531
2681.29	0.0007623
2690.94	0.0008572
2700.58	0.0008216
2710.23	0.000683
2719.87	0.0005633
2729.52	0.0004974
2739.16	0.0004411
2748.81	0.000562
2758.45	0.0005926
2768.1	0.00067
2777.74	0.0009563
2787.39	0.0011627
2797.03	0.0011515
2806.68	0.0011027
2816.32	0.0009925
2825.97	0.0010136
2835.61	0.0010776
2845.26	0.001397
2854.9	0.001847
2864.55	0.002237
2874.19	0.002287
2883.84	0.002637
2893.48	0.004087
2903.12	0.006397
2912.77	0.007027
2922.41	0.006347
2932.06	0.006497
2941.7	0.009937
2951.35	0.015187
2960.99	0.013517
2970.64	0.008037
2980.28	0.006037
2989.93	0.004427
2999.57	0.002497
3009.22	0.001467
3018.86	0.001477
3028.51	0.002287
3038.15	0.003557
3047.8	0.004937
3057.44	0.007037
3067.09	0.008237
3076.73	0.009557
3086.38	0.010797
3096.02	0.007577
3105.67	0.002987
3115.31	0.0011137
3124.95	0.0006475
3134.6	0.00029551
3144.24	0.0004839
3153.89	0.00031539
3163.53	0.0003842
3173.18	0.000346
3182.82	0.0005566
3192.47	0.0004622
3202.11	0.000582
3211.76	0.0006246
3221.4	0.000407
3231.05	0.0005347
3240.69	0.0003614
3250.34	0.00027732
3259.98	0.00021994
3269.63	0.00030472
3279.27	0.00031166
3288.92	0.0001787
3298.56	0.00031116
3308.21	0.000229782
3317.85	0.0001535
3327.49	0.00025269
3337.14	0.0005693
3346.78	0.0002239
3356.43	0.0001676
3366.07	0.0001665
3375.72	0.000229036
3385.36	0.0002029
3395.01	0.0003649
3404.65	0.0003333
3414.3	0.0003469
3423.94	0.0003817
3433.59	0.000463
3443.23	0.000633
3452.88	0.0009052
3462.52	0.001437
3472.17	0.001867
3481.81	0.002057
3491.46	0.003377
3501.1	0.005057
3510.75	0.005247
3520.39	0.002927
3530.04	0.001237
3539.68	0.0006448
3549.32	0.0005289
3558.97	0.0007297
3568.61	0.0004707
3578.26	0.0004914
3587.9	0.0004516
3597.55	0.000228584
3607.19	0.0001708
3616.84	0.0001968
3626.48	0.0003273
3636.13	0.0001795
3645.77	0.0001936
3655.42	0.00022294
3665.06	0.0001763
3674.71	0.00025477
3684.35	9.6e-05
3694	0
3703.64	0.0001805
3713.29	8.7e-05
3722.93	0.00025046
3732.58	0.0002166
3742.22	0.00030232
3751.86	0.00022021
3761.51	0.000115
3771.15	0.00028384
3780.8	0.00022391
3790.44	0.0001721
3800.09	0.00026445
3809.73	0.0002169
3819.38	0.00025189
3829.02	0.0001736
3838.67	0.0001833
3848.31	0.000112
3857.96	0.0001536
3867.6	0.0001995
3877.25	0.000116
3886.89	0.00024632
3896.54	0.00029542
3906.18	0.00025718
3915.83	0.0003718
3925.47	0.0004099
3935.12	0.0003275
3944.76	0.00024743
3954.41	0.00025534
3964.05	0.000125
3973.69	0.000164
3983.34	0.00021825
3992.98	0.0001531
