Infrared Spectrum: Picrolonic acid
Formula: C 10 H 8 N 4 O 5
CAS: 550-74-3
State: gas
Origin: EPA-IR VAPOR PHASE LIBRARY
1/CM	ABSORBANCE
549.8	0.005061
559.445	0.003101
569.09	0.0017545
578.734	0.0017468
588.379	0.00084521
598.024	0.0014054
607.669	0.0016073
617.313	0.0010811
626.958	0.001871
636.603	0.0016889
646.248	0.001951
655.893	0.002801
665.537	0.002021
675.182	0.002401
684.827	0.002781
694.472	0.002721
704.116	0.001931
713.761	0.002061
723.406	0.002541
733.051	0.006951
742.695	0.009231
752.34	0.005471
761.985	0.002581
771.63	0.002161
781.275	0.0017217
790.919	0.001799
800.564	0.0007
810.209	0.002031
819.854	0.002781
829.498	0.006311
839.143	0.018661
848.788	0.010431
858.433	0.007521
868.078	0.003241
877.722	0.0017693
887.367	0.0013081
897.012	0.0009923
906.657	0.0011663
916.301	0.0015222
925.946	0.0015041
935.591	0.0013417
945.236	0.0016277
954.88	0.0014281
964.525	0.002471
974.17	0.003361
983.815	0.002911
993.46	0.002051
1003.1	0.002191
1012.75	0.002961
1022.39	0.003191
1032.04	0.005841
1041.68	0.008711
1051.33	0.009521
1060.97	0.004901
1070.62	0.003261
1080.26	0.002501
1089.91	0.002861
1099.55	0.002821
1109.2	0.005671
1118.84	0.006781
1128.49	0.007231
1138.13	0.010281
1147.78	0.008551
1157.42	0.004751
1167.07	0.004061
1176.71	0.004421
1186.36	0.005031
1196	0.003961
1205.64	0.003981
1215.29	0.005471
1224.93	0.004861
1234.58	0.004001
1244.22	0.004381
1253.87	0.005161
1263.51	0.011301
1273.16	0.018821
1282.8	0.013921
1292.45	0.010201
1302.09	0.008631
1311.74	0.007591
1321.38	0.008661
1331.03	0.013511
1340.67	0.026431
1350.32	0.045901
1359.96	0.036081
1369.61	0.022101
1379.25	0.010921
1388.9	0.008221
1398.54	0.009741
1408.18	0.009311
1417.83	0.005571
1427.47	0.006191
1437.12	0.005981
1446.76	0.005191
1456.41	0.003921
1466.05	0.003301
1475.7	0.004631
1485.34	0.009421
1494.99	0.023841
1504.63	0.027661
1514.28	0.014691
1523.92	0.014231
1533.57	0.024801
1543.21	0.026741
1552.86	0.013321
1562.5	0.008051
1572.15	0.007941
1581.79	0.011201
1591.44	0.020901
1601.08	0.025611
1610.73	0.012761
1620.37	0.007041
1630.01	0.004051
1639.66	0.003491
1649.3	0.002891
1658.95	0.002871
1668.59	0.003081
1678.24	0.003051
1687.88	0.002701
1697.53	0.002871
1707.17	0.003381
1716.82	0.003931
1726.46	0.005231
1736.11	0.008151
1745.75	0.020591
1755.4	0.045331
1765.04	0.050561
1774.69	0.026831
1784.33	0.006631
1793.98	0.003851
1803.62	0.003141
1813.27	0.002641
1822.91	0.002301
1832.55	0.002241
1842.2	0.001991
1851.84	0.0015881
1861.49	0.0015749
1871.13	0.0015571
1880.78	0.0014444
1890.42	0.0013666
1900.07	0.0014345
1909.71	0.0016331
1919.36	0.0017153
1929	0.001535
1938.65	0.0015503
1948.29	0.0016504
1957.94	0.0014514
1967.58	0.0016106
1977.23	0.001425
1986.87	0.0012562
1996.52	0.0014278
2006.16	0.0013391
2015.81	0.0012118
2025.45	0.0013429
2035.1	0.0013579
2044.74	0.0012703
2054.38	0.0011185
2064.03	0.0014655
2073.67	0.0016027
2083.32	0.001631
2092.96	0.0016255
2102.61	0.0014492
2112.25	0.0011672
2121.9	0.0012581
2131.54	0.001254
2141.19	0.0011687
2150.83	0.0010627
2160.48	0.0010577
2170.12	0.0010887
2179.77	0.0012375
2189.41	0.0012302
2199.06	0.0011554
2208.7	0.0010106
2218.35	0.0014944
2227.99	0.0012865
2237.64	0.0012307
2247.28	0.0012678
2256.92	0.001107
2266.57	0.0011602
2276.21	0.00132
2285.86	0.0011139
2295.5	0.0011899
2305.15	0.0014011
2314.79	0.0014477
2324.44	0.0010348
2334.08	0.0011882
2343.73	0.0012289
2353.37	0.0014134
2363.02	0.0010747
2372.66	0.0012227
2382.31	0.0014904
2391.95	0.0012802
2401.6	0.0012237
2411.24	0.0010262
2420.89	0.0011804
2430.53	0.001562
2440.18	0.001901
2449.82	0.0011552
2459.47	0.0013455
2469.11	0.0014096
2478.75	0.0011836
2488.4	0.0013248
2498.04	0.0014083
2507.69	0.001169
2517.33	0.001306
2526.98	0.0010636
2536.62	0.0010433
2546.27	0.00086625
2555.91	0.0012425
2565.56	0.0010877
2575.2	0.001124
2584.85	0.0012421
2594.49	0.0013424
2604.14	0.0010829
2613.78	0.0012618
2623.43	0.0011916
2633.07	0.001023
2642.72	0.00139
2652.36	0.0011744
2662.01	0.0011242
2671.65	0.0010366
2681.29	0.0009418
2690.94	0.0009961
2700.58	0.00088835
2710.23	0.0010046
2719.87	0.0013441
2729.52	0.0011414
2739.16	0.0013825
2748.81	0.0013242
2758.45	0.0011638
2768.1	0.0009721
2777.74	0.0009855
2787.39	0.0013292
2797.03	0.0013994
2806.68	0.0010715
2816.32	0.0013897
2825.97	0.0012346
2835.61	0.0013476
2845.26	0.0012965
2854.9	0.001454
2864.55	0.0017965
2874.19	0.0013296
2883.84	0.0016366
2893.48	0.0015849
2903.12	0.001537
2912.77	0.0015657
2922.41	0.001317
2932.06	0.0016884
2941.7	0.002051
2951.35	0.00159
2960.99	0.0010824
2970.64	0.0015283
2980.28	0.001115
2989.93	0.0007941
2999.57	0.0012457
3009.22	0.0011643
3018.86	0.000716
3028.51	0.0010888
3038.15	0.0007525
3047.8	0.0009647
3057.44	0.0012741
3067.09	0.0012035
3076.73	0.0017252
3086.38	0.0010725
3096.02	0.0011414
3105.67	0.0012363
3115.31	0.0010641
3124.95	0.001416
3134.6	0.00091224
3144.24	0.000944
3153.89	0.0013887
3163.53	0.0011809
3173.18	0.001167
3182.82	0.000698
3192.47	0.001077
3202.11	0.0010311
3211.76	0.001159
3221.4	0.001528
3231.05	0.0013735
3240.69	0.0011271
3250.34	0.00089404
3259.98	0.0010561
3269.63	0.001006
3279.27	0.0012497
3288.92	0.0009865
3298.56	0.0010065
3308.21	0.00081138
3317.85	0.0011409
3327.49	0.0014121
3337.14	0.0011821
3346.78	0.000715
3356.43	0.00089897
3366.07	0.0014945
3375.72	0.0007378
3385.36	0.0014578
3395.01	0.0010007
3404.65	0.00083483
3414.3	0.00091526
3423.94	0.0013898
3433.59	0.0012973
3443.23	0.000609
3452.88	0.0012023
3462.52	0.0009592
3472.17	0.0012516
3481.81	0.0015832
3491.46	0.0017422
3501.1	0.002371
3510.75	0.002241
3520.39	0.001981
3530.04	0.0017288
3539.68	0.0012123
3549.32	0.0012673
3558.97	0.001046
3568.61	0.0016524
3578.26	0.001305
3587.9	0.0010548
3597.55	0.0007553
3607.19	0.0012007
3616.84	0.00083432
3626.48	0.000671
3636.13	0.001343
3645.77	0.0009248
3655.42	0.000608
3665.06	0.0007704
3674.71	0.0013129
3684.35	0.0013466
3694	0.0010057
3703.64	0.0012372
3713.29	0.0013506
3722.93	0.000611
3732.58	0.0010306
3742.22	0.0007272
3751.86	0.0009369
3761.51	0.0010216
3771.15	0.0007938
3780.8	0.000701
3790.44	0.0009227
3800.09	0.0007951
3809.73	0.000589
3819.38	0.0010946
3829.02	0.0010296
3838.67	0.0011292
3848.31	0.00084325
3857.96	0.0010705
3867.6	0.0013418
3877.25	0.00085224
3886.89	0.0010693
3896.54	0.0007375
3906.18	0.00057
3915.83	0.000577
3925.47	0.0009988
3935.12	0.0013546
3944.76	0.00088357
3954.41	0.0010571
3964.05	0.000696
3973.69	0.0010244
3983.34	0.0010825
3992.98	0.0014633
