Infrared Spectrum: Methyl 3-(4-chlorophenylthio)-2-methylpropionate
Formula: C 11 H 13 Cl O 2 S
CAS: 55009-84-2
State: gas
Origin: EPA-IR VAPOR PHASE LIBRARY
1/CM	ABSORBANCE
549.8	0.008364
559.445	0.003454
569.09	0.001814
578.734	0.001184
588.379	0.0009352
598.024	0.001434
607.669	0.001394
617.313	0.001374
626.958	0.001494
636.603	0.002224
646.248	0.002374
655.893	0.002424
665.537	0.001984
675.182	0.001714
684.827	0.001814
694.472	0.001934
704.116	0.001914
713.761	0.002164
723.406	0.003224
733.051	0.005364
742.695	0.011264
752.34	0.009384
761.985	0.007434
771.63	0.006674
781.275	0.007484
790.919	0.010204
800.564	0.018144
810.209	0.035064
819.854	0.048854
829.498	0.031114
839.143	0.014164
848.788	0.008904
858.433	0.007634
868.078	0.006854
877.722	0.006014
887.367	0.005614
897.012	0.006504
906.657	0.008104
916.301	0.006224
925.946	0.003654
935.591	0.002524
945.236	0.002094
954.88	0.002134
964.525	0.002834
974.17	0.004624
983.815	0.008024
993.46	0.009034
1003.1	0.014154
1012.75	0.056294
1022.39	0.020094
1032.04	0.020674
1041.68	0.028844
1051.33	0.029274
1060.97	0.028094
1070.62	0.027374
1080.26	0.029514
1089.91	0.074374
1099.55	0.125894
1109.2	0.055604
1118.84	0.040504
1128.49	0.033484
1138.13	0.038344
1147.78	0.059554
1157.42	0.099204
1167.07	0.117724
1176.71	0.091594
1186.36	0.074554
1196	0.075014
1205.64	0.075654
1215.29	0.069514
1224.93	0.063204
1234.58	0.059434
1244.22	0.054444
1253.87	0.050164
1263.51	0.040474
1273.16	0.032694
1282.8	0.022444
1292.45	0.018594
1302.09	0.020144
1311.74	0.020544
1321.38	0.020924
1331.03	0.023414
1340.67	0.027624
1350.32	0.026754
1359.96	0.022394
1369.61	0.019004
1379.25	0.022034
1388.9	0.020834
1398.54	0.013874
1408.18	0.012964
1417.83	0.016894
1427.47	0.024104
1437.12	0.037264
1446.76	0.030674
1456.41	0.033094
1466.05	0.052814
1475.7	0.109524
1485.34	0.045554
1494.99	0.011974
1504.63	0.007704
1514.28	0.006084
1523.92	0.005024
1533.57	0.004534
1543.21	0.004574
1552.86	0.005034
1562.5	0.006284
1572.15	0.007874
1581.79	0.006524
1591.44	0.004954
1601.08	0.004574
1610.73	0.004474
1620.37	0.004754
1630.01	0.005294
1639.66	0.005324
1649.3	0.004384
1658.95	0.003524
1668.59	0.003324
1678.24	0.003394
1687.88	0.004284
1697.53	0.006254
1707.17	0.010644
1716.82	0.018564
1726.46	0.031004
1736.11	0.053084
1745.75	0.098914
1755.4	0.160544
1765.04	0.112004
1774.69	0.049384
1784.33	0.024484
1793.98	0.012904
1803.62	0.007154
1813.27	0.004384
1822.91	0.003144
1832.55	0.002694
1842.2	0.002474
1851.84	0.002214
1861.49	0.002224
1871.13	0.002604
1880.78	0.003354
1890.42	0.003784
1900.07	0.003234
1909.71	0.002274
1919.36	0.001654
1929	0.001564
1938.65	0.001594
1948.29	0.001704
1957.94	0.001924
1967.58	0.002164
1977.23	0.002184
1986.87	0.001914
1996.52	0.001734
2006.16	0.001684
2015.81	0.001734
2025.45	0.001774
2035.1	0.001564
2044.74	0.001594
2054.38	0.001454
2064.03	0.001444
2073.67	0.001414
2083.32	0.001334
2092.96	0.001264
2102.61	0.0011328
2112.25	0.0010746
2121.9	0.0010371
2131.54	0.0010576
2141.19	0.0009643
2150.83	0.0009749
2160.48	0.0007668
2170.12	0.0006858
2179.77	0.0007654
2189.41	0.0006662
2199.06	0.0007025
2208.7	0.0006537
2218.35	0.0005875
2227.99	0.00057
2237.64	0.000527
2247.28	0.0006327
2256.92	0.0007288
2266.57	0.0008571
2276.21	0.0008963
2285.86	0.0009101
2295.5	0.0008577
2305.15	0.0007674
2314.79	0.0007303
2324.44	0.0008007
2334.08	0.0007328
2343.73	0.0008503
2353.37	0.0007807
2363.02	0.0008563
2372.66	0.0008744
2382.31	0.0008436
2391.95	0.0008667
2401.6	0.0008441
2411.24	0.0008495
2420.89	0.0007866
2430.53	0.0006945
2440.18	0.000615
2449.82	0.0005985
2459.47	0.0006564
2469.11	0.0004768
2478.75	0.0006207
2488.4	0.000619
2498.04	0.0005858
2507.69	0.0005745
2517.33	0.0005318
2526.98	0.0004926
2536.62	0.0005809
2546.27	0.0006307
2555.91	0.0007964
2565.56	0.0009076
2575.2	0.0008913
2584.85	0.0009632
2594.49	0.0007964
2604.14	0.0007743
2613.78	0.0007497
2623.43	0.0007452
2633.07	0.0006882
2642.72	0.0007304
2652.36	0.0010019
2662.01	0.0011499
2671.65	0.0009878
2681.29	0.0008126
2690.94	0.0005405
2700.58	0.0005184
2710.23	0.0004489
2719.87	0.0006225
2729.52	0.0007166
2739.16	0.0008092
2748.81	0.0007429
2758.45	0.000772
2768.1	0.0008808
2777.74	0.000967
2787.39	0.001254
2797.03	0.001544
2806.68	0.001824
2816.32	0.002194
2825.97	0.002994
2835.61	0.004354
2845.26	0.006814
2854.9	0.006774
2864.55	0.004924
2874.19	0.006304
2883.84	0.010544
2893.48	0.012294
2903.12	0.011234
2912.77	0.012794
2922.41	0.017444
2932.06	0.025094
2941.7	0.030964
2951.35	0.035304
2960.99	0.046344
2970.64	0.032794
2980.28	0.036764
2989.93	0.034874
2999.57	0.021544
3009.22	0.013524
3018.86	0.010944
3028.51	0.010094
3038.15	0.007774
3047.8	0.006074
3057.44	0.005434
3067.09	0.006294
3076.73	0.008514
3086.38	0.009864
3096.02	0.006064
3105.67	0.003664
3115.31	0.002774
3124.95	0.002114
3134.6	0.001724
3144.24	0.001594
3153.89	0.001164
3163.53	0.0011091
3173.18	0.0009338
3182.82	0.0009629
3192.47	0.000894
3202.11	0.0007432
3211.76	0.000501
3221.4	0.0003722
3231.05	0.00038
3240.69	0.00024398
3250.34	0.0002893
3259.98	0.0004268
3269.63	0.0004375
3279.27	0.0003516
3288.92	0.0002161
3298.56	0.00024045
3308.21	0.00018709
3317.85	0.000258
3327.49	0.0003687
3337.14	0.0003812
3346.78	0.0002745
3356.43	0.0003011
3366.07	0.0001061
3375.72	0.00018211
3385.36	0.0003485
3395.01	0.0002994
3404.65	0.000163864
3414.3	0.0001303
3423.94	0.00014954
3433.59	0.0003301
3443.23	0.0004773
3452.88	0.0005476
3462.52	0.0006334
3472.17	0.0009596
3481.81	0.0011345
3491.46	0.001764
3501.1	0.001584
3510.75	0.0010927
3520.39	0.0007206
3530.04	0.0005067
3539.68	0.00022023
3549.32	0.0002644
3558.97	0.0001306
3568.61	0.00019936
3578.26	0.0003843
3587.9	0.0004383
3597.55	0.0002599
3607.19	0.00016663
3616.84	0.00024384
3626.48	9.82e-05
3636.13	0.0003141
3645.77	0.0003009
3655.42	0.0003749
3665.06	0.00020729
3674.71	0.0002947
3684.35	0.0002719
3694	0.0003381
3703.64	0.0003749
3713.29	0.0005476
3722.93	0.000266
3732.58	0.0003219
3742.22	0.00037
3751.86	0.0003248
3761.51	0.0002887
3771.15	0.0003429
3780.8	0.0003452
3790.44	0.0002392
3800.09	0.0005109
3809.73	0.0003251
3819.38	0.0003808
3829.02	0.0005293
3838.67	0.0003542
3848.31	0.0002658
3857.96	0.0004034
3867.6	0.000402
3877.25	0.0003598
3886.89	0.00018104
3896.54	0.0003409
3906.18	0.0002811
3915.83	0.0003497
3925.47	0.000157236
3935.12	0.0005316
3944.76	0.000382
3954.41	0.0004868
3964.05	0.0003881
3973.69	0.0004475
3983.34	0.00022414
3992.98	0.0005006
