Infrared Spectrum: 1-p-MENTHENE
Formula: C10 H18
CAS: 5502-88-5
Class: COBLENTZ
Instrument: Not specified, most likely a prism, grating, or hybrid spectrometer.
Sampling: TRANSMISSION
Resolution: 4
Origin: INTERNATIONAL FLAVORS & FRAGRANCES, INC.
MICROMETERS	TRANSMITTANCE
2.041	0.898
2.07736	0.901
2.11372	0.9
2.15008	0.897
2.18644	0.8951
2.2228	0.897
2.25916	0.8902
2.29552	0.8526
2.33188	0.829
2.36824	0.8421
2.4046	0.855
2.44096	0.8598
2.47732	0.866
2.51368	0.875
2.55004	0.875
2.5864	0.8771
2.62276	0.8831
2.65912	0.887
2.69548	0.894
2.73184	0.893
2.7682	0.8961
2.80456	0.901
2.84092	0.901
2.87728	0.897
2.91364	0.891
2.95	0.89
2.98636	0.889
3.02272	0.889
3.05908	0.89
3.09544	0.8738
3.1318	0.86
3.16816	0.8511
3.20452	0.8419
3.24088	0.7539
3.27724	0.5496
3.3136	0.4672
3.34996	0.0514
3.38632	0.015
3.42268	0.011
3.45904	0.015
3.4954	0.0951
3.53176	0.5523
3.56812	0.7464
3.60448	0.7961
3.64084	0.7698
3.6772	0.8141
3.71356	0.828
3.74992	0.8439
3.78628	0.85
3.82264	0.846
3.859	0.861
3.89536	0.884
3.93172	0.8927
3.96808	0.894
4.00444	0.895
4.0408	0.896
4.07716	0.8959
4.11352	0.9041
4.14988	0.908
4.18624	0.903
4.2226	0.8971
4.25896	0.903
4.29532	0.904
4.33168	0.9139
4.36804	0.916
4.4044	0.9179
4.44076	0.921
4.47712	0.92
4.51348	0.9221
4.54984	0.923
4.5862	0.927
4.62256	0.929
4.65892	0.928
4.69528	0.931
4.73164	0.93
4.768	0.93
4.80436	0.931
4.84072	0.931
4.87708	0.931
4.91344	0.931
4.9498	0.931
4.98616	0.9221
5.02252	0.929
5.05888	0.929
5.09524	0.924
5.1316	0.9256
5.16796	0.928
5.20432	0.93
5.24068	0.9309
5.27704	0.9322
5.3134	0.929
5.34976	0.9293
5.38612	0.931
5.42248	0.933
5.45884	0.9302
5.4952	0.93
5.53156	0.9286
5.56792	0.933
5.60428	0.93
5.64064	0.931
5.677	0.925
5.71336	0.925
5.74972	0.923
5.78608	0.903
5.82244	0.894
5.8588	0.9047
5.89516	0.8935
5.93152	0.8583
5.96788	0.9004
6.00424	0.9027
6.0406	0.9048
6.07696	0.9009
6.11332	0.905
6.14968	0.905
6.18604	0.9
6.2224	0.8944
6.25876	0.887
6.29512	0.89
6.33148	0.896
6.36783	0.9
6.40419	0.905
6.44055	0.897
6.47691	0.8997
6.51327	0.8961
6.54963	0.8914
6.58599	0.8786
6.62235	0.866
6.65871	0.8332
6.69507	0.7571
6.73143	0.5415
6.76779	0.3187
6.80415	0.2483
6.84051	0.3006
6.87687	0.25
6.91323	0.2554
6.94959	0.2894
6.98595	0.5068
7.02231	0.7213
7.05867	0.7738
7.09503	0.786
7.13139	0.7795
7.16775	0.5767
7.20411	0.3178
7.24047	0.4141
7.27683	0.4707
7.31319	0.3799
7.34955	0.7066
7.38591	0.7737
7.42227	0.811
7.45863	0.7973
7.49499	0.7604
7.53135	0.7705
7.56771	0.721
7.60407	0.7407
7.64043	0.7858
7.67679	0.8476
7.71315	0.844
7.74951	0.8275
7.78587	0.844
7.82223	0.8508
7.85859	0.8547
7.89495	0.8723
7.93131	0.877
7.96767	0.8636
8.00403	0.7967
8.04039	0.7025
8.07675	0.7677
8.11311	0.8464
8.14947	0.858
8.18583	0.8024
8.22219	0.7553
8.25855	0.8429
8.29491	0.8615
8.33127	0.8616
8.36763	0.8719
8.40399	0.877
8.44035	0.8609
8.47671	0.844
8.51307	0.8302
8.54943	0.8045
8.58579	0.7545
8.62215	0.5888
8.65851	0.5121
8.69487	0.6249
8.73123	0.7367
8.76759	0.7601
8.80395	0.8104
8.84031	0.844
8.87667	0.8783
8.91303	0.887
8.94939	0.8803
8.98575	0.8806
9.02211	0.8747
9.05847	0.856
9.09483	0.862
9.13119	0.8219
9.16755	0.797
9.20391	0.8376
9.24027	0.8537
9.27663	0.848
9.31299	0.807
9.34935	0.745
9.38571	0.8217
9.42207	0.8688
9.45843	0.881
9.49479	0.884
9.53115	0.886
9.56751	0.8656
9.60387	0.8553
9.64023	0.7965
9.67659	0.7736
9.71295	0.8353
9.74931	0.8458
9.78567	0.7923
9.82203	0.6422
9.85839	0.6968
9.89475	0.7683
9.93111	0.7851
9.96747	0.8038
10.0038	0.8333
10.0402	0.868
10.0766	0.878
10.1129	0.8807
10.1493	0.8543
10.1856	0.824
10.222	0.8389
10.2584	0.8677
10.2947	0.8806
10.3311	0.8748
10.3674	0.8403
10.4038	0.801
10.4402	0.8018
10.4765	0.8007
10.5129	0.7865
10.5492	0.783
10.5856	0.822
10.622	0.8671
10.6583	0.8809
10.6947	0.8906
10.731	0.891
10.7674	0.8835
10.8037	0.8742
10.8401	0.8351
10.8765	0.7679
10.9128	0.6675
10.9492	0.6157
10.9855	0.5189
11.0219	0.5932
11.0583	0.7253
11.0946	0.8203
11.131	0.8589
11.1673	0.8775
11.2037	0.884
11.2401	0.8828
11.2764	0.875
11.3128	0.8818
11.3491	0.8987
11.3855	0.908
11.4219	0.9114
11.4582	0.9141
11.4946	0.916
11.5309	0.915
11.5673	0.9118
11.6037	0.8955
11.64	0.8828
11.6764	0.8667
11.7127	0.856
11.7491	0.8924
11.7855	0.9071
11.8218	0.9188
11.8582	0.92
11.8945	0.922
11.9309	0.922
11.9673	0.922
12.0036	0.9215
12.04	0.921
12.0763	0.917
12.1127	0.917
12.1491	0.914
12.1854	0.911
12.2218	0.9024
12.2581	0.899
12.2945	0.8902
12.3309	0.8739
12.3672	0.8414
12.4036	0.7685
12.4399	0.6359
12.4763	0.4855
12.5127	0.365
12.549	0.349
12.5854	0.4607
12.6217	0.6297
12.6581	0.7263
12.6945	0.748
12.7308	0.6956
12.7672	0.6804
12.8035	0.7428
12.8399	0.828
12.8763	0.8661
12.9126	0.8793
12.949	0.889
12.9853	0.8931
13.0217	0.896
13.0581	0.8812
13.0944	0.8554
13.1308	0.8311
13.1671	0.8255
13.2035	0.811
13.2399	0.8269
13.2762	0.8613
13.3126	0.8746
13.3489	0.884
13.3853	0.887
13.4217	0.893
13.458	0.888
13.4944	0.888
13.5307	0.8875
13.5671	0.887
13.6035	0.887
13.6398	0.884
13.6762	0.883
13.7125	0.8814
13.7489	0.881
13.7853	0.876
13.8216	0.8749
13.858	0.874
13.8943	0.869
13.9307	0.869
13.9671	0.8665
14.0034	0.863
14.0398	0.8594
14.0761	0.855
14.1125	0.8512
14.1489	0.85
14.1852	0.8496
14.2216	0.846
14.2579	0.8419
14.2943	0.837
14.3307	0.836
14.367	0.835
14.4034	0.831
14.4397	0.827
14.4761	0.822
14.5125	0.8171
14.5488	0.813
14.5852	0.808
14.6215	0.803
14.6579	0.7982
14.6943	0.7928
14.7306	0.788
14.767	0.786
14.8033	0.786
14.8397	0.78
14.8761	0.776
14.9124	0.772
14.9488	0.776
