Infrared Spectrum: PENTAERYTHRITOL, BIS(CYCLIC DECYL PHOSPHITE)
Formula: C25 H50 O6 P2
CAS: 5503-22-0
Class: COBLENTZ
Instrument: Not specified, most likely a prism, grating, or hybrid spectrometer.
Sampling: TRANSMISSION
Path length: SMEAR
Resolution: 4
Origin: TENNESSEE EASTMAN COMPANY, RESEARCH LABORATORIES
MICROMETERS	TRANSMITTANCE
1.993	0.904
2.03366	0.904
2.07432	0.909
2.11498	0.912
2.15564	0.917
2.1963	0.919
2.23696	0.917
2.27762	0.9
2.31828	0.887
2.35894	0.892
2.3996	0.897
2.44026	0.899
2.48092	0.902
2.52158	0.907
2.56224	0.909
2.6029	0.902
2.64356	0.907
2.68422	0.911
2.72488	0.911
2.76554	0.912
2.8062	0.909
2.84686	0.9
2.88752	0.892
2.92818	0.878
2.96884	0.876
3.0095	0.883
3.05017	0.89
3.09083	0.892
3.13149	0.895
3.17215	0.899
3.21281	0.899
3.25347	0.899
3.29413	0.88
3.33479	0.796
3.37545	0.143
3.41611	0.085
3.45677	0.141
3.49743	0.382
3.53809	0.762
3.57875	0.832
3.61941	0.864
3.66007	0.864
3.70073	0.873
3.74139	0.894
3.78205	0.899
3.82271	0.912
3.86337	0.916
3.90403	0.923
3.94469	0.929
3.98535	0.938
4.02601	0.94
4.06667	0.941
4.10733	0.941
4.14799	0.941
4.18865	0.943
4.22931	0.947
4.26997	0.938
4.31063	0.928
4.35129	0.933
4.39195	0.95
4.43261	0.953
4.47327	0.955
4.51393	0.955
4.55459	0.955
4.59525	0.955
4.63591	0.955
4.67657	0.953
4.71723	0.953
4.75789	0.948
4.79855	0.95
4.83921	0.95
4.87987	0.95
4.92053	0.95
4.96119	0.95
5.00185	0.962
5.04251	0.95
5.08317	0.95
5.12383	0.955
5.1645	0.955
5.20516	0.953
5.24582	0.953
5.28648	0.957
5.32714	0.96
5.3678	0.957
5.40846	0.96
5.44912	0.958
5.48978	0.95
5.53044	0.953
5.5711	0.945
5.61176	0.95
5.65242	0.94
5.69308	0.95
5.73374	0.931
5.7744	0.929
5.81506	0.933
5.85572	0.933
5.89638	0.914
5.93704	0.923
5.9777	0.921
6.01836	0.928
6.05902	0.921
6.09968	0.929
6.14034	0.924
6.181	0.931
6.22166	0.921
6.26232	0.914
6.30298	0.935
6.34364	0.929
6.3843	0.929
6.42496	0.923
6.46562	0.911
6.50628	0.911
6.54694	0.895
6.5876	0.888
6.62826	0.856
6.66892	0.806
6.70958	0.705
6.75024	0.538
6.7909	0.312
6.83156	0.403
6.87222	0.608
6.91288	0.745
6.95354	0.798
6.9942	0.844
7.03486	0.871
7.07552	0.88
7.11618	0.841
7.15684	0.678
7.1975	0.504
7.23817	0.475
7.27883	0.654
7.31949	0.699
7.36015	0.811
7.40081	0.83
7.44147	0.835
7.48213	0.844
7.52279	0.87
7.56345	0.876
7.60411	0.875
7.64477	0.861
7.68543	0.844
7.72609	0.835
7.76675	0.805
7.80741	0.798
7.84807	0.805
7.88873	0.793
7.92939	0.784
7.97005	0.776
8.01071	0.753
8.05137	0.782
8.09203	0.794
8.13269	0.796
8.17335	0.796
8.21401	0.801
8.25467	0.805
8.29533	0.762
8.33599	0.644
8.37665	0.512
8.41731	0.642
8.45797	0.654
8.49863	0.664
8.53929	0.668
8.57995	0.543
8.62061	0.323
8.66127	0.423
8.70193	0.61
8.74259	0.69
8.78325	0.717
8.82391	0.729
8.86457	0.731
8.90523	0.736
8.94589	0.74
8.98655	0.741
9.02721	0.726
9.06787	0.697
9.10853	0.641
9.14919	0.56
9.18985	0.43
9.23051	0.305
9.27117	0.242
9.31183	0.237
9.3525	0.223
9.39316	0.2
9.43382	0.155
9.47448	0.143
9.51514	0.141
9.5558	0.126
9.59646	0.099
9.63712	0.076
9.67778	0.064
9.71844	0.056
9.7591	0.039
9.79976	0.032
9.84042	0.032
9.88108	0.032
9.92174	0.039
9.9624	0.044
10.0031	0.052
10.0437	0.059
10.0844	0.063
10.125	0.063
10.1657	0.063
10.2064	0.097
10.247	0.129
10.2877	0.157
10.3283	0.182
10.369	0.205
10.4097	0.249
10.4503	0.314
10.491	0.388
10.5316	0.439
10.5723	0.494
10.613	0.531
10.6536	0.562
10.6943	0.577
10.7349	0.584
10.7756	0.586
10.8163	0.581
10.8569	0.565
10.8976	0.541
10.9382	0.545
10.9789	0.608
11.0196	0.658
11.0602	0.682
11.1009	0.692
11.1415	0.694
11.1822	0.694
11.2229	0.69
11.2635	0.69
11.3042	0.697
11.3448	0.707
11.3855	0.719
11.4262	0.728
11.4668	0.733
11.5075	0.736
11.5481	0.735
11.5888	0.704
11.6295	0.603
11.6701	0.458
11.7108	0.461
11.7514	0.553
11.7921	0.649
11.8328	0.683
11.8734	0.69
11.9141	0.685
11.9547	0.671
11.9954	0.651
12.0361	0.623
12.0767	0.598
12.1174	0.564
12.158	0.524
12.1987	0.476
12.2394	0.435
12.28	0.391
12.3207	0.345
12.3613	0.297
12.402	0.258
12.4427	0.237
12.4833	0.241
12.524	0.241
12.5647	0.237
12.6053	0.225
12.646	0.217
12.6866	0.208
12.7273	0.203
12.768	0.196
12.8086	0.191
12.8493	0.189
12.8899	0.184
12.9306	0.177
12.9713	0.17
13.0119	0.179
13.0526	0.194
13.0932	0.206
13.1339	0.213
13.1746	0.217
13.2152	0.215
13.2559	0.206
13.2965	0.182
13.3372	0.153
13.3779	0.124
13.4185	0.1
13.4592	0.075
13.4998	0.066
13.5405	0.061
13.5812	0.059
13.6218	0.059
13.6625	0.07
13.7031	0.083
13.7438	0.117
13.7845	0.152
13.8251	0.215
13.8658	0.259
13.9064	0.328
13.9471	0.4
13.9878	0.463
14.0284	0.512
14.0691	0.569
14.1097	0.606
14.1504	0.644
14.1911	0.673
14.2317	0.697
14.2724	0.705
14.313	0.721
14.3537	0.728
14.3944	0.731
14.435	0.733
14.4757	0.733
14.5163	0.728
14.557	0.719
14.5977	0.702
14.6383	0.687
14.679	0.673
14.7196	0.652
14.7603	0.634
14.801	0.627
14.8416	0.629
14.8823	0.642
14.9229	0.664
14.9636	0.699
15.0043	0.728
15.0449	0.738
15.0856	0.741
15.1262	0.741
15.1669	0.74
15.2076	0.74
15.2482	0.741
15.2889	0.741
15.3295	0.738
15.3702	0.735
15.4109	0.731
15.4515	0.731
15.4922	0.728
15.5328	0.724
15.5735	0.724
15.6142	0.721
15.6548	0.719
15.6955	0.717
15.7361	0.712
15.7768	0.709
15.8175	0.704
15.8581	0.704
15.8988	0.705
15.9394	0.704
