Infrared Spectrum: 2-Pyrimidinecarbamonitrile, 4,6-dihydroxy- (keto form)
Formula: C5 H4 N4 O2
CAS: 55067-10-2
State: SOLID (SPLIT MULL), FLUOROLUBE FOR 3800-1330 CM^-^1, NUJOL FOR 1330-400 CM^-^1
Class: COBLENTZ III
Instrument: DOW KBr FOREPRISM-GRATING
Instrument parameters: BLAZED AT 3.5, 12.0, 20.0 MICRON AND CHANGED AT 5.0, 7.5, 14.9 MICRON
Sampling: TRANSMISSION
Resolution: 2
Origin: DOW CHEMICAL COMPANY
1/CM	TRANSMITTANCE
3796	0.7558
3787	0.7558
3778	0.7569
3769	0.7621
3760	0.7649
3751	0.7651
3742	0.7664
3733	0.7684
3724	0.771
3715	0.7738
3706	0.7751
3697	0.7761
3688	0.7789
3679	0.7824
3670	0.7856
3661	0.7872
3652	0.789
3643	0.79
3634	0.7908
3625	0.7907
3616	0.7904
3607	0.7898
3598	0.788
3589	0.7862
3580	0.7825
3571	0.7801
3562	0.7815
3553	0.783
3544	0.7841
3535	0.785
3526	0.7854
3517	0.7857
3508	0.7856
3499	0.7851
3490	0.7843
3481	0.7808
3472	0.7751
3463	0.7687
3454	0.7592
3445	0.7488
3436	0.7365
3427	0.7231
3418	0.7099
3409	0.6975
3400	0.6857
3391	0.6722
3382	0.6598
3373	0.6538
3364	0.6485
3355	0.6439
3346	0.6395
3337	0.6362
3328	0.6348
3319	0.6341
3310	0.6365
3301	0.6407
3292	0.6448
3283	0.6478
3274	0.65
3265	0.6505
3256	0.6495
3247	0.6468
3238	0.6375
3229	0.6235
3220	0.611
3211	0.5972
3202	0.5832
3193	0.569
3184	0.5546
3175	0.54
3166	0.5225
3157	0.5036
3148	0.484
3139	0.4646
3130	0.4447
3121	0.4298
3112	0.4109
3103	0.372
3094	0.3806
3085	0.3948
3076	0.401
3067	0.4036
3058	0.403
3049	0.4003
3040	0.3966
3031	0.3922
3022	0.3862
3013	0.3774
3004	0.3636
2995	0.34
2986	0.3221
2977	0.301
2968	0.2805
2959	0.2582
2950	0.2411
2941	0.2303
2932	0.2227
2923	0.2179
2914	0.2208
2905	0.229
2896	0.2372
2887	0.2453
2878	0.2516
2869	0.2575
2860	0.262
2851	0.265
2842	0.2721
2833	0.2823
2824	0.2851
2815	0.2829
2806	0.2803
2797	0.2776
2788	0.2765
2779	0.2809
2770	0.289
2761	0.2996
2752	0.3117
2743	0.3255
2734	0.3416
2725	0.3604
2716	0.3786
2707	0.3956
2698	0.4118
2689	0.427
2680	0.4402
2671	0.4512
2662	0.4617
2653	0.4693
2644	0.477
2635	0.4855
2626	0.4943
2617	0.5023
2608	0.5065
2599	0.5102
2590	0.5131
2581	0.5152
2572	0.519
2563	0.5283
2554	0.5386
2545	0.5458
2536	0.5512
2527	0.5541
2518	0.557
2509	0.5588
2500	0.5604
2491	0.562
2482	0.5636
2473	0.5651
2464	0.5669
2455	0.5688
2446	0.5708
2437	0.5733
2428	0.576
2419	0.579
2410	0.5807
2401	0.5823
2392	0.5839
2383	0.5846
2374	0.585
2365	0.585
2356	0.5847
2347	0.5836
2338	0.5831
2329	0.5833
2320	0.6045
2311	0.6248
2302	0.6379
2293	0.6496
2284	0.6621
2275	0.6756
2266	0.6871
2257	0.6921
2248	0.6914
2239	0.4635
2230	0.1513
2221	0.0978
2212	0.2212
2203	0.353
2194	0.4462
2185	0.484
2176	0.5246
2167	0.5604
2158	0.6122
2149	0.6497
2140	0.6822
2131	0.7141
2122	0.7321
2113	0.7428
2104	0.7526
2095	0.7608
2086	0.7694
2077	0.7794
2068	0.7861
2059	0.7928
2050	0.7986
2041	0.8028
2032	0.8058
2023	0.8088
2014	0.8121
2005	0.8158
1996	0.8213
1987	0.8378
1978	0.846
1969	0.8458
1960	0.8417
1951	0.8427
1942	0.8437
1933	0.8443
1924	0.8441
1915	0.8415
1906	0.8358
1897	0.8368
1888	0.838
1879	0.8383
1870	0.8393
1861	0.8421
1852	0.8468
1843	0.8518
1834	0.8575
1825	0.857
1816	0.8563
1807	0.8666
1798	0.8759
1789	0.875
1780	0.8549
1771	0.8281
1762	0.7728
1753	0.6806
1744	0.5798
1735	0.5287
1726	0.4731
1717	0.3845
1708	0.3239
1699	0.2032
1690	0.1552
1681	0.0976
1672	0.0852
1663	0.1163
1654	0.1215
1645	0.0762
1636	0.0595
1627	0.0686
1618	0.0864
1609	0.0989
1600	0.1342
1591	0.1694
1582	0.204
1573	0.2408
1564	0.2409
1555	0.2254
1546	0.2124
1537	0.2033
1528	0.1984
1519	0.1981
1510	0.1996
1501	0.2016
1492	0.2302
1483	0.2619
1474	0.2704
1465	0.2685
1456	0.2818
1447	0.2938
1438	0.3449
1429	0.3962
1420	0.4324
1411	0.4487
1402	0.403
1393	0.3555
1384	0.2819
1375	0.212
1366	0.2116
1357	0.1613
1348	0.1173
1339	0.0967
1330	0.0936
1321	0.1211
1312	0.1409
1303	0.1793
1294	0.1914
1285	0.1603
1276	0.1496
1267	0.1563
1258	0.1779
1249	0.2431
1240	0.3013
1231	0.3148
1222	0.2942
1213	0.2868
1204	0.2935
1195	0.3008
1186	0.307
1177	0.2197
1168	0.2115
1159	0.2521
1150	0.2778
1141	0.3034
1132	0.3264
1123	0.3457
1114	0.3648
1105	0.3853
1096	0.4
1087	0.3764
1078	0.3956
1069	0.41
1060	0.4215
1051	0.4317
1042	0.4444
1033	0.3887
1024	0.4062
1015	0.4699
1006	0.4826
997	0.305
988	0.3852
979	0.3945
970	0.4228
961	0.4453
952	0.4681
943	0.4903
934	0.5103
925	0.5283
916	0.5458
907	0.5574
898	0.5586
889	0.5562
880	0.561
871	0.5521
862	0.5217
853	0.4827
844	0.333
835	0.296
826	0.3138
817	0.4221
808	0.4862
799	0.5049
790	0.4916
781	0.6507
772	0.6583
763	0.6631
754	0.6725
745	0.3828
736	0.5688
727	0.6366
718	0.6761
709	0.7218
700	0.7501
691	0.7638
682	0.7564
673	0.6343
664	0.6736
655	0.7443
646	0.7621
637	0.7535
628	0.7101
619	0.8837
610	0.8839
601	0.8848
592	0.8928
583	0.8832
574	0.5066
565	0.7132
556	0.7491
547	0.7264
538	0.611
529	0.4016
520	0.7553
511	0.813
502	0.7495
493	0.586
484	0.8157
475	0.8228
466	0.7422
457	0.609
448	0.6282
439	0.623
430	0.5871
421	0.5326
412	0.5236
403	0.5204
394	0.5159
385	0.5059
