Infrared Spectrum: DIETHOXYMETHYLVINYLSILANE
Formula: C7 H16 O2 Si
CAS: 5507-44-8
State: SOLUTION (5% IN CCl4 FOR 3800-1328, 2% IN CS2 FOR 1328-600, AND 5% IN CCl4 FOR 600-250 CM^-^1)
Boiling point: 129 C AT 739 mmHg
Class: COBLENTZ III
Instrument: PERKIN-ELMER 521 (GRATING)
Instrument parameters: FILTERS AT 3150, 2500, 2000, 1150, 700, 410. GRATING CHANGES: 2000, 630 CM^-^1
Sampling: TRANSMISSION
Path length: 0.011 CM, 0.011 CM, AND 0.021 CM
Resolution: 2
Origin: DOW CORNING CORP.
1/CM	TRANSMITTANCE
250.863	0.891
260.069	0.852
269.275	0.833
278.481	0.823
287.687	0.79
296.893	0.783
306.099	0.779
315.305	0.761
324.511	0.746
333.717	0.74
342.923	0.739
352.129	0.741
361.335	0.74
370.541	0.736
379.747	0.719
388.953	0.697
398.159	0.684
407.365	0.676
416.571	0.663
425.777	0.626
434.983	0.608
444.189	0.623
453.395	0.673
462.601	0.733
471.807	0.788
481.013	0.803
490.219	0.811
499.425	0.806
508.631	0.779
517.837	0.711
527.043	0.556
536.249	0.415
545.455	0.611
554.661	0.758
563.867	0.818
573.072	0.852
582.278	0.865
591.484	0.871
600.69	0.872
609.896	0.872
619.102	0.872
628.308	0.872
637.514	0.872
646.72	0.872
655.926	0.872
665.132	0.873
674.338	0.868
683.544	0.853
692.75	0.806
701.956	0.778
711.162	0.785
720.368	0.794
729.574	0.805
738.78	0.81
747.986	0.767
757.192	0.631
766.398	0.391
775.604	0.605
784.81	0.626
794.016	0.443
803.222	0.373
812.428	0.446
821.634	0.449
830.84	0.706
840.046	0.798
849.252	0.826
858.458	0.846
867.664	0.852
876.87	0.852
886.076	0.858
895.282	0.858
904.488	0.842
913.694	0.825
922.9	0.768
932.106	0.643
941.312	0.529
950.518	0.43
959.724	0.465
968.93	0.724
978.136	0.805
987.342	0.803
996.548	0.746
1005.75	0.529
1014.96	0.725
1024.17	0.724
1033.37	0.681
1042.58	0.633
1051.78	0.558
1060.99	0.478
1070.2	0.3
1079.4	0.182
1088.61	0.285
1097.81	0.246
1107.02	0.229
1116.23	0.353
1125.43	0.521
1134.64	0.647
1143.84	0.681
1153.05	0.651
1162.26	0.574
1171.46	0.719
1180.67	0.799
1189.87	0.825
1199.08	0.838
1208.29	0.848
1217.49	0.844
1226.7	0.837
1235.9	0.818
1245.11	0.783
1254.32	0.466
1263.52	0.792
1272.73	0.818
1281.93	0.819
1291.14	0.805
1300.35	0.846
1309.55	0.858
1318.76	0.858
1327.96	0.744
1337.17	0.741
1346.38	0.737
1355.58	0.714
1364.79	0.655
1373.99	0.638
1383.2	0.514
1392.41	0.384
1401.61	0.43
1410.82	0.488
1420.02	0.641
1429.23	0.646
1438.44	0.6
1447.64	0.635
1456.85	0.672
1466.05	0.733
1475.26	0.729
1484.47	0.72
1493.67	0.785
1502.88	0.799
1512.08	0.811
1521.29	0.816
1530.49	0.817
1539.7	0.83
1548.91	0.838
1558.11	0.837
1567.32	0.825
1576.52	0.823
1585.73	0.81
1594.94	0.678
1604.14	0.806
1613.35	0.817
1622.55	0.822
1631.76	0.822
1640.97	0.825
1650.17	0.826
1659.38	0.826
1668.58	0.829
1677.79	0.83
1687	0.831
1696.2	0.831
1705.41	0.831
1714.61	0.831
1723.82	0.831
1733.03	0.832
1742.23	0.839
1751.44	0.839
1760.64	0.838
1769.85	0.838
1779.06	0.832
1788.26	0.832
1797.47	0.832
1806.67	0.834
1815.88	0.832
1825.09	0.836
1834.29	0.836
1843.5	0.839
1852.7	0.84
1861.91	0.84
1871.12	0.836
1880.32	0.833
1889.53	0.833
1898.73	0.832
1907.94	0.831
1917.15	0.821
1926.35	0.822
1935.56	0.832
1944.76	0.852
1953.97	0.854
1963.18	0.855
1972.38	0.855
1981.59	0.856
1990.79	0.856
2000	0.863
2009.21	0.866
2018.41	0.866
2027.62	0.87
2036.82	0.876
2046.03	0.876
2055.24	0.875
2064.44	0.873
2073.65	0.873
2082.85	0.875
2092.06	0.875
2101.27	0.873
2110.47	0.8752
2119.68	0.8746
2128.88	0.87
2138.09	0.868
2147.3	0.8647
2156.5	0.8637
2165.71	0.8627
2174.91	0.863
2184.12	0.865
2193.33	0.8684
2202.53	0.8714
2211.74	0.872
2220.94	0.872
2230.15	0.873
2239.36	0.873
2248.56	0.873
2257.77	0.873
2266.97	0.8755
2276.18	0.878
2285.39	0.878
2294.59	0.878
2303.8	0.8796
2313	0.881
2322.21	0.883
2331.42	0.884
2340.62	0.884
2349.83	0.887
2359.03	0.887
2368.24	0.884
2377.45	0.879
2386.65	0.8753
2395.86	0.871
2405.06	0.871
2414.27	0.872
2423.48	0.872
2432.68	0.873
2441.89	0.873
2451.09	0.873
2460.3	0.873
2469.51	0.873
2478.71	0.873
2487.92	0.873
2497.12	0.873
2506.33	0.873
2515.54	0.873
2524.74	0.875
2533.95	0.873
2543.15	0.872
2552.36	0.872
2561.57	0.872
2570.77	0.866
2579.98	0.868
2589.18	0.871
2598.39	0.8678
2607.6	0.864
2616.8	0.863
2626.01	0.8612
2635.21	0.8622
2644.42	0.863
2653.63	0.863
2662.83	0.863
2672.04	0.863
2681.24	0.862
2690.45	0.8607
2699.66	0.857
2708.86	0.8537
2718.07	0.8396
2727.27	0.8166
2736.48	0.8001
2745.69	0.8261
2754.89	0.8278
2764.1	0.822
2773.3	0.8277
2782.51	0.833
2791.72	0.83
2800.92	0.822
2810.13	0.8124
2819.33	0.8034
2828.54	0.7923
2837.74	0.7568
2846.95	0.7218
2856.16	0.6728
2865.36	0.5805
2874.57	0.4558
2883.77	0.3717
2892.98	0.3943
2902.19	0.4224
2911.39	0.4604
2920.6	0.4411
2929.8	0.4015
2939.01	0.4759
2948.22	0.517
2957.42	0.4665
2966.63	0.3339
2975.83	0.1545
2985.04	0.2431
2994.25	0.3877
3003.45	0.6467
3012.66	0.6989
3021.86	0.7277
3031.07	0.7775
3040.28	0.7821
3049.48	0.7584
3058.69	0.681
3067.89	0.756
3077.1	0.8241
3086.31	0.849
3095.51	0.853
3104.72	0.855
3113.92	0.855
3123.13	0.856
3132.34	0.8573
3141.54	0.864
3150.75	0.862
3159.95	0.862
3169.16	0.861
3178.37	0.86
3187.57	0.86
3196.78	0.862
3205.98	0.863
3215.19	0.863
3224.4	0.864
3233.6	0.866
3242.81	0.866
3252.01	0.866
3261.22	0.868
3270.43	0.8694
3279.63	0.871
3288.84	0.871
3298.04	0.871
3307.25	0.872
3316.46	0.872
3325.66	0.872
3334.87	0.872
3344.07	0.8715
3353.28	0.8705
3362.49	0.869
3371.69	0.868
3380.9	0.8654
3390.1	0.865
3399.31	0.865
3408.52	0.865
3417.72	0.865
3426.93	0.8657
3436.13	0.869
3445.34	0.869
3454.55	0.8666
3463.75	0.8653
3472.96	0.8642
3482.16	0.8632
3491.37	0.862
3500.58	0.861
3509.78	0.861
3518.99	0.861
3528.19	0.8639
3537.4	0.8659
3546.61	0.869
3555.81	0.8729
3565.02	0.878
3574.22	0.881
3583.43	0.883
3592.64	0.883
3601.84	0.881
3611.05	0.879
3620.25	0.8759
3629.46	0.8619
3638.67	0.8559
3647.87	0.8562
3657.08	0.8774
3666.28	0.8831
3675.49	0.8893
3684.7	0.8907
3693.9	0.888
3703.11	0.887
3712.31	0.891
3721.52	0.894
3730.73	0.897
3739.93	0.901
3749.14	0.904
3758.34	0.9014
3767.55	0.895
3776.76	0.895
3785.96	0.894
3795.17	0.894
3804.37	0.894
3813.58	0.894
