Infrared Spectrum: 2,2,5,5-Tetramethylhexanol
Formula: C 10 H 22 O
CAS: 55073-86-4
State: gas
Instrument: HP-GC/MS/IRD
Origin: NIST Mass Spectrometry Data Center
1/CM	ABSORBANCE
550	0.0005452
562	0.0005405
574	0.0002397
586	0.0002538
598	0.0001081
610	0.0001034
622	8.46e-05
634	9.87e-05
646	0.0001081
658	7.99e-05
670	5.64e-05
682	9.4e-05
694	0.0001786
706	9.87e-05
718	0.0001457
730	0.000235
742	0.0002914
754	0.0001739
766	0.0002115
778	0.0002303
790	0.0001739
802	0.000235
814	0.0002021
826	0.0003055
838	0.0005828
850	0.0008695
862	0.0007191
874	0.0008225
886	0.0014617
898	0.0014711
910	0.0011186
922	0.0010763
934	0.0009541
946	0.0008225
958	0.0010528
970	0.0020774
982	0.0037647
994	0.0037882
1006	0.0026837
1018	0.0018753
1030	0.0017813
1042	0.0024534
1054	0.0036989
1066	0.0047
1078	0.0040138
1090	0.0024769
1102	0.0015416
1114	0.0012831
1126	0.0014147
1138	0.0018283
1150	0.0022043
1162	0.0023829
1174	0.0025098
1186	0.0026038
1198	0.0025756
1210	0.0027166
1222	0.0032289
1234	0.0042911
1246	0.004183
1258	0.0025098
1270	0.0016685
1282	0.0014617
1294	0.0015369
1306	0.0016544
1318	0.0014899
1330	0.0013301
1342	0.0017249
1354	0.0038164
1366	0.0087655
1378	0.0073367
1390	0.0047047
1402	0.0041031
1414	0.001645
1426	0.0012549
1438	0.0015557
1450	0.0022701
1462	0.0041736
1474	0.006768
1486	0.0053956
1498	0.0017484
1510	0.0007614
1522	0.0004653
1534	0.0003337
1546	0.0002632
1558	0.0002209
1570	0.0001692
1582	0.0001269
1594	0.0001363
1606	0.0001269
1618	0.000141
1630	0.0001034
1642	0.0001081
1654	0.0001222
1666	0.0001081
1678	7.52e-05
1690	8.46e-05
1702	7.52e-05
1714	9.4e-05
1726	6.11e-05
1738	7.52e-05
1750	6.11e-05
1762	6.11e-05
1774	6.58e-05
1786	4.7e-05
1798	4.7e-05
1810	4.7e-05
1822	7.05e-05
1834	5.64e-05
1846	5.64e-05
1858	5.64e-05
1870	5.64e-05
1882	7.05e-05
1894	3.29e-05
1906	2.82e-05
1918	6.11e-05
1930	4.23e-05
1942	5.17e-05
1954	3.76e-05
1966	4.7e-05
1978	7.52e-05
1990	4.23e-05
2002	4.23e-05
2014	2.35e-05
2026	3.29e-05
2038	1.88e-05
2050	4.23e-05
2062	3.76e-05
2074	2.82e-05
2086	3.76e-05
2098	4.23e-05
2110	3.76e-05
2122	3.29e-05
2134	3.76e-05
2146	3.29e-05
2158	3.76e-05
2170	1.41e-05
2182	1.88e-05
2194	2.82e-05
2206	9.4e-06
2218	0
2230	3.29e-05
2242	2.35e-05
2254	4.23e-05
2266	4.23e-05
2278	4.23e-05
2290	7.52e-05
2302	8.46e-05
2314	1.41e-05
2326	4.23e-05
2338	5.64e-05
2350	5.64e-05
2362	0.0001034
2374	0.0001034
2386	7.05e-05
2398	9.4e-05
2410	8.46e-05
2422	7.52e-05
2434	8.46e-05
2446	4.23e-05
2458	5.64e-05
2470	5.64e-05
2482	8.93e-05
2494	6.11e-05
2506	7.99e-05
2518	9.4e-05
2530	0.0001363
2542	0.0001175
2554	0.0001175
2566	0.0001457
2578	0.0001128
2590	0.000141
2602	0.0001833
2614	0.0002303
2626	0.0002162
2638	0.0002444
2650	0.0003055
2662	0.0003431
2674	0.0003666
2686	0.0004371
2698	0.0004465
2710	0.0005123
2722	0.0006862
2734	0.0007097
2746	0.0006862
2758	0.0007097
2770	0.0006627
2782	0.0007191
2794	0.0008601
2806	0.0011139
2818	0.0013771
2830	0.0018048
2842	0.0025944
2854	0.0043334
2866	0.0089864
2878	0.0139825
2890	0.0138885
2902	0.0139073
2914	0.015651
2926	0.0165863
2938	0.0217516
2950	0.0341079
2962	0.047
2974	0.0313255
2986	0.0120038
2998	0.0041595
3010	0.0019552
3022	0.001269
3034	0.0009541
3046	0.0007708
3058	0.0006674
3070	0.0005734
3082	0.0005499
3094	0.0005311
3106	0.0004982
3118	0.0004794
3130	0.0004559
3142	0.0004277
3154	0.0004747
3166	0.0004935
3178	0.0005029
3190	0.0005264
3202	0.0004888
3214	0.0004465
3226	0.0003619
3238	0.0002867
3250	0.0002538
3262	0.0001927
3274	0.0001175
3286	0.0001128
3298	7.99e-05
3310	7.05e-05
3322	7.99e-05
3334	0.0001034
3346	0.0001128
3358	0.0001316
3370	0.0001739
3382	9.87e-05
3394	0.0001081
3406	0.0001222
3418	7.99e-05
3430	0.0001034
3442	0.0001128
3454	7.99e-05
3466	6.11e-05
3478	8.46e-05
3490	9.4e-05
3502	6.11e-05
3514	3.76e-05
3526	3.29e-05
3538	0
3550	5.17e-05
3562	4.7e-05
3574	1.88e-05
3586	5.64e-05
3598	6.11e-05
3610	0.0001269
3622	0.0002068
3634	0.0004606
3646	0.0010246
3658	0.0016074
3670	0.0011844
3682	0.0005828
3694	0.0002961
3706	0.0001363
3718	7.99e-05
3730	0.0001034
3742	7.05e-05
3754	7.05e-05
3766	6.58e-05
3778	9.4e-05
3790	7.52e-05
3802	0.0001692
3814	0.0001692
3826	0.0001692
3838	0.0001739
