Infrared Spectrum: 5-Chloropentyl benzoate
Formula: C 12 H 15 Cl O 2
CAS: 55092-47-2
State: gas
Origin: EPA-IR VAPOR PHASE LIBRARY
1/CM	ABSORBANCE
549.8	0.00021158
559.445	0.0004628
569.09	0.0004274
578.734	0.0004124
588.379	0.00026802
598.024	0.0006888
607.669	0.000619
617.313	0.001368
626.958	0.0010026
636.603	0.001508
646.248	0.003288
655.893	0.005788
665.537	0.008688
675.182	0.011598
684.827	0.011158
694.472	0.017838
704.116	0.037668
713.761	0.039518
723.406	0.019858
733.051	0.011648
742.695	0.009358
752.34	0.007168
761.985	0.005378
771.63	0.003348
781.275	0.003148
790.919	0.003158
800.564	0.003258
810.209	0.003458
819.854	0.003408
829.498	0.003518
839.143	0.003358
848.788	0.003508
858.433	0.003028
868.078	0.002578
877.722	0.002738
887.367	0.002508
897.012	0.002668
906.657	0.002588
916.301	0.002628
925.946	0.003258
935.591	0.003648
945.236	0.004378
954.88	0.005168
964.525	0.005788
974.17	0.005418
983.815	0.004948
993.46	0.004148
1003.1	0.004408
1012.75	0.005668
1022.39	0.018468
1032.04	0.016728
1041.68	0.007088
1051.33	0.009328
1060.97	0.019268
1070.62	0.022698
1080.26	0.022538
1089.91	0.048358
1099.55	0.069668
1109.2	0.088438
1118.84	0.051718
1128.49	0.020168
1138.13	0.011538
1147.78	0.009058
1157.42	0.008488
1167.07	0.010468
1176.71	0.025568
1186.36	0.012128
1196	0.006808
1205.64	0.006818
1215.29	0.009498
1224.93	0.016558
1234.58	0.034048
1244.22	0.047938
1253.87	0.080438
1263.51	0.181068
1273.16	0.173088
1282.8	0.061428
1292.45	0.031188
1302.09	0.023998
1311.74	0.025418
1321.38	0.017828
1331.03	0.010548
1340.67	0.007178
1350.32	0.006008
1359.96	0.005648
1369.61	0.005568
1379.25	0.006858
1388.9	0.008148
1398.54	0.005508
1408.18	0.003748
1417.83	0.003768
1427.47	0.004738
1437.12	0.007878
1446.76	0.014438
1456.41	0.016508
1466.05	0.010588
1475.7	0.007158
1485.34	0.004808
1494.99	0.003528
1504.63	0.002688
1514.28	0.002338
1523.92	0.001998
1533.57	0.001928
1543.21	0.002168
1552.86	0.002248
1562.5	0.002308
1572.15	0.002968
1581.79	0.004248
1591.44	0.004478
1601.08	0.005848
1610.73	0.004078
1620.37	0.002468
1630.01	0.002118
1639.66	0.002438
1649.3	0.002118
1658.95	0.001758
1668.59	0.002028
1678.24	0.002848
1687.88	0.004128
1697.53	0.005708
1707.17	0.007568
1716.82	0.015338
1726.46	0.041728
1736.11	0.099938
1745.75	0.093128
1755.4	0.031028
1765.04	0.011048
1774.69	0.006678
1784.33	0.005468
1793.98	0.004488
1803.62	0.003678
1813.27	0.003168
1822.91	0.002058
1832.55	0.001458
1842.2	0.001238
1851.84	0.0011566
1861.49	0.0010934
1871.13	0.0011431
1880.78	0.001268
1890.42	0.001538
1900.07	0.001918
1909.71	0.002138
1919.36	0.002018
1929	0.001528
1938.65	0.001378
1948.29	0.001658
1957.94	0.001888
1967.58	0.001758
1977.23	0.001238
1986.87	0.0009159
1996.52	0.0008556
2006.16	0.0008025
2015.81	0.0007981
2025.45	0.0009253
2035.1	0.0008712
2044.74	0.0009497
2054.38	0.0009498
2064.03	0.0010695
2073.67	0.0011003
2083.32	0.0010727
2092.96	0.0009903
2102.61	0.0009467
2112.25	0.0007715
2121.9	0.0007858
2131.54	0.0007232
2141.19	0.0006227
2150.83	0.0006806
2160.48	0.0006003
2170.12	0.0007058
2179.77	0.000522
2189.41	0.000739
2199.06	0.0007148
2208.7	0.0006819
2218.35	0.0006993
2227.99	0.0007407
2237.64	0.0006269
2247.28	0.0007075
2256.92	0.0006117
2266.57	0.0005701
2276.21	0.000582
2285.86	0.0005141
2295.5	0.0005023
2305.15	0.0006156
2314.79	0.0007082
2324.44	0.0007754
2334.08	0.0008611
2343.73	0.0008127
2353.37	0.0008104
2363.02	0.0008465
2372.66	0.0008107
2382.31	0.0007575
2391.95	0.0007195
2401.6	0.0005394
2411.24	0.0005803
2420.89	0.0004355
2430.53	0.0005222
2440.18	0.0004663
2449.82	0.000512
2459.47	0.0005072
2469.11	0.0005757
2478.75	0.0004707
2488.4	0.0005049
2498.04	0.0006133
2507.69	0.0006417
2517.33	0.0005477
2526.98	0.0006962
2536.62	0.0006371
2546.27	0.0005501
2555.91	0.0005744
2565.56	0.0005664
2575.2	0.000564
2584.85	0.0005163
2594.49	0.0004839
2604.14	0.0006909
2613.78	0.0005331
2623.43	0.0005609
2633.07	0.000556
2642.72	0.0005678
2652.36	0.0006047
2662.01	0.0005545
2671.65	0.0005114
2681.29	0.0006035
2690.94	0.000667
2700.58	0.0008071
2710.23	0.0007985
2719.87	0.0008736
2729.52	0.0007675
2739.16	0.0008605
2748.81	0.0010736
2758.45	0.0009713
2768.1	0.0009971
2777.74	0.0010153
2787.39	0.000978
2797.03	0.0010212
2806.68	0.0011767
2816.32	0.001428
2825.97	0.001978
2835.61	0.002718
2845.26	0.004148
2854.9	0.006698
2864.55	0.008438
2874.19	0.009978
2883.84	0.009708
2893.48	0.009378
2903.12	0.011818
2912.77	0.014008
2922.41	0.017018
2932.06	0.020358
2941.7	0.026088
2951.35	0.031518
2960.99	0.033638
2970.64	0.026358
2980.28	0.016698
2989.93	0.012598
2999.57	0.010728
3009.22	0.005828
3018.86	0.004068
3028.51	0.004048
3038.15	0.005058
3047.8	0.006118
3057.44	0.005988
3067.09	0.009338
3076.73	0.012058
3086.38	0.006558
3096.02	0.005478
3105.67	0.003678
3115.31	0.002208
3124.95	0.001228
3134.6	0.0007583
3144.24	0.0006109
3153.89	0.0007665
3163.53	0.0008751
3173.18	0.0007487
3182.82	0.000548
3192.47	0.000558
3202.11	0.0005318
3211.76	0.000412
3221.4	0.0004089
3231.05	0.0003436
3240.69	0.0003604
3250.34	0.0003393
3259.98	0.0003247
3269.63	0.0003291
3279.27	0.0005298
3288.92	0.0003616
3298.56	0.0003916
3308.21	0.0001812
3317.85	0.00025345
3327.49	0.0005496
3337.14	0.0004903
3346.78	0.00029156
3356.43	0.0004522
3366.07	0.00021346
3375.72	0.00022903
3385.36	0.0004105
3395.01	0.0006732
3404.65	0.00022179
3414.3	0.00029712
3423.94	0.0003214
3433.59	0.0006001
3443.23	0.0005724
3452.88	0.001298
3462.52	0.001398
3472.17	0.0008885
3481.81	0.0004661
3491.46	0.0005905
3501.1	0.00028284
3510.75	0.0003554
3520.39	0.0003371
3530.04	0.00028622
3539.68	0.0005611
3549.32	0.0004406
3558.97	0.0004146
3568.61	0.0003584
3578.26	0.00023137
3587.9	0.0003703
3597.55	0
3607.19	0.00024188
3616.84	0.000142
3626.48	0.0001689
3636.13	0.0003502
3645.77	0.0002873
3655.42	0.0004442
3665.06	0.0004691
3674.71	0.00022883
3684.35	0.0003873
3694	0.000356
3703.64	0.00023965
3713.29	0.0003844
3722.93	0.0003872
3732.58	0.000359
3742.22	0.00025946
3751.86	0.0001493
3761.51	0.0003937
3771.15	0.0003006
3780.8	0.0003387
3790.44	0.0005044
3800.09	0.0003959
3809.73	0.0004235
3819.38	0.0004103
3829.02	0.0003812
3838.67	0.00029726
3848.31	0.0004016
3857.96	0.0004414
3867.6	0.0003357
3877.25	0.0002535
3886.89	0.0004536
3896.54	0.0005899
3906.18	0.00022866
3915.83	0.00022132
3925.47	0.00028656
3935.12	0.000489
3944.76	0.0004524
3954.41	0.0004712
3964.05	0.0004259
3973.69	0.0005939
3983.34	0.0004141
3992.98	0.0005258
