Infrared Spectrum: 2,6-Difluoroaniline
Formula: C 6 H 5 F 2 N
CAS: 5509-65-9
State: gas
Origin: EPA-IR VAPOR PHASE LIBRARY
1/CM	ABSORBANCE
549.8	0.009553
559.445	0.009883
569.09	0.010513
578.735	0.010603
588.38	0.010053
598.025	0.010533
607.67	0.011063
617.315	0.012313
626.96	0.013753
636.605	0.014873
646.251	0.014953
655.896	0.014603
665.541	0.014353
675.186	0.017623
684.831	0.028043
694.476	0.036783
704.121	0.053243
713.766	0.043553
723.411	0.033903
733.056	0.024333
742.701	0.025563
752.346	0.034793
761.991	0.057443
771.636	0.033793
781.281	0.022203
790.926	0.011253
800.571	0.008453
810.216	0.007233
819.861	0.006283
829.507	0.005903
839.152	0.005413
848.797	0.004723
858.442	0.004193
868.087	0.003943
877.732	0.004133
887.377	0.003953
897.022	0.004173
906.667	0.004623
916.312	0.006813
925.957	0.016173
935.602	0.039933
945.247	0.056163
954.892	0.052323
964.537	0.027223
974.182	0.014223
983.827	0.010313
993.472	0.009063
1003.12	0.008763
1012.76	0.008283
1022.41	0.007803
1032.05	0.007933
1041.7	0.010193
1051.34	0.012803
1060.99	0.012323
1070.63	0.008153
1080.28	0.005863
1089.92	0.006013
1099.57	0.006703
1109.21	0.008083
1118.86	0.015403
1128.5	0.021423
1138.15	0.022663
1147.79	0.022043
1157.44	0.056143
1167.08	0.084743
1176.73	0.079263
1186.37	0.035053
1196.02	0.016723
1205.66	0.008473
1215.31	0.004293
1224.95	0.005173
1234.6	0.010363
1244.24	0.013713
1253.89	0.013303
1263.53	0.011443
1273.18	0.024433
1282.82	0.050263
1292.47	0.056303
1302.11	0.044643
1311.76	0.022553
1321.4	0.012323
1331.05	0.004973
1340.69	0.002563
1350.34	0.0016456
1359.98	0.0015195
1369.63	0.0015506
1379.27	0.001793
1388.92	0.001903
1398.56	0.001973
1408.21	0.002143
1417.85	0.002703
1427.5	0.003543
1437.14	0.004423
1446.79	0.006133
1456.43	0.013273
1466.08	0.042413
1475.73	0.075303
1485.37	0.086553
1495.02	0.092013
1504.66	0.096903
1514.31	0.100213
1523.95	0.069293
1533.6	0.040343
1543.24	0.020103
1552.89	0.015873
1562.53	0.016363
1572.18	0.020263
1581.82	0.033023
1591.47	0.055763
1601.11	0.059353
1610.76	0.034613
1620.4	0.022973
1630.05	0.032333
1639.69	0.036693
1649.34	0.029233
1658.98	0.015633
1668.63	0.007593
1678.27	0.004343
1687.92	0.003083
1697.56	0.002433
1707.21	0.002303
1716.85	0.002383
1726.5	0.002763
1736.14	0.002863
1745.79	0.002403
1755.43	0.0017165
1765.08	0.0014716
1774.72	0.0015934
1784.37	0.002103
1794.01	0.002703
1803.66	0.003233
1813.3	0.003003
1822.95	0.002103
1832.59	0.0017266
1842.24	0.0015419
1851.88	0.001983
1861.53	0.003053
1871.17	0.003623
1880.82	0.003173
1890.46	0.001963
1900.11	0.0013221
1909.75	0.0012437
1919.4	0.0013004
1929.04	0.0014063
1938.69	0.0015704
1948.33	0.0014964
1957.98	0.0015245
1967.62	0.0014794
1977.27	0.0014701
1986.91	0.0012893
1996.56	0.001166
2006.2	0.0010485
2015.85	0.0009784
2025.49	0.0009187
2035.14	0.0009501
2044.78	0.0010704
2054.43	0.0011322
2064.07	0.0012762
2073.72	0.0013514
2083.36	0.0015232
2093.01	0.0012797
2102.65	0.0011711
2112.3	0.0010773
2121.94	0.0009589
2131.59	0.0008814
2141.23	0.00080707
2150.88	0.000868
2160.52	0.0010718
2170.17	0.0013692
2179.81	0.001475
2189.46	0.0015487
2199.1	0.0014238
2208.75	0.0013295
2218.39	0.0011574
2228.04	0.0010956
2237.68	0.0010621
2247.33	0.0009277
2256.97	0.0008908
2266.62	0.0009725
2276.26	0.0009655
2285.91	0.0010111
2295.55	0.0009767
2305.2	0.00080259
2314.84	0.0006974
2324.49	0.000752004
2334.13	0.0006839
2343.78	0.0008962
2353.42	0.0008522
2363.07	0.00073356
2372.72	0.00077213
2382.36	0.0007343
2392.01	0.0006589
2401.65	0.0009745
2411.3	0.0012451
2420.94	0.0013057
2430.59	0.001236
2440.23	0.00116
2449.88	0.0012013
2459.52	0.0013475
2469.17	0.0015115
2478.81	0.0016597
2488.46	0.0015013
2498.1	0.0012061
2507.75	0.000647
2517.39	0.000546
2527.04	0.000441
2536.68	0.000625
2546.33	0.0007216
2555.97	0.000745255
2565.62	0.0009634
2575.26	0.0009932
2584.91	0.00081729
2594.55	0.000639
2604.2	0.000421
2613.84	0.000464
2623.49	0.000743427
2633.13	0.0011325
2642.78	0.0015792
2652.42	0.0015044
2662.07	0.0011636
2671.71	0.000576
2681.36	0.000417
2691	0.000267
2700.65	0.000295
2710.29	0.000451
2719.94	0.000559
2729.58	0.000571
2739.23	0.000483
2748.87	0.000481
2758.52	0.000295
2768.16	0.000422
2777.81	0.000335
2787.45	0.000359
2797.1	0.000236
2806.74	0.000239
2816.39	0.000158
2826.03	0.00031
2835.68	0.000217
2845.32	0.000131
2854.97	0.00026
2864.61	0.000221
2874.26	0.000257
2883.9	0.000401
2893.55	0.000252
2903.19	0.000358
2912.84	0.000211
2922.48	0.000278
2932.13	0.000163
2941.77	0.00016
2951.42	0.000185
2961.06	8.8e-05
2970.71	5.1e-05
2980.35	0.000211
2990	5.1e-05
2999.64	0.00017
3009.29	5.2e-05
3018.93	0.000334
3028.58	0.000462
3038.22	0.0009335
3047.87	0.001324
3057.51	0.001913
3067.16	0.003203
3076.8	0.004403
3086.45	0.005253
3096.09	0.004693
3105.74	0.002943
3115.38	0.0013459
3125.03	0.0006844
3134.67	0.0006506
3144.32	0.0007561
3153.96	0.000546
3163.61	0.00077843
3173.25	0.0011792
3182.9	0.001269
3192.54	0.0013356
3202.19	0.0011975
3211.83	0.0010689
3221.48	0.0011509
3231.12	0.0009118
3240.77	0.0007121
3250.41	0.000592
3260.06	0.000346
3269.7	0.000348
3279.35	0.000192
3289	9.6e-05
3298.64	0.000217
3308.29	0.000329
3317.93	0.00017
3327.58	0.000195
3337.22	0.00035
3346.87	0.000328
3356.51	0.000582
3366.16	0.0007945
3375.8	0.0011961
3385.45	0.002353
3395.09	0.005183
3404.74	0.011083
3414.38	0.017853
3424.03	0.020703
3433.67	0.015563
3443.32	0.009543
3452.96	0.003663
3462.61	0.002083
3472.25	0.002733
3481.9	0.004683
3491.54	0.008323
3501.19	0.014453
3510.83	0.017523
3520.48	0.018203
3530.12	0.012913
3539.77	0.007703
3549.41	0.002493
3559.06	0.0011094
3568.7	0.0008394
3578.35	0.0006662
3587.99	0.000691
3597.64	0.000492
3607.28	0.000598
3616.93	0.000527
3626.57	0.00033
3636.22	0.000493
3645.86	0.000565
3655.51	0.000559
3665.15	0.000419
3674.8	0.000519
3684.44	0.000545
3694.09	0.00057
3703.73	0.0006801
3713.38	0.00075436
3723.02	0.000538
3732.67	0.000611
3742.31	0.000568
3751.96	0.000563
3761.6	0.000553
3771.25	0.000506
3780.89	0.000604
3790.54	0.0006543
3800.18	0.000625
3809.83	0.0009455
3819.47	0.00082316
3829.12	0.0009511
3838.76	0.0010182
3848.41	0.0011165
3858.05	0.0012374
3867.7	0.0014512
3877.34	0.0011086
3886.99	0.0012596
3896.63	0.0010355
3906.28	0.0011083
3915.92	0.0009655
3925.57	0.001105
3935.21	0.0009696
3944.86	0.0011088
3954.5	0.0012428
3964.15	0.0011854
3973.79	0.0009673
3983.44	0.0009261
3993.08	0.0006785
