Infrared Spectrum: 1,2,3,4-Tetrafluorobenzene
Formula: C 6 H 2 F 4
CAS: 551-62-2
State: gas
Instrument: HP-GC/MS/IRD
Origin: NIST Mass Spectrometry Data Center
1/CM	ABSORBANCE
550	6.54e-05
562	0.0001308
574	0.0011336
586	0.0031174
598	0.0053628
610	0.0027686
622	0.0003488
634	2.18e-05
646	0
658	0.0008502
670	0.0069106
682	0.011881
694	0.0070632
706	0.0012426
718	0.0006104
730	0.002289
742	0.0139956
754	0.0119028
766	0.0020492
778	0.0041856
790	0.0158704
802	0.0316536
814	0.012644
826	0.0018094
838	0.0005014
850	0.000327
862	0.0003924
874	0.000545
886	0.0002616
898	0.0001744
910	0.0003706
922	0.0003924
934	0.0012426
946	0.0060822
958	0.013843
970	0.0209934
982	0.0659014
994	0.0798752
1006	0.0260946
1018	0.0070414
1030	0.012317
1042	0.038477
1054	0.038477
1066	0.0109
1078	0.0037714
1090	0.0023108
1102	0.0012644
1114	0.0007848
1126	0.0009156
1138	0.0016786
1150	0.0098318
1162	0.0166552
1174	0.0099844
1186	0.00218
1198	0.0023108
1210	0.002725
1222	0.0101152
1234	0.0465212
1246	0.0422702
1258	0.0136032
1270	0.017658
1282	0.0093304
1294	0.0028558
1306	0.0058424
1318	0.017876
1330	0.0191404
1342	0.0064746
1354	0.0012426
1366	0.0006322
1378	0.0008066
1390	0.0013734
1402	0.001308
1414	0.0009374
1426	0.0013952
1438	0.0023326
1450	0.0030738
1462	0.0056244
1474	0.011881
1486	0.0291248
1498	0.0946338
1510	0.201759
1522	0.19886
1534	0.107321
1546	0.0258112
1558	0.0084366
1570	0.0045998
1582	0.0041202
1594	0.0057552
1606	0.0073466
1618	0.0096574
1630	0.0112706
1642	0.006976
1654	0.0027468
1666	0.0007412
1678	0.0003924
1690	0.000327
1702	0.000545
1714	0.0008502
1726	0.0008938
1738	0.000654
1750	0.0004796
1762	0.0005232
1774	0.0004796
1786	0.0009156
1798	0.00109
1810	0.0009156
1822	0.0016786
1834	0.0020056
1846	0.0011772
1858	0.0003924
1870	0.0002398
1882	0.0002398
1894	0.0002834
1906	0.0006322
1918	0.0007848
1930	0.0005014
1942	0.000218
1954	0.0001308
1966	0.000109
1978	0.0001308
1990	0.000218
2002	0.0003052
2014	0.0003924
2026	0.0002398
2038	0.000109
2050	8.72e-05
2062	0.0003488
2074	0.000436
2086	0.000218
2098	0.0001744
2110	0.0001308
2122	6.54e-05
2134	2.18e-05
2146	2.18e-05
2158	8.72e-05
2170	0.0001962
2182	0.0005232
2194	0.000872
2206	0.000763
2218	0.0004578
2230	0.000218
2242	0.000218
2254	0.0002616
2266	0.000218
2278	0.0002398
2290	0.0003052
2302	0.0008938
2314	0.0015042
2326	0.0010464
2338	0.0003924
2350	0.000218
2362	0.0002398
2374	0.0003488
2386	0.000327
2398	0.000218
2410	0.0001962
2422	0.0003706
2434	0.0005014
2446	0.0001744
2458	0.0001744
2470	0.0004578
2482	0.0006104
2494	0.0007194
2506	0.0010028
2518	0.0009156
2530	0.0007848
2542	0.0009592
2554	0.0013298
2566	0.0014824
2578	0.000981
2590	0.0006758
2602	0.0004796
2614	0.0002834
2626	0.0001526
2638	0.0001308
2650	6.54e-05
2662	0.0001526
2674	0.0002616
2686	0.0001308
2698	6.54e-05
2710	0
2722	4.36e-05
2734	6.54e-05
2746	0.0001962
2758	0.0003924
2770	0.0002834
2782	0.0002398
2794	0.0003052
2806	0.0001962
2818	0.0001962
2830	0.0002616
2842	0.000327
2854	0.0002834
2866	0.0003052
2878	0.0002616
2890	0.0003706
2902	0.0003924
2914	0.000218
2926	0.0001308
2938	6.54e-05
2950	6.54e-05
2962	4.36e-05
2974	4.36e-05
2986	2.18e-05
2998	0.0001526
3010	0.0001526
3022	0.0002834
3034	0.0003706
3046	0.0002616
3058	0.0002398
3070	0.0003924
3082	0.000436
3094	0.0002398
3106	0.0001526
3118	6.54e-05
3130	0.0001308
3142	0.0001962
3154	0.0001308
3166	6.54e-05
3178	8.72e-05
3190	8.72e-05
3202	0
3214	4.36e-05
3226	2.18e-05
3238	0.0001526
3250	4.36e-05
3262	8.72e-05
3274	6.54e-05
3286	6.54e-05
3298	2.18e-05
3310	8.72e-05
3322	4.36e-05
3334	0.0001308
3346	0.0001308
3358	2.18e-05
3370	6.54e-05
3382	4.36e-05
3394	8.72e-05
3406	0.0001308
3418	8.72e-05
3430	0.0001526
3442	8.72e-05
3454	0.0001744
3466	8.72e-05
3478	0.000109
3490	0.0001308
3502	0.0001308
3514	0.0001744
3526	0.0002398
3538	6.54e-05
3550	0.0001526
3562	0.0001744
3574	0.0001744
3586	0.0001308
3598	0.000109
3610	0.0001744
3622	8.72e-05
3634	0.0001962
3646	0.000218
3658	0.0001526
3670	0.000218
3682	0.0001308
3694	0.0001308
3706	0.0001744
3718	0.0001526
3730	0.000218
3742	0.0001526
3754	0.0002398
3766	0.0002834
3778	0.0001526
3790	0.000218
3802	0.000218
3814	0.0003488
3826	0.000327
3838	0.0002834
