Infrared Spectrum: 2-Chloro-6-fluorobenzyl chloride
Formula: C 7 H 5 Cl 2 F
CAS: 55117-15-2
State: gas
Origin: EPA-IR VAPOR PHASE LIBRARY
1/CM	ABSORBANCE
549.9	0.00474
559.547	0.00445
569.193	0.0035
578.84	0.00298
588.486	0.00284
598.133	0.0026257
607.779	0.0028
617.426	0.00287
627.072	0.00444
636.719	0.00551
646.365	0.00449
656.012	0.00536
665.658	0.00978
675.305	0.02928
684.951	0.06769
694.598	0.05279
704.245	0.0139
713.891	0.00551
723.538	0.00446
733.184	0.00599
742.831	0.0102
752.477	0.01151
762.124	0.01069
771.77	0.03544
781.417	0.08631
791.063	0.0639
800.71	0.02515
810.356	0.019
820.003	0.02232
829.649	0.01721
839.296	0.02059
848.943	0.03249
858.589	0.0254
868.236	0.01037
877.882	0.0056
887.529	0.00471
897.175	0.00416
906.822	0.00449
916.468	0.00899
926.115	0.03262
935.761	0.09917
945.408	0.10364
955.054	0.02947
964.701	0.00788
974.347	0.00439
983.994	0.00291
993.64	0.0028
1003.29	0.002649
1012.93	0.0023897
1022.58	0.0027193
1032.23	0.0032
1041.87	0.00286
1051.52	0.00267
1061.17	0.00329
1070.81	0.00302
1080.46	0.0024766
1090.11	0.0026468
1099.75	0.00309
1109.4	0.00345
1119.05	0.0056
1128.69	0.01686
1138.34	0.02132
1147.99	0.01365
1157.63	0.00941
1167.28	0.00597
1176.92	0.01173
1186.57	0.02714
1196.22	0.02825
1205.86	0.01367
1215.51	0.00843
1225.16	0.00912
1234.8	0.01792
1244.45	0.05598
1254.1	0.07032
1263.74	0.04623
1273.39	0.06171
1283.04	0.05162
1292.68	0.01501
1302.33	0.00551
1311.98	0.00394
1321.62	0.00366
1331.27	0.00374
1340.92	0.00437
1350.56	0.00472
1360.21	0.00403
1369.86	0.0032
1379.5	0.0031
1389.15	0.00322
1398.79	0.00346
1408.44	0.00393
1418.09	0.00511
1427.73	0.01061
1437.38	0.03204
1447.03	0.087
1456.67	0.13025
1466.32	0.09843
1475.97	0.04195
1485.61	0.01249
1495.26	0.00701
1504.91	0.00669
1514.55	0.00819
1524.2	0.01222
1533.85	0.0134
1543.49	0.01081
1553.14	0.012
1562.79	0.02542
1572.43	0.05828
1582.08	0.08238
1591.73	0.06649
1601.37	0.05787
1611.02	0.04043
1620.67	0.01455
1630.31	0.00657
1639.96	0.0044
1649.6	0.00344
1659.25	0.00374
1668.9	0.00385
1678.54	0.0031
1688.19	0.0024903
1697.84	0.0022881
1707.48	0.0024053
1717.13	0.0021265
1726.78	0.0017467
1736.42	0.00187299
1746.07	0.0024213
1755.72	0.00394
1765.36	0.00408
1775.01	0.0024142
1784.66	0.0017713
1794.3	0.001607
1803.95	0.001491
1813.6	0.001516
1823.24	0.0017591
1832.89	0.00296
1842.54	0.00404
1852.18	0.0027541
1861.83	0.001551
1871.47	0.001492
1881.12	0.001555
1890.77	0.001633
1900.41	0.0017182
1910.06	0.00307
1919.71	0.00534
1929.35	0.00403
1939	0.001565
1948.65	0.001188
1958.29	0.001175
1967.94	0.001206
1977.59	0.001223
1987.23	0.001197
1996.88	0.00125
2006.53	0.001258
2016.17	0.001195
2025.82	0.001241
2035.47	0.001311
2045.11	0.001288
2054.76	0.001279
2064.41	0.001428
2074.05	0.001554
2083.7	0.001646
2093.35	0.0017536
2102.99	0.001638
2112.64	0.001395
2122.28	0.001225
2131.93	0.001245
2141.58	0.001152
2151.22	0.00106
2160.87	0.001016
2170.52	0.000993
2180.16	0.00115
2189.81	0.001324
2199.46	0.00135
2209.1	0.001322
2218.75	0.001376
2228.4	0.001281
2238.04	0.001201
2247.69	0.001093
2257.34	0.00108
2266.98	0.001161
2276.63	0.001291
2286.28	0.001404
2295.92	0.0015
2305.57	0.0017952
2315.22	0.001611
2324.86	0.001222
2334.51	0.001012
2344.16	0.001064
2353.8	0.001062
2363.45	0.001029
2373.09	0.001191
2382.74	0.001329
2392.39	0.001233
2402.03	0.001174
2411.68	0.001162
2421.33	0.001211
2430.97	0.00137
2440.62	0.001466
2450.27	0.001341
2459.91	0.001047
2469.56	0.000893
2479.21	0.000972
2488.85	0.001176
2498.5	0.001494
2508.15	0.001409
2517.79	0.001217
2527.44	0.00123
2537.09	0.001271
2546.73	0.001059
2556.38	0.000799
2566.03	0.0007
2575.67	0.00072
2585.32	0.00072
2594.96	0.00071
2604.61	0.0007
2614.26	0.00061
2623.9	0.00062
2633.55	0.00073
2643.2	0.000892
2652.84	0.001058
2662.49	0.001015
2672.14	0.00068
2681.78	0.00057
2691.43	0.00067
2701.08	0.000813
2710.72	0.001057
2720.37	0.001207
2730.02	0.001078
2739.66	0.000925
2749.31	0.00071
2758.96	0.00055
2768.6	0.00048
2778.25	0.00039
2787.9	0.00032
2797.54	0.00038
2807.19	0.00021
2816.84	0.00028
2826.48	0.00013
2836.13	0.00015
2845.77	0.00027
2855.42	0.00028
2865.07	0.00057
2874.71	0.001219
2884.36	0.001197
2894.01	0.00065
2903.65	0.00039
2913.3	0.00033
2922.95	9e-05
2932.59	0.00011
2942.24	0.00013
2951.89	0.00026
2961.53	0.00117
2971.18	0.00299
2980.83	0.00593
2990.47	0.00834
3000.12	0.00751
3009.77	0.00362
3019.41	0.0019879
3029.06	0.001385
3038.71	0.001008
3048.35	0.001227
3058	0.001662
3067.64	0.00376
3077.29	0.00699
3086.94	0.00784
3096.58	0.00476
3106.23	0.001614
3115.88	0.00052
3125.52	0.00069
3135.17	0.00057
3144.82	0.00069
3154.46	0.00058
3164.11	0.00066
3173.76	0.00044
3183.4	0.00057
3193.05	0.00044
3202.7	0.00036
3212.34	0.00045
3221.99	0.00052
3231.64	0.00055
3241.28	0.00058
3250.93	0.00053
3260.58	0.00067
3270.22	0.00074
3279.87	0.00079
3289.52	0.000796
3299.16	0.000884
3308.81	0.001154
3318.45	0.000904
3328.1	0.000904
3337.75	0.000857
3347.39	0.001105
3357.04	0.000946
3366.69	0.000971
3376.33	0.001168
3385.98	0.001035
3395.63	0.001115
3405.27	0.001239
3414.92	0.001243
3424.57	0.001258
3434.21	0.001257
3443.86	0.001332
3453.51	0.001404
3463.15	0.001341
3472.8	0.001332
3482.45	0.001398
3492.09	0.001331
3501.74	0.00161
3511.39	0.001442
3521.03	0.001516
3530.68	0.001389
3540.33	0.001577
3549.97	0.00146
3559.62	0.00132
3569.26	0.001546
3578.91	0.00143
3588.56	0.001335
3598.2	0.001533
3607.85	0.001624
3617.5	0.00158
3627.14	0.001615
3636.79	0.001611
3646.44	0.001646
3656.08	0.001457
3665.73	0.001581
3675.38	0.001519
3685.02	0.001502
3694.67	0.001427
3704.32	0.001555
3713.96	0.001497
3723.61	0.001609
3733.26	0.001611
3742.9	0.001468
3752.55	0.001511
3762.2	0.00137
3771.84	0.001587
3781.49	0.001585
3791.13	0.001477
3800.78	0.00136
3810.43	0.001395
3820.07	0.001349
3829.72	0.001566
3839.37	0.001462
3849.01	0.001348
3858.66	0.001415
3868.31	0.001463
3877.95	0.001518
3887.6	0.001553
3897.25	0.00180122
3906.89	0.0017347
3916.54	0.001563
3926.19	0.00156
3935.83	0.001522
3945.48	0.001513
3955.13	0.001515
3964.77	0.001424
3974.42	0.00131
3984.07	0.001398
3993.71	0.001252
