Infrared Spectrum: 3-Methyl-1-hexen-3-ol
Formula: C 7 H 14 O
CAS: 55145-28-3
State: gas
Instrument: HP-GC/MS/IRD
Origin: NIST Mass Spectrometry Data Center
1/CM	ABSORBANCE
550	0.0003043
562	0.000136
574	0.0001581
586	1.02e-05
598	0.0001598
610	7.65e-05
622	9.35e-05
634	0.0001989
646	0.000204
658	0.0003451
670	0.0006273
682	0.0010523
694	0.0010268
706	0.0006426
718	0.0004641
730	0.0004403
742	0.0005185
754	0.0004386
766	0.0003213
778	0.000238
790	0.0003179
802	0.0002822
814	0.0001887
826	0.0002516
838	0.0004267
850	0.0007412
862	0.0010659
874	0.0012376
886	0.0015691
898	0.0024089
910	0.0049028
922	0.007429
934	0.0059942
946	0.003247
958	0.0019261
970	0.0016422
982	0.0024803
994	0.0037111
1006	0.0035955
1018	0.0026146
1030	0.0021454
1042	0.0019533
1054	0.0018751
1066	0.0020808
1078	0.002176
1090	0.0022933
1102	0.0026945
1114	0.0032079
1126	0.0036703
1138	0.0038624
1150	0.0043231
1162	0.0044404
1174	0.003961
1186	0.0033575
1198	0.0027455
1210	0.0022253
1222	0.0019992
1234	0.0020485
1246	0.002159
1258	0.0023035
1270	0.0024599
1282	0.0026027
1294	0.00255
1306	0.0026316
1318	0.0025993
1330	0.0022712
1342	0.0019873
1354	0.0021352
1366	0.0028662
1378	0.0032334
1390	0.0025092
1402	0.0023528
1414	0.0025551
1426	0.0020553
1438	0.0017646
1450	0.0021301
1462	0.0023698
1474	0.0017374
1486	0.0009656
1498	0.0004998
1510	0.0003196
1522	0.000238
1534	0.0002006
1546	0.0001938
1558	0.0001394
1570	0.0001343
1582	0.0002023
1594	0.0002584
1606	0.0003111
1618	0.000357
1630	0.0005627
1642	0.0006681
1654	0.0005032
1666	0.000221
1678	0.0001275
1690	0.0001326
1702	9.18e-05
1714	6.29e-05
1726	4.76e-05
1738	5.61e-05
1750	2.21e-05
1762	5.1e-05
1774	5.1e-05
1786	6.8e-05
1798	9.52e-05
1810	6.63e-05
1822	0.0001411
1834	0.0003332
1846	0.0004658
1858	0.0003536
1870	0.0001785
1882	7.82e-05
1894	4.76e-05
1906	6.29e-05
1918	7.48e-05
1930	4.76e-05
1942	4.42e-05
1954	5.44e-05
1966	4.08e-05
1978	5.27e-05
1990	6.12e-05
2002	5.44e-05
2014	1.53e-05
2026	3.06e-05
2038	6.46e-05
2050	5.44e-05
2062	5.44e-05
2074	3.57e-05
2086	4.76e-05
2098	5.27e-05
2110	4.08e-05
2122	2.04e-05
2134	6.46e-05
2146	3.74e-05
2158	1.19e-05
2170	6.8e-06
2182	1.7e-05
2194	3.57e-05
2206	3.57e-05
2218	3.06e-05
2230	2.04e-05
2242	5.61e-05
2254	4.42e-05
2266	5.61e-05
2278	4.42e-05
2290	5.27e-05
2302	1.87e-05
2314	7.65e-05
2326	0.0001088
2338	9.35e-05
2350	9.18e-05
2362	0.0001105
2374	8.67e-05
2386	6.29e-05
2398	6.97e-05
2410	5.95e-05
2422	5.1e-05
2434	4.42e-05
2446	4.76e-05
2458	5.78e-05
2470	5.61e-05
2482	5.1e-05
2494	5.95e-05
2506	5.61e-05
2518	9.69e-05
2530	7.31e-05
2542	8.67e-05
2554	7.31e-05
2566	8.16e-05
2578	8.67e-05
2590	9.35e-05
2602	0.000102
2614	0.0001343
2626	0.0001309
2638	0.0001207
2650	0.0001598
2662	0.000153
2674	0.0001241
2686	0.0001343
2698	0.0001581
2710	0.0001921
2722	0.0002686
2734	0.0003502
2746	0.0003383
2758	0.0003366
2770	0.0003213
2782	0.0003689
2794	0.0004573
2806	0.0006052
2818	0.0008551
2830	0.0011424
2842	0.0017408
2854	0.0025109
2866	0.0036737
2878	0.0057137
2890	0.0064158
2902	0.0062424
2914	0.007599
2926	0.0096407
2938	0.0114223
2950	0.0118949
2962	0.0149192
2974	0.0168419
2986	0.0117181
2998	0.0059942
3010	0.0034391
3022	0.0025296
3034	0.0016932
3046	0.0012512
3058	0.0011526
3070	0.0013821
3082	0.0020366
3094	0.0023851
3106	0.0014365
3118	0.0006307
3130	0.0003723
3142	0.0003366
3154	0.0002992
3166	0.0002941
3178	0.000255
3190	0.0002312
3202	0.0001938
3214	0.0002397
3226	0.0002329
3238	0.0001564
3250	0.0001343
3262	9.35e-05
3274	0.0001462
3286	7.14e-05
3298	0.0001428
3310	0.0001275
3322	0.0001088
3334	6.46e-05
3346	9.01e-05
3358	0.0001207
3370	0.0001139
3382	0.000153
3394	0.0001241
3406	0.0001105
3418	0.0001088
3430	5.95e-05
3442	8.5e-05
3454	7.48e-05
3466	9.01e-05
3478	5.1e-06
3490	2.04e-05
3502	0.0001241
3514	7.65e-05
3526	5.27e-05
3538	5.61e-05
3550	6.97e-05
3562	0.000153
3574	9.35e-05
3586	0.0001054
3598	0.0001547
3610	0.0002941
3622	0.0008483
3634	0.0015759
3646	0.0014416
3658	0.0007055
3670	0.0002329
3682	0.0001802
3694	4.76e-05
3706	6.12e-05
3718	8.16e-05
3730	9.01e-05
3742	8.84e-05
3754	0.0001088
3766	4.93e-05
3778	0.0001139
3790	6.12e-05
3802	8.84e-05
3814	0.0001955
3826	0.0001428
3838	0.0001071
