Infrared Spectrum: Ethyl 3-diethylaminopropionate
Formula: C 9 H 19 N O 2
CAS: 5515-83-3
State: gas
Origin: EPA-IR VAPOR PHASE LIBRARY
1/CM	ABSORBANCE
549.9	0.0016774
559.547	0.001337
569.193	0.0012516
578.84	0.0011358
588.486	0.0011372
598.133	0.0014041
607.779	0.0010964
617.426	0.0010194
627.072	0.00090084
636.719	0.001095
646.365	0.0012253
656.012	0.0012921
665.658	0.00092509
675.305	0.0010629
684.951	0.0010386
694.598	0.0011737
704.245	0.0012
713.891	0.0013455
723.538	0.0015487
733.184	0.001908
742.831	0.002168
752.477	0.001918
762.124	0.0017469
771.77	0.002098
781.417	0.002538
791.063	0.002898
800.71	0.002948
810.356	0.002448
820.003	0.001888
829.649	0.0017201
839.296	0.001928
848.943	0.002608
858.589	0.002928
868.236	0.002178
877.882	0.0016237
887.529	0.0015336
897.175	0.0016148
906.822	0.0017995
916.468	0.002358
926.115	0.002998
935.761	0.003088
945.408	0.002718
955.054	0.002658
964.701	0.003178
974.347	0.003858
983.994	0.004328
993.64	0.004768
1003.29	0.005708
1012.93	0.008278
1022.58	0.012748
1032.23	0.018518
1041.87	0.025158
1051.52	0.027548
1061.17	0.023468
1070.81	0.019538
1080.46	0.017108
1090.11	0.016048
1099.75	0.015548
1109.4	0.014498
1119.05	0.014828
1128.69	0.017828
1138.34	0.025458
1147.99	0.033208
1157.63	0.036968
1167.28	0.039018
1176.92	0.040468
1186.57	0.042468
1196.22	0.044288
1205.86	0.042448
1215.51	0.035438
1225.16	0.027888
1234.8	0.024148
1244.45	0.024138
1254.1	0.023548
1263.74	0.020638
1273.39	0.018308
1283.04	0.017238
1292.68	0.017778
1302.33	0.019328
1311.98	0.019288
1321.62	0.017038
1331.27	0.014978
1340.92	0.014748
1350.56	0.014828
1360.21	0.015408
1369.86	0.019628
1379.5	0.020468
1389.15	0.015758
1398.79	0.010258
1408.44	0.006978
1418.09	0.006118
1427.73	0.006388
1437.38	0.007018
1447.03	0.008028
1456.67	0.009458
1466.32	0.010318
1475.97	0.008648
1485.61	0.005288
1495.26	0.003188
1504.91	0.002258
1514.55	0.0018295
1524.2	0.0016035
1533.85	0.0014852
1543.49	0.0013993
1553.14	0.0012503
1562.79	0.0012008
1572.43	0.0011476
1582.08	0.0011073
1591.73	0.0010636
1601.37	0.0011118
1611.02	0.0011138
1620.67	0.0012312
1630.31	0.0012059
1639.96	0.0012978
1649.6	0.0013142
1659.25	0.0013767
1668.9	0.0015087
1678.54	0.001878
1688.19	0.002428
1697.84	0.003408
1707.48	0.005098
1717.13	0.007648
1726.78	0.013428
1736.42	0.028058
1746.07	0.052158
1755.72	0.058128
1765.36	0.032998
1775.01	0.013508
1784.66	0.006698
1794.3	0.003978
1803.95	0.002728
1813.6	0.001978
1823.24	0.0015131
1832.89	0.0012968
1842.54	0.0010263
1852.18	0.00093408
1861.83	0.0009262
1871.47	0.00092621
1881.12	0.00090407
1890.77	0.00094495
1900.41	0.00090604
1910.06	0.00092683
1919.71	0.0007735
1929.35	0.000776
1939	0.0007862
1948.65	0.0007591
1958.29	0.000657
1967.94	0.000721
1977.59	0.000658
1987.23	0.000642
1996.88	0.000636
2006.53	0.000644
2016.17	0.000608
2025.82	0.000664
2035.47	0.000627
2045.11	0.000635
2054.76	0.000659
2064.41	0.000543
2074.05	0.000543
2083.7	0.000613
2093.35	0.000542
2102.99	0.000515
2112.64	0.000458
2122.28	0.000422
2131.93	0.000395
2141.58	0.000355
2151.22	0.000348
2160.87	0.000377
2170.52	0.000277
2180.16	0.000377
2189.81	0.000322
2199.46	0.000352
2209.1	0.000392
2218.75	0.000351
2228.4	0.000397
2238.04	0.000362
2247.69	0.000359
2257.34	0.000347
2266.98	0.000371
2276.63	0.000371
2286.28	0.000367
2295.92	0.000383
2305.57	0.000386
2315.22	0.000442
2324.86	0.000428
2334.51	0.000398
2344.16	0.00036
2353.8	0.000365
2363.45	0.000377
2373.09	0.000378
2382.74	0.000462
2392.39	0.000356
2402.03	0.000391
2411.68	0.000375
2421.33	0.000376
2430.97	0.000432
2440.62	0.000338
2450.27	0.000337
2459.91	0.000392
2469.56	0.000238
2479.21	0.000256
2488.85	0.000296
2498.5	0.000241
2508.15	0.000311
2517.79	0.000361
2527.44	0.000331
2537.09	0.000392
2546.73	0.000382
2556.38	0.000499
2566.03	0.000542
2575.67	0.000597
2585.32	0.000671
2594.96	0.000689
2604.61	0.000738
2614.26	0.00085391
2623.9	0.00090224
2633.55	0.00087359
2643.2	0.0010708
2652.84	0.001239
2662.49	0.0014088
2672.14	0.0016621
2681.78	0.001968
2691.43	0.002228
2701.08	0.002568
2710.72	0.003028
2720.37	0.003408
2730.02	0.003748
2739.66	0.003978
2749.31	0.004588
2758.96	0.005358
2768.6	0.006428
2778.25	0.007858
2787.9	0.010558
2797.54	0.015138
2807.19	0.020158
2816.84	0.021538
2826.48	0.019128
2836.13	0.015478
2845.77	0.012388
2855.42	0.010468
2865.07	0.010488
2874.71	0.012798
2884.36	0.015258
2894.01	0.014968
2903.65	0.015658
2913.3	0.017678
2922.95	0.021228
2932.59	0.028108
2942.24	0.032918
2951.89	0.029388
2961.53	0.031608
2971.18	0.045258
2980.83	0.051178
2990.47	0.035228
3000.12	0.018818
3009.77	0.010928
3019.41	0.006708
3029.06	0.004388
3038.71	0.003098
3048.35	0.002328
3058	0.001878
3067.64	0.0014244
3077.29	0.0012197
3086.94	0.0011562
3096.58	0.00094102
3106.23	0.0008139
3115.88	0.000823
3125.52	0.0008338
3135.17	0.0007584
3144.82	0.0008064
3154.46	0.000599
3164.11	0.000463
3173.76	0.000444
3183.4	0.000432
3193.05	0.000392
3202.7	0.000251
3212.34	4.6e-05
3221.99	0.000277
3231.64	0.000188
3241.28	2.1e-05
3250.93	0.000149
3260.58	0.00031
3270.22	0.000372
3279.87	0.000245
3289.52	0.000415
3299.16	0.000306
3308.81	0.000217
3318.45	0.000341
3328.1	0.000276
3337.75	0.000182
3347.39	0.00043
3357.04	0.000546
3366.69	0.000539
3376.33	0.000447
3385.98	0.000547
3395.63	0.000512
3405.27	0.000378
3414.92	0.000504
3424.57	0.000425
3434.21	0.000572
3443.86	0.000677
3453.51	0.0008082
3463.15	0.0007582
3472.8	0.001062
3482.45	0.0009836
3492.09	0.00095119
3501.74	0.000754
3511.39	0.000676
3521.03	0.000631
3530.68	0.000422
3540.33	0.000674
3549.97	0.000607
3559.62	0.000683
3569.26	0.00064
3578.91	0.000606
3588.56	0.000647
3598.2	0.000416
3607.85	0.000583
3617.5	0.0007914
3627.14	0.00061
3636.79	0.000591
3646.44	0.000609
3656.08	0.000573
3665.73	0.000657
3675.38	0.000566
3685.02	0.000589
3694.67	0.000539
3704.32	0.000641
3713.96	0.000589
3723.61	0.000567
3733.26	0.000703
3742.9	0.000651
3752.55	0.000637
3762.2	0.000601
3771.84	0.000608
3781.49	0.000648
3791.13	0.000621
3800.78	0.000581
3810.43	0.000575
3820.07	0.000582
3829.72	0.000707
3839.37	0.000677
3849.01	0.000545
3858.66	0.000511
3868.31	0.000701
3877.95	0.000719
3887.6	0.000586
3897.25	0.00049
3906.89	0.000749
3916.54	0.000657
3926.19	0.00064
3935.83	0.000702
3945.48	0.000703
3955.13	0.000726
3964.77	0.000665
3974.42	0.00074
3984.07	0.00075
3993.71	0.000634
