Infrared Spectrum: 2,2'-DIMETHYL-6,6'-DINITRO-DIPHENYL
Formula: C14 H12 N2 O4
CAS: 55153-02-1
State: SOLID (1.0% IN KBr PELLET)
Class: COBLENTZ
Instrument: Not specified, most likely a prism, grating, or hybrid spectrometer.
Sampling: TRANSMISSION
Path length: 0.0355 CM THICK
Resolution: 4
Origin: ANDERSON PHYSICAL LABORATORY
1/CM	TRANSMITTANCE
673.005	0.729
681.422	0.728
689.838	0.711
698.255	0.688
706.671	0.6191
715.088	0.561
723.504	0.553
731.921	0.456
740.337	0.119
748.754	0.18
757.17	0.389
765.587	0.8109
774.003	0.834
782.42	0.746
790.836	0.5731
799.253	0.204
807.669	0.2441
816.086	0.3729
824.502	0.862
832.919	0.938
841.335	0.932
849.752	0.928
858.168	0.919
866.585	0.908
875.001	0.892
883.418	0.876
891.834	0.856
900.251	0.816
908.667	0.659
917.084	0.583
925.5	0.785
933.917	0.871
942.333	0.865
950.75	0.853
959.166	0.841
967.583	0.823
975.999	0.798
984.416	0.747
992.832	0.75
1001.25	0.717
1009.67	0.644
1018.08	0.738
1026.5	0.729
1034.91	0.698
1043.33	0.717
1051.75	0.752
1060.16	0.752
1068.58	0.749
1077	0.749
1085.41	0.726
1093.83	0.694
1102.25	0.6471
1110.66	0.5709
1119.08	0.72
1127.5	0.726
1135.91	0.713
1144.33	0.701
1152.75	0.683
1161.16	0.58
1169.58	0.655
1178	0.647
1186.41	0.65
1194.83	0.694
1203.24	0.683
1211.66	0.673
1220.08	0.644
1228.49	0.611
1236.91	0.583
1245.33	0.544
1253.74	0.522
1262.16	0.491
1270.58	0.432
1278.99	0.35
1287.41	0.283
1295.83	0.4
1304.24	0.467
1312.66	0.423
1321.08	0.346
1329.49	0.256
1337.91	0.171
1346.33	0.056
1354.74	0.043
1363.16	0.067
1371.57	0.241
1379.99	0.435
1388.41	0.431
1396.82	0.565
1405.24	0.694
1413.66	0.646
1422.07	0.574
1430.49	0.537
1438.91	0.452
1447.32	0.382
1455.74	0.302
1464.16	0.367
1472.57	0.422
1480.99	0.374
1489.41	0.338
1497.82	0.292
1506.24	0.186
1514.66	0.05
1523.07	0.035
1531.49	0.037
1539.9	0.105
1548.32	0.253
1556.74	0.382
1565.15	0.486
1573.57	0.546
1581.99	0.676
1590.4	0.716
1598.82	0.701
1607.24	0.619
1615.65	0.628
1624.07	0.789
1632.49	0.852
1640.9	0.892
1649.32	0.904
1657.74	0.925
1666.15	0.925
1674.57	0.935
1682.99	0.947
1691.4	0.947
1699.82	0.929
1708.23	0.895
1716.65	0.886
1725.07	0.892
1733.48	0.914
1741.9	0.935
1750.32	0.962
1758.73	0.967
1767.15	0.971
1775.57	0.965
1783.98	0.953
1792.4	0.946
1800.82	0.946
1809.23	0.937
1817.65	0.92
1826.07	0.917
1834.48	0.919
1842.9	0.922
1851.32	0.928
1859.73	0.934
1868.15	0.935
1876.56	0.928
1884.98	0.917
1893.4	0.902
1901.81	0.901
1910.23	0.908
1918.65	0.917
1927.06	0.929
1935.48	0.928
1943.9	0.925
1952.31	0.916
1960.73	0.905
1969.15	0.892
1977.56	0.895
1985.98	0.91
1994.4	0.923
2002.81	0.931
2011.23	0.928
2019.65	0.9223
2028.06	0.9195
2036.48	0.9162
2044.89	0.914
2053.31	0.9107
2061.73	0.907
2070.14	0.9043
2078.56	0.904
2086.98	0.902
2095.39	0.902
2103.81	0.9012
2112.23	0.9
2120.64	0.8995
2129.06	0.898
2137.48	0.8972
2145.89	0.895
2154.31	0.8882
2162.73	0.882
2171.14	0.88
2179.56	0.88
2187.98	0.8784
2196.39	0.876
2204.81	0.874
2213.22	0.873
2221.64	0.8707
2230.06	0.868
2238.47	0.8646
2246.89	0.856
2255.31	0.8544
2263.72	0.8525
2272.14	0.852
2280.56	0.8489
2288.97	0.847
2297.39	0.8454
2305.81	0.8402
2314.22	0.8368
2322.64	0.831
2331.06	0.832
2339.47	0.834
2347.89	0.835
2356.31	0.837
2364.72	0.837
2373.14	0.837
2381.55	0.837
2389.97	0.8347
2398.39	0.8268
2406.8	0.823
2415.22	0.8188
2423.64	0.8137
2432.05	0.8119
2440.47	0.811
2448.89	0.81
2457.3	0.8094
2465.72	0.808
2474.14	0.8054
2482.55	0.8019
2490.97	0.7977
2499.39	0.795
2507.8	0.7925
2516.22	0.792
2524.64	0.7927
2533.05	0.794
2541.47	0.7948
2549.88	0.795
2558.3	0.797
2566.72	0.798
2575.13	0.798
2583.55	0.797
2591.97	0.7963
2600.38	0.794
2608.8	0.792
2617.22	0.789
2625.63	0.7863
2634.05	0.7794
2642.47	0.7743
2650.88	0.773
2659.3	0.771
2667.72	0.768
2676.13	0.767
2684.55	0.7649
2692.97	0.7589
2701.38	0.7508
2709.8	0.7491
2718.21	0.7456
2726.63	0.7393
2735.05	0.737
2743.46	0.7353
2751.88	0.7346
2760.3	0.7275
2768.71	0.7201
2777.13	0.7135
2785.55	0.702
2793.96	0.6957
2802.38	0.683
2810.8	0.6625
2819.21	0.645
2827.63	0.6221
2836.05	0.6087
2844.46	0.607
2852.88	0.613
2861.3	0.619
2869.71	0.62
2878.13	0.6191
2886.54	0.616
2894.96	0.6077
2903.38	0.5914
2911.79	0.5908
2920.21	0.5976
2928.63	0.6085
2937.04	0.6167
2945.46	0.6199
2953.88	0.6319
2962.29	0.6448
2970.71	0.6483
2979.13	0.6576
2987.54	0.6645
2995.96	0.6658
3004.38	0.6613
3012.79	0.658
3021.21	0.6547
3029.63	0.653
3038.04	0.651
3046.46	0.6491
3054.87	0.6425
3063.29	0.6362
3071.71	0.634
3080.12	0.634
3088.54	0.6383
3096.96	0.6601
3105.37	0.6807
3113.79	0.6859
3122.21	0.688
3130.62	0.688
3139.04	0.689
3147.46	0.689
3155.87	0.6858
3164.29	0.6841
3172.71	0.6823
3181.12	0.6801
3189.54	0.6798
3197.96	0.6765
3206.37	0.6733
3214.79	0.6701
3223.2	0.6674
3231.62	0.664
3240.04	0.6613
3248.45	0.658
3256.87	0.6558
3265.29	0.6526
3273.7	0.6493
3282.12	0.6471
3290.54	0.6456
3298.95	0.6421
3307.37	0.6367
3315.79	0.629
3324.2	0.6198
3332.62	0.6142
3341.04	0.5957
3349.45	0.592
3357.87	0.585
3366.29	0.5816
3374.7	0.5793
3383.12	0.576
3391.53	0.5695
3399.95	0.566
3408.37	0.5625
3416.78	0.562
3425.2	0.562
3433.62	0.564
3442.03	0.565
3450.45	0.568
3458.87	0.5737
3467.28	0.5825
3475.7	0.5875
3484.12	0.589
3492.53	0.592
3500.95	0.5965
3509.37	0.6007
3517.78	0.607
3526.2	0.6102
3534.62	0.614
3543.03	0.616
3551.45	0.619
3559.86	0.6227
3568.28	0.6275
3576.7	0.6318
3585.11	0.641
3593.53	0.6463
3601.95	0.648
3610.36	0.6498
3618.78	0.65
3627.2	0.6538
3635.61	0.6585
3644.03	0.659
3652.45	0.659
3660.86	0.659
3669.28	0.659
3677.7	0.659
3686.11	0.659
3694.53	0.6549
3702.95	0.65
3711.36	0.65
3719.78	0.65
3728.19	0.65
3736.61	0.6525
3745.03	0.653
3753.44	0.6519
3761.86	0.646
3770.28	0.647
3778.69	0.646
3787.11	0.644
3795.53	0.6437
3803.94	0.643
3812.36	0.643
3820.78	0.641
3829.19	0.6394
3837.61	0.6374
3846.03	0.637
3854.44	0.6349
3862.86	0.634
3871.28	0.632
3879.69	0.631
3888.11	0.631
3896.52	0.6304
3904.94	0.628
3913.36	0.6288
3921.77	0.629
3930.19	0.6274
3938.61	0.626
3947.02	0.6233
3955.44	0.623
3963.86	0.623
3972.27	0.6226
3980.69	0.623
