Infrared Spectrum: HYPOXANTHINE-9-ACETIC ACID, ETHYL ESTER
Formula: C9 H10 N4 O3
CAS: 55175-33-2
State: SOLID (0.5 mg / 650 mg KBr DISC)
Class: COBLENTZ III
Instrument: PERKIN-ELMER 21 (GRATING)
Instrument parameters: FILTER CHANGE AT 1090 CM^-^1
Sampling: TRANSMISSION
Resolution: 4
Origin: SOUTHERN RESEARCH INSTITUTE
1/CM	TRANSMITTANCE
603.432	0.908
612.567	0.898
621.702	0.886
630.837	0.85
639.971	0.554
649.106	0.833
658.241	0.733
667.376	0.64
676.511	0.8
685.646	0.886
694.78	0.861
703.915	0.683
713.05	0.871
722.185	0.847
731.32	0.855
740.455	0.847
749.59	0.829
758.724	0.804
767.859	0.764
776.994	0.709
786.129	0.531
795.264	0.569
804.399	0.329
813.533	0.541
822.668	0.742
831.803	0.726
840.938	0.697
850.073	0.669
859.208	0.626
868.343	0.545
877.477	0.526
886.612	0.506
895.747	0.45
904.882	0.408
914.017	0.367
923.152	0.386
932.287	0.477
941.421	0.561
950.556	0.628
959.691	0.667
968.826	0.657
977.961	0.585
987.096	0.531
996.23	0.716
1005.37	0.743
1014.5	0.743
1023.63	0.742
1032.77	0.736
1041.9	0.704
1051.04	0.641
1060.17	0.648
1069.31	0.722
1078.44	0.697
1087.58	0.701
1096.71	0.677
1105.85	0.641
1114.98	0.601
1124.12	0.462
1133.25	0.329
1142.39	0.417
1151.52	0.338
1160.66	0.488
1169.79	0.588
1178.93	0.511
1188.06	0.466
1197.2	0.355
1206.33	0.195
1215.47	0.125
1224.6	0.199
1233.74	0.166
1242.87	0.191
1252.01	0.316
1261.14	0.533
1270.28	0.627
1279.41	0.679
1288.55	0.645
1297.68	0.634
1306.82	0.755
1315.95	0.74
1325.08	0.692
1334.22	0.49
1343.35	0.38
1352.49	0.43
1361.62	0.6
1370.76	0.565
1379.89	0.561
1389.03	0.514
1398.16	0.415
1407.3	0.407
1416.43	0.153
1425.57	0.216
1434.7	0.295
1443.84	0.537
1452.97	0.641
1462.11	0.454
1471.24	0.317
1480.38	0.356
1489.51	0.587
1498.65	0.707
1507.78	0.695
1516.92	0.58
1526.05	0.541
1535.19	0.595
1544.32	0.496
1553.46	0.395
1562.59	0.471
1571.73	0.52
1580.86	0.36
1590	0.212
1599.13	0.281
1608.27	0.488
1617.4	0.449
1626.53	0.386
1635.67	0.296
1644.8	0.148
1653.94	0.098
1663.07	0.085
1672.21	0.059
1681.34	0.063
1690.48	0.105
1699.61	0.147
1708.75	0.161
1717.88	0.109
1727.02	0.084
1736.15	0.151
1745.29	0.255
1754.42	0.354
1763.56	0.446
1772.69	0.496
1781.83	0.527
1790.96	0.563
1800.1	0.589
1809.23	0.61
1818.37	0.643
1827.5	0.66
1836.64	0.688
1845.77	0.704
1854.91	0.72
1864.04	0.722
1873.18	0.731
1882.31	0.738
1891.45	0.743
1900.58	0.746
1909.72	0.752
1918.85	0.753
1927.98	0.753
1937.12	0.75
1946.25	0.743
1955.39	0.747
1964.52	0.759
1973.66	0.77
1982.79	0.779
1991.93	0.787
2001.06	0.789
2010.2	0.787
2019.33	0.791
2028.47	0.795
2037.6	0.8
2046.74	0.802
2055.87	0.809
2065.01	0.8
2074.14	0.8
2083.28	0.802
2092.41	0.795
2101.55	0.792
2110.68	0.794
2119.82	0.794
2128.95	0.794
2138.09	0.791
2147.22	0.789
2156.36	0.789
2165.49	0.787
2174.63	0.777
2183.76	0.77
2192.9	0.765
2202.03	0.763
2211.17	0.759
2220.3	0.748
2229.43	0.739
2238.57	0.742
2247.7	0.736
2256.84	0.731
2265.97	0.727
2275.11	0.721
2284.24	0.721
2293.38	0.712
2302.51	0.697
2311.65	0.679
2320.78	0.66
2329.92	0.648
2339.05	0.648
2348.19	0.641
2357.32	0.64
2366.46	0.638
2375.59	0.631
2384.73	0.622
2393.86	0.613
2403	0.602
2412.13	0.593
2421.27	0.584
2430.4	0.576
2439.54	0.567
2448.67	0.557
2457.81	0.546
2466.94	0.523
2476.08	0.511
2485.21	0.497
2494.35	0.486
2503.48	0.462
2512.62	0.441
2521.75	0.433
2530.88	0.44
2540.02	0.451
2549.15	0.455
2558.29	0.454
2567.42	0.44
2576.56	0.425
2585.69	0.404
2594.83	0.398
2603.96	0.398
2613.1	0.404
2622.23	0.411
2631.37	0.408
2640.5	0.398
2649.64	0.393
2658.77	0.395
2667.91	0.394
2677.04	0.388
2686.18	0.359
2695.31	0.351
2704.45	0.332
2713.58	0.324
2722.72	0.32
2731.85	0.319
2740.99	0.316
2750.12	0.313
2759.26	0.305
2768.39	0.289
2777.53	0.278
2786.66	0.269
2795.8	0.264
2804.93	0.25
2814.07	0.238
2823.2	0.234
2832.33	0.236
2841.47	0.233
2850.6	0.231
2859.74	0.24
2868.87	0.243
2878.01	0.239
2887.14	0.238
2896.28	0.246
2905.41	0.251
2914.55	0.272
2923.68	0.268
2932.82	0.252
2941.95	0.238
2951.09	0.251
2960.22	0.264
2969.36	0.26
2978.49	0.264
2987.63	0.268
2996.76	0.277
3005.9	0.285
3015.03	0.285
3024.17	0.289
3033.3	0.285
3042.44	0.261
3051.57	0.236
3060.71	0.236
3069.84	0.251
3078.98	0.279
3088.11	0.3
3097.25	0.343
3106.38	0.338
3115.52	0.329
3124.65	0.348
3133.78	0.421
3142.92	0.467
3152.05	0.476
3161.19	0.488
3170.32	0.509
3179.46	0.518
3188.59	0.535
3197.73	0.553
3206.86	0.569
3216	0.58
3225.13	0.587
3234.27	0.593
3243.4	0.602
3252.54	0.623
3261.67	0.634
3270.81	0.647
3279.94	0.651
3289.08	0.654
3298.21	0.651
3307.35	0.645
3316.48	0.641
3325.62	0.639
3334.75	0.634
3343.89	0.63
3353.02	0.623
3362.16	0.614
3371.29	0.602
3380.43	0.591
3389.56	0.58
3398.7	0.571
3407.83	0.565
3416.97	0.562
3426.1	0.565
3435.23	0.569
3444.37	0.578
3453.5	0.584
3462.64	0.592
3471.77	0.598
3480.91	0.605
3490.04	0.614
3499.18	0.621
3508.31	0.627
3517.45	0.639
3526.58	0.651
3535.72	0.66
3544.85	0.669
3553.99	0.679
3563.12	0.692
3572.26	0.704
3581.39	0.726
3590.53	0.742
3599.66	0.748
3608.8	0.756
3617.93	0.765
3627.07	0.774
3636.2	0.782
3645.34	0.79
3654.47	0.795
3663.61	0.799
3672.74	0.8
3681.88	0.798
3691.01	0.802
3700.15	0.809
3709.28	0.812
3718.41	0.817
3727.55	0.808
3736.68	0.805
3745.82	0.804
3754.95	0.8
3764.09	0.802
3773.22	0.809
3782.36	0.812
3791.49	0.812
3800.63	0.808
3809.76	0.805
3818.9	0.8
3828.03	0.792
3837.17	0.795
3846.3	0.796
3855.44	0.796
3864.57	0.798
3873.71	0.795
3882.84	0.796
3891.98	0.798
3901.11	0.795
3910.25	0.791
3919.38	0.787
3928.52	0.783
3937.65	0.782
3946.79	0.782
3955.92	0.783
3965.06	0.783
3974.19	0.781
3983.33	0.785
3992.46	0.786
4001.6	0.785
4010.73	0.789
