Infrared Spectrum: RIBOFURANOSIDE, METHYL, 5-BENZOATE, 2,3,-CYCLIC CARBONATE, Beta-
Formula: C14 H14 O7
CAS: 5517-62-4
State: SOLID (1 mg / 500 mg KBr DISC)
Class: COBLENTZ III
Instrument: PERKIN-ELMER 221 (GRATING)
Instrument parameters: FILTER CHANGE AT 2490, 980 CM^-^1, GRATING FOR 4000-1428 CM^-^1, NaCl PRISM FOR 1428-650 CM^-^1
Sampling: TRANSMISSION
Resolution: 4
Origin: SOUTHERN RESEARCH INST.
1/CM	TRANSMITTANCE
615.92	0.822
625.092	0.821
634.265	0.819
643.437	0.818
652.61	0.815
661.782	0.803
670.954	0.779
680.127	0.681
689.299	0.735
698.472	0.754
707.644	0.604
716.816	0.309
725.989	0.456
735.161	0.684
744.333	0.802
753.506	0.828
762.678	0.786
771.851	0.725
781.023	0.722
790.195	0.708
799.368	0.624
808.54	0.754
817.713	0.806
826.885	0.812
836.057	0.782
845.23	0.776
854.402	0.733
863.575	0.638
872.747	0.79
881.919	0.811
891.092	0.802
900.264	0.785
909.437	0.762
918.609	0.711
927.781	0.69
936.954	0.539
946.126	0.512
955.298	0.672
964.471	0.669
973.643	0.557
982.816	0.536
991.988	0.431
1001.16	0.576
1010.33	0.515
1019.51	0.573
1028.68	0.49
1037.85	0.603
1047.02	0.35
1056.19	0.544
1065.37	0.362
1074.54	0.311
1083.71	0.438
1092.88	0.342
1102.06	0.256
1111.23	0.287
1120.4	0.311
1129.57	0.468
1138.75	0.621
1147.92	0.671
1157.09	0.478
1166.26	0.487
1175.44	0.182
1184.61	0.358
1193.78	0.559
1202.95	0.622
1212.13	0.728
1221.3	0.776
1230.47	0.798
1239.64	0.746
1248.82	0.65
1257.99	0.535
1267.16	0.447
1276.33	0.252
1285.5	0.277
1294.68	0.587
1303.85	0.498
1313.02	0.489
1322.19	0.641
1331.37	0.452
1340.54	0.593
1349.71	0.73
1358.88	0.756
1368.06	0.748
1377.23	0.749
1386.4	0.742
1395.57	0.558
1404.75	0.631
1413.92	0.733
1423.09	0.863
1432.26	0.861
1441.44	0.841
1450.61	0.691
1459.78	0.634
1468.95	0.828
1478.12	0.766
1487.3	0.816
1496.47	0.823
1505.64	0.866
1514.81	0.878
1523.99	0.874
1533.16	0.871
1542.33	0.847
1551.5	0.809
1560.68	0.871
1569.85	0.862
1579.02	0.855
1588.19	0.791
1597.37	0.776
1606.54	0.837
1615.71	0.825
1624.88	0.822
1634.06	0.819
1643.23	0.816
1652.4	0.811
1661.57	0.794
1670.75	0.792
1679.92	0.788
1689.09	0.763
1698.26	0.733
1707.43	0.688
1716.61	0.619
1725.78	0.447
1734.95	0.149
1744.12	0.499
1753.3	0.617
1762.47	0.688
1771.64	0.723
1780.81	0.666
1789.99	0.509
1799.16	0.428
1808.33	0.354
1817.5	0.148
1826.68	0.187
1835.85	0.34
1845.02	0.446
1854.19	0.487
1863.37	0.542
1872.54	0.577
1881.71	0.639
1890.88	0.699
1900.05	0.729
1909.23	0.758
1918.4	0.767
1927.57	0.774
1936.74	0.775
1945.92	0.801
1955.09	0.809
1964.26	0.809
1973.43	0.801
1982.61	0.8
1991.78	0.806
2000.95	0.815
2010.12	0.819
2019.3	0.82
2028.47	0.831
2037.64	0.845
2046.81	0.846
2055.99	0.846
2065.16	0.843
2074.33	0.842
2083.5	0.847
2092.68	0.85
2101.85	0.853
2111.02	0.855
2120.19	0.856
2129.36	0.858
2138.54	0.858
2147.71	0.858
2156.88	0.858
2166.05	0.858
2175.23	0.858
2184.4	0.858
2193.57	0.858
2202.74	0.858
2211.92	0.856
2221.09	0.855
2230.26	0.855
2239.43	0.855
2248.61	0.855
2257.78	0.856
2266.95	0.857
2276.12	0.858
2285.3	0.858
2294.47	0.855
2303.64	0.852
2312.81	0.842
2321.98	0.819
2331.16	0.814
2340.33	0.831
2349.5	0.843
2358.67	0.843
2367.85	0.846
2377.02	0.849
2386.19	0.852
2395.36	0.852
2404.54	0.852
2413.71	0.852
2422.88	0.851
2432.05	0.849
2441.23	0.849
2450.4	0.847
2459.57	0.846
2468.74	0.844
2477.92	0.843
2487.09	0.84
2496.26	0.836
2505.43	0.834
2514.61	0.833
2523.78	0.833
2532.95	0.832
2542.12	0.832
2551.29	0.832
2560.47	0.832
2569.64	0.831
2578.81	0.831
2587.98	0.83
2597.16	0.829
2606.33	0.828
2615.5	0.827
2624.67	0.825
2633.85	0.825
2643.02	0.823
2652.19	0.822
2661.36	0.821
2670.54	0.82
2679.71	0.819
2688.88	0.819
2698.05	0.818
2707.23	0.817
2716.4	0.816
2725.57	0.816
2734.74	0.815
2743.91	0.815
2753.09	0.815
2762.26	0.813
2771.43	0.812
2780.6	0.812
2789.78	0.811
2798.95	0.809
2808.12	0.807
2817.29	0.8
2826.47	0.78
2835.64	0.757
2844.81	0.744
2853.98	0.772
2863.16	0.777
2872.33	0.776
2881.5	0.774
2890.67	0.763
2899.85	0.744
2909.02	0.716
2918.19	0.71
2927.36	0.711
2936.54	0.696
2945.71	0.659
2954.88	0.675
2964.05	0.695
2973.22	0.693
2982.4	0.726
2991.57	0.73
3000.74	0.715
3009.91	0.711
3019.09	0.742
3028.26	0.749
3037.43	0.746
3046.6	0.75
3055.78	0.746
3064.95	0.743
3074.12	0.746
3083.29	0.766
3092.47	0.769
3101.64	0.772
3110.81	0.775
3119.98	0.776
3129.16	0.775
3138.33	0.773
3147.5	0.773
3156.67	0.772
3165.84	0.771
3175.02	0.769
3184.19	0.768
3193.36	0.766
3202.53	0.763
3211.71	0.761
3220.88	0.758
3230.05	0.756
3239.22	0.754
3248.4	0.752
3257.57	0.75
3266.74	0.748
3275.91	0.745
3285.09	0.742
3294.26	0.737
3303.43	0.734
3312.6	0.733
3321.78	0.728
3330.95	0.72
3340.12	0.716
3349.29	0.708
3358.47	0.698
3367.64	0.694
3376.81	0.683
3385.98	0.67
3395.15	0.662
3404.33	0.657
3413.5	0.653
3422.67	0.647
3431.84	0.654
3441.02	0.658
3450.19	0.659
3459.36	0.659
3468.53	0.659
3477.71	0.662
3486.88	0.665
3496.05	0.67
3505.22	0.68
3514.4	0.682
3523.57	0.685
3532.74	0.687
3541.91	0.688
3551.09	0.688
3560.26	0.688
3569.43	0.686
3578.6	0.691
3587.77	0.701
3596.95	0.716
3606.12	0.733
3615.29	0.74
3624.46	0.743
3633.64	0.744
3642.81	0.745
3651.98	0.745
3661.15	0.744
3670.33	0.744
3679.5	0.744
3688.67	0.744
3697.84	0.745
3707.02	0.745
3716.19	0.745
3725.36	0.745
3734.53	0.744
3743.71	0.744
3752.88	0.743
3762.05	0.743
3771.22	0.744
3780.4	0.743
3789.57	0.742
3798.74	0.742
3807.91	0.741
3817.08	0.74
3826.26	0.739
3835.43	0.739
3844.6	0.738
3853.77	0.737
3862.95	0.736
3872.12	0.736
3881.29	0.736
3890.46	0.736
3899.64	0.736
3908.81	0.736
3917.98	0.736
3927.15	0.736
3936.33	0.736
3945.5	0.736
3954.67	0.736
3963.84	0.736
3973.02	0.736
3982.19	0.736
3991.36	0.736
4000.53	0.737
