Infrared Spectrum: 5-BENZYL-2,5-DIAZA-CYCLOHEPTANONE
Formula: C12 H16 N2 O
CAS: 55186-89-5
State: SOLUTION (7% IN CHCl3)
Class: COBLENTZ
Instrument: PERKIN-ELMER
Sampling: TRANSMISSION
Path length: 0.010 CM
Resolution: 4
Origin: ABBOTT LABORATORIES - WASHBURN
MICROMETERS	TRANSMITTANCE
2.055	0.887
2.09489	0.891
2.13479	0.8911
2.17468	0.9011
2.21458	0.907
2.25447	0.9111
2.29436	0.921
2.33426	0.9257
2.37415	0.9193
2.41404	0.926
2.45394	0.9167
2.49383	0.9223
2.53373	0.9191
2.57362	0.9241
2.61351	0.929
2.65341	0.9291
2.6933	0.931
2.7332	0.931
2.77309	0.922
2.81298	0.9463
2.85288	0.9131
2.89277	0.8846
2.93267	0.8346
2.97256	0.647
3.01245	0.7535
3.05235	0.7125
3.09224	0.6948
3.13213	0.6562
3.17203	0.7164
3.21192	0.7731
3.25182	0.7668
3.29171	0.7277
3.3316	0.7104
3.3715	0.4897
3.41139	0.5176
3.45129	0.5323
3.49118	0.6191
3.53107	0.7166
3.57097	0.6269
3.61086	0.5814
3.65076	0.6846
3.69065	0.7949
3.73054	0.8592
3.77044	0.8891
3.81033	0.924
3.85022	0.9291
3.89012	0.936
3.93001	0.932
3.96991	0.926
4.0098	0.9119
4.04969	0.8987
4.08959	0.8858
4.12948	0.879
4.16938	0.896
4.20927	0.912
4.24916	0.907
4.28906	0.904
4.32895	0.8922
4.36884	0.891
4.40874	0.884
4.44863	0.879
4.48853	0.8768
4.52842	0.871
4.56831	0.867
4.60821	0.86
4.6481	0.864
4.688	0.86
4.72789	0.859
4.76778	0.854
4.80768	0.852
4.84757	0.8491
4.88747	0.8469
4.92736	0.844
4.96725	0.845
5.00715	0.845
5.04704	0.8401
5.08693	0.8326
5.12683	0.8143
5.16672	0.8225
5.20662	0.8329
5.24651	0.837
5.2864	0.8273
5.3263	0.817
5.36619	0.8203
5.40609	0.827
5.44598	0.8289
5.48587	0.8122
5.52577	0.802
5.56566	0.807
5.60556	0.8093
5.64545	0.805
5.68534	0.7986
5.72524	0.788
5.76513	0.7794
5.80502	0.7506
5.84492	0.7221
5.88481	0.6559
5.92471	0.4468
5.9646	0.1007
6.00449	0.0352
6.04439	0.0356
6.08428	0.1921
6.12418	0.3744
6.16407	0.5115
6.20396	0.6247
6.24386	0.6494
6.28375	0.6959
6.32364	0.7211
6.36354	0.745
6.40343	0.7548
6.44333	0.766
6.48322	0.768
6.52311	0.785
6.56301	0.785
6.6029	0.785
6.6428	0.7611
6.68269	0.6744
6.72258	0.4526
6.76248	0.4583
6.80237	0.3587
6.84227	0.4402
6.88216	0.458
6.92205	0.4248
6.96195	0.43
7.00184	0.4085
7.04173	0.5106
7.08163	0.6091
7.12152	0.633
7.16142	0.6134
7.20131	0.5739
7.2412	0.6456
7.2811	0.6241
7.32099	0.5484
7.36089	0.4986
7.40078	0.221
7.44067	0.4135
7.48057	0.4978
7.52046	0.5767
7.56036	0.5369
7.60025	0.4406
7.64014	0.4308
7.68004	0.5148
7.71993	0.5874
7.75982	0.6087
7.79972	0.604
7.83961	0.5793
7.87951	0.581
7.9194	0.638
7.95929	0.6207
7.99919	0.5861
8.03908	0.584
8.07898	0.5451
8.11887	0.5
8.15876	0.5257
8.19866	0.558
8.23855	0.5783
8.27844	0.6003
8.31834	0.6371
8.35823	0.6783
8.39813	0.705
8.43802	0.661
8.47791	0.5441
8.51781	0.4972
8.5577	0.605
8.5976	0.652
8.63749	0.6617
8.67738	0.6378
8.71728	0.6385
8.75717	0.6498
8.79707	0.6536
8.83696	0.6287
8.87685	0.5907
8.91675	0.5563
8.95664	0.5138
8.99653	0.4357
9.03643	0.3835
9.07632	0.4065
9.11622	0.4719
9.15611	0.538
9.196	0.5999
9.2359	0.6379
9.27579	0.6455
9.31569	0.6413
9.35558	0.6301
9.39547	0.6576
9.43537	0.726
9.47526	0.7012
9.51516	0.7249
9.55505	0.7468
9.59494	0.7703
9.63484	0.7914
9.67473	0.8047
9.71462	0.7599
9.75452	0.6505
9.79441	0.7333
9.83431	0.768
9.8742	0.7701
9.91409	0.7411
9.95399	0.6546
9.99388	0.5827
10.0338	0.5787
10.0737	0.6493
10.1136	0.6637
10.1535	0.67
10.1934	0.6664
10.2332	0.6751
10.2731	0.7059
10.313	0.6982
10.3529	0.6093
10.3928	0.5169
10.4327	0.5493
10.4726	0.677
10.5125	0.7474
10.5524	0.7691
10.5923	0.7713
10.6322	0.7461
10.6721	0.6529
10.712	0.6062
10.7519	0.6405
10.7918	0.7001
10.8317	0.754
10.8715	0.758
10.9114	0.7489
10.9513	0.7231
10.9912	0.7101
11.0311	0.7017
11.071	0.7302
11.1109	0.7348
11.1508	0.7059
11.1907	0.6997
11.2306	0.7318
11.2705	0.7663
11.3104	0.775
11.3503	0.788
11.3902	0.7924
11.4301	0.8058
11.47	0.8156
11.5098	0.805
11.5497	0.7998
11.5896	0.8051
11.6295	0.805
11.6694	0.802
11.7093	0.8005
11.7492	0.8012
11.7891	0.804
11.829	0.803
11.8689	0.792
11.9088	0.7895
11.9487	0.7815
11.9886	0.773
12.0285	0.767
12.0684	0.7553
12.1083	0.7506
12.1482	0.7388
12.188	0.7312
12.2279	0.723
12.2678	0.713
12.3077	0.7093
12.3476	0.706
12.3875	0.7202
12.4274	0.7302
12.4673	0.738
12.5072	0.753
12.5471	0.775
12.587	0.778
12.6269	0.7926
12.6668	0.798
12.7067	0.8167
12.7466	0.828
12.7865	0.8392
12.8263	0.8473
12.8662	0.855
12.9061	0.86
12.946	0.867
12.9859	0.865
13.0258	0.865
13.0657	0.867
13.1056	0.867
13.1455	0.869
13.1854	0.872
13.2253	0.867
13.2652	0.869
13.3051	0.867
13.345	0.8672
13.3849	0.8686
13.4248	0.869
13.4646	0.864
13.5045	0.865
13.5444	0.865
13.5843	0.864
13.6242	0.867
13.6641	0.867
13.704	0.867
13.7439	0.867
13.7838	0.867
13.8237	0.862
13.8636	0.857
13.9035	0.8443
13.9434	0.828
13.9833	0.8016
14.0232	0.7738
14.0631	0.758
14.103	0.7396
14.1428	0.6924
14.1827	0.6464
14.2226	0.5716
14.2625	0.4951
14.3024	0.4042
14.3423	0.3318
14.3822	0.3639
14.4221	0.4734
14.462	0.601
14.5019	0.6827
14.5418	0.7171
14.5817	0.7409
14.6216	0.7669
14.6615	0.7879
14.7014	0.798
14.7413	0.817
14.7811	0.8282
14.821	0.847
14.8609	0.869
14.9008	0.874
14.9407	0.871
14.9806	0.872
15.0205	0.8598
15.0604	0.8129
15.1003	0.6735
15.1402	0.621
15.1801	0.6687
15.22	0.7088
15.2599	0.7426
15.2998	0.7698
15.3397	0.788
15.3796	0.792
