Infrared Spectrum: 3-Tetradecyn-1-ol
Formula: C 14 H 26 O
CAS: 55182-74-6
State: gas
Origin: EPA-IR VAPOR PHASE LIBRARY
1/CM	ABSORBANCE
549.8	0.0012632
559.445	0.000992
569.09	0.0009413
578.735	0.0008956
588.38	0.0009183
598.025	0.0008736
607.67	0.000808
617.315	0.0007672
626.96	0.0007507
636.605	0.0007181
646.251	0.0005921
655.896	0.0004896
665.541	0.0005359
675.186	0.0007984
684.831	0.0008608
694.476	0.0009158
704.121	0.0014232
713.766	0.0018732
723.411	0.0019332
733.056	0.0017432
742.701	0.0013932
752.346	0.0012132
761.991	0.0010632
771.636	0.0010532
781.281	0.0008118
790.926	0.0009572
800.571	0.0009251
810.216	0.0009369
819.861	0.0008979
829.507	0.0013332
839.152	0.0018232
848.797	0.0020732
858.442	0.0018032
868.087	0.0013732
877.732	0.0011532
887.377	0.0012032
897.022	0.0012632
906.667	0.0014232
916.312	0.0016032
925.957	0.0016532
935.602	0.0016932
945.247	0.0016332
954.892	0.0015332
964.537	0.0018132
974.182	0.0020832
983.827	0.0026532
993.472	0.0035832
1003.12	0.0046732
1012.76	0.0059232
1022.41	0.0089232
1032.05	0.0155032
1041.7	0.0238032
1051.34	0.0216832
1060.99	0.0160332
1070.63	0.0106432
1080.28	0.0062732
1089.92	0.0037932
1099.57	0.0026632
1109.21	0.0023332
1118.86	0.0020732
1128.5	0.0019832
1138.15	0.0019632
1147.79	0.0020332
1157.44	0.0020532
1167.08	0.0022832
1176.73	0.0028832
1186.37	0.0032932
1196.02	0.0032032
1205.66	0.0032232
1215.31	0.0030732
1224.95	0.0027632
1234.6	0.0025732
1244.24	0.0025032
1253.89	0.0025532
1263.53	0.0026432
1273.18	0.0029232
1282.82	0.0034732
1292.47	0.0038232
1302.11	0.0042032
1311.76	0.0048732
1321.4	0.0064932
1331.05	0.0085332
1340.69	0.0078232
1350.34	0.0070532
1359.98	0.0062632
1369.63	0.0061332
1379.27	0.0067932
1388.92	0.0069032
1398.56	0.0058432
1408.21	0.0045832
1417.85	0.0042632
1427.5	0.0047532
1437.14	0.0070432
1446.79	0.0078032
1456.43	0.0090732
1466.08	0.0085232
1475.73	0.0053832
1485.37	0.0029732
1495.02	0.0020132
1504.66	0.0015332
1514.31	0.0012032
1523.95	0.0010232
1533.6	0.000854
1543.24	0.0008263
1552.89	0.0007039
1562.53	0.0005579
1572.18	0.000493
1581.82	0.0004698
1591.47	0.0004805
1601.11	0.0004223
1610.76	0.0003784
1620.4	0.0003089
1630.05	0.000284
1639.69	0.0003012
1649.34	0.0003433
1658.98	0.0002566
1668.63	0.0003439
1678.27	0.0003025
1687.92	0.0003166
1697.56	0.0003789
1707.21	0.0002702
1716.85	0.0003981
1726.5	0.000202
1736.14	0.000257
1745.79	0.0002071
1755.43	0.0002016
1765.08	0.0001655
1774.72	0.0001853
1784.37	0.0002186
1794.01	0.0001276
1803.66	0.0002115
1813.3	0.0001289
1822.95	0.0001748
1832.59	9.871e-05
1842.24	0.0001538
1851.88	0.0001432
1861.53	0.0001784
1871.17	0.000179
1880.82	0.0001714
1890.46	0.0002225
1900.11	0.0002258
1909.75	0.0002167
1919.4	0.0001892
1929.04	0.0001429
1938.69	0.00010099
1948.33	0.0001364
1957.98	6.895e-05
1967.62	0.00011858
1977.27	0.00012025
1986.91	8.674e-05
1996.56	0.00012155
2006.2	8.442e-05
2015.85	0.0001779
2025.49	0.0001892
2035.14	0.0002975
2044.78	0.0002828
2054.43	0.0002625
2064.07	0.0003108
2073.72	0.0002951
2083.36	0.0002617
2093.01	0.0002453
2102.65	0.000263
2112.3	0.0001821
2121.94	0.0001571
2131.59	0.000132
2141.23	0.00012015
2150.88	0.00011278
2160.52	9.382e-05
2170.17	0.0001378
2179.81	0.0001541
2189.46	0.0001701
2199.1	0.0001215
2208.75	0.0001629
2218.39	0.0002268
2228.04	0.0001917
2237.68	0.0001777
2247.33	0.0001389
2256.97	0.0001583
2266.62	0.0001758
2276.26	0.0001521
2285.91	0.0002297
2295.55	0.000145
2305.2	0.00011946
2314.84	0.0001388
2324.49	0.0001344
2334.13	7.433e-05
2343.78	0.0001621
2353.42	0.0001632
2363.07	0.0001996
2372.72	0.0001891
2382.36	0.00010438
2392.01	7.553e-05
2401.65	6.457e-05
2411.3	0.0001824
2420.94	0.0001684
2430.59	0.00012133
2440.23	0.0001758
2449.88	0.00013
2459.52	4.36e-05
2469.17	6.502e-05
2478.81	1.731e-05
2488.46	8.3e-06
2498.1	0.0001439
2507.75	0.0001665
2517.39	0.0001493
2527.04	0.0002028
2536.68	0.0001538
2546.33	0.0002012
2555.97	0.000166
2565.62	0.000247
2575.26	0.0002407
2584.91	0.0003208
2594.55	0.0004085
2604.2	0.0003612
2613.84	0.0004648
2623.49	0.0005111
2633.13	0.0006888
2642.78	0.0007109
2652.42	0.0007831
2662.07	0.0009259
2671.71	0.0009702
2681.36	0.0011232
2691	0.0010432
2700.65	0.0009137
2710.29	0.0009522
2719.94	0.0010033
2729.58	0.0011332
2739.23	0.0013032
2748.87	0.0013932
2758.52	0.0014532
2768.16	0.0017332
2777.81	0.0018932
2787.45	0.0022532
2797.1	0.0027532
2806.74	0.0034632
2816.39	0.0044732
2826.03	0.0059932
2835.68	0.0089132
2845.32	0.0154232
2854.97	0.0305132
2864.61	0.0425932
2874.26	0.0354832
2883.9	0.0309732
2893.55	0.0291632
2903.19	0.0351532
2912.84	0.0525932
2922.48	0.0837432
2932.13	0.117203
2941.77	0.104493
2951.42	0.0614732
2961.06	0.0437332
2970.71	0.0378532
2980.35	0.0193832
2990	0.0102732
2999.64	0.0064832
3009.29	0.0044932
3018.93	0.0033332
3028.58	0.0026932
3038.22	0.0021032
3047.87	0.0016932
3057.51	0.0013632
3067.16	0.0012332
3076.8	0.0009477
3086.45	0.0008237
3096.09	0.0007127
3105.74	0.0006747
3115.38	0.0005884
3125.03	0.0005959
3134.67	0.0003596
3144.32	0.000517
3153.96	0.000413
3163.61	0.0005006
3173.25	0.0003989
3182.9	0.0002801
3192.54	0.0001994
3202.19	0.0003207
3211.83	0.0001345
3221.48	0.0001801
3231.12	0.0001746
3240.77	0.0001591
3250.41	1.842e-05
3260.06	0.0002414
3269.7	0.0002258
3279.35	0.0003353
3289	0.0003056
3298.64	0.0002767
3308.29	0.0002589
3317.93	0.0002755
3327.58	0.0003379
3337.22	0.0002449
3346.87	0.0002047
3356.51	0.0002825
3366.16	0.000276
3375.8	0.0001793
3385.45	0.0002665
3395.09	0.0002482
3404.74	0.0003099
3414.38	0.0003851
3424.03	0.0002758
3433.67	0.0003231
3443.32	0.0003558
3452.96	0.0002392
3462.61	0.0002769
3472.25	0.0003893
3481.9	0.0004265
3491.54	0.0004064
3501.19	0.0004372
3510.83	0.0002932
3520.48	0.0004458
3530.12	0.0005339
3539.77	0.0004552
3549.41	0.0005009
3559.06	0.0005284
3568.7	0.0008071
3578.35	0.0007812
3587.99	0.0010932
3597.64	0.0015932
3607.28	0.0036132
3616.93	0.0048032
3626.57	0.0025632
3636.22	0.0016732
3645.86	0.0015332
3655.51	0.0021932
3665.15	0.0031132
3674.8	0.0025432
3684.44	0.0017432
3694.09	0.0010091
3703.73	0.0008759
3713.38	0.0008364
3723.02	0.0006264
3732.67	0.0005098
3742.31	0.000595
3751.96	0.000549
3761.6	0.0003928
3771.25	0.0004596
3780.89	0.0002948
3790.54	0.0003342
3800.18	0.0001845
3809.83	0.0002646
3819.47	0.0002479
3829.12	0.0003995
3838.76	0.0003819
3848.41	0.0004512
3858.05	0.0003816
3867.7	0.0003109
3877.34	0.0002639
3886.99	0.0003196
3896.63	0.0002428
3906.28	0.0003355
3915.92	0.0003155
3925.57	0.0002138
3935.21	0.0001806
3944.86	0.0003376
3954.5	0.0002038
3964.15	0.0002241
3973.79	0.0002411
3983.44	7.619e-05
3993.08	0.0002269
