Infrared Spectrum: Tri(2-furyl)phosphine
Formula: C 12 H 9 O 3 P
CAS: 5518-52-5
State: gas
Origin: EPA-IR VAPOR PHASE LIBRARY
1/CM	ABSORBANCE
549.8	0.00533
559.445	0.00625
569.09	0.00632
578.734	0.00767
588.379	0.02845
598.024	0.02692
607.669	0.00839
617.313	0.00746
626.958	0.00664
636.603	0.007
646.248	0.01189
655.893	0.0132
665.537	0.01063
675.182	0.00795
684.827	0.00892
694.472	0.01293
704.116	0.02029
713.761	0.02891
723.406	0.03948
733.051	0.11626
742.695	0.26188
752.34	0.09676
761.985	0.03075
771.63	0.02213
781.275	0.0186
790.919	0.01538
800.564	0.01314
810.209	0.02533
819.854	0.02328
829.498	0.00795
839.143	0.00476
848.788	0.00459
858.433	0.00641
868.078	0.00798
877.722	0.01613
887.367	0.03795
897.012	0.03705
906.657	0.03569
916.301	0.01321
925.946	0.00868
935.591	0.00677
945.236	0.00644
954.88	0.00525
964.525	0.00695
974.17	0.00928
983.815	0.01311
993.46	0.02712
1003.1	0.13239
1012.75	0.11866
1022.39	0.02168
1032.04	0.01019
1041.68	0.00837
1051.33	0.00744
1060.97	0.01058
1070.62	0.01431
1080.26	0.00662
1089.91	0.00897
1099.55	0.01591
1109.2	0.03358
1118.84	0.05836
1128.49	0.04348
1138.13	0.01886
1147.78	0.03994
1157.42	0.06265
1167.07	0.02166
1176.71	0.00631
1186.36	0.00514
1196	0.00553
1205.64	0.03258
1215.29	0.06387
1224.93	0.01797
1234.58	0.00611
1244.22	0.00415
1253.87	0.0029
1263.51	0.00389
1273.16	0.00354
1282.8	0.00441
1292.45	0.00443
1302.09	0.00407
1311.74	0.00325
1321.38	0.00321
1331.03	0.0037
1340.67	0.00399
1350.32	0.00574
1359.96	0.01195
1369.61	0.01615
1379.25	0.00854
1388.9	0.0051
1398.54	0.0048
1408.18	0.0051
1417.83	0.00586
1427.47	0.0073
1437.12	0.01092
1446.76	0.02034
1456.41	0.03012
1466.05	0.02275
1475.7	0.02259
1485.34	0.02029
1494.99	0.01022
1504.63	0.00664
1514.28	0.00637
1523.92	0.00692
1533.57	0.01003
1543.21	0.02306
1552.86	0.03202
1562.5	0.01795
1572.15	0.00858
1581.79	0.00674
1591.44	0.00786
1601.08	0.01121
1610.73	0.01167
1620.37	0.00997
1630.01	0.00933
1639.66	0.00655
1649.3	0.00441
1658.95	0.0054
1668.59	0.00805
1678.24	0.00938
1687.88	0.00613
1697.53	0.00356
1707.17	0.00435
1716.82	0.00841
1726.46	0.01218
1736.11	0.00636
1745.75	0.00257
1755.4	0.0019103
1765.04	0.0017908
1774.69	0.0015287
1784.33	0.0015431
1793.98	0.001526
1803.62	0.0014729
1813.27	0.0012992
1822.91	0.00111794
1832.55	0.00117118
1842.2	0.0012434
1851.84	0.000917
1861.49	0.00097
1871.13	0.00110392
1880.78	0.0014127
1890.42	0.00113715
1900.07	0.0011936
1909.71	0.0015663
1919.36	0.0013441
1929	0.0014646
1938.65	0.0015718
1948.29	0.0015116
1957.94	0.0018045
1967.58	0.0017253
1977.23	0.0016307
1986.87	0.0014897
1996.52	0.0017795
2006.16	0.00247
2015.81	0.00345
2025.45	0.0027
2035.1	0.0020577
2044.74	0.0018367
2054.38	0.00229
2064.03	0.0035
2073.67	0.00537
2083.32	0.00378
2092.96	0.0015007
2102.61	0.0012183
2112.25	0.001521
2121.9	0.0013421
2131.54	0.0013695
2141.19	0.0012
2150.83	0.0013348
2160.48	0.0015354
2170.12	0.0017096
2179.77	0.0016731
2189.41	0.0014979
2199.06	0.0014684
2208.7	0.0016121
2218.35	0.0019674
2227.99	0.0018056
2237.64	0.0017963
2247.28	0.0019182
2256.92	0.0018901
2266.57	0.0014946
2276.21	0.0012644
2285.86	0.0014319
2295.5	0.0019072
2305.15	0.00246
2314.79	0.00251
2324.44	0.0014411
2334.08	0.0015065
2343.73	0.0015829
2353.37	0.00213
2363.02	0.00316
2372.66	0.00301
2382.31	0.0015165
2391.95	0.0012871
2401.6	0.0018224
2411.24	0.00256
2420.89	0.00325
2430.53	0.00296
2440.18	0.00242
2449.82	0.0015633
2459.47	0.0014621
2469.11	0.0015529
2478.75	0.0016014
2488.4	0.0014827
2498.04	0.001803
2507.69	0.00271
2517.33	0.00394
2526.98	0.00414
2536.62	0.0025
2546.27	0.0018488
2555.91	0.0020453
2565.56	0.0018784
2575.2	0.0016445
2584.85	0.00212
2594.49	0.00307
2604.14	0.00524
2613.78	0.00629
2623.43	0.00431
2633.07	0.00214
2642.72	0.001837
2652.36	0.0019688
2662.01	0.0020338
2671.65	0.0017898
2681.29	0.0014066
2690.94	0.0010342
2700.58	0.001653
2710.23	0.0013031
2719.87	0.00111875
2729.52	0.000806
2739.16	0.000739
2748.81	0.0010538
2758.45	0.0010569
2768.1	0.0012081
2777.74	0.00083
2787.39	0.000907
2797.03	0.000772
2806.68	0.0015107
2816.32	0.0015684
2825.97	0.00109229
2835.61	0.00114441
2845.26	0.000959
2854.9	0.0010697
2864.55	0.000976
2874.19	0.0012893
2883.84	0.0012119
2893.48	0.0017137
2903.12	0.0017401
2912.77	0.0019693
2922.41	0.001333
2932.06	0.000894
2941.7	0.000859
2951.35	0.000437
2960.99	0.000915
2970.64	0.000919
2980.28	0.0012771
2989.93	0.001233
2999.57	0.00097
3009.22	0.00118783
3018.86	0.0011126
3028.51	0.0011463
3038.15	0.0010208
3047.8	0.0014496
3057.44	0.000793
3067.09	0.001123
3076.73	0.00109453
3086.38	0.0014012
3096.02	0.00117735
3105.67	0.00262
3115.31	0.00803
3124.95	0.01233
3134.6	0.00484
3144.24	0.00537
3153.89	0.00799
3163.53	0.00404
3173.18	0.0012415
3182.82	0.001028
3192.47	0.000736
3202.11	0.0012
3211.76	0.00094
3221.4	0.000753
3231.05	0.000833
3240.69	0.0012943
3250.34	0.00094
3259.98	0.00109073
3269.63	0.000722
3279.27	0.00114103
3288.92	0.0009992
3298.56	0.000806
3308.21	0.000594
3317.85	0.000642
3327.49	0.00067
3337.14	0.0013683
3346.78	0.000576
3356.43	0.000644
3366.07	0.00117593
3375.72	0.0013986
3385.36	0.000717
3395.01	0.000659
3404.65	0.000737
3414.3	0.0010687
3423.94	0.000817
3433.59	0.00109864
3443.23	0.0013051
3452.88	0.000607
3462.52	0.0014513
3472.17	0.000861
3481.81	0.000588
3491.46	0.0010784
3501.1	0.0010698
3510.75	0.000607
3520.39	0.000698
3530.04	0.000784
3539.68	0.0010228
3549.32	0.000786
3558.97	0.0013191
3568.61	0.0014921
3578.26	0.0010196
3587.9	0.0012548
3597.55	0.000763
3607.19	0.000483
3616.84	0.0015783
3626.48	0.0014656
3636.13	0.000511
3645.77	0.000679
3655.42	0.000398
3665.06	0.000942
3674.71	0.0013064
3684.35	0.0010448
3694	0.0009954
3703.64	0.00108137
3713.29	0.001005
3722.93	0.000698
3732.58	0.000213
3742.22	0.000895
3751.86	0.000989
3761.51	0.000891
3771.15	0.000614
3780.8	0.000637
3790.44	0.000716
3800.09	0.000907
3809.73	0.000489
3819.38	0.00071
3829.02	0.000735
3838.67	0.001069
3848.31	0.000506
3857.96	0.000377
3867.6	0.000514
3877.25	0.0014045
3886.89	0.001021
3896.54	0.000487
3906.18	0
3915.83	0.000118
3925.47	0.00116917
3935.12	0.00114183
3944.76	0.0014959
3954.41	0.0011372
3964.05	0.000738
3973.69	0.0017354
3983.34	0.0017071
3992.98	0.00303
