Infrared Spectrum: p-Decyloxybenzoic acid
Formula: C 17 H 26 O 3
CAS: 5519-23-3
State: gas
Origin: EPA-IR VAPOR PHASE LIBRARY
1/CM	ABSORBANCE
549.8	0.0035987
559.445	0.0048787
569.09	0.0060787
578.734	0.0047887
588.379	0.0053687
598.024	0.0057787
607.669	0.0069587
617.313	0.0111987
626.958	0.0043387
636.603	0.0029087
646.248	0.0013787
655.893	0.000973
665.537	0.0008542
675.182	0.0013387
684.827	0.0026187
694.472	0.0052087
704.116	0.0053287
713.761	0.0040587
723.406	0.0029287
733.051	0.0023587
742.695	0.0021587
752.34	0.0029987
761.985	0.0059687
771.63	0.0091887
781.275	0.0052287
790.919	0.0034087
800.564	0.0024087
810.209	0.0023887
819.854	0.0019187
829.498	0.0023787
839.143	0.0047987
848.788	0.0062587
858.433	0.0033487
868.078	0.0018987
877.722	0.0015187
887.367	0.0019587
897.012	0.0022487
906.657	0.0020087
916.301	0.0019387
925.946	0.0018187
935.591	0.0018787
945.236	0.0023087
954.88	0.0024887
964.525	0.0022387
974.17	0.0030187
983.815	0.0040387
993.46	0.0055287
1003.1	0.0075687
1012.75	0.0096887
1022.39	0.0095387
1032.04	0.0097987
1041.68	0.0095687
1051.33	0.0110187
1060.97	0.0142387
1070.62	0.0259587
1080.26	0.0385087
1089.91	0.0165587
1099.55	0.0073487
1109.2	0.0052787
1118.84	0.0042187
1128.49	0.0049387
1138.13	0.0059687
1147.78	0.0114187
1157.42	0.0397387
1167.07	0.0558887
1176.71	0.0183987
1186.36	0.0200787
1196	0.0129987
1205.64	0.0095287
1215.29	0.0114587
1224.93	0.0167687
1234.58	0.0255187
1244.22	0.0410087
1253.87	0.0471587
1263.51	0.0265787
1273.16	0.0147287
1282.8	0.0116787
1292.45	0.0135487
1302.09	0.0163587
1311.74	0.0133387
1321.38	0.0142387
1331.03	0.0151187
1340.67	0.0097587
1350.32	0.0101487
1359.96	0.0181287
1369.61	0.0138987
1379.25	0.0067287
1388.9	0.0054587
1398.54	0.0036387
1408.18	0.0037487
1417.83	0.0052787
1427.47	0.0037687
1437.12	0.0033587
1446.76	0.0042487
1456.41	0.0056087
1466.05	0.0071887
1475.7	0.0079587
1485.34	0.0045587
1494.99	0.0061887
1504.63	0.0169787
1514.28	0.0172087
1523.92	0.0051687
1533.57	0.0026787
1543.21	0.0022287
1552.86	0.0024487
1562.5	0.0032987
1572.15	0.0056587
1581.79	0.0085987
1591.44	0.0132187
1601.08	0.0291787
1610.73	0.0300587
1620.37	0.0103987
1630.01	0.0040487
1639.66	0.0021487
1649.3	0.0017687
1658.95	0.0015187
1668.59	0.0014387
1678.24	0.0015287
1687.88	0.0019687
1697.53	0.0023387
1707.17	0.0031287
1716.82	0.0044687
1726.46	0.0057487
1736.11	0.0116687
1745.75	0.0317387
1755.4	0.0894887
1765.04	0.0317987
1774.69	0.0108287
1784.33	0.0052787
1793.98	0.0028787
1803.62	0.0020987
1813.27	0.0019887
1822.91	0.0017187
1832.55	0.0010687
1842.2	0.0007189
1851.84	0.000585
1861.49	0.0005076
1871.13	0.0005559
1880.78	0.0006403
1890.42	0.0008232
1900.07	0.0009959
1909.71	0.0011187
1919.36	0.0009536
1929	0.000861
1938.65	0.0007498
1948.29	0.0006732
1957.94	0.0007016
1967.58	0.0007134
1977.23	0.0006848
1986.87	0.0006643
1996.52	0.00067
2006.16	0.0006627
2015.81	0.0006661
2025.45	0.0006625
2035.1	0.0005923
2044.74	0.0006692
2054.38	0.0006023
2064.03	0.0006334
2073.67	0.0005963
2083.32	0.0005898
2092.96	0.0005217
2102.61	0.0005033
2112.25	0.0005141
2121.9	0.0004464
2131.54	0.0004758
2141.19	0.0005222
2150.83	0.0005629
2160.48	0.0006323
2170.12	0.0005313
2179.77	0.0005503
2189.41	0.0003698
2199.06	0.0003371
2208.7	0.0004089
2218.35	0.0004501
2227.99	0.0004048
2237.64	0.0004617
2247.28	0.0003257
2256.92	0.0002651
2266.57	0.0003378
2276.21	0.0003425
2285.86	0.0003624
2295.5	0.0003338
2305.15	0.0003246
2314.79	0.0004
2324.44	0.0004808
2334.08	0.0003773
2343.73	0.0004201
2353.37	0.0003922
2363.02	0.0005187
2372.66	0.0005315
2382.31	0.0005114
2391.95	0.0005374
2401.6	0.0005087
2411.24	0.000629
2420.89	0.0006228
2430.53	0.000553
2440.18	0.0005452
2449.82	0.000537
2459.47	0.0005011
2469.11	0.000654
2478.75	0.0006091
2488.4	0.000669
2498.04	0.000594
2507.69	0.0005306
2517.33	0.0005451
2526.98	0.0005423
2536.62	0.0008029
2546.27	0.0008355
2555.91	0.0008691
2565.56	0.0007994
2575.2	0.0008772
2584.85	0.0007797
2594.49	0.0008471
2604.14	0.0007567
2613.78	0.0007708
2623.43	0.000607
2633.07	0.0006981
2642.72	0.0007056
2652.36	0.0006542
2662.01	0.0007307
2671.65	0.0007928
2681.29	0.000803
2690.94	0.000835
2700.58	0.0008042
2710.23	0.0007524
2719.87	0.0007537
2729.52	0.000906
2739.16	0.0009391
2748.81	0.0010987
2758.45	0.0012487
2768.1	0.0012587
2777.74	0.0011987
2787.39	0.0013887
2797.03	0.0016087
2806.68	0.0018687
2816.32	0.0022987
2825.97	0.0029287
2835.61	0.0041287
2845.26	0.0065887
2854.9	0.0130887
2864.55	0.0198687
2874.19	0.0169887
2883.84	0.0146187
2893.48	0.0131887
2903.12	0.0159887
2912.77	0.0234687
2922.41	0.0365387
2932.06	0.0518287
2941.7	0.0453387
2951.35	0.0309687
2960.99	0.0235887
2970.64	0.0194687
2980.28	0.0103287
2989.93	0.0056587
2999.57	0.0036787
3009.22	0.0027887
3018.86	0.0022287
3028.51	0.0020287
3038.15	0.0016287
3047.8	0.0017587
3057.44	0.0018587
3067.09	0.0017687
3076.73	0.0018987
3086.38	0.0020287
3096.02	0.0014987
3105.67	0.0014087
3115.31	0.0011587
3124.95	0.0008661
3134.6	0.000816
3144.24	0.0004401
3153.89	0.0005988
3163.53	0.0005397
3173.18	0.000533
3182.82	0.0003867
3192.47	0.0004422
3202.11	0.0003324
3211.76	0.0003952
3221.4	0.0004216
3231.05	0.0002853
3240.69	0.0001909
3250.34	0.0002329
3259.98	0.0002211
3269.63	0.0001888
3279.27	0.00014146
3288.92	0.0002715
3298.56	9.897e-05
3308.21	0.0002049
3317.85	0.0002985
3327.49	0.000298
3337.14	2.8e-05
3346.78	0.0001668
3356.43	0.0001952
3366.07	0.0002731
3375.72	0.0002204
3385.36	6.4724e-05
3395.01	0.0002512
3404.65	0.0003093
3414.3	6.6e-06
3423.94	0.0002862
3433.59	0.0002562
3443.23	0.000358
3452.88	0.0002885
3462.52	0.0002508
3472.17	0.0004125
3481.81	0.0004439
3491.46	0.0006454
3501.1	0.000581
3510.75	0.0003768
3520.39	0.0003115
3530.04	0.0003578
3539.68	0.000248
3549.32	0.0004638
3558.97	0.0007678
3568.61	0.0023087
3578.26	0.0125387
3587.9	0.0243587
3597.55	0.0030887
3607.19	0.0009686
3616.84	0.0005992
3626.48	0.0003678
3636.13	0.0002949
3645.77	0.0004235
3655.42	0.000417
3665.06	0.0002212
3674.71	0.00012092
3684.35	0.0005886
3694	0.0003474
3703.64	0.0001736
3713.29	0.0002961
3722.93	0.0002475
3732.58	0.0002363
3742.22	0.0002131
3751.86	0.0002733
3761.51	0.0001748
3771.15	0.0003416
3780.8	0.0001785
3790.44	0.0001411
3800.09	0.0002789
3809.73	0.0002208
3819.38	0.0003834
3829.02	0.0002984
3838.67	0.0001708
3848.31	0.0002619
3857.96	0
3867.6	0.0001854
3877.25	0.0001737
3886.89	0.000238
3896.54	0.000264
3906.18	0.0003314
3915.83	0.000219
3925.47	0.0002128
3935.12	0.0003424
3944.76	0.0003581
3954.41	0.0002453
3964.05	0.0003622
3973.69	0.0004031
3983.34	0.0003135
3992.98	0.0004548
