Infrared Spectrum: DIMETHYL-2,5-DIETHYLADIPATE
Formula: C12 H22 O4
CAS: 55191-18-9
Class: COBLENTZ
Instrument: Not specified, most likely a prism, grating, or hybrid spectrometer.
Sampling: TRANSMISSION
Path length: 0.0026 CM CELL
Resolution: 4
MICROMETERS	TRANSMITTANCE
1.996	0.907
2.03319	0.91
2.07038	0.906
2.10757	0.91
2.14476	0.853
2.18194	0.848
2.21913	0.868
2.25632	0.873
2.29351	0.862
2.3307	0.875
2.36789	0.882
2.40508	0.892
2.44227	0.898
2.47946	0.91
2.51664	0.92
2.55383	0.909
2.59102	0.926
2.62821	0.92
2.6654	0.926
2.70259	0.91
2.73978	0.923
2.77697	0.929
2.81416	0.91
2.85134	0.84
2.88853	0.92
2.92572	0.921
2.96291	0.925
3.0001	0.921
3.03729	0.914
3.07448	0.903
3.11167	0.887
3.14885	0.876
3.18604	0.856
3.22323	0.809
3.26042	0.643
3.29761	0.35
3.3348	0.076
3.37199	0.028
3.40918	0.107
3.44637	0.229
3.48355	0.317
3.52074	0.715
3.55793	0.817
3.59512	0.876
3.63231	0.873
3.6695	0.9
3.70669	0.904
3.74388	0.91
3.78107	0.914
3.81825	0.915
3.85544	0.914
3.89263	0.92
3.92982	0.931
3.96701	0.934
4.0042	0.939
4.04139	0.937
4.07858	0.94
4.11577	0.94
4.15295	0.932
4.19014	0.923
4.22733	0.893
4.26452	0.903
4.30171	0.903
4.3389	0.925
4.37609	0.942
4.41328	0.946
4.45047	0.951
4.48765	0.956
4.52484	0.954
4.56203	0.95
4.59922	0.937
4.63641	0.939
4.6736	0.932
4.71079	0.92
4.74798	0.909
4.78517	0.912
4.82235	0.904
4.85954	0.901
4.89673	0.914
4.93392	0.912
4.97111	0.892
5.0083	0.884
5.04549	0.901
5.08268	0.906
5.11986	0.918
5.15705	0.928
5.19424	0.937
5.23143	0.939
5.26862	0.937
5.30581	0.929
5.343	0.929
5.38019	0.923
5.41738	0.918
5.45456	0.903
5.49175	0.875
5.52894	0.828
5.56613	0.754
5.60332	0.648
5.64051	0.512
5.6777	0.265
5.71489	0.078
5.75208	0.014
5.78926	0.017
5.82645	0.053
5.86364	0.393
5.90083	0.467
5.93802	0.593
5.97521	0.728
6.0124	0.793
6.04959	0.817
6.08678	0.84
6.12396	0.85
6.16115	0.854
6.19834	0.86
6.23553	0.851
6.27272	0.854
6.30991	0.848
6.3471	0.831
6.38429	0.821
6.42148	0.812
6.45866	0.806
6.49585	0.807
6.53304	0.801
6.57023	0.785
6.60742	0.771
6.64461	0.748
6.6818	0.714
6.71899	0.65
6.75618	0.534
6.79336	0.243
6.83055	0.059
6.86774	0.06
6.90493	0.104
6.94212	0.078
6.97931	0.192
7.0165	0.537
7.05369	0.671
7.09087	0.682
7.12806	0.645
7.16525	0.514
7.20244	0.237
7.23963	0.167
7.27682	0.175
7.31401	0.275
7.3512	0.353
7.38839	0.378
7.42557	0.41
7.46276	0.448
7.49995	0.484
7.53714	0.462
7.57433	0.442
7.61152	0.442
7.64871	0.428
7.6859	0.417
7.72309	0.368
7.76027	0.298
7.79746	0.209
7.83465	0.128
7.87184	0.06
7.90903	0.054
7.94622	0.079
7.98341	0.095
8.0206	0.106
8.05779	0.089
8.09497	0.101
8.13216	0.096
8.16935	0.067
8.20654	0.059
8.24373	0.048
8.28092	0.028
8.31811	0.037
8.3553	0.02
8.39249	0.029
8.42967	0.021
8.46686	0.028
8.50405	0.028
8.54124	0.02
8.57843	0.017
8.61562	0.017
8.65281	0.017
8.69	0.02
8.72719	0.04
8.76437	0.07
8.80156	0.15
8.83875	0.218
8.87594	0.296
8.91313	0.337
8.95032	0.351
8.98751	0.346
9.0247	0.32
9.06188	0.259
9.09907	0.231
9.13626	0.226
9.17345	0.312
9.21064	0.409
9.24783	0.492
9.28502	0.517
9.32221	0.542
9.3594	0.557
9.39658	0.595
9.43377	0.62
9.47096	0.615
9.50815	0.615
9.54534	0.625
9.58253	0.635
9.61972	0.673
9.65691	0.692
9.6941	0.678
9.73128	0.62
9.76847	0.528
9.80566	0.478
9.84285	0.415
9.88004	0.401
9.91723	0.4
9.95442	0.395
9.99161	0.375
10.0288	0.351
10.066	0.378
10.1032	0.406
10.1404	0.451
10.1776	0.454
10.2147	0.475
10.2519	0.515
10.2891	0.571
10.3263	0.61
10.3635	0.659
10.4007	0.714
10.4379	0.775
10.4751	0.828
10.5123	0.867
10.5494	0.9
10.5866	0.92
10.6238	0.921
10.661	0.926
10.6982	0.931
10.7354	0.932
10.7726	0.928
10.8098	0.925
10.847	0.912
10.8841	0.901
10.9213	0.865
10.9585	0.803
10.9957	0.762
11.0329	0.732
11.0701	0.742
11.1073	0.754
11.1445	0.751
11.1817	0.723
11.2188	0.712
11.256	0.732
11.2932	0.754
11.3304	0.79
11.3676	0.809
11.4048	0.82
11.442	0.839
11.4792	0.854
11.5164	0.864
11.5535	0.862
11.5907	0.867
11.6279	0.867
11.6651	0.871
11.7023	0.857
11.7395	0.851
11.7767	0.837
11.8139	0.815
11.8511	0.806
11.8882	0.79
11.9254	0.76
11.9626	0.751
11.9998	0.754
12.037	0.753
12.0742	0.77
12.1114	0.795
12.1486	0.806
12.1857	0.821
12.2229	0.823
12.2601	0.806
12.2973	0.784
12.3345	0.726
12.3717	0.637
12.4089	0.531
12.4461	0.403
12.4833	0.348
12.5204	0.335
12.5576	0.396
12.5948	0.467
12.632	0.521
12.6692	0.587
12.7064	0.642
12.7436	0.664
12.7808	0.687
12.818	0.704
12.8551	0.721
12.8923	0.739
12.9295	0.746
12.9667	0.756
13.0039	0.765
13.0411	0.764
13.0783	0.762
13.1155	0.753
13.1527	0.735
13.1898	0.714
13.227	0.701
13.2642	0.682
13.3014	0.692
13.3386	0.71
13.3758	0.734
13.413	0.745
13.4502	0.756
13.4874	0.767
13.5245	0.776
13.5617	0.801
13.5989	0.825
13.6361	0.857
13.6733	0.887
13.7105	0.909
13.7477	0.932
13.7849	0.942
13.8221	0.946
13.8592	0.956
13.8964	0.959
13.9336	0.967
13.9708	0.973
14.008	0.978
14.0452	0.978
14.0824	0.978
14.1196	0.979
14.1568	0.979
14.1939	0.975
14.2311	0.971
14.2683	0.97
14.3055	0.967
14.3427	0.964
14.3799	0.964
14.4171	0.951
14.4543	0.957
14.4915	0.954
14.5286	0.95
14.5658	0.942
14.603	0.935
14.6402	0.932
14.6774	0.925
14.7146	0.918
14.7518	0.91
14.789	0.907
14.8262	0.903
14.8633	0.901
14.9005	0.898
14.9377	0.889
14.9749	0.868
15.0121	0.862
15.0493	0.862
15.0865	0.86
15.1237	0.859
15.1609	0.85
15.198	0.842
15.2352	0.834
15.2724	0.829
15.3096	0.825
15.3468	0.815
