Infrared Spectrum: DIMETHYL-2-ETHYLSUBERATE
Formula: C12 H22 O4
CAS: 55191-19-0
Class: COBLENTZ
Instrument: Not specified, most likely a prism, grating, or hybrid spectrometer.
Sampling: TRANSMISSION
Path length: 0.0026 CM CELL
Resolution: 4
MICROMETERS	TRANSMITTANCE
1.992	0.899
2.02934	0.9
2.06669	0.905
2.10403	0.902
2.14137	0.864
2.17872	0.849
2.21606	0.863
2.2534	0.869
2.29075	0.858
2.32809	0.861
2.36543	0.878
2.40277	0.891
2.44012	0.895
2.47746	0.903
2.5148	0.911
2.55215	0.909
2.58949	0.916
2.62683	0.919
2.66418	0.919
2.70152	0.911
2.73886	0.916
2.77621	0.916
2.81355	0.897
2.85089	0.836
2.88824	0.905
2.92558	0.919
2.96292	0.922
3.00027	0.919
3.03761	0.916
3.07495	0.906
3.11229	0.899
3.14964	0.881
3.18698	0.868
3.22432	0.827
3.26167	0.706
3.29901	0.436
3.33635	0.167
3.3737	0.041
3.41104	0.027
3.44838	0.208
3.48573	0.153
3.52307	0.6
3.56041	0.781
3.59776	0.855
3.6351	0.875
3.67244	0.886
3.70978	0.889
3.74713	0.9
3.78447	0.903
3.82181	0.905
3.85916	0.911
3.8965	0.923
3.93384	0.933
3.97119	0.934
4.00853	0.934
4.04587	0.942
4.08322	0.942
4.12056	0.936
4.1579	0.93
4.19525	0.92
4.23259	0.9
4.26993	0.914
4.30728	0.902
4.34462	0.931
4.38196	0.944
4.4193	0.948
4.45665	0.954
4.49399	0.956
4.53133	0.958
4.56868	0.944
4.60602	0.93
4.64336	0.937
4.68071	0.931
4.71805	0.922
4.75539	0.914
4.79274	0.906
4.83008	0.899
4.86742	0.889
4.90477	0.9
4.94211	0.9
4.97945	0.9
5.0168	0.889
5.05414	0.905
5.09148	0.913
5.12882	0.92
5.16617	0.927
5.20351	0.931
5.24085	0.934
5.2782	0.936
5.31554	0.928
5.35288	0.922
5.39023	0.917
5.42757	0.909
5.46491	0.902
5.50226	0.869
5.5396	0.812
5.57694	0.726
5.61429	0.572
5.65163	0.389
5.68897	0.139
5.72632	0.034
5.76366	0.01
5.801	0.012
5.83834	0.083
5.87569	0.343
5.91303	0.448
5.95037	0.639
5.98772	0.75
6.02506	0.799
6.0624	0.821
6.09975	0.846
6.13709	0.849
6.17443	0.858
6.21178	0.864
6.24912	0.857
6.28646	0.852
6.32381	0.847
6.36115	0.841
6.39849	0.838
6.43583	0.827
6.47318	0.821
6.51052	0.815
6.54786	0.812
6.58521	0.793
6.62255	0.779
6.65989	0.756
6.69724	0.723
6.73458	0.628
6.77192	0.517
6.80927	0.173
6.84661	0.082
6.88395	0.114
6.9213	0.082
6.95864	0.051
6.99598	0.234
7.03333	0.42
7.07067	0.605
7.10801	0.652
7.14535	0.627
7.1827	0.495
7.22004	0.265
7.25738	0.22
7.29473	0.197
7.33207	0.209
7.36941	0.25
7.40676	0.287
7.4441	0.326
7.48144	0.343
7.51879	0.354
7.55613	0.341
7.59347	0.336
7.63082	0.307
7.66816	0.296
7.7055	0.29
7.74285	0.282
7.78019	0.24
7.81753	0.18
7.85487	0.114
7.89222	0.068
7.92956	0.06
7.9669	0.054
8.00425	0.054
8.04159	0.063
8.07893	0.071
8.11628	0.071
8.15362	0.071
8.19096	0.066
8.22831	0.055
8.26565	0.048
8.30299	0.04
8.34034	0.026
8.37768	0.021
8.41502	0.02
8.45236	0.029
8.48971	0.026
8.52705	0.021
8.56439	0.017
8.60174	0.018
8.63908	0.02
8.67642	0.024
8.71377	0.037
8.75111	0.076
8.78845	0.139
8.8258	0.254
8.86314	0.277
8.90048	0.276
8.93783	0.284
8.97517	0.302
9.01251	0.307
9.04986	0.312
9.0872	0.285
9.12454	0.254
9.16188	0.287
9.19923	0.368
9.23657	0.467
9.27391	0.535
9.31126	0.565
9.3486	0.569
9.38594	0.551
9.42329	0.552
9.46063	0.577
9.49797	0.602
9.53532	0.614
9.57266	0.618
9.61	0.61
9.64735	0.597
9.68469	0.599
9.72203	0.586
9.75938	0.543
9.79672	0.507
9.83406	0.444
9.8714	0.402
9.90875	0.368
9.94609	0.354
9.98343	0.349
10.0208	0.372
10.0581	0.399
10.0955	0.447
10.1328	0.504
10.1701	0.551
10.2075	0.593
10.2448	0.642
10.2822	0.677
10.3195	0.715
10.3569	0.745
10.3942	0.771
10.4316	0.787
10.4689	0.801
10.5062	0.818
10.5436	0.84
10.5809	0.857
10.6183	0.88
10.6556	0.891
10.693	0.894
10.7303	0.897
10.7676	0.899
10.805	0.902
10.8423	0.902
10.8797	0.902
10.917	0.902
10.9544	0.895
10.9917	0.875
11.029	0.854
11.0664	0.832
11.1037	0.819
11.1411	0.804
11.1784	0.771
11.2158	0.737
11.2531	0.714
11.2904	0.701
11.3278	0.694
11.3651	0.698
11.4025	0.714
11.4398	0.723
11.4772	0.737
11.5145	0.745
11.5518	0.746
11.5892	0.743
11.6265	0.732
11.6639	0.728
11.7012	0.72
11.7386	0.717
11.7759	0.717
11.8132	0.717
11.8506	0.723
11.8879	0.718
11.9253	0.718
11.9626	0.726
12	0.722
12.0373	0.722
12.0747	0.726
12.112	0.732
12.1493	0.751
12.1867	0.79
12.224	0.815
12.2614	0.833
12.2987	0.836
12.3361	0.835
12.3734	0.805
12.4107	0.759
12.4481	0.689
12.4854	0.597
12.5228	0.538
12.5601	0.523
12.5975	0.54
12.6348	0.566
12.6721	0.6
12.7095	0.636
12.7468	0.664
12.7842	0.683
12.8215	0.701
12.8589	0.714
12.8962	0.726
12.9335	0.729
12.9709	0.726
13.0082	0.723
13.0456	0.718
13.0829	0.709
13.1203	0.712
13.1576	0.7
13.1949	0.687
13.2323	0.684
13.2696	0.683
13.307	0.697
13.3443	0.709
13.3817	0.732
13.419	0.743
13.4563	0.756
13.4937	0.762
13.531	0.76
13.5684	0.746
13.6057	0.734
13.6431	0.729
13.6804	0.729
13.7177	0.743
13.7551	0.77
13.7924	0.804
13.8298	0.833
13.8671	0.86
13.9045	0.883
13.9418	0.899
13.9792	0.905
14.0165	0.916
14.0538	0.92
14.0912	0.92
14.1285	0.92
14.1659	0.911
14.2032	0.906
14.2406	0.906
14.2779	0.906
14.3152	0.906
14.3526	0.909
14.3899	0.917
14.4273	0.916
14.4646	0.914
14.502	0.92
14.5393	0.913
14.5766	0.916
14.614	0.917
14.6513	0.913
14.6887	0.906
14.726	0.892
14.7634	0.903
14.8007	0.894
14.838	0.895
14.8754	0.895
14.9127	0.889
14.9501	0.88
14.9874	0.855
15.0248	0.855
15.0621	0.85
15.0994	0.846
15.1368	0.838
15.1741	0.833
15.2115	0.827
15.2488	0.819
15.2862	0.81
15.3235	0.804
