Infrared Spectrum: Benzene, 1-phenoxy-4-dodecyl-
Formula: C24 H34 O
CAS: 55191-60-1
State: SOLUTION (5% CCl4 FOR 2.7-7.5, 5% CS2 FOR 7.5-26 MICRON) VS SOLVENT
Class: COBLENTZ III
Instrument: DOW KBr FOREPRISM-GRATING
Instrument parameters: BLAZED AT 3.5, 12.0, 20.0 MICRON AND CHANGED AT 5.0, 7.5, 14.9 MICRON
Sampling: TRANSMISSION
Path length: 0.011 CM, 0.011 CM
Resolution: 2
Origin: DOW CHEMICAL COMPANY
1/CM	TRANSMITTANCE
3800	0.861
3791	0.8611
3782	0.861
3773	0.8602
3764	0.86
3755	0.8598
3746	0.8606
3737	0.8615
3728	0.8621
3719	0.8624
3710	0.8625
3701	0.8623
3692	0.8618
3683	0.8614
3674	0.8612
3665	0.8616
3656	0.8621
3647	0.8625
3638	0.863
3629	0.8634
3620	0.8665
3611	0.8658
3602	0.8667
3593	0.8686
3584	0.8717
3575	0.8761
3566	0.8763
3557	0.8756
3548	0.8759
3539	0.8778
3530	0.8793
3521	0.8802
3512	0.8811
3503	0.8821
3494	0.8835
3485	0.8848
3476	0.8862
3467	0.8873
3458	0.8885
3449	0.8897
3440	0.8909
3431	0.8918
3422	0.8928
3413	0.8939
3404	0.8949
3395	0.8959
3386	0.8968
3377	0.8978
3368	0.8987
3359	0.8994
3350	0.9
3341	0.9005
3332	0.9011
3323	0.9016
3314	0.9021
3305	0.9025
3296	0.9028
3287	0.9031
3278	0.9033
3269	0.9033
3260	0.9034
3251	0.9033
3242	0.9031
3233	0.9028
3224	0.9027
3215	0.9017
3206	0.8995
3197	0.8959
3188	0.8931
3179	0.8921
3170	0.8921
3161	0.8921
3152	0.8924
3143	0.8915
3134	0.8898
3125	0.8864
3116	0.8766
3107	0.8632
3098	0.8418
3089	0.8288
3080	0.8357
3071	0.8096
3062	0.7941
3053	0.7949
3044	0.7456
3035	0.7681
3026	0.8025
3017	0.819
3008	0.8158
2999	0.8001
2990	0.7131
2981	0.333
2972	0.1594
2963	0.1818
2954	0.29
2945	0.3153
2936	0.2755
2927	0.32
2918	0.3746
2909	0.429
2900	0.4836
2891	0.5228
2882	0.3991
2873	0.4428
2864	0.5235
2855	0.6035
2846	0.6899
2837	0.7526
2828	0.8046
2819	0.8265
2810	0.8396
2801	0.8481
2792	0.8552
2783	0.863
2774	0.8677
2765	0.869
2756	0.869
2747	0.8678
2738	0.8654
2729	0.8637
2720	0.8625
2711	0.8638
2702	0.8653
2693	0.8667
2684	0.8682
2675	0.8697
2666	0.8701
2657	0.8703
2648	0.8706
2639	0.8708
2630	0.8704
2621	0.8699
2612	0.8696
2603	0.8693
2594	0.8698
2585	0.8703
2576	0.8714
2567	0.8725
2558	0.8741
2549	0.8758
2540	0.8775
2531	0.8791
2522	0.8795
2513	0.8797
2504	0.8797
2495	0.8796
2486	0.8796
2477	0.8798
2468	0.8789
2459	0.8748
2450	0.8712
2441	0.8725
2432	0.873
2423	0.8702
2414	0.8694
2405	0.8698
2396	0.8718
2387	0.8738
2378	0.8752
2369	0.8761
2360	0.8771
2351	0.8778
2342	0.8787
2333	0.8791
2324	0.8765
2315	0.875
2306	0.8735
2297	0.8739
2288	0.8744
2279	0.8757
2270	0.8773
2261	0.8788
2252	0.8802
2243	0.8815
2234	0.8828
2225	0.8837
2216	0.8847
2207	0.8857
2198	0.8868
2189	0.8917
2180	0.8959
2171	0.8932
2162	0.8917
2153	0.8912
2144	0.8907
2135	0.8901
2126	0.8893
2117	0.8884
2108	0.8857
2099	0.8838
2090	0.8828
2081	0.8818
2072	0.8811
2063	0.8796
2054	0.8752
2045	0.8725
2036	0.8723
2027	0.8744
2018	0.8771
2009	0.8794
2000	0.8803
1991	0.878
1982	0.8811
1973	0.8833
1964	0.884
1955	0.8838
1946	0.8762
1937	0.8767
1928	0.8707
1919	0.8714
1910	0.8734
1901	0.8751
1892	0.8645
1883	0.8652
1874	0.8711
1865	0.8746
1856	0.8762
1847	0.8756
1838	0.8757
1829	0.8797
1820	0.8813
1811	0.8835
1802	0.8849
1793	0.8853
1784	0.8838
1775	0.8792
1766	0.8747
1757	0.8753
1748	0.8768
1739	0.8778
1730	0.8781
1721	0.878
1712	0.8775
1703	0.8773
1694	0.8775
1685	0.8754
1676	0.8723
1667	0.8641
1658	0.8607
1649	0.8562
1640	0.8568
1631	0.8557
1622	0.8466
1613	0.8137
1604	0.769
1595	0.3648
1586	0.5565
1577	0.7575
1568	0.8078
1559	0.8191
1550	0.8203
1541	0.8192
1532	0.8112
1523	0.7721
1514	0.2415
1505	0.5053
1496	0.0669
1487	0.3788
1478	0.5381
1469	0.4737
1460	0.5429
1451	0.718
1442	0.7898
1433	0.8216
1424	0.8292
1415	0.8032
1406	0.8035
1397	0.7972
1388	0.6571
1379	0.6649
1370	0.6351
1361	0.7772
1352	0.7954
1343	0.7912
1334	0.7661
1325	0.7804
1316	0.7808
1307	0.7596
1298	0.7524
1289	0.7048
1280	0.7092
1271	0.7251
1262	0.6395
1253	0.2631
1244	0.0686
1235	0.2506
1226	0.5759
1217	0.6842
1208	0.6544
1199	0.7565
1190	0.7697
1181	0.7088
1172	0.601
1163	0.7088
1154	0.7686
1145	0.7878
1136	0.7992
1127	0.8025
1118	0.7783
1109	0.7715
1100	0.7775
1091	0.7839
1082	0.7843
1073	0.7321
1064	0.8158
1055	0.8366
1046	0.8418
1037	0.8417
1028	0.8125
1019	0.7111
1010	0.8034
1001	0.8225
992	0.834
983	0.8378
974	0.8366
965	0.8354
956	0.8386
947	0.8455
938	0.844
929	0.8457
920	0.8425
911	0.8277
902	0.8081
893	0.8021
884	0.7937
875	0.5444
866	0.7771
857	0.7432
848	0.6562
839	0.6578
830	0.7641
821	0.8012
812	0.8182
803	0.7897
794	0.7817
785	0.7958
776	0.8108
767	0.7567
758	0.4731
749	0.7436
740	0.7896
731	0.8167
722	0.848
713	0.8447
704	0.8193
695	0.4662
686	0.8091
677	0.8435
668	0.87
659	0.8695
650	0.8663
641	0.8627
632	0.8575
623	0.8328
614	0.8049
605	0.8021
596	0.819
587	0.8289
578	0.8298
569	0.814
560	0.8055
551	0.8061
542	0.8115
533	0.8132
524	0.8128
515	0.8074
506	0.781
497	0.7628
488	0.7741
479	0.7914
470	0.8061
461	0.8165
452	0.824
443	0.8293
434	0.8317
425	0.8324
416	0.8325
407	0.8333
398	0.8345
