Infrared Spectrum: 1-(Chloromethyl)2-methylbenzene
Formula: C 8 H 9 Cl
CAS: 552-45-4
State: gas
Instrument: HP-GC/MS/IRD
Origin: NIST Mass Spectrometry Data Center
1/CM	ABSORBANCE
550	0.000404
562	7.4e-05
574	0.000294
586	0.001504
598	0.002002
610	0.000644
622	0.000376
634	0.000434
646	0.000802
658	0.002586
670	0.007986
682	0.01163
694	0.005964
706	0.004378
718	0.012126
730	0.02
742	0.013334
754	0.006582
766	0.004372
778	0.002066
790	0.000592
802	0.000428
814	0.000516
826	0.001628
838	0.002882
850	0.001488
862	0.000664
874	0.000514
886	0.000308
898	0.000388
910	0.000472
922	0.000336
934	0.000372
946	0.000348
958	0.000296
970	0.000222
982	0.00026
994	0.000296
1006	0.000298
1018	0.00038
1030	0.000642
1042	0.001134
1054	0.001148
1066	0.000492
1078	0.000374
1090	0.00049
1102	0.000882
1114	0.000698
1126	0.000394
1138	0.000412
1150	0.000642
1162	0.000682
1174	0.00066
1186	0.000888
1198	0.000794
1210	0.000836
1222	0.001058
1234	0.00122
1246	0.00285
1258	0.007376
1270	0.00726
1282	0.003398
1294	0.002418
1306	0.0013
1318	0.0006
1330	0.000474
1342	0.00046
1354	0.00054
1366	0.000642
1378	0.00099
1390	0.001254
1402	0.000944
1414	0.00097
1426	0.001432
1438	0.002624
1450	0.00459
1462	0.005434
1474	0.004342
1486	0.00438
1498	0.00399
1510	0.001836
1522	0.000902
1534	0.000694
1546	0.000634
1558	0.000608
1570	0.000666
1582	0.0009
1594	0.00116
1606	0.001224
1618	0.000866
1630	0.000452
1642	0.000308
1654	0.000276
1666	0.000288
1678	0.000236
1690	0.000288
1702	0.00039
1714	0.000312
1726	0.000192
1738	0.000162
1750	0.000136
1762	0.00015
1774	0.000236
1786	0.000428
1798	0.000534
1810	0.00043
1822	0.000366
1834	0.000366
1846	0.000182
1858	0.000146
1870	0.000266
1882	0.000338
1894	0.000432
1906	0.000646
1918	0.00057
1930	0.00042
1942	0.000582
1954	0.000356
1966	0.000124
1978	4.6e-05
1990	6.6e-05
2002	4.8e-05
2014	5.2e-05
2026	5.8e-05
2038	4.2e-05
2050	6.4e-05
2062	8.8e-05
2074	6.6e-05
2086	4e-05
2098	3.4e-05
2110	3.8e-05
2122	1.6e-05
2134	3.2e-05
2146	2.2e-05
2158	2e-05
2170	2.2e-05
2182	2e-05
2194	3.2e-05
2206	5e-05
2218	5.4e-05
2230	2.6e-05
2242	1.6e-05
2254	3.6e-05
2266	5e-05
2278	4.8e-05
2290	5.4e-05
2302	8.4e-05
2314	0.000106
2326	0.000184
2338	0.000218
2350	0.000182
2362	0.000126
2374	0.000106
2386	9.6e-05
2398	7.4e-05
2410	7.4e-05
2422	8.8e-05
2434	0.000134
2446	0.000104
2458	0.000106
2470	9.6e-05
2482	0.000104
2494	9.8e-05
2506	9.8e-05
2518	0.000106
2530	9e-05
2542	7e-05
2554	9e-05
2566	8.8e-05
2578	0.000118
2590	0.000132
2602	0.000118
2614	0.000152
2626	0.000134
2638	0.000122
2650	0.00014
2662	0.000118
2674	0.000156
2686	0.000196
2698	0.000228
2710	0.000318
2722	0.000316
2734	0.000314
2746	0.00038
2758	0.000358
2770	0.000314
2782	0.000324
2794	0.000296
2806	0.000324
2818	0.000408
2830	0.000532
2842	0.000784
2854	0.001212
2866	0.001948
2878	0.00276
2890	0.003066
2902	0.002822
2914	0.003046
2926	0.004194
2938	0.00495
2950	0.00473
2962	0.00505
2974	0.00616
2986	0.005786
2998	0.00405
3010	0.004364
3022	0.007064
3034	0.007318
3046	0.005438
3058	0.006148
3070	0.00785
3082	0.00676
3094	0.0034
3106	0.001822
3118	0.001148
3130	0.000706
3142	0.00051
3154	0.000424
3166	0.000334
3178	0.00027
3190	0.000216
3202	0.000188
3214	0.00017
3226	0.000172
3238	0.000134
3250	0.000158
3262	0.0001
3274	0.000124
3286	0.000112
3298	0.000176
3310	0.0001
3322	0.000104
3334	7.4e-05
3346	3.8e-05
3358	8.6e-05
3370	9e-05
3382	8.4e-05
3394	0.000104
3406	9.8e-05
3418	0.000126
3430	0.000108
3442	0.00011
3454	5.8e-05
3466	3.2e-05
3478	9.4e-05
3490	7e-05
3502	2.6e-05
3514	9e-05
3526	6e-05
3538	9.2e-05
3550	9.4e-05
3562	2.8e-05
3574	5.6e-05
3586	6.8e-05
3598	9.2e-05
3610	9e-05
3622	0.000108
3634	9.6e-05
3646	6.2e-05
3658	1e-05
3670	0.00011
3682	3.6e-05
3694	3.4e-05
3706	4.2e-05
3718	0.000126
3730	0.000106
3742	0.00012
3754	0.000154
3766	0.00012
3778	0.000176
3790	0.000146
3802	9.8e-05
3814	0.000118
3826	0.000156
3838	0.00018
