Infrared Spectrum: N-METHYLDIPHENYL-AMINE
Formula: C13 H13 N
CAS: 552-82-9
State: LIQUID
Boiling point: 125-126 C AT 12 mmHg
Class: COBLENTZ
Instrument: Not specified, most likely a prism, grating, or hybrid spectrometer.
Sampling: TRANSMISSION
Path length: 0.003 CM
Resolution: 4
Origin: WYANDOTTE CHEMICALS CORP., WYANDOTTE, MICHIGAN, USA
MICROMETERS	TRANSMITTANCE
2.025	0.995
2.06213	0.989
2.09927	0.982
2.1364	0.989
2.17353	0.981
2.21067	0.964
2.2478	0.962
2.28493	0.962
2.32207	0.956
2.3592	0.95
2.39633	0.933
2.43347	0.928
2.4706	0.928
2.50773	0.928
2.54487	0.933
2.582	0.944
2.61913	0.935
2.65627	0.931
2.6934	0.928
2.73053	0.928
2.76767	0.936
2.8048	0.938
2.84193	0.936
2.87907	0.931
2.9162	0.927
2.95333	0.853
2.99047	0.799
3.0276	0.911
3.06473	0.913
3.10187	0.907
3.139	0.868
3.17613	0.84
3.21327	0.754
3.2504	0.386
3.28753	0.264
3.32467	0.48
3.3618	0.579
3.39893	0.451
3.43607	0.449
3.4732	0.369
3.51033	0.561
3.54747	0.534
3.5846	0.54
3.62173	0.782
3.65887	0.828
3.696	0.857
3.73313	0.857
3.77027	0.822
3.8074	0.812
3.84453	0.799
3.88167	0.789
3.9188	0.799
3.95593	0.817
3.99307	0.82
4.0302	0.846
4.06733	0.836
4.10447	0.817
4.1416	0.839
4.17873	0.848
4.21586	0.85
4.253	0.843
4.29013	0.862
4.32726	0.884
4.3644	0.868
4.40153	0.854
4.43866	0.862
4.4758	0.873
4.51293	0.873
4.55006	0.867
4.5872	0.842
4.62433	0.851
4.66146	0.862
4.6986	0.865
4.73573	0.862
4.77286	0.856
4.81	0.848
4.84713	0.856
4.88426	0.84
4.9214	0.822
4.95853	0.829
4.99566	0.846
5.0328	0.846
5.06993	0.828
5.10706	0.82
5.1442	0.78
5.18133	0.712
5.21846	0.681
5.2556	0.712
5.29273	0.765
5.32986	0.788
5.367	0.748
5.40413	0.744
5.44126	0.726
5.4784	0.735
5.51553	0.738
5.55266	0.752
5.5898	0.751
5.62693	0.755
5.66406	0.758
5.7012	0.758
5.73833	0.74
5.77546	0.732
5.8126	0.718
5.84973	0.709
5.88686	0.692
5.924	0.683
5.96113	0.678
5.99826	0.619
6.0354	0.612
6.07253	0.591
6.10966	0.502
6.1468	0.358
6.18393	0.064
6.22106	0.023
6.2582	0.02
6.29533	0.035
6.33246	0.213
6.3696	0.428
6.40673	0.564
6.44386	0.568
6.481	0.513
6.51813	0.44
6.55526	0.248
6.5924	0.089
6.62953	0.023
6.66666	0.03
6.7038	0.032
6.74093	0.097
6.77806	0.21
6.8152	0.259
6.85233	0.251
6.88946	0.258
6.9266	0.435
6.96373	0.528
7.00086	0.57
7.038	0.545
7.07513	0.622
7.11226	0.636
7.1494	0.619
7.18653	0.595
7.22366	0.562
7.2608	0.51
7.29793	0.426
7.33506	0.29
7.3722	0.095
7.40933	0.027
7.44646	0.023
7.4836	0.029
7.52073	0.058
7.55786	0.097
7.595	0.12
7.63213	0.145
7.66926	0.153
7.7064	0.157
7.74353	0.202
7.78066	0.227
7.8178	0.179
7.85493	0.089
7.89206	0.153
7.9292	0.115
7.96633	0.052
8.00346	0.078
8.0406	0.174
8.07773	0.355
8.11486	0.476
8.152	0.542
8.18913	0.579
8.22626	0.593
8.2634	0.591
8.30053	0.587
8.33766	0.556
8.37479	0.428
8.41193	0.25
8.44906	0.256
8.48619	0.327
8.52333	0.391
8.56046	0.499
8.59759	0.445
8.63473	0.319
8.67186	0.415
8.70899	0.476
8.74613	0.375
8.78326	0.173
8.82039	0.04
8.85753	0.088
8.89466	0.238
8.93179	0.262
8.96893	0.262
9.00606	0.35
9.04319	0.421
9.08033	0.381
9.11746	0.197
9.15459	0.207
9.19173	0.387
9.22886	0.431
9.26599	0.281
9.30313	0.231
9.34026	0.293
9.37739	0.33
9.41453	0.561
9.45166	0.652
9.48879	0.698
9.52593	0.71
9.56306	0.715
9.60019	0.69
9.63733	0.59
9.67446	0.349
9.71159	0.182
9.74873	0.346
9.78586	0.517
9.82299	0.616
9.86013	0.663
9.89726	0.693
9.93439	0.693
9.97153	0.622
10.0087	0.548
10.0458	0.455
10.0829	0.391
10.1201	0.542
10.1572	0.621
10.1943	0.641
10.2315	0.656
10.2686	0.663
10.3057	0.673
10.3429	0.681
10.38	0.689
10.4171	0.7
10.4543	0.698
10.4914	0.706
10.5285	0.731
10.5657	0.74
10.6028	0.758
10.6399	0.757
10.6771	0.755
10.7142	0.757
10.7513	0.757
10.7885	0.761
10.8256	0.763
10.8627	0.754
10.8999	0.729
10.937	0.698
10.9741	0.669
11.0113	0.655
11.0484	0.655
11.0855	0.659
11.1227	0.659
11.1598	0.658
11.1969	0.649
11.2341	0.638
11.2712	0.599
11.3083	0.573
11.3455	0.531
11.3826	0.482
11.4197	0.457
11.4569	0.423
11.494	0.395
11.5311	0.315
11.5683	0.17
11.6054	0.132
11.6425	0.262
11.6797	0.445
11.7168	0.548
11.7539	0.612
11.7911	0.655
11.8282	0.672
11.8653	0.673
11.9025	0.656
11.9396	0.639
11.9767	0.619
12.0139	0.618
12.051	0.624
12.0881	0.638
12.1253	0.641
12.1624	0.652
12.1995	0.641
12.2367	0.65
12.2738	0.656
12.3109	0.67
12.3481	0.693
12.3852	0.709
12.4223	0.721
12.4595	0.729
12.4966	0.726
12.5337	0.727
12.5709	0.724
12.608	0.718
12.6451	0.698
12.6823	0.686
12.7194	0.655
12.7565	0.615
12.7937	0.554
12.8308	0.451
12.8679	0.358
12.9051	0.273
12.9422	0.227
12.9793	0.205
13.0165	0.183
13.0536	0.179
13.0907	0.18
13.1279	0.143
13.165	0.105
13.2021	0.06
13.2393	0.037
13.2764	0.03
13.3135	0.03
13.3507	0.03
13.3878	0.03
13.4249	0.032
13.4621	0.054
13.4992	0.105
13.5363	0.202
13.5735	0.304
13.6106	0.4
13.6477	0.454
13.6849	0.494
13.722	0.52
13.7591	0.527
13.7963	0.525
13.8334	0.468
13.8705	0.406
13.9077	0.404
13.9448	0.472
13.9819	0.517
14.0191	0.533
14.0562	0.523
14.0933	0.493
14.1305	0.435
14.1676	0.363
14.2047	0.261
14.2419	0.179
14.279	0.115
14.3161	0.085
14.3533	0.081
14.3904	0.081
14.4275	0.086
14.4647	0.095
14.5018	0.1
14.5389	0.115
14.5761	0.131
14.6132	0.166
14.6503	0.227
14.6875	0.304
14.7246	0.383
14.7617	0.442
14.7989	0.489
14.836	0.539
14.8731	0.568
14.9103	0.582
14.9474	0.615
14.9845	0.619
15.0217	0.642
15.0588	0.647
15.0959	0.658
15.1331	0.667
15.1702	0.666
15.2073	0.667
15.2445	0.667
15.2816	0.666
15.3187	0.667
15.3559	0.672
15.393	0.68
15.4301	0.689
15.4673	0.692
15.5044	0.687
15.5415	0.689
15.5787	0.692
15.6158	0.697
15.6529	0.695
15.6901	0.7
15.7272	0.695
15.7643	0.692
15.8015	0.7
15.8386	0.692
15.8757	0.689
15.9129	0.683
15.95	0.678
15.9871	0.676
