Infrared Spectrum: o-Nitrobenzoic acid
Formula: C 7 H 5 N O 4
CAS: 552-16-9
State: gas
Origin: EPA-IR VAPOR PHASE LIBRARY
1/CM	ABSORBANCE
549.8	0.013981
559.445	0.016011
569.09	0.015451
578.734	0.012831
588.379	0.008501
598.024	0.005611
607.669	0.005011
617.313	0.013541
626.958	0.025491
636.603	0.018191
646.248	0.006001
655.893	0.006771
665.537	0.013781
675.182	0.015281
684.827	0.008881
694.472	0.007201
704.116	0.010251
713.761	0.015231
723.406	0.019851
733.051	0.023901
742.695	0.019941
752.34	0.016711
761.985	0.021791
771.63	0.028501
781.275	0.023821
790.919	0.010511
800.564	0.004121
810.209	0.002931
819.854	0.003061
829.498	0.003231
839.143	0.004381
848.788	0.014921
858.433	0.017481
868.078	0.006991
877.722	0.002591
887.367	0.001971
897.012	0.002101
906.657	0.001631
916.301	0.001431
925.946	0.001881
935.591	0.001931
945.236	0.002301
954.88	0.002981
964.525	0.002231
974.17	0.001581
983.815	0.001491
993.46	0.001661
1003.1	0.001821
1012.75	0.002971
1022.39	0.006011
1032.04	0.009761
1041.68	0.012751
1051.33	0.019001
1060.97	0.027111
1070.62	0.025211
1080.26	0.019651
1089.91	0.025231
1099.55	0.041651
1109.2	0.047801
1118.84	0.034001
1128.49	0.018671
1138.13	0.011171
1147.78	0.009641
1157.42	0.014911
1167.07	0.025871
1176.71	0.040301
1186.36	0.044561
1196	0.030571
1205.64	0.016601
1215.29	0.010241
1224.93	0.008221
1234.58	0.008461
1244.22	0.009441
1253.87	0.010691
1263.51	0.011211
1273.16	0.012291
1282.8	0.014101
1292.45	0.017101
1302.09	0.018411
1311.74	0.017911
1321.38	0.019351
1331.03	0.025321
1340.67	0.039581
1350.32	0.065511
1359.96	0.078251
1369.61	0.053561
1379.25	0.026231
1388.9	0.014391
1398.54	0.009201
1408.18	0.005611
1417.83	0.004201
1427.47	0.004271
1437.12	0.006351
1446.76	0.007791
1456.41	0.006701
1466.05	0.005411
1475.7	0.006381
1485.34	0.006901
1494.99	0.006761
1504.63	0.008261
1514.28	0.013471
1523.92	0.024081
1533.57	0.042441
1543.21	0.072631
1552.86	0.096301
1562.5	0.081961
1572.15	0.051691
1581.79	0.030691
1591.44	0.016461
1601.08	0.010671
1610.73	0.009511
1620.37	0.007451
1630.01	0.005451
1639.66	0.004451
1649.3	0.003861
1658.95	0.003291
1668.59	0.003081
1678.24	0.002931
1687.88	0.002851
1697.53	0.003021
1707.17	0.003611
1716.82	0.005101
1726.46	0.007851
1736.11	0.013451
1745.75	0.024851
1755.4	0.047581
1765.04	0.095791
1774.69	0.132061
1784.33	0.095171
1793.98	0.042341
1803.62	0.019641
1813.27	0.008901
1822.91	0.005491
1832.55	0.004361
1842.2	0.003351
1851.84	0.002691
1861.49	0.002731
1871.13	0.002301
1880.78	0.001811
1890.42	0.001581
1900.07	0.001421
1909.71	0.001311
1919.36	0.001201
1929	0.001771
1938.65	0.002131
1948.29	0.001921
1957.94	0.001661
1967.58	0.001581
1977.23	0.001181
1986.87	0.0007135
1996.52	0.0006676
2006.16	0.0005907
2015.81	0.0006677
2025.45	0.0005651
2035.1	0.0003936
2044.74	0.0005039
2054.38	0.0004126
2064.03	0.0004821
2073.67	0.0005189
2083.32	0.000471
2092.96	0.0005069
2102.61	0.0005871
2112.25	0.0005971
2121.9	0.0005571
2131.54	0.0006599
2141.19	0.0004813
2150.83	0.0004792
2160.48	0.0006702
2170.12	0.0007655
2179.77	0.0007213
2189.41	0.0006743
2199.06	0.0007251
2208.7	0.0007597
2218.35	0.0007036
2227.99	0.0006309
2237.64	0.0005979
2247.28	0.0005347
2256.92	0.0005497
2266.57	0.000601
2276.21	0.0007693
2285.86	0.0009507
2295.5	0.001181
2305.15	0.001771
2314.79	0.002341
2324.44	0.002651
2334.08	0.002631
2343.73	0.002291
2353.37	0.002581
2363.02	0.003381
2372.66	0.002841
2382.31	0.001621
2391.95	0.0010754
2401.6	0.001043
2411.24	0.0010191
2420.89	0.0008853
2430.53	0.0008065
2440.18	0.0008329
2449.82	0.0007805
2459.47	0.0007268
2469.11	0.0007427
2478.75	0.0006054
2488.4	0.0006093
2498.04	0.0005614
2507.69	0.0005964
2517.33	0.0007184
2526.98	0.0005552
2536.62	0.000612
2546.27	0.0006831
2555.91	0.0004006
2565.56	0.0004998
2575.2	0.0004567
2584.85	0.0005907
2594.49	0.0006638
2604.14	0.0005986
2613.78	0.0005418
2623.43	0.0005958
2633.07	0.0006188
2642.72	0.0006524
2652.36	0.0006596
2662.01	0.0006004
2671.65	0.0007667
2681.29	0.0008016
2690.94	0.0009495
2700.58	0.0009886
2710.23	0.001131
2719.87	0.000937
2729.52	0.0008635
2739.16	0.0007758
2748.81	0.0007224
2758.45	0.0005353
2768.1	0.0006298
2777.74	0.0004738
2787.39	0.0007344
2797.03	0.0006544
2806.68	0.0007362
2816.32	0.0007295
2825.97	0.0008529
2835.61	0.0009512
2845.26	0.0009258
2854.9	0.001221
2864.55	0.001341
2874.19	0.001771
2883.84	0.002201
2893.48	0.002351
2903.12	0.002231
2912.77	0.001891
2922.41	0.001541
2932.06	0.001531
2941.7	0.001241
2951.35	0.0010554
2960.99	0.001141
2970.64	0.0010152
2980.28	0.0009377
2989.93	0.0008389
2999.57	0.000957
3009.22	0.001141
3018.86	0.001024
3028.51	0.0010697
3038.15	0.001191
3047.8	0.001441
3057.44	0.001861
3067.09	0.003301
3076.73	0.005341
3086.38	0.005751
3096.02	0.003591
3105.67	0.001551
3115.31	0.0008716
3124.95	0.0005787
3134.6	0.0006991
3144.24	0.0007256
3153.89	0.0005629
3163.53	0.0005446
3173.18	0.0005771
3182.82	0.0006008
3192.47	0.0005647
3202.11	0.0006505
3211.76	0.0003921
3221.4	0.0005245
3231.05	0.0005122
3240.69	0.0005554
3250.34	0.0004075
3259.98	0.0005569
3269.63	0.0003727
3279.27	0.0004779
3288.92	0.0003516
3298.56	0.0003479
3308.21	0.0004298
3317.85	0.0007024
3327.49	0.0006079
3337.14	0.0004745
3346.78	0.0004571
3356.43	0.0005063
3366.07	0.0005882
3375.72	0.0007131
3385.36	0.0007164
3395.01	0.0006348
3404.65	0.00061
3414.3	0.0005616
3423.94	0.0007136
3433.59	0.0005732
3443.23	0.0005125
3452.88	0.0005734
3462.52	0.0007301
3472.17	0.0008587
3481.81	0.0006307
3491.46	0.0005947
3501.1	0.0009954
3510.75	0.0010594
3520.39	0.001501
3530.04	0.002001
3539.68	0.002341
3549.32	0.004101
3558.97	0.013211
3568.61	0.047821
3578.26	0.053931
3587.9	0.019361
3597.55	0.004241
3607.19	0.002161
3616.84	0.001271
3626.48	0.001161
3636.13	0.0005629
3645.77	0.0005503
3655.42	0.0004595
3665.06	0.0004397
3674.71	0.0005609
3684.35	0.0004592
3694	0.0006121
3703.64	0.0002418
3713.29	0.0004559
3722.93	0.0006165
3732.58	0.0005716
3742.22	0.0004861
3751.86	0.0004676
3761.51	0.0003605
3771.15	0.00019962
3780.8	0.0002792
3790.44	0.00034
3800.09	0.000221
3809.73	0.0003092
3819.38	0.0002941
3829.02	0.0004493
3838.67	0.0002231
3848.31	0.0002904
3857.96	0.00015267
3867.6	0.0002152
3877.25	0.0002825
3886.89	0.0003266
3896.54	0.00020337
3906.18	0.0002587
3915.83	0.000276
3925.47	0.00042
3935.12	0.0004386
3944.76	0.00020237
3954.41	0.0002726
3964.05	0.0002689
3973.69	0.00014648
3983.34	0.000110719
3992.98	0.00018789
