Infrared Spectrum: o-NITROBENZALDEHYDE
Formula: C7 H5 N O3
CAS: 552-89-6
State: SOLUTION (10% CCl4 FOR 5000-1330, 10% CS2 FOR 1330-625 CM^-^1)
Class: COBLENTZ
Instrument: Not specified, most likely a prism, grating, or hybrid spectrometer.
Sampling: TRANSMISSION
Path length: 0.0118 CM, 0.0115 CM
Resolution: 4
Origin: DOW CHEMICAL COMPANY
MICROMETERS	TRANSMITTANCE
2.069	0.864
2.11013	0.86
2.15127	0.862
2.1924	0.869
2.23354	0.872
2.27467	0.869
2.31581	0.871
2.35694	0.869
2.39807	0.862
2.43921	0.872
2.48034	0.876
2.52148	0.878
2.56261	0.878
2.60375	0.879
2.64488	0.879
2.68601	0.876
2.72715	0.878
2.76828	0.871
2.80942	0.855
2.85055	0.84
2.89169	0.817
2.93282	0.79
2.97396	0.829
3.01509	0.831
3.05622	0.829
3.09736	0.826
3.13849	0.821
3.17963	0.798
3.22076	0.747
3.2619	0.757
3.30303	0.788
3.34416	0.792
3.3853	0.716
3.42643	0.594
3.46757	0.632
3.5087	0.768
3.54984	0.814
3.59097	0.795
3.6321	0.797
3.67324	0.845
3.71437	0.847
3.75551	0.853
3.79664	0.862
3.83778	0.874
3.87891	0.881
3.92004	0.89
3.96118	0.893
4.00231	0.884
4.04345	0.879
4.08458	0.883
4.12572	0.883
4.16685	0.883
4.20798	0.895
4.24912	0.898
4.29025	0.893
4.33139	0.888
4.37252	0.893
4.41366	0.9
4.45479	0.903
4.49593	0.907
4.53706	0.91
4.57819	0.91
4.61933	0.91
4.66046	0.91
4.7016	0.91
4.74273	0.91
4.78387	0.91
4.825	0.908
4.86613	0.908
4.90727	0.907
4.9484	0.891
4.98954	0.874
5.03067	0.865
5.07181	0.872
5.11294	0.867
5.15407	0.89
5.19521	0.895
5.23634	0.893
5.27748	0.89
5.31861	0.869
5.35975	0.871
5.40088	0.86
5.44201	0.848
5.48315	0.869
5.52428	0.878
5.56542	0.869
5.60655	0.85
5.64769	0.829
5.68882	0.8
5.72995	0.745
5.77109	0.616
5.81222	0.376
5.85336	0.041
5.89449	0.115
5.93563	0.481
5.97676	0.596
6.0179	0.675
6.05903	0.69
6.10016	0.68
6.1413	0.673
6.18243	0.549
6.22357	0.457
6.2647	0.458
6.30584	0.261
6.34697	0.238
6.3881	0.283
6.42924	0.175
6.47037	0.08
6.51151	0.032
6.55264	0.07
6.59378	0.293
6.63491	0.453
6.67604	0.568
6.71718	0.618
6.75831	0.618
6.79945	0.671
6.84058	0.628
6.88172	0.448
6.92285	0.584
6.96398	0.718
7.00512	0.731
7.04625	0.73
7.08739	0.683
7.12852	0.527
7.16966	0.292
7.21079	0.395
7.25192	0.541
7.29306	0.513
7.33419	0.324
7.37533	0.084
7.41646	0.025
7.4576	0.164
7.49873	0.462
7.53987	0.554
7.581	0.534
7.62213	0.517
7.66327	0.654
7.7044	0.721
7.74554	0.733
7.78667	0.692
7.82781	0.484
7.86894	0.328
7.91007	0.64
7.95121	0.738
7.99234	0.773
8.03348	0.809
8.07461	0.81
8.11575	0.798
8.15688	0.773
8.19801	0.728
8.23915	0.668
8.28028	0.599
8.32142	0.412
8.36255	0.202
8.40369	0.109
8.44482	0.261
8.48595	0.52
8.52709	0.647
8.56822	0.67
8.60936	0.668
8.65049	0.723
8.69163	0.759
8.73276	0.704
8.77389	0.646
8.81503	0.725
8.85616	0.79
8.8973	0.81
8.93843	0.819
8.97957	0.828
9.0207	0.829
9.06184	0.831
9.10297	0.831
9.1441	0.831
9.18524	0.831
9.22637	0.831
9.26751	0.833
9.30864	0.835
9.34978	0.838
9.39091	0.843
9.43204	0.847
9.47318	0.85
9.51431	0.85
9.55545	0.85
9.59658	0.847
9.63772	0.84
9.67885	0.843
9.71998	0.848
9.76112	0.852
9.80225	0.853
9.84339	0.855
9.88452	0.855
9.92566	0.852
9.96679	0.835
10.0079	0.807
10.0491	0.788
10.0902	0.781
10.1313	0.783
10.1725	0.817
10.2136	0.826
10.2547	0.829
10.2959	0.829
10.337	0.81
10.3781	0.768
10.4193	0.742
10.4604	0.778
10.5015	0.826
10.5427	0.831
10.5838	0.838
10.6249	0.845
10.6661	0.847
10.7072	0.847
10.7483	0.852
10.7895	0.852
10.8306	0.852
10.8717	0.852
10.9129	0.85
10.954	0.848
10.9951	0.847
11.0363	0.838
11.0774	0.828
11.1186	0.817
11.1597	0.804
11.2008	0.786
11.242	0.75
11.2831	0.704
11.3242	0.661
11.3654	0.64
11.4065	0.639
11.4476	0.623
11.4888	0.606
11.5299	0.592
11.571	0.57
11.6122	0.475
11.6533	0.278
11.6944	0.147
11.7356	0.304
11.7767	0.51
11.8178	0.584
11.859	0.62
11.9001	0.639
11.9412	0.642
11.9824	0.623
12.0235	0.575
12.0646	0.505
12.1058	0.398
12.1469	0.245
12.188	0.158
12.2292	0.139
12.2703	0.238
12.3114	0.359
12.3526	0.482
12.3937	0.558
12.4348	0.604
12.476	0.628
12.5171	0.627
12.5583	0.596
12.5994	0.482
12.6405	0.305
12.6817	0.13
12.7228	0.099
12.7639	0.269
12.8051	0.45
12.8462	0.536
12.8873	0.582
12.9285	0.615
12.9696	0.649
13.0107	0.668
13.0519	0.676
13.093	0.676
13.1341	0.671
13.1753	0.663
13.2164	0.644
13.2575	0.618
13.2987	0.584
13.3398	0.541
13.3809	0.463
13.4221	0.353
13.4632	0.225
13.5043	0.132
13.5455	0.08
13.5866	0.08
13.6277	0.128
13.6689	0.199
13.71	0.295
13.7511	0.36
13.7923	0.42
13.8334	0.457
13.8746	0.479
13.9157	0.494
13.9568	0.5
13.998	0.498
14.0391	0.494
14.0802	0.486
14.1214	0.463
14.1625	0.434
14.2036	0.4
14.2448	0.36
14.2859	0.304
14.327	0.249
14.3682	0.209
14.4093	0.192
14.4504	0.194
14.4916	0.233
14.5327	0.274
14.5738	0.324
14.615	0.364
14.6561	0.391
14.6972	0.417
14.7384	0.432
14.7795	0.441
14.8206	0.45
14.8618	0.458
14.9029	0.458
14.944	0.467
14.9852	0.469
15.0263	0.467
15.0674	0.465
15.1086	0.46
15.1497	0.453
15.1908	0.45
15.232	0.441
15.2731	0.436
15.3143	0.427
15.3554	0.42
15.3965	0.415
15.4377	0.407
15.4788	0.396
15.5199	0.379
15.5611	0.359
15.6022	0.338
15.6433	0.323
15.6845	0.317
15.7256	0.312
15.7667	0.312
15.8079	0.314
15.849	0.317
15.8901	0.323
