Infrared Spectrum: p-Diethylaminoacetophenone
Formula: C 12 H 17 N O
CAS: 5520-66-1
State: gas
Origin: EPA-IR VAPOR PHASE LIBRARY
1/CM	ABSORBANCE
549.8	0.0137129
559.445	0.0293829
569.09	0.0346829
578.734	0.0213429
588.379	0.0228229
598.024	0.0187429
607.669	0.0107529
617.313	0.0065729
626.958	0.0069829
636.603	0.0102929
646.248	0.0082229
655.893	0.0033529
665.537	0.0020029
675.182	0.0016329
684.827	0.0015329
694.472	0.0011629
704.116	0.0012829
713.761	0.0011429
723.406	0.0016229
733.051	0.0019129
742.695	0.0021729
752.34	0.0026729
761.985	0.0033529
771.63	0.0053329
781.275	0.0104129
790.919	0.0229929
800.564	0.0295229
810.209	0.0390829
819.854	0.0538329
829.498	0.0307729
839.143	0.0114229
848.788	0.0068729
858.433	0.0048729
868.078	0.0039329
877.722	0.0037929
887.367	0.0047029
897.012	0.0064229
906.657	0.0058629
916.301	0.0055229
925.946	0.0077429
935.591	0.0148829
945.236	0.0383429
954.88	0.0412829
964.525	0.0167929
974.17	0.0100129
983.815	0.0086329
993.46	0.0112029
1003.1	0.0189429
1012.75	0.0264329
1022.39	0.0214929
1032.04	0.0161229
1041.68	0.0149329
1051.33	0.0167429
1060.97	0.0233129
1070.62	0.0350229
1080.26	0.0366329
1089.91	0.0280629
1099.55	0.0264929
1109.2	0.0235729
1118.84	0.0232029
1128.49	0.0283529
1138.13	0.0509829
1147.78	0.0943429
1157.42	0.0752729
1167.07	0.0420029
1176.71	0.0632729
1186.36	0.161323
1196	0.202493
1205.64	0.0836429
1215.29	0.0464629
1224.93	0.0470429
1234.58	0.0690729
1244.22	0.141823
1253.87	0.309693
1263.51	0.344053
1273.16	0.171483
1282.8	0.0904229
1292.45	0.0458529
1302.09	0.0351029
1311.74	0.0396129
1321.38	0.0376829
1331.03	0.0447929
1340.67	0.0739129
1350.32	0.132493
1359.96	0.182313
1369.61	0.116323
1379.25	0.105803
1388.9	0.0954629
1398.54	0.0739729
1408.18	0.0523229
1417.83	0.0478429
1427.47	0.0450629
1437.12	0.0328129
1446.76	0.0266029
1456.41	0.0277529
1466.05	0.0275429
1475.7	0.0255129
1485.34	0.0225129
1494.99	0.0274729
1504.63	0.0634929
1514.28	0.121003
1523.92	0.0804429
1533.57	0.0414329
1543.21	0.0388429
1552.86	0.0506229
1562.5	0.0620629
1572.15	0.0609929
1581.79	0.108133
1591.44	0.233333
1601.08	0.363463
1610.73	0.235003
1620.37	0.0777929
1630.01	0.0411629
1639.66	0.0326929
1649.3	0.0286329
1658.95	0.0264129
1668.59	0.0319829
1678.24	0.0739329
1687.88	0.224973
1697.53	0.200623
1707.17	0.0519629
1716.82	0.0208929
1726.46	0.0148429
1736.11	0.0114929
1745.75	0.0099829
1755.4	0.0085229
1765.04	0.0061329
1774.69	0.0043529
1784.33	0.0037029
1793.98	0.0034729
1803.62	0.0031329
1813.27	0.0028729
1822.91	0.0029929
1832.55	0.0031329
1842.2	0.0029729
1851.84	0.0031429
1861.49	0.0038429
1871.13	0.0040529
1880.78	0.0041129
1890.42	0.0045129
1900.07	0.0051629
1909.71	0.0055229
1919.36	0.0055129
1929	0.0045129
1938.65	0.0034129
1948.29	0.0032229
1957.94	0.0026029
1967.58	0.0020929
1977.23	0.0019329
1986.87	0.0021629
1996.52	0.0026129
2006.16	0.0031629
2015.81	0.0031329
2025.45	0.0026529
2035.1	0.0021129
2044.74	0.0016829
2054.38	0.0014129
2064.03	0.0014929
2073.67	0.0014829
2083.32	0.0016329
2092.96	0.0014929
2102.61	0.0014429
2112.25	0.0015229
2121.9	0.0014129
2131.54	0.0015029
2141.19	0.0018329
2150.83	0.0023929
2160.48	0.0024429
2170.12	0.0018229
2179.77	0.0013529
2189.41	0.0013829
2199.06	0.0012829
2208.7	0.0011229
2218.35	0.0010829
2227.99	0.0011029
2237.64	0.0011729
2247.28	0.0012229
2256.92	0.0012829
2266.57	0.0013629
2276.21	0.0014729
2285.86	0.0014929
2295.5	0.0016429
2305.15	0.0017329
2314.79	0.0018129
2324.44	0.0017429
2334.08	0.0018529
2343.73	0.0020129
2353.37	0.0020829
2363.02	0.0020629
2372.66	0.0019629
2382.31	0.0022729
2391.95	0.0023429
2401.6	0.0021429
2411.24	0.0018829
2420.89	0.0018329
2430.53	0.0017529
2440.18	0.0018529
2449.82	0.0019129
2459.47	0.0020729
2469.11	0.0021829
2478.75	0.0020929
2488.4	0.0024029
2498.04	0.0027329
2507.69	0.0032929
2517.33	0.0034829
2526.98	0.0035329
2536.62	0.0037529
2546.27	0.0045929
2555.91	0.0050329
2565.56	0.0048229
2575.2	0.0050229
2584.85	0.0054129
2594.49	0.0050829
2604.14	0.0045929
2613.78	0.0043129
2623.43	0.0039929
2633.07	0.0037929
2642.72	0.0035729
2652.36	0.0032729
2662.01	0.0032829
2671.65	0.0034429
2681.29	0.0034929
2690.94	0.0035029
2700.58	0.0033629
2710.23	0.0030729
2719.87	0.0031129
2729.52	0.0036329
2739.16	0.0038129
2748.81	0.0040929
2758.45	0.0044529
2768.1	0.0051629
2777.74	0.0063329
2787.39	0.0076629
2797.03	0.0088829
2806.68	0.0105229
2816.32	0.0133529
2825.97	0.0169329
2835.61	0.0202629
2845.26	0.0231929
2854.9	0.0261529
2864.55	0.0302329
2874.19	0.0385529
2883.84	0.0469629
2893.48	0.0456229
2903.12	0.0420129
2912.77	0.0409029
2922.41	0.0441029
2932.06	0.0598829
2941.7	0.0749029
2951.35	0.0603529
2960.99	0.0556529
2970.64	0.0832529
2980.28	0.115063
2989.93	0.0883929
2999.57	0.0439029
3009.22	0.0312229
3018.86	0.0231729
3028.51	0.0170529
3038.15	0.0172729
3047.8	0.0207329
3057.44	0.0182529
3067.09	0.0142729
3076.73	0.0156729
3086.38	0.0192229
3096.02	0.0207029
3105.67	0.0168229
3115.31	0.0113729
3124.95	0.0080729
3134.6	0.0053729
3144.24	0.0038329
3153.89	0.0030029
3163.53	0.0026129
3173.18	0.0024229
3182.82	0.0021129
3192.47	0.0020229
3202.11	0.0019629
3211.76	0.0016129
3221.4	0.0010729
3231.05	0.0010429
3240.69	0.000972
3250.34	0.0007894
3259.98	0.0007074
3269.63	0.0006993
3279.27	0.0006756
3288.92	0.000601
3298.56	0.0005709
3308.21	0.0007943
3317.85	0.0006008
3327.49	0.0007306
3337.14	0.0010429
3346.78	0.0015029
3356.43	0.0031129
3366.07	0.0044529
3375.72	0.0028729
3385.36	0.0016129
3395.01	0.0011529
3404.65	0.0006142
3414.3	0.000503
3423.94	0.0004957
3433.59	0.0004978
3443.23	0.0005011
3452.88	0.0005122
3462.52	0.0002368
3472.17	0.0004466
3481.81	0.0004428
3491.46	0.0002439
3501.1	0.0003055
3510.75	0.0004703
3520.39	0.0002888
3530.04	0.000217
3539.68	0.0003958
3549.32	0.0002485
3558.97	0.0004908
3568.61	0.0003263
3578.26	0.0002559
3587.9	0.0003928
3597.55	0.0003107
3607.19	0.0001489
3616.84	0.0002299
3626.48	0.0003217
3636.13	9.622e-05
3645.77	0.00010993
3655.42	0.0002392
3665.06	0.0002777
3674.71	0.0004775
3684.35	0.0004773
3694	0.0003866
3703.64	0.0003026
3713.29	0.0004341
3722.93	0.0003729
3732.58	0.0005486
3742.22	0.0005661
3751.86	0.0004275
3761.51	0.0003347
3771.15	0.0004517
3780.8	0.0002705
3790.44	0.0003668
3800.09	0.0005555
3809.73	0.0003109
3819.38	0.000275
3829.02	0.0003004
3838.67	0.0004571
3848.31	0.0004352
3857.96	0.0003802
3867.6	0.0004141
3877.25	0.0004792
3886.89	0.0004621
3896.54	0.0005325
3906.18	0.0003747
3915.83	0.0002854
3925.47	0.0005835
3935.12	0.0006095
3944.76	0.0005678
3954.41	0.0006537
3964.05	0.0004831
3973.69	0.0007791
3983.34	0.0006702
3992.98	0.000996
