Infrared Spectrum: 2-Methylpyrazine-5-carboxylic acid
Formula: C 6 H 6 N 2 O 2
CAS: 5521-55-1
State: gas
Origin: EPA-IR VAPOR PHASE LIBRARY
1/CM	ABSORBANCE
549.8	0.00355
559.445	0.00245
569.09	0.00414
578.734	0.00258
588.379	0.00291
598.024	0.00394
607.669	0.00275
617.313	0.0025
626.958	0.00389
636.603	0.00454
646.248	0.00543
655.893	0.00564
665.537	0.00633
675.182	0.00398
684.827	0.00227
694.472	0.0019746
704.116	0.00214
713.761	0.00275
723.406	0.00393
733.051	0.00363
742.695	0.00363
752.34	0.00304
761.985	0.00215
771.63	0.0017113
781.275	0.00206
790.919	0.0016402
800.564	0.001715
810.209	0.0013603
819.854	0.00231
829.498	0.0014433
839.143	0.001493
848.788	0.0013844
858.433	0.0018736
868.078	0.00112634
877.722	0.0009772
887.367	0.0012526
897.012	0.0014531
906.657	0.00222
916.301	0.0015939
925.946	0.0014147
935.591	0.0012162
945.236	0.0017717
954.88	0.0014947
964.525	0.0016959
974.17	0.00217
983.815	0.00249
993.46	0.00177
1003.1	0.0017398
1012.75	0.00327
1022.39	0.00526
1032.04	0.00665
1041.68	0.00481
1051.33	0.00299
1060.97	0.00207
1070.62	0.0020204
1080.26	0.00249
1089.91	0.00456
1099.55	0.00991
1109.2	0.00958
1118.84	0.00717
1128.49	0.00287
1138.13	0.00205
1147.78	0.00342
1157.42	0.00647
1167.07	0.00631
1176.71	0.0046
1186.36	0.00497
1196	0.00472
1205.64	0.00347
1215.29	0.00656
1224.93	0.0042
1234.58	0.00501
1244.22	0.00589
1253.87	0.00551
1263.51	0.00751
1273.16	0.01127
1282.8	0.01357
1292.45	0.01446
1302.09	0.01617
1311.74	0.0167
1321.38	0.01464
1331.03	0.01028
1340.67	0.0092
1350.32	0.01083
1359.96	0.01365
1369.61	0.01639
1379.25	0.01979
1388.9	0.02053
1398.54	0.01499
1408.18	0.00793
1417.83	0.00476
1427.47	0.00378
1437.12	0.00295
1446.76	0.00342
1456.41	0.00344
1466.05	0.00395
1475.7	0.00489
1485.34	0.00464
1494.99	0.00278
1504.63	0.00214
1514.28	0.00258
1523.92	0.00212
1533.57	0.0028
1543.21	0.00259
1552.86	0.00224
1562.5	0.00301
1572.15	0.00421
1581.79	0.00461
1591.44	0.00312
1601.08	0.0017001
1610.73	0.0016743
1620.37	0.0019113
1630.01	0.00206
1639.66	0.0019957
1649.3	0.0016309
1658.95	0.0019745
1668.59	0.0019012
1678.24	0.0019316
1687.88	0.0021
1697.53	0.0019914
1707.17	0.00214
1716.82	0.00237
1726.46	0.00288
1736.11	0.00364
1745.75	0.00558
1755.4	0.00848
1765.04	0.00962
1774.69	0.01146
1784.33	0.0245
1793.98	0.0315
1803.62	0.02343
1813.27	0.00674
1822.91	0.00303
1832.55	0.00224
1842.2	0.0019898
1851.84	0.0018713
1861.49	0.0017893
1871.13	0.0014732
1880.78	0.00167
1890.42	0.0013826
1900.07	0.0014558
1909.71	0.0014568
1919.36	0.0012514
1929	0.0012078
1938.65	0.0012748
1948.29	0.0012837
1957.94	0.0012415
1967.58	0.0015002
1977.23	0.0012943
1986.87	0.0012602
1996.52	0.0009507
2006.16	0.00105034
2015.81	0.0011988
2025.45	0.001178
2035.1	0.00112376
2044.74	0.0011948
2054.38	0.0011373
2064.03	0.0011465
2073.67	0.0013535
2083.32	0.0013678
2092.96	0.0013102
2102.61	0.0013495
2112.25	0.0011954
2121.9	0.0012115
2131.54	0.00102786
2141.19	0.000905
2150.83	0.0011359
2160.48	0.00111482
2170.12	0.00108566
2179.77	0.0009778
2189.41	0.0013033
2199.06	0.00106482
2208.7	0.00106812
2218.35	0.00122
2227.99	0.0009934
2237.64	0.001225
2247.28	0.0014354
2256.92	0.0010918
2266.57	0.0014704
2276.21	0.0014248
2285.86	0.00214
2295.5	0.00323
2305.15	0.00451
2314.79	0.00613
2324.44	0.00662
2334.08	0.00631
2343.73	0.00607
2353.37	0.00712
2363.02	0.00909
2372.66	0.00711
2382.31	0.00355
2391.95	0.0016155
2401.6	0.0016646
2411.24	0.0013005
2420.89	0.0011359
2430.53	0.0011705
2440.18	0.0014155
2449.82	0.00105506
2459.47	0.00111189
2469.11	0.0012268
2478.75	0.0012728
2488.4	0.0013538
2498.04	0.00110813
2507.69	0.0013613
2517.33	0.00108156
2526.98	0.00068
2536.62	0.0011557
2546.27	0.0011531
2555.91	0.0012374
2565.56	0.00110694
2575.2	0.00110105
2584.85	0.00111291
2594.49	0.0012515
2604.14	0.0013083
2613.78	0.0012015
2623.43	0.00105342
2633.07	0.0013662
2642.72	0.0011949
2652.36	0.000928
2662.01	0.0013
2671.65	0.0014054
2681.29	0.0011594
2690.94	0.00108353
2700.58	0.00105387
2710.23	0.000788
2719.87	0.0014686
2729.52	0.0012599
2739.16	0.0013293
2748.81	0.00105313
2758.45	0.0012988
2768.1	0.000904
2777.74	0.0012016
2787.39	0.0012101
2797.03	0.000827
2806.68	0.0011103
2816.32	0.0011527
2825.97	0.0009473
2835.61	0.000619
2845.26	0.0011117
2854.9	0.0014269
2864.55	0.00108592
2874.19	0.0012655
2883.84	0.0013376
2893.48	0.0011657
2903.12	0.0018403
2912.77	0.00221
2922.41	0.001894
2932.06	0.00216
2941.7	0.0018762
2951.35	0.00244
2960.99	0.00205
2970.64	0.0014078
2980.28	0.0015086
2989.93	0.00227
2999.57	0.00237
3009.22	0.00239
3018.86	0.0022
3028.51	0.00282
3038.15	0.0019808
3047.8	0.00274
3057.44	0.00284
3067.09	0.00331
3076.73	0.00238
3086.38	0.00221
3096.02	0.0017487
3105.67	0.0016878
3115.31	0.0009346
3124.95	7.5e-05
3134.6	0.0014458
3144.24	0.0004
3153.89	0.000575
3163.53	0.00109518
3173.18	0.0009422
3182.82	0.0012176
3192.47	0.0014463
3202.11	0.0012246
3211.76	0.000465
3221.4	0.0011644
3231.05	0.0012418
3240.69	0.0012229
3250.34	0.0010138
3259.98	0.0011466
3269.63	0.0014634
3279.27	0.0013475
3288.92	0.00102013
3298.56	0.0011619
3308.21	0.00102826
3317.85	0.000594
3327.49	0.0013001
3337.14	0.000469
3346.78	0.0013038
3356.43	0.0015877
3366.07	0.0011325
3375.72	0.00109527
3385.36	0.0010079
3395.01	0.000731
3404.65	0.00108574
3414.3	0.0021
3423.94	0.00308
3433.59	0.00575
3443.23	0.00728
3452.88	0.00639
3462.52	0.0052
3472.17	0.00412
3481.81	0.00301
3491.46	0.0020018
3501.1	0.0017684
3510.75	0.0015854
3520.39	0.0014867
3530.04	0.0018613
3539.68	0.0015653
3549.32	0.0019671
3558.97	0.0014813
3568.61	0.00374
3578.26	0.00509
3587.9	0.00386
3597.55	0.00205
3607.19	0.0015188
3616.84	0.0016215
3626.48	0.0015433
3636.13	0.0014513
3645.77	0.001359
3655.42	0.0016233
3665.06	0.0013872
3674.71	0.0012044
3684.35	0.0013425
3694	0.0015102
3703.64	0.0011562
3713.29	0.00106823
3722.93	0.000733
3732.58	0.0014697
3742.22	0.000897
3751.86	0.000915
3761.51	0.0015316
3771.15	0.0014544
3780.8	0.000849
3790.44	0.0012491
3800.09	0.000753
3809.73	0.0005
3819.38	0.000565
3829.02	0.00108304
3838.67	0.00063
3848.31	0.000895
3857.96	0.0014279
3867.6	0.000647
3877.25	0.000695
3886.89	0.000821
3896.54	0.001017
3906.18	0.000596
3915.83	0.000881
3925.47	0.000752
3935.12	0.000856
3944.76	0.00104937
3954.41	0.000582
3964.05	0.000656
3973.69	0.000572
3983.34	0.0009671
3992.98	0.00112462
