Infrared Spectrum: Ethyl mesitylglyoxylate
Formula: C 13 H 16 O 3
CAS: 5524-57-2
State: gas
Origin: EPA-IR VAPOR PHASE LIBRARY
1/CM	ABSORBANCE
549.9	0.00974
559.547	0.00592
569.193	0.00494
578.84	0.00438
588.486	0.00456
598.133	0.00578
607.779	0.01122
617.426	0.01838
627.072	0.01428
636.719	0.01141
646.365	0.01151
656.012	0.01163
665.658	0.01109
675.305	0.01021
684.951	0.00897
694.598	0.00775
704.245	0.00699
713.891	0.00646
723.538	0.00608
733.184	0.00623
742.831	0.0079
752.477	0.01131
762.124	0.01632
771.77	0.01896
781.417	0.01949
791.063	0.01929
800.71	0.01781
810.356	0.01764
820.003	0.02139
829.649	0.02653
839.296	0.03227
848.943	0.03973
858.589	0.02181
868.236	0.01445
877.882	0.00985
887.529	0.00808
897.175	0.00821
906.822	0.00998
916.468	0.0153
926.115	0.02953
935.761	0.05034
945.408	0.03958
955.054	0.03797
964.701	0.08101
974.347	0.07765
983.994	0.03621
993.64	0.03072
1003.29	0.04473
1012.93	0.07762
1022.58	0.11809
1032.23	0.10876
1041.87	0.05893
1051.52	0.03187
1061.17	0.02074
1070.81	0.01666
1080.46	0.01712
1090.11	0.02223
1099.75	0.02606
1109.4	0.02391
1119.05	0.02642
1128.69	0.04631
1138.34	0.12566
1147.99	0.18015
1157.63	0.06481
1167.28	0.03593
1176.92	0.05233
1186.57	0.13064
1196.22	0.27587
1205.86	0.21409
1215.51	0.07706
1225.16	0.04589
1234.8	0.04661
1244.45	0.05909
1254.1	0.06728
1263.74	0.0638
1273.39	0.06473
1283.04	0.07097
1292.68	0.06199
1302.33	0.04456
1311.98	0.02942
1321.62	0.0183
1331.27	0.01329
1340.92	0.01152
1350.56	0.01129
1360.21	0.01345
1369.86	0.01832
1379.5	0.02215
1389.15	0.02373
1398.79	0.01966
1408.44	0.0193
1418.09	0.02311
1427.73	0.02834
1437.38	0.03108
1447.03	0.03113
1456.67	0.03038
1466.32	0.02931
1475.97	0.02675
1485.61	0.02176
1495.26	0.01765
1504.91	0.01594
1514.55	0.01551
1524.2	0.01555
1533.85	0.01579
1543.49	0.01687
1553.14	0.01881
1562.79	0.0207
1572.43	0.02111
1582.08	0.02036
1591.73	0.02432
1601.37	0.04631
1611.02	0.06582
1620.67	0.02645
1630.31	0.0109
1639.96	0.00907
1649.6	0.00964
1659.25	0.0117
1668.9	0.01572
1678.54	0.0224
1688.19	0.03203
1697.84	0.05189
1707.48	0.10526
1717.13	0.16936
1726.78	0.14
1736.42	0.15446
1746.07	0.1799
1755.72	0.13896
1765.36	0.13146
1775.01	0.06252
1784.66	0.02663
1794.3	0.01532
1803.95	0.01035
1813.6	0.00729
1823.24	0.00533
1832.89	0.00418
1842.54	0.00366
1852.18	0.0034688
1861.83	0.0035272
1871.47	0.00376
1881.12	0.00408
1890.77	0.00397
1900.41	0.003446
1910.06	0.0029568
1919.71	0.0026138
1929.35	0.002349
1939	0.002287
1948.65	0.002292
1958.29	0.002146
1967.94	0.00187
1977.59	0.001746
1987.23	0.001708
1996.88	0.001743
2006.53	0.001858
2016.17	0.001793
2025.82	0.001779
2035.47	0.001768
2045.11	0.001826
2054.76	0.002093
2064.41	0.002138
2074.05	0.002112
2083.7	0.001948
2093.35	0.001855
2102.99	0.001842
2112.64	0.001947
2122.28	0.002046
2131.93	0.002084
2141.58	0.002028
2151.22	0.001846
2160.87	0.001834
2170.52	0.001783
2180.16	0.001585
2189.81	0.00132
2199.46	0.00128
2209.1	0.00135
2218.75	0.00145
2228.4	0.00148
2238.04	0.00145
2247.69	0.00138
2257.34	0.00135
2266.98	0.00127
2276.63	0.00124
2286.28	0.00118
2295.92	0.00117
2305.57	0.00126
2315.22	0.00142
2324.86	0.001538
2334.51	0.00143
2344.16	0.00145
2353.8	0.00142
2363.45	0.00143
2373.09	0.00161
2382.74	0.001818
2392.39	0.002047
2402.03	0.002231
2411.68	0.00229
2421.33	0.002326
2430.97	0.002295
2440.62	0.002273
2450.27	0.002126
2459.91	0.002041
2469.56	0.002064
2479.21	0.002024
2488.85	0.001917
2498.5	0.001756
2508.15	0.001601
2517.79	0.0014
2527.44	0.00133
2537.09	0.00131
2546.73	0.00121
2556.38	0.0011
2566.03	0.00118
2575.67	0.00115
2585.32	0.00104
2594.96	0.00113
2604.61	0.00104
2614.26	0.00101
2623.9	0.00112
2633.55	0.00111
2643.2	0.0012
2652.84	0.00125
2662.49	0.0014
2672.14	0.001552
2681.78	0.001563
2691.43	0.0015
2701.08	0.0014
2710.72	0.001623
2720.37	0.001967
2730.02	0.002698
2739.66	0.00395
2749.31	0.00428
2758.96	0.0033817
2768.6	0.0029198
2778.25	0.0027996
2787.9	0.002801
2797.54	0.003215
2807.19	0.00373
2816.84	0.00451
2826.48	0.0054
2836.13	0.00695
2845.77	0.00979
2855.42	0.01517
2865.07	0.02408
2874.71	0.03074
2884.36	0.03058
2894.01	0.02976
2903.65	0.03272
2913.3	0.04059
2922.95	0.05527
2932.59	0.07294
2942.24	0.07174
2951.89	0.05589
2961.53	0.04679
2971.18	0.05269
2980.83	0.06884
2990.47	0.07776
3000.12	0.06087
3009.77	0.05282
3019.41	0.04822
3029.06	0.04058
3038.71	0.03359
3048.35	0.02568
3058	0.01711
3067.64	0.01184
3077.29	0.00909
3086.94	0.00728
3096.58	0.00583
3106.23	0.00447
3115.88	0.00358
3125.52	0.0027831
3135.17	0.00223
3144.82	0.001879
3154.46	0.001662
3164.11	0.0014
3173.76	0.00084
3183.4	0.00092
3193.05	0.00078
3202.7	0.00048
3212.34	0.00037
3221.99	0.00033
3231.64	0.00048
3241.28	0.00019
3250.93	0.00015
3260.58	0.0001
3270.22	0.00022
3279.87	0.00014
3289.52	0
3299.16	0.00014
3308.81	0.00027
3318.45	0.00027
3328.1	0.00047
3337.75	0.00058
3347.39	0.00049
3357.04	0.00077
3366.69	0.00088
3376.33	0.00096
3385.98	0.0013
3395.63	0.001653
3405.27	0.002014
3414.92	0.002318
3424.57	0.002292
3434.21	0.001852
3443.86	0.001934
3453.51	0.001797
3463.15	0.002267
3472.8	0.002011
3482.45	0.001618
3492.09	0.001742
3501.74	0.001766
3511.39	0.001709
3521.03	0.00126
3530.68	0.00088
3540.33	0.00078
3549.97	0.00069
3559.62	0.00067
3569.26	0.00073
3578.91	0.0005
3588.56	0.00052
3598.2	0.00071
3607.85	0.00062
3617.5	0.0006
3627.14	0.0008
3636.79	0.00079
3646.44	0.00065
3656.08	0.00063
3665.73	0.00075
3675.38	0.00074
3685.02	0.00064
3694.67	0.00079
3704.32	0.00076
3713.96	0.00079
3723.61	0.00087
3733.26	0.00085
3742.9	0.00081
3752.55	0.0008
3762.2	0.00093
3771.84	0.00104
3781.49	0.00097
3791.13	0.00104
3800.78	0.00106
3810.43	0.00115
3820.07	0.00106
3829.72	0.00115
3839.37	0.00122
3849.01	0.00138
3858.66	0.00132
3868.31	0.00122
3877.95	0.00128
3887.6	0.00125
3897.25	0.00136
3906.89	0.00142
3916.54	0.00142
3926.19	0.00147
3935.83	0.001761
3945.48	0.001681
3955.13	0.001683
3964.77	0.00179
3974.42	0.001827
3984.07	0.001753
3993.71	0.001626
