Infrared Spectrum: PHOSPHORAMIDOUS ACID, p-TOLYL-, DIETHYL ESTER
Formula: C11 H18 O2 N P
CAS: 5524-60-7
State: LIQUID
Class: COBLENTZ
Instrument: PERKIN-ELMER
Sampling: TRANSMISSION
Path length: 0.0024 CM
Resolution: 4
Origin: STANDARD OIL OF OHIO
MICROMETERS	TRANSMITTANCE
1.993	0.982
2.02671	0.982
2.06043	0.982
2.09414	0.982
2.12786	0.979
2.16157	0.974
2.19529	0.969
2.229	0.977
2.26272	0.964
2.29643	0.926
2.33015	0.925
2.36386	0.945
2.39758	0.959
2.43129	0.955
2.46501	0.933
2.49872	0.943
2.53243	0.954
2.56615	0.955
2.59986	0.959
2.63358	0.965
2.66729	0.969
2.70101	0.974
2.73472	0.974
2.76844	0.977
2.80215	0.982
2.83587	0.977
2.86958	0.955
2.9033	0.911
2.93701	0.647
2.97072	0.391
3.00444	0.428
3.03815	0.642
3.07187	0.816
3.10558	0.87
3.1393	0.908
3.17301	0.913
3.20673	0.886
3.24044	0.835
3.27416	0.569
3.30787	0.414
3.34159	0.222
3.3753	0.141
3.40902	0.171
3.44273	0.185
3.47644	0.197
3.51016	0.457
3.54387	0.744
3.57759	0.829
3.6113	0.887
3.64502	0.872
3.67873	0.853
3.71245	0.916
3.74616	0.935
3.77988	0.94
3.81359	0.94
3.84731	0.933
3.88102	0.926
3.91473	0.94
3.94845	0.942
3.98216	0.928
4.01588	0.911
4.04959	0.928
4.08331	0.935
4.11702	0.942
4.15074	0.945
4.18445	0.947
4.21817	0.954
4.25188	0.959
4.2856	0.962
4.31931	0.962
4.35303	0.957
4.38674	0.957
4.42045	0.962
4.45417	0.96
4.48788	0.962
4.5216	0.965
4.55531	0.959
4.58903	0.95
4.62274	0.948
4.65646	0.95
4.69017	0.95
4.72389	0.943
4.7576	0.942
4.79132	0.94
4.82503	0.942
4.85874	0.945
4.89246	0.95
4.92617	0.948
4.95989	0.948
4.9936	0.945
5.02732	0.94
5.06103	0.937
5.09475	0.928
5.12846	0.923
5.16218	0.921
5.19589	0.93
5.22961	0.931
5.26332	0.921
5.29704	0.887
5.33075	0.838
5.36446	0.874
5.39818	0.909
5.43189	0.92
5.46561	0.923
5.49932	0.92
5.53304	0.918
5.56675	0.913
5.60047	0.899
5.63418	0.877
5.6679	0.858
5.70161	0.863
5.73533	0.875
5.76904	0.891
5.80275	0.896
5.83647	0.897
5.87018	0.899
5.9039	0.897
5.93761	0.886
5.97133	0.862
6.00504	0.829
6.03876	0.789
6.07247	0.68
6.10619	0.522
6.1399	0.302
6.17362	0.119
6.20733	0.267
6.24105	0.639
6.27476	0.7
6.30847	0.627
6.34219	0.755
6.3759	0.792
6.40962	0.782
6.44333	0.738
6.47705	0.687
6.51076	0.506
6.54448	0.273
6.57819	0.044
6.61191	0.011
6.64562	0.181
6.67934	0.46
6.71305	0.542
6.74676	0.447
6.78048	0.365
6.81419	0.384
6.84791	0.346
6.88162	0.27
6.91534	0.2
6.94905	0.178
6.98277	0.263
7.01648	0.437
7.0502	0.598
7.08391	0.629
7.11763	0.615
7.15134	0.5
7.18506	0.241
7.21877	0.122
7.25248	0.183
7.2862	0.268
7.31991	0.205
7.35363	0.129
7.38734	0.147
7.42106	0.335
7.45477	0.465
7.48849	0.535
7.5222	0.598
7.55592	0.658
7.58963	0.658
7.62335	0.523
7.65706	0.277
7.69078	0.112
7.72449	0.142
7.7582	0.096
7.79192	0.015
7.82563	0.017
7.85935	0.057
7.89306	0.205
7.92678	0.352
7.96049	0.474
7.99421	0.559
8.02792	0.59
8.06164	0.547
8.09535	0.46
8.12907	0.374
8.16278	0.374
8.19649	0.426
8.23021	0.532
8.26392	0.629
8.29764	0.704
8.33135	0.746
8.36507	0.756
8.39878	0.75
8.4325	0.658
8.46621	0.459
8.49993	0.482
8.53364	0.569
8.56736	0.464
8.60107	0.309
8.63479	0.285
8.6685	0.331
8.70221	0.425
8.73593	0.523
8.76964	0.576
8.80336	0.588
8.83707	0.562
8.87079	0.511
8.9045	0.365
8.93822	0.268
8.97193	0.284
9.00565	0.263
9.03936	0.21
9.07308	0.147
9.10679	0.093
9.1405	0.071
9.17422	0.108
9.20793	0.195
9.24165	0.243
9.27536	0.243
9.30908	0.205
9.34279	0.151
9.37651	0.096
9.41022	0.025
9.44394	0.01
9.47765	0.003
9.51137	0.003
9.54508	0.001
9.5788	0.001
9.61251	0.001
9.64622	0.001
9.67994	0.001
9.71365	0.001
9.74737	0.001
9.78108	0.003
9.8148	0.006
9.84851	0.025
9.88223	0.088
9.91594	0.18
9.94966	0.261
9.98337	0.343
10.0171	0.416
10.0508	0.454
10.0845	0.481
10.1182	0.501
10.1519	0.515
10.1857	0.525
10.2194	0.532
10.2531	0.539
10.2868	0.54
10.3205	0.54
10.3542	0.534
10.3879	0.518
10.4217	0.496
10.4554	0.459
10.4891	0.403
10.5228	0.318
10.5565	0.253
10.5902	0.175
10.6239	0.1
10.6577	0.039
10.6914	0.017
10.7251	0.011
10.7588	0.008
10.7925	0.006
10.8262	0.005
10.86	0.005
10.8937	0.003
10.9274	0.003
10.9611	0.003
10.9948	0.001
11.0285	0.001
11.0622	0.003
11.096	0.005
11.1297	0.005
11.1634	0.005
11.1971	0.005
11.2308	0.003
11.2645	0.003
11.2982	0.005
11.332	0.003
11.3657	0.003
11.3994	0.006
11.4331	0.015
11.4668	0.044
11.5005	0.108
11.5342	0.214
11.568	0.304
11.6017	0.401
11.6354	0.462
11.6691	0.522
11.7028	0.549
11.7365	0.557
11.7702	0.559
11.804	0.535
11.8377	0.501
11.8714	0.452
11.9051	0.386
11.9388	0.318
11.9725	0.255
12.0062	0.193
12.04	0.168
12.0737	0.147
12.1074	0.141
12.1411	0.13
12.1748	0.119
12.2085	0.102
12.2423	0.076
12.276	0.054
12.3097	0.032
12.3434	0.022
12.3771	0.018
12.4108	0.022
12.4445	0.049
12.4783	0.117
12.512	0.197
12.5457	0.285
12.5794	0.375
12.6131	0.421
12.6468	0.452
12.6805	0.465
12.7143	0.464
12.748	0.45
12.7817	0.411
12.8154	0.363
12.8491	0.318
12.8828	0.268
12.9165	0.222
12.9503	0.178
12.984	0.132
13.0177	0.103
13.0514	0.079
13.0851	0.062
13.1188	0.052
13.1525	0.052
13.1863	0.057
13.22	0.071
13.2537	0.095
13.2874	0.115
13.3211	0.127
13.3548	0.13
13.3886	0.13
13.4223	0.124
13.456	0.117
13.4897	0.107
13.5234	0.086
13.5571	0.071
13.5908	0.059
13.6246	0.051
13.6583	0.045
13.692	0.042
13.7257	0.039
13.7594	0.034
13.7931	0.034
13.8268	0.035
13.8606	0.037
13.8943	0.042
13.928	0.049
13.9617	0.054
13.9954	0.064
14.0291	0.074
14.0628	0.086
14.0966	0.102
14.1303	0.125
14.164	0.141
14.1977	0.154
14.2314	0.173
14.2651	0.202
14.2988	0.239
14.3326	0.273
14.3663	0.307
14.4	0.34
14.4337	0.374
14.4674	0.404
14.5011	0.433
14.5348	0.46
14.5686	0.489
14.6023	0.522
14.636	0.549
14.6697	0.562
14.7034	0.579
14.7371	0.595
14.7709	0.607
14.8046	0.617
14.8383	0.625
14.872	0.634
14.9057	0.642
14.9394	0.649
14.9731	0.654
15.0069	0.663
15.0406	0.668
15.0743	0.668
15.108	0.67
15.1417	0.671
15.1754	0.67
15.2091	0.671
15.2429	0.671
15.2766	0.67
15.3103	0.671
15.344	0.67
15.3777	0.671
