Infrared Spectrum: PHOSPHORAMIDOUS ACID, p-METHOXY PHENYL-, DIETHYL ESTER
Formula: C11 H18 N O3 P
CAS: 5524-62-9
State: LIQUID
Class: COBLENTZ
Instrument: PERKIN-ELMER
Sampling: TRANSMISSION
Path length: 0.0024 CM
Resolution: 4
Origin: STANDARD OIL OF OHIO
MICROMETERS	TRANSMITTANCE
2	0.988
2.03375	0.988
2.06749	0.989
2.10124	0.984
2.13499	0.981
2.16874	0.976
2.20248	0.974
2.23623	0.979
2.26998	0.954
2.30373	0.923
2.33747	0.931
2.37122	0.95
2.40497	0.955
2.43872	0.95
2.47246	0.93
2.50621	0.943
2.53996	0.95
2.57371	0.959
2.60745	0.96
2.6412	0.969
2.67495	0.972
2.7087	0.976
2.74244	0.977
2.77619	0.979
2.80994	0.981
2.84369	0.977
2.87743	0.965
2.91118	0.928
2.94493	0.766
2.97868	0.477
3.01242	0.318
3.04617	0.616
3.07992	0.797
3.11367	0.867
3.14741	0.901
3.18116	0.906
3.21491	0.884
3.24866	0.81
3.2824	0.684
3.31615	0.509
3.3499	0.265
3.38365	0.12
3.41739	0.148
3.45114	0.189
3.48489	0.25
3.51864	0.505
3.55238	0.609
3.58613	0.812
3.61988	0.873
3.65363	0.879
3.68737	0.875
3.72112	0.911
3.75487	0.93
3.78862	0.935
3.82236	0.931
3.85611	0.926
3.88986	0.925
3.92361	0.933
3.95735	0.919
3.9911	0.911
4.02485	0.919
4.0586	0.923
4.09234	0.925
4.12609	0.935
4.15984	0.94
4.19359	0.94
4.22733	0.947
4.26108	0.954
4.29483	0.952
4.32858	0.95
4.36232	0.948
4.39607	0.943
4.42982	0.95
4.46357	0.957
4.49731	0.967
4.53106	0.965
4.56481	0.96
4.59856	0.952
4.6323	0.954
4.66605	0.952
4.6998	0.95
4.73355	0.938
4.76729	0.928
4.80104	0.901
4.83479	0.868
4.86854	0.867
4.90228	0.892
4.93603	0.906
4.96978	0.909
5.00353	0.911
5.03727	0.913
5.07102	0.913
5.10477	0.913
5.13852	0.911
5.17226	0.911
5.20601	0.919
5.23976	0.93
5.27351	0.923
5.30725	0.904
5.341	0.885
5.37475	0.853
5.4085	0.848
5.44224	0.873
5.47599	0.882
5.50974	0.887
5.54349	0.896
5.57723	0.901
5.61098	0.894
5.64473	0.887
5.67848	0.879
5.71222	0.868
5.74597	0.858
5.77972	0.87
5.81347	0.879
5.84721	0.884
5.88096	0.882
5.91471	0.88
5.94846	0.868
5.9822	0.86
6.01595	0.841
6.0497	0.826
6.08345	0.792
6.11719	0.752
6.15094	0.695
6.18469	0.666
6.21843	0.729
6.25218	0.768
6.28593	0.701
6.31968	0.747
6.35342	0.805
6.38717	0.816
6.42092	0.795
6.45467	0.734
6.48841	0.643
6.52216	0.49
6.55591	0.257
6.58966	0.044
6.6234	0.008
6.65715	0.013
6.6909	0.155
6.72465	0.371
6.75839	0.327
6.79214	0.236
6.82589	0.132
6.85964	0.137
6.89338	0.124
6.92713	0.08
6.96088	0.091
6.99463	0.303
7.02837	0.55
7.06212	0.642
7.09587	0.669
7.12962	0.637
7.16336	0.509
7.19711	0.264
7.23086	0.129
7.26461	0.243
7.29835	0.281
7.3321	0.255
7.36585	0.206
7.3996	0.224
7.43334	0.349
7.46709	0.524
7.50084	0.599
7.53459	0.62
7.56833	0.628
7.60208	0.616
7.63583	0.546
7.66958	0.398
7.70332	0.132
7.73707	0.131
7.77082	0.146
7.80457	0.124
7.83831	0.04
7.87206	0.028
7.90581	0.068
7.93956	0.074
7.9733	0.039
8.00705	0.023
8.0408	0.011
8.07455	0.005
8.10829	0.008
8.14204	0.015
8.17579	0.018
8.20954	0.028
8.24328	0.085
8.27703	0.206
8.31078	0.373
8.34453	0.546
8.37827	0.586
8.41202	0.557
8.44577	0.437
8.47952	0.202
8.51326	0.172
8.54701	0.253
8.58076	0.303
8.61451	0.253
8.64825	0.25
8.682	0.303
8.71575	0.4
8.7495	0.494
8.78324	0.555
8.81699	0.563
8.85074	0.55
8.88449	0.502
8.91823	0.453
8.95198	0.403
8.98573	0.316
9.01948	0.194
9.05322	0.132
9.08697	0.119
9.12072	0.074
9.15447	0.074
9.18821	0.132
9.22196	0.204
9.25571	0.236
9.28946	0.226
9.3232	0.19
9.35695	0.137
9.3907	0.083
9.42445	0.025
9.45819	0.01
9.49194	0.006
9.52569	0.003
9.55944	0.003
9.59318	0.003
9.62693	0.003
9.66068	0.003
9.69443	0.003
9.72817	0.005
9.76192	0.005
9.79567	0.005
9.82942	0.01
9.86316	0.028
9.89691	0.073
9.93066	0.156
9.96441	0.25
9.99815	0.328
10.0319	0.395
10.0656	0.441
10.0994	0.468
10.1331	0.49
10.1669	0.507
10.2006	0.521
10.2344	0.531
10.2681	0.534
10.3019	0.534
10.3356	0.533
10.3694	0.528
10.4031	0.514
10.4369	0.494
10.4706	0.454
10.5044	0.405
10.5381	0.333
10.5719	0.252
10.6056	0.165
10.6394	0.103
10.6731	0.052
10.7068	0.02
10.7406	0.017
10.7743	0.015
10.8081	0.011
10.8418	0.008
10.8756	0.008
10.9093	0.008
10.9431	0.008
10.9768	0.006
11.0106	0.006
11.0443	0.006
11.0781	0.005
11.1118	0.005
11.1456	0.005
11.1793	0.005
11.2131	0.005
11.2468	0.005
11.2806	0.005
11.3143	0.005
11.3481	0.006
11.3818	0.011
11.4155	0.018
11.4493	0.057
11.483	0.122
11.5168	0.211
11.5505	0.284
11.5843	0.362
11.618	0.425
11.6518	0.456
11.6855	0.475
11.7193	0.475
11.753	0.451
11.7868	0.403
11.8205	0.335
11.8543	0.269
11.888	0.202
11.9218	0.151
11.9555	0.12
11.9893	0.095
12.023	0.068
12.0567	0.044
12.0905	0.032
12.1242	0.025
12.158	0.023
12.1917	0.023
12.2255	0.025
12.2592	0.04
12.293	0.069
12.3267	0.102
12.3605	0.139
12.3942	0.144
12.428	0.146
12.4617	0.148
12.4955	0.151
12.5292	0.163
12.563	0.194
12.5967	0.226
12.6305	0.274
12.6642	0.325
12.698	0.361
12.7317	0.366
12.7654	0.356
12.7992	0.328
12.8329	0.284
12.8667	0.241
12.9004	0.199
12.9342	0.151
12.9679	0.114
13.0017	0.08
13.0354	0.051
13.0692	0.028
13.1029	0.02
13.1367	0.018
13.1704	0.017
13.2042	0.017
13.2379	0.02
13.2717	0.027
13.3054	0.039
13.3392	0.056
13.3729	0.073
13.4066	0.083
13.4404	0.088
13.4741	0.09
13.5079	0.086
13.5416	0.08
13.5754	0.073
13.6091	0.066
13.6429	0.059
13.6766	0.052
13.7104	0.051
13.7441	0.049
13.7779	0.047
13.8116	0.049
13.8454	0.051
13.8791	0.056
13.9129	0.063
13.9466	0.071
13.9804	0.076
14.0141	0.086
14.0479	0.097
14.0816	0.112
14.1153	0.134
14.1491	0.146
14.1828	0.161
14.2166	0.183
14.2503	0.207
14.2841	0.24
14.3178	0.272
14.3516	0.301
14.3853	0.332
14.4191	0.362
14.4528	0.393
14.4866	0.42
14.5203	0.448
14.5541	0.468
14.5878	0.499
14.6216	0.526
14.6553	0.551
14.6891	0.568
14.7228	0.582
14.7565	0.597
14.7903	0.608
14.824	0.62
14.8578	0.628
14.8915	0.635
14.9253	0.643
14.959	0.65
14.9928	0.659
15.0265	0.666
15.0603	0.666
15.094	0.666
15.1278	0.666
15.1615	0.667
15.1953	0.667
15.229	0.669
15.2628	0.669
15.2965	0.669
15.3303	0.669
15.364	0.667
