Infrared Spectrum: PHOSPHORAMIDOUS ACID,[p-(DIMETHYLAMINO)PHENYL]-,DIETHYL ESTER
Formula: C12 H21 N2 O2 P
CAS: 5524-63-0
State: LIQUID
Class: COBLENTZ
Instrument: PERKIN-ELMER
Sampling: TRANSMISSION
Path length: 0.0024 CM
Resolution: 4
Origin: STANDARD OIL OF OHIO
MICROMETERS	TRANSMITTANCE
1.993	0.984
2.02671	0.984
2.06043	0.983
2.09414	0.981
2.12786	0.978
2.16157	0.974
2.19529	0.974
2.229	0.967
2.26272	0.917
2.29643	0.907
2.33015	0.927
2.36386	0.939
2.39757	0.94
2.43129	0.934
2.465	0.929
2.49872	0.942
2.53243	0.951
2.56615	0.956
2.59986	0.961
2.63358	0.966
2.66729	0.969
2.70101	0.972
2.73472	0.976
2.76844	0.979
2.80215	0.979
2.83586	0.974
2.86958	0.962
2.90329	0.922
2.93701	0.753
2.97072	0.599
3.00444	0.65
3.03815	0.717
3.07187	0.761
3.10558	0.802
3.1393	0.841
3.17301	0.847
3.20672	0.771
3.24044	0.704
3.27415	0.599
3.30787	0.353
3.34158	0.097
3.3753	0.123
3.40901	0.13
3.44273	0.114
3.47644	0.153
3.51016	0.293
3.54387	0.337
3.57758	0.329
3.6113	0.606
3.64501	0.751
3.67873	0.814
3.71244	0.878
3.74616	0.893
3.77987	0.895
3.81359	0.898
3.8473	0.903
3.88102	0.915
3.91473	0.92
3.94845	0.922
3.98216	0.922
4.01587	0.925
4.04959	0.922
4.0833	0.92
4.11702	0.922
4.15073	0.925
4.18445	0.934
4.21816	0.939
4.25188	0.942
4.28559	0.942
4.31931	0.944
4.35302	0.942
4.38673	0.94
4.42045	0.94
4.45416	0.944
4.48788	0.952
4.52159	0.952
4.55531	0.949
4.58902	0.942
4.62274	0.937
4.65645	0.934
4.69017	0.932
4.72388	0.925
4.7576	0.92
4.79131	0.918
4.82502	0.923
4.85874	0.929
4.89245	0.93
4.92617	0.932
4.95988	0.94
4.9936	0.937
5.02731	0.929
5.06103	0.918
5.09474	0.907
5.12846	0.902
5.16217	0.907
5.19588	0.912
5.2296	0.91
5.26331	0.898
5.29703	0.888
5.33074	0.876
5.36446	0.863
5.39817	0.859
5.43189	0.863
5.4656	0.866
5.49932	0.875
5.53303	0.883
5.56674	0.883
5.60046	0.881
5.63417	0.873
5.66789	0.863
5.7016	0.859
5.73532	0.858
5.76903	0.856
5.80275	0.859
5.83646	0.856
5.87018	0.849
5.90389	0.841
5.93761	0.836
5.97132	0.829
6.00503	0.817
6.03875	0.804
6.07246	0.783
6.10618	0.731
6.13989	0.597
6.17361	0.395
6.20732	0.405
6.24104	0.592
6.27475	0.717
6.30847	0.724
6.34218	0.706
6.37589	0.689
6.40961	0.631
6.44332	0.56
6.47704	0.385
6.51075	0.136
6.54447	0.027
6.57818	0.006
6.6119	0.008
6.64561	0.146
6.67933	0.285
6.71304	0.273
6.74675	0.177
6.78047	0.182
6.81418	0.241
6.8479	0.197
6.88161	0.135
6.91533	0.103
6.94904	0.19
6.98276	0.332
7.01647	0.513
7.05019	0.554
7.0839	0.548
7.11762	0.542
7.15133	0.363
7.18504	0.153
7.21876	0.103
7.25247	0.236
7.28619	0.29
7.3199	0.236
7.35362	0.179
7.38733	0.165
7.42105	0.157
7.45476	0.167
7.48848	0.207
7.52219	0.275
7.5559	0.337
7.58962	0.359
7.62333	0.331
7.65705	0.3
7.69076	0.302
7.72448	0.216
7.75819	0.116
7.79191	0.064
7.82562	0.101
7.85934	0.202
7.89305	0.298
7.92677	0.347
7.96048	0.354
7.99419	0.331
8.02791	0.248
8.06162	0.175
8.09534	0.104
8.12905	0.059
8.16277	0.033
8.19648	0.043
8.2302	0.091
8.26391	0.152
8.29763	0.228
8.33134	0.302
8.36505	0.39
8.39877	0.437
8.43248	0.474
8.4662	0.491
8.49991	0.476
8.53363	0.39
8.56734	0.244
8.60106	0.128
8.63477	0.135
8.66849	0.197
8.7022	0.261
8.73591	0.282
8.76963	0.278
8.80334	0.268
8.83706	0.268
8.87077	0.305
8.90449	0.342
8.9382	0.358
8.97192	0.349
9.00563	0.302
9.03935	0.211
9.07306	0.118
9.10678	0.069
9.14049	0.054
9.1742	0.097
9.20792	0.158
9.24163	0.175
9.27535	0.158
9.30906	0.125
9.34278	0.079
9.37649	0.03
9.41021	0.011
9.44392	0.006
9.47764	0.005
9.51135	0.003
9.54506	0.003
9.57878	0.003
9.61249	0.003
9.64621	0.003
9.67992	0.003
9.71364	0.003
9.74735	0.003
9.78107	0.006
9.81478	0.015
9.8485	0.042
9.88221	0.099
9.91592	0.17
9.94964	0.255
9.98335	0.329
10.0171	0.38
10.0508	0.395
10.0845	0.4
10.1182	0.391
10.1519	0.378
10.1856	0.363
10.2194	0.349
10.2531	0.332
10.2868	0.31
10.3205	0.277
10.3542	0.226
10.3879	0.18
10.4216	0.133
10.4554	0.084
10.4891	0.048
10.5228	0.018
10.5565	0.016
10.5902	0.015
10.6239	0.015
10.6576	0.013
10.6914	0.008
10.7251	0.008
10.7588	0.005
10.7925	0.005
10.8262	0.005
10.8599	0.005
10.8936	0.005
10.9274	0.005
10.9611	0.005
10.9948	0.005
11.0285	0.005
11.0622	0.005
11.0959	0.005
11.1296	0.005
11.1634	0.005
11.1971	0.005
11.2308	0.005
11.2645	0.005
11.2982	0.005
11.3319	0.005
11.3657	0.005
11.3994	0.01
11.4331	0.011
11.4668	0.023
11.5005	0.076
11.5342	0.136
11.5679	0.209
11.6017	0.287
11.6354	0.351
11.6691	0.427
11.7028	0.467
11.7365	0.5
11.7702	0.523
11.8039	0.532
11.8377	0.527
11.8714	0.508
11.9051	0.471
11.9388	0.425
11.9725	0.38
12.0062	0.334
12.0399	0.29
12.0737	0.239
12.1074	0.199
12.1411	0.167
12.1748	0.145
12.2085	0.135
12.2422	0.126
12.2759	0.123
12.3097	0.126
12.3434	0.135
12.3771	0.15
12.4108	0.187
12.4445	0.219
12.4782	0.241
12.5119	0.265
12.5457	0.285
12.5794	0.302
12.6131	0.319
12.6468	0.336
12.6805	0.347
12.7142	0.356
12.7479	0.356
12.7817	0.347
12.8154	0.331
12.8491	0.307
12.8828	0.28
12.9165	0.253
12.9502	0.228
12.984	0.202
13.0177	0.177
13.0514	0.15
13.0851	0.135
13.1188	0.121
13.1525	0.101
13.1862	0.084
13.22	0.077
13.2537	0.072
13.2874	0.062
13.3211	0.054
13.3548	0.05
13.3885	0.042
13.4222	0.038
13.456	0.035
13.4897	0.032
13.5234	0.03
13.5571	0.028
13.5908	0.03
13.6245	0.03
13.6582	0.032
13.692	0.033
13.7257	0.037
13.7594	0.04
13.7931	0.05
13.8268	0.06
13.8605	0.067
13.8942	0.07
13.928	0.064
13.9617	0.06
13.9954	0.064
14.0291	0.076
14.0628	0.099
14.0965	0.121
14.1302	0.15
14.164	0.177
14.1977	0.204
14.2314	0.234
14.2651	0.265
14.2988	0.292
14.3325	0.317
14.3662	0.349
14.4	0.375
14.4337	0.405
14.4674	0.435
14.5011	0.461
14.5348	0.484
14.5685	0.508
14.6023	0.527
14.636	0.548
14.6697	0.565
14.7034	0.584
14.7371	0.601
14.7708	0.614
14.8045	0.628
14.8383	0.638
14.872	0.646
14.9057	0.653
14.9394	0.658
14.9731	0.665
15.0068	0.672
15.0405	0.675
15.0743	0.677
15.108	0.677
15.1417	0.679
15.1754	0.679
15.2091	0.679
15.2428	0.679
15.2765	0.679
15.3103	0.679
15.344	0.677
