Infrared Spectrum: 3-Bromo-2-methylaniline
Formula: C 7 H 8 Br N
CAS: 55289-36-6
State: gas
Origin: EPA-IR VAPOR PHASE LIBRARY
1/CM	ABSORBANCE
549.9	0.00775
559.547	0.00784
569.193	0.00824
578.84	0.00859
588.486	0.00881
598.133	0.00917
607.779	0.01125
617.426	0.01313
627.072	0.01231
636.719	0.01198
646.365	0.0123
656.012	0.01259
665.658	0.01296
675.305	0.01371
684.951	0.01689
694.598	0.02126
704.245	0.01916
713.891	0.01472
723.538	0.01184
733.184	0.01174
742.831	0.01438
752.477	0.02403
762.124	0.03869
771.77	0.03302
781.417	0.02272
791.063	0.01491
800.71	0.00992
810.356	0.00883
820.003	0.00849
829.649	0.00872
839.296	0.01071
848.943	0.01738
858.589	0.01847
868.236	0.00979
877.882	0.0052
887.529	0.00433
897.175	0.00403
906.822	0.00378
916.468	0.00372
926.115	0.00384
935.761	0.00429
945.408	0.00521
955.054	0.00632
964.701	0.00843
974.347	0.01193
983.994	0.01616
993.64	0.02098
1003.29	0.02137
1012.93	0.01489
1022.58	0.00913
1032.23	0.007
1041.87	0.00634
1051.52	0.00553
1061.17	0.00437
1070.81	0.00411
1080.46	0.00475
1090.11	0.00704
1099.75	0.00811
1109.4	0.00611
1119.05	0.00371
1128.69	0.00297
1138.34	0.00283
1147.99	0.00294
1157.63	0.00274
1167.28	0.00225
1176.92	0.0019787
1186.57	0.00237
1196.22	0.00354
1205.86	0.00434
1215.51	0.00387
1225.16	0.0025
1234.8	0.00248
1244.45	0.00345
1254.1	0.00499
1263.74	0.00826
1273.39	0.01776
1283.04	0.02848
1292.68	0.02514
1302.33	0.01059
1311.98	0.00477
1321.62	0.00338
1331.27	0.00267
1340.92	0.00245
1350.56	0.0028
1360.21	0.00287
1369.86	0.00285
1379.5	0.00362
1389.15	0.00386
1398.79	0.0034
1408.44	0.00384
1418.09	0.006
1427.73	0.0131
1437.38	0.02627
1447.03	0.04088
1456.67	0.04542
1466.32	0.0383
1475.97	0.02488
1485.61	0.0104
1495.26	0.00759
1504.91	0.00705
1514.55	0.00632
1524.2	0.00591
1533.85	0.00641
1543.49	0.00966
1553.14	0.01841
1562.79	0.02889
1572.43	0.03499
1582.08	0.03171
1591.73	0.02476
1601.37	0.025
1611.02	0.03433
1620.67	0.05232
1630.31	0.04681
1639.96	0.02235
1649.6	0.01071
1659.25	0.00668
1668.9	0.00476
1678.54	0.00364
1688.19	0.00295
1697.84	0.00276
1707.48	0.0029
1717.13	0.00336
1726.78	0.00321
1736.42	0.00266
1746.07	0.0020029
1755.72	0.0017223
1765.36	0.0016343
1775.01	0.0015653
1784.66	0.0016219
1794.3	0.0018386
1803.95	0.00236
1813.6	0.00246
1823.24	0.0019787
1832.89	0.0015414
1842.54	0.00144
1852.18	0.0014051
1861.83	0.0014251
1871.47	0.0016503
1881.12	0.002176
1890.77	0.00297
1900.41	0.00295
1910.06	0.0021433
1919.71	0.0014658
1929.35	0.00128269
1939	0.001121
1948.65	0.0011709
1958.29	0.0011471
1967.94	0.0011747
1977.59	0.00125524
1987.23	0.00123234
1996.88	0.0012252
2006.53	0.001157
2016.17	0.0011584
2025.82	0.0012128
2035.47	0.0012214
2045.11	0.00133421
2054.76	0.0014276
2064.41	0.0014438
2074.05	0.0013688
2083.7	0.00131273
2093.35	0.00126337
2102.99	0.0012286
2112.64	0.0012046
2122.28	0.0012202
2131.93	0.00131621
2141.58	0.0013669
2151.22	0.00126082
2160.87	0.0011669
2170.52	0.001092
2180.16	0.001109
2189.81	0.001077
2199.46	0.001076
2209.1	0.001101
2218.75	0.001055
2228.4	0.001082
2238.04	0.001108
2247.69	0.0011897
2257.34	0.0011625
2266.98	0.00107
2276.63	0.001061
2286.28	0.001052
2295.92	0.0011419
2305.57	0.0011502
2315.22	0.0012205
2324.86	0.0012254
2334.51	0.001118
2344.16	0.001106
2353.8	0.001006
2363.45	0.000984
2373.09	0.000997
2382.74	0.001048
2392.39	0.001069
2402.03	0.001062
2411.68	0.0011484
2421.33	0.001097
2430.97	0.001131
2440.62	0.001119
2450.27	0.001103
2459.91	0.0011471
2469.56	0.001138
2479.21	0.0012023
2488.85	0.0011814
2498.5	0.000985
2508.15	0.000923
2517.79	0.000878
2527.44	0.000871
2537.09	0.000956
2546.73	0.001007
2556.38	0.00130047
2566.03	0.0014458
2575.67	0.0015139
2585.32	0.0013736
2594.96	0.001107
2604.61	0.000984
2614.26	0.000948
2623.9	0.00096
2633.55	0.000949
2643.2	0.000917
2652.84	0.000957
2662.49	0.001041
2672.14	0.001046
2681.78	0.000963
2691.43	0.000952
2701.08	0.000988
2710.72	0.000976
2720.37	0.001109
2730.02	0.0012119
2739.66	0.0014624
2749.31	0.0016539
2758.96	0.0013664
2768.6	0.001124
2778.25	0.001086
2787.9	0.001104
2797.54	0.001069
2807.19	0.001199
2816.84	0.0014321
2826.48	0.0016082
2836.13	0.0019216
2845.77	0.00252
2855.42	0.00348
2865.07	0.00491
2874.71	0.00588
2884.36	0.00597
2894.01	0.00574
2903.65	0.00627
2913.3	0.0082
2922.95	0.0104
2932.59	0.01051
2942.24	0.00861
2951.89	0.00599
2961.53	0.00422
2971.18	0.00322
2980.83	0.00282
2990.47	0.0031
3000.12	0.00371
3009.77	0.00546
3019.41	0.008
3029.06	0.00928
3038.71	0.00791
3048.35	0.00712
3058	0.01028
3067.64	0.01288
3077.29	0.00987
3086.94	0.00485
3096.58	0.00282
3106.23	0.001608
3115.88	0.001092
3125.52	0.000785
3135.17	0.000707
3144.82	0.00052
3154.46	0.000601
3164.11	0.0006
3173.76	0.000662
3183.4	0.000614
3193.05	0.000476
3202.7	0.000633
3212.34	0.000715
3221.99	0.000665
3231.64	0.000666
3241.28	0.00053
3250.93	0.000452
3260.58	0.000389
3270.22	0.000334
3279.87	0.000246
3289.52	0.00011
3299.16	0.0002
3308.81	8e-05
3318.45	9e-05
3328.1	0.00011
3337.75	0.00011
3347.39	0.00015
3357.04	0.000258
3366.69	0.00023
3376.33	0.000516
3385.98	0.000768
3395.63	0.0024
3405.27	0.00565
3414.92	0.00745
3424.57	0.00505
3434.21	0.0020828
3443.86	0.00088
3453.51	0.000831
3463.15	0.001084
3472.8	0.0018807
3482.45	0.00372
3492.09	0.00689
3501.74	0.00725
3511.39	0.00433
3521.03	0.0019788
3530.68	0.001056
3540.33	0.000796
3549.97	0.000599
3559.62	0.000497
3569.26	0.000699
3578.91	0.00041
3588.56	0.000442
3598.2	0.000394
3607.85	0.000436
3617.5	0.000577
3627.14	0.000576
3636.79	0.000628
3646.44	0.000565
3656.08	0.000616
3665.73	0.000578
3675.38	0.000609
3685.02	0.000612
3694.67	0.00056
3704.32	0.000766
3713.96	0.000607
3723.61	0.000703
3733.26	0.000646
3742.9	0.000846
3752.55	0.000571
3762.2	0.000693
3771.84	0.000757
3781.49	0.000671
3791.13	0.000745
3800.78	0.000836
3810.43	0.000823
3820.07	0.000821
3829.72	0.000742
3839.37	0.000748
3849.01	0.000957
3858.66	0.000904
3868.31	0.000883
3877.95	0.000815
3887.6	0.000918
3897.25	0.001093
3906.89	0.001052
3916.54	0.001051
3926.19	0.001038
3935.83	0.001117
3945.48	0.00109
3955.13	0.0011474
3964.77	0.000909
3974.42	0.001057
3984.07	0.001063
3993.71	0.000888
