Infrared Spectrum: 1,3-PROPANEDIOL, 2-METHYL-, DIACETATE
Formula: C8 H14 O4
CAS: 55289-53-7
State: SOLUTION (10% IN CCl4 FOR 3800-1333, 10% IN CS2 FOR 1333-450 CM^-^1)
Class: COBLENTZ III
Instrument: DOW KBr FOREPRISM-GRATING
Instrument parameters: BLAZED AT 3.5, 12.0, 20.0 MICRON, CHANGED AT 5.0, 7.5, 14.9 MICRON
Sampling: TRANSMISSION
Path length: 0.011, 0.011 CM
Resolution: 4
Origin: DOW CHEMICAL COMPANY
1/CM	TRANSMITTANCE
451.471	0.908
460.295	0.914
469.118	0.908
477.942	0.896
486.765	0.924
495.589	0.926
504.412	0.94
513.236	0.961
522.059	0.968
530.883	0.983
539.706	0.994
548.53	1.002
557.353	1.005
566.177	0.998
575.001	0.986
583.824	0.975
592.648	0.929
601.471	0.621
610.295	0.745
619.118	0.903
627.942	0.825
636.765	0.791
645.589	0.863
654.412	0.875
663.236	0.951
672.06	0.965
680.883	0.976
689.707	0.98
698.53	0.984
707.354	0.979
716.177	0.976
725.001	0.979
733.824	0.983
742.648	0.986
751.471	0.975
760.295	0.977
769.118	0.969
777.942	0.953
786.766	0.947
795.589	0.941
804.413	0.926
813.236	0.896
822.06	0.82
830.883	0.738
839.707	0.715
848.53	0.678
857.354	0.708
866.177	0.756
875.001	0.776
883.824	0.763
892.648	0.703
901.472	0.588
910.295	0.501
919.119	0.531
927.942	0.643
936.766	0.685
945.589	0.665
954.413	0.676
963.236	0.732
972.06	0.661
980.883	0.546
989.707	0.48
998.531	0.508
1007.35	0.41
1016.18	0.1889
1025	0.081
1033.82	0.046
1042.65	0.058
1051.47	0.172
1060.3	0.316
1069.12	0.52
1077.94	0.577
1086.77	0.609
1095.59	0.672
1104.41	0.712
1113.24	0.78
1122.06	0.796
1130.88	0.799
1139.71	0.769
1148.53	0.759
1157.35	0.74
1166.18	0.701
1175	0.656
1183.82	0.602
1192.65	0.473
1201.47	0.255
1210.3	0.048
1219.12	0.011
1227.94	0.008
1236.77	0.009
1245.59	0.013
1254.41	0.029
1263.24	0.062
1272.06	0.11
1280.88	0.193
1289.71	0.269
1298.53	0.4591
1307.35	0.613
1316.18	0.718
1325	0.755
1333.83	0.745
1342.65	0.741
1351.47	0.674
1360.3	0.3749
1369.12	0.06
1377.94	0.1
1386.77	0.198
1395.59	0.335
1404.41	0.491
1413.24	0.515
1422.06	0.482
1430.88	0.437
1439.71	0.446
1448.53	0.43
1457.35	0.392
1466.18	0.412
1475	0.4481
1483.83	0.705
1492.65	0.723
1501.47	0.709
1510.3	0.675
1519.12	0.65
1527.94	0.621
1536.77	0.566
1545.59	0.482
1554.41	0.479
1563.24	0.542
1572.06	0.622
1580.88	0.642
1589.71	0.671
1598.53	0.744
1607.35	0.795
1616.18	0.81
1625	0.81
1633.83	0.796
1642.65	0.774
1651.47	0.715
1660.3	0.676
1669.12	0.72
1677.94	0.708
1686.77	0.65
1695.59	0.519
1704.41	0.342
1713.24	0.08
1722.06	0.055
1730.88	0.011
1739.71	0.004
1748.53	0.002
1757.36	0.012
1766.18	0.1851
1775	0.451
1783.83	0.589
1792.65	0.685
1801.47	0.745
1810.3	0.779
1819.12	0.812
1827.94	0.835
1836.77	0.853
1845.59	0.864
1854.41	0.871
1863.24	0.874
1872.06	0.882
1880.88	0.889
1889.71	0.899
1898.53	0.906
1907.36	0.912
1916.18	0.918
1925	0.917
1933.83	0.918
1942.65	0.917
1951.47	0.922
1960.3	0.925
1969.12	0.929
1977.94	0.93
1986.77	0.932
1995.59	0.933
2004.41	0.933
2013.24	0.933
2022.06	0.933
2030.88	0.935
2039.71	0.936
2048.53	0.9309
2057.36	0.924
2066.18	0.9215
2075	0.9238
2083.83	0.9311
2092.65	0.932
2101.47	0.933
2110.3	0.936
2119.12	0.935
2127.94	0.93
2136.77	0.925
2145.59	0.922
2154.41	0.926
2163.24	0.9309
2172.06	0.9356
2180.88	0.9423
2189.71	0.9467
2198.53	0.947
2207.36	0.947
2216.18	0.947
2225	0.946
2233.83	0.944
2242.65	0.943
2251.47	0.9407
2260.3	0.939
2269.12	0.935
2277.94	0.9298
2286.77	0.926
2295.59	0.925
2304.41	0.9298
2313.24	0.9328
2322.06	0.9358
2330.89	0.939
2339.71	0.9438
2348.53	0.94
2357.36	0.94
2366.18	0.9508
2375	0.9472
2383.83	0.9502
2392.65	0.948
2401.47	0.9462
2410.3	0.943
2419.12	0.944
2427.94	0.944
2436.77	0.9413
2445.59	0.9401
2454.41	0.936
2463.24	0.932
2472.06	0.9329
2480.89	0.933
2489.71	0.9348
2498.53	0.936
2507.36	0.936
2516.18	0.935
2525	0.936
2533.83	0.9254
2542.65	0.919
2551.47	0.917
2560.3	0.917
2569.12	0.9209
2577.94	0.926
2586.77	0.922
2595.59	0.918
2604.41	0.912
2613.24	0.904
2622.06	0.8949
2630.89	0.89
2639.71	0.9031
2648.53	0.907
2657.36	0.906
2666.18	0.9029
2675	0.8969
2683.83	0.8931
2692.65	0.8988
2701.47	0.897
2710.3	0.899
2719.12	0.895
2727.94	0.89
2736.77	0.89
2745.59	0.892
2754.42	0.8926
2763.24	0.8891
2772.06	0.89
2780.89	0.892
2789.71	0.8847
2798.53	0.875
2807.36	0.8742
2816.18	0.871
2825	0.8625
2833.83	0.8498
2842.65	0.8242
2851.47	0.8052
2860.3	0.7902
2869.12	0.7644
2877.94	0.6977
2886.77	0.6155
2895.59	0.5858
2904.42	0.587
2913.24	0.5817
2922.06	0.5692
2930.89	0.5201
2939.71	0.4525
2948.53	0.4249
2957.36	0.3851
2966.18	0.3424
2975	0.3399
2983.83	0.3865
2992.65	0.4807
3001.47	0.6312
3010.3	0.707
3019.12	0.724
3027.94	0.7387
3036.77	0.7534
3045.59	0.7689
3054.42	0.783
3063.24	0.7904
3072.06	0.794
3080.89	0.7916
3089.71	0.7844
3098.53	0.794
3107.36	0.8033
3116.18	0.8134
3125	0.824
3133.83	0.8289
3142.65	0.8333
3151.47	0.8361
3160.3	0.835
3169.12	0.8345
3177.95	0.84
3186.77	0.8315
3195.59	0.833
3204.42	0.839
3213.24	0.842
3222.06	0.8385
3230.89	0.843
3239.71	0.8471
3248.53	0.85
3257.36	0.852
3266.18	0.853
3275	0.8581
3283.83	0.857
3292.65	0.857
3301.47	0.8582
3310.3	0.86
3319.12	0.8636
3327.95	0.867
3336.77	0.868
3345.59	0.871
3354.42	0.875
3363.24	0.877
3372.06	0.8786
3380.89	0.882
3389.71	0.8857
3398.53	0.885
3407.36	0.882
3416.18	0.8756
3425	0.871
3433.83	0.8619
3442.65	0.8502
3451.47	0.8236
3460.3	0.8036
3469.12	0.8082
3477.95	0.8155
3486.77	0.825
3495.59	0.83
3504.42	0.83
3513.24	0.8242
3522.06	0.823
3530.89	0.8248
3539.71	0.8378
3548.53	0.8498
3557.36	0.8668
3566.18	0.8898
3575	0.9064
3583.83	0.9283
3592.65	0.9355
3601.48	0.937
3610.3	0.9387
3619.12	0.9438
3627.95	0.946
3636.77	0.9549
3645.59	0.966
3654.42	0.973
3663.24	0.9655
3672.06	0.9592
3680.89	0.9637
3689.71	0.9747
3698.53	0.9839
3707.36	0.988
3716.18	0.9871
3725	0.9881
3733.83	0.9861
3742.65	0.9908
3751.48	0.994
3760.3	0.995
3769.12	0.994
3777.95	0.993
