Infrared Spectrum: p-AMINOBENZOATE, 2-(ISOBUTYLAMINO)ETHYL-, HYDROCHLORIDE
Formula: C13 H21 Cl N2 O2
CAS: 553-68-4
State: SOLID (KCl DISC) VS KCl
Melting point: 192-196 C
Class: COBLENTZ III
Instrument: PERKIN-ELMER 21 (GRATING)
Instrument parameters: FILTER AT ABOUT 10 MICRONS
Sampling: TRANSMISSION
Resolution: 2
1/CM	TRANSMITTANCE
4000	0.7284
3991	0.7295
3982	0.7307
3973	0.7326
3964	0.7356
3955	0.7385
3946	0.7405
3937	0.7411
3928	0.7418
3919	0.7421
3910	0.7421
3901	0.7421
3892	0.7425
3883	0.7433
3874	0.7443
3865	0.7451
3856	0.7462
3847	0.7476
3838	0.7492
3829	0.7508
3820	0.7524
3811	0.7539
3802	0.7555
3793	0.7572
3784	0.7591
3775	0.7608
3766	0.7618
3757	0.7625
3748	0.7631
3739	0.7636
3730	0.7643
3721	0.7656
3712	0.7667
3703	0.7678
3694	0.7691
3685	0.7701
3676	0.7714
3667	0.7724
3658	0.7731
3649	0.7738
3640	0.7746
3631	0.7745
3622	0.7738
3613	0.7708
3604	0.7676
3595	0.7645
3586	0.761
3577	0.7558
3568	0.7505
3559	0.7451
3550	0.7399
3541	0.7341
3532	0.728
3523	0.7218
3514	0.7157
3505	0.7094
3496	0.7032
3487	0.6968
3478	0.6907
3469	0.6844
3460	0.678
3451	0.6721
3442	0.6665
3433	0.6608
3424	0.6551
3415	0.6496
3406	0.6435
3397	0.6297
3388	0.6037
3379	0.5756
3370	0.5494
3361	0.5372
3352	0.4929
3343	0.4292
3334	0.365
3325	0.3322
3316	0.3325
3307	0.3564
3298	0.3823
3289	0.4082
3280	0.4343
3271	0.4605
3262	0.4741
3253	0.4776
3244	0.4792
3235	0.4794
3226	0.4628
3217	0.4192
3208	0.3752
3199	0.3309
3190	0.2865
3181	0.2417
3172	0.2065
3163	0.2061
3154	0.2155
3145	0.2406
3136	0.2658
3127	0.2911
3118	0.3165
3109	0.3416
3100	0.3624
3091	0.3782
3082	0.3876
3073	0.3952
3064	0.3999
3055	0.4018
3046	0.4024
3037	0.4027
3028	0.4012
3019	0.3982
3010	0.3934
3001	0.388
2992	0.3729
2983	0.3314
2974	0.2884
2965	0.2651
2956	0.2672
2947	0.2726
2938	0.2821
2929	0.294
2920	0.312
2911	0.3349
2902	0.3532
2893	0.3562
2884	0.3571
2875	0.3578
2866	0.3616
2857	0.3675
2848	0.3758
2839	0.384
2830	0.3914
2821	0.3955
2812	0.3971
2803	0.3984
2794	0.3998
2785	0.4054
2776	0.4193
2767	0.4315
2758	0.44
2749	0.4444
2740	0.4489
2731	0.4566
2722	0.465
2713	0.4804
2704	0.519
2695	0.5358
2686	0.554
2677	0.5697
2668	0.5794
2659	0.5858
2650	0.5886
2641	0.5932
2632	0.609
2623	0.626
2614	0.6465
2605	0.6658
2596	0.6814
2587	0.6932
2578	0.7018
2569	0.7036
2560	0.705
2551	0.7062
2542	0.7065
2533	0.7067
2524	0.7078
2515	0.7122
2506	0.7181
2497	0.7307
2488	0.7428
2479	0.7541
2470	0.7626
2461	0.7658
2452	0.7667
2443	0.7675
2434	0.7685
2425	0.7658
2416	0.7592
2407	0.7557
2398	0.7585
2389	0.7653
2380	0.7674
2371	0.7681
2362	0.7693
2353	0.7745
2344	0.78
2335	0.7871
2326	0.7955
2317	0.8108
2308	0.8212
2299	0.8291
2290	0.8328
2281	0.8367
2272	0.8401
2263	0.8434
2254	0.8465
2245	0.8486
2236	0.851
2227	0.8567
2218	0.8621
2209	0.8671
2200	0.8723
2191	0.8771
2182	0.8804
2173	0.8825
2164	0.8803
2155	0.8785
2146	0.8784
2137	0.8808
2128	0.8833
2119	0.8859
2110	0.8856
2101	0.887
2092	0.8889
2083	0.891
2074	0.895
2065	0.8983
2056	0.9008
2047	0.8962
2038	0.8925
2029	0.8944
2020	0.8961
2011	0.9018
2002	0.9061
1993	0.9074
1984	0.9077
1975	0.9094
1966	0.9109
1957	0.913
1948	0.9175
1939	0.9156
1930	0.8978
1921	0.8863
1912	0.8924
1903	0.9025
1894	0.9136
1885	0.9238
1876	0.9321
1867	0.9346
1858	0.9362
1849	0.9357
1840	0.9349
1831	0.9316
1822	0.9244
1813	0.9238
1804	0.9101
1795	0.9036
1786	0.9032
1777	0.9017
1768	0.8851
1759	0.8424
1750	0.7497
1741	0.6658
1732	0.3846
1723	0.0993
1714	0.0885
1705	0.3216
1696	0.5574
1687	0.7114
1678	0.7215
1669	0.7218
1660	0.7046
1651	0.567
1642	0.4862
1633	0.3972
1624	0.2041
1615	0.0556
1606	0.2764
1597	0.5228
1588	0.514
1579	0.5574
1570	0.5072
1561	0.5227
1552	0.6181
1543	0.6976
1534	0.714
1525	0.4266
1516	0.5829
1507	0.7149
1498	0.7133
1489	0.5419
1480	0.411
1471	0.4988
1462	0.4431
1453	0.3457
1444	0.4365
1435	0.5689
1426	0.4728
1417	0.5475
1408	0.6778
1399	0.6933
1390	0.7522
1381	0.7607
1372	0.7325
1363	0.7148
1354	0.7231
1345	0.556
1336	0.293
1327	0.3418
1318	0.365
1309	0.4855
1300	0.2758
1291	0.1724
1282	0.0551
1273	0.0419
1264	0.2195
1255	0.4294
1246	0.4948
1237	0.5203
1228	0.6204
1219	0.6654
1210	0.7195
1201	0.76
1192	0.8008
1183	0.7821
1174	0.1896
1165	0.3864
1156	0.6411
1147	0.6846
1138	0.7107
1129	0.4572
1120	0.102
1111	0.2179
1102	0.4483
1093	0.4107
1084	0.4323
1075	0.62
1066	0.6865
1057	0.7175
1048	0.7241
1039	0.73
1030	0.7249
1021	0.3908
1012	0.5182
1003	0.7147
994	0.7542
985	0.6639
976	0.7495
967	0.7325
958	0.7019
949	0.6678
940	0.7726
931	0.7137
922	0.7422
913	0.7598
904	0.7514
895	0.7318
886	0.7107
877	0.6604
868	0.5712
859	0.4798
850	0.3089
841	0.6425
832	0.6225
823	0.5743
814	0.638
805	0.6296
796	0.5746
787	0.4693
778	0.3928
769	0.3053
760	0.2408
751	0.4468
742	0.4867
733	0.527
724	0.5732
715	0.6129
706	0.6446
697	0.2645
688	0.5925
679	0.6736
670	0.7164
