Infrared Spectrum: PYRIDINE, 2-(Beta-HYDROXYPHENETHYLAMINO)-
Formula: C13 H14 N2 O
CAS: 553-69-5
State: SOLID (1 mg / 200 mg KBr DISC)
Class: COBLENTZ III
Instrument: PERKIN-ELMER 21 (GRATING)
Instrument parameters: FILTER AT ABOUT 10 MICRONS
Sampling: TRANSMISSION
Resolution: 2
1/CM	TRANSMITTANCE
4000	0.8021
3991	0.8032
3982	0.8048
3973	0.8062
3964	0.8085
3955	0.8111
3946	0.8138
3937	0.8165
3928	0.8188
3919	0.8204
3910	0.8218
3901	0.8235
3892	0.825
3883	0.8266
3874	0.8278
3865	0.8283
3856	0.8288
3847	0.8292
3838	0.8297
3829	0.8302
3820	0.8308
3811	0.8315
3802	0.8321
3793	0.8328
3784	0.8335
3775	0.8343
3766	0.8351
3757	0.8363
3748	0.8377
3739	0.839
3730	0.8403
3721	0.8417
3712	0.843
3703	0.8443
3694	0.8455
3685	0.846
3676	0.8458
3667	0.8458
3658	0.8463
3649	0.847
3640	0.8478
3631	0.8486
3622	0.8494
3613	0.8506
3604	0.8518
3595	0.853
3586	0.8543
3577	0.8554
3568	0.8562
3559	0.857
3550	0.8578
3541	0.8586
3532	0.8588
3523	0.8592
3514	0.8595
3505	0.8597
3496	0.8597
3487	0.8597
3478	0.8595
3469	0.8588
3460	0.8578
3451	0.8539
3442	0.8434
3433	0.8336
3424	0.826
3415	0.819
3406	0.8118
3397	0.8012
3388	0.7845
3379	0.7449
3370	0.6345
3361	0.5212
3352	0.4077
3343	0.3145
3334	0.3318
3325	0.3862
3316	0.441
3307	0.496
3298	0.532
3289	0.5491
3280	0.5668
3271	0.5746
3262	0.5786
3253	0.5807
3244	0.5803
3235	0.5768
3226	0.5707
3217	0.5622
3208	0.5509
3199	0.5412
3190	0.5326
3181	0.5247
3172	0.5169
3163	0.5079
3154	0.4957
3145	0.4881
3136	0.486
3127	0.4847
3118	0.4833
3109	0.4819
3100	0.481
3091	0.4803
3082	0.4792
3073	0.4776
3064	0.4768
3055	0.4762
3046	0.4762
3037	0.4826
3028	0.4952
3019	0.516
3010	0.5359
3001	0.5502
2992	0.5595
2983	0.5655
2974	0.5684
2965	0.5686
2956	0.5616
2947	0.5493
2938	0.537
2929	0.5253
2920	0.5133
2911	0.5001
2902	0.4848
2893	0.4671
2884	0.4551
2875	0.4438
2866	0.4387
2857	0.4385
2848	0.4416
2839	0.4483
2830	0.4653
2821	0.5193
2812	0.549
2803	0.5695
2794	0.5834
2785	0.595
2776	0.6048
2767	0.6135
2758	0.6209
2749	0.6284
2740	0.6353
2731	0.6421
2722	0.6493
2713	0.6571
2704	0.6653
2695	0.6737
2686	0.6822
2677	0.6911
2668	0.7
2659	0.7093
2650	0.7186
2641	0.7264
2632	0.7341
2623	0.7418
2614	0.75
2605	0.7583
2596	0.7658
2587	0.7726
2578	0.7797
2569	0.7862
2560	0.7928
2551	0.7994
2542	0.8047
2533	0.8101
2524	0.8156
2515	0.8212
2506	0.8263
2497	0.8315
2488	0.8368
2479	0.8408
2470	0.8447
2461	0.8503
2452	0.8555
2443	0.8587
2434	0.8606
2425	0.862
2416	0.8628
2407	0.8637
2398	0.8644
2389	0.866
2380	0.869
2371	0.8757
2362	0.8814
2353	0.8825
2344	0.8808
2335	0.8803
2326	0.88
2317	0.8803
2308	0.8809
2299	0.8818
2290	0.8832
2281	0.8859
2272	0.8912
2263	0.8977
2254	0.9021
2245	0.9028
2236	0.9036
2227	0.9043
2218	0.9051
2209	0.9058
2200	0.9068
2191	0.9082
2182	0.9096
2173	0.911
2164	0.9124
2155	0.9137
2146	0.9151
2137	0.9166
2128	0.918
2119	0.918
2110	0.9178
2101	0.9184
2092	0.919
2083	0.9195
2074	0.9211
2065	0.9234
2056	0.9277
2047	0.9289
2038	0.9281
2029	0.9286
2020	0.9306
2011	0.9318
2002	0.9286
1993	0.9258
1984	0.925
1975	0.9087
1966	0.8895
1957	0.8948
1948	0.9077
1939	0.9136
1930	0.9164
1921	0.9175
1912	0.9057
1903	0.9012
1894	0.904
1885	0.9125
1876	0.9208
1867	0.9292
1858	0.9357
1849	0.9331
1840	0.9212
1831	0.9044
1822	0.9087
1813	0.9202
1804	0.925
1795	0.9301
1786	0.9344
1777	0.9387
1768	0.9427
1759	0.946
1750	0.9518
1741	0.9604
1732	0.9521
1723	0.9471
1714	0.9455
1705	0.9465
1696	0.9458
1687	0.9406
1678	0.9333
1669	0.9143
1660	0.8975
1651	0.8356
1642	0.6884
1633	0.3422
1624	0.1291
1615	0.1686
1606	0.4049
1597	0.6439
1588	0.636
1579	0.6907
1570	0.7703
1561	0.7767
1552	0.7591
1543	0.5328
1534	0.1989
1525	0.2429
1516	0.3712
1507	0.3391
1498	0.2682
1489	0.3705
1480	0.5017
1471	0.6062
1462	0.6356
1453	0.5405
1444	0.6883
1435	0.7218
1426	0.5086
1417	0.5395
1408	0.7081
1399	0.7519
1390	0.7556
1381	0.7521
1372	0.7094
1363	0.4889
1354	0.4064
1345	0.3464
1336	0.4064
1327	0.6348
1318	0.7225
1309	0.6867
1300	0.5416
1291	0.5115
1282	0.7381
1273	0.7605
1264	0.7132
1255	0.7421
1246	0.7794
1237	0.5938
1228	0.7757
1219	0.8281
1210	0.8392
1201	0.7204
1192	0.736
1183	0.8328
1174	0.7711
1165	0.8439
1156	0.6926
1147	0.486
1138	0.7765
1129	0.7464
1120	0.4908
1111	0.6153
1102	0.4657
1093	0.6893
1084	0.571
1075	0.7278
1066	0.5683
1057	0.4516
1048	0.7551
1039	0.7919
1030	0.6719
1021	0.8076
1012	0.8787
1003	0.8467
994	0.543
985	0.7397
976	0.7455
967	0.8677
958	0.885
949	0.8868
940	0.9096
931	0.9183
922	0.8188
913	0.7985
904	0.711
895	0.8489
886	0.8912
877	0.9061
868	0.9092
859	0.8051
850	0.7819
841	0.8944
832	0.9092
823	0.9062
814	0.8883
805	0.8443
796	0.8874
787	0.8588
778	0.5707
769	0.2689
760	0.683
751	0.353
742	0.568
733	0.6728
724	0.7492
715	0.7065
706	0.2852
697	0.5053
688	0.5569
679	0.5983
