Infrared Spectrum: Guaiacol carbonate
Formula: C 15 H 14 O 5
CAS: 553-17-3
State: gas
Origin: EPA-IR VAPOR PHASE LIBRARY
1/CM	ABSORBANCE
549.9	0.00826
559.547	0.00759
569.193	0.00694
578.84	0.00678
588.486	0.00613
598.133	0.0047944
607.779	0.00402844
617.426	0.003847
627.072	0.0046355
636.719	0.00735
646.365	0.00574
656.012	0.0043598
665.658	0.0045813
675.305	0.00548
684.951	0.0089
694.598	0.01234
704.245	0.00928
713.891	0.01229
723.538	0.02236
733.184	0.05391
742.831	0.14325
752.477	0.11791
762.124	0.05431
771.77	0.03475
781.417	0.02791
791.063	0.01782
800.71	0.0118
810.356	0.01024
820.003	0.01167
829.649	0.01303
839.296	0.01045
848.943	0.00823
858.589	0.00682
868.236	0.00677
877.882	0.00858
887.529	0.00927
897.175	0.00682
906.822	0.00603
916.468	0.00735
926.115	0.01037
935.761	0.00858
945.408	0.00804
955.054	0.00923
964.701	0.01208
974.347	0.01922
983.994	0.02768
993.64	0.03379
1003.29	0.0431
1012.93	0.05565
1022.58	0.06795
1032.23	0.07904
1041.87	0.08277
1051.52	0.04882
1061.17	0.02628
1070.81	0.02034
1080.46	0.02281
1090.11	0.04037
1099.75	0.10652
1109.4	0.15687
1119.05	0.08243
1128.69	0.04519
1138.34	0.0477
1147.99	0.09871
1157.63	0.27273
1167.28	0.50481
1176.92	0.38165
1186.57	0.34382
1196.22	0.34324
1205.86	0.33768
1215.51	0.47734
1225.16	0.59892
1234.8	0.38814
1244.45	0.25575
1254.1	0.36357
1263.74	0.41557
1273.39	0.3429
1283.04	0.24532
1292.68	0.1317
1302.33	0.102
1311.98	0.07396
1321.62	0.04436
1331.27	0.02846
1340.92	0.02064
1350.56	0.01732
1360.21	0.01599
1369.86	0.01561
1379.5	0.01567
1389.15	0.01635
1398.79	0.0167
1408.44	0.0171
1418.09	0.01893
1427.73	0.02477
1437.38	0.04192
1447.03	0.05004
1456.67	0.06637
1466.32	0.06657
1475.97	0.05744
1485.61	0.09889
1495.26	0.27083
1504.91	0.27232
1514.55	0.10205
1524.2	0.04687
1533.85	0.02541
1543.49	0.01785
1553.14	0.01535
1562.79	0.0158
1572.43	0.02048
1582.08	0.03015
1591.73	0.04088
1601.37	0.05513
1611.02	0.04884
1620.67	0.02312
1630.31	0.01219
1639.96	0.00889
1649.6	0.00771
1659.25	0.00771
1668.9	0.00824
1678.54	0.00892
1688.19	0.00994
1697.84	0.00985
1707.48	0.00942
1717.13	0.00944
1726.78	0.01007
1736.42	0.01211
1746.07	0.01571
1755.72	0.02026
1765.36	0.02663
1775.01	0.03937
1784.66	0.0786
1794.3	0.17209
1803.95	0.18496
1813.6	0.19134
1823.24	0.08452
1832.89	0.02768
1842.54	0.01869
1852.18	0.01539
1861.83	0.01227
1871.47	0.01031
1881.12	0.01088
1890.77	0.00994
1900.41	0.00799
1910.06	0.00743
1919.71	0.00881
1929.35	0.00767
1939	0.00571
1948.65	0.00541
1958.29	0.00548
1967.94	0.00538
1977.59	0.00558
1987.23	0.00625
1996.88	0.00691
2006.53	0.0072
2016.17	0.00743
2025.82	0.00775
2035.47	0.00821
2045.11	0.00893
2054.76	0.00911
2064.41	0.00817
2074.05	0.00712
2083.7	0.00622
2093.35	0.00574
2102.99	0.0053
2112.64	0.004841
2122.28	0.0046006
2131.93	0.0047341
2141.58	0.00506
2151.22	0.00532
2160.87	0.00542
2170.52	0.00534
2180.16	0.0053
2189.81	0.00561
2199.46	0.00614
2209.1	0.00702
2218.75	0.0073
2228.4	0.00625
2238.04	0.00517
2247.69	0.0047992
2257.34	0.0046891
2266.98	0.0046931
2276.63	0.0046868
2286.28	0.0044948
2295.92	0.0041577
2305.57	0.0041269
2315.22	0.0043802
2324.86	0.00403419
2334.51	0.00376
2344.16	0.003636
2353.8	0.003687
2363.45	0.003806
2373.09	0.0041027
2382.74	0.0043364
2392.39	0.0042061
2402.03	0.003923
2411.68	0.0039623
2421.33	0.0041303
2430.97	0.0041983
2440.62	0.0041886
2450.27	0.00404768
2459.91	0.003893
2469.56	0.003769
2479.21	0.003665
2488.85	0.003695
2498.5	0.003655
2508.15	0.003701
2517.79	0.003777
2527.44	0.00409704
2537.09	0.0044434
2546.73	0.0047437
2556.38	0.00502
2566.03	0.0049183
2575.67	0.0045857
2585.32	0.00402543
2594.96	0.003561
2604.61	0.003309
2614.26	0.003091
2623.9	0.00282
2633.55	0.00266
2643.2	0.00253
2652.84	0.00236
2662.49	0.00223
2672.14	0.00223
2681.78	0.00216
2691.43	0.00212
2701.08	0.00205
2710.72	0.00215
2720.37	0.00229
2730.02	0.00246
2739.66	0.0026
2749.31	0.00273
2758.96	0.0029
2768.6	0.003133
2778.25	0.003373
2787.9	0.0039558
2797.54	0.0045542
2807.19	0.00521
2816.84	0.00704
2826.48	0.01093
2836.13	0.02086
2845.77	0.03328
2855.42	0.02255
2865.07	0.01349
2874.71	0.01166
2884.36	0.01343
2894.01	0.01647
2903.65	0.01984
2913.3	0.02329
2922.95	0.02609
2932.59	0.03344
2942.24	0.04816
2951.89	0.05079
2961.53	0.04016
2971.18	0.03183
2980.83	0.02405
2990.47	0.02244
3000.12	0.0276
3009.77	0.03399
3019.41	0.02471
3029.06	0.01868
3038.71	0.02058
3048.35	0.02514
3058	0.02567
3067.64	0.03247
3077.29	0.0393
3086.94	0.03043
3096.58	0.01675
3106.23	0.00883
3115.88	0.00567
3125.52	0.00358
3135.17	0.00231
3144.82	0.00183
3154.46	0.00149
3164.11	0.00124
3173.76	0.00113
3183.4	0.00081
3193.05	0.0007
3202.7	0.00049
3212.34	0.00033
3221.99	0.00028
3231.64	0.00013
3241.28	0.0002
3250.93	0.0002
3260.58	0.00017
3270.22	0.00023
3279.87	0.00021
3289.52	8e-05
3299.16	0.00027
3308.81	0.00021
3318.45	0.00016
3328.1	0.0003
3337.75	0.00033
3347.39	0.0003
3357.04	0.0004
3366.69	0.00039
3376.33	0.00037
3385.98	0.00044
3395.63	0.0005
3405.27	0.00041
3414.92	0.00054
3424.57	0.00047
3434.21	0.00059
3443.86	0.00064
3453.51	0.00069
3463.15	0.00074
3472.8	0.00086
3482.45	0.00091
3492.09	0.00095
3501.74	0.00098
3511.39	0.00105
3521.03	0.00122
3530.68	0.00136
3540.33	0.00149
3549.97	0.00155
3559.62	0.00184
3569.26	0.00207
3578.91	0.0022
3588.56	0.00223
3598.2	0.00234
3607.85	0.00254
3617.5	0.00226
3627.14	0.00199
3636.79	0.0019
3646.44	0.00175
3656.08	0.00176
3665.73	0.00161
3675.38	0.00169
3685.02	0.00176
3694.67	0.00179
3704.32	0.00175
3713.96	0.00173
3723.61	0.00172
3733.26	0.00171
3742.9	0.00164
3752.55	0.00174
3762.2	0.00177
3771.84	0.00179
3781.49	0.00176
3791.13	0.00193
3800.78	0.00196
3810.43	0.00195
3820.07	0.00205
3829.72	0.00206
3839.37	0.00227
3849.01	0.0023
3858.66	0.00227
3868.31	0.00232
3877.95	0.00225
3887.6	0.00228
3897.25	0.00241
3906.89	0.00251
3916.54	0.00234
3926.19	0.00229
3935.83	0.00225
3945.48	0.00231
3955.13	0.00253
3964.77	0.00255
3974.42	0.0025
3984.07	0.00246
3993.71	0.0025
