Infrared Spectrum: Isopropyl nicotinate
Formula: C 9 H 11 N O 2
CAS: 553-60-6
State: gas
Origin: EPA-IR VAPOR PHASE LIBRARY
1/CM	ABSORBANCE
501.5	0.0005052
513.074	0.0007121
524.648	0.0006778
536.222	0.00038592
547.796	0.000139
559.37	8.6e-05
570.944	0.000185
582.518	4.7e-05
594.092	0.000211
605.666	0.0011425
617.24	0.003089
628.814	0.002129
640.388	0.0010428
651.962	0.001449
663.536	0.001979
675.11	0.003109
686.684	0.009759
698.258	0.022229
709.832	0.017339
721.406	0.013869
732.98	0.029729
744.554	0.035609
756.128	0.016349
767.702	0.007179
779.276	0.005069
790.85	0.004169
802.423	0.004639
813.997	0.007309
825.571	0.009869
837.145	0.010019
848.719	0.015979
860.293	0.009379
871.867	0.003669
883.441	0.003129
895.015	0.004929
906.589	0.011869
918.163	0.017889
929.737	0.008159
941.311	0.003629
952.885	0.003219
964.459	0.003709
976.033	0.004499
987.607	0.006819
999.181	0.009919
1010.76	0.022339
1022.33	0.049639
1033.9	0.019679
1045.48	0.008799
1057.05	0.009789
1068.63	0.019089
1080.2	0.037509
1091.77	0.095459
1103.35	0.201489
1114.92	0.195889
1126.49	0.138769
1138.07	0.081619
1149.64	0.040749
1161.22	0.023189
1172.79	0.028379
1184.36	0.034629
1195.94	0.021699
1207.51	0.015869
1219.09	0.019749
1230.66	0.029469
1242.23	0.037739
1253.81	0.056549
1265.38	0.178219
1276.96	0.345979
1288.53	0.201029
1300.1	0.052799
1311.68	0.028259
1323.25	0.031039
1334.83	0.026599
1346.4	0.026519
1357.97	0.029579
1369.55	0.027699
1381.12	0.034329
1392.7	0.027809
1404.27	0.021229
1415.84	0.038339
1427.42	0.023989
1438.99	0.010399
1450.57	0.011399
1462.14	0.016369
1473.71	0.018599
1485.29	0.009799
1496.86	0.004919
1508.44	0.003799
1520.01	0.003799
1531.58	0.004459
1543.16	0.006149
1554.73	0.009149
1566.31	0.015169
1577.88	0.030509
1589.45	0.048279
1601.03	0.018109
1612.6	0.005649
1624.18	0.004429
1635.75	0.004639
1647.32	0.005449
1658.9	0.005999
1670.47	0.006669
1682.05	0.008699
1693.62	0.012469
1705.19	0.017579
1716.77	0.041389
1728.34	0.136839
1739.92	0.212969
1751.49	0.107339
1763.06	0.024299
1774.64	0.009439
1786.21	0.007469
1797.79	0.005939
1809.36	0.004319
1820.93	0.003529
1832.51	0.003169
1844.08	0.002779
1855.66	0.002289
1867.23	0.001969
1878.8	0.001819
1890.38	0.002309
1901.95	0.002909
1913.53	0.003509
1925.1	0.003649
1936.67	0.003009
1948.25	0.003549
1959.82	0.003269
1971.4	0.002519
1982.97	0.001769
1994.54	0.0012406
2006.12	0.0010373
2017.69	0.0009371
2029.27	0.0009214
2040.84	0.0008334
2052.41	0.0007247
2063.99	0.000709
2075.56	0.0007155
2087.14	0.0007547
2098.71	0.0008723
2110.28	0.0012087
2121.86	0.001519
2133.43	0.0013475
2145.01	0.000859
2156.58	0.0006455
2168.15	0.0005998
2179.73	0.0006162
2191.3	0.0007236
2202.88	0.0008931
2214.45	0.0010677
2226.02	0.0011633
2237.6	0.0011368
2249.17	0.0009732
2260.74	0.0008279
2272.32	0.0008053
2283.89	0.0009051
2295.47	0.0010473
2307.04	0.0009894
2318.61	0.0008066
2330.19	0.0007166
2341.76	0.0007769
2353.34	0.0009281
2364.91	0.0011268
2376.48	0.001419
2388.06	0.001429
2399.63	0.0012576
2411.21	0.0009982
2422.78	0.000755
2434.35	0.0006856
2445.93	0.0006636
2457.5	0.0006817
2469.08	0.0007363
2480.65	0.0007194
2492.22	0.0007224
2503.8	0.0007935
2515.37	0.0008214
2526.95	0.0008074
2538.52	0.0008043
2550.09	0.0008135
2561.67	0.0008142
2573.24	0.0008059
2584.82	0.0008345
2596.39	0.0008335
2607.96	0.000814
2619.54	0.0007755
2631.11	0.0006278
2642.69	0.0005644
2654.26	0.0006277
2665.83	0.0006324
2677.41	0.0006409
2688.98	0.0006797
2700.56	0.0007555
2712.13	0.0007243
2723.7	0.0007511
2735.28	0.0010284
2746.85	0.0013064
2758.43	0.0011837
2770	0.0010784
2781.57	0.0010809
2793.15	0.0011334
2804.72	0.0012621
2816.3	0.001519
2827.87	0.001859
2839.44	0.002199
2851.02	0.002729
2862.59	0.003899
2874.17	0.006469
2885.74	0.009269
2897.31	0.008939
2908.89	0.008949
2920.46	0.010679
2932.04	0.016199
2943.61	0.023609
2955.18	0.019179
2966.76	0.018039
2978.33	0.046699
2989.91	0.067799
3001.48	0.029649
3013.05	0.012349
3024.63	0.008559
3036.2	0.010839
3047.78	0.019069
3059.35	0.016359
3070.92	0.009289
3082.5	0.010349
3094.07	0.010989
3105.65	0.004399
3117.22	0.002529
3128.79	0.002329
3140.37	0.002329
3151.94	0.002139
3163.52	0.001729
3175.09	0.001669
3186.66	0.001519
3198.24	0.0012536
3209.81	0.001109
3221.39	0.0009466
3232.96	0.0006313
3244.53	0.0005635
3256.11	0.0004843
3267.68	0.0004069
3279.26	0.0003565
3290.83	0.0003262
3302.4	0.0003273
3313.98	0.00042247
3325.55	0.0005655
3337.13	0.00043989
3348.7	0.00038785
3360.27	0.00046399
3371.85	0.0004805
3383.42	0.0005064
3395	0.0005383
3406.57	0.0005903
3418.14	0.0007067
3429.72	0.0009089
3441.29	0.001409
3452.86	0.002309
3464.44	0.002249
3476.01	0.001419
3487.59	0.0009314
3499.16	0.0006675
3510.73	0.0005425
3522.31	0.00041777
3533.88	0.000377849
3545.46	0.0003827
3557.03	0.0003246
3568.6	0.0003338
3580.18	0.0003143
3591.75	0.000289
3603.33	0.000258
3614.9	0.0002774
3626.47	0.0002937
3638.05	0.0003395
3649.62	0.000241
3661.2	0.0002881
3672.77	0.00036209
3684.34	0.00043764
3695.92	0.00039337
3707.49	0.00037914
3719.07	0.0004645
3730.64	0.00046574
3742.21	0.0003575
3753.79	0.00040693
3765.36	0.00042831
3776.94	0.0004903
3788.51	0.0005656
3800.08	0.000526
3811.66	0.00044507
3823.23	0.00046246
3834.81	0.0004209
3846.38	0.0003312
3857.95	0.00048
3869.53	0.00044905
3881.1	0.0005121
3892.68	0.0005018
3904.25	0.000538
3915.82	0.0004941
3927.4	0.00044344
3938.97	0.00043516
3950.55	0.00038277
3962.12	0.000376018
3973.69	0.0004192
3985.27	0.00042032
3996.84	0.00045325
