Infrared Spectrum: BIPYRIDINE, 4,4'-
Formula: C10 H8 N2
CAS: 553-26-4
State: SOLID (SPLIT MULL), FLUOROLUBE FOR 3800-1330 CM^-^1, NUJOL FOR 1330-450 CM^-^1
Class: COBLENTZ III
Instrument: DOW KBr FOREPRISM-GRATING
Instrument parameters: BLAZED AT 3.5, 12.0, 20.0 MICRON AND CHANGED AT 5.0, 7.5, 14.9 MICRON
Sampling: TRANSMISSION
Resolution: 2
Origin: DOW CHEMICAL COMPANY
1/CM	TRANSMITTANCE
455	0.719
464	0.7126
473	0.7112
482	0.7293
491	0.721
500	0.5415
509	0.771
518	0.7932
527	0.7994
536	0.7989
545	0.7928
554	0.7856
563	0.7778
572	0.6678
581	0.7904
590	0.7722
599	0.7342
608	0.07
617	0.8351
626	0.8325
635	0.8318
644	0.8321
653	0.8169
662	0.8271
671	0.783
680	0.8235
689	0.814
698	0.8011
707	0.7791
716	0.7008
725	0.7086
734	0.5667
743	0.7192
752	0.7768
761	0.7731
770	0.7699
779	0.7661
788	0.7278
797	0.646
806	0.1564
815	0.488
824	0.6781
833	0.7036
842	0.6971
851	0.5699
860	0.7449
869	0.7253
878	0.6657
887	0.739
896	0.7389
905	0.7346
914	0.7237
923	0.714
932	0.7033
941	0.6917
950	0.6753
959	0.601
968	0.6295
977	0.5386
986	0.2978
995	0.7415
1004	0.738
1013	0.728
1022	0.7081
1031	0.6636
1040	0.7045
1049	0.6984
1058	0.6903
1067	0.6288
1076	0.589
1085	0.699
1094	0.6641
1103	0.6854
1112	0.6853
1121	0.6744
1130	0.6814
1139	0.688
1148	0.6803
1157	0.6774
1166	0.6746
1175	0.6725
1184	0.6691
1193	0.6565
1202	0.6226
1211	0.5502
1220	0.4014
1229	0.6439
1238	0.6804
1247	0.6676
1256	0.6551
1265	0.6489
1274	0.6424
1283	0.6346
1292	0.6149
1301	0.6062
1310	0.601
1319	0.5945
1328	0.5555
1337	0.5585
1346	0.5405
1355	0.5575
1364	0.5653
1373	0.567
1382	0.5635
1391	0.5173
1400	0.3491
1409	0.4493
1418	0.6421
1427	0.674
1436	0.6639
1445	0.6519
1454	0.6425
1463	0.6321
1472	0.6259
1481	0.5891
1490	0.6374
1499	0.637
1508	0.607
1517	0.5745
1526	0.4891
1535	0.5448
1544	0.5969
1553	0.5794
1562	0.5382
1571	0.4519
1580	0.2841
1589	0.1924
1598	0.541
1607	0.5643
1616	0.7133
1625	0.7265
1634	0.7145
1643	0.6991
1652	0.6844
1661	0.6758
1670	0.6654
1679	0.654
1688	0.641
1697	0.6471
1706	0.646
1715	0.6356
1724	0.6279
1733	0.6326
1742	0.6316
1751	0.6285
1760	0.6242
1769	0.6194
1778	0.6159
1787	0.6135
1796	0.6106
1805	0.6075
1814	0.6043
1823	0.5997
1832	0.5936
1841	0.5893
1850	0.5852
1859	0.589
1868	0.5887
1877	0.5873
1886	0.5854
1895	0.5828
1904	0.579
1913	0.5742
1922	0.567
1931	0.5401
1940	0.5418
1949	0.5609
1958	0.5694
1967	0.5691
1976	0.5685
1985	0.5666
1994	0.6088
2003	0.6249
2012	0.6212
2021	0.6154
2030	0.6109
2039	0.6069
2048	0.6025
2057	0.599
2066	0.5957
2075	0.5919
2084	0.5878
2093	0.5834
2102	0.579
2111	0.5746
2120	0.5703
2129	0.566
2138	0.5619
2147	0.5577
2156	0.5532
2165	0.5481
2174	0.543
2183	0.5385
2192	0.5343
2201	0.5299
2210	0.5252
2219	0.5201
2228	0.515
2237	0.5099
2246	0.5044
2255	0.4987
2264	0.4942
2273	0.4897
2282	0.4851
2291	0.4815
2300	0.478
2309	0.4745
2318	0.4694
2327	0.465
2336	0.4633
2345	0.4617
2354	0.4606
2363	0.4595
2372	0.4595
2381	0.4594
2390	0.4582
2399	0.452
2408	0.445
2417	0.4407
2426	0.4405
2435	0.4407
2444	0.4412
2453	0.4419
2462	0.4424
2471	0.4404
2480	0.438
2489	0.4342
2498	0.4304
2507	0.4275
2516	0.4247
2525	0.4219
2534	0.4194
2543	0.4168
2552	0.4145
2561	0.4124
2570	0.4104
2579	0.4084
2588	0.4064
2597	0.4037
2606	0.4009
2615	0.3979
2624	0.3954
2633	0.3932
2642	0.3912
2651	0.3888
2660	0.3864
2669	0.384
2678	0.3816
2687	0.3792
2696	0.3768
2705	0.3744
2714	0.372
2723	0.3692
2732	0.3654
2741	0.3616
2750	0.3579
2759	0.3555
2768	0.3544
2777	0.3532
2786	0.3514
2795	0.3489
2804	0.345
2813	0.3408
2822	0.3366
2831	0.3323
2840	0.3277
2849	0.3228
2858	0.3178
2867	0.3124
2876	0.3021
2885	0.287
2894	0.2894
2903	0.3071
2912	0.3043
2921	0.2992
2930	0.2944
2939	0.2935
2948	0.2873
2957	0.2797
2966	0.2729
2975	0.2674
2984	0.2661
2993	0.2572
3002	0.2306
3011	0.1906
3020	0.153
3029	0.196
3038	0.2824
3047	0.3242
3056	0.3505
3065	0.3194
3074	0.3256
3083	0.326
3092	0.321
3101	0.317
3110	0.3135
3119	0.3094
3128	0.3053
3137	0.3019
3146	0.2984
3155	0.2953
3164	0.2922
3173	0.2896
3182	0.2877
3191	0.2857
3200	0.2837
3209	0.2817
3218	0.2798
3227	0.2779
3236	0.2761
3245	0.2743
3254	0.2726
3263	0.2708
3272	0.2691
3281	0.2673
3290	0.2651
3299	0.263
3308	0.261
3317	0.2589
3326	0.2568
3335	0.2549
3344	0.253
3353	0.2512
3362	0.2493
3371	0.2475
3380	0.2459
3389	0.2444
3398	0.243
3407	0.2417
3416	0.2406
3425	0.2394
3434	0.2383
3443	0.2372
3452	0.2361
3461	0.235
3470	0.2339
3479	0.2328
3488	0.2317
3497	0.2308
3506	0.23
3515	0.2292
3524	0.2284
3533	0.2277
3542	0.2269
3551	0.2263
3560	0.2258
3569	0.2253
3578	0.2249
3587	0.2242
3596	0.223
3605	0.2218
3614	0.2201
3623	0.2177
3632	0.2184
3641	0.2181
3650	0.2159
3659	0.2134
3668	0.2115
3677	0.2097
3686	0.2087
3695	0.2077
3704	0.2066
3713	0.2055
3722	0.2044
3731	0.2031
3740	0.2014
3749	0.1996
3758	0.1986
3767	0.1979
3776	0.1974
3785	0.1974
3794	0.1975
