Infrared Spectrum: p-TOLUQUINONE
Formula: C7 H6 O2
CAS: 553-97-9
State: SOLUTION (10% CCl4 FOR 5000-1330, 10% CS2 FOR 1330-625 CM^-^1)
Class: COBLENTZ
Instrument: Not specified, most likely a prism, grating, or hybrid spectrometer.
Sampling: TRANSMISSION
Path length: 0.011 CM, 0.011 CM
Resolution: 4
Origin: DOW CHEMICAL COMPANY
MICROMETERS	TRANSMITTANCE
2.048	0.914
2.08895	0.902
2.12991	0.911
2.17086	0.912
2.21181	0.9
2.25277	0.89
2.29372	0.909
2.33468	0.904
2.37563	0.904
2.41658	0.909
2.45754	0.909
2.49849	0.904
2.53944	0.904
2.5804	0.909
2.62135	0.904
2.66231	0.907
2.70326	0.909
2.74421	0.909
2.78517	0.904
2.82612	0.9
2.86707	0.899
2.90803	0.894
2.94898	0.876
2.98993	0.813
3.03089	0.815
3.07184	0.883
3.1128	0.894
3.15375	0.888
3.1947	0.87
3.23566	0.827
3.27661	0.817
3.31756	0.791
3.35852	0.767
3.39947	0.803
3.44043	0.875
3.48138	0.861
3.52233	0.882
3.56329	0.894
3.60424	0.89
3.64519	0.888
3.68615	0.897
3.7271	0.895
3.76805	0.89
3.80901	0.9
3.84996	0.895
3.89092	0.887
3.93187	0.897
3.97282	0.89
4.01378	0.892
4.05473	0.888
4.09568	0.89
4.13664	0.895
4.17759	0.888
4.21855	0.887
4.2595	0.892
4.30045	0.892
4.34141	0.899
4.38236	0.885
4.42331	0.882
4.46427	0.89
4.50522	0.89
4.54617	0.894
4.58713	0.89
4.62808	0.887
4.66904	0.882
4.70999	0.89
4.75094	0.897
4.7919	0.897
4.83285	0.888
4.8738	0.89
4.91476	0.89
4.95571	0.87
4.99666	0.89
5.03762	0.885
5.07857	0.878
5.11953	0.887
5.16048	0.892
5.20143	0.89
5.24239	0.89
5.28334	0.885
5.32429	0.888
5.36525	0.888
5.4062	0.883
5.44716	0.871
5.48811	0.851
5.52906	0.835
5.57002	0.834
5.61097	0.777
5.65192	0.729
5.69288	0.743
5.73383	0.726
5.77478	0.683
5.81574	0.664
5.85669	0.623
5.89765	0.529
5.9386	0.35
5.97955	0.104
6.02051	0.032
6.06146	0.116
6.10241	0.295
6.14337	0.417
6.18432	0.449
6.22528	0.261
6.26623	0.598
6.30718	0.697
6.34814	0.695
6.38909	0.695
6.43004	0.724
6.471	0.753
6.51195	0.782
6.5529	0.781
6.59386	0.779
6.63481	0.8
6.67577	0.823
6.71672	0.825
6.75767	0.82
6.79863	0.81
6.83958	0.76
6.88053	0.591
6.92149	0.482
6.96244	0.512
7.0034	0.582
7.04435	0.687
7.0853	0.748
7.12626	0.758
7.16721	0.661
7.20816	0.553
7.24912	0.509
7.29007	0.6
7.33102	0.68
7.37198	0.565
7.41293	0.329
7.45389	0.295
7.49484	0.675
7.53579	0.748
7.57675	0.731
7.6177	0.632
7.65865	0.401
7.69961	0.126
7.74056	0.117
7.78152	0.196
7.82247	0.179
7.86342	0.389
7.90438	0.661
7.94533	0.772
7.98628	0.815
8.02724	0.841
8.06819	0.851
8.10914	0.858
8.1501	0.839
8.19105	0.774
8.23201	0.75
8.27296	0.837
8.31391	0.846
8.35487	0.841
8.39582	0.849
8.43677	0.861
8.47773	0.864
8.51868	0.863
8.55964	0.851
8.60059	0.842
8.64154	0.852
8.6825	0.863
8.72345	0.863
8.7644	0.817
8.80536	0.671
8.84631	0.579
8.88726	0.765
8.92822	0.834
8.96917	0.846
9.01013	0.837
9.05108	0.817
9.09203	0.748
9.13299	0.564
9.17394	0.273
9.21489	0.129
9.25585	0.494
9.2968	0.659
9.33776	0.735
9.37871	0.784
9.41966	0.805
9.46062	0.82
9.50157	0.83
9.54252	0.832
9.58348	0.808
9.62443	0.724
9.66538	0.699
9.70634	0.777
9.74729	0.815
9.78825	0.827
9.8292	0.81
9.87015	0.781
9.91111	0.688
9.95206	0.492
9.99301	0.348
10.034	0.572
10.0749	0.719
10.1159	0.784
10.1568	0.808
10.1978	0.834
10.2387	0.841
10.2797	0.854
10.3206	0.866
10.3616	0.866
10.4026	0.868
10.4435	0.868
10.4845	0.866
10.5254	0.868
10.5664	0.868
10.6073	0.868
10.6483	0.868
10.6892	0.859
10.7302	0.849
10.7711	0.825
10.8121	0.796
10.853	0.753
10.894	0.676
10.9349	0.558
10.9759	0.439
11.0169	0.235
11.0578	0.078
11.0988	0.011
11.1397	0.09
11.1807	0.348
11.2216	0.535
11.2626	0.56
11.3035	0.535
11.3445	0.524
11.3854	0.565
11.4264	0.635
11.4673	0.695
11.5083	0.735
11.5493	0.769
11.5902	0.784
11.6312	0.801
11.6721	0.817
11.7131	0.818
11.754	0.822
11.795	0.823
11.8359	0.817
11.8769	0.817
11.9178	0.82
11.9588	0.829
11.9997	0.841
12.0407	0.842
12.0817	0.842
12.1226	0.841
12.1636	0.822
12.2045	0.793
12.2455	0.74
12.2864	0.637
12.3274	0.485
12.3683	0.254
12.4093	0.129
12.4502	0.317
12.4912	0.589
12.5321	0.709
12.5731	0.762
12.614	0.782
12.655	0.784
12.696	0.77
12.7369	0.745
12.7779	0.724
12.8188	0.743
12.8598	0.793
12.9007	0.83
12.9417	0.851
12.9826	0.863
13.0236	0.87
13.0645	0.876
13.1055	0.88
13.1464	0.885
13.1874	0.887
13.2284	0.883
13.2693	0.88
13.3103	0.88
13.3512	0.888
13.3922	0.892
13.4331	0.892
13.4741	0.892
13.515	0.899
13.556	0.9
13.5969	0.9
13.6379	0.897
13.6788	0.897
13.7198	0.894
13.7608	0.895
13.8017	0.895
13.8427	0.899
13.8836	0.9
13.9246	0.902
13.9655	0.904
14.0065	0.902
14.0474	0.902
14.0884	0.899
14.1293	0.895
14.1703	0.894
14.2112	0.897
14.2522	0.897
14.2932	0.899
14.3341	0.897
14.3751	0.897
14.416	0.894
14.457	0.894
14.4979	0.89
14.5389	0.878
14.5798	0.871
14.6208	0.859
14.6617	0.83
14.7027	0.784
14.7436	0.74
14.7846	0.705
14.8255	0.707
14.8665	0.74
14.9075	0.776
14.9484	0.798
14.9894	0.822
15.0303	0.842
15.0713	0.847
15.1122	0.849
15.1532	0.847
15.1941	0.844
15.2351	0.837
15.276	0.835
15.317	0.832
15.3579	0.829
15.3989	0.823
15.4399	0.822
15.4808	0.822
15.5218	0.823
15.5627	0.825
15.6037	0.825
15.6446	0.822
15.6856	0.818
15.7265	0.815
15.7675	0.813
15.8084	0.806
15.8494	0.8
15.8903	0.794
15.9313	0.8
