Infrared Spectrum: 1-Cyclohexyl-2-methyl-2-propanol
Formula: C 10 H 20 O
CAS: 5531-30-6
State: gas
Instrument: HP-GC/MS/IRD
Origin: NIST Mass Spectrometry Data Center
1/CM	ABSORBANCE
550	0.0001296
562	0.000162
574	9.18e-05
586	0.0001728
598	0.000162
610	0.0001134
622	9.72e-05
634	3.24e-05
646	9.18e-05
658	4.86e-05
670	9.18e-05
682	2.16e-05
694	5.4e-05
706	5.94e-05
718	2.16e-05
730	5.94e-05
742	0.0002916
754	0.0006156
766	0.0005832
778	0.0002592
790	0.0001458
802	8.64e-05
814	0.000108
826	0.0003672
838	0.000783
850	0.0007506
862	0.0006318
874	0.0010314
886	0.0018738
898	0.0030456
910	0.0034128
922	0.0022734
934	0.0016632
946	0.001971
958	0.0022248
970	0.0016038
982	0.0012366
994	0.0007074
1006	0.0004482
1018	0.0005076
1030	0.0006642
1042	0.0007776
1054	0.0009828
1066	0.0013716
1078	0.001944
1090	0.0023598
1102	0.0029646
1114	0.0038448
1126	0.0044712
1138	0.0047142
1150	0.0046656
1162	0.0044604
1174	0.0039906
1186	0.0036504
1198	0.0035694
1210	0.0034992
1222	0.003537
1234	0.0033102
1246	0.0030402
1258	0.0030078
1270	0.0028188
1282	0.0026784
1294	0.0025002
1306	0.0024732
1318	0.002619
1330	0.0025488
1342	0.002538
1354	0.003213
1366	0.0050922
1378	0.0058158
1390	0.0039798
1402	0.0017496
1414	0.0011502
1426	0.0013446
1438	0.0026352
1450	0.0049518
1462	0.0045252
1474	0.0025866
1486	0.0011232
1498	0.00054
1510	0.000297
1522	0.000216
1534	0.0002052
1546	0.000135
1558	4.32e-05
1570	0.0001296
1582	0.0001458
1594	0.000135
1606	0.0001134
1618	9.18e-05
1630	0.0001026
1642	0.0001026
1654	4.32e-05
1666	0.0001134
1678	0.0001026
1690	0.0001134
1702	4.32e-05
1714	9.18e-05
1726	0.0001026
1738	4.86e-05
1750	5.4e-05
1762	5.94e-05
1774	6.48e-05
1786	8.64e-05
1798	5.4e-05
1810	9.72e-05
1822	6.48e-05
1834	6.48e-05
1846	4.86e-05
1858	4.32e-05
1870	4.86e-05
1882	7.02e-05
1894	3.78e-05
1906	3.24e-05
1918	3.24e-05
1930	3.78e-05
1942	2.7e-05
1954	2.7e-05
1966	1.62e-05
1978	2.16e-05
1990	1.62e-05
2002	1.08e-05
2014	2.7e-05
2026	1.62e-05
2038	2.7e-05
2050	1.08e-05
2062	2.7e-05
2074	2.16e-05
2086	1.08e-05
2098	2.16e-05
2110	3.24e-05
2122	3.24e-05
2134	4.86e-05
2146	4.86e-05
2158	2.16e-05
2170	4.86e-05
2182	3.24e-05
2194	1.62e-05
2206	2.16e-05
2218	2.16e-05
2230	3.78e-05
2242	4.32e-05
2254	3.78e-05
2266	3.78e-05
2278	5.4e-05
2290	4.32e-05
2302	4.32e-05
2314	3.78e-05
2326	3.78e-05
2338	4.86e-05
2350	4.32e-05
2362	9.18e-05
2374	7.56e-05
2386	7.02e-05
2398	7.02e-05
2410	3.78e-05
2422	7.02e-05
2434	7.56e-05
2446	6.48e-05
2458	5.4e-05
2470	5.4e-05
2482	8.64e-05
2494	9.18e-05
2506	6.48e-05
2518	9.18e-05
2530	0.0001296
2542	0.0001296
2554	0.0001404
2566	0.0001566
2578	0.0001782
2590	0.0002268
2602	0.0002808
2614	0.0002916
2626	0.0003348
2638	0.0003672
2650	0.0005076
2662	0.0006588
2674	0.0006372
2686	0.0005454
2698	0.000513
2710	0.000486
2722	0.0005076
2734	0.0004698
2746	0.0004644
2758	0.0004968
2770	0.0006318
2782	0.000864
2794	0.0011448
2806	0.001377
2818	0.0018306
2830	0.0029268
2842	0.0065934
2854	0.0148824
2866	0.016389
2878	0.010341
2890	0.0108
2902	0.0170586
2914	0.0288414
2926	0.047952
2938	0.0501552
2950	0.024759
2962	0.0146394
2974	0.0170694
2986	0.0117126
2998	0.0043416
3010	0.0018414
3022	0.0010584
3034	0.0007128
3046	0.0005778
3058	0.0004644
3070	0.0004158
3082	0.000378
3094	0.0003672
3106	0.0003402
3118	0.0003132
3130	0.0002916
3142	0.0002916
3154	0.0002862
3166	0.0002754
3178	0.0002916
3190	0.0002916
3202	0.000243
3214	0.0002592
3226	0.000216
3238	0.0002268
3250	0.0001836
3262	0.0001512
3274	0.0001296
3286	0.0001134
3298	7.56e-05
3310	5.4e-05
3322	7.02e-05
3334	0.0001026
3346	0.0001242
3358	0.0001782
3370	0.000189
3382	0.0001674
3394	0.0001512
3406	0.0002268
3418	0.0001674
3430	0.000162
3442	0.0001512
3454	0.000162
3466	0.0001242
3478	0.0001188
3490	8.1e-05
3502	0.0001134
3514	7.56e-05
3526	3.78e-05
3538	7.02e-05
3550	3.78e-05
3562	5.4e-05
3574	9.72e-05
3586	4.32e-05
3598	7.56e-05
3610	0.0001674
3622	0.000459
3634	0.0013716
3646	0.0013824
3658	0.0006048
3670	0.0001998
3682	0.0001242
3694	0.0001296
3706	6.48e-05
3718	4.32e-05
3730	5.94e-05
3742	2.7e-05
3754	4.32e-05
3766	0.0001458
3778	8.1e-05
3790	9.18e-05
3802	5.94e-05
3814	0.0001242
3826	0.0001728
3838	0.0001026
