Infrared Spectrum: Ethyl 2-pentynoate
Formula: C 7 H 10 O 2
CAS: 55314-57-3
State: gas
Origin: EPA-IR VAPOR PHASE LIBRARY
1/CM	ABSORBANCE
549.9	0.000373
559.547	0.00037
569.193	0.000507
578.84	0.000335
588.486	0.000305
598.133	0.000397
607.779	0.000328
617.426	0.000359
627.072	0.000315
636.719	0.000373
646.365	0.000461
656.012	0.000438
665.658	0.000478
675.305	0.000478
684.951	0.000496
694.598	0.000472
704.245	0.000552
713.891	0.000533
723.538	0.000525
733.184	0.0006729
742.831	0.0009322
752.477	0.0011368
762.124	0.0011356
771.77	0.0010448
781.417	0.00082838
791.063	0.0007341
800.71	0.00076868
810.356	0.00080944
820.003	0.00084201
829.649	0.0006793
839.296	0.000542
848.943	0.000543
858.589	0.000655
868.236	0.0006671
877.882	0.000613
887.529	0.000534
897.175	0.000534
906.822	0.000536
916.468	0.00054
926.115	0.000573
935.761	0.00055
945.408	0.000571
955.054	0.000559
964.701	0.000508
974.347	0.000507
983.994	0.000598
993.64	0.0006676
1003.29	0.00083843
1012.93	0.0009184
1022.58	0.0009829
1032.23	0.0012048
1041.87	0.002046
1051.52	0.003436
1061.17	0.003426
1070.81	0.003096
1080.46	0.004336
1090.11	0.004786
1099.75	0.003426
1109.4	0.001986
1119.05	0.001206
1128.69	0.001017
1138.34	0.0009462
1147.99	0.0009302
1157.63	0.0010049
1167.28	0.0010417
1176.92	0.0011435
1186.57	0.0012726
1196.22	0.001513
1205.86	0.002206
1215.51	0.003726
1225.16	0.007516
1234.8	0.017316
1244.45	0.025356
1254.1	0.017106
1263.74	0.005896
1273.39	0.002516
1283.04	0.001816
1292.68	0.0016706
1302.33	0.001866
1311.98	0.002506
1321.62	0.002576
1331.27	0.0014643
1340.92	0.0008765
1350.56	0.00084859
1360.21	0.0011598
1369.86	0.0014738
1379.5	0.0010875
1389.15	0.0008805
1398.79	0.000917
1408.44	0.0009013
1418.09	0.0008779
1427.73	0.00083134
1437.38	0.0009538
1447.03	0.0009661
1456.67	0.001138
1466.32	0.0011957
1475.97	0.0011847
1485.61	0.0008701
1495.26	0.00080525
1504.91	0.0007107
1514.55	0.000614
1524.2	0.000612
1533.85	0.000536
1543.49	0.000575
1553.14	0.000607
1562.79	0.000573
1572.43	0.000549
1582.08	0.000503
1591.73	0.000488
1601.37	0.000523
1611.02	0.000546
1620.67	0.00059
1630.31	0.000653
1639.96	0.000628
1649.6	0.000686
1659.25	0.0006701
1668.9	0.000760048
1678.54	0.0008724
1688.19	0.0009952
1697.84	0.0015073
1707.48	0.002456
1717.13	0.005086
1726.78	0.009156
1736.42	0.010056
1746.07	0.006996
1755.72	0.003496
1765.36	0.0015969
1775.01	0.0009885
1784.66	0.00082477
1794.3	0.000756299
1803.95	0.0006921
1813.6	0.000607
1823.24	0.000619
1832.89	0.000628
1842.54	0.000577
1852.18	0.000566
1861.83	0.000545
1871.47	0.000577
1881.12	0.000506
1890.77	0.000557
1900.41	0.00054
1910.06	0.000535
1919.71	0.000539
1929.35	0.000527
1939	0.000529
1948.65	0.000523
1958.29	0.000516
1967.94	0.00053
1977.59	0.000525
1987.23	0.000451
1996.88	0.000487
2006.53	0.000449
2016.17	0.000476
2025.82	0.00051
2035.47	0.000505
2045.11	0.000464
2054.76	0.000547
2064.41	0.000439
2074.05	0.000526
2083.7	0.000544
2093.35	0.000535
2102.99	0.000511
2112.64	0.000575
2122.28	0.000534
2131.93	0.000524
2141.58	0.00058
2151.22	0.000577
2160.87	0.000571
2170.52	0.0006588
2180.16	0.0006609
2189.81	0.00078368
2199.46	0.0009935
2209.1	0.0013464
2218.75	0.002266
2228.4	0.003456
2238.04	0.003706
2247.69	0.002556
2257.34	0.0015066
2266.98	0.0010488
2276.63	0.000833
2286.28	0.0007049
2295.92	0.00076875
2305.57	0.0007325
2315.22	0.0007233
2324.86	0.0007113
2334.51	0.0006563
2344.16	0.000649
2353.8	0.000549
2363.45	0.000588
2373.09	0.000539
2382.74	0.00053
2392.39	0.000499
2402.03	0.000503
2411.68	0.000481
2421.33	0.000471
2430.97	0.000483
2440.62	0.000464
2450.27	0.000489
2459.91	0.000456
2469.56	0.000475
2479.21	0.000458
2488.85	0.000547
2498.5	0.000477
2508.15	0.000432
2517.79	0.000503
2527.44	0.000446
2537.09	0.000451
2546.73	0.000494
2556.38	0.000443
2566.03	0.000429
2575.67	0.000451
2585.32	0.000465
2594.96	0.000452
2604.61	0.000418
2614.26	0.00045
2623.9	0.000448
2633.55	0.000414
2643.2	0.000378
2652.84	0.000485
2662.49	0.000451
2672.14	0.00045
2681.78	0.00051
2691.43	0.000406
2701.08	0.000371
2710.72	0.000485
2720.37	0.000494
2730.02	0.000495
2739.66	0.00045
2749.31	0.000448
2758.96	0.000437
2768.6	0.000464
2778.25	0.000459
2787.9	0.000477
2797.54	0.000404
2807.19	0.000325
2816.84	0.000403
2826.48	0.000493
2836.13	0.000542
2845.77	0.000606
2855.42	0.000585
2865.07	0.0006671
2874.71	0.0007402
2884.36	0.0009771
2894.01	0.0012294
2903.65	0.0013022
2913.3	0.0012915
2922.95	0.0014133
2932.59	0.0015665
2942.24	0.001776
2951.89	0.002176
2961.53	0.001936
2971.18	0.002106
2980.83	0.002976
2990.47	0.003356
3000.12	0.002226
3009.77	0.0015162
3019.41	0.0010787
3029.06	0.00077787
3038.71	0.000583
3048.35	0.000494
3058	0.00042
3067.64	0.000507
3077.29	0.00036
3086.94	0.000447
3096.58	0.000339
3106.23	0.000319
3115.88	0.000335
3125.52	0.000301
3135.17	0.000346
3144.82	0.000437
3154.46	0.000326
3164.11	0.000298
3173.76	0.000314
3183.4	0.000236
3193.05	0.000266
3202.7	0.000185
3212.34	0.000219
3221.99	0.000281
3231.64	0.000268
3241.28	0.000109
3250.93	0.000351
3260.58	5.8e-05
3270.22	0.000395
3279.87	0.000164
3289.52	0.000218
3299.16	0.000218
3308.81	0.000286
3318.45	0.000229
3328.1	0.000219
3337.75	0.000262
3347.39	0.000313
3357.04	0.000192
3366.69	0.000236
3376.33	0.000134
3385.98	0.000295
3395.63	0.000263
3405.27	0.00029
3414.92	0.000278
3424.57	0.000244
3434.21	0.000354
3443.86	0.000373
3453.51	0.000424
3463.15	0.000189
3472.8	0.000346
3482.45	0.000342
3492.09	0.000407
3501.74	0.000405
3511.39	0.000155
3521.03	0.000293
3530.68	0.000357
3540.33	0.000322
3549.97	0.000228
3559.62	0.000341
3569.26	0.000368
3578.91	0.000341
3588.56	0.00032
3598.2	0.000244
3607.85	0.000388
3617.5	0.000394
3627.14	0.000441
3636.79	0.00042
3646.44	0.00039
3656.08	0.000307
3665.73	0.000378
3675.38	0.000453
3685.02	0.000421
3694.67	0.000311
3704.32	0.000333
3713.96	0.000258
3723.61	0.000378
3733.26	0.00048
3742.9	0.000453
3752.55	0.000482
3762.2	0.000564
3771.84	0.00035
3781.49	0.000539
3791.13	0.000417
3800.78	0.000377
3810.43	0.000442
3820.07	0.000522
3829.72	0.000372
3839.37	0.000496
3849.01	0.000488
3858.66	0.000447
3868.31	0.000518
3877.95	0.000358
3887.6	0.000416
3897.25	0.000438
3906.89	0.000383
3916.54	0.000413
3926.19	0.000359
3935.83	0.000439
3945.48	0.00041
3955.13	0.000405
3964.77	0.000464
3974.42	0.000539
3984.07	0.000498
3993.71	0.000376
