Infrared Spectrum: CARBANILIC ACID, n-PROPYL ESTER
Formula: C10 H13 N O2
CAS: 5532-90-1
State: SOLID (2 mg / 100 mg KBr)
Melting point: 51 C
Class: COBLENTZ
Instrument: Not specified, most likely a grating spectrometer.
Sampling: TRANSMISSION
Resolution: 4
Origin: CITRUS EXPERIMENT STATION, UNIVERSITY OF FLORIDA (G. EDWARDS)
MICROMETERS	TRANSMITTANCE
2.013	0.498
2.04611	0.499
2.07922	0.499
2.11234	0.503
2.14545	0.504
2.17856	0.512
2.21167	0.516
2.24479	0.516
2.2779	0.517
2.31101	0.521
2.34412	0.521
2.37723	0.523
2.41035	0.524
2.44346	0.532
2.47657	0.532
2.50968	0.536
2.5428	0.543
2.57591	0.545
2.60902	0.547
2.64213	0.547
2.67524	0.551
2.70836	0.553
2.74147	0.56
2.77458	0.563
2.80769	0.564
2.8408	0.564
2.87392	0.561
2.90703	0.541
2.94014	0.511
2.97325	0.408
3.00637	0.276
3.03948	0.41
3.07259	0.508
3.1057	0.535
3.13881	0.553
3.17193	0.54
3.20504	0.551
3.23815	0.543
3.27126	0.548
3.30438	0.551
3.33749	0.472
3.3706	0.515
3.40371	0.536
3.43682	0.548
3.46994	0.571
3.50305	0.595
3.53616	0.6
3.56927	0.595
3.60239	0.603
3.6355	0.617
3.66861	0.617
3.70172	0.619
3.73483	0.624
3.76795	0.627
3.80106	0.632
3.83417	0.633
3.86728	0.635
3.90039	0.636
3.93351	0.641
3.96662	0.644
3.99973	0.645
4.03284	0.649
4.06596	0.652
4.09907	0.653
4.13218	0.655
4.16529	0.655
4.1984	0.661
4.23152	0.668
4.26463	0.672
4.29774	0.677
4.33085	0.671
4.36397	0.668
4.39708	0.669
4.43019	0.672
4.4633	0.677
4.49641	0.675
4.52953	0.675
4.56264	0.676
4.59575	0.679
4.62886	0.68
4.66198	0.684
4.69509	0.688
4.7282	0.691
4.76131	0.691
4.79442	0.692
4.82754	0.697
4.86065	0.697
4.89376	0.697
4.92687	0.696
4.95998	0.697
4.9931	0.7
5.02621	0.697
5.05932	0.696
5.09243	0.692
5.12555	0.697
5.15866	0.703
5.19177	0.707
5.22488	0.701
5.25799	0.7
5.29111	0.699
5.32422	0.699
5.35733	0.709
5.39044	0.709
5.42356	0.701
5.45667	0.697
5.48978	0.696
5.52289	0.688
5.556	0.692
5.58912	0.691
5.62223	0.689
5.65534	0.667
5.68845	0.611
5.72157	0.568
5.75468	0.451
5.78779	0.334
5.8209	0.238
5.85401	0.239
5.88713	0.29
5.92024	0.46
5.95335	0.537
5.98646	0.584
6.01957	0.645
6.05269	0.659
6.0858	0.659
6.11891	0.639
6.15202	0.587
6.18514	0.5
6.21825	0.411
6.25136	0.4
6.28447	0.608
6.31758	0.661
6.3507	0.647
6.38381	0.547
6.41692	0.379
6.45003	0.336
6.48315	0.363
6.51626	0.46
6.54937	0.581
6.58248	0.564
6.61559	0.505
6.64871	0.557
6.68182	0.601
6.71493	0.627
6.74804	0.632
6.78116	0.632
6.81427	0.632
6.84738	0.58
6.88049	0.478
6.9136	0.322
6.94672	0.549
6.97983	0.637
7.01294	0.681
7.04605	0.697
7.07916	0.7
7.11228	0.691
7.14539	0.688
7.1785	0.68
7.21161	0.681
7.24473	0.687
7.27784	0.697
7.31095	0.699
7.34406	0.695
7.37717	0.681
7.41029	0.681
7.4434	0.688
7.47651	0.623
7.50962	0.559
7.54274	0.459
7.57585	0.432
7.60896	0.561
7.64207	0.521
7.67518	0.564
7.7083	0.663
7.74141	0.683
7.77452	0.688
7.80763	0.681
7.84075	0.652
7.87386	0.608
7.90697	0.552
7.94008	0.54
7.97319	0.519
8.00631	0.447
8.03942	0.322
8.07253	0.222
8.10564	0.221
8.13875	0.278
8.17187	0.371
8.20498	0.46
8.23809	0.531
8.2712	0.597
8.30432	0.641
8.33743	0.679
8.37054	0.703
8.40365	0.72
8.43676	0.715
8.46988	0.715
8.50299	0.731
8.5361	0.741
8.56921	0.741
8.60233	0.731
8.63544	0.749
8.66855	0.761
8.70166	0.765
8.73477	0.777
8.76789	0.778
8.801	0.778
8.83411	0.782
8.86722	0.782
8.90034	0.782
8.93345	0.781
8.96656	0.777
8.99967	0.762
9.03278	0.761
9.0659	0.761
9.09901	0.758
9.13212	0.747
9.16523	0.731
9.19834	0.653
9.23146	0.641
9.26457	0.632
9.29768	0.531
9.33079	0.43
9.36391	0.432
9.39702	0.488
9.43013	0.587
9.46324	0.653
9.49635	0.701
9.52947	0.719
9.56258	0.703
9.59569	0.7
9.6288	0.721
9.66192	0.748
9.69503	0.696
9.72814	0.601
9.76125	0.641
9.79436	0.683
9.82748	0.721
9.86059	0.761
9.8937	0.78
9.92681	0.794
9.95993	0.8
9.99304	0.792
10.0261	0.76
10.0593	0.785
10.0924	0.798
10.1255	0.808
10.1586	0.809
10.1917	0.809
10.2248	0.81
10.2579	0.809
10.291	0.809
10.3242	0.802
10.3573	0.801
10.3904	0.808
10.4235	0.801
10.4566	0.789
10.4897	0.756
10.5228	0.735
10.5559	0.75
10.5891	0.786
10.6222	0.801
10.6553	0.82
10.6884	0.822
10.7215	0.828
10.7546	0.828
10.7877	0.826
10.8208	0.828
10.854	0.821
10.8871	0.813
10.9202	0.801
10.9533	0.798
10.9864	0.792
11.0195	0.788
11.0526	0.79
11.0857	0.808
11.1189	0.813
11.152	0.817
11.1851	0.816
11.2182	0.813
11.2513	0.812
11.2844	0.814
11.3175	0.828
11.3506	0.837
11.3837	0.842
11.4169	0.846
11.45	0.845
11.4831	0.846
11.5162	0.849
11.5493	0.849
11.5824	0.85
11.6155	0.849
11.6486	0.849
11.6818	0.841
11.7149	0.829
11.748	0.806
11.7811	0.798
11.8142	0.772
11.8473	0.762
11.8804	0.765
11.9135	0.778
11.9467	0.802
11.9798	0.813
12.0129	0.828
12.046	0.834
12.0791	0.84
12.1122	0.844
12.1453	0.846
12.1784	0.842
12.2116	0.841
12.2447	0.852
12.2778	0.856
12.3109	0.861
12.344	0.86
12.3771	0.86
12.4102	0.857
12.4433	0.857
12.4765	0.856
12.5096	0.856
12.5427	0.866
12.5758	0.874
12.6089	0.873
12.642	0.868
12.6751	0.862
12.7082	0.86
12.7413	0.848
12.7745	0.837
12.8076	0.822
12.8407	0.788
12.8738	0.75
12.9069	0.708
12.94	0.705
12.9731	0.717
13.0062	0.74
13.0394	0.75
13.0725	0.75
13.1056	0.721
13.1387	0.689
13.1718	0.621
13.2049	0.559
13.238	0.56
13.2711	0.628
13.3043	0.663
13.3374	0.688
13.3705	0.691
13.4036	0.692
13.4367	0.688
13.4698	0.685
13.5029	0.687
13.536	0.689
13.5692	0.696
13.6023	0.7
13.6354	0.712
13.6685	0.724
13.7016	0.736
13.7347	0.74
13.7678	0.752
13.8009	0.768
13.8341	0.77
13.8672	0.773
13.9003	0.782
13.9334	0.789
13.9665	0.792
13.9996	0.792
14.0327	0.789
14.0658	0.785
14.0989	0.781
14.1321	0.772
14.1652	0.758
14.1983	0.747
14.2314	0.732
14.2645	0.717
14.2976	0.697
14.3307	0.677
14.3638	0.665
14.397	0.661
14.4301	0.667
14.4632	0.687
14.4963	0.709
14.5294	0.733
14.5625	0.774
14.5956	0.79
14.6287	0.804
14.6619	0.806
14.695	0.802
14.7281	0.804
14.7612	0.804
14.7943	0.804
14.8274	0.802
14.8605	0.801
14.8936	0.793
14.9268	0.788
14.9599	0.801
14.993	0.809
