Infrared Spectrum: 2-PYRAZINECARBOXAMIDE, 3-HYDROXY-
Formula: C5 H5 N3 O2
CAS: 55321-99-8
State: SOLID (0.5 mg / 650 mg, KBr DISC)
Class: COBLENTZ III
Instrument: PERKIN-ELMER 21 (GRATING)
Instrument parameters: FILTER CHANGE AT ABOUT 1085 CM^-^1
Sampling: TRANSMISSION
Resolution: 2
Origin: SOUTHERN RESEARCH INSTITUTE
1/CM	TRANSMITTANCE
721.225	0.955
730.383	0.86
739.541	0.984
748.698	0.9812
757.856	0.9521
767.014	0.9245
776.172	0.9172
785.33	0.9012
794.487	0.8758
803.645	0.8449
812.803	0.7745
821.961	0.5557
831.119	0.836
840.276	0.8326
849.434	0.8088
858.592	0.7311
867.75	0.7722
876.908	0.8281
886.065	0.829
895.223	0.8079
904.381	0.7855
913.539	0.7735
922.697	0.7422
931.855	0.7073
941.012	0.6754
950.17	0.6709
959.328	0.7061
968.486	0.7695
977.644	0.8276
986.801	0.8267
995.959	0.8155
1005.12	0.7918
1014.27	0.778
1023.43	0.7822
1032.59	0.7961
1041.75	0.805
1050.91	0.804
1060.06	0.7919
1069.22	0.7458
1078.38	0.6803
1087.54	0.743
1096.7	0.7351
1105.85	0.744
1115.01	0.7563
1124.17	0.7344
1133.33	0.6987
1142.48	0.6801
1151.64	0.6087
1160.8	0.3806
1169.96	0.5054
1179.12	0.6372
1188.27	0.529
1197.43	0.3211
1206.59	0.4156
1215.75	0.548
1224.9	0.692
1234.06	0.7488
1243.22	0.7486
1252.38	0.6994
1261.54	0.6489
1270.69	0.67
1279.85	0.545
1289.01	0.6767
1298.17	0.7389
1307.32	0.7885
1316.48	0.838
1325.64	0.8296
1334.8	0.8307
1343.96	0.856
1353.11	0.8561
1362.27	0.8315
1371.43	0.8073
1380.59	0.7718
1389.74	0.7374
1398.9	0.7042
1408.06	0.6128
1417.22	0.5177
1426.38	0.5648
1435.53	0.6629
1444.69	0.6193
1453.85	0.5499
1463.01	0.4151
1472.17	0.2731
1481.32	0.2613
1490.48	0.3157
1499.64	0.4554
1508.8	0.4492
1517.95	0.5487
1527.11	0.6569
1536.27	0.695
1545.43	0.7255
1554.59	0.735
1563.74	0.7319
1572.9	0.7226
1582.06	0.6698
1591.22	0.6024
1600.37	0.4869
1609.53	0.5366
1618.69	0.4771
1627.85	0.3066
1637.01	0.4126
1646.16	0.424
1655.32	0.4774
1664.48	0.5203
1673.64	0.536
1682.79	0.538
1691.95	0.538
1701.11	0.5306
1710.27	0.505
1719.43	0.4024
1728.58	0.269
1737.74	0.1388
1746.9	0.1782
1756.06	0.3286
1765.21	0.5038
1774.37	0.7088
1783.53	0.781
1792.69	0.8001
1801.85	0.8306
1811	0.862
1820.16	0.879
1829.32	0.879
1838.48	0.888
1847.64	0.887
1856.79	0.884
1865.95	0.882
1875.11	0.886
1884.27	0.887
1893.42	0.8732
1902.58	0.8714
1911.74	0.8765
1920.9	0.8737
1930.06	0.876
1939.21	0.882
1948.37	0.8783
1957.53	0.8634
1966.69	0.8624
1975.84	0.862
1985	0.8616
1994.16	0.8668
2003.32	0.8655
2012.48	0.8525
2021.63	0.8571
2030.79	0.8605
2039.95	0.8605
2049.11	0.867
2058.26	0.871
2067.42	0.874
2076.58	0.879
2085.74	0.882
2094.9	0.8851
2104.05	0.887
2113.21	0.8849
2122.37	0.879
2131.53	0.883
2140.68	0.886
2149.84	0.886
2159	0.883
2168.16	0.883
2177.32	0.883
2186.47	0.883
2195.63	0.887
2204.79	0.8814
2213.95	0.8745
2223.11	0.873
2232.26	0.873
2241.42	0.873
2250.58	0.873
2259.74	0.875
2268.89	0.879
2278.05	0.8769
2287.21	0.8719
2296.37	0.867
2305.53	0.867
2314.68	0.8625
2323.84	0.8519
2333	0.848
2342.16	0.847
2351.31	0.845
2360.47	0.843
2369.63	0.843
2378.79	0.839
2387.95	0.8355
2397.1	0.83
2406.26	0.822
2415.42	0.821
2424.58	0.818
2433.73	0.814
2442.89	0.808
2452.05	0.7995
2461.21	0.7875
2470.37	0.783
2479.52	0.784
2488.68	0.7785
2497.84	0.7695
2507	0.762
2516.15	0.756
2525.31	0.7484
2534.47	0.7324
2543.63	0.7229
2552.79	0.7189
2561.94	0.708
2571.1	0.7035
2580.26	0.6989
2589.42	0.6995
2598.58	0.695
2607.73	0.689
2616.89	0.678
2626.05	0.665
2635.21	0.6529
2644.36	0.642
2653.52	0.626
2662.68	0.6195
2671.84	0.621
2681	0.625
2690.15	0.628
2699.31	0.626
2708.47	0.6184
2717.63	0.613
2726.78	0.601
2735.94	0.5895
2745.1	0.5921
2754.26	0.5905
2763.42	0.5834
2772.57	0.5761
2781.73	0.588
2790.89	0.5895
2800.05	0.59
2809.2	0.59
2818.36	0.5824
2827.52	0.5779
2836.68	0.573
2845.84	0.5741
2854.99	0.5805
2864.15	0.5815
2873.31	0.585
2882.47	0.582
2891.62	0.581
2900.78	0.582
2909.94	0.581
2919.1	0.576
2928.26	0.572
2937.41	0.576
2946.57	0.58
2955.73	0.586
2964.89	0.588
2974.05	0.5921
2983.2	0.601
2992.36	0.611
3001.52	0.616
3010.68	0.6155
3019.83	0.6155
3028.99	0.6105
3038.15	0.6065
3047.31	0.601
3056.47	0.593
3065.62	0.593
3074.78	0.6025
3083.94	0.6075
3093.1	0.616
3102.25	0.6245
3111.41	0.6381
3120.57	0.6531
3129.73	0.6707
3138.89	0.6897
3148.04	0.7106
3157.2	0.7295
3166.36	0.734
3175.52	0.7395
3184.67	0.7555
3193.83	0.761
3202.99	0.7595
3212.15	0.76
3221.31	0.765
3230.46	0.7645
3239.62	0.7615
3248.78	0.768
3257.94	0.769
3267.09	0.7735
3276.25	0.7801
3285.41	0.7825
3294.57	0.784
3303.73	0.783
3312.88	0.7799
3322.04	0.774
3331.2	0.774
3340.36	0.7745
3349.52	0.7725
3358.67	0.766
3367.83	0.7605
3376.99	0.756
3386.15	0.7539
3395.3	0.7449
3404.46	0.7409
3413.62	0.7385
3422.78	0.7359
3431.94	0.731
3441.09	0.735
3450.25	0.735
3459.41	0.7319
3468.57	0.729
3477.72	0.7416
3486.88	0.7505
3496.04	0.7581
3505.2	0.765
3514.36	0.778
3523.51	0.7815
3532.67	0.787
3541.83	0.7945
3550.99	0.797
3560.14	0.8045
3569.3	0.8125
3578.46	0.8251
3587.62	0.8345
3596.78	0.853
3605.93	0.8605
3615.09	0.8665
3624.25	0.8735
3633.41	0.8811
3642.56	0.8915
3651.72	0.896
3660.88	0.898
3670.04	0.902
3679.2	0.9095
3688.35	0.913
3697.51	0.913
3706.67	0.913
3715.83	0.915
3724.99	0.9211
3734.14	0.926
3743.3	0.9275
3752.46	0.93
3761.62	0.927
3770.77	0.9265
3779.93	0.924
3789.09	0.92
3798.25	0.9195
3807.41	0.918
3816.56	0.918
3825.72	0.9175
3834.88	0.917
3844.04	0.917
3853.19	0.917
3862.35	0.915
3871.51	0.9135
3880.67	0.913
3889.83	0.917
3898.98	0.9211
3908.14	0.924
3917.3	0.924
3926.46	0.9225
3935.61	0.9185
3944.77	0.914
3953.93	0.913
3963.09	0.918
3972.25	0.9159
3981.4	0.913
3990.56	0.913
3999.72	0.9161
4008.88	0.917
