Infrared Spectrum: Phenyl vinyl sulfone
Formula: C 8 H 8 O 2 S
CAS: 5535-48-8
State: gas
Instrument: HP-GC/MS/IRD
Origin: NIST Mass Spectrometry Data Center
1/CM	ABSORBANCE
550	0.001248
562	0.0026712
574	0.0013956
586	0.0007404
598	0.0004632
610	0.000702
622	0.0012972
634	0.002364
646	0.0027204
658	0.0012876
670	0.0011148
682	0.0024
694	0.0041964
706	0.0028428
718	0.001572
730	0.0050616
742	0.0083448
754	0.0045804
766	0.0042156
778	0.00156
790	0.000576
802	0.000288
814	8.88e-05
826	4.92e-05
838	3.84e-05
850	7.2e-06
862	7.92e-05
874	7.44e-05
886	4.44e-05
898	8.52e-05
910	6.96e-05
922	0.0001428
934	0.000252
946	0.0005772
958	0.0014712
970	0.0024504
982	0.0010512
994	0.000408
1006	0.000354
1018	0.0004212
1030	0.0003888
1042	0.0002124
1054	0.000252
1066	0.0005112
1078	0.0012144
1090	0.0022008
1102	0.0012684
1114	0.00048
1126	0.0005412
1138	0.001818
1150	0.0075444
1162	0.012
1174	0.0047244
1186	0.0009804
1198	0.0003324
1210	0.0001836
1222	0.0001884
1234	0.000234
1246	0.000468
1258	0.0006972
1270	0.0006276
1282	0.0006312
1294	0.0006576
1306	0.0010056
1318	0.001896
1330	0.0042372
1342	0.008046
1354	0.0079284
1366	0.002958
1378	0.0012252
1390	0.001128
1402	0.0006192
1414	0.000348
1426	0.0003684
1438	0.0008424
1450	0.0011016
1462	0.000522
1474	0.0003252
1486	0.000288
1498	0.000144
1510	7.32e-05
1522	7.2e-05
1534	6.48e-05
1546	4.2e-05
1558	5.4e-05
1570	0.000102
1582	0.0001404
1594	0.0001776
1606	0.000132
1618	0.0001164
1630	7.44e-05
1642	7.8e-05
1654	5.76e-05
1666	6.6e-05
1678	8.76e-05
1690	9e-05
1702	2.4e-05
1714	3.6e-05
1726	4.32e-05
1738	5.88e-05
1750	6.36e-05
1762	9.96e-05
1774	0.0001116
1786	9.96e-05
1798	0.00015
1810	0.0001824
1822	0.0001164
1834	7.32e-05
1846	7.2e-05
1858	0.0001032
1870	8.52e-05
1882	0.00012
1894	0.0001728
1906	0.000216
1918	0.0002268
1930	0.0002412
1942	0.000228
1954	0.0001944
1966	0.0001824
1978	0.00012
1990	6.12e-05
2002	3.12e-05
2014	4.8e-05
2026	7.56e-05
2038	3e-05
2050	4.92e-05
2062	4.44e-05
2074	6.72e-05
2086	4.08e-05
2098	3.6e-05
2110	4.44e-05
2122	3.72e-05
2134	3.48e-05
2146	6e-05
2158	7.8e-05
2170	7.68e-05
2182	4.08e-05
2194	2.64e-05
2206	7.2e-06
2218	4.92e-05
2230	4.8e-05
2242	8.52e-05
2254	0.0001128
2266	7.44e-05
2278	7.08e-05
2290	7.08e-05
2302	4.68e-05
2314	0.000102
2326	9.36e-05
2338	6.6e-05
2350	5.16e-05
2362	7.44e-05
2374	5.76e-05
2386	8.76e-05
2398	5.88e-05
2410	7.44e-05
2422	7.32e-05
2434	8.4e-05
2446	7.44e-05
2458	8.76e-05
2470	9.48e-05
2482	9.84e-05
2494	0.0001116
2506	8.28e-05
2518	8.76e-05
2530	7.8e-05
2542	6.6e-05
2554	4.08e-05
2566	9.84e-05
2578	9.6e-05
2590	0.0001152
2602	0.0001176
2614	0.0001344
2626	7.92e-05
2638	7.92e-05
2650	4.92e-05
2662	0.0001212
2674	0.0001332
2686	6.84e-05
2698	9.6e-05
2710	9.36e-05
2722	8.64e-05
2734	0.0001596
2746	0.0001152
2758	7.44e-05
2770	6.84e-05
2782	0.0001104
2794	9e-05
2806	0.0001032
2818	5.4e-05
2830	7.92e-05
2842	9.36e-05
2854	9.6e-05
2866	8.28e-05
2878	0.0001128
2890	0.0001344
2902	0.0001008
2914	0.0001236
2926	0.0001368
2938	9.48e-05
2950	0.0001092
2962	0.0001692
2974	0.000144
2986	0.0001368
2998	0.0001788
3010	0.0002976
3022	0.0004572
3034	0.0004824
3046	0.0003552
3058	0.0006336
3070	0.0013764
3082	0.0013296
3094	0.0006228
3106	0.0003828
3118	0.0001944
3130	0.0001188
3142	0.00015
3154	0.00015
3166	0.0001668
3178	0.000186
3190	0.0001104
3202	0.000114
3214	9.12e-05
3226	0.0001524
3238	9.96e-05
3250	0.0001284
3262	9.36e-05
3274	7.2e-05
3286	8.88e-05
3298	0.0001248
3310	0.0001008
3322	0.0001164
3334	7.08e-05
3346	6.36e-05
3358	0.0001272
3370	8.64e-05
3382	8.88e-05
3394	8.76e-05
3406	0.0001236
3418	5.52e-05
3430	3.96e-05
3442	5.52e-05
3454	8.52e-05
3466	9.6e-06
3478	6.84e-05
3490	3.72e-05
3502	3.72e-05
3514	8.88e-05
3526	5.88e-05
3538	5.4e-05
3550	7.92e-05
3562	7.92e-05
3574	3.6e-05
3586	3.72e-05
3598	0.0001212
3610	7.2e-05
3622	9.36e-05
3634	9e-05
3646	8.64e-05
3658	4.2e-05
3670	5.16e-05
3682	6.12e-05
3694	4.56e-05
3706	7.56e-05
3718	7.08e-05
3730	0.0001092
3742	0.0001212
3754	0.0001188
3766	9.24e-05
3778	4.92e-05
3790	0.0001176
3802	0.0001416
3814	0.0001068
3826	7.2e-05
3838	9.36e-05
