Infrared Spectrum: 1-Ethynylcyclooctanol
Formula: C 10 H 16 O
CAS: 55373-76-7
State: gas
Origin: EPA-IR VAPOR PHASE LIBRARY
1/CM	ABSORBANCE
549.8	0.011012
559.445	0.008832
569.09	0.007092
578.734	0.006672
588.379	0.005692
598.024	0.005292
607.669	0.008892
617.313	0.029432
626.958	0.072552
636.603	0.082662
646.248	0.084572
655.893	0.071862
665.537	0.031012
675.182	0.008822
684.827	0.003582
694.472	0.002862
704.116	0.002892
713.761	0.003202
723.406	0.004722
733.051	0.007092
742.695	0.008522
752.34	0.006572
761.985	0.006092
771.63	0.006482
781.275	0.007542
790.919	0.009122
800.564	0.010112
810.209	0.008792
819.854	0.007332
829.498	0.006192
839.143	0.007502
848.788	0.008242
858.433	0.008722
868.078	0.010002
877.722	0.011432
887.367	0.014372
897.012	0.016222
906.657	0.014072
916.301	0.009262
925.946	0.007772
935.591	0.009162
945.236	0.013012
954.88	0.017782
964.525	0.026692
974.17	0.042402
983.815	0.053312
993.46	0.055392
1003.1	0.056492
1012.75	0.044192
1022.39	0.025722
1032.04	0.020732
1041.68	0.032502
1051.33	0.050512
1060.97	0.051892
1070.62	0.036452
1080.26	0.025272
1089.91	0.023602
1099.55	0.021182
1109.2	0.020182
1118.84	0.018802
1128.49	0.024652
1138.13	0.025662
1147.78	0.021592
1157.42	0.016332
1167.07	0.013302
1176.71	0.013142
1186.36	0.013282
1196	0.016022
1205.64	0.017022
1215.29	0.018902
1224.93	0.027542
1234.58	0.034702
1244.22	0.049222
1253.87	0.060482
1263.51	0.049312
1273.16	0.033532
1282.8	0.029142
1292.45	0.028492
1302.09	0.031092
1311.74	0.033462
1321.38	0.031692
1331.03	0.027752
1340.67	0.023082
1350.32	0.021882
1359.96	0.023142
1369.61	0.022322
1379.25	0.018522
1388.9	0.013512
1398.54	0.009972
1408.18	0.008602
1417.83	0.008772
1427.47	0.013742
1437.12	0.027392
1446.76	0.043822
1456.41	0.044052
1466.05	0.037992
1475.7	0.034112
1485.34	0.021372
1494.99	0.009542
1504.63	0.004912
1514.28	0.002992
1523.92	0.002442
1533.57	0.001962
1543.21	0.001872
1552.86	0.0013671
1562.5	0.0012244
1572.15	0.0013445
1581.79	0.0010677
1591.44	0.0008219
1601.08	0.00057543
1610.73	0.0007032
1620.37	0.0006846
1630.01	0.0008715
1639.66	0.0006493
1649.3	0.00048916
1658.95	0.0004057
1668.59	0.0004634
1678.24	0.0004684
1687.88	0.000103
1697.53	0.000179
1707.17	0.0004088
1716.82	0.000331
1726.46	0.00035
1736.11	0.000195
1745.75	0.000343
1755.4	0.00019
1765.04	0.000305
1774.69	0.000236
1784.33	0.000224
1793.98	0.0003924
1803.62	0.00034
1813.27	0.000348
1822.91	0.000271
1832.55	0.000437
1842.2	0.000358
1851.84	0.000319
1861.49	0.0004643
1871.13	0.0006201
1880.78	0.000375
1890.42	0.00050968
1900.07	0.00058387
1909.71	0.00056772
1919.36	0.0006286
1929	0.0004762
1938.65	0.000315
1948.29	0.0004479
1957.94	0.000377
1967.58	0.000359
1977.23	0.0006889
1986.87	0.0007703
1996.52	0.0004097
2006.16	0.000321
2015.81	0.0004638
2025.45	0.0004819
2035.1	0.0006645
2044.74	0.000231
2054.38	0.0005257
2064.03	0.0005744
2073.67	0.000496017
2083.32	0.0006574
2092.96	0.0010532
2102.61	0.0011541
2112.25	0.0013536
2121.9	0.0009958
2131.54	0.0007691
2141.19	0.0007567
2150.83	0.0007517
2160.48	0.0006992
2170.12	0.0006686
2179.77	0.00058138
2189.41	0.00056791
2199.06	0.000946
2208.7	0.00051889
2218.35	0.0007629
2227.99	0.0009064
2237.64	0.000921
2247.28	0.0006732
2256.92	0.0009409
2266.57	0.0008377
2276.21	0.0008556
2285.86	0.0007808
2295.5	0.0008721
2305.15	0.0008068
2314.79	0.0006347
2324.44	0.0006885
2334.08	0.000868
2343.73	0.0009163
2353.37	0.0007494
2363.02	0.0007494
2372.66	0.0006403
2382.31	0.0006362
2391.95	0.0004442
2401.6	0.0006789
2411.24	0.000964
2420.89	0.0006507
2430.53	0.000778
2440.18	0.0009448
2449.82	0.0008805
2459.47	0.0010171
2469.11	0.0005497
2478.75	0.0006726
2488.4	0.0007906
2498.04	0.0009425
2507.69	0.0009772
2517.33	0.00056898
2526.98	0.0006809
2536.62	0.0008832
2546.27	0.0011246
2555.91	0.0012956
2565.56	0.001662
2575.2	0.001682
2584.85	0.0014676
2594.49	0.001722
2604.14	0.001742
2613.78	0.001982
2623.43	0.002102
2633.07	0.002292
2642.72	0.002412
2652.36	0.002632
2662.01	0.003612
2671.65	0.004262
2681.29	0.005322
2690.94	0.006232
2700.58	0.006792
2710.23	0.005652
2719.87	0.004662
2729.52	0.004222
2739.16	0.003242
2748.81	0.003082
2758.45	0.002982
2768.1	0.003182
2777.74	0.004202
2787.39	0.004672
2797.03	0.005912
2806.68	0.007392
2816.32	0.008382
2825.97	0.010192
2835.61	0.013742
2845.26	0.028632
2854.9	0.063402
2864.55	0.086382
2874.19	0.076812
2883.84	0.062652
2893.48	0.065872
2903.12	0.096112
2912.77	0.160352
2922.41	0.276872
2932.06	0.365182
2941.7	0.304482
2951.35	0.180042
2960.99	0.114322
2970.64	0.075092
2980.28	0.037722
2989.93	0.018082
2999.57	0.010302
3009.22	0.006612
3018.86	0.004652
3028.51	0.003432
3038.15	0.002922
3047.8	0.002822
3057.44	0.002302
3067.09	0.001952
3076.73	0.001852
3086.38	0.0013312
3096.02	0.0014551
3105.67	0.0014051
3115.31	0.0012262
3124.95	0.0012552
3134.6	0.0007441
3144.24	0.0011204
3153.89	0.001612
3163.53	0.0012334
3173.18	0.0011019
3182.82	0.001642
3192.47	0.0009528
3202.11	0.0012395
3211.76	0.0014917
3221.4	0.0009757
3231.05	0.0010408
3240.69	0.0013785
3250.34	0.0013276
3259.98	0.002392
3269.63	0.004072
3279.27	0.007102
3288.92	0.011822
3298.56	0.023422
3308.21	0.034702
3317.85	0.063702
3327.49	0.065302
3337.14	0.023962
3346.78	0.007592
3356.43	0.004172
3366.07	0.002732
3375.72	0.002062
3385.36	0.002562
3395.01	0.001612
3404.65	0.001502
3414.3	0.001502
3423.94	0.0012997
3433.59	0.0011243
3443.23	0.000841
3452.88	0.0010423
3462.52	0.0009461
3472.17	0.0010959
3481.81	0.0006393
3491.46	0.0009753
3501.1	0.0007988
3510.75	0.0004223
3520.39	0.000304
3530.04	0.000229
3539.68	0.000169
3549.32	0.000263
3558.97	0.0012588
3568.61	0.0007176
3578.26	0.000356
3587.9	0.0009023
3597.55	0.0008625
3607.19	0.001902
3616.84	0.004612
3626.48	0.018272
3636.13	0.032892
3645.77	0.020622
3655.42	0.005202
3665.06	0.002232
3674.71	0.0013043
3684.35	0.0011214
3694	0.000636
3703.64	0.0006418
3713.29	0.0009057
3722.93	0.0006725
3732.58	0.0006382
3742.22	0.0004828
3751.86	0.0008816
3761.51	0.00054808
3771.15	0.0014541
3780.8	0.001582
3790.44	0.0008375
3800.09	0.0007514
3809.73	0.0009897
3819.38	0.001185
3829.02	0.0007631
3838.67	0.000829
3848.31	0.000984
3857.96	0.000377
3867.6	0.0013353
3877.25	0.001306
3886.89	0.0011082
3896.54	0.001582
3906.18	0.001522
3915.83	0.0007888
3925.47	0.0013682
3935.12	0.001862
3944.76	0.0014013
3954.41	0.0010868
3964.05	0.0006931
3973.69	0.00102
3983.34	0.0005906
3992.98	0.000374
