Infrared Spectrum: ADIPIC ACID, DI-P-TOLYL ESTER
Formula: C20 H22 O4
CAS: 5538-18-1
State: SOLID (KBr PELLET)
Class: COBLENTZ
Instrument: Not specified, most likely a prism, grating, or hybrid spectrometer.
Sampling: TRANSMISSION
Resolution: 4
Origin: TENNESSEE EASTMAN COMPANY, RESEARCH LABORATORIES
MICROMETERS	TRANSMITTANCE
2.021	0.672
2.06218	0.702
2.10336	0.721
2.14454	0.729
2.18572	0.74
2.22691	0.743
2.26809	0.753
2.30927	0.76
2.35045	0.771
2.39163	0.783
2.43281	0.79
2.47399	0.793
2.51517	0.8
2.55636	0.803
2.59754	0.805
2.63872	0.808
2.6799	0.81
2.72108	0.819
2.76226	0.819
2.80344	0.81
2.84462	0.786
2.88581	0.774
2.92699	0.771
2.96817	0.779
3.00935	0.807
3.05053	0.824
3.09171	0.838
3.13289	0.848
3.17407	0.858
3.21526	0.865
3.25644	0.87
3.29762	0.869
3.3388	0.864
3.37998	0.836
3.42116	0.795
3.46234	0.857
3.50352	0.874
3.54471	0.903
3.58589	0.912
3.62707	0.919
3.66825	0.919
3.70943	0.92
3.75061	0.922
3.79179	0.924
3.83297	0.927
3.87416	0.931
3.91534	0.929
3.95652	0.932
3.9977	0.934
4.03888	0.936
4.08006	0.938
4.12124	0.939
4.16242	0.941
4.20361	0.943
4.24479	0.943
4.28597	0.934
4.32715	0.931
4.36833	0.932
4.40951	0.943
4.45069	0.944
4.49187	0.948
4.53305	0.95
4.57424	0.951
4.61542	0.951
4.6566	0.953
4.69778	0.953
4.73896	0.955
4.78014	0.953
4.82132	0.953
4.8625	0.953
4.90369	0.953
4.94487	0.953
4.98605	0.955
5.02723	0.962
5.06841	0.958
5.10959	0.958
5.15077	0.958
5.19195	0.96
5.23314	0.946
5.27432	0.948
5.3155	0.951
5.35668	0.951
5.39786	0.955
5.43904	0.946
5.48022	0.943
5.5214	0.944
5.56259	0.932
5.60377	0.896
5.64495	0.688
5.68613	0.213
5.72731	0.784
5.76849	0.874
5.80967	0.905
5.85085	0.907
5.89204	0.917
5.93322	0.924
5.9744	0.922
6.01558	0.922
6.05676	0.922
6.09794	0.915
6.13912	0.917
6.1803	0.917
6.22149	0.912
6.26267	0.903
6.30385	0.927
6.34503	0.944
6.38621	0.944
6.42739	0.938
6.46857	0.939
6.50975	0.925
6.55094	0.91
6.59212	0.795
6.6333	0.537
6.67448	0.869
6.71566	0.905
6.75684	0.919
6.79802	0.865
6.8392	0.846
6.88038	0.888
6.92157	0.905
6.96275	0.91
7.00393	0.853
7.04511	0.807
7.08629	0.901
7.12747	0.913
7.16865	0.901
7.20983	0.845
7.25102	0.671
7.2922	0.617
7.33338	0.772
7.37456	0.888
7.41574	0.924
7.45692	0.939
7.4981	0.941
7.53928	0.944
7.58047	0.944
7.62165	0.943
7.66283	0.943
7.70401	0.932
7.74519	0.936
7.78637	0.938
7.82755	0.924
7.86873	0.901
7.90992	0.838
7.9511	0.719
7.99228	0.418
8.03346	0.678
8.07464	0.845
8.11582	0.881
8.157	0.882
8.19818	0.836
8.23937	0.79
8.28055	0.791
8.32173	0.567
8.36291	0.192
8.40409	0.38
8.44527	0.7
8.48645	0.759
8.52763	0.688
8.56882	0.371
8.61	0.681
8.65118	0.771
8.69236	0.64
8.73354	0.492
8.77472	0.352
8.8159	0.125
8.85708	0.099
8.89827	0.289
8.93945	0.499
8.98063	0.616
9.02181	0.671
9.06299	0.7
9.10417	0.802
9.14535	0.845
9.18653	0.862
9.22771	0.869
9.2689	0.872
9.31008	0.877
9.35126	0.889
9.39244	0.895
9.43362	0.895
9.4748	0.895
9.51598	0.895
9.55716	0.884
9.59835	0.864
9.63953	0.841
9.68071	0.862
9.72189	0.882
9.76307	0.888
9.80425	0.814
9.84543	0.776
9.88661	0.886
9.9278	0.905
9.96898	0.915
10.0102	0.922
10.0513	0.927
10.0925	0.927
10.1337	0.924
10.1749	0.927
10.2161	0.934
10.2572	0.931
10.2984	0.927
10.3396	0.927
10.3808	0.924
10.422	0.891
10.4632	0.815
10.5043	0.855
10.5455	0.893
10.5867	0.912
10.6279	0.931
10.6691	0.932
10.7102	0.936
10.7514	0.936
10.7926	0.932
10.8338	0.838
10.875	0.724
10.9161	0.857
10.9573	0.888
10.9985	0.893
11.0397	0.912
11.0809	0.936
11.1221	0.946
11.1632	0.956
11.2044	0.962
11.2456	0.962
11.2868	0.962
11.328	0.962
11.3691	0.96
11.4103	0.96
11.4515	0.96
11.4927	0.96
11.5339	0.96
11.575	0.96
11.6162	0.932
11.6574	0.938
11.6986	0.934
11.7398	0.924
11.781	0.903
11.8221	0.877
11.8633	0.857
11.9045	0.843
11.9457	0.824
11.9869	0.786
12.028	0.767
12.0692	0.772
12.1104	0.803
12.1516	0.777
12.1928	0.674
12.2339	0.709
12.2751	0.831
12.3163	0.879
12.3575	0.915
12.3987	0.924
12.4399	0.931
12.481	0.932
12.5222	0.938
12.5634	0.944
12.6046	0.946
12.6458	0.948
12.6869	0.95
12.7281	0.953
12.7693	0.953
12.8105	0.955
12.8517	0.955
12.8928	0.955
12.934	0.956
12.9752	0.956
13.0164	0.958
13.0576	0.96
13.0988	0.963
13.1399	0.955
13.1811	0.915
13.2223	0.884
13.2635	0.915
13.3047	0.95
13.3458	0.969
13.387	0.972
13.4282	0.977
13.4694	0.977
13.5106	0.975
13.5517	0.963
13.5929	0.948
13.6341	0.95
13.6753	0.955
13.7165	0.962
13.7577	0.969
13.7988	0.974
13.84	0.981
13.8812	0.986
13.9224	0.993
13.9636	0.996
14.0047	1.001
14.0459	1.001
14.0871	1.003
14.1283	1.003
14.1695	1.003
14.2106	1.003
14.2518	1.005
14.293	1.005
14.3342	1.005
14.3754	1.005
14.4165	1.005
14.4577	1.005
14.4989	1.005
14.5401	1.005
14.5813	1.005
14.6225	1.005
14.6636	1.005
14.7048	1.005
14.746	1.005
14.7872	1.005
14.8284	1.005
14.8695	1.005
14.9107	1.005
14.9519	1
14.9931	0.986
15.0343	0.965
15.0754	0.963
15.1166	0.963
15.1578	0.965
15.199	0.963
15.2402	0.955
15.2814	0.946
15.3225	0.939
15.3637	0.922
15.4049	0.915
15.4461	0.903
15.4873	0.895
15.5284	0.891
15.5696	0.882
15.6108	0.867
15.652	0.853
15.6932	0.845
15.7343	0.836
15.7755	0.827
15.8167	0.815
15.8579	0.8
15.8991	0.791
15.9403	0.779
15.9814	0.772
