Infrared Spectrum: Ethanamine,N,N-diethyl-, hydrochloride
Formula: C6 H16 Cl N
CAS: 554-68-7
State: SOLID (KBr DISC)
Class: COBLENTZ III
Instrument: PERKIN-ELMER 157
Sampling: TRANSMISSION
Resolution: 2
Origin: BRITISH PETROLEUM CO. LTD., ENGLAND
1/CM	TRANSMITTANCE
667	0.9797
676	0.9534
685	0.9345
694	0.9195
703	0.8993
712	0.882
721	0.8748
730	0.8617
739	0.8595
748	0.836
757	0.7885
766	0.779
775	0.8039
784	0.771
793	0.6558
802	0.4445
811	0.1109
820	0.5984
829	0.712
838	0.6864
847	0.5298
856	0.2241
865	0.6684
874	0.762
883	0.7791
892	0.7649
901	0.7391
910	0.7073
919	0.7517
928	0.7441
937	0.7495
946	0.7638
955	0.7661
964	0.7511
973	0.7188
982	0.7013
991	0.6932
1000	0.6596
1009	0.5784
1018	0.4387
1027	0.2273
1036	0.0284
1045	0.0526
1054	0.3128
1063	0.4747
1072	0.2517
1081	0.2328
1090	0.5645
1099	0.6698
1108	0.7003
1117	0.702
1126	0.7013
1135	0.6992
1144	0.6849
1153	0.6229
1162	0.5031
1171	0.0924
1180	0.11
1189	0.252
1198	0.505
1207	0.6266
1216	0.6852
1225	0.6859
1234	0.677
1243	0.6876
1252	0.6852
1261	0.6768
1270	0.6647
1279	0.6507
1288	0.5446
1297	0.5647
1306	0.6017
1315	0.5576
1324	0.4685
1333	0.308
1342	0.3997
1351	0.3752
1360	0.3435
1369	0.189
1378	0.2129
1387	0.0857
1396	0.0434
1405	0.0782
1414	0.4015
1423	0.4323
1432	0.306
1441	0.0805
1450	0.0622
1459	0.1528
1468	0.1081
1477	0.0319
1486	0.0321
1495	0.1455
1504	0.2371
1513	0.3315
1522	0.3516
1531	0.356
1540	0.3599
1549	0.393
1558	0.4198
1567	0.4296
1576	0.4435
1585	0.4802
1594	0.5225
1603	0.5483
1612	0.5616
1621	0.5716
1630	0.5818
1639	0.5895
1648	0.5967
1657	0.6026
1666	0.6055
1675	0.6123
1684	0.6243
1693	0.6317
1702	0.6367
1711	0.6419
1720	0.6433
1729	0.645
1738	0.6577
1747	0.6626
1756	0.6641
1765	0.6666
1774	0.6785
1783	0.6974
1792	0.6994
1801	0.6998
1810	0.6999
1819	0.6999
1828	0.7
1837	0.7001
1846	0.7002
1855	0.6998
1864	0.6992
1873	0.6985
1882	0.6978
1891	0.6977
1900	0.6956
1909	0.6829
1918	0.6654
1927	0.6375
1936	0.645
1945	0.6458
1954	0.6514
1963	0.6652
1972	0.6936
1981	0.6982
1990	0.6972
1999	0.6951
2008	0.692
2017	0.688
2026	0.6828
2035	0.6764
2044	0.6702
2053	0.664
2062	0.6578
2071	0.6524
2080	0.6477
2089	0.642
2098	0.6349
2107	0.6268
2116	0.6238
2125	0.6184
2134	0.5926
2143	0.5623
2152	0.5542
2161	0.5744
2170	0.5779
2179	0.5757
2188	0.5679
2197	0.555
2206	0.5341
2215	0.5113
2224	0.4993
2233	0.4814
2242	0.4366
2251	0.3894
2260	0.3607
2269	0.3593
2278	0.3565
2287	0.3488
2296	0.3392
2305	0.3262
2314	0.3025
2323	0.2661
2332	0.2494
2341	0.2358
2350	0.2175
2359	0.2061
2368	0.2036
2377	0.2031
2386	0.1975
2395	0.1819
2404	0.1377
2413	0.123
2422	0.1033
2431	0.0672
2440	0.0547
2449	0.0406
2458	0.0358
2467	0.0344
2476	0.0336
2485	0.0331
2494	0.0331
2503	0.0342
2512	0.0358
2521	0.0371
2530	0.038
2539	0.0374
2548	0.0365
2557	0.0349
2566	0.033
2575	0.0308
2584	0.0286
2593	0.0274
2602	0.0265
2611	0.0268
2620	0.0271
2629	0.0279
2638	0.029
2647	0.0302
2656	0.0314
2665	0.0329
2674	0.0343
2683	0.037
2692	0.0521
2701	0.0559
2710	0.055
2719	0.052
2728	0.0489
2737	0.0481
2746	0.0525
2755	0.059
2764	0.0645
2773	0.071
2782	0.0885
2791	0.1025
2800	0.126
2809	0.144
2818	0.1617
2827	0.1793
2836	0.1934
2845	0.194
2854	0.1534
2863	0.0527
2872	0.0444
2881	0.0387
2890	0.0365
2899	0.0351
2908	0.0342
2917	0.0338
2926	0.0337
2935	0.0339
2944	0.0347
2953	0.0357
2962	0.0396
2971	0.0468
2980	0.0688
2989	0.0788
2998	0.0915
3007	0.1473
3016	0.1815
3025	0.1945
3034	0.2066
3043	0.21
3052	0.2122
3061	0.2245
3070	0.2434
3079	0.2573
3088	0.2885
3097	0.3041
3106	0.3196
3115	0.3348
3124	0.3501
3133	0.3653
3142	0.3803
3151	0.3869
3160	0.3906
3169	0.3937
3178	0.3955
3187	0.3979
3196	0.4079
3205	0.4201
3214	0.4263
3223	0.4324
3232	0.4392
3241	0.4468
3250	0.4519
3259	0.4567
3268	0.4598
3277	0.4614
3286	0.463
3295	0.4627
3304	0.4587
3313	0.4545
3322	0.4514
3331	0.4499
3340	0.4488
3349	0.4472
3358	0.4436
3367	0.4388
3376	0.4351
3385	0.4324
3394	0.4308
3403	0.43
3412	0.43
3421	0.4302
3430	0.4304
3439	0.4307
3448	0.4312
3457	0.4323
3466	0.4352
3475	0.44
3484	0.4446
3493	0.4518
3502	0.4598
3511	0.4707
3520	0.4888
3529	0.5039
3538	0.5147
3547	0.5262
3556	0.5382
3565	0.5471
3574	0.5554
3583	0.5622
3592	0.5689
3601	0.5741
3610	0.5789
3619	0.5836
3628	0.5878
3637	0.592
3646	0.5947
3655	0.5971
3664	0.5989
3673	0.5997
3682	0.6004
3691	0.6005
3700	0.6008
3709	0.6009
3718	0.601
3727	0.6009
3736	0.6009
3745	0.6009
3754	0.6007
3763	0.6006
3772	0.6004
3781	0.6004
3790	0.6002
3799	0.6001
3808	0.6
3817	0.6001
3826	0.6002
3835	0.6004
3844	0.6005
3853	0.6007
3862	0.6007
3871	0.6006
3880	0.6006
3889	0.6006
3898	0.6006
3907	0.6005
3916	0.6004
3925	0.6001
3934	0.5998
3943	0.5996
3952	0.5992
3961	0.5989
3970	0.5982
3979	0.5975
3988	0.5968
3997	0.596
