Infrared Spectrum: 3-METHOXY-4-HYDROXYPHENYLETHYL AMINE
Formula: C9 H13 N O2
CAS: 554-52-9
State: SOLID (1.5 mg / 100 mg KBr PELLET)
Class: COBLENTZ
Instrument: Not specified, most likely a grating spectrometer.
Sampling: TRANSMISSION
Resolution: 4
Origin: CITRUS EXPERIMENT STATION, UNIVERSITY OF FLORIDA (G. EDWARDS)
MICROMETERS	TRANSMITTANCE
2.018	0.708
2.05409	0.711
2.09019	0.714
2.12628	0.721
2.16238	0.722
2.19847	0.728
2.23457	0.732
2.27066	0.742
2.30676	0.746
2.34285	0.759
2.37895	0.762
2.41504	0.771
2.45114	0.779
2.48723	0.784
2.52333	0.792
2.55942	0.801
2.59552	0.814
2.63161	0.82
2.66771	0.825
2.7038	0.831
2.7399	0.832
2.77599	0.836
2.81209	0.837
2.84818	0.835
2.88428	0.829
2.92037	0.824
2.95647	0.809
2.99256	0.771
3.02866	0.686
3.06475	0.576
3.10085	0.487
3.13694	0.42
3.17304	0.383
3.20913	0.384
3.24523	0.391
3.28132	0.398
3.31741	0.41
3.35351	0.414
3.3896	0.422
3.4257	0.451
3.46179	0.489
3.49789	0.521
3.53398	0.56
3.57008	0.589
3.60617	0.594
3.64227	0.611
3.67836	0.629
3.71446	0.651
3.75055	0.647
3.78665	0.657
3.82274	0.665
3.85884	0.669
3.89493	0.676
3.93103	0.682
3.96712	0.699
4.00322	0.717
4.03931	0.72
4.07541	0.722
4.1115	0.725
4.1476	0.739
4.18369	0.751
4.21979	0.76
4.25588	0.771
4.29198	0.783
4.32807	0.792
4.36417	0.796
4.40026	0.801
4.43636	0.809
4.47245	0.815
4.50854	0.82
4.54464	0.822
4.58073	0.825
4.61683	0.831
4.65292	0.84
4.68902	0.843
4.72511	0.845
4.76121	0.842
4.7973	0.837
4.8334	0.847
4.86949	0.852
4.90559	0.857
4.94168	0.853
4.97778	0.849
5.01387	0.845
5.04997	0.834
5.08606	0.822
5.12216	0.823
5.15825	0.828
5.19435	0.841
5.23044	0.857
5.26654	0.864
5.30263	0.871
5.33873	0.877
5.37482	0.887
5.41092	0.894
5.44701	0.906
5.48311	0.914
5.5192	0.917
5.5553	0.918
5.59139	0.923
5.62749	0.923
5.66358	0.912
5.69968	0.907
5.73577	0.906
5.77186	0.909
5.80796	0.924
5.84405	0.924
5.88015	0.928
5.91624	0.928
5.95234	0.924
5.98843	0.92
6.02453	0.897
6.06062	0.891
6.09672	0.854
6.13281	0.797
6.16891	0.688
6.205	0.605
6.2411	0.59
6.27719	0.722
6.31329	0.783
6.34938	0.822
6.38548	0.756
6.42157	0.705
6.45767	0.541
6.49376	0.519
6.52986	0.57
6.56595	0.601
6.60205	0.562
6.63814	0.51
6.67424	0.479
6.71033	0.493
6.74643	0.521
6.78252	0.541
6.81862	0.587
6.85471	0.636
6.89081	0.638
6.9269	0.618
6.96299	0.659
6.99909	0.73
7.03518	0.771
7.07128	0.768
7.10737	0.731
7.14347	0.721
7.17956	0.704
7.21566	0.674
7.25175	0.572
7.28785	0.553
7.32394	0.622
7.36004	0.707
7.39613	0.761
7.43223	0.779
7.46832	0.74
7.50442	0.684
7.54051	0.744
7.57661	0.777
7.6127	0.72
7.6488	0.642
7.68489	0.715
7.72099	0.738
7.75708	0.694
7.79318	0.636
7.82927	0.564
7.86537	0.615
7.90146	0.663
7.93756	0.598
7.97365	0.464
8.00975	0.382
8.04584	0.455
8.08194	0.589
8.11803	0.654
8.15413	0.652
8.19022	0.569
8.22631	0.513
8.26241	0.6
8.2985	0.608
8.3346	0.638
8.37069	0.693
8.40679	0.722
8.44288	0.732
8.47898	0.725
8.51507	0.657
8.55117	0.541
8.58726	0.427
8.62336	0.376
8.65945	0.41
8.69555	0.481
8.73164	0.595
8.76774	0.663
8.80383	0.665
8.83993	0.556
8.87602	0.489
8.91212	0.589
8.94821	0.653
8.98431	0.681
9.0204	0.674
9.0565	0.644
9.09259	0.68
9.12869	0.726
9.16478	0.755
9.20088	0.778
9.23697	0.789
9.27307	0.797
9.30916	0.807
9.34526	0.823
9.38135	0.83
9.41745	0.831
9.45354	0.834
9.48963	0.825
9.52573	0.802
9.56182	0.692
9.59792	0.515
9.63401	0.464
9.67011	0.53
9.7062	0.61
9.7423	0.668
9.77839	0.71
9.81449	0.737
9.85058	0.761
9.88668	0.777
9.92277	0.784
9.95887	0.791
9.99496	0.8
10.0311	0.817
10.0672	0.826
10.1032	0.838
10.1393	0.847
10.1754	0.853
10.2115	0.851
10.2476	0.822
10.2837	0.783
10.3198	0.791
10.3559	0.828
10.392	0.851
10.4281	0.86
10.4642	0.863
10.5003	0.851
10.5364	0.8
10.5725	0.691
10.6086	0.68
10.6447	0.771
10.6808	0.825
10.7169	0.853
10.753	0.859
10.789	0.841
10.8251	0.772
10.8612	0.673
10.8973	0.702
10.9334	0.771
10.9695	0.823
11.0056	0.855
11.0417	0.875
11.0778	0.895
11.1139	0.903
11.15	0.91
11.1861	0.911
11.2222	0.918
11.2583	0.921
11.2944	0.922
11.3305	0.918
11.3666	0.91
11.4027	0.877
11.4388	0.824
11.4749	0.731
11.5109	0.589
11.547	0.497
11.5831	0.555
11.6192	0.677
11.6553	0.757
11.6914	0.811
11.7275	0.852
11.7636	0.877
11.7997	0.892
11.8358	0.904
11.8719	0.911
11.908	0.917
11.9441	0.92
11.9802	0.918
12.0163	0.904
12.0524	0.871
12.0885	0.814
12.1246	0.722
12.1607	0.594
12.1967	0.514
12.2328	0.532
12.2689	0.535
12.305	0.496
12.3411	0.486
12.3772	0.592
12.4133	0.677
12.4494	0.727
12.4855	0.739
12.5216	0.717
12.5577	0.651
12.5938	0.57
12.6299	0.573
12.666	0.631
12.7021	0.692
12.7382	0.725
12.7743	0.754
12.8104	0.774
12.8465	0.79
12.8826	0.802
12.9186	0.808
12.9547	0.809
12.9908	0.814
13.0269	0.818
13.063	0.811
13.0991	0.806
13.1352	0.805
13.1713	0.806
13.2074	0.805
13.2435	0.802
13.2796	0.796
13.3157	0.784
13.3518	0.766
13.3879	0.744
13.424	0.719
13.4601	0.691
13.4962	0.674
13.5323	0.664
13.5684	0.661
13.6044	0.663
13.6405	0.675
13.6766	0.704
13.7127	0.737
13.7488	0.782
13.7849	0.811
13.821	0.82
13.8571	0.817
13.8932	0.802
13.9293	0.782
13.9654	0.739
14.0015	0.702
14.0376	0.673
14.0737	0.657
14.1098	0.65
14.1459	0.652
14.182	0.657
14.2181	0.664
14.2542	0.667
14.2903	0.676
14.3263	0.687
14.3624	0.699
14.3985	0.704
14.4346	0.709
14.4707	0.707
14.5068	0.707
14.5429	0.714
14.579	0.719
14.6151	0.722
14.6512	0.728
14.6873	0.732
14.7234	0.737
14.7595	0.738
14.7956	0.733
14.8317	0.733
14.8678	0.726
14.9039	0.725
14.94	0.743
14.9761	0.784
