Infrared Spectrum: 3-Methylthiophene-2-carbonitrile
Formula: C 6 H 5 N S
CAS: 55406-13-8
State: gas
Origin: EPA-IR VAPOR PHASE LIBRARY
1/CM	ABSORBANCE
549.8	0.002168
559.445	0.0015679
569.09	0.002398
578.734	0.003148
588.379	0.0010138
598.024	0.002968
607.669	0.003788
617.313	0.004868
626.958	0.003248
636.603	0.002848
646.248	0.001928
655.893	0.002068
665.537	0.002278
675.182	0.0011984
684.827	0.001598
694.472	0.004028
704.116	0.010948
713.761	0.016138
723.406	0.031988
733.051	0.015048
742.695	0.006958
752.34	0.002318
761.985	0.001788
771.63	0.002078
781.275	0.001778
790.919	0.0014091
800.564	0.001828
810.209	0.001068
819.854	0.003928
829.498	0.006588
839.143	0.006878
848.788	0.006478
858.433	0.002968
868.078	0.002528
877.722	0.003358
887.367	0.002118
897.012	0.0015754
906.657	0.002088
916.301	0.002138
925.946	0.003758
935.591	0.005498
945.236	0.004688
954.88	0.002688
964.525	0.002468
974.17	0.002278
983.815	0.003388
993.46	0.003208
1003.1	0.004738
1012.75	0.005048
1022.39	0.004718
1032.04	0.003018
1041.68	0.003208
1051.33	0.002988
1060.97	0.003798
1070.62	0.004418
1080.26	0.003538
1089.91	0.003748
1099.55	0.002318
1109.2	0.001598
1118.84	0.002368
1128.49	0.002198
1138.13	0.002468
1147.78	0.002148
1157.42	0.002438
1167.07	0.003558
1176.71	0.003698
1186.36	0.004688
1196	0.002858
1205.64	0.003718
1215.29	0.0015387
1224.93	0.0012842
1234.58	0.0009775
1244.22	0.0015718
1253.87	0.0014942
1263.51	0.0010716
1273.16	0.0005717
1282.8	0.0009636
1292.45	0.001608
1302.09	0.0011926
1311.74	0.0011778
1321.38	0.001858
1331.03	0.002358
1340.67	0.002548
1350.32	0.002548
1359.96	0.002848
1369.61	0.003618
1379.25	0.004568
1388.9	0.006458
1398.54	0.008698
1408.18	0.009098
1417.83	0.008148
1427.47	0.006238
1437.12	0.006188
1446.76	0.005958
1456.41	0.004378
1466.05	0.003138
1475.7	0.002998
1485.34	0.002998
1494.99	0.003738
1504.63	0.003658
1514.28	0.003898
1523.92	0.004798
1533.57	0.004478
1543.21	0.003528
1552.86	0.002628
1562.5	0.002208
1572.15	0.002168
1581.79	0.002348
1591.44	0.003198
1601.08	0.003058
1610.73	0.002148
1620.37	0.0014256
1630.01	0.0013584
1639.66	0.0014898
1649.3	0.0012386
1658.95	0.0013129
1668.59	0.0012553
1678.24	0.0013607
1687.88	0.0012776
1697.53	0.0011242
1707.17	0.0014374
1716.82	0.0012526
1726.46	0.0012376
1736.11	0.001678
1745.75	0.002178
1755.4	0.002508
1765.04	0.001998
1774.69	0.0013611
1784.33	0.0012656
1793.98	0.0013449
1803.62	0.0012695
1813.27	0.0010442
1822.91	0.0010963
1832.55	0.0015505
1842.2	0.0014167
1851.84	0.0011495
1861.49	0.0013565
1871.13	0.0015324
1880.78	0.0014912
1890.42	0.0013598
1900.07	0.0012417
1909.71	0.0012116
1919.36	0.0013322
1929	0.001516
1938.65	0.0011206
1948.29	0.0013484
1957.94	0.0013156
1967.58	0.0013662
1977.23	0.001608
1986.87	0.0013212
1996.52	0.0012927
2006.16	0.0014422
2015.81	0.0014235
2025.45	0.001364
2035.1	0.0011313
2044.74	0.0011741
2054.38	0.0013369
2064.03	0.0012238
2073.67	0.0014571
2083.32	0.0013617
2092.96	0.0015437
2102.61	0.0013881
2112.25	0.0012286
2121.9	0.0011034
2131.54	0.0013162
2141.19	0.0010124
2150.83	0.001286
2160.48	0.0014255
2170.12	0.001608
2179.77	0.001858
2189.41	0.001678
2199.06	0.003088
2208.7	0.007488
2218.35	0.011828
2227.99	0.011508
2237.64	0.005468
2247.28	0.001818
2256.92	0.001718
2266.57	0.0011265
2276.21	0.0013625
2285.86	0.001365
2295.5	0.0012236
2305.15	0.0014771
2314.79	0.0014267
2324.44	0.001668
2334.08	0.0014245
2343.73	0.001532
2353.37	0.0010878
2363.02	0.0013389
2372.66	0.0012311
2382.31	0.001224
2391.95	0.0012881
2401.6	0.0009623
2411.24	0.0014647
2420.89	0.0013914
2430.53	0.001336
2440.18	0.0013504
2449.82	0.0011383
2459.47	0.001099
2469.11	0.0013026
2478.75	0.0009643
2488.4	0.0009733
2498.04	0.0014257
2507.69	0.0011617
2517.33	0.00121
2526.98	0.0013082
2536.62	0.0012549
2546.27	0.0011324
2555.91	0.001294
2565.56	0.0012948
2575.2	0.0008922
2584.85	0.0014122
2594.49	0.0008266
2604.14	0.0009795
2613.78	0.00119
2623.43	0.0013825
2633.07	0.0013358
2642.72	0.0014141
2652.36	0.0012037
2662.01	0.0014282
2671.65	0.0011289
2681.29	0.0014774
2690.94	0.0013756
2700.58	0.0010911
2710.23	0.0011343
2719.87	0.0009413
2729.52	0.0011419
2739.16	0.0011957
2748.81	0.0012618
2758.45	0.0011354
2768.1	0.000949
2777.74	0.0009599
2787.39	0.0011362
2797.03	0.0011405
2806.68	0.0012762
2816.32	0.002058
2825.97	0.001668
2835.61	0.001898
2845.26	0.0015761
2854.9	0.001958
2864.55	0.002758
2874.19	0.003498
2883.84	0.003058
2893.48	0.003078
2903.12	0.002308
2912.77	0.003448
2922.41	0.004778
2932.06	0.007268
2941.7	0.006848
2951.35	0.005108
2960.99	0.003758
2970.64	0.003268
2980.28	0.003308
2989.93	0.002428
2999.57	0.002198
3009.22	0.002718
3018.86	0.002508
3028.51	0.002368
3038.15	0.002908
3047.8	0.002488
3057.44	0.002448
3067.09	0.002558
3076.73	0.002738
3086.38	0.002428
3096.02	0.002238
3105.67	0.0006884
3115.31	0.001698
3124.95	0.0014744
3134.6	0.0010327
3144.24	0.0012279
3153.89	0.001878
3163.53	0.0014103
3173.18	0.0013284
3182.82	0.0015365
3192.47	0.0010897
3202.11	0.0013912
3211.76	0.001848
3221.4	0.0012009
3231.05	0.0012488
3240.69	0.0011339
3250.34	0.001758
3259.98	0.0013195
3269.63	0.000341
3279.27	0.0009365
3288.92	0.000382
3298.56	0.001668
3308.21	0.0010956
3317.85	0.0009551
3327.49	0.0014434
3337.14	0.0011171
3346.78	0.0012713
3356.43	0.0013983
3366.07	0.001888
3375.72	0.0008659
3385.36	0.0012849
3395.01	0.0014417
3404.65	0.001482
3414.3	0.0009311
3423.94	0.0010603
3433.59	0.001507
3443.23	0.0013078
3452.88	0.0013814
3462.52	0.0012451
3472.17	0.001668
3481.81	0.0009014
3491.46	0.0013306
3501.1	0.0014525
3510.75	0.0008969
3520.39	0.0011833
3530.04	0.0012094
3539.68	0.0014766
3549.32	0.001109
3558.97	0.0012614
3568.61	0.001588
3578.26	0.001888
3587.9	0.001738
3597.55	0.00066778
3607.19	0.0007597
3616.84	0.0007639
3626.48	0.0010429
3636.13	0.0011654
3645.77	0.0011668
3655.42	0.0012366
3665.06	0.001011
3674.71	0.0009755
3684.35	0.001778
3694	0.0012711
3703.64	0.0014113
3713.29	0.001618
3722.93	0.0014527
3732.58	0.0012351
3742.22	0.0011471
3751.86	0.0007938
3761.51	0.0012798
3771.15	0.0011639
3780.8	0.00042
3790.44	0.001968
3800.09	0.0008029
3809.73	0.0007603
3819.38	0.001788
3829.02	0.0015552
3838.67	0.0015109
3848.31	0.0013114
3857.96	0.0009593
3867.6	0.001283
3877.25	0.0013151
3886.89	0.001908
3896.54	0.0015632
3906.18	0.0010828
3915.83	0.0010376
3925.47	0.0012195
3935.12	0.0012989
3944.76	0.0015802
3954.41	0.0012101
3964.05	0.0015757
3973.69	0.0015019
3983.34	0.001748
3992.98	0.0014198
