Infrared Spectrum: .alpha.-(4-Chloro-3-nitrophenyl)acetamide
Formula: C 8 H 7 Cl N 2 O 3
CAS: 5540-60-3
State: gas
Origin: EPA-IR VAPOR PHASE LIBRARY
1/CM	ABSORBANCE
549.8	0.001705
559.445	0.001835
569.09	0.001545
578.734	0.002185
588.379	0.001725
598.024	0.002155
607.669	0.001805
617.313	0.001995
626.958	0.002265
636.603	0.002075
646.248	0.001875
655.893	0.001725
665.537	0.003045
675.182	0.002835
684.827	0.001695
694.472	0.001595
704.116	0.001705
713.761	0.001795
723.406	0.002405
733.051	0.002635
742.695	0.003035
752.34	0.002825
761.985	0.002425
771.63	0.002545
781.275	0.002645
790.919	0.003235
800.564	0.004965
810.209	0.006125
819.854	0.005725
829.498	0.004505
839.143	0.002615
848.788	0.002055
858.433	0.002125
868.078	0.001945
877.722	0.001805
887.367	0.002095
897.012	0.002095
906.657	0.002145
916.301	0.001965
925.946	0.001795
935.591	0.001465
945.236	0.001285
954.88	0.00121
964.525	0.0011692
974.17	0.0009072
983.815	0.0008811
993.46	0.0010152
1003.1	0.0006861
1012.75	0.0010024
1022.39	0.0011761
1032.04	0.0010797
1041.68	0.002735
1051.33	0.006825
1060.97	0.004445
1070.62	0.001735
1080.26	0.001645
1089.91	0.0011348
1099.55	0.001195
1109.2	0.001455
1118.84	0.001445
1128.49	0.002525
1138.13	0.003195
1147.78	0.002325
1157.42	0.001715
1167.07	0.001625
1176.71	0.001535
1186.36	0.001635
1196	0.002005
1205.64	0.001915
1215.29	0.002835
1224.93	0.002185
1234.58	0.002985
1244.22	0.003815
1253.87	0.004865
1263.51	0.004465
1273.16	0.003965
1282.8	0.004145
1292.45	0.004185
1302.09	0.004715
1311.74	0.005655
1321.38	0.007395
1331.03	0.010045
1340.67	0.014485
1350.32	0.019685
1359.96	0.017925
1369.61	0.010325
1379.25	0.005385
1388.9	0.003685
1398.54	0.002855
1408.18	0.002595
1417.83	0.002325
1427.47	0.002425
1437.12	0.002285
1446.76	0.001845
1456.41	0.001655
1466.05	0.002855
1475.7	0.006615
1485.34	0.006235
1494.99	0.003365
1504.63	0.003535
1514.28	0.005245
1523.92	0.007665
1533.57	0.010235
1543.21	0.015615
1552.86	0.023645
1562.5	0.020405
1572.15	0.014625
1581.79	0.014695
1591.44	0.013665
1601.08	0.009185
1610.73	0.005735
1620.37	0.003275
1630.01	0.002295
1639.66	0.001855
1649.3	0.001785
1658.95	0.001775
1668.59	0.002005
1678.24	0.002595
1687.88	0.003605
1697.53	0.005425
1707.17	0.008695
1716.82	0.013775
1726.46	0.020215
1736.11	0.024295
1745.75	0.020805
1755.4	0.014915
1765.04	0.008535
1774.69	0.004525
1784.33	0.002425
1793.98	0.001515
1803.62	0.001131
1813.27	0.0009126
1822.91	0.0007843
1832.55	0.0007228
1842.2	0.0006611
1851.84	0.0005718
1861.49	0.0005971
1871.13	0.0005153
1880.78	0.00059
1890.42	0.0006649
1900.07	0.000648
1909.71	0.000625
1919.36	0.0005915
1929	0.0005294
1938.65	0.0004473
1948.29	0.00036202
1957.94	0.0004167
1967.58	0.00036265
1977.23	0.00033734
1986.87	0.000404
1996.52	0.0003711
2006.16	0.00032833
2015.81	0.00033626
2025.45	0.00029735
2035.1	0.00035326
2044.74	0.00036856
2054.38	0.00033714
2064.03	0.00033308
2073.67	0.00034807
2083.32	0.00030005
2092.96	0.000441
2102.61	0.000385
2112.25	0.000387
2121.9	0.0004018
2131.54	0.0004714
2141.19	0.0004776
2150.83	0.0004046
2160.48	0.0003822
2170.12	0.00031862
2179.77	0.00035429
2189.41	0.0004611
2199.06	0.0004656
2208.7	0.00031843
2218.35	0.00029301
2227.99	0.00035473
2237.64	0.00033351
2247.28	0.0003854
2256.92	0.00035543
2266.57	0.00035042
2276.21	0.00032033
2285.86	0.00032518
2295.5	0.00029264
2305.15	0.00035719
2314.79	0.00030817
2324.44	0.0003131
2334.08	0.00034431
2343.73	0.0004492
2353.37	0.0004193
2363.02	0.00032647
2372.66	0.00036022
2382.31	0.0004231
2391.95	0.0004625
2401.6	0.0003895
2411.24	0.00035558
2420.89	0.00030477
2430.53	0.0003835
2440.18	0.0003955
2449.82	0.0004344
2459.47	0.00036148
2469.11	0.000419
2478.75	0.0003801
2488.4	0.00036847
2498.04	0.00028503
2507.69	0.0003754
2517.33	0.00034782
2526.98	0.000274582
2536.62	0.000428
2546.27	0.00035211
2555.91	0.00032329
2565.56	0.00033393
2575.2	0.0003775
2584.85	0.0004583
2594.49	0.0004426
2604.14	0.00031445
2613.78	0.00036216
2623.43	0.0004026
2633.07	0.000442
2642.72	0.00033628
2652.36	0.0004144
2662.01	0.0003975
2671.65	0.0004287
2681.29	0.0004135
2690.94	0.00043
2700.58	0.000403
2710.23	0.0004491
2719.87	0.0004937
2729.52	0.0004246
2739.16	0.0004534
2748.81	0.0001788
2758.45	0.0002456
2768.1	0.0003951
2777.74	0.0003603
2787.39	0.000279009
2797.03	0.0004679
2806.68	0.0005335
2816.32	0.0005227
2825.97	0.0007027
2835.61	0.0006632
2845.26	0.0007235
2854.9	0.0005601
2864.55	0.0004762
2874.19	0.0006768
2883.84	0.0008244
2893.48	0.0008504
2903.12	0.001077
2912.77	0.0010967
2922.41	0.0012677
2932.06	0.001505
2941.7	0.001465
2951.35	0.0012152
2960.99	0.0010084
2970.64	0.0008106
2980.28	0.0006981
2989.93	0.0005816
2999.57	0.0005189
3009.22	0.0005335
3018.86	0.0005541
3028.51	0.0005933
3038.15	0.0007313
3047.8	0.0007491
3057.44	0.0007613
3067.09	0.0006886
3076.73	0.0006437
3086.38	0.0006066
3096.02	0.0005768
3105.67	0.0005731
3115.31	0.0003605
3124.95	0.000419
3134.6	0.0004246
3144.24	0.000493
3153.89	0.0004611
3163.53	0.0005116
3173.18	0.00033945
3182.82	0.0004076
3192.47	0.00032622
3202.11	0.00029259
3211.76	0.0004466
3221.4	0.0002629
3231.05	0.0002173
3240.69	0.0002394
3250.34	0.0004073
3259.98	0.00026742
3269.63	0.0002397
3279.27	0.0004913
3288.92	0.0003927
3298.56	0.00035506
3308.21	0.0004121
3317.85	0.0004622
3327.49	0.0005396
3337.14	0.0004827
3346.78	0.0004119
3356.43	0.0004969
3366.07	0.0005361
3375.72	0.0006471
3385.36	0.0008074
3395.01	0.001155
3404.65	0.001515
3414.3	0.002075
3423.94	0.002795
3433.59	0.003315
3443.23	0.002855
3452.88	0.001565
3462.52	0.0010459
3472.17	0.0008827
3481.81	0.0010271
3491.46	0.0010714
3501.1	0.0011147
3510.75	0.001505
3520.39	0.001795
3530.04	0.002015
3539.68	0.002295
3549.32	0.002935
3558.97	0.002805
3568.61	0.001715
3578.26	0.0008589
3587.9	0.0005796
3597.55	0.0006191
3607.19	0.00028642
3616.84	0.000281938
3626.48	0.0002441
3636.13	0.0002113
3645.77	0.000379
3655.42	0.00033377
3665.06	0.0004061
3674.71	0.0002305
3684.35	0.00029294
3694	0.00032971
3703.64	0.00037295
3713.29	0.0002273
3722.93	0.00030313
3732.58	0.00034333
3742.22	0.000103
3751.86	7.1e-05
3761.51	0.0004271
3771.15	0.00029598
3780.8	0.0003792
3790.44	0.000335
3800.09	0.0004014
3809.73	0.000161
3819.38	0.0002512
3829.02	0.0004123
3838.67	0.000116
3848.31	0.0002413
3857.96	0.00035549
3867.6	0.000123
3877.25	0.0003894
3886.89	0.00030163
3896.54	0.0002501
3906.18	0.00029734
3915.83	0.0003762
3925.47	0.00036477
3935.12	0.0004517
3944.76	0.00030898
3954.41	0.0004767
3964.05	0.0004155
3973.69	0.000282497
3983.34	0.0004626
3992.98	0.00034044
