Infrared Spectrum: 3,4-Methylendioxybenzyl acetone
Formula: C 11 H 12 O 3
CAS: 55418-52-5
State: gas
Origin: EPA-IR VAPOR PHASE LIBRARY
1/CM	ABSORBANCE
549.8	0.001492
559.445	0.001742
569.09	0.002052
578.734	0.004022
588.379	0.004832
598.024	0.004552
607.669	0.004642
617.313	0.003922
626.958	0.004352
636.603	0.004092
646.248	0.002192
655.893	0.001142
665.537	0.0008075
675.182	0.0006879
684.827	0.000435
694.472	0.0006489
704.116	0.0011044
713.761	0.002202
723.406	0.002352
733.051	0.002592
742.695	0.002642
752.34	0.002862
761.985	0.003012
771.63	0.004052
781.275	0.007782
790.919	0.017692
800.564	0.030232
810.209	0.028222
819.854	0.014412
829.498	0.008222
839.143	0.007402
848.788	0.008302
858.433	0.010552
868.078	0.009662
877.722	0.007062
887.367	0.005482
897.012	0.006722
906.657	0.011452
916.301	0.018222
925.946	0.024832
935.591	0.032092
945.236	0.037252
954.88	0.027462
964.525	0.013752
974.17	0.008532
983.815	0.006122
993.46	0.006152
1003.1	0.008072
1012.75	0.012582
1022.39	0.021012
1032.04	0.037462
1041.68	0.060212
1051.33	0.072522
1060.97	0.052622
1070.62	0.026552
1080.26	0.016612
1089.91	0.017282
1099.55	0.018822
1109.2	0.019332
1118.84	0.023092
1128.49	0.019572
1138.13	0.019672
1147.78	0.028562
1157.42	0.033752
1167.07	0.028322
1176.71	0.033102
1186.36	0.053672
1196	0.052322
1205.64	0.041082
1215.29	0.043892
1224.93	0.058872
1234.58	0.109882
1244.22	0.175552
1253.87	0.109812
1263.51	0.042422
1273.16	0.021222
1282.8	0.016322
1292.45	0.014082
1302.09	0.012352
1311.74	0.012772
1321.38	0.015662
1331.03	0.020192
1340.67	0.027442
1350.32	0.041472
1359.96	0.053872
1369.61	0.040542
1379.25	0.021682
1388.9	0.014372
1398.54	0.013302
1408.18	0.014632
1417.83	0.020322
1427.47	0.031972
1437.12	0.059332
1446.76	0.070522
1456.41	0.039002
1466.05	0.030752
1475.7	0.052162
1485.34	0.135172
1494.99	0.150212
1504.63	0.070212
1514.28	0.036882
1523.92	0.015192
1533.57	0.009532
1543.21	0.006922
1552.86	0.005582
1562.5	0.004852
1572.15	0.004582
1581.79	0.004692
1591.44	0.005572
1601.08	0.006732
1610.73	0.006932
1620.37	0.005512
1630.01	0.004282
1639.66	0.003602
1649.3	0.003432
1658.95	0.003912
1668.59	0.005022
1678.24	0.007162
1687.88	0.010662
1697.53	0.016002
1707.17	0.025072
1716.82	0.041512
1726.46	0.069542
1736.11	0.074492
1745.75	0.042392
1755.4	0.021862
1765.04	0.012642
1774.69	0.007602
1784.33	0.005012
1793.98	0.003572
1803.62	0.002912
1813.27	0.003042
1822.91	0.003752
1832.55	0.004022
1842.2	0.003912
1851.84	0.003502
1861.49	0.003422
1871.13	0.003272
1880.78	0.002932
1890.42	0.002452
1900.07	0.001772
1909.71	0.001422
1919.36	0.001312
1929	0.001252
1938.65	0.001232
1948.29	0.001212
1957.94	0.001192
1967.58	0.001142
1977.23	0.001262
1986.87	0.001312
1996.52	0.001422
2006.16	0.001582
2015.81	0.001492
2025.45	0.001542
2035.1	0.001752
2044.74	0.002042
2054.38	0.001892
2064.03	0.001682
2073.67	0.001512
2083.32	0.001352
2092.96	0.001382
2102.61	0.001302
2112.25	0.001122
2121.9	0.0011067
2131.54	0.0010781
2141.19	0.0010014
2150.83	0.0009363
2160.48	0.0009587
2170.12	0.0009221
2179.77	0.0009809
2189.41	0.0010826
2199.06	0.0010224
2208.7	0.0009712
2218.35	0.0009392
2227.99	0.0008871
2237.64	0.0008258
2247.28	0.0008714
2256.92	0.0009263
2266.57	0.0009523
2276.21	0.0010166
2285.86	0.0010723
2295.5	0.001262
2305.15	0.001252
2314.79	0.001162
2324.44	0.0010337
2334.08	0.0009117
2343.73	0.0008743
2353.37	0.000897
2363.02	0.0009949
2372.66	0.0009375
2382.31	0.0007431
2391.95	0.0006582
2401.6	0.0005481
2411.24	0.0005932
2420.89	0.0005263
2430.53	0.0007052
2440.18	0.0007882
2449.82	0.0007079
2459.47	0.0005778
2469.11	0.0007137
2478.75	0.0005916
2488.4	0.0007239
2498.04	0.000842
2507.69	0.0008688
2517.33	0.0010121
2526.98	0.0010857
2536.62	0.001272
2546.27	0.001302
2555.91	0.001252
2565.56	0.001202
2575.2	0.001372
2584.85	0.001412
2594.49	0.001462
2604.14	0.001392
2613.78	0.001222
2623.43	0.0009603
2633.07	0.0008247
2642.72	0.0009353
2652.36	0.0011007
2662.01	0.001242
2671.65	0.001392
2681.29	0.001782
2690.94	0.001712
2700.58	0.001582
2710.23	0.001492
2719.87	0.001612
2729.52	0.001772
2739.16	0.002122
2748.81	0.002622
2758.45	0.004082
2768.1	0.008312
2777.74	0.009722
2787.39	0.004892
2797.03	0.003982
2806.68	0.004362
2816.32	0.005382
2825.97	0.006582
2835.61	0.009022
2845.26	0.011672
2854.9	0.016072
2864.55	0.023922
2874.19	0.031702
2883.84	0.032862
2893.48	0.031332
2903.12	0.033162
2912.77	0.036292
2922.41	0.037912
2932.06	0.037712
2941.7	0.034212
2951.35	0.030092
2960.99	0.026572
2970.64	0.021012
2980.28	0.014622
2989.93	0.012182
2999.57	0.012552
3009.22	0.015102
3018.86	0.017132
3028.51	0.014902
3038.15	0.013422
3047.8	0.010772
3057.44	0.008812
3067.09	0.007982
3076.73	0.007642
3086.38	0.005392
3096.02	0.004032
3105.67	0.003232
3115.31	0.002392
3124.95	0.001712
3134.6	0.001132
3144.24	0.0008607
3153.89	0.0006183
3163.53	0.0003799
3173.18	0.0005134
3182.82	0.0002462
3192.47	0.0003794
3202.11	0.0005517
3211.76	0.0003638
3221.4	0.0002567
3231.05	0.0005898
3240.69	0.0003575
3250.34	0.00020347
3259.98	0.00020418
3269.63	0.0002852
3279.27	0.000263
3288.92	0.00018307
3298.56	0.0002432
3308.21	0.00010996
3317.85	0.00010329
3327.49	0.0003229
3337.14	0.0004081
3346.78	0.0003525
3356.43	0.000479
3366.07	0.0003607
3375.72	0.0003502
3385.36	0.0002847
3395.01	0.0006732
3404.65	0.0008203
3414.3	0.0006428
3423.94	0.0008906
3433.59	0.001412
3443.23	0.001542
3452.88	0.001472
3462.52	0.001192
3472.17	0.0008666
3481.81	0.0005858
3491.46	0.0005809
3501.1	0.0002713
3510.75	0.0005087
3520.39	0.0002793
3530.04	0.000224
3539.68	0.0004969
3549.32	0.0004135
3558.97	0.0004381
3568.61	0.0003212
3578.26	7.58e-05
3587.9	0.0002507
3597.55	0.0003402
3607.19	0.0003485
3616.84	3.99e-05
3626.48	0.0003868
3636.13	0.0004218
3645.77	0.0005156
3655.42	0.0002959
3665.06	0.0004643
3674.71	9.93e-05
3684.35	0.000237
3694	0.000303
3703.64	0.0002583
3713.29	0.0002659
3722.93	0.000386
3732.58	0.0003634
3742.22	0.0004866
3751.86	0.0002737
3761.51	0.0003157
3771.15	0.0002805
3780.8	0.0002375
3790.44	0.0005305
3800.09	0.0003964
3809.73	0.0007799
3819.38	0.0004964
3829.02	0.0004847
3838.67	0.0003935
3848.31	0.0005667
3857.96	0.0002597
3867.6	0.0004102
3877.25	0.0006198
3886.89	0.0006422
3896.54	0.0005516
3906.18	0.0003187
3915.83	0.0004007
3925.47	0.0006585
3935.12	0.0006399
3944.76	0.0007177
3954.41	0.000529
3964.05	0.0005132
3973.69	0.0007308
3983.34	0.0005662
3992.98	0.0007413
