Infrared Spectrum: 5-Chloro-2,4-dimethoxyphenyl isocyanate
Formula: C 9 H 8 Cl N O 3
CAS: 55440-55-6
State: gas
Origin: EPA-IR VAPOR PHASE LIBRARY
1/CM	ABSORBANCE
549.9	0.00669649
559.547	0.00923
569.193	0.01546
578.84	0.02428
588.486	0.02209
598.133	0.01762
607.779	0.01782
617.426	0.01728
627.072	0.01806
636.719	0.01909
646.365	0.02269
656.012	0.03311
665.658	0.04921
675.305	0.05135
684.951	0.0379
694.598	0.02636
704.245	0.02036
713.891	0.01894
723.538	0.02064
733.184	0.01762
742.831	0.01532
752.477	0.01553
762.124	0.02039
771.77	0.03642
781.417	0.05992
791.063	0.0554
800.71	0.03233
810.356	0.02161
820.003	0.01841
829.649	0.01745
839.296	0.01551
848.943	0.01146
858.589	0.01021
868.236	0.02447
877.882	0.05369
887.529	0.03111
897.175	0.00958
906.822	0.0067718
916.468	0.00769
926.115	0.01022
935.761	0.01519
945.408	0.02661
955.054	0.03278
964.701	0.02047
974.347	0.0143
983.994	0.01403
993.64	0.01655
1003.29	0.02536
1012.93	0.05086
1022.58	0.09932
1032.23	0.12422
1041.87	0.09261
1051.52	0.06138
1061.17	0.04995
1070.81	0.03421
1080.46	0.02285
1090.11	0.02448
1099.75	0.04658
1109.4	0.08981
1119.05	0.09632
1128.69	0.06155
1138.34	0.0504
1147.99	0.06958
1157.63	0.12312
1167.28	0.15841
1176.92	0.114
1186.57	0.09014
1196.22	0.14663
1205.86	0.24549
1215.51	0.15244
1225.16	0.06987
1234.8	0.05361
1244.45	0.05484
1254.1	0.05596
1263.74	0.05704
1273.39	0.0704
1283.04	0.09938
1292.68	0.11544
1302.33	0.08344
1311.98	0.03982
1321.62	0.02159
1331.27	0.01715
1340.92	0.01866
1350.56	0.02825
1360.21	0.06607
1369.86	0.14578
1379.5	0.13299
1389.15	0.05334
1398.79	0.02923
1408.44	0.02646
1418.09	0.03573
1427.73	0.0698
1437.38	0.11761
1447.03	0.1003
1456.67	0.11949
1466.32	0.13535
1475.97	0.09571
1485.61	0.0803
1495.26	0.11029
1504.91	0.20902
1514.55	0.34008
1524.2	0.2847
1533.85	0.14929
1543.49	0.08742
1553.14	0.0582
1562.79	0.04674
1572.43	0.04367
1582.08	0.0352
1591.73	0.02373
1601.37	0.01756
1611.02	0.01461
1620.67	0.01258
1630.31	0.01131
1639.96	0.01071
1649.6	0.01024
1659.25	0.00903
1668.9	0.0077
1678.54	0.0069681
1688.19	0.00644
1697.84	0.006205
1707.48	0.00618
1717.13	0.006314
1726.78	0.006224
1736.42	0.006415
1746.07	0.0073052
1755.72	0.00781
1765.36	0.006297
1775.01	0.00527
1784.66	0.00531
1794.3	0.00547
1803.95	0.00521
1813.6	0.00496
1823.24	0.0048
1832.89	0.0048
1842.54	0.00491
1852.18	0.00504
1861.83	0.00525
1871.47	0.00563
1881.12	0.006096
1890.77	0.006443
1900.41	0.006331
1910.06	0.006141
1919.71	0.006176
1929.35	0.006465
1939	0.006425
1948.65	0.006392
1958.29	0.0066621
1967.94	0.0068957
1977.59	0.0069041
1987.23	0.0068229
1996.88	0.0069677
2006.53	0.0073014
2016.17	0.00769
2025.82	0.00791
2035.47	0.00815
2045.11	0.00875
2054.76	0.00941
2064.41	0.01023
2074.05	0.01125
2083.7	0.01234
2093.35	0.01371
2102.99	0.01595
2112.64	0.01917
2122.28	0.02261
2131.93	0.02499
2141.58	0.02738
2151.22	0.03258
2160.87	0.04305
2170.52	0.06097
2180.16	0.08582
2189.81	0.11086
2199.46	0.13249
2209.1	0.15781
2218.75	0.20613
2228.4	0.30203
2238.04	0.46903
2247.69	0.75926
2257.34	1.16135
2266.98	1.15179
2276.63	0.74237
2286.28	0.47456
2295.92	0.32443
2305.57	0.22842
2315.22	0.16038
2324.86	0.12269
2334.51	0.11305
2344.16	0.11211
2353.8	0.1011
2363.45	0.07483
2373.09	0.04964
2382.74	0.03485
2392.39	0.02668
2402.03	0.02127
2411.68	0.01715
2421.33	0.01376
2430.97	0.01141
2440.62	0.0099
2450.27	0.00898
2459.91	0.00852
2469.56	0.00808
2479.21	0.0076066
2488.85	0.0070308
2498.5	0.006559
2508.15	0.005946
2517.79	0.00545
2527.44	0.00535
2537.09	0.00551
2546.73	0.005737
2556.38	0.006125
2566.03	0.00667692
2575.67	0.0070221
2585.32	0.00668919
2594.96	0.0061
2604.61	0.005978
2614.26	0.006085
2623.9	0.006072
2633.55	0.005999
2643.2	0.005921
2652.84	0.006114
2662.49	0.006202
2672.14	0.005934
2681.78	0.00537
2691.43	0.00486
2701.08	0.00452
2710.72	0.00433
2720.37	0.00431
2730.02	0.0043
2739.66	0.00444
2749.31	0.00449
2758.96	0.00459
2768.6	0.00488
2778.25	0.00536
2787.9	0.006055
2797.54	0.0072821
2807.19	0.00942
2816.84	0.01312
2826.48	0.01822
2836.13	0.02399
2845.77	0.03673
2855.42	0.04645
2865.07	0.03388
2874.71	0.02538
2884.36	0.02518
2894.01	0.02692
2903.65	0.0287
2913.3	0.03308
2922.95	0.03853
2932.59	0.0492
2942.24	0.07775
2951.89	0.08262
2961.53	0.06523
2971.18	0.05124
2980.83	0.03433
2990.47	0.02839
3000.12	0.03353
3009.77	0.05189
3019.41	0.04734
3029.06	0.02294
3038.71	0.01536
3048.35	0.01275
3058	0.01081
3067.64	0.00932
3077.29	0.00846
3086.94	0.007528
3096.58	0.006105
3106.23	0.00449
3115.88	0.00341
3125.52	0.00253
3135.17	0.00196
3144.82	0.00144
3154.46	0.00112
3164.11	0.00075
3173.76	0.00053
3183.4	0.00048
3193.05	0.00043
3202.7	0.00073
3212.34	0.00094
3221.99	0.00102
3231.64	0.00066
3241.28	0.00017
3250.93	8e-05
3260.58	0.00015
3270.22	3e-05
3279.87	0.00011
3289.52	0.0005
3299.16	0.00075
3308.81	0.00116
3318.45	0.00137
3328.1	0.00187
3337.75	0.00198
3347.39	0.00268
3357.04	0.00338
3366.69	0.00451
3376.33	0.00545
3385.98	0.005986
3395.63	0.006094
3405.27	0.005805
3414.92	0.00503
3424.57	0.00438
3434.21	0.00354
3443.86	0.0031
3453.51	0.00284
3463.15	0.00278
3472.8	0.00272
3482.45	0.00268
3492.09	0.00286
3501.74	0.00311
3511.39	0.00325
3521.03	0.00346
3530.68	0.00381
3540.33	0.00422
3549.97	0.00448
3559.62	0.00429
3569.26	0.00407
3578.91	0.00379
3588.56	0.00382
3598.2	0.00393
3607.85	0.0042
3617.5	0.00463
3627.14	0.00495
3636.79	0.00513
3646.44	0.00503
3656.08	0.00532
3665.73	0.005775
3675.38	0.006301
3685.02	0.0071532
3694.67	0.0075875
3704.32	0.0076537
3713.96	0.0073026
3723.61	0.006466
3733.26	0.00565
3742.9	0.00513
3752.55	0.00481
3762.2	0.00481
3771.84	0.00497
3781.49	0.00507
3791.13	0.005
3800.78	0.00487
3810.43	0.00451
3820.07	0.00424
3829.72	0.00398
3839.37	0.00381
3849.01	0.00347
3858.66	0.00358
3868.31	0.0037
3877.95	0.0036
3887.6	0.00362
3897.25	0.0035
3906.89	0.00351
3916.54	0.00335
3926.19	0.00334
3935.83	0.00325
3945.48	0.00323
3955.13	0.00329
3964.77	0.00343
3974.42	0.00358
3984.07	0.00367
3993.71	0.00355
