Infrared Spectrum: 2-PYRIMIDINECARBAMONITRILE, 4,6-DIMETHYL-
Formula: C7 H8 N4
CAS: 55474-90-3
State: SOLID (SPLIT MULL), FLUOROLUBE FOR 3800-1330 CM^-^1, NUJOL FOR 1330-470 CM^-^1
Class: COBLENTZ III
Instrument: DOW KBr FOREPRISM-GRATING
Instrument parameters: BLAZED AT 3.5, 12.0, 20.0 MICRON AND CHANGED AT 5.0, 7.5, 14.9 MICRON
Sampling: TRANSMISSION
Resolution: 2
Origin: DOW CHEMICAL COMPANY
1/CM	TRANSMITTANCE
469	0.8353
478	0.8075
487	0.7595
496	0.6404
505	0.7424
514	0.7478
523	0.7731
532	0.7462
541	0.6572
550	0.5957
559	0.6692
568	0.6384
577	0.6219
586	0.5555
595	0.5207
604	0.491
613	0.5076
622	0.6218
631	0.663
640	0.7422
649	0.7803
658	0.7675
667	0.7697
676	0.8103
685	0.8209
694	0.8281
703	0.8287
712	0.8024
721	0.7397
730	0.7065
739	0.7126
748	0.4328
757	0.779
766	0.8001
775	0.832
784	0.856
793	0.84
802	0.8689
811	0.8667
820	0.868
829	0.864
838	0.8335
847	0.7918
856	0.7153
865	0.8084
874	0.7218
883	0.7997
892	0.7926
901	0.7725
910	0.6015
919	0.6106
928	0.5712
937	0.6159
946	0.6975
955	0.7171
964	0.6975
973	0.6374
982	0.5425
991	0.5044
1000	0.7144
1009	0.6986
1018	0.607
1027	0.5464
1036	0.5549
1045	0.5457
1054	0.6534
1063	0.653
1072	0.6406
1081	0.6342
1090	0.6355
1099	0.651
1108	0.659
1117	0.66
1126	0.6725
1135	0.6825
1144	0.6705
1153	0.6421
1162	0.5735
1171	0.5767
1180	0.5732
1189	0.5139
1198	0.6683
1207	0.6615
1216	0.6106
1225	0.531
1234	0.476
1243	0.5901
1252	0.5695
1261	0.4915
1270	0.5072
1279	0.5335
1288	0.5095
1297	0.3989
1306	0.2033
1315	0.127
1324	0.3559
1333	0.5683
1342	0.584
1351	0.6453
1360	0.4885
1369	0.4969
1378	0.646
1387	0.6255
1396	0.5801
1405	0.4877
1414	0.3736
1423	0.2201
1432	0.3518
1441	0.4208
1450	0.3842
1459	0.3842
1468	0.5994
1477	0.6251
1486	0.673
1495	0.6455
1504	0.5743
1513	0.5001
1522	0.5844
1531	0.5834
1540	0.5423
1549	0.4793
1558	0.4214
1567	0.2481
1576	0.1869
1585	0.4084
1594	0.3397
1603	0.1336
1612	0.1308
1621	0.3236
1630	0.3153
1639	0.1651
1648	0.0676
1657	0.1099
1666	0.3474
1675	0.5806
1684	0.6694
1693	0.7726
1702	0.8521
1711	0.8692
1720	0.8681
1729	0.8567
1738	0.8547
1747	0.8633
1756	0.8635
1765	0.8524
1774	0.8478
1783	0.8417
1792	0.8363
1801	0.843
1810	0.8468
1819	0.8442
1828	0.8409
1837	0.8397
1846	0.8425
1855	0.845
1864	0.8456
1873	0.8452
1882	0.8423
1891	0.8384
1900	0.8357
1909	0.835
1918	0.8286
1927	0.8209
1936	0.8227
1945	0.82
1954	0.8176
1963	0.8238
1972	0.8111
1981	0.8064
1990	0.8008
1999	0.7912
2008	0.7901
2017	0.7847
2026	0.7789
2035	0.7715
2044	0.7632
2053	0.7544
2062	0.7454
2071	0.7351
2080	0.7204
2089	0.7018
2098	0.6835
2107	0.6625
2116	0.6372
2125	0.6031
2134	0.5701
2143	0.5207
2152	0.4502
2161	0.3568
2170	0.3305
2179	0.21
2188	0.1482
2197	0.2142
2206	0.2698
2215	0.4517
2224	0.6335
2233	0.7022
2242	0.7153
2251	0.7682
2260	0.793
2269	0.7899
2278	0.7789
2287	0.7664
2296	0.7545
2305	0.7419
2314	0.7306
2323	0.7203
2332	0.7125
2341	0.7089
2350	0.7069
2359	0.7061
2368	0.7053
2377	0.7049
2386	0.7045
2395	0.7042
2404	0.7043
2413	0.7018
2422	0.6965
2431	0.6903
2440	0.6842
2449	0.679
2458	0.6738
2467	0.6682
2476	0.6637
2485	0.6607
2494	0.6567
2503	0.6528
2512	0.6518
2521	0.6512
2530	0.6486
2539	0.6428
2548	0.6335
2557	0.6214
2566	0.609
2575	0.5971
2584	0.5879
2593	0.5797
2602	0.5718
2611	0.5639
2620	0.5556
2629	0.5469
2638	0.5462
2647	0.5504
2656	0.5478
2665	0.5357
2674	0.5222
2683	0.5116
2692	0.5022
2701	0.4932
2710	0.486
2719	0.4797
2728	0.4769
2737	0.4767
2746	0.4803
2755	0.4836
2764	0.4843
2773	0.4834
2782	0.4814
2791	0.4772
2800	0.4732
2809	0.476
2818	0.4824
2827	0.4937
2836	0.4987
2845	0.4948
2854	0.4825
2863	0.4823
2872	0.4902
2881	0.4999
2890	0.5092
2899	0.5195
2908	0.5286
2917	0.5298
2926	0.531
2935	0.5442
2944	0.5598
2953	0.5601
2962	0.5498
2971	0.5222
2980	0.5118
2989	0.5144
2998	0.5232
3007	0.5419
3016	0.5576
3025	0.5615
3034	0.5621
3043	0.5612
3052	0.5565
3061	0.5428
3070	0.5326
3079	0.5328
3088	0.5343
3097	0.5287
3106	0.5233
3115	0.5212
3124	0.519
3133	0.509
3142	0.4932
3151	0.4733
3160	0.4543
3169	0.4342
3178	0.4052
3187	0.4075
3196	0.4231
3205	0.4359
3214	0.4465
3223	0.465
3232	0.5337
3241	0.5547
3250	0.5628
3259	0.5708
3268	0.5698
3277	0.5639
3286	0.5475
3295	0.5255
3304	0.5026
3313	0.4795
3322	0.4625
3331	0.4662
3340	0.4722
3349	0.4743
3358	0.4562
3367	0.4066
3376	0.3589
3385	0.333
3394	0.3526
3403	0.4147
3412	0.4843
3421	0.5571
3430	0.6145
3439	0.6478
3448	0.6584
3457	0.659
3466	0.6574
3475	0.6565
3484	0.6551
3493	0.6538
3502	0.6522
3511	0.6507
3520	0.6497
3529	0.6486
3538	0.648
3547	0.6472
3556	0.6462
3565	0.6451
3574	0.6438
3583	0.6499
3592	0.6536
3601	0.6536
3610	0.6534
3619	0.6531
3628	0.653
3637	0.6554
3646	0.6584
3655	0.6575
3664	0.6568
3673	0.6544
3682	0.6518
3691	0.6495
3700	0.6467
3709	0.6457
3718	0.645
3727	0.6446
3736	0.6435
3745	0.6415
3754	0.6392
3763	0.6362
3772	0.6329
3781	0.6303
3790	0.6291
3799	0.6278
