Infrared Spectrum: 4,6-PYRIMIDINEDIOL, 2-AMINO-5-NITROSO-
Formula: C4 H4 N4 O3
CAS: 55482-22-9
State: SOLID (SPLIT MULL)
Class: COBLENTZ III
Instrument: DOW KBr FOREPRISM-GRATING
Instrument parameters: BLAZED AT 3.5, 12.0, 20.0 MICRON AND CHANGED AT 5.0, 7.5, 14.9 MICRON
Sampling: TRANSMISSION
Resolution: 2
Origin: DOW CHEMICAL COMPANY
1/CM	TRANSMITTANCE
383	0.8294
392	0.8296
401	0.8311
410	0.832
419	0.8321
428	0.8308
437	0.8205
446	0.8051
455	0.8118
464	0.83
473	0.8367
482	0.8183
491	0.8206
500	0.789
509	0.7134
518	0.384
527	0.4154
536	0.5487
545	0.668
554	0.7151
563	0.6215
572	0.5058
581	0.6584
590	0.7461
599	0.8445
608	0.8423
617	0.8245
626	0.8075
635	0.8266
644	0.8136
653	0.6745
662	0.7118
671	0.7667
680	0.6767
689	0.6598
698	0.6222
707	0.3627
716	0.5068
725	0.6242
734	0.7515
743	0.6333
752	0.8267
761	0.8019
770	0.7878
779	0.7071
788	0.5709
797	0.6425
806	0.6776
815	0.6874
824	0.6408
833	0.6328
842	0.658
851	0.7478
860	0.7725
869	0.7705
878	0.7585
887	0.7491
896	0.7494
905	0.7432
914	0.7421
923	0.7465
932	0.7521
941	0.7728
950	0.778
959	0.789
968	0.8168
977	0.8318
986	0.8075
995	0.8571
1004	0.8625
1013	0.8567
1022	0.8248
1031	0.8313
1040	0.8218
1049	0.8091
1058	0.7897
1067	0.7382
1076	0.7245
1085	0.7361
1094	0.7122
1103	0.7105
1112	0.7122
1121	0.7228
1130	0.7241
1139	0.6858
1148	0.6194
1157	0.4577
1166	0.4531
1175	0.4751
1184	0.6143
1193	0.6325
1202	0.6056
1211	0.5458
1220	0.4735
1229	0.4062
1238	0.2552
1247	0.2593
1256	0.2895
1265	0.2349
1274	0.3541
1283	0.3003
1292	0.1794
1301	0.2001
1310	0.3042
1319	0.3046
1328	0.3266
1337	0.3974
1346	0.4054
1355	0.408
1364	0.4046
1373	0.3973
1382	0.3764
1391	0.3345
1400	0.2568
1409	0.1779
1418	0.1621
1427	0.179
1436	0.2121
1445	0.2539
1454	0.346
1463	0.4091
1472	0.4253
1481	0.4457
1490	0.4394
1499	0.4124
1508	0.3884
1517	0.3826
1526	0.3791
1535	0.3549
1544	0.3203
1553	0.2942
1562	0.2976
1571	0.3163
1580	0.34
1589	0.3616
1598	0.364
1607	0.3537
1616	0.3414
1625	0.3242
1634	0.2881
1643	0.2495
1652	0.2284
1661	0.2128
1670	0.1979
1679	0.1806
1688	0.169
1697	0.1834
1706	0.2348
1715	0.2604
1724	0.2996
1733	0.3734
1742	0.4899
1751	0.6155
1760	0.7232
1769	0.7785
1778	0.7993
1787	0.8089
1796	0.8134
1805	0.8151
1814	0.8162
1823	0.8183
1832	0.8218
1841	0.826
1850	0.8301
1859	0.8342
1868	0.8382
1877	0.8416
1886	0.8445
1895	0.8468
1904	0.8488
1913	0.8501
1922	0.8506
1931	0.8513
1940	0.8531
1949	0.8552
1958	0.8588
1967	0.8468
1976	0.8442
1985	0.8407
1994	0.8571
2003	0.8521
2012	0.85
2021	0.8468
2030	0.8434
2039	0.8382
2048	0.8332
2057	0.827
2066	0.8198
2075	0.8132
2084	0.8076
2093	0.8019
2102	0.7958
2111	0.7896
2120	0.7837
2129	0.7778
2138	0.7714
2147	0.7647
2156	0.7575
2165	0.7504
2174	0.7432
2183	0.7358
2192	0.7283
2201	0.7206
2210	0.7128
2219	0.7046
2228	0.6965
2237	0.6883
2246	0.6801
2255	0.6721
2264	0.6636
2273	0.6549
2282	0.6469
2291	0.6399
2300	0.6329
2309	0.6258
2318	0.6189
2327	0.6121
2336	0.6056
2345	0.5993
2354	0.5931
2363	0.587
2372	0.5825
2381	0.5766
2390	0.5698
2399	0.5627
2408	0.5556
2417	0.5484
2426	0.5405
2435	0.5315
2444	0.5238
2453	0.5168
2462	0.5101
2471	0.5033
2480	0.4974
2489	0.4929
2498	0.4884
2507	0.4837
2516	0.4789
2525	0.4742
2534	0.4702
2543	0.466
2552	0.462
2561	0.4578
2570	0.4536
2579	0.4502
2588	0.4472
2597	0.4442
2606	0.44
2615	0.4331
2624	0.4247
2633	0.4166
2642	0.409
2651	0.4016
2660	0.395
2669	0.3897
2678	0.3853
2687	0.3816
2696	0.379
2705	0.3762
2714	0.3734
2723	0.3708
2732	0.3686
2741	0.3666
2750	0.3653
2759	0.3647
2768	0.3646
2777	0.3647
2786	0.3648
2795	0.3647
2804	0.3634
2813	0.36
2822	0.3544
2831	0.3486
2840	0.342
2849	0.3348
2858	0.3304
2867	0.3302
2876	0.3306
2885	0.3299
2894	0.3282
2903	0.3256
2912	0.3221
2921	0.3175
2930	0.312
2939	0.3058
2948	0.2993
2957	0.2924
2966	0.2872
2975	0.2834
2984	0.2799
2993	0.2774
3002	0.2764
3011	0.2756
3020	0.2759
3029	0.2762
3038	0.2766
3047	0.2776
3056	0.2791
3065	0.2809
3074	0.2839
3083	0.2884
3092	0.2937
3101	0.299
3110	0.3042
3119	0.3091
3128	0.3134
3137	0.3149
3146	0.3154
3155	0.3182
3164	0.3216
3173	0.3252
3182	0.33
3191	0.3359
3200	0.3445
3209	0.3534
3218	0.3627
3227	0.3709
3236	0.3778
3245	0.3844
3254	0.3912
3263	0.398
3272	0.4102
3281	0.4259
3290	0.4417
3299	0.4587
3308	0.4728
3317	0.4818
3326	0.4868
3335	0.4918
3344	0.5015
3353	0.5159
3362	0.532
3371	0.5437
3380	0.552
3389	0.5588
3398	0.5647
3407	0.5696
3416	0.5741
3425	0.5758
3434	0.5747
3443	0.5707
3452	0.5678
3461	0.571
3470	0.5751
3479	0.579
3488	0.581
3497	0.5867
3506	0.6085
3515	0.651
3524	0.6924
3533	0.724
3542	0.7521
3551	0.7771
3560	0.7964
3569	0.8095
3578	0.8199
3587	0.8289
3596	0.8366
3605	0.8421
3614	0.8462
3623	0.8487
3632	0.85
3641	0.8502
3650	0.8497
3659	0.8483
3668	0.845
3677	0.8393
3686	0.8327
3695	0.8316
3704	0.8313
3713	0.829
3722	0.8251
3731	0.8207
3740	0.8165
3749	0.8121
3758	0.8078
3767	0.8042
3776	0.8001
3785	0.7954
3794	0.7904
