Infrared Spectrum: 4-(2)(Methylamino)ethyl)pyridine
Formula: C 8 H 12 N 2
CAS: 55496-55-4
State: gas
Origin: EPA-IR VAPOR PHASE LIBRARY
1/CM	ABSORBANCE
549.8	0.005391
559.445	0.007201
569.09	0.011751
578.734	0.017171
588.379	0.017411
598.024	0.011351
607.669	0.007751
617.313	0.007341
626.958	0.008321
636.603	0.009821
646.248	0.011511
655.893	0.013231
665.537	0.014691
675.182	0.015681
684.827	0.015651
694.472	0.015801
704.116	0.016691
713.761	0.016821
723.406	0.016171
733.051	0.014121
742.695	0.012021
752.34	0.011121
761.985	0.012711
771.63	0.017571
781.275	0.020751
790.919	0.024771
800.564	0.027421
810.209	0.020391
819.854	0.013261
829.498	0.010341
839.143	0.008531
848.788	0.006341
858.433	0.004481
868.078	0.003491
877.722	0.002801
887.367	0.002501
897.012	0.002491
906.657	0.002541
916.301	0.003001
925.946	0.003571
935.591	0.003841
945.236	0.004011
954.88	0.004511
964.525	0.004921
974.17	0.006211
983.815	0.010591
993.46	0.013361
1003.1	0.009981
1012.75	0.007371
1022.39	0.006141
1032.04	0.005141
1041.68	0.004261
1051.33	0.004721
1060.97	0.004921
1070.62	0.006901
1080.26	0.007361
1089.91	0.007871
1099.55	0.012231
1109.2	0.019781
1118.84	0.026441
1128.49	0.027111
1138.13	0.023321
1147.78	0.021651
1157.42	0.019981
1167.07	0.013701
1176.71	0.009171
1186.36	0.007591
1196	0.006981
1205.64	0.007361
1215.29	0.010531
1224.93	0.009811
1234.58	0.005551
1244.22	0.004721
1253.87	0.004481
1263.51	0.004581
1273.16	0.004411
1282.8	0.003921
1292.45	0.003791
1302.09	0.003901
1311.74	0.004471
1321.38	0.005111
1331.03	0.006101
1340.67	0.007971
1350.32	0.012101
1359.96	0.014641
1369.61	0.012121
1379.25	0.008401
1388.9	0.008231
1398.54	0.012731
1408.18	0.019541
1417.83	0.021151
1427.47	0.018121
1437.12	0.017471
1446.76	0.022101
1456.41	0.023291
1466.05	0.022321
1475.7	0.022591
1485.34	0.017721
1494.99	0.011661
1504.63	0.006711
1514.28	0.004281
1523.92	0.004381
1533.57	0.005961
1543.21	0.009601
1552.86	0.014821
1562.5	0.018791
1572.15	0.019881
1581.79	0.026701
1591.44	0.056811
1601.08	0.070781
1610.73	0.035201
1620.37	0.008261
1630.01	0.004161
1639.66	0.003361
1649.3	0.003141
1658.95	0.003061
1668.59	0.002561
1678.24	0.002021
1687.88	0.001741
1697.53	0.001631
1707.17	0.001641
1716.82	0.001641
1726.46	0.001631
1736.11	0.001571
1745.75	0.001481
1755.4	0.001431
1765.04	0.001321
1774.69	0.001241
1784.33	0.0012085
1793.98	0.001301
1803.62	0.001381
1813.27	0.001441
1822.91	0.001631
1832.55	0.002131
1842.2	0.002151
1851.84	0.001481
1861.49	0.001281
1871.13	0.0011756
1880.78	0.0011399
1890.42	0.001291
1900.07	0.001721
1909.71	0.002411
1919.36	0.003321
1929	0.003411
1938.65	0.002661
1948.29	0.001931
1957.94	0.001471
1967.58	0.0010382
1977.23	0.0010217
1986.87	0.000957
1996.52	0.0009179
2006.16	0.0008754
2015.81	0.0009805
2025.45	0.0008326
2035.1	0.0009433
2044.74	0.0008561
2054.38	0.0009163
2064.03	0.0009101
2073.67	0.0010564
2083.32	0.000998
2092.96	0.0009584
2102.61	0.0009542
2112.25	0.0009578
2121.9	0.0009472
2131.54	0.0008394
2141.19	0.0010046
2150.83	0.0008951
2160.48	0.0009073
2170.12	0.0008677
2179.77	0.0008446
2189.41	0.000833
2199.06	0.0008734
2208.7	0.0008501
2218.35	0.0008574
2227.99	0.0008705
2237.64	0.0007608
2247.28	0.0006855
2256.92	0.0007458
2266.57	0.0006759
2276.21	0.000859
2285.86	0.0009827
2295.5	0.0008745
2305.15	0.0009444
2314.79	0.0009742
2324.44	0.0008464
2334.08	0.0006103
2343.73	0.0008013
2353.37	0.0007799
2363.02	0.0008663
2372.66	0.0006875
2382.31	0.0007766
2391.95	0.0009204
2401.6	0.0009452
2411.24	0.0011071
2420.89	0.001241
2430.53	0.001209
2440.18	0.001271
2449.82	0.001231
2459.47	0.0011841
2469.11	0.0010815
2478.75	0.0010476
2488.4	0.0010017
2498.04	0.0009767
2507.69	0.0009063
2517.33	0.0009492
2526.98	0.0010566
2536.62	0.0011347
2546.27	0.001351
2555.91	0.001321
2565.56	0.001331
2575.2	0.001421
2584.85	0.001511
2594.49	0.001631
2604.14	0.001701
2613.78	0.001751
2623.43	0.002071
2633.07	0.002171
2642.72	0.002301
2652.36	0.002591
2662.01	0.002751
2671.65	0.003181
2681.29	0.003711
2690.94	0.004451
2700.58	0.005081
2710.23	0.005341
2719.87	0.005401
2729.52	0.005591
2739.16	0.006021
2748.81	0.007281
2758.45	0.009581
2768.1	0.013231
2777.74	0.019251
2787.39	0.029001
2797.03	0.043001
2806.68	0.049261
2816.32	0.043821
2825.97	0.038611
2835.61	0.035081
2845.26	0.034621
2854.9	0.037281
2864.55	0.037351
2874.19	0.034371
2883.84	0.033521
2893.48	0.036611
2903.12	0.040141
2912.77	0.042261
2922.41	0.046581
2932.06	0.053371
2941.7	0.059521
2951.35	0.059941
2960.99	0.050341
2970.64	0.042141
2980.28	0.038101
2989.93	0.028661
2999.57	0.020391
3009.22	0.018201
3018.86	0.023491
3028.51	0.027561
3038.15	0.023641
3047.8	0.022781
3057.44	0.027601
3067.09	0.031751
3076.73	0.027211
3086.38	0.016051
3096.02	0.008101
3105.67	0.004921
3115.31	0.002911
3124.95	0.002061
3134.6	0.001631
3144.24	0.001271
3153.89	0.0011677
3163.53	0.0011888
3173.18	0.0009915
3182.82	0.0008577
3192.47	0.0008547
3202.11	0.0007642
3211.76	0.000707
3221.4	0.0006266
3231.05	0.000605
3240.69	0.0005913
3250.34	0.0004879
3259.98	0.00031261
3269.63	0.0004827
3279.27	0.0006533
3288.92	0.0003862
3298.56	0.0004467
3308.21	0.0003919
3317.85	0.0003464
3327.49	0.000394
3337.14	0.0004115
3346.78	0.0005492
3356.43	0.0007516
3366.07	0.000794
3375.72	0.0005733
3385.36	0.0007134
3395.01	0.00044
3404.65	0.0005544
3414.3	0.000595
3423.94	0.0004734
3433.59	0.00031602
3443.23	0.0003339
3452.88	0.0003855
3462.52	0.0001368
3472.17	0.00027033
3481.81	0.0003562
3491.46	0.00030782
3501.1	0.000223346
3510.75	0.0003566
3520.39	0.000220226
3530.04	0.0004795
3539.68	0.0004711
3549.32	0.0004502
3558.97	0.00025137
3568.61	0.0001606
3578.26	0.000223277
3587.9	0.0001408
3597.55	0.0001789
3607.19	0.0003843
3616.84	0.0003516
3626.48	0.00029295
3636.13	0.0002086
3645.77	0.0003689
3655.42	0.00025523
3665.06	0.0004716
3674.71	0.0003858
3684.35	0.0004636
3694	0.0003491
3703.64	0.0005551
3713.29	0.000123
3722.93	0.0001503
3732.58	0.0002626
3742.22	0.0003488
3751.86	0.00025708
3761.51	0.0004165
3771.15	0.00024489
3780.8	0.00023694
3790.44	0.00032034
3800.09	0.0002062
3809.73	8.1e-05
3819.38	0.0003996
3829.02	0.0004224
3838.67	0.0001919
3848.31	0.0003895
3857.96	0.0004037
3867.6	0.0004952
3877.25	0.00028841
3886.89	0.0003462
3896.54	0.0002769
3906.18	0.0003993
3915.83	0.0003783
3925.47	0.0005575
3935.12	0.0001835
3944.76	0.0005482
3954.41	0.0005997
3964.05	0.0004286
3973.69	0.0005511
3983.34	0.0004906
3992.98	0.0004401
