Infrared Spectrum: Beta PHELLANDRENE
Formula: C10 H16
CAS: 555-10-2
Class: COBLENTZ
Instrument: Not specified, most likely a prism, grating, or hybrid spectrometer.
Sampling: TRANSMISSION
Resolution: 4
Origin: INTERNATIONAL FLAVORS & FRAGRANCES, INC.
MICROMETERS	TRANSMITTANCE
2.054	0.935
2.08978	0.938
2.12557	0.935
2.16135	0.934
2.19714	0.932
2.23292	0.931
2.2687	0.9231
2.30449	0.8937
2.34027	0.8791
2.37606	0.891
2.41184	0.9
2.44762	0.906
2.48341	0.905
2.51919	0.9061
2.55498	0.911
2.59076	0.9141
2.62654	0.921
2.66233	0.9241
2.69811	0.9292
2.7339	0.932
2.76968	0.934
2.80547	0.937
2.84125	0.938
2.87703	0.937
2.91282	0.932
2.9486	0.9289
2.98439	0.9262
3.02017	0.929
3.05595	0.928
3.09174	0.9261
3.12752	0.9115
3.16331	0.901
3.19909	0.8746
3.23487	0.6793
3.27066	0.4377
3.30644	0.1613
3.34223	0.041
3.37801	0.1111
3.41379	0.14
3.44958	0.2438
3.48536	0.3056
3.52115	0.5464
3.55693	0.7449
3.59271	0.8448
3.6285	0.8651
3.66428	0.8661
3.70007	0.8852
3.73585	0.891
3.77163	0.885
3.80742	0.8973
3.8432	0.908
3.87899	0.911
3.91477	0.912
3.95055	0.9259
3.98634	0.929
4.02212	0.932
4.05791	0.934
4.09369	0.934
4.12948	0.937
4.16526	0.937
4.20104	0.937
4.23683	0.937
4.27261	0.94
4.3084	0.941
4.34418	0.943
4.37996	0.946
4.41575	0.947
4.45153	0.947
4.48732	0.946
4.5231	0.9471
4.55888	0.95
4.59467	0.952
4.63045	0.954
4.66624	0.954
4.70202	0.955
4.7378	0.961
4.77359	0.957
4.80937	0.955
4.84516	0.955
4.88094	0.955
4.91672	0.957
4.95251	0.96
4.98829	0.9579
5.02408	0.952
5.05986	0.9536
5.09564	0.954
5.13143	0.954
5.16721	0.9511
5.203	0.946
5.23878	0.9507
5.27456	0.952
5.31035	0.952
5.34613	0.9501
5.38192	0.9492
5.4177	0.9423
5.45349	0.9377
5.48927	0.944
5.52505	0.9357
5.56084	0.9028
5.59662	0.8442
5.63241	0.8098
5.66819	0.7882
5.70397	0.8453
5.73976	0.8653
5.77554	0.8873
5.81133	0.909
5.84711	0.914
5.88289	0.912
5.91868	0.909
5.95446	0.8996
5.99025	0.888
6.02603	0.7832
6.06181	0.494
6.0976	0.6495
6.13338	0.7986
6.16917	0.865
6.20495	0.7004
6.24073	0.6311
6.27652	0.811
6.3123	0.8508
6.34809	0.8885
6.38387	0.9
6.41965	0.9025
6.45544	0.897
6.49122	0.898
6.52701	0.901
6.56279	0.901
6.59858	0.8918
6.63436	0.8831
6.67014	0.8633
6.70593	0.8271
6.74171	0.6231
6.7775	0.2945
6.81328	0.3611
6.84906	0.3774
6.88485	0.3886
6.92063	0.3612
6.95642	0.5013
6.9922	0.6396
7.02798	0.589
7.06377	0.7289
7.09955	0.7856
7.13534	0.796
7.17112	0.578
7.2069	0.4386
7.24269	0.5285
7.27847	0.3643
7.31426	0.5159
7.35004	0.7117
7.38582	0.7465
7.42161	0.7896
7.45739	0.824
7.49318	0.8229
7.52896	0.7948
7.56474	0.7901
7.60053	0.8019
7.63631	0.836
7.6721	0.8373
7.70788	0.7857
7.74366	0.7872
7.77945	0.698
7.81523	0.8036
7.85102	0.8482
7.8868	0.852
7.92259	0.8448
7.95837	0.837
7.99415	0.8206
8.02994	0.8227
8.06572	0.8502
8.10151	0.8579
8.13729	0.854
8.17307	0.854
8.20886	0.8284
8.24464	0.793
8.28043	0.8074
8.31621	0.679
8.35199	0.6993
8.38778	0.8169
8.42356	0.8593
8.45935	0.866
8.49513	0.8206
8.53091	0.751
8.5667	0.7591
8.60248	0.7411
8.63827	0.6083
8.67405	0.6859
8.70983	0.7784
8.74562	0.8197
8.7814	0.8648
8.81719	0.877
8.85297	0.8797
8.88875	0.858
8.92454	0.808
8.96032	0.8416
8.99611	0.8615
9.03189	0.8654
9.06767	0.846
9.10346	0.6028
9.13924	0.6631
9.17503	0.7826
9.21081	0.8436
9.2466	0.86
9.28238	0.8452
9.31816	0.8535
9.35395	0.871
9.38973	0.871
9.42552	0.869
9.4613	0.868
9.49708	0.8529
9.53287	0.8219
9.56865	0.811
9.60444	0.8324
9.64022	0.8488
9.676	0.861
9.71179	0.866
9.74757	0.846
9.78336	0.7779
9.81914	0.7719
9.85492	0.793
9.89071	0.799
9.92649	0.8196
9.96228	0.831
9.99806	0.8177
10.0338	0.8184
10.0696	0.7274
10.1054	0.5746
10.1412	0.6431
10.177	0.7363
10.2128	0.784
10.2485	0.7854
10.2843	0.6924
10.3201	0.7335
10.3559	0.7633
10.3917	0.7685
10.4275	0.7962
10.4633	0.8087
10.499	0.8191
10.5348	0.83
10.5706	0.8094
10.6064	0.7061
10.6422	0.7299
10.678	0.7778
10.7137	0.8009
10.7495	0.8013
10.7853	0.7354
10.8211	0.6029
10.8569	0.6118
10.8927	0.6594
10.9284	0.6868
10.9642	0.6981
11	0.7628
11.0358	0.7983
11.0716	0.8043
11.1074	0.792
11.1432	0.7427
11.1789	0.6101
11.2147	0.4255
11.2505	0.2346
11.2863	0.1021
11.3221	0.033
11.3579	0.018
11.3936	0.0276
11.4294	0.1068
11.4652	0.2426
11.501	0.329
11.5368	0.413
11.5726	0.5374
11.6083	0.6479
11.6441	0.7269
11.6799	0.7781
11.7157	0.8069
11.7515	0.8252
11.7873	0.8402
11.823	0.842
11.8588	0.84
11.8946	0.84
11.9304	0.8487
11.9662	0.8514
12.002	0.8362
12.0378	0.7825
12.0735	0.7083
12.1093	0.7166
12.1451	0.7101
12.1809	0.5455
12.2167	0.5266
12.2525	0.5691
12.2882	0.6286
12.324	0.7127
12.3598	0.7815
12.3956	0.8087
12.4314	0.8138
12.4672	0.8044
12.5029	0.7765
12.5387	0.7531
12.5745	0.761
12.6103	0.7971
12.6461	0.819
12.6819	0.8158
12.7176	0.8108
12.7534	0.8195
12.7892	0.8096
12.825	0.7442
12.8608	0.6471
12.8966	0.5897
12.9324	0.6331
12.9681	0.6795
13.0039	0.6763
13.0397	0.6592
13.0755	0.6462
13.1113	0.6294
13.1471	0.6839
13.1828	0.7469
13.2186	0.7864
13.2544	0.8149
13.2902	0.8336
13.326	0.844
13.3618	0.8514
13.3975	0.854
13.4333	0.852
13.4691	0.856
13.5049	0.856
13.5407	0.856
13.5765	0.856
13.6122	0.852
13.648	0.851
13.6838	0.8467
13.7196	0.845
13.7554	0.8416
13.7912	0.837
13.827	0.834
13.8627	0.828
13.8985	0.8209
13.9343	0.8149
13.9701	0.8087
14.0059	0.7981
14.0417	0.787
14.0774	0.7675
14.1132	0.7417
14.149	0.7132
14.1848	0.6837
14.2206	0.676
14.2564	0.6785
14.2921	0.7028
14.3279	0.7265
14.3637	0.7395
14.3995	0.7513
14.4353	0.758
14.4711	0.758
14.5069	0.7533
14.5426	0.729
14.5784	0.7038
14.6142	0.669
14.65	0.6222
14.6858	0.5778
14.7216	0.563
14.7573	0.5679
14.7931	0.595
14.8289	0.6314
14.8647	0.6589
14.9005	0.6802
14.9363	0.6964
14.972	0.716
