Infrared Spectrum: TRIPALMITIN
Formula: C51 H98 O6
CAS: 555-44-2
State: SOLID (COCONITRILE MULL)
Class: COBLENTZ
Instrument: PERKIN-ELMER
Sampling: TRANSMISSION
Resolution: 4
MICROMETERS	TRANSMITTANCE
2.025	0.705
2.06176	0.713
2.09851	0.719
2.13527	0.727
2.17203	0.732
2.20878	0.742
2.24554	0.747
2.2823	0.753
2.31906	0.745
2.35581	0.73
2.39257	0.73
2.42933	0.728
2.46608	0.735
2.50284	0.745
2.5396	0.762
2.57635	0.774
2.61311	0.782
2.64987	0.791
2.68662	0.799
2.72338	0.807
2.76014	0.811
2.7969	0.808
2.83365	0.81
2.87041	0.805
2.90717	0.791
2.94392	0.8
2.98068	0.808
3.01744	0.817
3.05419	0.817
3.09095	0.82
3.12771	0.823
3.16446	0.825
3.20122	0.823
3.23798	0.828
3.27474	0.808
3.31149	0.765
3.34825	0.715
3.38501	0.566
3.42176	0.35
3.45852	0.209
3.49528	0.139
3.53203	0.107
3.56879	0.316
3.60555	0.623
3.6423	0.707
3.67906	0.768
3.71582	0.803
3.75258	0.831
3.78933	0.836
3.82609	0.822
3.86285	0.834
3.8996	0.86
3.93636	0.868
3.97312	0.883
4.00987	0.889
4.04663	0.891
4.08339	0.895
4.12014	0.901
4.1569	0.908
4.19366	0.914
4.23042	0.914
4.26717	0.911
4.30393	0.914
4.34069	0.914
4.37744	0.909
4.4142	0.906
4.45096	0.906
4.48771	0.921
4.52447	0.932
4.56123	0.929
4.59798	0.934
4.63474	0.934
4.6715	0.932
4.70826	0.928
4.74501	0.934
4.78177	0.934
4.81853	0.931
4.85528	0.929
4.89204	0.931
4.9288	0.931
4.96555	0.929
5.00231	0.931
5.03907	0.932
5.07582	0.928
5.11258	0.934
5.14934	0.931
5.1861	0.935
5.22285	0.923
5.25961	0.928
5.29637	0.926
5.33312	0.932
5.36988	0.931
5.40664	0.928
5.44339	0.908
5.48015	0.891
5.51691	0.872
5.55366	0.852
5.59042	0.83
5.62718	0.773
5.66394	0.661
5.70069	0.415
5.73745	0.125
5.77421	0.052
5.81096	0.117
5.84772	0.471
5.88448	0.509
5.92123	0.632
5.95799	0.728
5.99475	0.819
6.0315	0.837
6.06826	0.86
6.10502	0.879
6.14178	0.891
6.17853	0.892
6.21529	0.901
6.25205	0.909
6.2888	0.917
6.32556	0.92
6.36232	0.915
6.39907	0.917
6.43583	0.917
6.47259	0.915
6.50934	0.921
6.5461	0.917
6.58286	0.911
6.61962	0.905
6.65637	0.877
6.69313	0.845
6.72989	0.728
6.76664	0.372
6.8034	0.2
6.84016	0.356
6.87691	0.488
6.91367	0.615
6.95043	0.653
6.98718	0.73
7.02394	0.676
7.0607	0.46
7.09746	0.482
7.13421	0.603
7.17097	0.56
7.20773	0.523
7.24448	0.58
7.28124	0.604
7.318	0.627
7.35475	0.687
7.39151	0.748
7.42827	0.728
7.46502	0.707
7.50178	0.681
7.53854	0.709
7.5753	0.725
7.61205	0.71
7.64881	0.709
7.68557	0.601
7.72232	0.641
7.75908	0.641
7.79584	0.486
7.83259	0.445
7.86935	0.56
7.90611	0.339
7.94286	0.321
7.97962	0.591
8.01638	0.477
8.05314	0.433
8.08989	0.606
8.12665	0.646
8.16341	0.548
8.20016	0.425
8.23692	0.598
8.27368	0.669
8.31043	0.531
8.34719	0.362
8.38395	0.396
8.4207	0.482
8.45746	0.269
8.49422	0.162
8.53098	0.249
8.56773	0.405
8.60449	0.502
8.64125	0.531
8.678	0.601
8.71476	0.689
8.75152	0.709
8.78827	0.728
8.82503	0.73
8.86179	0.71
8.89854	0.667
8.9353	0.543
8.97206	0.344
9.00882	0.315
9.04557	0.447
9.08233	0.525
9.11909	0.594
9.15584	0.612
9.1926	0.638
9.22936	0.692
9.26611	0.765
9.30287	0.816
9.33963	0.8
9.37638	0.784
9.41314	0.762
9.4499	0.73
9.48666	0.724
9.52341	0.716
9.56017	0.761
9.59693	0.791
9.63368	0.796
9.67044	0.79
9.7072	0.77
9.74395	0.793
9.78071	0.788
9.81747	0.774
9.85422	0.77
9.89098	0.748
9.92774	0.727
9.9645	0.754
10.0013	0.782
10.038	0.787
10.0748	0.81
10.1115	0.836
10.1483	0.81
10.185	0.791
10.2218	0.811
10.2586	0.839
10.2953	0.865
10.3321	0.895
10.3688	0.909
10.4056	0.895
10.4423	0.903
10.4791	0.918
10.5158	0.929
10.5526	0.938
10.5894	0.937
10.6261	0.94
10.6629	0.944
10.6996	0.94
10.7364	0.918
10.7731	0.918
10.8099	0.924
10.8467	0.92
10.8834	0.894
10.9202	0.863
10.9569	0.852
10.9937	0.879
11.0304	0.883
11.0672	0.865
11.104	0.819
11.1407	0.721
11.1775	0.583
11.2142	0.607
11.251	0.673
11.2877	0.719
11.3245	0.773
11.3613	0.8
11.398	0.826
11.4348	0.863
11.4715	0.885
11.5083	0.882
11.545	0.903
11.5818	0.914
11.6186	0.931
11.6553	0.934
11.6921	0.92
11.7288	0.903
11.7656	0.883
11.8023	0.854
11.8391	0.892
11.8759	0.931
11.9126	0.947
11.9494	0.952
11.9861	0.963
12.0229	0.961
12.0596	0.964
12.0964	0.973
12.1332	0.977
12.1699	0.973
12.2067	0.977
12.2434	0.978
12.2802	0.963
12.3169	0.96
12.3537	0.966
12.3905	0.969
12.4272	0.972
12.464	0.978
12.5007	0.97
12.5375	0.966
12.5742	0.969
12.611	0.963
12.6478	0.967
12.6845	0.97
12.7213	0.967
12.758	0.969
12.7948	0.909
12.8315	0.886
12.8683	0.918
12.905	0.954
12.9418	0.97
12.9786	0.98
13.0153	0.972
13.0521	0.97
13.0888	0.97
13.1256	0.964
13.1623	0.963
13.1991	0.943
13.2359	0.94
13.2726	0.954
13.3094	0.96
13.3461	0.961
13.3829	0.947
13.4196	0.918
13.4564	0.874
13.4932	0.814
13.5299	0.813
13.5667	0.842
13.6034	0.863
13.6402	0.848
13.6769	0.823
13.7137	0.816
13.7505	0.803
13.7872	0.777
13.824	0.738
13.8607	0.683
13.8975	0.568
13.9342	0.392
13.971	0.323
14.0078	0.45
14.0445	0.643
14.0813	0.736
14.118	0.828
14.1548	0.863
14.1915	0.889
14.2283	0.911
14.2651	0.931
14.3018	0.937
14.3386	0.944
14.3753	0.949
14.4121	0.952
14.4488	0.943
14.4856	0.926
14.5224	0.92
14.5591	0.921
14.5959	0.929
14.6326	0.924
14.6694	0.935
14.7061	0.952
14.7429	0.963
14.7797	0.961
14.8164	0.977
14.8532	0.989
14.8899	1.001
14.9267	0.998
14.9634	0.995
15.0002	0.99
15.037	1
15.0737	1.001
15.1105	1.007
15.1472	1.012
