Infrared Spectrum: Nifuroxime
Formula: C 5 H 4 N 2 O 4
CAS: 555-15-7
State: gas
Instrument: HP-GC/MS/IRD
Origin: NIST Mass Spectrometry Data Center
1/CM	ABSORBANCE
550	0.0012865
562	0.0013612
574	0.0013446
586	0.0008134
598	0.0007221
610	0.0005727
622	8.3e-05
634	0
646	0.0001494
658	0.0003735
670	0.0008881
682	0.0008798
694	0.0009213
706	0.0014525
718	0.0035939
730	0.0076858
742	0.0090719
754	0.0064574
766	0.0063412
778	0.0101094
790	0.0182268
802	0.0355738
814	0.0524643
826	0.0269169
838	0.0102007
850	0.003818
862	0.0039425
874	0.0068143
886	0.0103418
898	0.0157119
910	0.0145914
922	0.0082585
934	0.0072127
946	0.0119271
958	0.0260952
970	0.0418735
982	0.0285603
994	0.006972
1006	0.0107236
1018	0.0145416
1030	0.0086818
1042	0.0027556
1054	0.0010375
1066	0.0006474
1078	0.000332
1090	0.0001328
1102	4.98e-05
1114	9.96e-05
1126	0.0001826
1138	0.0002739
1150	0.0009379
1162	0.0021746
1174	0.0030461
1186	0.0034362
1198	0.0019339
1210	0.0017679
1222	0.003818
1234	0.0143258
1246	0.0410933
1258	0.0349845
1270	0.0113793
1282	0.0092628
1294	0.0163178
1306	0.0192311
1318	0.0183098
1330	0.0317392
1342	0.0609718
1354	0.0818463
1366	0.0388523
1378	0.0208247
1390	0.0164008
1402	0.0143258
1414	0.0083249
1426	0.0036935
1438	0.002822
1450	0.0030544
1462	0.0043575
1474	0.008632
1486	0.0167245
1498	0.0280291
1510	0.026726
1522	0.0177039
1534	0.0305357
1546	0.0612208
1558	0.0601501
1570	0.0308843
1582	0.0194718
1594	0.0127156
1606	0.0075198
1618	0.0050713
1630	0.0036852
1642	0.0023738
1654	0.0013114
1666	0.0008383
1678	0.0007636
1690	0.0008051
1702	0.0007802
1714	0.0009296
1726	0.0015272
1738	0.0018924
1750	0.0019422
1762	0.0016932
1774	0.0010458
1786	0.0006308
1798	0.0005561
1810	0.0005146
1822	0.0004814
1834	0.0004814
1846	0.0004316
1858	0.0001909
1870	0.0001743
1882	0.0001826
1894	0.0002905
1906	0.0005146
1918	0.0006474
1930	0.0004482
1942	0.0002656
1954	0.0001743
1966	2.49e-05
1978	5.81e-05
1990	0.0001079
2002	3.32e-05
2014	8.3e-06
2026	5.81e-05
2038	9.96e-05
2050	5.81e-05
2062	5.81e-05
2074	3.32e-05
2086	0
2098	0
2110	3.32e-05
2122	0.0001079
2134	0.0001909
2146	0.0002407
2158	0.0002407
2170	0.0002075
2182	0.0002656
2194	0.0002822
2206	0.000166
2218	7.47e-05
2230	4.15e-05
2242	0
2254	2.49e-05
2266	7.47e-05
2278	6.64e-05
2290	8.3e-05
2302	0.0002241
2314	0.0004482
2326	0.0006308
2338	0.0006059
2350	0.0006059
2362	0.0007802
2374	0.0005893
2386	0.0002822
2398	0.0001411
2410	0.0001245
2422	0.0001577
2434	0.0002158
2446	0.0002407
2458	0.0002988
2470	0.0003237
2482	0.0003237
2494	0.0003984
2506	0.0004897
2518	0.0005395
2530	0.0005229
2542	0.0004565
2554	0.0004316
2566	0.0003984
2578	0.0003652
2590	0.0003569
2602	0.0003652
2614	0.0004731
2626	0.0007885
2638	0.0007968
2650	0.0009462
2662	0.0011454
2674	0.0011537
2686	0.0009545
2698	0.0007553
2710	0.000664
2722	0.0006723
2734	0.0008881
2746	0.0010292
2758	0.0008632
2770	0.0005478
2782	0.0004897
2794	0.0005478
2806	0.0005478
2818	0.0006059
2830	0.0007636
2842	0.0010043
2854	0.0011122
2866	0.0012201
2878	0.0015272
2890	0.00166
2902	0.0014691
2914	0.0009628
2926	0.0006972
2938	0.0005727
2950	0.000581
2962	0.0006972
2974	0.0008383
2986	0.0007138
2998	0.0004897
3010	0.0004067
3022	0.0003569
3034	0.0002739
3046	0.0002407
3058	0.000415
3070	0.0005561
3082	0.0003818
3094	0.0002822
3106	0.000249
3118	0.0002822
3130	0.0004482
3142	0.0009628
3154	0.0014027
3166	0.0011122
3178	0.0006474
3190	0.0002656
3202	0.0001826
3214	0.0002573
3226	0.0004648
3238	0.0004233
3250	0.0002739
3262	0.0001494
3274	0.0001328
3286	7.47e-05
3298	4.15e-05
3310	5.81e-05
3322	4.98e-05
3334	0
3346	2.49e-05
3358	3.32e-05
3370	6.64e-05
3382	5.81e-05
3394	4.98e-05
3406	8.3e-05
3418	0.0001079
3430	0.0001079
3442	7.47e-05
3454	4.98e-05
3466	7.47e-05
3478	0.0001328
3490	0.000166
3502	0.0001992
3514	0.0002739
3526	0.0003071
3538	0.000332
3550	0.0004814
3562	0.0007138
3574	0.0009296
3586	0.0013446
3598	0.002324
3610	0.0059345
3622	0.0200528
3634	0.0569214
3646	0.0357564
3658	0.0031042
3670	0.0010873
3682	0.000913
3694	0.0009047
3706	0.0006557
3718	0.0004067
3730	0.0003486
3742	0.0002822
3754	0.0002158
3766	0.0001245
3778	9.13e-05
3790	6.64e-05
3802	0.0001328
3814	0.0001328
3826	0.0001079
3838	9.13e-05
