Infrared Spectrum: p-Nitrobenzylcyanide
Formula: C 8 H 6 N 2 O 2
CAS: 555-21-5
State: gas
Origin: EPA-IR VAPOR PHASE LIBRARY
1/CM	ABSORBANCE
549.8	0.0006512
559.445	0.00026637
569.09	0.0005364
578.734	0.0005386
588.379	0.0008113
598.024	0.0006237
607.669	0.000909
617.313	0.0006484
626.958	0.0006745
636.603	0.0009886
646.248	0.001644
655.893	0.002054
665.537	0.002524
675.182	0.003464
684.827	0.004524
694.472	0.005144
704.116	0.004674
713.761	0.004804
723.406	0.007344
733.051	0.011504
742.695	0.009764
752.34	0.005364
761.985	0.002324
771.63	0.001634
781.275	0.003134
790.919	0.007224
800.564	0.007414
810.209	0.007974
819.854	0.009234
829.498	0.010584
839.143	0.013114
848.788	0.019704
858.433	0.023264
868.078	0.007604
877.722	0.002744
887.367	0.001704
897.012	0.001664
906.657	0.001914
916.301	0.002414
925.946	0.002704
935.591	0.002424
945.236	0.001914
954.88	0.001394
964.525	0.0008889
974.17	0.0005629
983.815	0.0007275
993.46	0.0006707
1003.1	0.0012378
1012.75	0.005204
1022.39	0.005394
1032.04	0.0008562
1041.68	0.0005976
1051.33	0.0006413
1060.97	0.0007614
1070.62	0.0007438
1080.26	0.0008172
1089.91	0.001384
1099.55	0.003324
1109.2	0.005874
1118.84	0.003584
1128.49	0.001574
1138.13	0.0009269
1147.78	0.0006041
1157.42	0.0010262
1167.07	0.0012615
1176.71	0.003514
1186.36	0.005424
1196	0.003564
1205.64	0.002224
1215.29	0.001954
1224.93	0.002384
1234.58	0.002734
1244.22	0.002464
1253.87	0.003044
1263.51	0.003584
1273.16	0.003674
1282.8	0.003644
1292.45	0.003974
1302.09	0.005124
1311.74	0.008064
1321.38	0.013214
1331.03	0.021704
1340.67	0.050234
1350.32	0.079064
1359.96	0.051034
1369.61	0.022864
1379.25	0.011284
1388.9	0.006434
1398.54	0.005054
1408.18	0.004924
1417.83	0.006194
1427.47	0.007964
1437.12	0.006504
1446.76	0.005124
1456.41	0.003204
1466.05	0.002934
1475.7	0.004204
1485.34	0.007774
1494.99	0.015604
1504.63	0.015044
1514.28	0.016294
1523.92	0.034714
1533.57	0.064894
1543.21	0.076354
1552.86	0.058494
1562.5	0.030864
1572.15	0.017394
1581.79	0.013114
1591.44	0.015464
1601.08	0.022534
1610.73	0.019314
1620.37	0.010604
1630.01	0.004794
1639.66	0.002754
1649.3	0.002464
1658.95	0.002514
1668.59	0.002214
1678.24	0.001744
1687.88	0.0012247
1697.53	0.0009332
1707.17	0.0007943
1716.82	0.0007071
1726.46	0.0007353
1736.11	0.0007721
1745.75	0.0009227
1755.4	0.000975
1765.04	0.0008699
1774.69	0.0010386
1784.33	0.001644
1793.98	0.001774
1803.62	0.001157
1813.27	0.0005113
1822.91	0.0004771
1832.55	0.0004569
1842.2	0.0004787
1851.84	0.0004491
1861.49	0.0004771
1871.13	0.0005663
1880.78	0.0006483
1890.42	0.0007579
1900.07	0.0009098
1909.71	0.0012026
1919.36	0.001454
1929	0.001474
1938.65	0.0010748
1948.29	0.0005901
1957.94	0.0004057
1967.58	0.00032936
1977.23	0.00035639
1986.87	0.00031483
1996.52	0.00032319
2006.16	0.00030644
2015.81	0.00035663
2025.45	0.00030424
2035.1	0.0002365
2044.74	0.00028588
2054.38	0.000274473
2064.03	0.0002286
2073.67	0.000279382
2083.32	0.000279733
2092.96	0.00029184
2102.61	0.00033719
2112.25	0.00032468
2121.9	0.00029062
2131.54	0.00030547
2141.19	0.0002552
2150.83	0.000280502
2160.48	0.0002391
2170.12	0.000239
2179.77	0.0002411
2189.41	0.0002024
2199.06	0.0002471
2208.7	0.0003196
2218.35	0.00030925
2227.99	0.0003813
2237.64	0.00035871
2247.28	0.0004499
2256.92	0.000629
2266.57	0.0005598
2276.21	0.0005472
2285.86	0.0005162
2295.5	0.0005142
2305.15	0.0004575
2314.79	0.0003742
2324.44	0.0004725
2334.08	0.00041
2343.73	0.0005216
2353.37	0.0004468
2363.02	0.0004202
2372.66	0.0004233
2382.31	0.0004461
2391.95	0.0004459
2401.6	0.0005064
2411.24	0.0004154
2420.89	0.0004284
2430.53	0.0005001
2440.18	0.0004435
2449.82	0.0005668
2459.47	0.0006153
2469.11	0.0004754
2478.75	0.0003953
2488.4	0.00034609
2498.04	0.0002911
2507.69	0.00032471
2517.33	0.0002959
2526.98	0.00032986
2536.62	0.00031242
2546.27	0.00035619
2555.91	0.00035658
2565.56	0.0003968
2575.2	0.0004285
2584.85	0.0004125
2594.49	0.0004287
2604.14	0.000484
2613.78	0.0005741
2623.43	0.00039
2633.07	0.00031228
2642.72	0.0003453
2652.36	0.00033051
2662.01	0.0003715
2671.65	0.00034935
2681.29	0.0005904
2690.94	0.0007282
2700.58	0.0007216
2710.23	0.0007968
2719.87	0.0006811
2729.52	0.0005234
2739.16	0.0005568
2748.81	0.00036909
2758.45	0.0004041
2768.1	0.0004262
2777.74	0.0004232
2787.39	0.0003851
2797.03	0.00030641
2806.68	0.0003976
2816.32	0.0005606
2825.97	0.0007286
2835.61	0.0008828
2845.26	0.0008772
2854.9	0.0010966
2864.55	0.0012507
2874.19	0.001554
2883.84	0.001544
2893.48	0.001454
2903.12	0.0011922
2912.77	0.0011313
2922.41	0.001364
2932.06	0.001724
2941.7	0.001664
2951.35	0.001304
2960.99	0.0011092
2970.64	0.0008848
2980.28	0.0007209
2989.93	0.0007065
2999.57	0.00036094
3009.22	0.0005199
3018.86	0.0006093
3028.51	0.000725
3038.15	0.001304
3047.8	0.002044
3057.44	0.002694
3067.09	0.002594
3076.73	0.002594
3086.38	0.003134
3096.02	0.001544
3105.67	0.0006936
3115.31	0.0004492
3124.95	0.0002274
3134.6	0.0001843
3144.24	0.0001881
3153.89	0.0002434
3163.53	0.0001787
3173.18	0.00033556
3182.82	0.0004009
3192.47	0.000472
3202.11	0.0004109
3211.76	0.0004607
3221.4	0.00029253
3231.05	0.00030888
3240.69	0.0002209
3250.34	0.000153
3259.98	0.000159
3269.63	0.000132
3279.27	4.4e-05
3288.92	0.0001771
3298.56	0.000131
3308.21	0.000208
3317.85	0.000167
3327.49	0.0002125
3337.14	0.0001
3346.78	0.000108
3356.43	1.9e-05
3366.07	0.000126
3375.72	0.000159
3385.36	8.5e-05
3395.01	8e-06
3404.65	0.000153
3414.3	7.3e-05
3423.94	9.2e-05
3433.59	3.6e-05
3443.23	0.0002307
3452.88	0.0002059
3462.52	0.0001923
3472.17	0.0002384
3481.81	0.0002569
3491.46	0.0001845
3501.1	0.000139
3510.75	0.00024
3520.39	0.000164
3530.04	0.0002428
3539.68	0.0001974
3549.32	6.9e-05
3558.97	0.00017
3568.61	0.00035173
3578.26	0.0001849
3587.9	0.0001826
3597.55	0.00026739
3607.19	0.00030224
3616.84	0.000146
3626.48	3.3e-05
3636.13	0.0002415
3645.77	0.00033563
3655.42	0.00033298
3665.06	0.00027009
3674.71	0.00036422
3684.35	0.00031894
3694	0.00031954
3703.64	0.0003767
3713.29	0.0004652
3722.93	0.0004408
3732.58	0.00030963
3742.22	0.0002231
3751.86	0.0001935
3761.51	0.000231
3771.15	0.0002222
3780.8	0.0002586
3790.44	0.000277802
3800.09	0.00032481
3809.73	0.000167
3819.38	0.0002185
3829.02	0.0002211
3838.67	0.000279975
3848.31	0.000228
3857.96	0.00033203
3867.6	0.0004004
3877.25	0.0002614
3886.89	0.0002468
3896.54	0.000263
3906.18	0.0002602
3915.83	0.0003766
3925.47	0.00035939
3935.12	0.000162
3944.76	0.000115
3954.41	5e-05
3964.05	0.000105
3973.69	0.00034443
3983.34	0.00036842
3992.98	0.0003755
