Infrared Spectrum: p-Nitrobenzaldehyde
Formula: C7 H5 N O3
CAS: 555-16-8
State: SOLUTION (CCl4 FOR 3800-1330, CS2 FOR 1330-400 CM^-^1)
Class: COBLENTZ
Instrument: DOW KBr FOREPRISM-GRATING
Instrument parameters: BLAZED AT 3.5, 12.0, 20.0 MICRON AND CHANGED AT 5.0, 7.5, 14.9 MICRON
Sampling: TRANSMISSION
Path length: 0.011 CM, 0.010 CM
Resolution: 2
Origin: DOW CHEMICAL COMPANY
1/CM	TRANSMITTANCE
3806	0.8704
3797	0.8693
3788	0.8698
3779	0.8686
3770	0.8694
3761	0.8691
3752	0.869
3743	0.8694
3734	0.87
3725	0.8707
3716	0.8709
3707	0.8719
3698	0.8722
3689	0.8716
3680	0.8709
3671	0.8711
3662	0.8714
3653	0.8716
3644	0.8719
3635	0.872
3626	0.8729
3617	0.8728
3608	0.8718
3599	0.8716
3590	0.8724
3581	0.8724
3572	0.8723
3563	0.8721
3554	0.8724
3545	0.8732
3536	0.8739
3527	0.8733
3518	0.8736
3509	0.8736
3500	0.8733
3491	0.8731
3482	0.8728
3473	0.8726
3464	0.8722
3455	0.8716
3446	0.871
3437	0.8704
3428	0.8703
3419	0.8701
3410	0.87
3401	0.8701
3392	0.8704
3383	0.8706
3374	0.8708
3365	0.871
3356	0.8711
3347	0.8713
3338	0.8723
3329	0.8715
3320	0.8713
3311	0.8722
3302	0.8711
3293	0.871
3284	0.8713
3275	0.8723
3266	0.8728
3257	0.8735
3248	0.8745
3239	0.8747
3230	0.8746
3221	0.8745
3212	0.8742
3203	0.873
3194	0.8736
3185	0.8725
3176	0.8727
3167	0.8722
3158	0.8715
3149	0.871
3140	0.87
3131	0.8677
3122	0.8665
3113	0.8665
3104	0.8678
3095	0.8718
3086	0.8699
3077	0.8702
3068	0.8707
3059	0.8699
3050	0.87
3041	0.8748
3032	0.8722
3023	0.8705
3014	0.8705
3005	0.8695
2996	0.8674
2987	0.8663
2978	0.8645
2969	0.8631
2960	0.862
2951	0.8636
2942	0.8649
2933	0.8661
2924	0.8678
2915	0.8681
2906	0.8671
2897	0.8644
2888	0.8606
2879	0.8571
2870	0.8564
2861	0.8565
2852	0.8521
2843	0.8391
2834	0.8309
2825	0.8268
2816	0.828
2807	0.8444
2798	0.8526
2789	0.8515
2780	0.8494
2771	0.8518
2762	0.8547
2753	0.8546
2744	0.8496
2735	0.8422
2726	0.8369
2717	0.8433
2708	0.8478
2699	0.8512
2690	0.8529
2681	0.8545
2672	0.8561
2663	0.857
2654	0.8588
2645	0.8591
2636	0.8595
2627	0.8608
2618	0.8612
2609	0.8615
2600	0.862
2591	0.8621
2582	0.8623
2573	0.8627
2564	0.8631
2555	0.8636
2546	0.8641
2537	0.8646
2528	0.8652
2519	0.8656
2510	0.866
2501	0.8664
2492	0.8665
2483	0.8665
2474	0.8676
2465	0.8673
2456	0.8665
2447	0.8666
2438	0.866
2429	0.8654
2420	0.8649
2411	0.8644
2402	0.8648
2393	0.8636
2384	0.8641
2375	0.8653
2366	0.8641
2357	0.8648
2348	0.8643
2339	0.8621
2330	0.8617
2321	0.8611
2312	0.8595
2303	0.8587
2294	0.8588
2285	0.857
2276	0.858
2267	0.8598
2258	0.8613
2249	0.8627
2240	0.8644
2231	0.866
2222	0.8679
2213	0.8674
2204	0.8679
2195	0.8673
2186	0.8671
2177	0.868
2168	0.867
2159	0.8669
2150	0.8669
2141	0.8669
2132	0.8669
2123	0.8671
2114	0.8671
2105	0.8671
2096	0.8662
2087	0.8655
2078	0.8651
2069	0.8643
2060	0.8635
2051	0.8638
2042	0.8627
2033	0.8921
2024	0.8637
2015	0.86
2006	0.8591
1997	0.8967
1988	0.8983
1979	0.8988
1970	0.8993
1961	0.8999
1952	0.9004
1943	0.901
1934	0.9015
1925	0.9024
1916	0.9021
1907	0.9024
1898	0.902
1889	0.9004
1880	0.9009
1871	0.9006
1862	0.8991
1853	0.8985
1844	0.8984
1835	0.8988
1826	0.9
1817	0.8974
1808	0.8975
1799	0.8996
1790	0.9016
1781	0.903
1772	0.9017
1763	0.8999
1754	0.8974
1745	0.8911
1736	0.8822
1727	0.8059
1718	0.5535
1709	0.7377
1700	0.8713
1691	0.8844
1682	0.8695
1673	0.8792
1664	0.8907
1655	0.8903
1646	0.8808
1637	0.8727
1628	0.8709
1619	0.8584
1610	0.7061
1601	0.752
1592	0.7602
1583	0.7429
1574	0.7342
1565	0.6626
1556	0.596
1547	0.5819
1538	0.2399
1529	0.588
1520	0.6978
1511	0.8043
1502	0.8426
1493	0.8541
1484	0.8703
1475	0.8826
1466	0.8844
1457	0.8853
1448	0.8829
1439	0.881
1430	0.8856
1421	0.8821
1412	0.882
1403	0.8888
1394	0.889
1385	0.8674
1376	0.8665
1367	0.8464
1358	0.7715
1349	0.7304
1340	0.7081
1331	0.8293
1322	0.7896
1313	0.8539
1304	0.8673
1295	0.809
1286	0.8624
1277	0.8642
1268	0.8657
1259	0.869
1250	0.8694
1241	0.8695
1232	0.8734
1223	0.8745
1214	0.873
1205	0.8562
1196	0.7148
1187	0.8559
1178	0.8728
1169	0.872
1160	0.8709
1151	0.8717
1142	0.8728
1133	0.8773
1124	0.8767
1115	0.8764
1106	0.8588
1097	0.8705
1088	0.8768
1079	0.8796
1070	0.8826
1061	0.8869
1052	0.8883
1043	0.8911
1034	0.8944
1025	0.898
1016	0.9016
1007	0.8878
998	0.9057
989	0.9164
980	0.9253
971	0.934
962	0.9415
953	0.9483
944	0.9509
935	0.9527
926	0.9542
917	0.9541
908	0.9554
899	0.952
890	0.9429
881	0.9405
872	0.9229
863	0.8741
854	0.817
845	0.8633
836	0.9073
827	0.9053
818	0.8288
809	0.85
800	0.9033
791	0.9128
782	0.9155
773	0.916
764	0.9121
755	0.9074
746	0.8927
737	0.8665
728	0.8946
719	0.896
710	0.8911
701	0.8855
692	0.8788
683	0.8631
674	0.8665
665	0.8841
656	0.8654
647	0.8604
638	0.8599
629	0.8562
620	0.8488
611	0.85
602	0.8496
593	0.8511
584	0.8636
575	0.8503
566	0.8488
557	0.8467
548	0.845
539	0.8434
530	0.8371
521	0.8257
512	0.815
503	0.8066
494	0.7994
485	0.7941
476	0.7901
467	0.7875
458	0.786
449	0.7852
440	0.7801
431	0.7616
422	0.7285
413	0.6709
404	0.3859
395	0.203
386	0.1635
