Infrared Spectrum: N-Phenylmaleamic acid
Formula: C 10 H 9 N O 3
CAS: 555-59-9
State: gas
Origin: EPA-IR VAPOR PHASE LIBRARY
1/CM	ABSORBANCE
549.8	0.000825
559.445	0.000875
569.09	0.0016797
578.734	0.0015111
588.379	0.0017209
598.024	0.0014061
607.669	0.00131651
617.313	0.002194
626.958	0.00275
636.603	0.0016056
646.248	0.001376
655.893	0.0013289
665.537	0.0018487
675.182	0.00247
684.827	0.00389
694.472	0.0062
704.116	0.00646
713.761	0.00326
723.406	0.0019033
733.051	0.0017674
742.695	0.0018432
752.34	0.00237
761.985	0.0019246
771.63	0.0014653
781.275	0.001011
790.919	0.0011502
800.564	0.0011761
810.209	0.0018795
819.854	0.00431
829.498	0.00579
839.143	0.00262
848.788	0.0013913
858.433	0.0014547
868.078	0.0013965
877.722	0.00086
887.367	0.000674
897.012	0.000921
906.657	0.001028
916.301	0.00083
925.946	0.00124129
935.591	0.001422
945.236	0.0017407
954.88	0.0013977
964.525	0.0016833
974.17	0.001126
983.815	0.0013974
993.46	0.0014874
1003.1	0.001225
1012.75	0.0014784
1022.39	0.0014745
1032.04	0.0017197
1041.68	0.0013822
1051.33	0.0017373
1060.97	0.0020539
1070.62	0.0016591
1080.26	0.0013759
1089.91	0.0014491
1099.55	0.0017965
1109.2	0.001042
1118.84	0.0020098
1128.49	0.00386
1138.13	0.00708
1147.78	0.00693
1157.42	0.0052
1167.07	0.00316
1176.71	0.0020048
1186.36	0.0015185
1196	0.00267
1205.64	0.00277
1215.29	0.00131367
1224.93	0.0016717
1234.58	0.0011696
1244.22	0.000988
1253.87	0.0011541
1263.51	0.0012066
1273.16	0.0015119
1282.8	0.0016267
1292.45	0.0014259
1302.09	0.0017144
1311.74	0.0019422
1321.38	0.00225
1331.03	0.00258
1340.67	0.00278
1350.32	0.00403
1359.96	0.00787
1369.61	0.01535
1379.25	0.01901
1388.9	0.01319
1398.54	0.00767
1408.18	0.00487
1417.83	0.00256
1427.47	0.002037
1437.12	0.0017933
1446.76	0.002177
1456.41	0.0020023
1466.05	0.00235
1475.7	0.00244
1485.34	0.00255
1494.99	0.00567
1504.63	0.00839
1514.28	0.00426
1523.92	0.0019245
1533.57	0.0017007
1543.21	0.0015651
1552.86	0.0014716
1562.5	0.0015443
1572.15	0.0016942
1581.79	0.0021909
1591.44	0.00302
1601.08	0.00339
1610.73	0.0018971
1620.37	0.001449
1630.01	0.0014831
1639.66	0.0016984
1649.3	0.0018014
1658.95	0.0018707
1668.59	0.0017289
1678.24	0.0016812
1687.88	0.0019554
1697.53	0.00246
1707.17	0.00409
1716.82	0.00837
1726.46	0.02125
1736.11	0.03589
1745.75	0.02914
1755.4	0.01035
1765.04	0.00537
1774.69	0.00309
1784.33	0.0011885
1793.98	0.00024
1803.62	1e-05
1813.27	0.000293
1822.91	0.00128189
1832.55	0.0014134
1842.2	0.0014462
1851.84	0.0014538
1861.49	0.0014551
1871.13	0.0015208
1880.78	0.0016672
1890.42	0.0016687
1900.07	0.0016277
1909.71	0.0014879
1919.36	0.0015144
1929	0.001578
1938.65	0.001616
1948.29	0.0014923
1957.94	0.0015307
1967.58	0.0014968
1977.23	0.0013523
1986.87	0.0013401
1996.52	0.00128118
2006.16	0.0013408
2015.81	0.00131841
2025.45	0.00129736
2035.1	0.0013472
2044.74	0.0014181
2054.38	0.0013915
2064.03	0.0013815
2073.67	0.0014022
2083.32	0.0014395
2092.96	0.0014306
2102.61	0.001416
2112.25	0.0013481
2121.9	0.0013615
2131.54	0.00130086
2141.19	0.0013157
2150.83	0.0013736
2160.48	0.0013402
2170.12	0.00124613
2179.77	0.00131612
2189.41	0.00129966
2199.06	0.00125828
2208.7	0.00127306
2218.35	0.00133147
2227.99	0.00132679
2237.64	0.00127152
2247.28	0.0013296
2256.92	0.0013967
2266.57	0.0014064
2276.21	0.0013699
2285.86	0.00132817
2295.5	0.0012689
2305.15	0.0014286
2314.79	0.0013721
2324.44	0.00130451
2334.08	0.0014419
2343.73	0.0012134
2353.37	0.0014705
2363.02	0.001405
2372.66	0.00129028
2382.31	0.0014047
2391.95	0.0013442
2401.6	0.00132925
2411.24	0.0013434
2420.89	0.001347
2430.53	0.00129777
2440.18	0.0013555
2449.82	0.00131803
2459.47	0.00131197
2469.11	0.0013972
2478.75	0.00131476
2488.4	0.00127907
2498.04	0.0014081
2507.69	0.0013741
2517.33	0.0013772
2526.98	0.0013931
2536.62	0.0013927
2546.27	0.0013407
2555.91	0.0013518
2565.56	0.0014294
2575.2	0.00132771
2584.85	0.00133602
2594.49	0.00131644
2604.14	0.00127531
2613.78	0.0011634
2623.43	0.001212
2633.07	0.0011662
2642.72	0.00133613
2652.36	0.00123477
2662.01	0.00132544
2671.65	0.00127428
2681.29	0.00127404
2690.94	0.00125265
2700.58	0.00127722
2710.23	0.00128301
2719.87	0.00124823
2729.52	0.0013505
2739.16	0.0011952
2748.81	0.0011667
2758.45	0.0012524
2768.1	0.0013453
2777.74	0.00132555
2787.39	0.0012717
2797.03	0.0012183
2806.68	0.0011508
2816.32	0.00126143
2825.97	0.0011546
2835.61	0.0011858
2845.26	0.00125074
2854.9	0.00127261
2864.55	0.001171
2874.19	0.0011657
2883.84	0.0013431
2893.48	0.001217
2903.12	0.00131294
2912.77	0.0013647
2922.41	0.001436
2932.06	0.001086
2941.7	0.00128696
2951.35	0.0011695
2960.99	0.0012223
2970.64	0.0012283
2980.28	0.00128625
2989.93	0.001048
2999.57	0.0013474
3009.22	0.00128924
3018.86	0.00127719
3028.51	0.001401
3038.15	0.001573
3047.8	0.0021086
3057.44	0.0021329
3067.09	0.0023
3076.73	0.00237
3086.38	0.0021101
3096.02	0.0016955
3105.67	0.001818
3115.31	0.0014458
3124.95	0.00125737
3134.6	0.001122
3144.24	0.001272
3153.89	0.00129869
3163.53	0.00129788
3173.18	0.0013435
3182.82	0.00125055
3192.47	0.0014876
3202.11	0.0012203
3211.76	0.0012074
3221.4	0.0011407
3231.05	0.00129467
3240.69	0.001353
3250.34	0.00131435
3259.98	0.001101
3269.63	0.00123187
3279.27	0.00129321
3288.92	0.001134
3298.56	0.001052
3308.21	0.00124265
3317.85	0.001092
3327.49	0.0011592
3337.14	0.000897
3346.78	0.00124043
3356.43	0.0011701
3366.07	0.001128
3375.72	0.0012545
3385.36	0.0011541
3395.01	0.001017
3404.65	0.00114
3414.3	0.0011726
3423.94	0.001149
3433.59	0.001101
3443.23	0.0011685
3452.88	0.001096
3462.52	0.00131636
3472.17	0.00127866
3481.81	0.0012506
3491.46	0.0015476
3501.1	0.0017061
3510.75	0.0015147
3520.39	0.0011481
3530.04	0.00130553
3539.68	0.00123137
3549.32	0.00128662
3558.97	0.001137
3568.61	0.001065
3578.26	0.00131209
3587.9	0.00108
3597.55	0.00130605
3607.19	0.001055
3616.84	0.00132006
3626.48	0.00109
3636.13	0.000854
3645.77	0.000966
3655.42	0.00131858
3665.06	0.00112
3674.71	0.001111
3684.35	0.0012194
3694	0.001128
3703.64	0.000956
3713.29	0.000942
3722.93	0.0011694
3732.58	0.000962
3742.22	0.0011547
3751.86	0.001284
3761.51	0.001128
3771.15	0.00128012
3780.8	0.0012332
3790.44	0.00094
3800.09	0.0011838
3809.73	0.001112
3819.38	0.0012261
3829.02	0.0012236
3838.67	0.000967
3848.31	0.001044
3857.96	0.0011694
3867.6	0.001113
3877.25	0.0011936
3886.89	0.001035
3896.54	0.001061
3906.18	0.0011565
3915.83	0.001055
3925.47	0.0011443
3935.12	0.00091
3944.76	0.001118
3954.41	0.0011956
3964.05	0.0011655
3973.69	0.00124089
3983.34	0.001138
3992.98	0.00132399
