Infrared Spectrum: Imidazole, 2-methyl-, hydrochloride
Formula: C4 H7 Cl N2
CAS: 55514-31-3
State: LIQUID (NEAT)
Class: COBLENTZ III
Instrument: PERKIN-ELMER 157
Sampling: TRANSMISSION
Path length: CAPILLARY
Resolution: 2
Origin: BRITISH PETROLEUM CO. LTD., ENGLAND
1/CM	TRANSMITTANCE
668	0.6514
677	0.7116
686	0.7052
695	0.6942
704	0.6785
713	0.6598
722	0.6328
731	0.5663
740	0.4651
749	0.3144
758	0.2818
767	0.331
776	0.3864
785	0.491
794	0.5514
803	0.5495
812	0.554
821	0.535
830	0.5108
839	0.4733
848	0.469
857	0.4855
866	0.5084
875	0.5367
884	0.5636
893	0.5697
902	0.5557
911	0.5106
920	0.3976
929	0.6106
938	0.6271
947	0.6348
956	0.6465
965	0.657
974	0.66
983	0.6562
992	0.6725
1001	0.691
1010	0.6988
1019	0.6953
1028	0.663
1037	0.6221
1046	0.5974
1055	0.6372
1064	0.6469
1073	0.6205
1082	0.5553
1091	0.538
1100	0.5935
1109	0.5785
1118	0.6087
1127	0.6742
1136	0.7089
1145	0.7414
1154	0.7499
1163	0.7643
1172	0.7661
1181	0.7665
1190	0.7662
1199	0.7657
1208	0.7654
1217	0.7644
1226	0.7616
1235	0.7564
1244	0.7494
1253	0.7392
1262	0.717
1271	0.6745
1280	0.5888
1289	0.5172
1298	0.476
1307	0.5329
1316	0.6288
1325	0.6867
1334	0.6945
1343	0.7118
1352	0.7121
1361	0.7045
1370	0.6713
1379	0.6168
1388	0.6082
1397	0.5961
1406	0.5797
1415	0.5239
1424	0.5034
1433	0.5123
1442	0.5602
1451	0.59
1460	0.6077
1469	0.6243
1478	0.628
1487	0.6283
1496	0.6252
1505	0.6189
1514	0.6613
1523	0.6604
1532	0.6503
1541	0.6419
1550	0.6209
1559	0.5984
1568	0.5739
1577	0.5422
1586	0.4818
1595	0.4361
1604	0.3344
1613	0.1631
1622	0.1157
1631	0.2661
1640	0.3521
1649	0.4209
1658	0.4458
1667	0.4739
1676	0.5388
1685	0.5628
1694	0.5858
1703	0.5993
1712	0.6112
1721	0.6213
1730	0.6296
1739	0.6325
1748	0.6346
1757	0.6391
1766	0.6431
1775	0.6457
1784	0.6475
1793	0.6482
1802	0.6483
1811	0.6475
1820	0.6458
1829	0.6432
1838	0.6384
1847	0.6341
1856	0.6301
1865	0.6266
1874	0.6234
1883	0.6206
1892	0.6187
1901	0.6174
1910	0.6154
1919	0.6115
1928	0.6069
1937	0.6016
1946	0.5967
1955	0.592
1964	0.5875
1973	0.5833
1982	0.5791
1991	0.5749
2000	0.5707
2009	0.5675
2018	0.5649
2027	0.5624
2036	0.5601
2045	0.5587
2054	0.5582
2063	0.5581
2072	0.5582
2081	0.5586
2090	0.5591
2099	0.5597
2108	0.5605
2117	0.5615
2126	0.5622
2135	0.5624
2144	0.5626
2153	0.5626
2162	0.5623
2171	0.5617
2180	0.5609
2189	0.5574
2198	0.5511
2207	0.5485
2216	0.5476
2225	0.5469
2234	0.5466
2243	0.5465
2252	0.5463
2261	0.5459
2270	0.5456
2279	0.5451
2288	0.5447
2297	0.5424
2306	0.5362
2315	0.5274
2324	0.5195
2333	0.5118
2342	0.4945
2351	0.4821
2360	0.4796
2369	0.4758
2378	0.4696
2387	0.4627
2396	0.4572
2405	0.4519
2414	0.448
2423	0.4473
2432	0.4468
2441	0.4462
2450	0.444
2459	0.4389
2468	0.423
2477	0.4067
2486	0.3965
2495	0.3872
2504	0.3742
2513	0.3504
2522	0.3401
2531	0.3361
2540	0.3267
2549	0.3174
2558	0.3057
2567	0.2936
2576	0.2827
2585	0.2745
2594	0.2728
2603	0.2713
2612	0.2691
2621	0.2586
2630	0.2397
2639	0.2022
2648	0.1732
2657	0.151
2666	0.1243
2675	0.1178
2684	0.1169
2693	0.1172
2702	0.1195
2711	0.1246
2720	0.1319
2729	0.1393
2738	0.1417
2747	0.1417
2756	0.1385
2765	0.127
2774	0.1169
2783	0.1077
2792	0.0975
2801	0.0883
2810	0.0798
2819	0.0717
2828	0.0645
2837	0.0572
2846	0.05
2855	0.0435
2864	0.0383
2873	0.0351
2882	0.0338
2891	0.0333
2900	0.0329
2909	0.0324
2918	0.0319
2927	0.0315
2936	0.0314
2945	0.0315
2954	0.0326
2963	0.0352
2972	0.0378
2981	0.039
2990	0.0402
2999	0.0399
3008	0.0396
3017	0.0391
3026	0.0378
3035	0.0357
3044	0.0336
3053	0.0322
3062	0.0312
3071	0.0312
3080	0.0311
3089	0.0311
3098	0.0313
3107	0.0316
3116	0.0332
3125	0.0369
3134	0.0389
3143	0.0403
3152	0.0413
3161	0.0419
3170	0.0421
3179	0.0421
3188	0.0421
3197	0.0421
3206	0.0419
3215	0.0416
3224	0.0412
3233	0.0407
3242	0.0398
3251	0.0388
3260	0.0373
3269	0.0356
3278	0.0338
3287	0.0321
3296	0.0302
3305	0.0283
3314	0.0268
3323	0.0259
3332	0.0255
3341	0.0253
3350	0.0251
3359	0.0249
3368	0.0248
3377	0.0248
3386	0.0249
3395	0.0249
3404	0.0253
3413	0.0258
3422	0.0267
3431	0.0291
3440	0.0324
3449	0.036
3458	0.0401
3467	0.0458
3476	0.0516
3485	0.0578
3494	0.0644
3503	0.0736
3512	0.1092
3521	0.1167
3530	0.1235
3539	0.129
3548	0.1343
3557	0.1396
3566	0.1486
3575	0.163
3584	0.1976
3593	0.2171
3602	0.2352
3611	0.2453
3620	0.2516
3629	0.256
3638	0.259
3647	0.2616
3656	0.2637
3665	0.2646
3674	0.2654
3683	0.2654
3692	0.2653
3701	0.2651
3710	0.2639
3719	0.2622
3728	0.2593
3737	0.2564
3746	0.2543
3755	0.2524
3764	0.2515
3773	0.2511
3782	0.2507
3791	0.2503
3800	0.2498
3809	0.2495
3818	0.249
3827	0.2482
3836	0.2467
3845	0.2451
3854	0.2432
3863	0.2412
3872	0.2393
3881	0.238
3890	0.2367
3899	0.2359
3908	0.2351
3917	0.2344
3926	0.2335
3935	0.2328
3944	0.2322
3953	0.2315
3962	0.2309
3971	0.2304
3980	0.2298
3989	0.2292
3998	0.2288
