Infrared Spectrum: 2-CYCLOHEXYL-4-TERT-BUTYL CYCLOHEXANOL
Formula: C16 H30 O
CAS: 55538-59-5
State: SOLUTION (10% CCl4 FOR 2.5-7.5, 10% CS2 FOR 7.5-16 MICRON)
Class: COBLENTZ
Instrument: Not specified, most likely a prism, grating, or hybrid spectrometer.
Sampling: TRANSMISSION
Path length: 0.01 CM, 0.01 CM
Resolution: 4
MICROMETERS	TRANSMITTANCE
2.014	0.82
2.05527	0.821
2.09654	0.827
2.13781	0.825
2.17908	0.823
2.22035	0.815
2.26162	0.797
2.30289	0.799
2.34416	0.801
2.38543	0.797
2.4267	0.804
2.46797	0.811
2.50924	0.813
2.55051	0.815
2.59178	0.811
2.63305	0.815
2.67432	0.811
2.71559	0.777
2.75686	0.702
2.79813	0.751
2.8394	0.691
2.88067	0.671
2.92194	0.676
2.96321	0.69
3.00448	0.722
3.04575	0.751
3.08702	0.765
3.12829	0.77
3.16956	0.787
3.21083	0.792
3.2521	0.784
3.29337	0.739
3.33464	0.518
3.37591	0.095
3.41718	0.046
3.45845	0.136
3.49972	0.155
3.54099	0.654
3.58226	0.746
3.62353	0.77
3.6648	0.763
3.70607	0.758
3.74734	0.756
3.78861	0.777
3.82988	0.789
3.87115	0.811
3.91242	0.821
3.95369	0.823
3.99496	0.828
4.03623	0.83
4.0775	0.83
4.11877	0.827
4.16004	0.83
4.20131	0.83
4.24258	0.825
4.28385	0.821
4.32512	0.821
4.36639	0.828
4.40766	0.835
4.44893	0.835
4.4902	0.839
4.53147	0.844
4.57274	0.845
4.61401	0.847
4.65529	0.847
4.69656	0.845
4.73783	0.847
4.7791	0.849
4.82037	0.847
4.86164	0.845
4.90291	0.845
4.94418	0.845
4.98545	0.845
5.02672	0.844
5.06799	0.845
5.10926	0.845
5.15053	0.845
5.1918	0.849
5.23307	0.847
5.27434	0.844
5.31561	0.845
5.35688	0.842
5.39815	0.842
5.43942	0.844
5.48069	0.845
5.52196	0.844
5.56323	0.845
5.6045	0.847
5.64577	0.847
5.68704	0.844
5.72831	0.839
5.76958	0.832
5.81085	0.804
5.85212	0.809
5.89339	0.83
5.93466	0.832
5.97593	0.832
6.0172	0.83
6.05847	0.828
6.09974	0.818
6.14101	0.799
6.18228	0.758
6.22355	0.696
6.26482	0.623
6.30609	0.583
6.34736	0.547
6.38863	0.482
6.4299	0.44
6.47117	0.501
6.51244	0.573
6.55371	0.611
6.59498	0.635
6.63625	0.678
6.67752	0.686
6.71879	0.53
6.76006	0.462
6.80133	0.496
6.8426	0.422
6.88387	0.291
6.92514	0.607
6.96641	0.702
7.00768	0.712
7.04895	0.71
7.09022	0.693
7.13149	0.589
7.17276	0.551
7.21403	0.614
7.2553	0.525
7.29657	0.332
7.33784	0.582
7.37911	0.635
7.42038	0.674
7.46165	0.702
7.50292	0.708
7.54419	0.71
7.58546	0.698
7.62673	0.69
7.668	0.691
7.70927	0.695
7.75054	0.695
7.79181	0.681
7.83308	0.652
7.87435	0.63
7.91562	0.642
7.95689	0.666
7.99816	0.613
8.03943	0.563
8.0807	0.561
8.12197	0.592
8.16324	0.626
8.20451	0.652
8.24578	0.654
8.28705	0.679
8.32832	0.712
8.36959	0.714
8.41086	0.705
8.45213	0.726
8.4934	0.703
8.53467	0.717
8.57594	0.743
8.61721	0.753
8.65848	0.756
8.69975	0.739
8.74102	0.726
8.78229	0.722
8.82356	0.72
8.86483	0.715
8.9061	0.71
8.94737	0.69
8.98864	0.683
9.02991	0.719
9.07118	0.731
9.11245	0.734
9.15372	0.726
9.19499	0.722
9.23626	0.719
9.27753	0.707
9.3188	0.671
9.36007	0.633
9.40134	0.566
9.44261	0.469
9.48388	0.376
9.52515	0.416
9.56642	0.402
9.60769	0.4
9.64896	0.515
9.69023	0.618
9.7315	0.672
9.77277	0.696
9.81404	0.7
9.85531	0.703
9.89659	0.681
9.93786	0.63
9.97913	0.561
10.0204	0.563
10.0617	0.633
10.1029	0.691
10.1442	0.715
10.1855	0.741
10.2267	0.734
10.268	0.712
10.3093	0.734
10.3506	0.772
10.3918	0.792
10.4331	0.799
10.4744	0.775
10.5156	0.755
10.5569	0.755
10.5982	0.772
10.6394	0.792
10.6807	0.775
10.722	0.744
10.7633	0.741
10.8045	0.751
10.8458	0.734
10.8871	0.734
10.9283	0.744
10.9696	0.784
11.0109	0.808
11.0521	0.818
11.0934	0.806
11.1347	0.758
11.176	0.667
11.2172	0.628
11.2585	0.714
11.2998	0.734
11.341	0.722
11.3823	0.715
11.4236	0.708
11.4648	0.695
11.5061	0.667
11.5474	0.66
11.5887	0.655
11.6299	0.65
11.6712	0.631
11.7125	0.595
11.7537	0.582
11.795	0.633
11.8363	0.7
11.8775	0.736
11.9188	0.751
11.9601	0.76
12.0014	0.784
12.0426	0.799
12.0839	0.806
12.1252	0.811
12.1664	0.813
12.2077	0.813
12.249	0.808
12.2902	0.803
12.3315	0.803
12.3728	0.806
12.4141	0.813
12.4553	0.815
12.4966	0.809
12.5379	0.803
12.5791	0.803
12.6204	0.803
12.6617	0.804
12.703	0.803
12.7442	0.803
12.7855	0.806
12.8268	0.809
12.868	0.809
12.9093	0.809
12.9506	0.809
12.9918	0.808
13.0331	0.801
13.0744	0.789
13.1157	0.787
13.1569	0.792
13.1982	0.801
13.2395	0.803
13.2807	0.803
13.322	0.803
13.3633	0.799
13.4045	0.794
13.4458	0.789
13.4871	0.784
13.5284	0.78
13.5696	0.775
13.6109	0.77
13.6522	0.767
13.6934	0.763
13.7347	0.76
13.776	0.756
13.8172	0.753
13.8585	0.748
13.8998	0.743
13.9411	0.736
13.9823	0.729
14.0236	0.722
14.0649	0.714
14.1061	0.707
14.1474	0.702
14.1887	0.693
14.2299	0.688
14.2712	0.683
14.3125	0.679
14.3538	0.672
14.395	0.666
14.4363	0.657
14.4776	0.648
14.5188	0.64
14.5601	0.628
14.6014	0.619
14.6426	0.611
14.6839	0.604
14.7252	0.594
14.7665	0.594
14.8077	0.587
14.849	0.58
14.8903	0.57
14.9315	0.559
14.9728	0.559
15.0141	0.554
15.0553	0.542
15.0966	0.53
15.1379	0.52
15.1792	0.51
15.2204	0.501
15.2617	0.491
15.303	0.482
15.3442	0.476
15.3855	0.469
15.4268	0.462
15.468	0.457
15.5093	0.45
15.5506	0.443
15.5919	0.438
15.6331	0.436
15.6744	0.429
15.7157	0.426
15.7569	0.421
15.7982	0.417
15.8395	0.414
15.8807	0.414
15.922	0.419
15.9633	0.436
