Infrared Spectrum: 2,2-Diphenylpropionitrile
Formula: C 15 H 13 N
CAS: 5558-67-8
State: gas
Origin: EPA-IR VAPOR PHASE LIBRARY
1/CM	ABSORBANCE
549.8	0.003542
559.445	0.002292
569.09	0.001912
578.735	0.002742
588.38	0.004102
598.025	0.008662
607.67	0.006652
617.315	0.003392
626.96	0.003982
636.605	0.009662
646.251	0.004842
655.896	0.004612
665.541	0.008262
675.186	0.015862
684.831	0.035432
694.476	0.071542
704.121	0.054012
713.766	0.022062
723.411	0.011202
733.056	0.011932
742.701	0.026482
752.346	0.038042
761.991	0.030782
771.636	0.014232
781.281	0.005492
790.926	0.003272
800.571	0.002322
810.216	0.002072
819.861	0.001752
829.507	0.001582
839.152	0.0014776
848.797	0.0012466
858.442	0.0011944
868.087	0.0015225
877.732	0.001702
887.377	0.001722
897.022	0.001662
906.667	0.002572
916.312	0.002992
925.957	0.001992
935.602	0.0014842
945.247	0.0011945
954.892	0.000987
964.537	0.0009266
974.182	0.0010763
983.827	0.0014905
993.472	0.002172
1003.12	0.003352
1012.76	0.005922
1022.41	0.018582
1032.05	0.018362
1041.7	0.005632
1051.34	0.003432
1060.99	0.006942
1070.63	0.012022
1080.28	0.008282
1089.92	0.004332
1099.57	0.003522
1109.21	0.002712
1118.86	0.001982
1128.5	0.002072
1138.15	0.001972
1147.79	0.0015346
1157.44	0.0013428
1167.08	0.001622
1176.73	0.002992
1186.37	0.008042
1196.02	0.010132
1205.66	0.010022
1215.31	0.007252
1224.95	0.004042
1234.6	0.002752
1244.24	0.001872
1253.89	0.001612
1263.53	0.001622
1273.18	0.001842
1282.82	0.001982
1292.47	0.001752
1302.11	0.001732
1311.76	0.001842
1321.4	0.001842
1331.05	0.002132
1340.69	0.001832
1350.34	0.001494
1359.98	0.002052
1369.63	0.004542
1379.27	0.010082
1388.92	0.006812
1398.56	0.002462
1408.21	0.002222
1417.85	0.002992
1427.5	0.005112
1437.14	0.011532
1446.79	0.021542
1456.43	0.018512
1466.08	0.011202
1475.73	0.010252
1485.37	0.021972
1495.02	0.033112
1504.66	0.015882
1514.31	0.006032
1523.95	0.003492
1533.6	0.002652
1543.24	0.001912
1552.89	0.001652
1562.53	0.001862
1572.18	0.003012
1581.82	0.006072
1591.47	0.012092
1601.11	0.014612
1610.76	0.006322
1620.4	0.002152
1630.05	0.0013981
1639.69	0.0012486
1649.34	0.0012982
1658.98	0.001782
1668.63	0.002362
1678.27	0.001992
1687.92	0.0012015
1697.56	0.001015
1707.21	0.0010723
1716.85	0.0012899
1726.5	0.0015267
1736.14	0.001822
1745.79	0.002212
1755.43	0.001912
1765.08	0.001502
1774.72	0.001772
1784.37	0.002762
1794.01	0.005282
1803.66	0.004292
1813.3	0.002152
1822.95	0.001562
1832.59	0.0012529
1842.24	0.0012529
1851.88	0.0015142
1861.53	0.001962
1871.17	0.002872
1880.82	0.003292
1890.46	0.003242
1900.11	0.002382
1909.75	0.0013912
1919.4	0.0013584
1929.04	0.001972
1938.69	0.003602
1948.33	0.004132
1957.98	0.003992
1967.62	0.002612
1977.27	0.0011229
1986.91	0.0009036
1996.56	0.0006877
2006.2	0.00057802
2015.85	0.00057485
2025.49	0.000554098
2035.14	0.00054446
2044.78	0.0005419
2054.43	0.0005284
2064.07	0.0005046
2073.72	0.000463
2083.36	0.0004765
2093.01	0.0004591
2102.65	0.000439
2112.3	0.0004706
2121.94	0.0004792
2131.59	0.000415
2141.23	0.000428
2150.88	0.000397
2160.52	0.000436
2170.17	0.0004767
2179.81	0.000504
2189.46	0.0004679
2199.1	0.0005003
2208.75	0.0005401
2218.39	0.00062415
2228.04	0.0010958
2237.68	0.001622
2247.33	0.0011282
2256.97	0.0006732
2266.62	0.0005289
2276.26	0.0005054
2285.91	0.000558688
2295.55	0.0006523
2305.2	0.0005958
2314.84	0.0009618
2324.49	0.0010561
2334.13	0.0006692
2343.78	0.0009384
2353.42	0.0010169
2363.07	0.0008603
2372.72	0.000772
2382.36	0.0006928
2392.01	0.0007517
2401.65	0.0007089
2411.3	0.0008058
2420.94	0.0006886
2430.59	0.00059199
2440.23	0.0005371
2449.88	0.000519
2459.52	0.000448
2469.17	0.0005254
2478.81	0.0004625
2488.46	0.0004774
2498.1	0.00054736
2507.75	0.00054877
2517.39	0.0004785
2527.04	0.000416
2536.68	0.00039
2546.33	0.000407
2555.97	0.000443
2565.62	0.00056854
2575.26	0.0004982
2584.91	0.00057783
2594.55	0.0007367
2604.2	0.0006691
2613.84	0.00064183
2623.49	0.00062159
2633.13	0.0006532
2642.78	0.000511
2652.42	0.000556483
2662.07	0.0005175
2671.71	0.000502
2681.36	0.0005266
2691	0.0004827
2700.65	0.000423
2710.29	0.000412
2719.94	0.00039
2729.58	0.0004822
2739.23	0.000446
2748.87	0.00056972
2758.52	0.0004651
2768.16	0.00057733
2777.81	0.00064556
2787.45	0.0007051
2797.1	0.0007416
2806.74	0.000657
2816.39	0.0006916
2826.03	0.0008794
2835.68	0.0008396
2845.32	0.0008095
2854.97	0.0009405
2864.61	0.0012722
2874.26	0.001852
2883.9	0.003082
2893.55	0.003312
2903.19	0.002732
2912.84	0.002542
2922.48	0.002562
2932.13	0.003062
2941.77	0.006492
2951.42	0.008682
2961.06	0.004612
2970.71	0.003172
2980.35	0.005152
2990	0.019942
2999.64	0.030022
3009.29	0.012392
3018.93	0.009802
3028.58	0.016042
3038.22	0.022622
3047.87	0.018992
3057.51	0.021632
3067.16	0.040112
3076.8	0.040562
3086.45	0.022562
3096.09	0.018182
3105.74	0.012122
3115.38	0.006752
3125.03	0.003252
3134.67	0.001892
3144.32	0.0013461
3153.96	0.0012324
3163.61	0.0013938
3173.25	0.0010693
3182.9	0.0006713
3192.54	0.000446
3202.19	0.000358
3211.83	0.000339
3221.48	0.0004
3231.12	0.000432
3240.77	0.00044
3250.41	0.000445
3260.06	0.00054962
3269.7	0.00054845
3279.35	0.000415
3289	0.000408
3298.64	0.0005099
3308.29	0.00043
3317.93	0.000147
3327.58	0.000301
3337.22	0.000108
3346.87	0.000109
3356.51	0.00013
3366.16	0.00027
3375.8	0.000413
3385.45	0.000278
3395.09	0.000158
3404.74	0.000114
3414.38	0.000333
3424.03	0.000294
3433.67	0.000316
3443.32	0.000181
3452.96	0.000201
3462.61	0.000309
3472.25	0.000161
3481.9	7e-05
3491.54	5.9e-05
3501.19	5.5e-05
3510.83	0.000122
3520.48	0.000192
3530.12	0.000171
3539.77	8.3e-05
3549.41	0.000163
3559.06	0.000263
3568.7	0.000186
3578.35	0.000111
3587.99	0.000131
3597.64	0.000335
3607.28	0.000227
3616.93	0.000289
3626.57	0.000322
3636.22	0.000305
3645.86	0.000531
3655.51	0.0005069
3665.15	0.000322
3674.8	0.000402
3684.44	0.0004551
3694.09	0.0005435
3703.73	0.00056414
3713.38	0.00055944
3723.02	0.000415
3732.67	0.000414
3742.31	0.000395
3751.96	0.000301
3761.6	0.000357
3771.25	0.00028
3780.89	0.000166
3790.54	0.000154
3800.18	6.2e-05
3809.83	0.000222
3819.47	0.000118
3829.12	0.000413
3838.76	0.000122
3848.41	0.000161
3858.05	0.000148
3867.7	0.000204
3877.34	0.000297
3886.99	0.000296
3896.63	0.000444
3906.28	0.000263
3915.92	0.000443
3925.57	0.000323
3935.21	0.000298
3944.86	0.000325
3954.5	0.0003
3964.15	0.000369
3973.79	0.00025
3983.44	0.000345
3993.08	0.000162
