Infrared Spectrum: .alpha.-Propylphenylacetonitrile
Formula: C 11 H 13 N
CAS: 5558-78-1
State: gas
Origin: EPA-IR VAPOR PHASE LIBRARY
1/CM	ABSORBANCE
549.8	0.0038996
559.445	0.0043296
569.09	0.0045496
578.734	0.0039396
588.379	0.0021096
598.024	0.0013596
607.669	0.0019296
617.313	0.0019096
626.958	0.0020896
636.603	0.0038396
646.248	0.0032096
655.893	0.0044896
665.537	0.0074396
675.182	0.0121696
684.827	0.0258496
694.472	0.0521496
704.116	0.0434196
713.761	0.0214796
723.406	0.0174196
733.051	0.0209096
742.695	0.0284796
752.34	0.0307696
761.985	0.0194796
771.63	0.0095096
781.275	0.0060896
790.919	0.0038196
800.564	0.0025696
810.209	0.0024596
819.854	0.0023196
829.498	0.0020796
839.143	0.0018896
848.788	0.0019196
858.433	0.0017096
868.078	0.0015396
877.722	0.0019296
887.367	0.0020096
897.012	0.0026696
906.657	0.0028596
916.301	0.0026096
925.946	0.0020596
935.591	0.0021996
945.236	0.0020596
954.88	0.0015496
964.525	0.0011896
974.17	0.0013596
983.815	0.0014196
993.46	0.0018496
1003.1	0.0025396
1012.75	0.0023396
1022.39	0.0052096
1032.04	0.0074796
1041.68	0.0030996
1051.33	0.0024296
1060.97	0.0034396
1070.62	0.0049696
1080.26	0.0045996
1089.91	0.0036896
1099.55	0.0046996
1109.2	0.0049896
1118.84	0.0037896
1128.49	0.0017496
1138.13	0.0010996
1147.78	0.0006575
1157.42	0.0007876
1167.07	0.0007509
1176.71	0.0013496
1186.36	0.0018296
1196	0.0015896
1205.64	0.0013696
1215.29	0.0017696
1224.93	0.0016196
1234.58	0.0018196
1244.22	0.0021496
1253.87	0.0018596
1263.51	0.0020296
1273.16	0.0028596
1282.8	0.0033996
1292.45	0.0039796
1302.09	0.0046496
1311.74	0.0050996
1321.38	0.0054396
1331.03	0.0058296
1340.67	0.0067296
1350.32	0.0064096
1359.96	0.0051696
1369.61	0.0047796
1379.25	0.0058496
1388.9	0.0069196
1398.54	0.0047796
1408.18	0.0032696
1417.83	0.0033996
1427.47	0.0044896
1437.12	0.0079496
1446.76	0.0173396
1456.41	0.0237196
1466.05	0.0197596
1475.7	0.0146296
1485.34	0.0146696
1494.99	0.0220996
1504.63	0.0163296
1514.28	0.0046896
1523.92	0.0028396
1533.57	0.0027096
1543.21	0.0021096
1552.86	0.0018196
1562.5	0.0018496
1572.15	0.0024696
1581.79	0.0042596
1591.44	0.0080296
1601.08	0.0100596
1610.73	0.0060096
1620.37	0.0025196
1630.01	0.0015596
1639.66	0.0013596
1649.3	0.0014496
1658.95	0.0015296
1668.59	0.0013696
1678.24	0.0010237
1687.88	0.0007709
1697.53	0.0008042
1707.17	0.0008179
1716.82	0.000984
1726.46	0.0012396
1736.11	0.0014996
1745.75	0.0016296
1755.4	0.0012896
1765.04	0.0009172
1774.69	0.0012596
1784.33	0.0020896
1793.98	0.0036496
1803.62	0.0028596
1813.27	0.0015296
1822.91	0.0010402
1832.55	0.0008318
1842.2	0.000864
1851.84	0.0012296
1861.49	0.0018196
1871.13	0.0023796
1880.78	0.0023496
1890.42	0.0020296
1900.07	0.0011996
1909.71	0.0007849
1919.36	0.0008895
1929	0.0015896
1938.65	0.0027496
1948.29	0.0030596
1957.94	0.0028196
1967.58	0.0017196
1977.23	0.0006403
1986.87	0.0004616
1996.52	0.0003898
2006.16	0.000338
2015.81	0.0003798
2025.45	0.000425
2035.1	0.0003731
2044.74	0.000481
2054.38	0.0004147
2064.03	0.0003939
2073.67	0.0003256
2083.32	0.0003249
2092.96	0.0003086
2102.61	0.0002956
2112.25	0.0002754
2121.9	0.0002974
2131.54	0.0002835
2141.19	0.0002147
2150.83	0.0002041
2160.48	0.0002648
2170.12	0.0003059
2179.77	0.0004003
2189.41	0.0004649
2199.06	0.0004324
2208.7	0.0004788
2218.35	0.0006174
2227.99	0.0011696
2237.64	0.0025096
2247.28	0.0026696
2256.92	0.0013296
2266.57	0.0007867
2276.21	0.0007081
2285.86	0.0006171
2295.5	0.0006278
2305.15	0.0005764
2314.79	0.0008693
2324.44	0.0007893
2334.08	0.0006844
2343.73	0.0008809
2353.37	0.0008663
2363.02	0.0008064
2372.66	0.0008603
2382.31	0.0008136
2391.95	0.0008036
2401.6	0.0007847
2411.24	0.0008356
2420.89	0.000708
2430.53	0.0007055
2440.18	0.0006237
2449.82	0.0006056
2459.47	0.0005655
2469.11	0.0004831
2478.75	0.0004161
2488.4	0.0004964
2498.04	0.0005394
2507.69	0.0005084
2517.33	0.0005282
2526.98	0.0005712
2536.62	0.0006681
2546.27	0.0007848
2555.91	0.0008163
2565.56	0.0008024
2575.2	0.0007739
2584.85	0.0007905
2594.49	0.0008125
2604.14	0.0007684
2613.78	0.0007114
2623.43	0.0007576
2633.07	0.0008751
2642.72	0.0008829
2652.36	0.0008998
2662.01	0.0009552
2671.65	0.0009228
2681.29	0.0009263
2690.94	0.0007958
2700.58	0.000758
2710.23	0.0007256
2719.87	0.0008748
2729.52	0.0009319
2739.16	0.0013796
2748.81	0.0018996
2758.45	0.0018296
2768.1	0.0018096
2777.74	0.0018896
2787.39	0.0021696
2797.03	0.0023396
2806.68	0.0025496
2816.32	0.0029096
2825.97	0.0034896
2835.61	0.0042196
2845.26	0.0054396
2854.9	0.0083996
2864.55	0.0158896
2874.19	0.0272696
2883.84	0.0351796
2893.48	0.0293696
2903.12	0.0225396
2912.77	0.0236996
2922.41	0.0301096
2932.06	0.0449396
2941.7	0.0664596
2951.35	0.0721696
2960.99	0.0700896
2970.64	0.0841396
2980.28	0.0586096
2989.93	0.0230596
2999.57	0.0130196
3009.22	0.0115296
3018.86	0.0141496
3028.51	0.0236096
3038.15	0.0297596
3047.8	0.0214396
3057.44	0.0176296
3067.09	0.0281496
3076.73	0.0324996
3086.38	0.0211096
3096.02	0.0155396
3105.67	0.0106196
3115.31	0.0069096
3124.95	0.0039896
3134.6	0.0023296
3144.24	0.0018696
3153.89	0.0016396
3163.53	0.0017396
3173.18	0.0017196
3182.82	0.0015096
3192.47	0.0012696
3202.11	0.0010696
3211.76	0.0007207
3221.4	0.000853
3231.05	0.0007694
3240.69	0.0007623
3250.34	0.0005368
3259.98	0.0004601
3269.63	0.0004663
3279.27	0.0002721
3288.92	0.0003187
3298.56	0.0001842
3308.21	0.00010165
3317.85	0.0001746
3327.49	0.0002027
3337.14	0.0003017
3346.78	0.0002264
3356.43	0.0003397
3366.07	0.0002894
3375.72	0.0002901
3385.36	0.0002107
3395.01	0.0002364
3404.65	0.000159
3414.3	0.0002287
3423.94	0.0002546
3433.59	0.0001981
3443.23	0.0002238
3452.88	9.026e-05
3462.52	0.000196
3472.17	0.0002001
3481.81	0.0002686
3491.46	0.0002191
3501.1	0.0001935
3510.75	0.0002889
3520.39	0.0001674
3530.04	2.29e-05
3539.68	0.000227
3549.32	2.99e-05
3558.97	0.0001879
3568.61	0.0001794
3578.26	0.0002218
3587.9	0.0001253
3597.55	0.0001696
3607.19	0.0002828
3616.84	0.0003424
3626.48	0.000203
3636.13	0.0002877
3645.77	0.0003842
3655.42	0.0005339
3665.06	0.0004709
3674.71	0.0004234
3684.35	0.0004534
3694	0.0005703
3703.64	0.000524
3713.29	0.0005592
3722.93	0.0004605
3732.58	0.0002953
3742.22	0.0002726
3751.86	0.0003018
3761.51	0.0003433
3771.15	0.0005091
3780.8	0.0004158
3790.44	0.0005221
3800.09	0.0003827
3809.73	0.0003207
3819.38	0.0004144
3829.02	0.0003868
3838.67	0.000216
3848.31	0.0003901
3857.96	0.0002698
3867.6	0.0003006
3877.25	0.0002065
3886.89	0.0003211
3896.54	0.0001794
3906.18	0.000451
3915.83	0.0003048
3925.47	0.000372
3935.12	0.00011713
3944.76	0.0004851
3954.41	0.0004107
3964.05	0.0003635
3973.69	0.0005586
3983.34	0.0004968
3992.98	0.0006623
