Infrared Spectrum: OCTANETHIOIC ACID, HEXYL ESTER
Formula: C14 H28 O S
CAS: 55590-85-7
State: SOLUTION (11% IN CCl4 FOR 4000-1325, 11% IN CS2 FOR 1325-470 CM^-^1) VS. SOLVENT
Class: COBLENTZ III
Instrument: CARY 90 (GRATING)
Instrument parameters: GRATING CHANGES AT 3000, 2000, 1200 CM^-^1
Sampling: TRANSMISSION
Path length: 0.011, 0.011 CM
Resolution: 4
Origin: WESTERN REGIONAL RES. USDA
1/CM	TRANSMITTANCE
454.204	0.828
463.26	0.86
472.315	0.89
481.371	0.912
490.427	0.926
499.482	0.936
508.538	0.943
517.594	0.948
526.649	0.951
535.705	0.951
544.761	0.948
553.816	0.941
562.872	0.933
571.928	0.923
580.983	0.909
590.039	0.889
599.095	0.855
608.15	0.837
617.206	0.866
626.262	0.878
635.317	0.904
644.373	0.925
653.429	0.943
662.484	1.004
671.54	1.01
680.596	1.006
689.651	0.985
698.707	0.87
707.763	0.939
716.818	0.878
725.874	0.73
734.93	0.818
743.985	0.847
753.041	0.837
762.096	0.839
771.152	0.877
780.208	0.925
789.263	0.942
798.319	0.947
807.375	0.943
816.43	0.956
825.486	0.998
834.542	1.01
843.597	1.007
852.653	0.989
861.709	0.966
870.764	0.952
879.82	0.94
888.876	0.933
897.931	0.944
906.987	0.958
916.043	0.945
925.098	0.903
934.154	0.835
943.21	0.741
952.265	0.704
961.321	0.692
970.377	0.588
979.432	0.562
988.488	0.561
997.544	0.551
1006.6	0.573
1015.66	0.598
1024.71	0.606
1033.77	0.582
1042.82	0.545
1051.88	0.6
1060.93	0.729
1069.99	0.801
1079.04	0.85
1088.1	0.869
1097.16	0.894
1106.21	0.885
1115.27	0.788
1124.32	0.651
1133.38	0.75
1142.43	0.827
1151.49	0.922
1160.55	0.953
1169.6	0.907
1178.66	0.87
1187.71	0.875
1196.77	0.887
1205.82	0.903
1214.88	0.903
1223.94	0.942
1232.99	0.919
1242.05	0.875
1251.1	0.859
1260.16	0.785
1269.21	0.863
1278.27	0.86
1287.32	0.798
1296.38	0.806
1305.44	0.818
1314.49	0.852
1323.55	0.877
1332.6	0.854
1341.66	0.797
1350.71	0.811
1359.77	0.83
1368.83	0.826
1377.88	0.669
1386.94	0.844
1395.99	0.863
1405.05	0.7949
1414.1	0.68
1423.16	0.745
1432.22	0.713
1441.27	0.666
1450.33	0.5559
1459.38	0.399
1468.44	0.381
1477.49	0.806
1486.55	0.859
1495.61	0.881
1504.66	0.888
1513.72	0.899
1522.77	0.905
1531.83	0.9
1540.88	0.895
1549.94	0.892
1558.99	0.898
1568.05	0.898
1577.11	0.894
1586.16	0.894
1595.22	0.892
1604.27	0.891
1613.33	0.883
1622.38	0.875
1631.44	0.868
1640.5	0.843
1649.55	0.797
1658.61	0.749
1667.66	0.6569
1676.72	0.3249
1685.77	0.046
1694.83	0.025
1703.89	0.2501
1712.94	0.585
1722	0.728
1731.05	0.789
1740.11	0.817
1749.16	0.837
1758.22	0.852
1767.27	0.864
1776.33	0.874
1785.39	0.885
1794.44	0.881
1803.5	0.885
1812.55	0.883
1821.61	0.882
1830.66	0.881
1839.72	0.881
1848.78	0.877
1857.83	0.889
1866.89	0.883
1875.94	0.882
1885	0.885
1894.05	0.88
1903.11	0.875
1912.17	0.879
1921.22	0.88
1930.28	0.877
1939.33	0.871
1948.39	0.865
1957.44	0.863
1966.5	0.865
1975.56	0.87
1984.61	0.873
1993.67	0.875
2002.72	0.8795
2011.78	0.947
2020.83	0.9445
2029.89	0.944
2038.94	0.9435
2048	0.943
2057.06	0.942
2066.11	0.941
2075.17	0.941
2084.22	0.94
2093.28	0.94
2102.33	0.94
2111.39	0.94
2120.45	0.937
2129.5	0.937
2138.56	0.9366
2147.61	0.935
2156.67	0.934
2165.72	0.933
2174.78	0.933
2183.84	0.933
2192.89	0.933
2201.95	0.933
2211	0.932
2220.06	0.932
2229.11	0.931
2238.17	0.93
2247.23	0.93
2256.28	0.928
2265.34	0.928
2274.39	0.928
2283.45	0.927
2292.5	0.927
2301.56	0.926
2310.61	0.926
2319.67	0.926
2328.73	0.926
2337.78	0.926
2346.84	0.926
2355.89	0.925
2364.95	0.924
2374	0.923
2383.06	0.923
2392.12	0.9233
2401.17	0.9243
2410.23	0.9256
2419.28	0.927
2428.34	0.928
2437.39	0.9286
2446.45	0.93
2455.51	0.93
2464.56	0.931
2473.62	0.931
2482.67	0.931
2491.73	0.932
2500.78	0.932
2509.84	0.931
2518.89	0.93
2527.95	0.927
2537.01	0.925
2546.06	0.9225
2555.12	0.919
2564.17	0.917
2573.23	0.9138
2582.28	0.9128
2591.34	0.913
2600.4	0.9128
2609.45	0.909
2618.51	0.907
2627.56	0.9038
2636.62	0.8998
2645.67	0.8936
2654.73	0.8888
2663.79	0.8858
2672.84	0.8788
2681.9	0.879
2690.95	0.881
2700.01	0.8852
2709.06	0.885
2718.12	0.881
2727.18	0.8778
2736.23	0.8721
2745.29	0.8821
2754.34	0.887
2763.4	0.888
2772.45	0.8847
2781.51	0.8784
2790.56	0.8608
2799.62	0.8464
2808.68	0.8243
2817.73	0.7881
2826.79	0.7365
2835.84	0.6609
2844.9	0.3451
2853.95	0.1158
2863.01	0.1569
2872.07	0.182
2881.12	0.4162
2890.18	0.334
2899.23	0.2262
2908.29	0.1419
2917.34	0.0584
2926.4	0.0179
2935.46	0.0233
2944.51	0.0921
2953.57	0.0589
2962.62	0.0495
2971.68	0.2897
2980.73	0.5641
2989.79	0.6963
2998.84	0.7663
3007.9	0.8041
3016.96	0.8301
3026.01	0.85
3035.07	0.866
3044.12	0.879
3053.18	0.889
3062.23	0.897
3071.29	0.903
3080.35	0.907
3089.4	0.912
3098.46	0.912
3107.51	0.913
3116.57	0.914
3125.62	0.916
3134.68	0.918
3143.74	0.9209
3152.79	0.922
3161.85	0.922
3170.9	0.9191
3179.96	0.9161
3189.01	0.9131
3198.07	0.91
3207.13	0.908
3216.18	0.909
3225.24	0.912
3234.29	0.914
3243.35	0.915
3252.4	0.917
3261.46	0.918
3270.51	0.919
3279.57	0.9229
3288.63	0.925
3297.68	0.927
3306.74	0.9261
3315.79	0.924
3324.85	0.9193
3333.9	0.9151
3342.96	0.9091
3352.02	0.904
3361.07	0.901
3370.13	0.9027
3379.18	0.9058
3388.24	0.9117
3397.29	0.913
3406.35	0.914
3415.41	0.914
3424.46	0.912
3433.52	0.909
3442.57	0.908
3451.63	0.908
3460.68	0.9116
3469.74	0.9148
3478.8	0.9178
3487.85	0.921
3496.91	0.924
3505.96	0.9268
3515.02	0.928
3524.07	0.928
3533.13	0.928
3542.18	0.927
3551.24	0.926
3560.3	0.9232
3569.35	0.9195
3578.41	0.9172
3587.46	0.915
3596.52	0.913
3605.57	0.912
3614.63	0.912
3623.69	0.913
3632.74	0.913
3641.8	0.9147
3650.85	0.916
3659.91	0.9143
3668.96	0.913
3678.02	0.9123
3687.08	0.91
3696.13	0.9083
3705.19	0.908
3714.24	0.909
3723.3	0.91
3732.35	0.912
3741.41	0.914
3750.46	0.9157
3759.52	0.9177
3768.58	0.9187
3777.63	0.919
3786.69	0.918
3795.74	0.9164
3804.8	0.9144
3813.85	0.9124
3822.91	0.9094
3831.97	0.907
3841.02	0.905
3850.08	0.903
3859.13	0.899
3868.19	0.897
3877.24	0.895
3886.3	0.891
3895.36	0.888
3904.41	0.885
3913.47	0.881
3922.52	0.882
3931.58	0.883
3940.63	0.886
3949.69	0.886
3958.75	0.886
3967.8	0.885
3976.86	0.883
3985.91	0.881
3994.97	0.8774
