Infrared Spectrum: 1,4-Cyclohexanediol
Formula: C 6 H 12 O 2
CAS: 556-48-9
State: gas
Instrument: HP-GC/MS/IRD
Origin: NIST Mass Spectrometry Data Center
1/CM	ABSORBANCE
550	2.45e-05
562	1.54e-05
574	8.4e-05
586	0.000189
598	0.0002849
610	0.0003801
622	0.0002408
634	0.0001554
646	0.0001141
658	0.0001078
670	0.0001274
682	0.000182
694	0.000224
706	0.0001456
718	0.0001491
730	0.0001225
742	8.54e-05
754	9.03e-05
766	0.000105
778	0.0001351
790	0.0001484
802	0.0001869
814	0.0001687
826	0.0001806
838	0.000175
850	0.0001498
862	0.0002247
874	0.0002625
886	0.0003437
898	0.0005229
910	0.0005201
922	0.0004886
934	0.0007749
946	0.0016884
958	0.0023149
970	0.002086
982	0.0017493
994	0.001505
1006	0.0011025
1018	0.0009219
1030	0.0010668
1042	0.0016303
1054	0.0030653
1066	0.0048979
1078	0.0046424
1090	0.0023618
1102	0.0010899
1114	0.0008932
1126	0.0008029
1138	0.000728
1150	0.000714
1162	0.0006986
1174	0.0006475
1186	0.0007
1198	0.000812
1210	0.0010675
1222	0.001337
1234	0.0013979
1246	0.0012544
1258	0.0011242
1270	0.000896
1282	0.0007238
1294	0.0006069
1306	0.0005824
1318	0.0006594
1330	0.0007063
1342	0.0007623
1354	0.0009079
1366	0.0011893
1378	0.0012138
1390	0.0009723
1402	0.0006755
1414	0.0004837
1426	0.0005859
1438	0.000854
1450	0.0010367
1462	0.0007924
1474	0.0004193
1486	0.0002191
1498	0.0001393
1510	9.1e-05
1522	8.96e-05
1534	7e-05
1546	6.79e-05
1558	7e-05
1570	6.93e-05
1582	4.83e-05
1594	5.6e-05
1606	5.25e-05
1618	6.65e-05
1630	4.41e-05
1642	3.99e-05
1654	4.69e-05
1666	2.59e-05
1678	3.92e-05
1690	1.96e-05
1702	1.75e-05
1714	1.61e-05
1726	2.38e-05
1738	2.8e-05
1750	3.15e-05
1762	2.1e-05
1774	2.31e-05
1786	2.59e-05
1798	2.1e-05
1810	1.89e-05
1822	1.19e-05
1834	3.57e-05
1846	7e-07
1858	3.43e-05
1870	2.59e-05
1882	3.22e-05
1894	4.34e-05
1906	4.55e-05
1918	3.71e-05
1930	3.43e-05
1942	5.11e-05
1954	4.9e-05
1966	2.31e-05
1978	2.66e-05
1990	2.66e-05
2002	3.01e-05
2014	3.64e-05
2026	1.75e-05
2038	2.87e-05
2050	2.8e-05
2062	2.24e-05
2074	2.38e-05
2086	2.38e-05
2098	6.86e-05
2110	3.71e-05
2122	4.97e-05
2134	4.97e-05
2146	3.22e-05
2158	3.57e-05
2170	1.61e-05
2182	1.82e-05
2194	4.34e-05
2206	4.41e-05
2218	4.34e-05
2230	2.94e-05
2242	3.43e-05
2254	2.66e-05
2266	3.43e-05
2278	4.76e-05
2290	5.81e-05
2302	6.16e-05
2314	5.46e-05
2326	5.74e-05
2338	5.6e-05
2350	3.92e-05
2362	6.37e-05
2374	6.44e-05
2386	9.45e-05
2398	7.42e-05
2410	9.59e-05
2422	8.33e-05
2434	8.89e-05
2446	8.61e-05
2458	7.28e-05
2470	8.75e-05
2482	0.0001078
2494	0.0001001
2506	9.31e-05
2518	9.73e-05
2530	0.000126
2542	8.68e-05
2554	0.0001043
2566	0.0001239
2578	0.0001267
2590	0.0001064
2602	0.0001393
2614	0.0001876
2626	0.0001743
2638	0.0001967
2650	0.0002072
2662	0.0002408
2674	0.0002674
2686	0.0002443
2698	0.0002429
2710	0.0002065
2722	0.0002212
2734	0.0002387
2746	0.0002177
2758	0.0002513
2770	0.0002492
2782	0.0002597
2794	0.0002786
2806	0.0003227
2818	0.0003829
2830	0.0005488
2842	0.0009576
2854	0.0018487
2866	0.0026285
2878	0.0028805
2890	0.0027664
2902	0.0027958
2914	0.0035728
2926	0.0051842
2938	0.0069034
2950	0.0063266
2962	0.0035252
2974	0.0011655
2986	0.0003752
2998	0.0002296
3010	0.0001918
3022	0.0001848
3034	0.0001715
3046	8.68e-05
3058	0.0001197
3070	0.0001218
3082	0.0001631
3094	9.59e-05
3106	0.000112
3118	0.0001463
3130	0.0001225
3142	0.000112
3154	8.89e-05
3166	0.0001029
3178	0.0001281
3190	9.52e-05
3202	0.0001113
3214	6.44e-05
3226	0.0001071
3238	9.66e-05
3250	0.0001358
3262	0.0001008
3274	0.0001176
3286	9.45e-05
3298	9.73e-05
3310	8.19e-05
3322	0.0001085
3334	5.74e-05
3346	0.0001358
3358	0.0001316
3370	0.0001414
3382	0.0001316
3394	9.45e-05
3406	0.0001232
3418	0.000119
3430	0.000126
3442	0.0001428
3454	0.0001337
3466	0.0001477
3478	0.0001596
3490	9.1e-05
3502	9.59e-05
3514	0.0001456
3526	0.0001225
3538	8.47e-05
3550	0.0001708
3562	0.0001057
3574	9.31e-05
3586	0.0001057
3598	0.0001253
3610	0.0001533
3622	0.0002772
3634	0.00056
3646	0.0011466
3658	0.0011886
3670	0.0005852
3682	0.0002331
3694	0.0001757
3706	0.0001694
3718	0.0001232
3730	0.0001904
3742	0.0001547
3754	0.0001246
3766	0.0001421
3778	0.0001414
3790	0.0001841
3802	0.0001694
3814	0.0001862
3826	0.0002037
3838	0.0002044
