Infrared Spectrum: 4-THIAZOLIDINONE, 2-IMINO-
Formula: C3 H4 N2 O S
CAS: 556-90-1
State: SOLID (KBr PELLET)
Melting point: 241 C DECOMPOSES
Class: COBLENTZ
Instrument: Not specified, most likely a prism, grating, or hybrid spectrometer.
Sampling: TRANSMISSION
Resolution: 4
Origin: TENNESSEE EASTMAN COMPANY, RESEARCH LABORATORIES
MICROMETERS	TRANSMITTANCE
2.055	0.805
2.09616	0.805
2.13732	0.807
2.17848	0.81
2.21964	0.819
2.2608	0.819
2.30196	0.824
2.34312	0.829
2.38429	0.832
2.42545	0.839
2.46661	0.843
2.50777	0.846
2.54893	0.846
2.59009	0.846
2.63125	0.849
2.67241	0.849
2.71357	0.853
2.75473	0.851
2.79589	0.851
2.83705	0.848
2.87821	0.843
2.91937	0.825
2.96053	0.733
3.00169	0.672
3.04286	0.52
3.08402	0.279
3.12518	0.298
3.16634	0.365
3.2075	0.344
3.24866	0.291
3.28982	0.238
3.33098	0.24
3.37214	0.38
3.4133	0.476
3.45446	0.598
3.49562	0.646
3.53678	0.598
3.57794	0.641
3.6191	0.701
3.66027	0.761
3.70143	0.803
3.74259	0.825
3.78375	0.837
3.82491	0.851
3.86607	0.863
3.90723	0.866
3.94839	0.882
3.98955	0.88
4.03071	0.901
4.07187	0.93
4.11303	0.94
4.15419	0.938
4.19535	0.935
4.23651	0.924
4.27768	0.924
4.31884	0.93
4.36	0.941
4.40116	0.94
4.44232	0.953
4.48348	0.969
4.52464	0.974
4.5658	0.974
4.60696	0.972
4.64812	0.972
4.68928	0.972
4.73044	0.976
4.7716	0.977
4.81276	0.979
4.85392	0.984
4.89508	0.986
4.93625	0.986
4.97741	0.991
5.01857	0.998
5.05973	1
5.10089	1
5.14205	1
5.18321	0.998
5.22437	0.996
5.26553	0.996
5.30669	0.996
5.34785	0.996
5.38901	0.996
5.43017	0.996
5.47133	0.993
5.51249	0.989
5.55366	0.972
5.59482	0.926
5.63598	0.948
5.67714	0.953
5.7183	0.947
5.75946	0.933
5.80062	0.904
5.84178	0.812
5.88294	0.575
5.9241	0.552
5.96526	0.38
6.00642	0.027
6.04758	0.066
6.08874	0.399
6.1299	0.633
6.17106	0.689
6.21223	0.72
6.25339	0.721
6.29455	0.691
6.33571	0.639
6.37687	0.537
6.41803	0.322
6.45919	0.158
6.50035	0.064
6.54151	0.061
6.58267	0.085
6.62383	0.385
6.66499	0.563
6.70615	0.646
6.74731	0.662
6.78847	0.697
6.82964	0.72
6.8708	0.738
6.91196	0.735
6.95312	0.697
6.99428	0.564
7.03544	0.411
7.0766	0.546
7.11776	0.382
7.15892	0.59
7.20008	0.5
7.24124	0.213
7.2824	0.097
7.32356	0.138
7.36472	0.433
7.40588	0.619
7.44705	0.704
7.48821	0.762
7.52937	0.795
7.57053	0.802
7.61169	0.8
7.65285	0.667
7.69401	0.482
7.73517	0.266
7.77633	0.187
7.81749	0.156
7.85865	0.117
7.89981	0.215
7.94097	0.377
7.98213	0.542
8.02329	0.665
8.06445	0.757
8.10562	0.798
8.14678	0.819
8.18794	0.677
8.2291	0.401
8.27026	0.665
8.31142	0.781
8.35258	0.824
8.39374	0.856
8.4349	0.875
8.47606	0.892
8.51722	0.901
8.55838	0.902
8.59954	0.902
8.6407	0.899
8.68186	0.82
8.72303	0.604
8.76419	0.31
8.80535	0.397
8.84651	0.47
8.88767	0.689
8.92883	0.783
8.96999	0.844
9.01115	0.873
9.05231	0.899
9.09347	0.926
9.13463	0.936
9.17579	0.945
9.21695	0.952
9.25811	0.957
9.29927	0.962
9.34043	0.967
9.3816	0.97
9.42276	0.974
9.46392	0.974
9.50508	0.974
9.54624	0.974
9.5874	0.976
9.62856	0.976
9.66972	0.976
9.71088	0.976
9.75204	0.976
9.7932	0.974
9.83436	0.977
9.87552	0.976
9.91668	0.977
9.95784	0.982
9.99901	0.982
10.0402	0.982
10.0813	0.984
10.1225	0.984
10.1636	0.986
10.2048	0.988
10.246	0.988
10.2871	0.988
10.3283	0.988
10.3695	0.989
10.4106	0.991
10.4518	0.989
10.4929	0.994
10.5341	0.994
10.5753	0.994
10.6164	0.991
10.6576	0.993
10.6987	0.993
10.7399	0.996
10.7811	0.996
10.8222	0.996
10.8634	0.996
10.9045	0.996
10.9457	0.994
10.9869	0.945
11.028	0.74
11.0692	0.551
11.1103	0.711
11.1515	0.745
11.1927	0.825
11.2338	0.865
11.275	0.878
11.3161	0.887
11.3573	0.892
11.3985	0.902
11.4396	0.902
11.4808	0.902
11.5219	0.904
11.5631	0.904
11.6043	0.904
11.6454	0.904
11.6866	0.904
11.7278	0.904
11.7689	0.904
11.8101	0.904
11.8512	0.902
11.8924	0.894
11.9336	0.882
11.9747	0.877
12.0159	0.866
12.057	0.858
12.0982	0.846
12.1394	0.836
12.1805	0.824
12.2217	0.807
12.2628	0.778
12.304	0.745
12.3452	0.651
12.3863	0.535
12.4275	0.651
12.4686	0.747
12.5098	0.774
12.551	0.795
12.5921	0.803
12.6333	0.813
12.6744	0.824
12.7156	0.836
12.7568	0.844
12.7979	0.851
12.8391	0.858
12.8803	0.863
12.9214	0.868
12.9626	0.872
13.0037	0.875
13.0449	0.88
13.0861	0.882
13.1272	0.883
13.1684	0.883
13.2095	0.883
13.2507	0.883
13.2919	0.883
13.333	0.885
13.3742	0.885
13.4153	0.885
13.4565	0.885
13.4977	0.885
13.5388	0.883
13.58	0.88
13.6211	0.873
13.6623	0.865
13.7035	0.854
13.7446	0.844
13.7858	0.834
13.8269	0.817
13.8681	0.795
13.9093	0.759
13.9504	0.679
13.9916	0.544
14.0327	0.457
14.0739	0.44
14.1151	0.52
14.1562	0.592
14.1974	0.607
14.2386	0.622
14.2797	0.622
14.3209	0.622
14.362	0.622
14.4032	0.622
14.4444	0.622
14.4855	0.626
14.5267	0.633
14.5678	0.645
14.609	0.662
14.6502	0.675
14.6913	0.684
14.7325	0.699
14.7736	0.718
14.8148	0.733
14.856	0.745
14.8971	0.754
14.9383	0.755
14.9794	0.757
15.0206	0.769
15.0618	0.788
15.1029	0.802
15.1441	0.805
15.1852	0.807
15.2264	0.81
15.2676	0.812
15.3087	0.812
15.3499	0.81
15.3911	0.807
15.4322	0.778
15.4734	0.74
15.5145	0.696
15.5557	0.658
15.5969	0.643
15.638	0.643
15.6792	0.651
15.7203	0.675
15.7615	0.686
15.8027	0.687
15.8438	0.687
15.885	0.687
15.9261	0.686
15.9673	0.686
