Infrared Spectrum: HEXADECAMETHYLCYCLOOCTASILOXANE
Formula: C16 H48 O8 Si8
CAS: 556-68-3
State: SOLUTION (5% IN CCl4 FOR 3800-1300, 2% IN CS2 FOR 1300-650, AND 5% IN CCl4 FOR 650-210 CM^-^1)
Melting point: 31.5 C
Class: COBLENTZ III
Instrument: PERKIN-ELMER 521 (GRATING)
Instrument parameters: FILTERS AT 3150, 2500, 2000, 1150, 700, 410. GRATING CHANGES: 2000, 630 CM^-^1
Sampling: TRANSMISSION
Path length: 0.011 CM, 0.011 CM, AND 0.020 CM
Resolution: 2
Origin: DOW CORNING CORP.
1/CM	TRANSMITTANCE
207.963	0.917
217.331	0.915
226.698	0.897
236.066	0.879
245.434	0.866
254.801	0.846
264.169	0.832
273.537	0.816
282.905	0.801
292.272	0.78
301.64	0.739
311.008	0.703
320.375	0.693
329.743	0.665
339.111	0.624
348.478	0.537
357.846	0.485
367.214	0.398
376.581	0.275
385.949	0.204
395.317	0.166
404.684	0.317
414.052	0.687
423.42	0.842
432.788	0.886
442.155	0.91
451.523	0.918
460.891	0.921
470.258	0.85
479.626	0.891
488.994	0.854
498.361	0.821
507.729	0.802
517.097	0.811
526.464	0.844
535.832	0.857
545.2	0.831
554.567	0.822
563.935	0.851
573.303	0.88
582.671	0.88
592.038	0.854
601.406	0.826
610.774	0.851
620.141	0.866
629.509	0.875
638.877	0.875
648.244	0.869
657.612	0.826
666.98	0.838
676.347	0.79
685.715	0.802
695.083	0.763
704.45	0.641
713.818	0.823
723.186	0.868
732.554	0.876
741.921	0.878
751.289	0.875
760.657	0.851
770.024	0.793
779.392	0.656
788.76	0.408
798.127	0.101
807.495	0.139
816.863	0.283
826.23	0.516
835.598	0.688
844.966	0.684
854.333	0.591
863.701	0.615
873.069	0.711
882.437	0.825
891.804	0.88
901.172	0.924
910.54	0.93
919.907	0.933
929.275	0.933
938.643	0.931
948.01	0.929
957.378	0.925
966.746	0.915
976.113	0.891
985.481	0.875
994.849	0.829
1004.22	0.768
1013.58	0.673
1022.95	0.547
1032.32	0.37
1041.69	0.11
1051.05	0.036
1060.42	0.046
1069.79	0.14
1079.16	0.175
1088.53	0.167
1097.89	0.163
1107.26	0.261
1116.63	0.423
1126	0.605
1135.36	0.716
1144.73	0.777
1154.1	0.83
1163.47	0.859
1172.83	0.874
1182.2	0.895
1191.57	0.917
1200.94	0.914
1210.31	0.912
1219.67	0.901
1229.04	0.879
1238.41	0.829
1247.78	0.6869
1257.14	0.103
1266.51	0.6061
1275.88	0.836
1285.25	0.88
1294.61	0.889
1303.98	0.824
1313.35	0.825
1322.72	0.825
1332.09	0.825
1341.45	0.823
1350.82	0.822
1360.19	0.814
1369.56	0.811
1378.92	0.795
1388.29	0.742
1397.66	0.648
1407.03	0.585
1416.39	0.708
1425.76	0.783
1435.13	0.775
1444.5	0.778
1453.87	0.825
1463.23	0.833
1472.6	0.833
1481.97	0.835
1491.34	0.842
1500.7	0.838
1510.07	0.838
1519.44	0.836
1528.81	0.833
1538.17	0.832
1547.54	0.833
1556.91	0.837
1566.28	0.837
1575.65	0.833
1585.01	0.832
1594.38	0.831
1603.75	0.832
1613.12	0.836
1622.48	0.847
1631.85	0.849
1641.22	0.851
1650.59	0.852
1659.95	0.853
1669.32	0.853
1678.69	0.85
1688.06	0.847
1697.43	0.849
1706.79	0.853
1716.16	0.855
1725.53	0.855
1734.9	0.857
1744.26	0.855
1753.63	0.858
1763	0.859
1772.37	0.861
1781.73	0.86
1791.1	0.866
1800.47	0.868
1809.84	0.873
1819.21	0.879
1828.57	0.879
1837.94	0.881
1847.31	0.882
1856.68	0.88
1866.04	0.881
1875.41	0.88
1884.78	0.878
1894.15	0.878
1903.51	0.876
1912.88	0.873
1922.25	0.873
1931.62	0.871
1940.99	0.864
1950.35	0.866
1959.72	0.872
1969.09	0.875
1978.46	0.88
1987.82	0.885
1997.19	0.9
2006.56	0.903
2015.93	0.9024
2025.29	0.9004
2034.66	0.8943
2044.03	0.893
2053.4	0.893
2062.77	0.895
2072.13	0.898
2081.5	0.9039
2090.87	0.908
2100.24	0.908
2109.6	0.908
2118.97	0.908
2128.34	0.908
2137.71	0.909
2147.07	0.91
2156.44	0.9166
2165.81	0.9196
2175.18	0.921
2184.55	0.921
2193.91	0.921
2203.28	0.921
2212.65	0.9216
2222.02	0.922
2231.38	0.922
2240.75	0.923
2250.12	0.923
2259.49	0.923
2268.85	0.923
2278.22	0.9239
2287.59	0.925
2296.96	0.926
2306.33	0.929
2315.69	0.931
2325.06	0.9331
2334.43	0.936
2343.8	0.936
2353.16	0.934
2362.53	0.9257
2371.9	0.9223
2381.27	0.9132
2390.63	0.9115
2400	0.9105
2409.37	0.91
2418.74	0.91
2428.1	0.9094
2437.47	0.909
2446.84	0.909
2456.21	0.9108
2465.58	0.9118
2474.94	0.912
2484.31	0.9071
2493.68	0.903
2503.05	0.907
2512.41	0.909
2521.78	0.909
2531.15	0.909
2540.52	0.9088
2549.88	0.908
2559.25	0.907
2568.62	0.905
2577.99	0.905
2587.36	0.905
2596.72	0.905
2606.09	0.904
2615.46	0.904
2624.83	0.903
2634.19	0.9023
2643.56	0.898
2652.93	0.901
2662.3	0.903
2671.66	0.9031
2681.03	0.903
2690.4	0.903
2699.77	0.903
2709.14	0.903
2718.5	0.903
2727.87	0.9031
2737.24	0.903
2746.61	0.898
2755.97	0.8932
2765.34	0.8867
2774.71	0.8806
2784.08	0.874
2793.44	0.8725
2802.81	0.871
2812.18	0.871
2821.55	0.868
2830.92	0.868
2840.28	0.866
2849.65	0.8643
2859.02	0.8552
2868.39	0.8373
2877.75	0.8158
2887.12	0.793
2896.49	0.728
2905.86	0.7562
2915.22	0.7941
2924.59	0.7803
2933.96	0.7065
2943.33	0.5912
2952.7	0.3432
2962.06	0.2876
2971.43	0.5926
2980.8	0.7113
2990.17	0.8075
2999.53	0.8305
3008.9	0.832
3018.27	0.8314
3027.64	0.8244
3037	0.8183
3046.37	0.8212
3055.74	0.8353
3065.11	0.8448
3074.48	0.845
3083.84	0.844
3093.21	0.839
3102.58	0.833
3111.95	0.829
3121.31	0.824
3130.68	0.824
3140.05	0.8252
3149.42	0.8302
3158.78	0.8363
3168.15	0.8443
3177.52	0.8528
3186.89	0.8584
3196.26	0.8645
3205.62	0.87
3214.99	0.8756
3224.36	0.8806
3233.73	0.883
3243.09	0.8867
3252.46	0.888
3261.83	0.889
3271.2	0.891
3280.56	0.893
3289.93	0.895
3299.3	0.896
3308.67	0.896
3318.04	0.897
3327.4	0.898
3336.77	0.9
3346.14	0.901
3355.51	0.9
3364.87	0.9
3374.24	0.9
3383.61	0.901
3392.98	0.902
3402.34	0.902
3411.71	0.902
3421.08	0.902
3430.45	0.903
3439.82	0.903
3449.18	0.903
3458.55	0.903
3467.92	0.904
3477.29	0.904
3486.65	0.904
3496.02	0.903
3505.39	0.903
3514.76	0.903
3524.12	0.903
3533.49	0.903
3542.86	0.905
3552.23	0.905
3561.6	0.905
3570.96	0.9046
3580.33	0.9026
3589.7	0.9006
3599.07	0.8975
3608.43	0.898
3617.8	0.897
3627.17	0.895
3636.54	0.894
3645.9	0.8933
3655.27	0.893
3664.64	0.893
3674.01	0.891
3683.38	0.8861
3692.74	0.882
3702.11	0.882
3711.48	0.882
3720.85	0.8851
3730.21	0.888
3739.58	0.8902
3748.95	0.8898
3758.32	0.886
3767.68	0.8837
3777.05	0.887
3786.42	0.8904
