Infrared Spectrum: Methyl isothiocyanate
Formula: C 2 H 3 N S
CAS: 556-61-6
State: gas
Instrument: HP-GC/MS/IRD
Origin: NIST Mass Spectrometry Data Center
1/CM	ABSORBANCE
550	0.0024511
562	0.0038608
574	0.0035433
586	0.0029718
598	0.0023495
610	0.0016002
622	0.0009525
634	0.0005207
646	0.0007239
658	0.0013843
670	0.0020574
682	0.0022225
694	0.0015621
706	0.0007874
718	0.0003048
730	6.35e-05
742	5.08e-05
754	0.000127
766	0.0001651
778	0.000127
790	0.0001524
802	1.27e-05
814	5.08e-05
826	7.62e-05
838	2.54e-05
850	5.08e-05
862	0.0001016
874	6.35e-05
886	0.000127
898	0.0002286
910	0.0003048
922	0.0003429
934	0.0003937
946	0.0003683
958	0.0004445
970	0.000508
982	0.0005207
994	0.0007747
1006	0.0010287
1018	0.0013208
1030	0.0015621
1042	0.0017653
1054	0.0018288
1066	0.0018034
1078	0.0018669
1090	0.0018288
1102	0.001778
1114	0.0014986
1126	0.0012827
1138	0.0009525
1150	0.0012192
1162	0.0016129
1174	0.0018288
1186	0.0020193
1198	0.0015494
1210	0.0010795
1222	0.0008763
1234	0.0006985
1246	0.000635
1258	0.0008128
1270	0.0010287
1282	0.0009525
1294	0.0008001
1306	0.0006223
1318	0.000635
1330	0.0008001
1342	0.0011049
1354	0.0014605
1366	0.0019812
1378	0.0030226
1390	0.0049911
1402	0.0090043
1414	0.0146304
1426	0.013462
1438	0.010541
1450	0.0035814
1462	0.0021717
1474	0.0019304
1486	0.0017272
1498	0.0015621
1510	0.001397
1522	0.0012192
1534	0.0011303
1546	0.0010922
1558	0.0010033
1570	0.0008255
1582	0.0006985
1594	0.0006477
1606	0.0005588
1618	0.0005207
1630	0.0004445
1642	0.0003937
1654	0.0003429
1666	0.0002921
1678	0.0002667
1690	0.0002159
1702	0.0001778
1714	0.000127
1726	8.89e-05
1738	8.89e-05
1750	6.35e-05
1762	0.0001016
1774	0.000127
1786	0.0001524
1798	0.000254
1810	0.0003048
1822	0.0003556
1834	0.0004826
1846	0.0006604
1858	0.000889
1870	0.0011938
1882	0.0015494
1894	0.0018923
1906	0.0022987
1918	0.0026924
1930	0.0031496
1942	0.0035814
1954	0.0042418
1966	0.0056007
1978	0.0081026
1990	0.0130175
2002	0.0215392
2014	0.03556
2026	0.0554609
2038	0.0797052
2050	0.103365
2062	0.121869
2074	0.127
2086	0.117297
2098	0.0899414
2110	0.0575945
2122	0.0324993
2134	0.0138557
2146	0.0090297
2158	0.0081788
2170	0.0085344
2182	0.0093853
2194	0.011303
2206	0.0174498
2218	0.0235585
2230	0.0226949
2242	0.0167259
2254	0.0091059
2266	0.0037338
2278	0.002667
2290	0.0021463
2302	0.001778
2314	0.001524
2326	0.0011557
2338	0.0009398
2350	0.0008509
2362	0.0008636
2374	0.0008255
2386	0.0007239
2398	0.0004699
2410	0.0002921
2422	0.000254
2434	0.0002286
2446	0.0002794
2458	0.0003556
2470	0.0003683
2482	0.0003429
2494	0.0002921
2506	0.0002159
2518	0.0001778
2530	8.89e-05
2542	8.89e-05
2554	0.0001524
2566	0.0002413
2578	0.0004826
2590	0.0004064
2602	0.0003429
2614	0.0002159
2626	0.0001143
2638	5.08e-05
2650	2.54e-05
2662	1.27e-05
2674	3.81e-05
2686	0.0001651
2698	0.0003683
2710	0.0008128
2722	0.0014859
2734	0.0023368
2746	0.0030099
2758	0.0032258
2770	0.0027178
2782	0.0018542
2794	0.001524
2806	0.0014605
2818	0.0015748
2830	0.0015494
2842	0.0012192
2854	0.0012192
2866	0.0015621
2878	0.0024003
2890	0.0035814
2902	0.0037465
2914	0.0035179
2926	0.0041021
2938	0.0077343
2950	0.0081534
2962	0.0081788
2974	0.0041148
2986	0.0024638
2998	0.002286
3010	0.0020066
3022	0.0019939
3034	0.0015621
3046	0.0012827
3058	0.0010795
3070	0.0008509
3082	0.0007874
3094	0.0005842
3106	0.0004318
3118	0.0003556
3130	0.0002667
3142	0.0002413
3154	0.0001524
3166	0.0001397
3178	0.000127
3190	8.89e-05
3202	0.0001016
3214	8.89e-05
3226	5.08e-05
3238	5.08e-05
3250	7.62e-05
3262	5.08e-05
3274	6.35e-05
3286	5.08e-05
3298	2.54e-05
3310	0
3322	5.08e-05
3334	5.08e-05
3346	7.62e-05
3358	6.35e-05
3370	7.62e-05
3382	7.62e-05
3394	0.000127
3406	0.000127
3418	0.0001397
3430	0.0002032
3442	0.000127
3454	8.89e-05
3466	0.000127
3478	0.0001397
3490	0.0002159
3502	0.0001143
3514	0.0001143
3526	0.000127
3538	0.0001524
3550	0.0001778
3562	0.0001524
3574	0.0002159
3586	0.0001651
3598	0.0002032
3610	0.0001651
3622	0.0001778
3634	0.0002667
3646	0.0002159
3658	0.0002286
3670	0.000254
3682	0.0002286
3694	0.000254
3706	0.0002413
3718	0.0003048
3730	0.0002794
3742	0.0002794
3754	0.0003048
3766	0.0002032
3778	0.000254
3790	0.0002413
3802	0.0002286
3814	0.0002794
3826	0.0003048
3838	0.0003048
