Infrared Spectrum: o-Acetoxycinnamic acid
Formula: C 11 H 10 O 4
CAS: 55620-18-3
State: gas
Instrument: HP-GC/MS/IRD
Origin: NIST Mass Spectrometry Data Center
1/CM	ABSORBANCE
550	0.0028362
562	0.0038541
574	0.0051736
586	0.0038367
598	0.0011745
610	0.0004495
622	0.0003857
634	0.0008178
646	0.0014268
658	0.0010237
670	0.0006235
682	0.0001537
694	1.74e-05
706	1.74e-05
718	0.000145
730	0.000348
742	0.0019517
754	0.0046632
766	0.0015892
778	0.0005539
790	0.0005278
802	0.0007627
814	0.0004872
826	0.0006148
838	0.0012557
850	0.001015
862	0.0006931
874	0.0011339
886	0.0012615
898	0.0022707
910	0.0031262
922	0.0013804
934	0.0009077
946	0.0011368
958	0.0010179
970	0.0016994
982	0.0025607
994	0.0021895
1006	0.0026419
1018	0.0017429
1030	0.0011281
1042	0.0012702
1054	0.001276
1066	0.0016907
1078	0.0027405
1090	0.0057072
1102	0.0091118
1114	0.016965
1126	0.0136068
1138	0.0070412
1150	0.0084274
1162	0.0109997
1174	0.0196591
1186	0.0283127
1198	0.0259985
1210	0.0109997
1222	0.0051707
1234	0.0034568
1246	0.0030711
1258	0.0031349
1270	0.0029493
1282	0.0026506
1294	0.0021982
1306	0.0022852
1318	0.0025288
1330	0.0022446
1342	0.0026158
1354	0.0049938
1366	0.007134
1378	0.0050228
1390	0.0017371
1402	0.0008845
1414	0.0006641
1426	0.0007917
1438	0.0011542
1450	0.0023345
1462	0.0017893
1474	0.0018096
1486	0.0029841
1498	0.0015573
1510	0.0006989
1522	0.0004495
1534	0.0003509
1546	0.0003799
1558	0.0004785
1570	0.0007453
1582	0.0009193
1594	0.0008555
1606	0.0010643
1618	0.0011977
1630	0.0028362
1642	0.0052896
1654	0.0022968
1666	0.0008091
1678	0.0006525
1690	0.0008526
1702	0.0012963
1714	0.0021344
1726	0.0039469
1738	0.0083085
1750	0.0187427
1762	0.0176378
1774	0.0106256
1786	0.0147262
1798	0.0093264
1810	0.0042717
1822	0.0021837
1834	0.0011165
1846	0.0007685
1858	0.0005046
1870	0.0003335
1882	0.0003596
1894	0.0002784
1906	0.0002813
1918	0.0002929
1930	0.0001972
1942	0.000261
1954	0.0001595
1966	0.0001247
1978	0.0001247
1990	0.0001392
2002	0.0001073
2014	0.0001363
2026	0.0001392
2038	0.0001421
2050	0.0001305
2062	0.000116
2074	7.54e-05
2086	4.93e-05
2098	5.51e-05
2110	2.32e-05
2122	5.51e-05
2134	5.8e-06
2146	2.9e-06
2158	2.03e-05
2170	2.03e-05
2182	5.8e-06
2194	5.8e-06
2206	2.32e-05
2218	3.77e-05
2230	4.06e-05
2242	4.06e-05
2254	8.7e-06
2266	3.77e-05
2278	7.83e-05
2290	4.64e-05
2302	0.000116
2314	0.0001363
2326	0.0001537
2338	0.0001363
2350	0.0001276
2362	0.0001914
2374	0.0001624
2386	0.0001073
2398	8.41e-05
2410	6.09e-05
2422	6.38e-05
2434	4.06e-05
2446	3.48e-05
2458	2.61e-05
2470	6.09e-05
2482	5.51e-05
2494	2.9e-05
2506	4.93e-05
2518	1.16e-05
2530	4.35e-05
2542	4.64e-05
2554	4.35e-05
2566	6.67e-05
2578	4.06e-05
2590	5.22e-05
2602	2.61e-05
2614	0
2626	3.19e-05
2638	2.61e-05
2650	3.48e-05
2662	2.9e-06
2674	2.9e-05
2686	2.61e-05
2698	6.09e-05
2710	4.06e-05
2722	4.35e-05
2734	5.8e-05
2746	2.61e-05
2758	5.22e-05
2770	5.8e-05
2782	4.64e-05
2794	3.77e-05
2806	6.38e-05
2818	4.06e-05
2830	5.22e-05
2842	7.83e-05
2854	7.54e-05
2866	6.67e-05
2878	8.99e-05
2890	8.41e-05
2902	6.96e-05
2914	0.0001131
2926	8.12e-05
2938	0.0001711
2950	0.0002059
2962	0.0001943
2974	0.0001276
2986	0.0001769
2998	0.0002233
3010	0.0002494
3022	0.0004379
3034	0.0006786
3046	0.0006728
3058	0.0006554
3070	0.0012412
3082	0.0014877
3094	0.0007337
3106	0.0003451
3118	0.0001798
3130	0.0001479
3142	0.0001218
3154	0.0001276
3166	6.09e-05
3178	7.25e-05
3190	4.64e-05
3202	8.41e-05
3214	5.8e-05
3226	3.77e-05
3238	5.8e-06
3250	3.19e-05
3262	6.09e-05
3274	6.09e-05
3286	8.41e-05
3298	4.06e-05
3310	6.96e-05
3322	3.19e-05
3334	3.48e-05
3346	4.64e-05
3358	0.0001015
3370	0.000116
3382	8.41e-05
3394	0.000116
3406	5.51e-05
3418	6.67e-05
3430	0.0001015
3442	0.0001073
3454	0.0001682
3466	0.0001392
3478	0.0002001
3490	0.0002407
3502	0.000261
3514	0.0002407
3526	0.0001972
3538	0.0002726
3550	0.0003799
3562	0.0006902
3574	0.0039034
3586	0.0076386
3598	0.0012209
3610	0.0003103
3622	0.0001972
3634	0.0002291
3646	0.0001972
3658	0.0001711
3670	9.57e-05
3682	0.0001073
3694	0.0001102
3706	0.0001247
3718	0.0001421
3730	6.09e-05
3742	0.0001073
3754	0.0001189
3766	0.000174
3778	7.54e-05
3790	8.12e-05
3802	0.0001334
3814	9.28e-05
3826	0.0001624
3838	0.0001276
