Infrared Spectrum: DIETHYL 3-METHYLENECYCLOPROPANE-1,2-DICARBOXYLATE
Formula: C10 H14 O4
CAS: 55638-55-6
State: SOLUTION (7% IN CHCl3)
Class: COBLENTZ
Instrument: PERKIN-ELMER
Sampling: TRANSMISSION
Path length: 0.010 CM
Resolution: 4
Origin: ABBOTT LABORATORIES - WASHBURN
MICROMETERS	TRANSMITTANCE
2.056	0.874
2.09579	0.8791
2.13557	0.881
2.17536	0.892
2.21514	0.8972
2.25493	0.908
2.29472	0.909
2.3345	0.9059
2.37429	0.909
2.41407	0.9061
2.45386	0.919
2.49365	0.913
2.53343	0.919
2.57322	0.929
2.61301	0.9307
2.65279	0.934
2.69258	0.933
2.73236	0.934
2.77215	0.933
2.81194	0.9391
2.85172	0.8967
2.89151	0.8661
2.93129	0.881
2.97108	0.876
3.01087	0.8872
3.05065	0.899
3.09044	0.9043
3.13022	0.906
3.17001	0.914
3.2098	0.908
3.24958	0.9039
3.28937	0.8836
3.32916	0.8114
3.36894	0.6757
3.40873	0.5288
3.44851	0.7502
3.4883	0.7973
3.52809	0.8667
3.56787	0.9277
3.60766	0.949
3.64744	0.9612
3.68723	0.9629
3.72702	0.958
3.7668	0.961
3.80659	0.968
3.84637	0.961
3.88616	0.9509
3.92595	0.9458
3.96573	0.9439
4.00552	0.931
4.04531	0.9179
4.08509	0.9109
4.12488	0.8987
4.16466	0.8941
4.20445	0.913
4.24424	0.9109
4.28402	0.899
4.32381	0.9058
4.36359	0.8909
4.40338	0.884
4.44317	0.877
4.48295	0.8769
4.52274	0.872
4.56252	0.8588
4.60231	0.861
4.6421	0.859
4.68188	0.857
4.72167	0.849
4.76146	0.8458
4.80124	0.8418
4.84103	0.841
4.88081	0.836
4.9206	0.831
4.96039	0.832
5.00017	0.836
5.03996	0.8392
5.07974	0.837
5.11953	0.834
5.15932	0.832
5.1991	0.8334
5.23889	0.8287
5.27867	0.822
5.31846	0.819
5.35825	0.8235
5.39803	0.8176
5.43782	0.814
5.4776	0.7975
5.51739	0.7798
5.55718	0.7788
5.59696	0.7595
5.63675	0.7161
5.67654	0.6643
5.71632	0.563
5.75611	0.2537
5.79589	0.0335
5.83568	0.0152
5.87547	0.0465
5.91525	0.3895
5.95504	0.5923
5.99482	0.6748
6.03461	0.7251
6.0744	0.7456
6.11418	0.7453
6.15397	0.754
6.19375	0.7567
6.23354	0.7587
6.27333	0.7614
6.31311	0.7736
6.3529	0.7878
6.39269	0.795
6.43247	0.7993
6.47226	0.802
6.51204	0.8084
6.55183	0.8167
6.59162	0.8075
6.6314	0.7946
6.67119	0.7905
6.71097	0.768
6.75076	0.7337
6.79055	0.5885
6.83033	0.573
6.87012	0.5496
6.9099	0.6075
6.94969	0.5374
6.98948	0.6513
7.02926	0.692
7.06905	0.697
7.10884	0.6844
7.14862	0.6467
7.18841	0.5548
7.22819	0.4968
7.26798	0.5494
7.30777	0.3407
7.34755	0.189
7.38734	0.583
7.42712	0.6188
7.46691	0.4703
7.5067	0.3385
7.54648	0.2598
7.58627	0.3319
7.62605	0.3771
7.66584	0.1115
7.70563	0.025
7.74541	0.0743
7.7852	0.2301
7.82499	0.2634
7.86477	0.1627
7.90456	0.0979
7.94434	0.0948
7.98413	0.1281
8.02392	0.1605
8.0637	0.1968
8.10349	0.254
8.14327	0.2981
8.18306	0.3299
8.22285	0.3819
8.26263	0.4373
8.30242	0.4624
8.3422	0.4951
8.38199	0.4573
8.42178	0.2453
8.46156	0.1088
8.50135	0.0702
8.54113	0.031
8.58092	0.0373
8.62071	0.075
8.66049	0.0755
8.70028	0.1505
8.74007	0.2881
8.77985	0.4188
8.81964	0.4922
8.85942	0.5505
8.89921	0.5734
8.939	0.5771
8.97878	0.5214
9.01857	0.4227
9.05835	0.362
9.09814	0.2851
9.13793	0.2573
9.17771	0.2561
9.2175	0.3723
9.25728	0.4403
9.29707	0.4999
9.33686	0.5783
9.37664	0.605
9.41643	0.6054
9.45622	0.5602
9.496	0.474
9.53579	0.3219
9.57557	0.2233
9.61536	0.2644
9.65515	0.3449
9.69493	0.3914
9.73472	0.4065
9.7745	0.3422
9.81429	0.2902
9.85408	0.3758
9.89386	0.5111
9.93365	0.6021
9.97343	0.6557
10.0132	0.6972
10.053	0.7327
10.0928	0.7473
10.1326	0.7578
10.1724	0.77
10.2122	0.7618
10.2519	0.7503
10.2917	0.7119
10.3315	0.6673
10.3713	0.625
10.4111	0.6307
10.4509	0.6587
10.4907	0.693
10.5304	0.709
10.5702	0.719
10.61	0.7198
10.6498	0.7246
10.6896	0.73
10.7294	0.7406
10.7692	0.7467
10.8089	0.7187
10.8487	0.6523
10.8885	0.5627
10.9283	0.4612
10.9681	0.388
11.0079	0.3322
11.0477	0.302
11.0874	0.3223
11.1272	0.4525
11.167	0.5777
11.2068	0.6758
11.2466	0.7316
11.2864	0.7565
11.3262	0.7761
11.3659	0.7768
11.4057	0.7899
11.4455	0.7902
11.4853	0.7759
11.5251	0.7427
11.5649	0.6807
11.6047	0.6056
11.6445	0.5245
11.6842	0.493
11.724	0.5268
11.7638	0.6047
11.8036	0.6821
11.8434	0.7418
11.8832	0.7615
11.923	0.7799
11.9627	0.7916
12.0025	0.797
12.0423	0.795
12.0821	0.795
12.1219	0.8015
12.1617	0.806
12.2015	0.801
12.2412	0.7968
12.281	0.794
12.3208	0.794
12.3606	0.795
12.4004	0.8033
12.4402	0.8195
12.48	0.816
12.5197	0.8294
12.5595	0.8371
12.5993	0.8443
12.6391	0.8468
12.6789	0.8432
12.7187	0.842
12.7585	0.846
12.7982	0.8507
12.838	0.841
12.8778	0.846
12.9176	0.849
12.9574	0.842
12.9972	0.8429
13.037	0.8386
13.0768	0.842
13.1165	0.841
13.1563	0.846
13.1961	0.8556
13.2359	0.851
13.2757	0.839
13.3155	0.841
13.3553	0.844
13.395	0.8379
13.4348	0.846
13.4746	0.8508
13.5144	0.857
13.5542	0.8578
13.594	0.8665
13.6338	0.8783
13.6735	0.8912
13.7133	0.9161
13.7531	0.929
13.7929	0.9337
13.8327	0.9437
13.8725	0.9536
13.9123	0.9598
13.952	0.9654
13.9918	0.9581
14.0316	0.9641
14.0714	0.961
14.1112	0.959
14.151	0.9443
14.1908	0.9299
14.2305	0.9176
14.2703	0.8968
14.3101	0.8869
14.3499	0.8723
14.3897	0.8462
14.4295	0.8364
14.4693	0.8139
14.5091	0.808
14.5488	0.7944
14.5886	0.779
14.6284	0.765
14.6682	0.7685
14.708	0.774
14.7478	0.78
14.7876	0.789
14.8273	0.7949
14.8671	0.813
14.9069	0.832
14.9467	0.8407
14.9865	0.8376
15.0263	0.832
15.0661	0.8302
15.1058	0.7971
15.1456	0.7517
15.1854	0.7303
15.2252	0.7394
15.265	0.744
15.3048	0.753
15.3446	0.757
15.3843	0.7627
