Infrared Spectrum: 1-Isobutyl-2,5-dimethylbenzene
Formula: C 12 H 18
CAS: 55669-88-0
State: gas
Instrument: HP-GC/MS/IRD
Origin: NIST Mass Spectrometry Data Center
1/CM	ABSORBANCE
550	0.0006844
562	0.0001885
574	6.96e-05
586	0.0001276
598	0.0002204
610	0.000232
622	0.0004495
634	0.0001856
646	0.000116
658	0.0001102
670	4.06e-05
682	0.0001247
694	0.0001537
706	0.0003335
718	0.0003161
730	0.0002291
742	0.0002697
754	0.0004263
766	0.000435
778	0.0006409
790	0.0030827
802	0.0071775
814	0.0031262
826	0.0008149
838	0.0004669
850	0.0003683
862	0.0004582
874	0.0008961
886	0.0013717
898	0.0006873
910	0.0005771
922	0.0006061
934	0.0005278
946	0.000493
958	0.0004582
970	0.0003799
982	0.0006061
994	0.0007859
1006	0.0006322
1018	0.0005481
1030	0.0005887
1042	0.0007047
1054	0.0006699
1066	0.0007917
1078	0.0011397
1090	0.0006989
1102	0.0006032
1114	0.0008265
1126	0.0009454
1138	0.0009947
1150	0.0015254
1162	0.0022707
1174	0.0013862
1186	0.0006293
1198	0.0004988
1210	0.0005278
1222	0.0006119
1234	0.000696
1246	0.000522
1258	0.000464
1270	0.0005655
1282	0.0006989
1294	0.0007627
1306	0.0006148
1318	0.0006293
1330	0.0009802
1342	0.0012615
1354	0.0013282
1366	0.0022098
1378	0.0030769
1390	0.0031146
1402	0.0016965
1414	0.0017284
1426	0.001972
1438	0.0024215
1450	0.0036453
1462	0.0051446
1474	0.0048807
1486	0.0040426
1498	0.0059131
1510	0.0047415
1522	0.0019024
1534	0.0011716
1546	0.0010063
1558	0.0009309
1570	0.0009802
1582	0.0009541
1594	0.0011861
1606	0.0018299
1618	0.0016936
1630	0.0006235
1642	0.0003364
1654	0.000232
1666	0.0002262
1678	0.0002494
1690	0.0002494
1702	0.0001508
1714	0.0001624
1726	0.0002436
1738	0.0003335
1750	0.0003509
1762	0.0003248
1774	0.0001943
1786	0.0001479
1798	0.0001276
1810	0.0001798
1822	0.0002146
1834	0.000203
1846	0.0001827
1858	0.0001972
1870	0.0003248
1882	0.0004988
1894	0.0002581
1906	0.0001218
1918	9.57e-05
1930	8.99e-05
1942	5.8e-05
1954	5.51e-05
1966	6.67e-05
1978	4.06e-05
1990	3.19e-05
2002	5.8e-05
2014	4.06e-05
2026	4.64e-05
2038	5.51e-05
2050	2.32e-05
2062	5.8e-06
2074	4.93e-05
2086	3.19e-05
2098	5.22e-05
2110	2.9e-05
2122	1.45e-05
2134	3.77e-05
2146	2.32e-05
2158	1.74e-05
2170	2.61e-05
2182	1.16e-05
2194	5.8e-05
2206	6.09e-05
2218	4.64e-05
2230	2.9e-05
2242	4.93e-05
2254	3.19e-05
2266	5.22e-05
2278	5.51e-05
2290	5.8e-05
2302	4.35e-05
2314	4.64e-05
2326	4.64e-05
2338	2.03e-05
2350	3.77e-05
2362	0
2374	6.38e-05
2386	8.12e-05
2398	0.0001073
2410	0.0001044
2422	9.86e-05
2434	0.0001334
2446	0.000145
2458	0.0001102
2470	0.0001334
2482	0.0001508
2494	0.000145
2506	0.0001595
2518	0.0001073
2530	0.0001189
2542	0.0001508
2554	0.0001711
2566	0.000174
2578	0.0001914
2590	0.0001769
2602	0.0002233
2614	0.0002494
2626	0.0002552
2638	0.0002581
2650	0.0002407
2662	0.0002639
2674	0.000261
2686	0.0002668
2698	0.0003335
2710	0.0003857
2722	0.0005684
2734	0.0008816
2746	0.0008439
2758	0.0006148
2770	0.0006032
2782	0.0006902
2794	0.0008149
2806	0.0010324
2818	0.0013543
2830	0.0019343
2842	0.0028594
2854	0.0051272
2866	0.0098774
2878	0.014036
2890	0.0114811
2902	0.0113187
2914	0.0149031
2926	0.0206683
2938	0.0219269
2950	0.0216311
2962	0.029
2974	0.0201405
2986	0.0091408
2998	0.0082099
3010	0.0089958
3022	0.0074675
3034	0.0060117
3046	0.006438
3058	0.0047908
3070	0.0027956
3082	0.0018502
3094	0.0013224
3106	0.0011455
3118	0.0010237
3130	0.0008613
3142	0.0006177
3154	0.0005394
3166	0.000522
3178	0.000464
3190	0.0004437
3202	0.0003886
3214	0.0002871
3226	0.0002494
3238	0.0002146
3250	0.0001943
3262	0.0002175
3274	0.0001943
3286	0.0001972
3298	0.0001769
3310	0.0001682
3322	0.000174
3334	0.0001479
3346	0.0001972
3358	0.000174
3370	0.0001624
3382	0.000174
3394	0.000174
3406	0.0001624
3418	0.0001479
3430	0.0001624
3442	0.0001044
3454	0.0001015
3466	0.000145
3478	0.0001102
3490	9.28e-05
3502	9.28e-05
3514	0.0001305
3526	0.0001218
3538	7.25e-05
3550	9.28e-05
3562	0.0001624
3574	8.12e-05
3586	0.0001189
3598	9.28e-05
3610	0.0001189
3622	0.000145
3634	0.000174
3646	0.0001334
3658	0.0001218
3670	0.0001044
3682	0.0001305
3694	0.0001218
3706	0.0001363
3718	0.0001566
3730	0.0001711
3742	0.0001624
3754	0.0001624
3766	0.0002175
3778	0.0001653
3790	0.0002175
3802	0.0001566
3814	0.0002059
3826	0.0001914
3838	0.0001914
