Infrared Spectrum: Adenosine, 1-benzyl-, hydrobromide
Formula: C17 H20 Br N5 O4
CAS: 55677-97-9
State: SOLID (1 mg / 650 mg KBr DISC)
Class: COBLENTZ III
Instrument: PERKIN-ELMER 521 (GRATING)
Instrument parameters: FILTERS AT 3130, 2475, 2000, 1150, 700, 410. GRATING CHANGES: 2000, 620 CM^-^1
Sampling: TRANSMISSION
Resolution: 2
Origin: SOUTHERN RESEARCH INSTITUTE
1/CM	TRANSMITTANCE
250	0.406
260	0.4345
270	0.4931
280	0.5763
290	0.6274
300	0.6756
310	0.6917
320	0.6968
330	0.7075
340	0.725
350	0.7495
360	0.7702
370	0.7777
380	0.7975
390	0.7881
400	0.783
410	0.7906
420	0.7876
430	0.7911
440	0.7824
450	0.7768
460	0.769
470	0.7948
480	0.7993
490	0.7957
500	0.7907
510	0.7259
520	0.747
530	0.7619
540	0.7622
550	0.7772
560	0.7841
570	0.786
580	0.7588
590	0.7805
600	0.7916
610	0.7512
620	0.7473
630	0.7317
640	0.7263
650	0.7113
660	0.6682
670	0.7154
680	0.7682
690	0.7219
700	0.6893
710	0.7544
720	0.8132
730	0.7909
740	0.6996
750	0.6361
760	0.8176
770	0.8158
780	0.7912
790	0.8536
800	0.856
810	0.8564
820	0.8585
830	0.8556
840	0.836
850	0.8141
860	0.7829
870	0.7926
880	0.8019
890	0.7529
900	0.7416
910	0.7913
920	0.8182
930	0.8125
940	0.8054
950	0.8046
960	0.8045
970	0.7716
980	0.7834
990	0.7771
1000	0.7572
1010	0.7768
1020	0.6535
1030	0.662
1040	0.6433
1050	0.6321
1060	0.649
1070	0.6982
1080	0.5814
1090	0.5324
1100	0.6425
1110	0.5827
1120	0.6082
1130	0.6032
1140	0.7379
1150	0.7754
1160	0.7405
1170	0.81
1180	0.7986
1190	0.7614
1200	0.7328
1210	0.7011
1220	0.6593
1230	0.6607
1240	0.7358
1250	0.7755
1260	0.7789
1270	0.7698
1280	0.7405
1290	0.7329
1300	0.7313
1310	0.7402
1320	0.7663
1330	0.7429
1340	0.7173
1350	0.661
1360	0.7592
1370	0.7842
1380	0.786
1390	0.7608
1400	0.7234
1410	0.6848
1420	0.6341
1430	0.711
1440	0.7628
1450	0.7116
1460	0.7584
1470	0.8176
1480	0.8169
1490	0.79
1500	0.684
1510	0.6448
1520	0.8271
1530	0.855
1540	0.8081
1550	0.8207
1560	0.7718
1570	0.634
1580	0.7035
1590	0.8062
1600	0.786
1610	0.7321
1620	0.6451
1630	0.5193
1640	0.6788
1650	0.7261
1660	0.63
1670	0.4665
1680	0.3031
1690	0.2505
1700	0.503
1710	0.79
1720	0.8541
1730	0.9063
1740	0.923
1750	0.9318
1760	0.9372
1770	0.9401
1780	0.9407
1790	0.9401
1800	0.9392
1810	0.9381
1820	0.9377
1830	0.9378
1840	0.9384
1850	0.9389
1860	0.9375
1870	0.9329
1880	0.9364
1890	0.9415
1900	0.9444
1910	0.946
1920	0.9456
1930	0.945
1940	0.9441
1950	0.9432
1960	0.9422
1970	0.9412
1980	0.9402
1990	0.94
2000	0.9401
2010	0.9402
2020	0.9403
2030	0.9405
2040	0.9406
2050	0.9409
2060	0.9411
2070	0.9396
2080	0.9377
2090	0.9359
2100	0.9341
2110	0.933
2120	0.932
2130	0.9311
2140	0.9303
2150	0.9293
2160	0.9284
2170	0.9281
2180	0.9274
2190	0.926
2200	0.9244
2210	0.9231
2220	0.9217
2230	0.9196
2240	0.9175
2250	0.9154
2260	0.9136
2270	0.9121
2280	0.9108
2290	0.9081
2300	0.9054
2310	0.9032
2320	0.9013
2330	0.8993
2340	0.8974
2350	0.8948
2360	0.8934
2370	0.8941
2380	0.8944
2390	0.8941
2400	0.8932
2410	0.8916
2420	0.8895
2430	0.8876
2440	0.8859
2450	0.8843
2460	0.8823
2470	0.8801
2480	0.8782
2490	0.8763
2500	0.8742
2510	0.8716
2520	0.8691
2530	0.8666
2540	0.8641
2550	0.8615
2560	0.8597
2570	0.8578
2580	0.856
2590	0.8541
2600	0.8522
2610	0.8501
2620	0.8479
2630	0.8455
2640	0.8424
2650	0.8403
2660	0.836
2670	0.8317
2680	0.8275
2690	0.8237
2700	0.8184
2710	0.8121
2720	0.806
2730	0.8002
2740	0.7947
2750	0.79
2760	0.7861
2770	0.7813
2780	0.7742
2790	0.7642
2800	0.7574
2810	0.7538
2820	0.753
2830	0.7459
2840	0.7347
2850	0.7173
2860	0.6989
2870	0.6877
2880	0.6776
2890	0.6625
2900	0.6403
2910	0.6129
2920	0.5842
2930	0.5764
2940	0.5738
2950	0.5703
2960	0.5617
2970	0.5509
2980	0.5391
2990	0.5243
3000	0.5011
3010	0.4778
3020	0.4607
3030	0.4483
3040	0.4446
3050	0.4436
3060	0.4567
3070	0.4771
3080	0.4875
3090	0.4983
3100	0.5236
3110	0.5355
3120	0.5472
3130	0.5549
3140	0.5547
3150	0.5466
3160	0.5405
3170	0.5414
3180	0.5439
3190	0.5471
3200	0.5529
3210	0.5615
3220	0.5698
3230	0.5703
3240	0.5669
3250	0.5597
3260	0.5513
3270	0.5426
3280	0.5331
3290	0.5231
3300	0.5127
3310	0.5084
3320	0.5106
3330	0.5155
3340	0.5146
3350	0.5005
3360	0.4813
3370	0.4647
3380	0.4541
3390	0.4586
3400	0.4683
3410	0.4812
3420	0.4858
3430	0.4903
3440	0.4929
3450	0.4975
3460	0.5022
3470	0.5056
3480	0.5275
3490	0.5694
3500	0.6045
3510	0.6303
3520	0.6441
3530	0.6319
3540	0.6818
3550	0.7186
3560	0.7479
3570	0.7726
3580	0.7922
3590	0.8082
3600	0.8226
3610	0.8353
3620	0.8473
3630	0.859
3640	0.867
3650	0.8726
3660	0.8747
3670	0.8757
3680	0.8765
3690	0.8781
3700	0.8826
3710	0.8852
3720	0.8839
3730	0.8806
3740	0.8783
3750	0.8768
3760	0.8755
3770	0.8744
3780	0.8734
3790	0.8725
3800	0.8712
3810	0.8699
3820	0.8686
3830	0.8673
3840	0.866
3850	0.8646
3860	0.8633
3870	0.8621
3880	0.8615
3890	0.8608
3900	0.8601
3910	0.8594
3920	0.8586
3930	0.8578
3940	0.8568
3950	0.8558
3960	0.855
3970	0.8545
3980	0.8531
3990	0.8514
4000	0.8497
