Infrared Spectrum: 2,6-DIMETHYL-2,7-OCTADIEN-1-OL
Formula: C10 H18 O
CAS: 55685-41-1
State: (NEAT)
Class: COBLENTZ III
Instrument: UNICAM SP-200
Sampling: TRANSMISSION
Resolution: 4
Origin: BUSH BOAKE ALLEN LTD. VIA SCIENTIFIC DOC. CENTRE LTD.
1/CM	TRANSMITTANCE
655.036	0.435
666.138	0.406
677.241	0.348
688.343	0.359
699.445	0.437
710.548	0.468
721.65	0.48
732.752	0.485
743.855	0.442
754.957	0.44
766.059	0.487
777.161	0.545
788.264	0.557
799.366	0.529
810.468	0.531
821.571	0.543
832.673	0.522
843.775	0.463
854.878	0.372
865.98	0.374
877.082	0.505
888.185	0.56
899.287	0.405
910.389	0.127
921.492	0.068
932.594	0.338
943.696	0.454
954.799	0.42
965.901	0.414
977.003	0.369
988.105	0.218
999.208	0.063
1010.31	0.056
1021.41	0.051
1032.51	0.098
1043.62	0.148
1054.72	0.192
1065.82	0.203
1076.92	0.181
1088.03	0.305
1099.13	0.467
1110.23	0.503
1121.33	0.538
1132.44	0.587
1143.54	0.574
1154.64	0.617
1165.74	0.628
1176.84	0.627
1187.95	0.564
1199.05	0.537
1210.15	0.488
1221.25	0.432
1232.36	0.425
1243.46	0.477
1254.56	0.518
1265.66	0.566
1276.77	0.556
1287.87	0.493
1298.97	0.437
1310.07	0.425
1321.17	0.425
1332.28	0.424
1343.38	0.421
1354.48	0.371
1365.58	0.33
1376.69	0.2439
1387.79	0.192
1398.89	0.242
1409.99	0.289
1421.1	0.206
1432.2	0.185
1443.3	0.186
1454.4	0.143
1465.5	0.105
1476.61	0.224
1487.71	0.44
1498.81	0.519
1509.91	0.595
1521.02	0.624
1532.12	0.653
1543.22	0.682
1554.32	0.7
1565.43	0.709
1576.53	0.722
1587.63	0.724
1598.73	0.718
1609.84	0.723
1620.94	0.717
1632.04	0.6419
1643.14	0.279
1654.24	0.549
1665.35	0.66
1676.45	0.651
1687.55	0.712
1698.65	0.736
1709.76	0.759
1720.86	0.774
1731.96	0.781
1743.06	0.785
1754.17	0.792
1765.27	0.797
1776.37	0.801
1787.47	0.801
1798.57	0.797
1809.68	0.771
1820.78	0.724
1831.88	0.721
1842.98	0.754
1854.09	0.784
1865.19	0.797
1876.29	0.807
1887.39	0.811
1898.5	0.814
1909.6	0.813
1920.7	0.814
1931.8	0.816
1942.9	0.817
1954.01	0.815
1965.11	0.818
1976.21	0.814
1987.31	0.813
1998.42	0.797
2009.52	0.795
2020.62	0.795
2031.72	0.795
2042.83	0.7985
2053.93	0.801
2065.03	0.804
2076.13	0.807
2087.23	0.8085
2098.34	0.81
2109.44	0.8115
2120.54	0.812
2131.64	0.812
2142.75	0.812
2153.85	0.812
2164.95	0.814
2176.05	0.8155
2187.16	0.816
2198.26	0.816
2209.36	0.816
2220.46	0.814
2231.56	0.814
2242.67	0.815
2253.77	0.814
2264.87	0.814
2275.97	0.811
2287.08	0.811
2298.18	0.81
2309.28	0.8075
2320.38	0.804
2331.49	0.804
2342.59	0.805
2353.69	0.807
2364.79	0.808
2375.89	0.809
2387	0.809
2398.1	0.809
2409.2	0.8089
2420.3	0.7959
2431.41	0.7829
2442.51	0.7759
2453.61	0.771
2464.71	0.769
2475.82	0.768
2486.92	0.767
2498.02	0.767
2509.12	0.767
2520.22	0.767
2531.33	0.767
2542.43	0.767
2553.53	0.7629
2564.63	0.7599
2575.74	0.7539
2586.84	0.749
2597.94	0.7425
2609.04	0.7359
2620.15	0.7238
2631.25	0.7099
2642.35	0.6993
2653.45	0.6899
2664.56	0.6829
2675.66	0.6748
2686.76	0.6659
2697.86	0.6558
2708.96	0.6443
2720.07	0.6348
2731.17	0.6263
2742.27	0.6148
2753.37	0.5994
2764.48	0.5939
2775.58	0.5884
2786.68	0.5829
2797.78	0.5706
2808.89	0.5339
2819.99	0.4883
2831.09	0.4243
2842.19	0.3725
2853.29	0.2952
2864.4	0.185
2875.5	0.1063
2886.6	0.0817
2897.7	0.0629
2908.81	0.0594
2919.91	0.058
2931.01	0.0564
2942.11	0.0509
2953.22	0.0458
2964.32	0.0419
2975.42	0.04
2986.52	0.0379
2997.62	0.0354
3008.73	0.035
3019.83	0.046
3030.93	0.1135
3042.03	0.1986
3053.14	0.2865
3064.24	0.3508
3075.34	0.3697
3086.44	0.3906
3097.55	0.3907
3108.65	0.3487
3119.75	0.2915
3130.85	0.2866
3141.95	0.3413
3153.06	0.3628
3164.16	0.3671
3175.26	0.3684
3186.36	0.3593
3197.47	0.3406
3208.57	0.3041
3219.67	0.2802
3230.77	0.2525
3241.88	0.2264
3252.98	0.1903
3264.08	0.1726
3275.18	0.1544
3286.28	0.1418
3297.39	0.1255
3308.49	0.111
3319.59	0.0978
3330.69	0.0898
3341.8	0.0819
3352.9	0.0758
3364	0.0698
3375.1	0.0644
3386.21	0.061
3397.31	0.06
3408.41	0.059
3419.51	0.059
3430.61	0.0591
3441.72	0.0606
3452.82	0.061
3463.92	0.0642
3475.02	0.0702
3486.13	0.0813
3497.23	0.0992
3508.33	0.1264
3519.43	0.1404
3530.54	0.1874
3541.64	0.2079
3552.74	0.2541
3563.84	0.2893
3574.94	0.3282
3586.05	0.3539
3597.15	0.3992
3608.25	0.4356
3619.35	0.4625
3630.46	0.5057
3641.56	0.5179
3652.66	0.549
3663.76	0.5779
3674.87	0.5997
3685.97	0.6188
3697.07	0.6707
3708.17	0.6965
3719.27	0.7046
3730.38	0.7252
3741.48	0.7334
3752.58	0.7475
3763.68	0.7583
3774.79	0.7633
3785.89	0.7661
3796.99	0.7676
3808.09	0.7692
3819.2	0.7729
3830.3	0.7781
3841.4	0.781
3852.5	0.782
3863.61	0.781
3874.71	0.781
3885.81	0.7817
3896.91	0.7822
3908.01	0.783
3919.12	0.7828
3930.22	0.783
3941.32	0.783
3952.42	0.783
3963.53	0.783
3974.63	0.783
3985.73	0.783
3996.83	0.783
4007.94	0.783
4019.04	0.782
4030.14	0.781
4041.24	0.781
4052.34	0.779
4063.45	0.78
4074.55	0.778
4085.65	0.778
4096.75	0.777
4107.86	0.776
4118.96	0.7738
4130.06	0.772
4141.16	0.772
4152.27	0.771
4163.37	0.771
4174.47	0.769
4185.57	0.768
4196.67	0.767
4207.78	0.767
4218.88	0.7663
4229.98	0.765
4241.08	0.7667
4252.19	0.767
4263.29	0.766
4274.39	0.766
4285.49	0.766
4296.6	0.7658
4307.7	0.765
4318.8	0.764
4329.9	0.764
4341	0.764
4352.11	0.763
4363.21	0.7618
4374.31	0.76
4385.41	0.7588
4396.52	0.757
4407.62	0.755
4418.72	0.7543
4429.82	0.7508
4440.93	0.7493
4452.03	0.7478
4463.13	0.745
4474.23	0.743
4485.33	0.741
4496.44	0.7388
4507.54	0.738
4518.64	0.738
4529.74	0.739
4540.85	0.74
4551.95	0.741
4563.05	0.743
4574.15	0.7464
4585.26	0.7524
4596.36	0.7577
4607.46	0.7622
4618.56	0.7657
4629.66	0.767
4640.77	0.7677
4651.87	0.769
4662.97	0.7697
4674.07	0.7732
4685.18	0.7757
4696.28	0.7792
4707.38	0.7817
4718.48	0.782
4729.59	0.781
4740.69	0.7822
4751.79	0.783
4762.89	0.784
4773.99	0.784
4785.1	0.783
4796.2	0.784
4807.3	0.784
4818.4	0.784
4829.51	0.784
4840.61	0.784
4851.71	0.784
4862.81	0.784
4873.92	0.783
4885.02	0.783
4896.12	0.782
4907.22	0.782
4918.32	0.782
4929.43	0.7827
4940.53	0.783
4951.63	0.7837
4962.73	0.7832
4973.84	0.784
4984.94	0.784
4996.04	0.784
5007.14	0.784
5018.25	0.784
