Infrared Spectrum: Glyoxime
Formula: C 2 H 4 N 2 O 2
CAS: 557-30-2
State: gas
Origin: EPA-IR VAPOR PHASE LIBRARY
1/CM	ABSORBANCE
549.8	0.001963
559.445	0.001913
569.09	0.001803
578.734	0.001683
588.379	0.001953
598.024	0.002033
607.669	0.001953
617.313	0.002113
626.958	0.002513
636.603	0.003473
646.248	0.005753
655.893	0.006383
665.537	0.005203
675.182	0.002793
684.827	0.002283
694.472	0.002353
704.116	0.002433
713.761	0.003433
723.406	0.002663
733.051	0.002903
742.695	0.003513
752.34	0.003373
761.985	0.003523
771.63	0.003923
781.275	0.003743
790.919	0.003893
800.564	0.003413
810.209	0.003473
819.854	0.003343
829.498	0.003243
839.143	0.004923
848.788	0.002953
858.433	0.003173
868.078	0.003833
877.722	0.004973
887.367	0.006793
897.012	0.007453
906.657	0.010093
916.301	0.014913
925.946	0.024913
935.591	0.029713
945.236	0.024753
954.88	0.010173
964.525	0.006533
974.17	0.006663
983.815	0.005673
993.46	0.003493
1003.1	0.003233
1012.75	0.002193
1022.39	0.001333
1032.04	0.001193
1041.68	0.001333
1051.33	0.0009102
1060.97	0.0011147
1070.62	0.0004411
1080.26	0.0005734
1089.91	0.0010302
1099.55	0.0007025
1109.2	0.000527
1118.84	0.000683
1128.49	0.0005369
1138.13	0.0003293
1147.78	0.0006612
1157.42	0.0011053
1167.07	0.001363
1176.71	0.0011595
1186.36	0.0009665
1196	0.001623
1205.64	0.001473
1215.29	0.002523
1224.93	0.004833
1234.58	0.005493
1244.22	0.006353
1253.87	0.004013
1263.51	0.003163
1273.16	0.002693
1282.8	0.002293
1292.45	0.002553
1302.09	0.003033
1311.74	0.004193
1321.38	0.006063
1331.03	0.007393
1340.67	0.009303
1350.32	0.009883
1359.96	0.011433
1369.61	0.009423
1379.25	0.005673
1388.9	0.004163
1398.54	0.003863
1408.18	0.002893
1417.83	0.002753
1427.47	0.001563
1437.12	0.001813
1446.76	0.0008913
1456.41	0.001673
1466.05	0.0005796
1475.7	0.0007145
1485.34	0.000453
1494.99	0.0005504
1504.63	0.0008886
1514.28	0.0007435
1523.92	0.0007373
1533.57	0.0007758
1543.21	0.0010803
1552.86	0.0006895
1562.5	0.0005785
1572.15	0.0003971
1581.79	0.0004472
1591.44	0.0005324
1601.08	0.0004681
1610.73	0.0004895
1620.37	0.0006042
1630.01	0.0005669
1639.66	0.0006515
1649.3	0.0008189
1658.95	0.0006076
1668.59	0.0008308
1678.24	0.0006837
1687.88	0.0007737
1697.53	0.0010766
1707.17	0.0005884
1716.82	0.001553
1726.46	0.0005467
1736.11	0.0009834
1745.75	0.0008278
1755.4	0.0007803
1765.04	0.0006098
1774.69	0.0007417
1784.33	0.0009045
1793.98	0.0007664
1803.62	0.0006171
1813.27	0.0004454
1822.91	0.0005566
1832.55	0.0005198
1842.2	0.0006701
1851.84	0.0004961
1861.49	0.0005793
1871.13	0.0006918
1880.78	0.0007134
1890.42	0.000826
1900.07	0.0008411
1909.71	0.0010134
1919.36	0.0009871
1929	0.0006537
1938.65	0.0004262
1948.29	0.00026134
1957.94	0.0003196
1967.58	0.0003142
1977.23	0.00025191
1986.87	0.000201
1996.52	0.0002407
2006.16	0.000182325
2015.81	0.00025984
2025.45	0.00027314
2035.1	0.00029
2044.74	0.000303
2054.38	0.00025063
2064.03	0.0003052
2073.67	0.00021133
2083.32	0.00022354
2092.96	0.0003509
2102.61	0.0003335
2112.25	0.00020472
2121.9	0.00026173
2131.54	0.00021015
2141.19	0.00021564
2150.83	0.00028297
2160.48	0.0003725
2170.12	0.0003354
2179.77	0.0002841
2189.41	0.0003584
2199.06	0.0004365
2208.7	0.0006786
2218.35	0.0007794
2227.99	0.0009339
2237.64	0.0011264
2247.28	0.001343
2256.92	0.001343
2266.57	0.0011556
2276.21	0.001363
2285.86	0.001553
2295.5	0.0011388
2305.15	0.0007487
2314.79	0.0006761
2324.44	0.0007812
2334.08	0.0008192
2343.73	0.0007909
2353.37	0.000767
2363.02	0.0010603
2372.66	0.0007013
2382.31	0.0004793
2391.95	0.000172
2401.6	0.0001412
2411.24	0.0001396
2420.89	0.0001501
2430.53	0.0001294
2440.18	0.0002678
2449.82	0.00023816
2459.47	0.00019536
2469.11	0.00022929
2478.75	0.0003856
2488.4	0.0003331
2498.04	0.000182983
2507.69	0.00022211
2517.33	0.0001483
2526.98	0.00024728
2536.62	0.0003037
2546.27	0.00025835
2555.91	0.0003459
2565.56	0.0004294
2575.2	0.0003421
2584.85	0.0003794
2594.49	0.0003357
2604.14	0.000384
2613.78	0.0002983
2623.43	0.000323
2633.07	0.00019829
2642.72	0.00027452
2652.36	0.0003272
2662.01	0.00027806
2671.65	0.0003634
2681.29	0.0002954
2690.94	0.00025463
2700.58	0.00028169
2710.23	0.00025299
2719.87	0.00018063
2729.52	0.00017753
2739.16	0.00025936
2748.81	0.0001483
2758.45	0.0003675
2768.1	0.00023299
2777.74	0.00021624
2787.39	0.00021137
2797.03	0.00017929
2806.68	6.5e-05
2816.32	0.00017558
2825.97	0.00019567
2835.61	0.00018249
2845.26	8.2e-05
2854.9	5.2e-05
2864.55	0.0002903
2874.19	0.0004033
2883.84	0.0001109
2893.48	0.000202
2903.12	0.00025176
2912.77	0.0003168
2922.41	0.00031
2932.06	0.00024782
2941.7	0.0004857
2951.35	0.0004751
2960.99	0.0004114
2970.64	0.0005018
2980.28	0.0006324
2989.93	0.0003891
2999.57	0.0005149
3009.22	0.0004599
3018.86	0.000476
3028.51	0.0003671
3038.15	0.0003967
3047.8	0.0003749
3057.44	0.0004683
3067.09	0.000388
3076.73	0.0003369
3086.38	0.00022469
3096.02	0.00026465
3105.67	0.00020319
3115.31	0.00024376
3124.95	7.7e-05
3134.6	0.0001536
3144.24	0.000156
3153.89	0.00022943
3163.53	2.7e-05
3173.18	8.59e-05
3182.82	0.0004057
3192.47	0.00023575
3202.11	0.0004061
3211.76	0.0004681
3221.4	0.0004198
3231.05	0.0004759
3240.69	0.0006035
3250.34	0.0005093
3259.98	0.0004823
3269.63	0.0005286
3279.27	0.0005813
3288.92	0.0004337
3298.56	0.0004762
3308.21	0.0002288
3317.85	0.0004591
3327.49	0.0004014
3337.14	0.000478
3346.78	0.0004669
3356.43	0.0003562
3366.07	0.0003828
3375.72	0.0002964
3385.36	0.0004302
3395.01	0.00026024
3404.65	0.0001317
3414.3	0.0003305
3423.94	0.0001713
3433.59	0.0002901
3443.23	0.0003135
3452.88	0.000356
3462.52	0.0004478
3472.17	0.0004331
3481.81	0.0007234
3491.46	0.0005527
3501.1	0.0007242
3510.75	0.0005823
3520.39	0.0005955
3530.04	0.0005037
3539.68	0.0004518
3549.32	0.0007172
3558.97	0.0008054
3568.61	0.001393
3578.26	0.0008089
3587.9	0.001743
3597.55	0.002423
3607.19	0.004473
3616.84	0.009373
3626.48	0.021683
3636.13	0.028093
3645.77	0.026853
3655.42	0.010753
3665.06	0.003043
3674.71	0.002053
3684.35	0.0011173
3694	0.0007628
3703.64	0.0005264
3713.29	0.0008275
3722.93	0.0005742
3732.58	0.0010085
3742.22	0.0009348
3751.86	0.0009617
3761.51	0.0004619
3771.15	0.0005129
3780.8	0.00032
3790.44	0.0004407
3800.09	0.0005741
3809.73	0.0003896
3819.38	0.0006564
3829.02	0.000304
3838.67	0.0005643
3848.31	0.00026878
3857.96	0.0003395
3867.6	0.0004262
3877.25	0.00020833
3886.89	0.0005611
3896.54	0.0003473
3906.18	0.0005207
3915.83	0.0003625
3925.47	0.0003794
3935.12	0.0003308
3944.76	0.0006161
3954.41	0.00021978
3964.05	0.0003211
3973.69	0.0002906
3983.34	0.0002911
3992.98	0.00024807
