Infrared Spectrum: Diallylether
Formula: C 6 H 10 O
CAS: 557-40-4
State: gas
Instrument: HP-GC/MS/IRD
Origin: NIST Mass Spectrometry Data Center
1/CM	ABSORBANCE
550	0.0009198
562	0.0007413
574	0.0004872
586	0.000378
598	0.0004725
610	0.000483
622	0.0006405
634	0.0005649
646	0.0006111
658	0.0004368
670	0.0004746
682	0.0003003
694	0.0001449
706	0.0001428
718	3.78e-05
730	0.0001008
742	9.87e-05
754	5.04e-05
766	6.09e-05
778	6.09e-05
790	7.98e-05
802	0.0001953
814	0.0002142
826	0.0002751
838	0.0003948
850	0.0006426
862	0.0008715
874	0.0013923
886	0.0022092
898	0.0039438
910	0.0074319
922	0.0116445
934	0.0108528
946	0.0072513
958	0.0055986
970	0.0056259
982	0.0065835
994	0.0070812
1006	0.006468
1018	0.0054705
1030	0.0049896
1042	0.005502
1054	0.0072492
1066	0.0105693
1078	0.0149331
1090	0.0198492
1102	0.0206997
1114	0.0168357
1126	0.012978
1138	0.0109956
1150	0.008631
1162	0.0052815
1174	0.0028938
1186	0.0016947
1198	0.0012222
1210	0.0010416
1222	0.0010122
1234	0.001218
1246	0.0016737
1258	0.0022197
1270	0.0021672
1282	0.0018123
1294	0.0015099
1306	0.0012369
1318	0.0013146
1330	0.0025599
1342	0.0046305
1354	0.0046263
1366	0.0026418
1378	0.0016947
1390	0.0016338
1402	0.0023898
1414	0.0039375
1426	0.0040383
1438	0.0026124
1450	0.0019929
1462	0.001806
1474	0.0012831
1486	0.0007392
1498	0.0004179
1510	0.0002982
1522	0.0002625
1534	0.0002226
1546	0.0002457
1558	0.0002226
1570	0.0002184
1582	0.0002331
1594	0.0002604
1606	0.0002982
1618	0.0004746
1630	0.0009072
1642	0.0014427
1654	0.0013041
1666	0.000609
1678	0.0002751
1690	0.000147
1702	0.000147
1714	0.0001155
1726	9.66e-05
1738	6.3e-05
1750	4.2e-05
1762	5.04e-05
1774	3.15e-05
1786	5.67e-05
1798	5.88e-05
1810	8.61e-05
1822	0.000231
1834	0.000525
1846	0.0008841
1858	0.0009051
1870	0.000546
1882	0.0002709
1894	0.0001743
1906	0.0001155
1918	9.03e-05
1930	0.0001197
1942	0.0001323
1954	0.0001533
1966	0.0002394
1978	0.0002625
1990	0.0002835
2002	0.0002436
2014	0.0002331
2026	0.0001911
2038	0.00021
2050	0.0001911
2062	0.0001701
2074	0.0001764
2086	0.0001533
2098	0.0001134
2110	0.0001323
2122	9.03e-05
2134	6.3e-05
2146	6.09e-05
2158	6.72e-05
2170	2.1e-05
2182	3.99e-05
2194	1.05e-05
2206	1.89e-05
2218	3.78e-05
2230	4.2e-06
2242	8.4e-06
2254	1.26e-05
2266	2.31e-05
2278	4.83e-05
2290	5.67e-05
2302	4.2e-05
2314	3.78e-05
2326	6.3e-05
2338	2.1e-05
2350	6.93e-05
2362	5.46e-05
2374	6.09e-05
2386	3.99e-05
2398	3.99e-05
2410	5.67e-05
2422	7.35e-05
2434	8.61e-05
2446	8.4e-05
2458	6.09e-05
2470	2.52e-05
2482	4.41e-05
2494	6.3e-05
2506	2.94e-05
2518	7.77e-05
2530	6.09e-05
2542	8.19e-05
2554	8.4e-05
2566	0.0001008
2578	9.87e-05
2590	0.0001281
2602	0.0001365
2614	0.0001512
2626	0.0001029
2638	0.0001848
2650	0.0001638
2662	0.0002415
2674	0.0003402
2686	0.0004683
2698	0.0005355
2710	0.0006111
2722	0.0006594
2734	0.0007182
2746	0.0008484
2758	0.0009786
2770	0.0011718
2782	0.0013482
2794	0.0016254
2806	0.002226
2818	0.0033117
2830	0.0053844
2842	0.0079884
2854	0.0098952
2866	0.0096894
2878	0.0079674
2890	0.0063357
2902	0.0055356
2914	0.0053802
2926	0.0054369
2938	0.0053151
2950	0.0044478
2962	0.0032592
2974	0.0029946
2986	0.0035952
2998	0.0037842
3010	0.0037191
3022	0.0036078
3034	0.0027615
3046	0.0019719
3058	0.0021567
3070	0.0029631
3082	0.004431
3094	0.0047691
3106	0.0031836
3118	0.0015078
3130	0.0007245
3142	0.0004221
3154	0.0003339
3166	0.000294
3178	0.000231
3190	0.0001302
3202	0.0001323
3214	0.0001176
3226	0.0001008
3238	9.66e-05
3250	9.24e-05
3262	0.0001071
3274	0.000105
3286	9.24e-05
3298	0.0001449
3310	0.000126
3322	3.78e-05
3334	0.0001071
3346	0.0001134
3358	0.0001344
3370	0.0001008
3382	6.3e-05
3394	5.46e-05
3406	7.56e-05
3418	0.0001449
3430	8.61e-05
3442	0.000126
3454	8.82e-05
3466	7.98e-05
3478	8.19e-05
3490	0.0001239
3502	7.77e-05
3514	7.77e-05
3526	0.0001596
3538	0.000105
3550	4.62e-05
3562	9.03e-05
3574	3.78e-05
3586	6.3e-05
3598	8.82e-05
3610	8.19e-05
3622	0.0001029
3634	9.87e-05
3646	8.19e-05
3658	0.0001008
3670	0.0001218
3682	0.0001134
3694	0.0001176
3706	9.66e-05
3718	9.66e-05
3730	0.0001533
3742	0.0001134
3754	0.0001281
3766	0.0001386
3778	0.0001134
3790	0.0001239
3802	0.0001764
3814	0.0001344
3826	6.72e-05
3838	0.0001176
