Infrared Spectrum: 1-MONO-N-BUTYRIN
Formula: C7 H14 O4
CAS: 557-25-5
State: LIQUID
Boiling point: 118-120 C AT 1 mmHg
Class: COBLENTZ
Instrument: Not specified, most likely a prism, grating, or hybrid spectrometer.
Sampling: TRANSMISSION
Path length: 0.0015 CM
Resolution: 4
Origin: WYANDOTTE CHEMICALS CORP., WYANDOTTE, MICHIGAN, USA
MICROMETERS	TRANSMITTANCE
2.101	0.978
2.14097	0.985
2.18095	0.978
2.22092	0.965
2.26089	0.97
2.30087	0.973
2.34084	0.976
2.38081	0.968
2.42079	0.96
2.46076	0.958
2.50073	0.963
2.54071	0.973
2.58068	0.976
2.62065	0.976
2.66062	0.966
2.7006	0.946
2.74057	0.857
2.78054	0.568
2.82052	0.306
2.86049	0.152
2.90046	0.101
2.94044	0.077
2.98041	0.061
3.02038	0.066
3.06036	0.117
3.10033	0.175
3.1403	0.298
3.18028	0.449
3.22025	0.595
3.26022	0.688
3.3002	0.699
3.34017	0.368
3.38014	0.184
3.42012	0.278
3.46009	0.33
3.50006	0.446
3.54004	0.633
3.58001	0.728
3.61998	0.764
3.65996	0.789
3.69993	0.815
3.7399	0.839
3.77987	0.847
3.81985	0.865
3.85982	0.883
3.89979	0.893
3.93977	0.897
3.97974	0.902
4.01971	0.908
4.05969	0.913
4.09966	0.922
4.13963	0.928
4.17961	0.935
4.21958	0.94
4.25955	0.948
4.29953	0.968
4.3395	0.983
4.37947	0.973
4.41945	0.963
4.45942	0.97
4.49939	0.968
4.53937	0.97
4.57934	0.956
4.61931	0.976
4.65929	0.971
4.69926	0.975
4.73923	0.971
4.7792	0.965
4.81918	0.961
4.85915	0.965
4.89912	0.965
4.9391	0.965
4.97907	0.966
5.01904	0.971
5.05902	0.965
5.09899	0.97
5.13896	0.961
5.17894	0.973
5.21891	0.971
5.25888	0.97
5.29886	0.975
5.33883	0.961
5.3788	0.971
5.41878	0.965
5.45875	0.96
5.49872	0.943
5.5387	0.927
5.57867	0.902
5.61864	0.852
5.65862	0.792
5.69859	0.417
5.73856	0.048
5.77853	0.059
5.81851	0.099
5.85848	0.253
5.89845	0.567
5.93843	0.713
5.9784	0.797
6.01837	0.83
6.05835	0.845
6.09832	0.867
6.13829	0.885
6.17827	0.9
6.21824	0.902
6.25821	0.9
6.29819	0.898
6.33816	0.893
6.37813	0.893
6.41811	0.888
6.45808	0.875
6.49805	0.868
6.53803	0.864
6.578	0.839
6.61797	0.809
6.65795	0.757
6.69792	0.661
6.73789	0.547
6.77787	0.316
6.81784	0.311
6.85781	0.353
6.89778	0.383
6.93776	0.391
6.97773	0.373
7.0177	0.343
7.05768	0.358
7.09765	0.359
7.13762	0.316
7.1776	0.266
7.21757	0.268
7.25754	0.311
7.29752	0.325
7.33749	0.331
7.37746	0.331
7.41744	0.356
7.45741	0.388
7.49738	0.398
7.53736	0.369
7.57733	0.311
7.6173	0.285
7.65728	0.278
7.69725	0.288
7.73722	0.258
7.7772	0.243
7.81717	0.227
7.85714	0.207
7.89711	0.2
7.93709	0.202
7.97706	0.215
8.01703	0.252
8.05701	0.271
8.09698	0.291
8.13695	0.303
8.17693	0.291
8.2169	0.218
8.25687	0.159
8.29685	0.104
8.33682	0.081
8.37679	0.061
8.41677	0.061
8.45674	0.063
8.49671	0.086
8.53669	0.155
8.57666	0.255
8.61663	0.396
8.65661	0.495
8.69658	0.53
8.73655	0.512
8.77653	0.446
8.8165	0.356
8.85647	0.295
8.89644	0.223
8.93642	0.187
8.97639	0.155
9.01636	0.14
9.05634	0.142
9.09631	0.149
9.13628	0.164
9.17626	0.19
9.21623	0.2
9.2562	0.207
9.29618	0.203
9.33615	0.179
9.37612	0.147
9.4161	0.121
9.45607	0.104
9.49604	0.084
9.53602	0.087
9.57599	0.096
9.61596	0.114
9.65594	0.169
9.69591	0.233
9.73588	0.28
9.77586	0.359
9.81583	0.388
9.8558	0.388
9.89578	0.374
9.93575	0.353
9.97572	0.343
10.0157	0.349
10.0557	0.356
10.0956	0.376
10.1356	0.396
10.1756	0.439
10.2156	0.489
10.2555	0.514
10.2955	0.553
10.3355	0.57
10.3755	0.597
10.4154	0.605
10.4554	0.603
10.4954	0.598
10.5353	0.588
10.5753	0.575
10.6153	0.563
10.6553	0.553
10.6952	0.543
10.7352	0.53
10.7752	0.527
10.8152	0.529
10.8551	0.552
10.8951	0.57
10.9351	0.595
10.9751	0.606
11.015	0.638
11.055	0.658
11.095	0.669
11.1349	0.681
11.1749	0.691
11.2149	0.699
11.2549	0.699
11.2948	0.701
11.3348	0.689
11.3748	0.669
11.4148	0.643
11.4547	0.638
11.4947	0.613
11.5347	0.611
11.5746	0.611
11.6146	0.615
11.6546	0.615
11.6946	0.613
11.7345	0.611
11.7745	0.613
11.8145	0.621
11.8545	0.64
11.8944	0.666
11.9344	0.698
11.9744	0.716
12.0144	0.737
12.0543	0.747
12.0943	0.749
12.1343	0.751
12.1742	0.759
12.2142	0.759
12.2542	0.762
12.2942	0.767
12.3341	0.771
12.3741	0.756
12.4141	0.749
12.4541	0.733
12.494	0.723
12.534	0.701
12.574	0.696
12.614	0.693
12.6539	0.698
12.6939	0.699
12.7339	0.711
12.7738	0.713
12.8138	0.723
12.8538	0.728
12.8938	0.729
12.9337	0.726
12.9737	0.721
13.0137	0.716
13.0537	0.706
13.0936	0.698
13.1336	0.676
13.1736	0.661
13.2136	0.645
13.2535	0.631
13.2935	0.631
13.3335	0.638
13.3734	0.653
13.4134	0.658
13.4534	0.665
13.4934	0.666
13.5333	0.668
13.5733	0.671
13.6133	0.666
13.6533	0.661
13.6932	0.658
13.7332	0.658
13.7732	0.653
13.8131	0.648
13.8531	0.641
13.8931	0.636
13.9331	0.633
13.973	0.633
14.013	0.63
14.053	0.621
14.093	0.625
14.1329	0.621
14.1729	0.62
14.2129	0.616
14.2529	0.613
14.2928	0.608
14.3328	0.606
14.3728	0.601
14.4127	0.6
14.4527	0.593
14.4927	0.597
14.5327	0.593
14.5726	0.592
14.6126	0.585
14.6526	0.582
14.6926	0.58
14.7325	0.577
14.7725	0.573
14.8125	0.575
14.8525	0.572
14.8924	0.572
14.9324	0.572
14.9724	0.58
15.0123	0.592
15.0523	0.598
15.0923	0.597
15.1323	0.583
15.1722	0.583
15.2122	0.588
15.2522	0.603
15.2922	0.605
15.3321	0.605
15.3721	0.606
15.4121	0.615
15.4521	0.618
15.492	0.625
15.532	0.623
15.572	0.626
15.6119	0.626
15.6519	0.63
15.6919	0.635
15.7319	0.638
15.7718	0.643
15.8118	0.645
15.8518	0.646
15.8918	0.646
15.9317	0.651
15.9717	0.661
16.0117	0.66
