Infrared Spectrum: UREA, ALLYL-
Formula: C4 H8 N2 O
CAS: 557-11-9
State: SOLID (SPLIT MULL)
Class: COBLENTZ III
Instrument: DOW KBr FOREPRISM-GRATING
Instrument parameters: BLAZED AT 3.5, 12.0, 20.0 MICRON AND CHANGED AT 5.0, 7.5, 14.9 MICRON
Sampling: TRANSMISSION
Resolution: 2
Origin: DOW CHEMICAL COMPANY
1/CM	TRANSMITTANCE
3818	0.7918
3809	0.7925
3800	0.7936
3791	0.7945
3782	0.7955
3773	0.7965
3764	0.798
3755	0.7999
3746	0.8018
3737	0.8041
3728	0.8064
3719	0.8081
3710	0.8097
3701	0.8112
3692	0.8128
3683	0.8142
3674	0.8158
3665	0.8176
3656	0.8196
3647	0.8214
3638	0.8232
3629	0.8246
3620	0.8253
3611	0.8261
3602	0.8273
3593	0.8285
3584	0.8296
3575	0.8306
3566	0.831
3557	0.8304
3548	0.8289
3539	0.823
3530	0.8099
3521	0.7775
3512	0.7225
3503	0.6722
3494	0.6236
3485	0.395
3476	0.2869
3467	0.2242
3458	0.1784
3449	0.182
3440	0.2254
3431	0.2814
3422	0.3375
3413	0.3934
3404	0.4134
3395	0.408
3386	0.3809
3377	0.3295
3368	0.2389
3359	0.157
3350	0.1237
3341	0.1195
3332	0.1324
3323	0.1569
3314	0.1816
3305	0.208
3296	0.2363
3287	0.2645
3278	0.2927
3269	0.3134
3260	0.3144
3251	0.3053
3242	0.3006
3233	0.2982
3224	0.2984
3215	0.3057
3206	0.3286
3197	0.3757
3188	0.4212
3179	0.4655
3170	0.4993
3161	0.5204
3152	0.5368
3143	0.5478
3134	0.5503
3125	0.5407
3116	0.5352
3107	0.5478
3098	0.564
3089	0.5597
3080	0.5937
3071	0.6262
3062	0.6482
3053	0.6639
3044	0.6733
3035	0.6746
3026	0.668
3017	0.6583
3008	0.6775
2999	0.6801
2990	0.6401
2981	0.6457
2972	0.6528
2963	0.6555
2954	0.6536
2945	0.6369
2936	0.6108
2927	0.606
2918	0.6357
2909	0.6606
2900	0.6784
2891	0.6811
2882	0.6688
2873	0.6441
2864	0.6675
2855	0.6968
2846	0.7143
2837	0.7225
2828	0.7283
2819	0.7328
2810	0.7367
2801	0.7395
2792	0.7397
2783	0.7388
2774	0.7376
2765	0.7355
2756	0.7331
2747	0.7385
2738	0.7484
2729	0.7525
2720	0.7567
2711	0.7603
2702	0.764
2693	0.7669
2684	0.7697
2675	0.7712
2666	0.773
2657	0.7746
2648	0.775
2639	0.7751
2630	0.7754
2621	0.7761
2612	0.7768
2603	0.7774
2594	0.7784
2585	0.7794
2576	0.7805
2567	0.7814
2558	0.7821
2549	0.783
2540	0.7837
2531	0.7836
2522	0.7834
2513	0.7822
2504	0.7808
2495	0.7795
2486	0.7799
2477	0.7806
2468	0.7812
2459	0.7818
2450	0.7828
2441	0.7838
2432	0.7847
2423	0.7855
2414	0.7861
2405	0.7868
2396	0.7872
2387	0.7874
2378	0.7875
2369	0.7871
2360	0.7864
2351	0.7857
2342	0.7848
2333	0.784
2324	0.7831
2315	0.7824
2306	0.7818
2297	0.7824
2288	0.7838
2279	0.786
2270	0.7884
2261	0.7896
2252	0.7905
2243	0.7937
2234	0.7974
2225	0.8017
2216	0.8065
2207	0.8099
2198	0.8119
2189	0.8131
2180	0.8143
2171	0.8157
2162	0.8171
2153	0.8181
2144	0.8192
2135	0.8205
2126	0.8218
2117	0.8234
2108	0.8251
2099	0.8265
2090	0.8271
2081	0.828
2072	0.8288
2063	0.8296
2054	0.8307
2045	0.8313
2036	0.8323
2027	0.8336
2018	0.8363
2009	0.8417
2000	0.8425
1991	0.8406
1982	0.8416
1973	0.8444
1964	0.8956
1955	0.8605
1946	0.8499
1937	0.8493
1928	0.8483
1919	0.8482
1910	0.8495
1901	0.8502
1892	0.8499
1883	0.848
1874	0.8386
1865	0.8256
1856	0.829
1847	0.8371
1838	0.8424
1829	0.8436
1820	0.8436
1811	0.8407
1802	0.8377
1793	0.834
1784	0.8297
1775	0.8244
1766	0.8171
1757	0.8091
1748	0.7994
1739	0.7844
1730	0.7701
1721	0.7501
1712	0.7203
1703	0.6696
1694	0.5955
1685	0.4609
1676	0.1774
1667	0.0461
1658	0.0188
1649	0.0462
1640	0.1977
1631	0.3035
1622	0.2887
1613	0.2132
1604	0.0603
1595	0.0598
1586	0.108
1577	0.0671
1568	0.0307
1559	0.0573
1550	0.1718
1541	0.272
1532	0.4006
1523	0.4719
1514	0.5269
1505	0.5669
1496	0.5942
1487	0.6135
1478	0.6217
1469	0.5877
1460	0.5412
1451	0.5538
1442	0.5462
1433	0.5795
1424	0.4014
1415	0.5129
1406	0.5649
1397	0.5649
1388	0.4893
1379	0.2921
1370	0.2942
1361	0.4651
1352	0.496
1343	0.4587
1334	0.3926
1325	0.3312
1316	0.4303
1307	0.5118
1298	0.5388
1289	0.5484
1280	0.6089
1271	0.6143
1262	0.5792
1253	0.6014
1244	0.6225
1235	0.6606
1226	0.6785
1217	0.6778
1208	0.6708
1199	0.6614
1190	0.646
1181	0.6176
1172	0.5598
1163	0.446
1154	0.2954
1145	0.4009
1136	0.579
1127	0.6218
1118	0.5759
1109	0.5549
1100	0.606
1091	0.6601
1082	0.6921
1073	0.7091
1064	0.7192
1055	0.7261
1046	0.7334
1037	0.7396
1028	0.7393
1019	0.7408
1010	0.736
1001	0.6581
992	0.488
983	0.5956
974	0.7351
965	0.7571
956	0.7687
947	0.7561
938	0.6327
929	0.3643
920	0.5432
911	0.6925
902	0.7738
893	0.7983
884	0.8101
875	0.8318
866	0.8447
857	0.8516
848	0.8541
839	0.8531
830	0.8512
821	0.8483
812	0.8425
803	0.8371
794	0.8275
785	0.7968
776	0.7293
767	0.7468
758	0.7383
749	0.7007
740	0.6595
731	0.6096
722	0.5326
713	0.5141
704	0.4962
695	0.4779
686	0.4551
677	0.4432
668	0.4204
659	0.4249
650	0.428
641	0.4126
632	0.4335
623	0.469
614	0.4986
605	0.524
596	0.5332
587	0.5677
578	0.5726
569	0.593
560	0.6107
551	0.6176
542	0.6156
533	0.5181
524	0.5243
515	0.5593
506	0.5584
497	0.54
488	0.5236
479	0.5067
470	0.5164
461	0.537
452	0.5636
443	0.5864
434	0.6052
425	0.6225
416	0.6319
407	0.6188
398	0.6295
389	0.6486
380	0.6646
