Infrared Spectrum: 2-Bromooctane
Formula: C 8 H 17 Br
CAS: 557-35-7
State: gas
Instrument: HP-GC/MS/IRD
Origin: NIST Mass Spectrometry Data Center
1/CM	ABSORBANCE
550	0.00112
562	0.000546
574	0.0002772
586	0.0004928
598	0.0004676
610	0.0007224
622	0.0011816
634	0.0005712
646	0.0001848
658	4.48e-05
670	3.64e-05
682	3.92e-05
694	0.0001288
706	0.0002996
718	0.0005628
730	0.0006804
742	0.0005292
754	0.0004844
766	0.0004256
778	0.0003752
790	0.0003976
802	0.0003892
814	0.0003864
826	0.0002184
838	0.0002856
850	0.0003416
862	0.000462
874	0.0005068
886	0.0005152
898	0.0004788
910	0.0004116
922	0.0002772
934	0.0002352
946	0.0002492
958	0.0003948
970	0.0004788
982	0.0005572
994	0.0006916
1006	0.0009884
1018	0.0007812
1030	0.0005796
1042	0.0005096
1054	0.0005292
1066	0.0006048
1078	0.000574
1090	0.0005348
1102	0.0004816
1114	0.0007504
1126	0.0011592
1138	0.0016716
1150	0.0014364
1162	0.0014196
1174	0.00203
1186	0.0021672
1198	0.002226
1210	0.0025144
1222	0.0027076
1234	0.0024808
1246	0.001862
1258	0.001694
1270	0.0016072
1282	0.0013972
1294	0.0013104
1306	0.0012348
1318	0.0010192
1330	0.0009324
1342	0.0010444
1354	0.0011732
1366	0.0013944
1378	0.0024024
1390	0.002198
1402	0.0009968
1414	0.000854
1426	0.0012404
1438	0.0021672
1450	0.0035364
1462	0.0039284
1474	0.0025368
1486	0.0011368
1498	0.0006048
1510	0.0004088
1522	0.0003192
1534	0.0002688
1546	0.0002324
1558	0.000182
1570	0.0001736
1582	0.0001596
1594	0.0001708
1606	0.000154
1618	0.0001344
1630	0.0001176
1642	0.0001204
1654	0.0001064
1666	8.12e-05
1678	0.0001036
1690	8.68e-05
1702	7.28e-05
1714	3.08e-05
1726	4.48e-05
1738	3.92e-05
1750	3.64e-05
1762	3.92e-05
1774	4.76e-05
1786	5.04e-05
1798	3.64e-05
1810	5.32e-05
1822	3.36e-05
1834	4.48e-05
1846	2.24e-05
1858	3.92e-05
1870	4.2e-05
1882	4.76e-05
1894	3.08e-05
1906	3.92e-05
1918	3.64e-05
1930	3.08e-05
1942	2.24e-05
1954	3.64e-05
1966	2.8e-05
1978	1.12e-05
1990	1.4e-05
2002	1.96e-05
2014	3.08e-05
2026	6.44e-05
2038	3.92e-05
2050	3.92e-05
2062	4.2e-05
2074	4.2e-05
2086	3.08e-05
2098	2.52e-05
2110	5.6e-06
2122	1.12e-05
2134	1.4e-05
2146	2.24e-05
2158	1.4e-05
2170	2.24e-05
2182	2.52e-05
2194	4.2e-05
2206	3.64e-05
2218	3.92e-05
2230	3.36e-05
2242	2.52e-05
2254	4.76e-05
2266	3.36e-05
2278	5.04e-05
2290	3.08e-05
2302	4.76e-05
2314	3.08e-05
2326	5.6e-05
2338	5.32e-05
2350	5.04e-05
2362	4.48e-05
2374	5.88e-05
2386	5.04e-05
2398	1.96e-05
2410	5.6e-05
2422	6.44e-05
2434	5.04e-05
2446	6.44e-05
2458	7.56e-05
2470	5.32e-05
2482	4.76e-05
2494	4.2e-05
2506	5.6e-05
2518	8.96e-05
2530	8.96e-05
2542	0.0001148
2554	9.8e-05
2566	0.0001204
2578	0.0001316
2590	0.0001288
2602	0.0001904
2614	0.0001624
2626	0.0001932
2638	0.0001876
2650	0.0002408
2662	0.0002576
2674	0.0002968
2686	0.0003024
2698	0.0003304
2710	0.000336
2722	0.0003528
2734	0.0004676
2746	0.0005236
2758	0.000476
2770	0.0004872
2782	0.0005908
2794	0.000798
2806	0.0010444
2818	0.0014392
2830	0.0022008
2842	0.0036876
2854	0.0067536
2866	0.0105812
2878	0.0110124
2890	0.0099708
2902	0.009926
2914	0.0140588
2926	0.023646
2938	0.027846
2950	0.0210336
2962	0.0183764
2974	0.0180264
2986	0.0099008
2998	0.006202
3010	0.0027272
3022	0.0016212
3034	0.0010976
3046	0.0008568
3058	0.0006944
3070	0.0005796
3082	0.000518
3094	0.0004284
3106	0.000392
3118	0.0003752
3130	0.0003024
3142	0.0002968
3154	0.0002464
3166	0.000266
3178	0.00028
3190	0.0002212
3202	0.0002156
3214	0.0001624
3226	0.000154
3238	0.0001624
3250	0.000112
3262	0.0001288
3274	8.4e-05
3286	8.68e-05
3298	6.16e-05
3310	8.4e-05
3322	7.28e-05
3334	6.16e-05
3346	6.72e-05
3358	8.68e-05
3370	7e-05
3382	3.92e-05
3394	0.0001008
3406	6.72e-05
3418	8.96e-05
3430	5.04e-05
3442	0.0001064
3454	4.2e-05
3466	3.64e-05
3478	9.8e-05
3490	8.12e-05
3502	7.56e-05
3514	6.16e-05
3526	5.04e-05
3538	8.68e-05
3550	5.32e-05
3562	2.8e-05
3574	0.0001008
3586	7.84e-05
3598	9.52e-05
3610	0.0001316
3622	0.0001288
3634	8.68e-05
3646	6.72e-05
3658	0.0001344
3670	0.0001092
3682	0.0001288
3694	0.0001036
3706	7.28e-05
3718	0.0001008
3730	0.0001148
3742	0.0001232
3754	0.0001064
3766	0.0001344
3778	8.68e-05
3790	4.48e-05
3802	6.44e-05
3814	8.4e-05
3826	8.12e-05
3838	0.0001288
