Infrared Spectrum: ACETAMIDE, N-METHYL-N-(Beta,3,4-TRIHYDROXYPHENETHYL)-, 3,4-DIACETATE
Formula: C15 H19 N O6
CAS: 55712-68-0
State: SOLID (1 mg / 200 mg KBr DISC)
Class: COBLENTZ III
Instrument: PERKIN-ELMER 21 (GRATING)
Instrument parameters: FILTER AT ABOUT 10 MICRONS
Sampling: TRANSMISSION
Resolution: 2
1/CM	TRANSMITTANCE
4000	0.734
3991	0.7342
3982	0.7345
3973	0.7349
3964	0.7354
3955	0.7361
3946	0.7367
3937	0.7374
3928	0.738
3919	0.7386
3910	0.7393
3901	0.74
3892	0.7406
3883	0.741
3874	0.7414
3865	0.7418
3856	0.7422
3847	0.7426
3838	0.7432
3829	0.7435
3820	0.7439
3811	0.744
3802	0.7442
3793	0.7445
3784	0.7446
3775	0.7448
3766	0.7444
3757	0.7439
3748	0.7434
3739	0.7428
3730	0.7422
3721	0.741
3712	0.7395
3703	0.738
3694	0.7362
3685	0.7336
3676	0.7306
3667	0.7276
3658	0.7234
3649	0.7161
3640	0.7089
3631	0.7021
3622	0.6957
3613	0.6892
3604	0.6825
3595	0.6742
3586	0.6651
3577	0.6561
3568	0.6474
3559	0.6396
3550	0.6318
3541	0.6239
3532	0.6167
3523	0.6095
3514	0.6022
3505	0.5955
3496	0.589
3487	0.5824
3478	0.5759
3469	0.569
3460	0.5619
3451	0.5548
3442	0.5476
3433	0.5402
3424	0.5326
3415	0.525
3406	0.5173
3397	0.5074
3388	0.4975
3379	0.4864
3370	0.4702
3361	0.4559
3352	0.4438
3343	0.4324
3334	0.4212
3325	0.41
3316	0.398
3307	0.3855
3298	0.374
3289	0.3634
3280	0.3555
3271	0.3487
3262	0.3403
3253	0.3316
3244	0.3278
3235	0.3264
3226	0.3259
3217	0.3294
3208	0.3439
3199	0.3648
3190	0.3868
3181	0.4091
3172	0.4315
3163	0.454
3154	0.4767
3145	0.4995
3136	0.5223
3127	0.5454
3118	0.5656
3109	0.5691
3100	0.57
3091	0.5707
3082	0.5756
3073	0.5884
3064	0.5966
3055	0.5992
3046	0.6
3037	0.601
3028	0.6042
3019	0.6121
3010	0.6178
3001	0.6198
2992	0.6192
2983	0.6099
2974	0.5977
2965	0.5966
2956	0.5974
2947	0.6017
2938	0.6105
2929	0.6183
2920	0.6237
2911	0.6277
2902	0.6304
2893	0.6322
2884	0.6339
2875	0.6356
2866	0.6449
2857	0.6675
2848	0.6901
2839	0.7082
2830	0.7135
2821	0.7175
2812	0.7199
2803	0.7198
2794	0.7195
2785	0.7192
2776	0.7189
2767	0.7211
2758	0.7257
2749	0.7305
2740	0.7362
2731	0.7421
2722	0.7481
2713	0.7528
2704	0.7568
2695	0.7607
2686	0.7647
2677	0.7682
2668	0.7718
2659	0.7753
2650	0.778
2641	0.7806
2632	0.7826
2623	0.7835
2614	0.7831
2605	0.7825
2596	0.7821
2587	0.7815
2578	0.7808
2569	0.7801
2560	0.7797
2551	0.7793
2542	0.7791
2533	0.7788
2524	0.779
2515	0.7792
2506	0.7795
2497	0.7801
2488	0.7807
2479	0.7814
2470	0.783
2461	0.7849
2452	0.786
2443	0.7862
2434	0.7858
2425	0.7849
2416	0.7838
2407	0.7835
2398	0.7833
2389	0.7832
2380	0.7831
2371	0.7831
2362	0.7843
2353	0.786
2344	0.7887
2335	0.7921
2326	0.795
2317	0.7968
2308	0.7975
2299	0.7981
2290	0.7984
2281	0.7976
2272	0.7969
2263	0.7958
2254	0.7949
2245	0.7946
2236	0.7949
2227	0.7954
2218	0.7965
2209	0.7965
2200	0.7947
2191	0.7896
2182	0.7871
2173	0.7881
2164	0.7874
2155	0.7825
2146	0.7765
2137	0.7741
2128	0.7719
2119	0.77
2110	0.7691
2101	0.7682
2092	0.7674
2083	0.7667
2074	0.7668
2065	0.7668
2056	0.7668
2047	0.7671
2038	0.7671
2029	0.7671
2020	0.7658
2011	0.7636
2002	0.7611
1993	0.7587
1984	0.7557
1975	0.7532
1966	0.7482
1957	0.7401
1948	0.7311
1939	0.7275
1930	0.7265
1921	0.7243
1912	0.7196
1903	0.7142
1894	0.7018
1885	0.6918
1876	0.6831
1867	0.674
1858	0.6621
1849	0.6347
1840	0.5866
1831	0.5704
1822	0.5524
1813	0.5045
1804	0.4215
1795	0.3228
1786	0.1934
1777	0.1007
1768	0.1863
1759	0.3743
1750	0.5642
1741	0.6501
1732	0.6765
1723	0.6888
1714	0.6918
1705	0.6858
1696	0.648
1687	0.597
1678	0.541
1669	0.4235
1660	0.3218
1651	0.1908
1642	0.1085
1633	0.1712
1624	0.1682
1615	0.2325
1606	0.3962
1597	0.508
1588	0.5473
1579	0.5974
1570	0.6322
1561	0.6378
1552	0.6278
1543	0.5865
1534	0.5234
1525	0.3797
1516	0.2876
1507	0.3602
1498	0.4617
1489	0.5351
1480	0.533
1471	0.4302
1462	0.3686
1453	0.3914
1444	0.3845
1435	0.3666
1426	0.3784
1417	0.2716
1408	0.4097
1399	0.523
1390	0.3889
1381	0.2271
1372	0.3774
1363	0.5846
1354	0.6353
1345	0.5535
1336	0.5386
1327	0.6329
1318	0.6389
1309	0.6229
1300	0.6
1291	0.4831
1282	0.3584
1273	0.286
1264	0.2735
1255	0.4124
1246	0.2503
1237	0.1906
1228	0.0913
1219	0.0527
1210	0.0922
1201	0.1949
1192	0.2467
1183	0.1962
1174	0.3421
1165	0.4936
1156	0.4356
1147	0.496
1138	0.5677
1129	0.4872
1120	0.5483
1111	0.3078
1102	0.4962
1093	0.4621
1084	0.2733
1075	0.524
1066	0.6197
1057	0.6127
1048	0.4427
1039	0.4804
1030	0.6186
1021	0.5193
1012	0.2359
1003	0.4958
994	0.6493
985	0.7062
976	0.7325
967	0.5533
958	0.6005
949	0.7008
940	0.7647
931	0.7736
922	0.7187
913	0.5318
904	0.4507
895	0.4406
886	0.6645
877	0.728
868	0.5675
859	0.7441
850	0.7261
841	0.5504
832	0.7375
823	0.7315
814	0.7219
805	0.6284
796	0.7225
787	0.738
778	0.7349
769	0.7244
760	0.6957
751	0.6326
742	0.7014
733	0.7298
724	0.7415
715	0.7598
706	0.7758
697	0.7834
688	0.7526
679	0.7656
670	0.7845
