Infrared Spectrum: TRANS-2-METHYL-2-BUTENOIC ACID, PHENETHYL ESTER
Formula: C13 H16 O2
CAS: 55719-85-2
State: LIQUID
Class: COBLENTZ
Instrument: PERKIN-ELMER
Sampling: TRANSMISSION
Path length: SMEAR
Resolution: 4
MICROMETERS	TRANSMITTANCE
2.037	0.961
2.07371	0.963
2.11041	0.964
2.14712	0.961
2.18382	0.955
2.22053	0.955
2.25724	0.953
2.29394	0.949
2.33065	0.949
2.36735	0.943
2.40406	0.949
2.44077	0.949
2.47747	0.946
2.51418	0.946
2.55089	0.947
2.58759	0.95
2.6243	0.952
2.661	0.952
2.69771	0.953
2.73442	0.946
2.77112	0.943
2.80783	0.921
2.84453	0.917
2.88124	0.932
2.91795	0.934
2.95465	0.932
2.99136	0.935
3.02806	0.943
3.06477	0.947
3.10148	0.946
3.13818	0.947
3.17489	0.947
3.21159	0.93
3.2483	0.88
3.28501	0.838
3.32171	0.791
3.35842	0.786
3.39512	0.705
3.43183	0.708
3.46854	0.762
3.50524	0.825
3.54195	0.889
3.57866	0.918
3.61536	0.934
3.65207	0.938
3.68877	0.94
3.72548	0.944
3.76219	0.944
3.79889	0.946
3.8356	0.944
3.8723	0.946
3.90901	0.946
3.94572	0.946
3.98242	0.944
4.01913	0.944
4.05583	0.941
4.09254	0.943
4.12925	0.944
4.16595	0.944
4.20266	0.944
4.23936	0.941
4.27607	0.943
4.31278	0.944
4.34948	0.943
4.38619	0.946
4.4229	0.944
4.4596	0.943
4.49631	0.941
4.53301	0.941
4.56972	0.941
4.60643	0.94
4.64313	0.941
4.67984	0.941
4.71654	0.943
4.75325	0.943
4.78996	0.935
4.82666	0.93
4.86337	0.937
4.90007	0.943
4.93678	0.943
4.97349	0.941
5.01019	0.927
5.0469	0.935
5.0836	0.929
5.12031	0.921
5.15702	0.929
5.19372	0.935
5.23043	0.941
5.26713	0.93
5.30384	0.927
5.34055	0.923
5.37725	0.938
5.41396	0.941
5.45067	0.93
5.48737	0.918
5.52408	0.911
5.56078	0.914
5.59749	0.901
5.6342	0.891
5.6709	0.857
5.70761	0.777
5.74431	0.592
5.78102	0.207
5.81773	0.151
5.85443	0.25
5.89114	0.593
5.92784	0.699
5.96455	0.708
6.00126	0.498
6.03796	0.391
6.07467	0.625
6.11137	0.796
6.14808	0.845
6.18479	0.861
6.22149	0.832
6.2582	0.881
6.29491	0.891
6.33161	0.903
6.36832	0.912
6.40502	0.909
6.44173	0.911
6.47844	0.906
6.51514	0.907
6.55185	0.909
6.58855	0.904
6.62526	0.883
6.66197	0.657
6.69867	0.811
6.73538	0.834
6.77208	0.779
6.80879	0.705
6.8455	0.558
6.8822	0.457
6.91891	0.515
6.95561	0.624
6.99232	0.708
7.02903	0.762
7.06573	0.812
7.10244	0.815
7.13914	0.782
7.17585	0.65
7.21256	0.625
7.24926	0.607
7.28597	0.73
7.32268	0.799
7.35938	0.763
7.39609	0.553
7.43279	0.647
7.4695	0.788
7.50621	0.825
7.54291	0.837
7.57962	0.834
7.61632	0.832
7.65303	0.822
7.68974	0.808
7.72644	0.785
7.76315	0.743
7.79985	0.651
7.83656	0.592
7.87327	0.592
7.90997	0.659
7.94668	0.691
7.98338	0.699
8.02009	0.659
8.0568	0.5
8.0935	0.289
8.13021	0.113
8.16692	0.159
8.20362	0.426
8.24033	0.604
8.27703	0.69
8.31374	0.713
8.35045	0.74
8.38715	0.779
8.42386	0.777
8.46056	0.746
8.49727	0.746
8.53398	0.722
8.57068	0.61
8.60739	0.392
8.64409	0.251
8.6808	0.098
8.71751	0.05
8.75421	0.05
8.79092	0.22
8.82762	0.506
8.86433	0.687
8.90104	0.756
8.93774	0.802
8.97445	0.809
9.01115	0.815
9.04786	0.812
9.08457	0.782
9.12127	0.72
9.15798	0.553
9.19469	0.478
9.23139	0.406
9.2681	0.355
9.3048	0.438
9.34151	0.518
9.37822	0.648
9.41492	0.708
9.45163	0.753
9.48833	0.757
9.52504	0.76
9.56175	0.774
9.59845	0.797
9.63516	0.805
9.67186	0.737
9.70857	0.762
9.74528	0.789
9.78198	0.774
9.81869	0.74
9.85539	0.699
9.8921	0.69
9.92881	0.674
9.96551	0.61
10.0022	0.651
10.0389	0.725
10.0756	0.8
10.1123	0.832
10.149	0.849
10.1857	0.854
10.2225	0.857
10.2592	0.852
10.2959	0.855
10.3326	0.857
10.3693	0.865
10.406	0.872
10.4427	0.877
10.4794	0.878
10.5161	0.878
10.5528	0.881
10.5895	0.888
10.6262	0.889
10.6629	0.889
10.6996	0.891
10.7363	0.894
10.773	0.889
10.8098	0.891
10.8465	0.9
10.8832	0.909
10.9199	0.907
10.9566	0.898
10.9933	0.889
11.03	0.888
11.0667	0.894
11.1034	0.903
11.1401	0.914
11.1768	0.915
11.2135	0.915
11.2502	0.917
11.2869	0.917
11.3236	0.917
11.3603	0.914
11.3971	0.909
11.4338	0.903
11.4705	0.886
11.5072	0.868
11.5439	0.832
11.5806	0.785
11.6173	0.719
11.654	0.653
11.6907	0.604
11.7274	0.565
11.7641	0.587
11.8008	0.664
11.8375	0.743
11.8742	0.806
11.9109	0.849
11.9476	0.874
11.9843	0.889
12.0211	0.895
12.0578	0.903
12.0945	0.906
12.1312	0.903
12.1679	0.894
12.2046	0.888
12.2413	0.884
12.278	0.891
12.3147	0.901
12.3514	0.904
12.3881	0.909
12.4248	0.912
12.4615	0.914
12.4982	0.914
12.5349	0.914
12.5716	0.912
12.6084	0.912
12.6451	0.907
12.6818	0.906
12.7185	0.906
12.7552	0.909
12.7919	0.903
12.8286	0.9
12.8653	0.891
12.902	0.88
12.9387	0.874
12.9754	0.865
13.0121	0.848
13.0488	0.831
13.0855	0.819
13.1222	0.802
13.1589	0.788
13.1956	0.766
13.2324	0.723
13.2691	0.661
13.3058	0.611
13.3425	0.575
13.3792	0.55
13.4159	0.552
13.4526	0.578
13.4893	0.608
13.526	0.641
13.5627	0.661
13.5994	0.674
13.6361	0.685
13.6728	0.691
13.7095	0.693
13.7462	0.7
13.7829	0.71
13.8197	0.723
13.8564	0.745
13.8931	0.762
13.9298	0.777
13.9665	0.786
14.0032	0.789
14.0399	0.782
14.0766	0.769
14.1133	0.74
14.15	0.687
14.1867	0.585
14.2234	0.518
14.2601	0.423
14.2968	0.357
14.3335	0.369
14.3702	0.457
14.4069	0.601
14.4437	0.677
14.4804	0.733
14.5171	0.766
14.5538	0.782
14.5905	0.792
14.6272	0.789
14.6639	0.792
14.7006	0.792
14.7373	0.796
14.774	0.799
14.8107	0.8
14.8474	0.799
14.8841	0.8
14.9208	0.799
14.9575	0.796
14.9942	0.8
15.031	0.796
15.0677	0.791
15.1044	0.789
15.1411	0.785
15.1778	0.782
15.2145	0.779
