Infrared Spectrum: 2-Sec-Butylaniline
Formula: C 10 H 15 N
CAS: 55751-54-7
State: gas
Origin: EPA-IR VAPOR PHASE LIBRARY
1/CM	ABSORBANCE
549.9	0.01729
559.547	0.01813
569.193	0.01888
578.84	0.01919
588.486	0.02002
598.133	0.02083
607.779	0.02201
617.426	0.0234
627.072	0.02459
636.719	0.02576
646.365	0.02674
656.012	0.02704
665.658	0.02648
675.305	0.02495
684.951	0.02336
694.598	0.0224
704.245	0.02262
713.891	0.02431
723.538	0.03757
733.184	0.08504
742.831	0.13178
752.477	0.08154
762.124	0.03629
771.77	0.02341
781.417	0.02049
791.063	0.01919
800.71	0.01841
810.356	0.01758
820.003	0.01549
829.649	0.01304
839.296	0.0121
848.943	0.01223
858.589	0.01136
868.236	0.00964
877.882	0.00809
887.529	0.00722
897.175	0.00694
906.822	0.00674
916.468	0.0076
926.115	0.00974
935.761	0.00896
945.408	0.00795
955.054	0.00841
964.701	0.00889
974.347	0.00854
983.994	0.00925
993.64	0.01172
1003.29	0.01467
1012.93	0.01596
1022.58	0.01351
1032.23	0.01295
1041.87	0.01442
1051.52	0.0129
1061.17	0.01209
1070.81	0.01308
1080.46	0.01309
1090.11	0.01131
1099.75	0.01033
1109.4	0.01083
1119.05	0.01144
1128.69	0.00987
1138.34	0.00906
1147.99	0.01347
1157.63	0.01715
1167.28	0.01177
1176.92	0.0052
1186.57	0.00445
1196.22	0.00469
1205.86	0.00489
1215.51	0.00649
1225.16	0.00937
1234.8	0.01569
1244.45	0.02649
1254.1	0.03674
1263.74	0.03921
1273.39	0.03742
1283.04	0.03923
1292.68	0.03658
1302.33	0.02791
1311.98	0.01832
1321.62	0.01121
1331.27	0.00804
1340.92	0.00792
1350.56	0.00921
1360.21	0.01181
1369.86	0.01573
1379.5	0.021
1389.15	0.01774
1398.79	0.01018
1408.44	0.00805
1418.09	0.00899
1427.73	0.01245
1437.38	0.02344
1447.03	0.04493
1456.67	0.05672
1466.32	0.04612
1475.97	0.04031
1485.61	0.06134
1495.26	0.07516
1504.91	0.04826
1514.55	0.01951
1524.2	0.0121
1533.85	0.00947
1543.49	0.00879
1553.14	0.00977
1562.79	0.01337
1572.43	0.02037
1582.08	0.02617
1591.73	0.02764
1601.37	0.03616
1611.02	0.06447
1620.67	0.0954
1630.31	0.08494
1639.96	0.04509
1649.6	0.02104
1659.25	0.01343
1668.9	0.01048
1678.54	0.00812
1688.19	0.00654
1697.84	0.0055
1707.48	0.0045
1717.13	0.00366
1726.78	0.00331
1736.42	0.00311
1746.07	0.00328
1755.72	0.00393
1765.36	0.00489
1775.01	0.00486
1784.66	0.00402
1794.3	0.00382
1803.95	0.00379
1813.6	0.00323
1823.24	0.00264
1832.89	0.00256
1842.54	0.00295
1852.18	0.00332
1861.83	0.0034
1871.47	0.00412
1881.12	0.00595
1890.77	0.00548
1900.41	0.00379
1910.06	0.00441
1919.71	0.00467
1929.35	0.00307
1939	0.001822
1948.65	0.0015801
1958.29	0.0015273
1967.94	0.0015145
1977.59	0.0014574
1987.23	0.00144269
1996.88	0.00139098
2006.53	0.00139391
2016.17	0.00135822
2025.82	0.0013347
2035.47	0.0013227
2045.11	0.00136833
2054.76	0.00141821
2064.41	0.0014985
2074.05	0.0014827
2083.7	0.00144338
2093.35	0.00137979
2102.99	0.00138864
2112.64	0.0013155
2122.28	0.0012774
2131.93	0.001175
2141.58	0.001095
2151.22	0.001012
2160.87	0.00103
2170.52	0.001017
2180.16	0.001017
2189.81	0.000988
2199.46	0.000998
2209.1	0.001014
2218.75	0.001003
2228.4	0.001
2238.04	0.000993
2247.69	0.001036
2257.34	0.000977
2266.98	0.000995
2276.63	0.001109
2286.28	0.001137
2295.92	0.001176
2305.57	0.00140241
2315.22	0.001708
2324.86	0.001713
2334.51	0.0013361
2344.16	0.001291
2353.8	0.001206
2363.45	0.001101
2373.09	0.001157
2382.74	0.0012733
2392.39	0.0012808
2402.03	0.0013359
2411.68	0.00134903
2421.33	0.00141973
2430.97	0.001462
2440.62	0.0014597
2450.27	0.00143928
2459.91	0.00141863
2469.56	0.0012984
2479.21	0.0012906
2488.85	0.001208
2498.5	0.001101
2508.15	0.001056
2517.79	0.001162
2527.44	0.001183
2537.09	0.0013329
2546.73	0.00138575
2556.38	0.0014702
2566.03	0.0015305
2575.67	0.0016058
2585.32	0.0016988
2594.96	0.0018533
2604.61	0.0020281
2614.26	0.0020088
2623.9	0.0018479
2633.55	0.0017907
2643.2	0.0018837
2652.84	0.0019025
2662.49	0.0018777
2672.14	0.0017866
2681.78	0.0018269
2691.43	0.0018947
2701.08	0.0020621
2710.72	0.002259
2720.37	0.00266
2730.02	0.00317
2739.66	0.00365
2749.31	0.0035
2758.96	0.00299
2768.6	0.00299
2778.25	0.00336
2787.9	0.00395
2797.54	0.00458
2807.19	0.00516
2816.84	0.00632
2826.48	0.00771
2836.13	0.00951
2845.77	0.01206
2855.42	0.01918
2865.07	0.037
2874.71	0.06173
2884.36	0.07264
2894.01	0.06026
2903.65	0.05228
2913.3	0.06178
2922.95	0.08344
2932.59	0.10458
2942.24	0.10127
2951.89	0.09505
2961.53	0.14434
2971.18	0.17882
2980.83	0.10985
2990.47	0.04198
3000.12	0.02415
3009.77	0.02784
3019.41	0.04187
3029.06	0.04832
3038.71	0.03893
3048.35	0.03068
3058	0.03631
3067.64	0.04655
3077.29	0.04336
3086.94	0.02887
3096.58	0.0163
3106.23	0.01046
3115.88	0.00715
3125.52	0.00493
3135.17	0.00386
3144.82	0.00353
3154.46	0.0035
3164.11	0.00319
3173.76	0.00276
3183.4	0.00236
3193.05	0.0021991
3202.7	0.002227
3212.34	0.002153
3221.99	0.002008
3231.64	0.0014819
3241.28	0.0013137
3250.93	0.000973
3260.58	0.000898
3270.22	0.000549
3279.87	0.000656
3289.52	0.000451
3299.16	0.00026
3308.81	0.00028
3318.45	0.00017
3328.1	6e-05
3337.75	0.00022
3347.39	0.000457
3357.04	0.000498
3366.69	0.000867
3376.33	0.0012776
3385.98	0.00247
3395.63	0.00585
3405.27	0.00872
3414.92	0.0073
3424.57	0.00384
3434.21	0.0021889
3443.86	0.002014
3453.51	0.0022352
3463.15	0.00357
3472.8	0.00737
3482.45	0.01317
3492.09	0.01492
3501.74	0.01035
3511.39	0.00525
3521.03	0.00269
3530.68	0.0019244
3540.33	0.001205
3549.97	0.001191
3559.62	0.000886
3569.26	0.000803
3578.91	0.00072
3588.56	0.000866
3598.2	0.000721
3607.85	0.000833
3617.5	0.000847
3627.14	0.000764
3636.79	0.000729
3646.44	0.000728
3656.08	0.000765
3665.73	0.000691
3675.38	0.000745
3685.02	0.000763
3694.67	0.000855
3704.32	0.000963
3713.96	0.000897
3723.61	0.000853
3733.26	0.000898
3742.9	0.000883
3752.55	0.000797
3762.2	0.000845
3771.84	0.000754
3781.49	0.000769
3791.13	0.000704
3800.78	0.000852
3810.43	0.000745
3820.07	0.000903
3829.72	0.001014
3839.37	0.000968
3849.01	0.001005
3858.66	0.001034
3868.31	0.001128
3877.95	0.00146
3887.6	0.0015358
3897.25	0.0015404
3906.89	0.00140767
3916.54	0.0014147
3926.19	0.00143987
3935.83	0.00136147
3945.48	0.001272
3955.13	0.00138861
3964.77	0.00138564
3974.42	0.0012735
3984.07	0.00137211
3993.71	0.00141843
