Infrared Spectrum: 2-PENTENOYL CHLORIDE, 2-METHYL-
Formula: C6 H9 Cl O
CAS: 55764-37-9
Class: COBLENTZ
Instrument: Not specified, most likely a prism, grating, or hybrid spectrometer.
Sampling: TRANSMISSION
Path length: SMEAR
Resolution: 4
Origin: TENNESSEE EASTMAN COMPANY, RESEARCH LABORATORIES
MICROMETERS	TRANSMITTANCE
2.034	0.976
2.0749	0.988
2.11579	0.993
2.15669	0.998
2.19759	1
2.23849	0.998
2.27938	0.998
2.32028	0.998
2.36118	0.998
2.40207	1
2.44297	1.001
2.48387	1.001
2.52476	1.001
2.56566	1
2.60656	1
2.64746	1
2.68835	1
2.72925	0.998
2.77015	0.991
2.81104	0.977
2.85194	0.952
2.89284	0.931
2.93373	0.948
2.97463	0.952
3.01553	0.955
3.05643	0.959
3.09732	0.96
3.13822	0.957
3.17912	0.955
3.22001	0.95
3.26091	0.923
3.30181	0.865
3.3427	0.454
3.3836	0.586
3.4245	0.705
3.4654	0.775
3.50629	0.882
3.54719	0.931
3.58809	0.942
3.62898	0.942
3.66988	0.95
3.71078	0.955
3.75167	0.955
3.79257	0.959
3.83347	0.962
3.87437	0.964
3.91526	0.964
3.95616	0.964
3.99706	0.965
4.03795	0.965
4.07885	0.969
4.11975	0.969
4.16065	0.962
4.20154	0.962
4.24244	0.96
4.28334	0.957
4.32423	0.957
4.36513	0.964
4.40603	0.969
4.44692	0.967
4.48782	0.965
4.52872	0.965
4.56962	0.965
4.61051	0.965
4.65141	0.965
4.69231	0.965
4.7332	0.965
4.7741	0.965
4.815	0.964
4.85589	0.962
4.89679	0.962
4.93769	0.964
4.97859	0.965
5.01948	0.965
5.06038	0.96
5.10128	0.957
5.14217	0.952
5.18307	0.943
5.22397	0.942
5.26486	0.942
5.30576	0.938
5.34666	0.911
5.38756	0.899
5.42845	0.879
5.46935	0.826
5.51025	0.776
5.55114	0.613
5.59204	0.427
5.63294	0.252
5.67383	0.045
5.71473	0.025
5.75563	0.211
5.79653	0.405
5.83742	0.538
5.87832	0.662
5.91922	0.718
5.96011	0.781
6.00101	0.81
6.04191	0.741
6.0828	0.378
6.1237	0.543
6.1646	0.645
6.2055	0.821
6.24639	0.88
6.28729	0.904
6.32819	0.906
6.36908	0.901
6.40998	0.885
6.45088	0.885
6.49178	0.875
6.53267	0.872
6.57357	0.858
6.61447	0.851
6.65536	0.851
6.69626	0.827
6.73716	0.785
6.77805	0.63
6.81895	0.529
6.85985	0.611
6.90075	0.638
6.94164	0.664
6.98254	0.712
7.02344	0.752
7.06433	0.802
7.10523	0.805
7.14613	0.761
7.18702	0.679
7.22792	0.717
7.26882	0.752
7.30972	0.78
7.35061	0.78
7.39151	0.778
7.43241	0.816
7.4733	0.831
7.5142	0.848
7.5551	0.853
7.59599	0.841
7.63689	0.788
7.67779	0.752
7.71869	0.809
7.75958	0.817
7.80048	0.816
7.84138	0.816
7.88227	0.8
7.92317	0.763
7.96407	0.768
8.00496	0.798
8.04586	0.81
8.08676	0.8
8.12766	0.758
8.16855	0.662
8.20945	0.495
8.25035	0.293
8.29124	0.332
8.33214	0.49
8.37304	0.672
8.41394	0.742
8.45483	0.787
8.49573	0.802
8.53663	0.81
8.57752	0.812
8.61842	0.816
8.65932	0.819
8.70021	0.821
8.74111	0.819
8.78201	0.8
8.82291	0.758
8.8638	0.688
8.9047	0.633
8.9456	0.606
8.98649	0.647
9.02739	0.701
9.06829	0.729
9.10918	0.739
9.15008	0.741
9.19098	0.73
9.23188	0.698
9.27277	0.647
9.31367	0.614
9.35457	0.623
9.39546	0.628
9.43636	0.597
9.47726	0.522
9.51815	0.432
9.55905	0.325
9.59995	0.304
9.64085	0.376
9.68174	0.477
9.72264	0.553
9.76354	0.579
9.80443	0.541
9.84533	0.477
9.88623	0.371
9.92712	0.294
9.96802	0.281
10.0089	0.339
10.0498	0.415
10.0907	0.521
10.1316	0.614
10.1725	0.676
10.2134	0.725
10.2543	0.749
10.2952	0.761
10.3361	0.773
10.377	0.776
10.4179	0.773
10.4588	0.759
10.4997	0.722
10.5406	0.666
10.5815	0.599
10.6224	0.551
10.6633	0.519
10.7042	0.497
10.7451	0.446
10.786	0.398
10.8269	0.415
10.8678	0.531
10.9087	0.642
10.9496	0.701
10.9904	0.72
11.0313	0.722
11.0722	0.7
11.1131	0.672
11.154	0.642
11.1949	0.643
11.2358	0.664
11.2767	0.689
11.3176	0.7
11.3585	0.688
11.3994	0.655
11.4403	0.599
11.4812	0.507
11.5221	0.371
11.563	0.236
11.6039	0.158
11.6448	0.149
11.6857	0.209
11.7266	0.303
11.7675	0.371
11.8084	0.42
11.8493	0.471
11.8902	0.567
11.9311	0.65
11.972	0.705
12.0129	0.749
12.0538	0.768
12.0947	0.78
12.1356	0.79
12.1765	0.795
12.2174	0.798
12.2583	0.798
12.2992	0.79
12.34	0.783
12.3809	0.771
12.4218	0.746
12.4627	0.722
12.5036	0.696
12.5445	0.672
12.5854	0.664
12.6263	0.659
12.6672	0.655
12.7081	0.657
12.749	0.657
12.7899	0.66
12.8308	0.671
12.8717	0.683
12.9126	0.698
12.9535	0.71
12.9944	0.72
13.0353	0.735
13.0762	0.746
13.1171	0.752
13.158	0.761
13.1989	0.77
13.2398	0.775
13.2807	0.781
13.3216	0.785
13.3625	0.788
13.4034	0.79
13.4443	0.79
13.4852	0.79
13.5261	0.792
13.567	0.792
13.6079	0.79
13.6488	0.788
13.6897	0.781
13.7305	0.776
13.7714	0.771
13.8123	0.766
13.8532	0.759
13.8941	0.756
13.935	0.751
13.9759	0.744
14.0168	0.737
14.0577	0.727
14.0986	0.712
14.1395	0.701
14.1804	0.691
14.2213	0.678
14.2622	0.66
14.3031	0.643
14.344	0.628
14.3849	0.611
14.4258	0.589
14.4667	0.562
14.5076	0.54
14.5485	0.514
14.5894	0.492
14.6303	0.47
14.6712	0.449
14.7121	0.427
14.753	0.408
14.7939	0.391
14.8348	0.373
14.8757	0.359
14.9166	0.35
14.9575	0.347
14.9984	0.347
15.0393	0.345
15.0801	0.34
15.121	0.335
15.1619	0.33
15.2028	0.325
15.2437	0.32
15.2846	0.32
15.3255	0.32
15.3664	0.325
15.4073	0.344
15.4482	0.369
15.4891	0.39
15.53	0.41
15.5709	0.441
15.6118	0.456
15.6527	0.482
15.6936	0.492
15.7345	0.507
15.7754	0.517
15.8163	0.526
15.8572	0.531
15.8981	0.538
15.939	0.541
15.9799	0.541
