Infrared Spectrum: Methyl 2,6-dimethoxy-3-nitrobenzoic acid
Formula: C 10 H 11 N O 6
CAS: 55776-20-0
State: gas
Origin: EPA-IR VAPOR PHASE LIBRARY
1/CM	ABSORBANCE
549.8	0.00362
559.445	0.0047
569.09	0.00499
578.734	0.00306
588.379	0.00433
598.024	0.0056
607.669	0.00671
617.313	0.00807
626.958	0.01211
636.603	0.01943
646.248	0.02582
655.893	0.02473
665.537	0.01936
675.182	0.01513
684.827	0.01116
694.472	0.00863
704.116	0.00792
713.761	0.00895
723.406	0.01339
733.051	0.01583
742.695	0.01096
752.34	0.00841
761.985	0.00941
771.63	0.01003
781.275	0.00859
790.919	0.00994
800.564	0.01231
810.209	0.0262
819.854	0.035
829.498	0.01666
839.143	0.00689
848.788	0.00509
858.433	0.00628
868.078	0.01065
877.722	0.01632
887.367	0.01026
897.012	0.00619
906.657	0.00655
916.301	0.01034
925.946	0.01838
935.591	0.01365
945.236	0.00777
954.88	0.00683
964.525	0.00955
974.17	0.01497
983.815	0.02139
993.46	0.01897
1003.1	0.02029
1012.75	0.02657
1022.39	0.02173
1032.04	0.01572
1041.68	0.01524
1051.33	0.02007
1060.97	0.03149
1070.62	0.05577
1080.26	0.09646
1089.91	0.14684
1099.55	0.17384
1109.2	0.16039
1118.84	0.16861
1128.49	0.14112
1138.13	0.06364
1147.78	0.03355
1157.42	0.02908
1167.07	0.02521
1176.71	0.02309
1186.36	0.02471
1196	0.02539
1205.64	0.02858
1215.29	0.04824
1224.93	0.09105
1234.58	0.12083
1244.22	0.13322
1253.87	0.16902
1263.51	0.18248
1273.16	0.14407
1282.8	0.15751
1292.45	0.23599
1302.09	0.23017
1311.74	0.11864
1321.38	0.06118
1331.03	0.04529
1340.67	0.05587
1350.32	0.10057
1359.96	0.1119
1369.61	0.05539
1379.25	0.03026
1388.9	0.02709
1398.54	0.03822
1408.18	0.06477
1417.83	0.06431
1427.47	0.05156
1437.12	0.07232
1446.76	0.05305
1456.41	0.05163
1466.05	0.09278
1475.7	0.12843
1485.34	0.07882
1494.99	0.04179
1504.63	0.0403
1514.28	0.05015
1523.92	0.06929
1533.57	0.10433
1543.21	0.1247
1552.86	0.09456
1562.5	0.0766
1572.15	0.09947
1581.79	0.16882
1591.44	0.19858
1601.08	0.1374
1610.73	0.06642
1620.37	0.03205
1630.01	0.02026
1639.66	0.01558
1649.3	0.01297
1658.95	0.01176
1668.59	0.01027
1678.24	0.00913
1687.88	0.00887
1697.53	0.01069
1707.17	0.01555
1716.82	0.0217
1726.46	0.02364
1736.11	0.0353
1745.75	0.10536
1755.4	0.21038
1765.04	0.13373
1774.69	0.0436
1784.33	0.02232
1793.98	0.018
1803.62	0.01229
1813.27	0.00905
1822.91	0.00682
1832.55	0.00537
1842.2	0.0048
1851.84	0.00535
1861.49	0.00557
1871.13	0.0055
1880.78	0.00568
1890.42	0.00516
1900.07	0.00496
1909.71	0.00486
1919.36	0.00493
1929	0.00498
1938.65	0.00517
1948.29	0.00498
1957.94	0.00483
1967.58	0.0043
1977.23	0.00387
1986.87	0.00361
1996.52	0.00373
2006.16	0.00369
2015.81	0.00364
2025.45	0.00336
2035.1	0.00316
2044.74	0.00316
2054.38	0.00327
2064.03	0.00324
2073.67	0.0034
2083.32	0.00361
2092.96	0.00396
2102.61	0.00401
2112.25	0.00413
2121.9	0.00367
2131.54	0.00325
2141.19	0.00301
2150.83	0.0029
2160.48	0.00286
2170.12	0.00308
2179.77	0.00307
2189.41	0.00311
2199.06	0.00318
2208.7	0.00324
2218.35	0.0036
2227.99	0.00336
2237.64	0.00301
2247.28	0.00264
2256.92	0.00221
2266.57	0.00219
2276.21	0.00206
2285.86	0.00214
2295.5	0.0019235
2305.15	0.00236
2314.79	0.00284
2324.44	0.00286
2334.08	0.00262
2343.73	0.00273
2353.37	0.00255
2363.02	0.00236
2372.66	0.00252
2382.31	0.00257
2391.95	0.00266
2401.6	0.00264
2411.24	0.0026
2420.89	0.00256
2430.53	0.00203
2440.18	0.00207
2449.82	0.0022
2459.47	0.00287
2469.11	0.00297
2478.75	0.00268
2488.4	0.00252
2498.04	0.00277
2507.69	0.00287
2517.33	0.00283
2526.98	0.00315
2536.62	0.00349
2546.27	0.00358
2555.91	0.00355
2565.56	0.00352
2575.2	0.00351
2584.85	0.00314
2594.49	0.00321
2604.14	0.0031
2613.78	0.00258
2623.43	0.00271
2633.07	0.00216
2642.72	0.00205
2652.36	0.00246
2662.01	0.00274
2671.65	0.0027
2681.29	0.00239
2690.94	0.0031
2700.58	0.00345
2710.23	0.00324
2719.87	0.0029
2729.52	0.0028
2739.16	0.00246
2748.81	0.00316
2758.45	0.00316
2768.1	0.00337
2777.74	0.00271
2787.39	0.0033
2797.03	0.0037
2806.68	0.00477
2816.32	0.00556
2825.97	0.00766
2835.61	0.01268
2845.26	0.02253
2854.9	0.02399
2864.55	0.01702
2874.19	0.01509
2883.84	0.01697
2893.48	0.01945
2903.12	0.02035
2912.77	0.02075
2922.41	0.02142
2932.06	0.02314
2941.7	0.03521
2951.35	0.06045
2960.99	0.07428
2970.64	0.04195
2980.28	0.02561
2989.93	0.02126
2999.57	0.02302
3009.22	0.02613
3018.86	0.02826
3028.51	0.02053
3038.15	0.01516
3047.8	0.01056
3057.44	0.00885
3067.09	0.00771
3076.73	0.00769
3086.38	0.00846
3096.02	0.00798
3105.67	0.00685
3115.31	0.00523
3124.95	0.00365
3134.6	0.00357
3144.24	0.00295
3153.89	0.00232
3163.53	0.00273
3173.18	0.00233
3182.82	0.00259
3192.47	0.00251
3202.11	0.00238
3211.76	0.0018693
3221.4	0.00218
3231.05	0.0014526
3240.69	0.0015328
3250.34	0.000887
3259.98	0.0013141
3269.63	0.0016416
3279.27	0.000613
3288.92	0.0011577
3298.56	0.000864
3308.21	0.000838
3317.85	0.0012445
3327.49	0.0009701
3337.14	0.0014695
3346.78	0.0014641
3356.43	0.0014681
3366.07	0.0011512
3375.72	0.0013439
3385.36	0.0012297
3395.01	0.000532
3404.65	0.0012242
3414.3	0.000706
3423.94	0.000855
3433.59	0.000596
3443.23	0.000582
3452.88	0.000291
3462.52	0.0012334
3472.17	0.00224
3481.81	0.00278
3491.46	0.00341
3501.1	0.00209
3510.75	0.0019576
3520.39	0.00241
3530.04	0.0011561
3539.68	0.000914
3549.32	0.0015901
3558.97	0.0013621
3568.61	0.0010548
3578.26	0.000906
3587.9	0.0015308
3597.55	0.000775
3607.19	0.000521
3616.84	0.0012563
3626.48	0.0017465
3636.13	0.000844
3645.77	0.000641
3655.42	0.00082
3665.06	0.000784
3674.71	0.0009465
3684.35	0.000634
3694	0.0013049
3703.64	0.000849
3713.29	0.000923
3722.93	0.000456
3732.58	0.000915
3742.22	0.0012116
3751.86	0.0013778
3761.51	0.00109166
3771.15	0.0014909
3780.8	0.00105287
3790.44	0.000947
3800.09	0.0010128
3809.73	0.0011305
3819.38	0.0015136
3829.02	0.0016998
3838.67	0.0015372
3848.31	0.0013738
3857.96	0.001881
3867.6	0.0014715
3877.25	0.0011489
3886.89	0.0013709
3896.54	0.0013481
3906.18	0.0011673
3915.83	0.0015085
3925.47	0.0013664
3935.12	0.0012687
3944.76	0.0011326
3954.41	0.0016757
3964.05	0.00208
3973.69	0.0014647
3983.34	0.0014078
3992.98	0.00221
