Infrared Spectrum: Methanesulphonyl fluoride
Formula: C H 3 F O 2 S
CAS: 558-25-8
State: gas
Origin: EPA-IR VAPOR PHASE LIBRARY
1/CM	ABSORBANCE
549.9	0.06429
559.547	0.02809
569.193	0.00841
578.84	0.0042927
588.486	0.00391631
598.133	0.0040511
607.779	0.0041756
617.426	0.0045626
627.072	0.00577
636.719	0.00527
646.365	0.00541
656.012	0.00516
665.658	0.0043759
675.305	0.0040637
684.951	0.00552
694.598	0.01198
704.245	0.03057
713.891	0.05846
723.538	0.08241
733.184	0.13577
742.831	0.07938
752.477	0.09586
762.124	0.05819
771.77	0.06521
781.417	0.12283
791.063	0.19538
800.71	0.24672
810.356	0.28493
820.003	0.16322
829.649	0.1294
839.296	0.04581
848.943	0.01207
858.589	0.00647
868.236	0.00549
877.882	0.00529
887.529	0.00553
897.175	0.00592
906.822	0.00615
916.468	0.00644
926.115	0.0065
935.761	0.00747
945.408	0.01129
955.054	0.02221
964.701	0.03567
974.347	0.04521
983.994	0.045
993.64	0.042
1003.29	0.02421
1012.93	0.01008
1022.58	0.00533
1032.23	0.0041232
1041.87	0.00389877
1051.52	0.0038328
1061.17	0.003777
1070.81	0.003399
1080.46	0.003303
1090.11	0.003435
1099.75	0.003595
1109.4	0.003796
1119.05	0.00393867
1128.69	0.003546
1138.34	0.003242
1147.99	0.003106
1157.63	0.003467
1167.28	0.00516
1176.92	0.01344
1186.57	0.04531
1196.22	0.11851
1205.86	0.18215
1215.51	0.26198
1225.16	0.21837
1234.8	0.18343
1244.45	0.11442
1254.1	0.02703
1263.74	0.00714
1273.39	0.00569
1283.04	0.00616
1292.68	0.00714
1302.33	0.00998
1311.98	0.01604
1321.62	0.02543
1331.27	0.0325
1340.92	0.04578
1350.56	0.03211
1360.21	0.03069
1369.86	0.01841
1379.5	0.03094
1389.15	0.07965
1398.79	0.13528
1408.44	0.21726
1418.09	0.29232
1427.73	0.33071
1437.38	0.39148
1447.03	0.33371
1456.67	0.18755
1466.32	0.11835
1475.97	0.03809
1485.61	0.01097
1495.26	0.00587
1504.91	0.00509
1514.55	0.00545
1524.2	0.00596
1533.85	0.00608
1543.49	0.0058
1553.14	0.0048422
1562.79	0.0041748
1572.43	0.003779
1582.08	0.003749
1591.73	0.0038538
1601.37	0.00396626
1611.02	0.00391287
1620.67	0.00356
1630.31	0.003216
1639.96	0.002918
1649.6	0.00264
1659.25	0.00241
1668.9	0.00238
1678.54	0.00231
1688.19	0.00226
1697.84	0.00232
1707.48	0.00236
1717.13	0.00237
1726.78	0.00237
1736.42	0.00242
1746.07	0.00247
1755.72	0.00242
1765.36	0.00242
1775.01	0.00241
1784.66	0.00226
1794.3	0.00218
1803.95	0.00213
1813.6	0.00209
1823.24	0.00219
1832.89	0.00225
1842.54	0.00235
1852.18	0.00245
1861.83	0.00261
1871.47	0.00267
1881.12	0.0026
1890.77	0.00255
1900.41	0.00236
1910.06	0.00226
1919.71	0.00224
1929.35	0.00243
1939	0.0025
1948.65	0.00263
1958.29	0.00265
1967.94	0.00248
1977.59	0.00238
1987.23	0.00223
1996.88	0.00218
2006.53	0.00217
2016.17	0.00224
2025.82	0.00228
2035.47	0.00252
2045.11	0.0028
2054.76	0.00308
2064.41	0.003357
2074.05	0.003489
2083.7	0.003099
2093.35	0.00284
2102.99	0.00242
2112.64	0.00232
2122.28	0.00254
2131.93	0.00269
2141.58	0.002982
2151.22	0.003124
2160.87	0.00312
2170.52	0.003079
2180.16	0.002914
2189.81	0.00277
2199.46	0.00267
2209.1	0.00243
2218.75	0.00237
2228.4	0.00231
2238.04	0.00222
2247.69	0.00226
2257.34	0.00221
2266.98	0.00229
2276.63	0.0024
2286.28	0.00252
2295.92	0.002901
2305.57	0.00337
2315.22	0.003411
2324.86	0.003153
2334.51	0.00281
2344.16	0.00237
2353.8	0.00233
2363.45	0.00243
2373.09	0.00263
2382.74	0.00275
2392.39	0.003071
2402.03	0.003036
2411.68	0.003206
2421.33	0.003201
2430.97	0.00321
2440.62	0.003067
2450.27	0.0027
2459.91	0.00237
2469.56	0.00207
2479.21	0.00191
2488.85	0.00187
2498.5	0.00185
2508.15	0.00192
2517.79	0.00185
2527.44	0.00184
2537.09	0.00194
2546.73	0.00189
2556.38	0.00189
2566.03	0.00191
2575.67	0.00189
2585.32	0.00212
2594.96	0.00223
2604.61	0.0027
2614.26	0.003345
2623.9	0.0039128
2633.55	0.0047331
2643.2	0.0047283
2652.84	0.0046776
2662.49	0.00389929
2672.14	0.003137
2681.78	0.00237
2691.43	0.00183
2701.08	0.00162
2710.72	0.00153
2720.37	0.0014
2730.02	0.0014
2739.66	0.00145
2749.31	0.00121
2758.96	0.00135
2768.6	0.00132
2778.25	0.00129
2787.9	0.00107
2797.54	0.00103
2807.19	0.00093
2816.84	0.00094
2826.48	0.00108
2836.13	0.00122
2845.77	0.00122
2855.42	0.0013
2865.07	0.00102
2874.71	0.001
2884.36	0.001
2894.01	0.0008
2903.65	0.00074
2913.3	0.0006
2922.95	0.00077
2932.59	0.00054
2942.24	0.00075
2951.89	0.00068
2961.53	0.00069
2971.18	0.00058
2980.83	0.00062
2990.47	0.00066
3000.12	0.00057
3009.77	0.0007
3019.41	0.00083
3029.06	0.00076
3038.71	0.00144
3048.35	0.00102
3058	0.0006
3067.64	0.00046
3077.29	0.00039
3086.94	0.00019
3096.58	0.00031
3106.23	0.00026
3115.88	0.00027
3125.52	0.00018
3135.17	0.00046
3144.82	0.00021
3154.46	6e-05
3164.11	0.00029
3173.76	0.00012
3183.4	0.00025
3193.05	0.00035
3202.7	0.00018
3212.34	0.00045
3221.99	0.00048
3231.64	0.00029
3241.28	0.00041
3250.93	0.0005
3260.58	0.00058
3270.22	0.00068
3279.87	0.00072
3289.52	0.00077
3299.16	0.00042
3308.81	0.00052
3318.45	0.00055
3328.1	0.00059
3337.75	0.00072
3347.39	0.0009
3357.04	0.00095
3366.69	0.00093
3376.33	0.00087
3385.98	0.00094
3395.63	0.00103
3405.27	0.00098
3414.92	0.00103
3424.57	0.00112
3434.21	0.0011
3443.86	0.00111
3453.51	0.00124
3463.15	0.00109
3472.8	0.00143
3482.45	0.00123
3492.09	0.0012
3501.74	0.00138
3511.39	0.00139
3521.03	0.00149
3530.68	0.00149
3540.33	0.0015
3549.97	0.00171
3559.62	0.00184
3569.26	0.00147
3578.91	0.00171
3588.56	0.00181
3598.2	0.00185
3607.85	0.00189
3617.5	0.00182
3627.14	0.00186
3636.79	0.00193
3646.44	0.0019
3656.08	0.00193
3665.73	0.00209
3675.38	0.00203
3685.02	0.00207
3694.67	0.00192
3704.32	0.00194
3713.96	0.00202
3723.61	0.0021
3733.26	0.00207
3742.9	0.00226
3752.55	0.00225
3762.2	0.00225
3771.84	0.00234
3781.49	0.00222
3791.13	0.0023
3800.78	0.00217
3810.43	0.00219
3820.07	0.00247
3829.72	0.00233
3839.37	0.00252
3849.01	0.0027
3858.66	0.00259
3868.31	0.00245
3877.95	0.00227
3887.6	0.0023
3897.25	0.0024
3906.89	0.00254
3916.54	0.00264
3926.19	0.00288
3935.83	0.00271
3945.48	0.00267
3955.13	0.00249
3964.77	0.00238
3974.42	0.00254
3984.07	0.0029
3993.71	0.003016
