Infrared Spectrum: Flophemesylamine
Formula: C 8 H 8 F 5 N Si
CAS: 55804-98-3
State: gas
Origin: EPA-IR VAPOR PHASE LIBRARY
1/CM	ABSORBANCE
549.8	0.006869
559.445	0.006729
569.09	0.006899
578.734	0.007379
588.379	0.007609
598.024	0.007729
607.669	0.008849
617.313	0.010329
626.958	0.011659
636.603	0.016739
646.248	0.038219
655.893	0.050609
665.537	0.022949
675.182	0.015259
684.827	0.014319
694.472	0.015749
704.116	0.017509
713.761	0.020359
723.406	0.023459
733.051	0.027639
742.695	0.029529
752.34	0.028919
761.985	0.029419
771.63	0.035719
781.275	0.044209
790.919	0.052129
800.564	0.072029
810.209	0.080149
819.854	0.050319
829.498	0.036279
839.143	0.048239
848.788	0.069929
858.433	0.080979
868.078	0.095389
877.722	0.125689
887.367	0.141909
897.012	0.101719
906.657	0.055419
916.301	0.032869
925.946	0.023909
935.591	0.020389
945.236	0.026269
954.88	0.061089
964.525	0.150269
974.17	0.166799
983.815	0.063399
993.46	0.020549
1003.1	0.016849
1012.75	0.020759
1022.39	0.016389
1032.04	0.012039
1041.68	0.014749
1051.33	0.016399
1060.97	0.020159
1070.62	0.064059
1080.26	0.212919
1089.91	0.274749
1099.55	0.080709
1109.2	0.039389
1118.84	0.023329
1128.49	0.015369
1138.13	0.011789
1147.78	0.006649
1157.42	0.004979
1167.07	0.004219
1176.71	0.004509
1186.36	0.005119
1196	0.004239
1205.64	0.003599
1215.29	0.004009
1224.93	0.005839
1234.58	0.011809
1244.22	0.021509
1253.87	0.041239
1263.51	0.066759
1273.16	0.058829
1282.8	0.074439
1292.45	0.053159
1302.09	0.012099
1311.74	0.007419
1321.38	0.006039
1331.03	0.005429
1340.67	0.006289
1350.32	0.009409
1359.96	0.020659
1369.61	0.039569
1379.25	0.033639
1388.9	0.023609
1398.54	0.019629
1408.18	0.021329
1417.83	0.022699
1427.47	0.029019
1437.12	0.070979
1446.76	0.227129
1456.41	0.408179
1466.05	0.325879
1475.7	0.137019
1485.34	0.042879
1494.99	0.044429
1504.63	0.118219
1514.28	0.200449
1523.92	0.096049
1533.57	0.036619
1543.21	0.036159
1552.86	0.039919
1562.5	0.034989
1572.15	0.028169
1581.79	0.023079
1591.44	0.016569
1601.08	0.015889
1610.73	0.019509
1620.37	0.026179
1630.01	0.050349
1639.66	0.066989
1649.3	0.030869
1658.95	0.012629
1668.59	0.008079
1678.24	0.005559
1687.88	0.004539
1697.53	0.003539
1707.17	0.003179
1716.82	0.003759
1726.46	0.002869
1736.11	0.002379
1745.75	0.002189
1755.4	0.001629
1765.04	0.001429
1774.69	0.001899
1784.33	0.001899
1793.98	0.001339
1803.62	0.0009705
1813.27	0.0009641
1822.91	0.001299
1832.55	0.001649
1842.2	0.001479
1851.84	0.0011115
1861.49	0.0011735
1871.13	0.001319
1880.78	0.001199
1890.42	0.001199
1900.07	0.001469
1909.71	0.001719
1919.36	0.001669
1929	0.001379
1938.65	0.001479
1948.29	0.001519
1957.94	0.001339
1967.58	0.001219
1977.23	0.0010216
1986.87	0.0009424
1996.52	0.0011422
2006.16	0.0011484
2015.81	0.0011049
2025.45	0.0010568
2035.1	0.001349
2044.74	0.001249
2054.38	0.0010621
2064.03	0.0009187
2073.67	0.000827
2083.32	0.0009781
2092.96	0.0011112
2102.61	0.001399
2112.25	0.0008878
2121.9	0.0007318
2131.54	0.0008746
2141.19	0.0006557
2150.83	0.0006108
2160.48	0.0010201
2170.12	0.0007913
2179.77	0.0008901
2189.41	0.0007873
2199.06	0.000873
2208.7	0.0011274
2218.35	0.001329
2227.99	0.0010004
2237.64	0.0007741
2247.28	0.0005461
2256.92	0.0004591
2266.57	0.0006251
2276.21	0.0005705
2285.86	0.0005959
2295.5	0.0007254
2305.15	0.0008869
2314.79	0.001309
2324.44	0.001809
2334.08	0.002219
2343.73	0.001829
2353.37	0.001439
2363.02	0.001559
2372.66	0.001869
2382.31	0.001399
2391.95	0.001229
2401.6	0.001469
2411.24	0.001719
2420.89	0.002029
2430.53	0.001429
2440.18	0.0010595
2449.82	0.0011505
2459.47	0.0008823
2469.11	0.0010309
2478.75	0.001189
2488.4	0.001349
2498.04	0.001419
2507.69	0.001279
2517.33	0.0010701
2526.98	0.0010281
2536.62	0.001269
2546.27	0.001379
2555.91	0.001489
2565.56	0.001729
2575.2	0.002069
2584.85	0.002359
2594.49	0.002529
2604.14	0.002059
2613.78	0.001379
2623.43	0.001189
2633.07	0.001359
2642.72	0.0011886
2652.36	0.0011509
2662.01	0.0007676
2671.65	0.0003843
2681.29	0.0003835
2690.94	0.0005007
2700.58	0.0005695
2710.23	0.0006044
2719.87	0.0008126
2729.52	0.0009228
2739.16	0.0007936
2748.81	0.0007254
2758.45	0.0007927
2768.1	0.0008305
2777.74	0.0010344
2787.39	0.0011501
2797.03	0.001539
2806.68	0.001679
2816.32	0.001729
2825.97	0.001729
2835.61	0.001669
2845.26	0.001829
2854.9	0.001909
2864.55	0.002439
2874.19	0.002909
2883.84	0.003619
2893.48	0.005079
2903.12	0.007729
2912.77	0.008869
2922.41	0.006309
2932.06	0.004479
2941.7	0.005239
2951.35	0.009209
2960.99	0.017209
2970.64	0.021449
2980.28	0.014779
2989.93	0.009559
2999.57	0.005459
3009.22	0.003599
3018.86	0.002949
3028.51	0.002129
3038.15	0.002149
3047.8	0.001829
3057.44	0.002289
3067.09	0.002199
3076.73	0.002519
3086.38	0.002409
3096.02	0.002159
3105.67	0.002259
3115.31	0.001879
3124.95	0.001789
3134.6	0.001399
3144.24	0.001279
3153.89	0.001209
3163.53	0.0008662
3173.18	0.000493
3182.82	0.0005762
3192.47	0.0005478
3202.11	0.0007564
3211.76	0.0003018
3221.4	0.0003463
3231.05	0.0007115
3240.69	0.0008937
3250.34	0.0006288
3259.98	0.0002821
3269.63	0.0007056
3279.27	0.0007629
3288.92	0.0004768
3298.56	0.000329
3308.21	0.0004237
3317.85	0.0004238
3327.49	0.0009611
3337.14	0.0008714
3346.78	0.0010327
3356.43	0.0010461
3366.07	0.001349
3375.72	0.002049
3385.36	0.002399
3395.01	0.004109
3404.65	0.006959
3414.3	0.012799
3423.94	0.017219
3433.59	0.011349
3443.23	0.005209
3452.88	0.003099
3462.52	0.002679
3472.17	0.002969
3481.81	0.003109
3491.46	0.004769
3501.1	0.006359
3510.75	0.005909
3520.39	0.004679
3530.04	0.002969
3539.68	0.002559
3549.32	0.001929
3558.97	0.001629
3568.61	0.0011473
3578.26	0.001299
3587.9	0.001649
3597.55	0.001399
3607.19	0.001199
3616.84	0.001469
3626.48	0.0011186
3636.13	0.001439
3645.77	0.0011865
3655.42	0.0009692
3665.06	0.0010133
3674.71	0.001199
3684.35	0.001309
3694	0.001229
3703.64	0.0010669
3713.29	0.001269
3722.93	0.001619
3732.58	0.001769
3742.22	0.001549
3751.86	0.0011561
3761.51	0.0009451
3771.15	0.0008854
3780.8	0.0010969
3790.44	0.000963
3800.09	0.0011266
3809.73	0.0007634
3819.38	0.0005489
3829.02	0.0008033
3838.67	0.0006417
3848.31	0.0006406
3857.96	0.0005102
3867.6	0.0007405
3877.25	0.0003874
3886.89	0.00022776
3896.54	0.0002963
3906.18	0.0003859
3915.83	0.0003095
3925.47	0.000483
3935.12	0.00026331
3944.76	0.0003094
3954.41	0.0004919
3964.05	0.0001514
3973.69	0.0003583
3983.34	0.0004086
3992.98	0.000511
