Infrared Spectrum: 3,4-Dimethylbenzamide
Formula: C 9 H 11 N O
CAS: 5580-33-6
State: gas
Origin: EPA-IR VAPOR PHASE LIBRARY
1/CM	ABSORBANCE
549.8	0.003959
559.445	0.003779
569.09	0.002859
578.734	0.002719
588.379	0.003929
598.024	0.004989
607.669	0.005689
617.313	0.004969
626.958	0.003829
636.603	0.003649
646.248	0.004069
655.893	0.003139
665.537	0.003599
675.182	0.003849
684.827	0.004799
694.472	0.006109
704.116	0.006409
713.761	0.005409
723.406	0.005129
733.051	0.007389
742.695	0.011629
752.34	0.015079
761.985	0.011119
771.63	0.007569
781.275	0.005319
790.919	0.005529
800.564	0.005339
810.209	0.005889
819.854	0.008399
829.498	0.006629
839.143	0.006469
848.788	0.005869
858.433	0.004619
868.078	0.005289
877.722	0.005019
887.367	0.005329
897.012	0.004799
906.657	0.004269
916.301	0.004119
925.946	0.003479
935.591	0.002869
945.236	0.002929
954.88	0.002349
964.525	0.002879
974.17	0.003329
983.815	0.003889
993.46	0.003449
1003.1	0.004069
1012.75	0.003169
1022.39	0.002529
1032.04	0.002219
1041.68	0.002429
1051.33	0.002489
1060.97	0.002139
1070.62	0.005079
1080.26	0.004469
1089.91	0.0014603
1099.55	0.004119
1109.2	0.003969
1118.84	0.002909
1128.49	0.003879
1138.13	0.004859
1147.78	0.003999
1157.42	0.003379
1167.07	0.003159
1176.71	0.004649
1186.36	0.005039
1196	0.003569
1205.64	0.003739
1215.29	0.004489
1224.93	0.004829
1234.58	0.005269
1244.22	0.005529
1253.87	0.005689
1263.51	0.007369
1273.16	0.009089
1282.8	0.010829
1292.45	0.008879
1302.09	0.008149
1311.74	0.009679
1321.38	0.017009
1331.03	0.039249
1340.67	0.060849
1350.32	0.045389
1359.96	0.018649
1369.61	0.009809
1379.25	0.007869
1388.9	0.007759
1398.54	0.008929
1408.18	0.009719
1417.83	0.007149
1427.47	0.004629
1437.12	0.004569
1446.76	0.005859
1456.41	0.006289
1466.05	0.005339
1475.7	0.004199
1485.34	0.003929
1494.99	0.004829
1504.63	0.005339
1514.28	0.003589
1523.92	0.003229
1533.57	0.003569
1543.21	0.004839
1552.86	0.006819
1562.5	0.011379
1572.15	0.022509
1581.79	0.036139
1591.44	0.032379
1601.08	0.019609
1610.73	0.015419
1620.37	0.010849
1630.01	0.005999
1639.66	0.004979
1649.3	0.004779
1658.95	0.005389
1668.59	0.008019
1678.24	0.011479
1687.88	0.015009
1697.53	0.021939
1707.17	0.055299
1716.82	0.084919
1726.46	0.065909
1736.11	0.020869
1745.75	0.013009
1755.4	0.011829
1765.04	0.007299
1774.69	0.003929
1784.33	0.002539
1793.98	0.002249
1803.62	0.0018959
1813.27	0.001914
1822.91	0.0014884
1832.55	0.0014957
1842.2	0.0016193
1851.84	0.0015117
1861.49	0.0014855
1871.13	0.0015124
1880.78	0.0015897
1890.42	0.0017117
1900.07	0.0014907
1909.71	0.0012558
1919.36	0.0013395
1929	0.0011826
1938.65	0.00100146
1948.29	0.0009274
1957.94	0.00104454
1967.58	0.00101344
1977.23	0.0012199
1986.87	0.0009132
1996.52	0.00094932
2006.16	0.0011517
2015.81	0.001098
2025.45	0.0009399
2035.1	0.0009895
2044.74	0.00095043
2054.38	0.00067
2064.03	0.00095607
2073.67	0.000723
2083.32	0.000805
2092.96	0.000792
2102.61	0.000544
2112.25	0.000832
2121.9	0.000746
2131.54	0.000742
2141.19	0.000845
2150.83	0.0008961
2160.48	0.000591
2170.12	0.000736
2179.77	0.000707
2189.41	0.000795
2199.06	0.000543
2208.7	0.000767
2218.35	0.000715
2227.99	0.000619
2237.64	0.0008907
2247.28	0.000651
2256.92	0.0010599
2266.57	0.0008849
2276.21	0.000841
2285.86	0.000735
2295.5	0.000799
2305.15	0.000731
2314.79	0.000702
2324.44	0.0008933
2334.08	0.00053
2343.73	0.000811
2353.37	0.0009126
2363.02	0.00099914
2372.66	0.000816
2382.31	0.000607
2391.95	0.000645
2401.6	0.000486
2411.24	0.000693
2420.89	0.000678
2430.53	0.00057
2440.18	0.00105692
2449.82	0.000663
2459.47	0.000751
2469.11	0.000657
2478.75	0.0009096
2488.4	0.00076
2498.04	0.000671
2507.69	0.000668
2517.33	0.000674
2526.98	0.000624
2536.62	0.000499
2546.27	0.000693
2555.91	0.000811
2565.56	0.00065
2575.2	0.000433
2584.85	0.000212
2594.49	0.000732
2604.14	0.000726
2613.78	0.000777
2623.43	0.000628
2633.07	0.0008659
2642.72	0.00100611
2652.36	0.000848
2662.01	0.000623
2671.65	0.000851
2681.29	0.000751
2690.94	0.000678
2700.58	0.00054
2710.23	0.000666
2719.87	0.0010703
2729.52	0.0011775
2739.16	0.0014478
2748.81	0.0012128
2758.45	0.000852
2768.1	0.0014475
2777.74	0.00104454
2787.39	0.0010975
2797.03	0.0012289
2806.68	0.0012563
2816.32	0.0015965
2825.97	0.0016252
2835.61	0.0014694
2845.26	0.0014137
2854.9	0.002969
2864.55	0.003669
2874.19	0.005539
2883.84	0.005809
2893.48	0.005609
2903.12	0.005239
2912.77	0.005889
2922.41	0.008719
2932.06	0.012379
2941.7	0.011759
2951.35	0.009399
2960.99	0.007729
2970.64	0.006959
2980.28	0.007269
2989.93	0.006229
2999.57	0.004949
3009.22	0.004389
3018.86	0.006469
3028.51	0.006989
3038.15	0.006169
3047.8	0.005339
3057.44	0.005359
3067.09	0.004399
3076.73	0.003849
3086.38	0.003049
3096.02	0.002309
3105.67	0.0018029
3115.31	0.0018225
3124.95	0.0015911
3134.6	0.0014657
3144.24	0.0012299
3153.89	0.000843
3163.53	0.000824
3173.18	0.0013165
3182.82	0.00044
3192.47	0.000779
3202.11	0.000611
3211.76	0.000578
3221.4	0.0011043
3231.05	0.0011847
3240.69	0.0011626
3250.34	0.000808
3259.98	0.0009423
3269.63	0.00103797
3279.27	0.000828
3288.92	0.000805
3298.56	0.0012958
3308.21	0.00105268
3317.85	0.000656
3327.49	0.001097
3337.14	0.000414
3346.78	0.000712
3356.43	0.000518
3366.07	0.000851
3375.72	0.0014557
3385.36	0.0011359
3395.01	0.002119
3404.65	0.002879
3414.3	0.005059
3423.94	0.007099
3433.59	0.008879
3443.23	0.006939
3452.88	0.002889
3462.52	0.002039
3472.17	0.002049
3481.81	0.000836
3491.46	0.0017339
3501.1	0.001654
3510.75	0.002939
3520.39	0.003349
3530.04	0.004199
3539.68	0.005829
3549.32	0.007079
3558.97	0.005369
3568.61	0.002679
3578.26	0.0014773
3587.9	0.0013611
3597.55	0.0015202
3607.19	0.0013931
3616.84	0.000846
3626.48	0.0008638
3636.13	0.0011012
3645.77	0.0010733
3655.42	0.000722
3665.06	0.0009282
3674.71	0.000946
3684.35	0.000252
3694	0.000218
3703.64	0.000843
3713.29	0.000637
3722.93	0.00054
3732.58	0.000618
3742.22	0.00097544
3751.86	0.0009259
3761.51	0.00097248
3771.15	0.00075
3780.8	0.00101192
3790.44	0.000787
3800.09	0.0010844
3809.73	0.000327
3819.38	0.0011307
3829.02	0.0011472
3838.67	0.0010678
3848.31	0.000657
3857.96	0.000729
3867.6	0.0012356
3877.25	0.0012749
3886.89	0.0009096
3896.54	0.000967817
3906.18	0.000808
3915.83	0.0015475
3925.47	0.000741
3935.12	0.000677
3944.76	0.000416
3954.41	0.000796
3964.05	0.000341
3973.69	0.000713
3983.34	0.0013155
3992.98	0.0013063
