Infrared Spectrum: 2,3-Dimethylbenzamide
Formula: C 9 H 11 N O
CAS: 5580-34-7
State: gas
Origin: EPA-IR VAPOR PHASE LIBRARY
1/CM	ABSORBANCE
549.8	0.001532
559.445	0.002685
569.09	0.002775
578.734	0.002335
588.379	0.002705
598.024	0.002005
607.669	0.003845
617.313	0.002355
626.958	0.002395
636.603	0.002585
646.248	0.003265
655.893	0.004075
665.537	0.004945
675.182	0.003815
684.827	0.002425
694.472	0.002565
704.116	0.002395
713.761	0.003515
723.406	0.004385
733.051	0.005215
742.695	0.006465
752.34	0.008235
761.985	0.007815
771.63	0.006785
781.275	0.006225
790.919	0.005955
800.564	0.004855
810.209	0.004895
819.854	0.004025
829.498	0.002985
839.143	0.003225
848.788	0.003265
858.433	0.002335
868.078	0.002285
877.722	0.003045
887.367	0.003265
897.012	0.002895
906.657	0.002405
916.301	0.002715
925.946	0.002795
935.591	0.002485
945.236	0.002525
954.88	0.003075
964.525	0.001875
974.17	0.003145
983.815	0.002415
993.46	0.003645
1003.1	0.001835
1012.75	0.0006747
1022.39	0.003325
1032.04	0.003235
1041.68	0.003945
1051.33	0.003005
1060.97	0.002395
1070.62	0.002055
1080.26	0.004305
1089.91	0.002345
1099.55	0.001965
1109.2	0.003085
1118.84	0.003535
1128.49	0.002175
1138.13	0.0014368
1147.78	0.002885
1157.42	0.002155
1167.07	0.003295
1176.71	0.002305
1186.36	0.0013341
1196	0.002175
1205.64	0.002295
1215.29	0.0015864
1224.93	0.001795
1234.58	0.0008592
1244.22	0.002325
1253.87	0.0016824
1263.51	0.002515
1273.16	0.003345
1282.8	0.004335
1292.45	0.004965
1302.09	0.006045
1311.74	0.008835
1321.38	0.014195
1331.03	0.022635
1340.67	0.023635
1350.32	0.013465
1359.96	0.006195
1369.61	0.004365
1379.25	0.004115
1388.9	0.003905
1398.54	0.003335
1408.18	0.002805
1417.83	0.003195
1427.47	0.003915
1437.12	0.004865
1446.76	0.005465
1456.41	0.004745
1466.05	0.004365
1475.7	0.003655
1485.34	0.002845
1494.99	0.002575
1504.63	0.002335
1514.28	0.002365
1523.92	0.002365
1533.57	0.002325
1543.21	0.002615
1552.86	0.003685
1562.5	0.006115
1572.15	0.014035
1581.79	0.018925
1591.44	0.014415
1601.08	0.007265
1610.73	0.004455
1620.37	0.003165
1630.01	0.003255
1639.66	0.002895
1649.3	0.002565
1658.95	0.003615
1668.59	0.004885
1678.24	0.006935
1687.88	0.008275
1697.53	0.012415
1707.17	0.027815
1716.82	0.047115
1726.46	0.037105
1736.11	0.015885
1745.75	0.007315
1755.4	0.005325
1765.04	0.003465
1774.69	0.002895
1784.33	0.002185
1793.98	0.001975
1803.62	0.002155
1813.27	0.001785
1822.91	0.0016276
1832.55	0.0013728
1842.2	0.001448
1851.84	0.0015685
1861.49	0.0016238
1871.13	0.0013171
1880.78	0.0015234
1890.42	0.0015571
1900.07	0.0014486
1909.71	0.0014155
1919.36	0.001745
1929	0.0014958
1938.65	0.0011397
1948.29	0.0012941
1957.94	0.0016012
1967.58	0.0013511
1977.23	0.0013592
1986.87	0.0012776
1996.52	0.0010727
2006.16	0.0013676
2015.81	0.0012609
2025.45	0.0012675
2035.1	0.0011186
2044.74	0.0009999
2054.38	0.0013725
2064.03	0.0013903
2073.67	0.0012884
2083.32	0.0012952
2092.96	0.0011432
2102.61	0.0010894
2112.25	0.0012944
2121.9	0.0012684
2131.54	0.0011694
2141.19	0.0010449
2150.83	0.0013143
2160.48	0.0012705
2170.12	0.00151
2179.77	0.0013018
2189.41	0.0011365
2199.06	0.0012521
2208.7	0.0016179
2218.35	0.0013148
2227.99	0.0015501
2237.64	0.0014926
2247.28	0.001128
2256.92	0.0011549
2266.57	0.0010487
2276.21	0.0010215
2285.86	0.0012165
2295.5	0.0016137
2305.15	0.001352
2314.79	0.0011546
2324.44	0.0014034
2334.08	0.0013477
2343.73	0.0010176
2353.37	0.0011846
2363.02	0.0009749
2372.66	0.0014309
2382.31	0.000924
2391.95	0.0011877
2401.6	0.0012549
2411.24	0.0013386
2420.89	0.0009624
2430.53	0.0006939
2440.18	0.00074043
2449.82	0.0011477
2459.47	0.0011423
2469.11	0.0010839
2478.75	0.001576
2488.4	0.0013239
2498.04	0.000873
2507.69	0.0010776
2517.33	0.0009772
2526.98	0.0010527
2536.62	0.0009157
2546.27	0.0014106
2555.91	0.0012179
2565.56	0.0013243
2575.2	0.0012918
2584.85	0.0010895
2594.49	0.0009366
2604.14	0.00078189
2613.78	0.0012619
2623.43	0.0015223
2633.07	0.0011547
2642.72	0.0012964
2652.36	0.0013602
2662.01	0.0012647
2671.65	0.0011089
2681.29	0.0010552
2690.94	0.0013294
2700.58	0.00078253
2710.23	0.0011278
2719.87	0.0012618
2729.52	0.0013306
2739.16	0.0013283
2748.81	0.001298
2758.45	0.0014216
2768.1	0.001855
2777.74	0.0013295
2787.39	0.001335
2797.03	0.0011216
2806.68	0.001537
2816.32	0.0016455
2825.97	0.00074043
2835.61	0.001855
2845.26	0.0014036
2854.9	0.002155
2864.55	0.002495
2874.19	0.002975
2883.84	0.002975
2893.48	0.003335
2903.12	0.003285
2912.77	0.003815
2922.41	0.004955
2932.06	0.006015
2941.7	0.006205
2951.35	0.005085
2960.99	0.004735
2970.64	0.003975
2980.28	0.004755
2989.93	0.004055
2999.57	0.003295
3009.22	0.003495
3018.86	0.003905
3028.51	0.003265
3038.15	0.003605
3047.8	0.003375
3057.44	0.004975
3067.09	0.004725
3076.73	0.004765
3086.38	0.003095
3096.02	0.001975
3105.67	0.0016391
3115.31	0.0013071
3124.95	0.0012439
3134.6	0.002265
3144.24	0.0015451
3153.89	0.001785
3163.53	0.0010655
3173.18	0.0013446
3182.82	0.001485
3192.47	0.0009291
3202.11	0.0011339
3211.76	0.0009747
3221.4	0.0012469
3231.05	0.001795
3240.69	0.001775
3250.34	0.0007025
3259.98	0.0011465
3269.63	0.0012949
3279.27	0.0008993
3288.92	0.0009934
3298.56	0.0009513
3308.21	0.0011498
3317.85	0.0016153
3327.49	0.0016211
3337.14	0.001735
3346.78	0.0013589
3356.43	0.0008411
3366.07	0.0010331
3375.72	0.002085
3385.36	0.0016078
3395.01	0.0016659
3404.65	0.003885
3414.3	0.004095
3423.94	0.005495
3433.59	0.005625
3443.23	0.003965
3452.88	0.0009287
3462.52	0.0009789
3472.17	0.0015517
3481.81	0.002065
3491.46	0.00075199
3501.1	0.002045
3510.75	0.002005
3520.39	0.002145
3530.04	0.003245
3539.68	0.003695
3549.32	0.004435
3558.97	0.003945
3568.61	0.002955
3578.26	0.001925
3587.9	0.0010966
3597.55	0.0009211
3607.19	0.001589
3616.84	0.0013421
3626.48	0.000945
3636.13	0.00097
3645.77	0.0008566
3655.42	0.0011839
3665.06	0.000953
3674.71	0.0012124
3684.35	0.0008707
3694	0.001765
3703.64	0.001386
3713.29	0.0012057
3722.93	0.0009553
3732.58	0.0012332
3742.22	0.0013287
3751.86	0.0014294
3761.51	0.0009514
3771.15	0.0012493
3780.8	0.00043
3790.44	0.000324
3800.09	0.000296
3809.73	0.0010803
3819.38	0.000301
3829.02	0.0010436
3838.67	0.000579
3848.31	0.0010522
3857.96	0.0010264
3867.6	0.0012414
3877.25	0.0011904
3886.89	0.001269
3896.54	0.0015863
3906.18	0.0010403
3915.83	0.0011032
3925.47	0.0013928
3935.12	0.001855
3944.76	0.002005
3954.41	0.000948
3964.05	0.0009656
3973.69	0.0011321
3983.34	0.0006963
3992.98	0.0012402
