Infrared Spectrum: 3-Methyl-4-decanol
Formula: C 11 H 24 O
CAS: 55816-17-6
State: gas
Instrument: HP-GC/MS/IRD
Origin: NIST Mass Spectrometry Data Center
1/CM	ABSORBANCE
550	0.0009006
562	0.000342
574	0.0002926
586	0.000228
598	8.74e-05
610	0.000114
622	0.0002432
634	0.0002394
646	0.0001786
658	0.0001672
670	0.000133
682	6.84e-05
694	0.000152
706	0.0002318
718	0.0004522
730	0.0005206
742	0.0004142
754	0.0003876
766	0.0004864
778	0.0005738
790	0.0004484
802	0.0004712
814	0.0004256
826	0.000361
838	0.0004294
850	0.0005586
862	0.0006536
874	0.0007258
886	0.0008018
898	0.0008284
910	0.0009082
922	0.000969
934	0.0013262
946	0.0020102
958	0.0027018
970	0.0030932
982	0.0033934
994	0.0033288
1006	0.0033706
1018	0.0035872
1030	0.00361
1042	0.0033364
1054	0.002679
1066	0.0022458
1078	0.002071
1090	0.0021242
1102	0.0022952
1114	0.0022116
1126	0.0022002
1138	0.0023028
1150	0.0019912
1162	0.0015922
1174	0.0014136
1186	0.0015314
1198	0.0017404
1210	0.0019266
1222	0.0020938
1234	0.0021394
1246	0.002128
1258	0.0020938
1270	0.0020748
1282	0.0019494
1294	0.0017936
1306	0.0017062
1318	0.001615
1330	0.0016188
1342	0.0018506
1354	0.0021774
1366	0.002831
1378	0.0041002
1390	0.0039824
1402	0.0022344
1414	0.0015314
1426	0.001482
1438	0.0021698
1450	0.0036062
1462	0.0053238
1474	0.0040546
1486	0.0017936
1498	0.0010412
1510	0.0008056
1522	0.0006726
1534	0.0004636
1546	0.0004104
1558	0.0005586
1570	0.0002736
1582	0.0002014
1594	0.0001672
1606	0.0001672
1618	0.0002318
1630	0.0001558
1642	0.0001748
1654	0.0003572
1666	0.000171
1678	0.0001482
1690	0.0001444
1702	0.0002432
1714	0.000152
1726	5.32e-05
1738	0.0001482
1750	0.0001216
1762	7.22e-05
1774	0.000114
1786	5.32e-05
1798	6.08e-05
1810	3.04e-05
1822	5.7e-05
1834	2.66e-05
1846	7.98e-05
1858	1.9e-05
1870	3.42e-05
1882	3.04e-05
1894	4.56e-05
1906	2.66e-05
1918	1.9e-05
1930	1.14e-05
1942	0
1954	1.52e-05
1966	3.04e-05
1978	3.42e-05
1990	2.28e-05
2002	2.28e-05
2014	4.18e-05
2026	4.94e-05
2038	5.32e-05
2050	4.94e-05
2062	5.32e-05
2074	6.08e-05
2086	3.8e-05
2098	2.28e-05
2110	4.18e-05
2122	4.18e-05
2134	4.56e-05
2146	2.28e-05
2158	4.56e-05
2170	4.94e-05
2182	6.08e-05
2194	4.94e-05
2206	4.18e-05
2218	4.94e-05
2230	3.04e-05
2242	2.28e-05
2254	5.32e-05
2266	3.04e-05
2278	6.46e-05
2290	7.22e-05
2302	7.98e-05
2314	9.12e-05
2326	0.0001368
2338	0.0001444
2350	0.0001178
2362	0.0001672
2374	0.0001064
2386	0.0001102
2398	8.74e-05
2410	0.000114
2422	0.000114
2434	9.88e-05
2446	0.0001102
2458	9.5e-05
2470	8.36e-05
2482	6.84e-05
2494	7.6e-05
2506	8.74e-05
2518	9.88e-05
2530	0.000133
2542	0.0001558
2554	0.0001748
2566	0.0002242
2578	0.0002774
2590	0.0002964
2602	0.000323
2614	0.0003724
2626	0.0003914
2638	0.000437
2650	0.0004712
2662	0.0005206
2674	0.0005586
2686	0.0005852
2698	0.0006004
2710	0.0006422
2722	0.0007068
2734	0.0008246
2746	0.0008854
2758	0.000893
2770	0.00095
2782	0.0011134
2794	0.0013718
2806	0.0017024
2818	0.0022572
2830	0.0032072
2842	0.0053086
2854	0.0104006
2866	0.0162716
2878	0.0183388
2890	0.0179322
2902	0.0167124
2914	0.0221806
2926	0.0330334
2938	0.0379734
2950	0.0295982
2962	0.0293816
2974	0.0281846
2986	0.012597
2998	0.0055822
3010	0.0032262
3022	0.0022078
3034	0.0016948
3046	0.0013642
3058	0.0011438
3070	0.0009766
3082	0.000817
3094	0.0007448
3106	0.000665
3118	0.0005358
3130	0.0005168
3142	0.000475
3154	0.0004712
3166	0.0004332
3178	0.0003724
3190	0.000323
3202	0.0002812
3214	0.0002052
3226	0.000171
3238	0.0001406
3250	0.0001406
3262	0.0001216
3274	9.12e-05
3286	0.000114
3298	6.46e-05
3310	8.74e-05
3322	7.22e-05
3334	7.98e-05
3346	9.12e-05
3358	7.22e-05
3370	0.0001102
3382	7.6e-05
3394	0.000114
3406	0.000114
3418	0.0001368
3430	9.88e-05
3442	0.0001026
3454	0.000114
3466	0.0001368
3478	9.88e-05
3490	9.88e-05
3502	0.0001254
3514	7.6e-05
3526	4.56e-05
3538	2.28e-05
3550	7.98e-05
3562	7.22e-05
3574	0.0001064
3586	0.000133
3598	0.0001558
3610	0.000266
3622	0.000418
3634	0.0007372
3646	0.0013794
3658	0.0016682
3670	0.0011248
3682	0.0003952
3694	0.0002812
3706	0.0002394
3718	0.000152
3730	0.0002356
3742	0.0002508
3754	0.0002698
3766	0.000171
3778	0.0001292
3790	9.88e-05
3802	0.0002432
3814	0.0002242
3826	0.000228
3838	0.0002964
