Infrared Spectrum: 3-Methyl-3-heptanol
Formula: C 8 H 18 O
CAS: 5582-82-1
State: gas
Instrument: HP-GC/MS/IRD
Origin: NIST Mass Spectrometry Data Center
1/CM	ABSORBANCE
550	0.0002784
562	0.0002292
574	0.0001908
586	6.12e-05
598	5.4e-05
610	7.92e-05
622	6.96e-05
634	0.0001356
646	0.00012
658	8.16e-05
670	0.0001464
682	0.0002028
694	0.0001704
706	0.000192
718	0.0002952
730	0.0002748
742	0.0003276
754	0.0003048
766	0.0002604
778	0.0003408
790	0.000408
802	0.0003168
814	0.0002544
826	0.0002088
838	0.000198
850	0.0003228
862	0.0004092
874	0.0006864
886	0.0009444
898	0.0010368
910	0.0011016
922	0.0014508
934	0.0013632
946	0.0008688
958	0.000606
970	0.0006528
982	0.000936
994	0.0012048
1006	0.0012096
1018	0.0009912
1030	0.0008448
1042	0.0008964
1054	0.0009012
1066	0.0009384
1078	0.001044
1090	0.0010704
1102	0.001086
1114	0.0012096
1126	0.0015312
1138	0.0017868
1150	0.002016
1162	0.0020964
1174	0.0017316
1186	0.001356
1198	0.0011496
1210	0.0010776
1222	0.0010308
1234	0.0010716
1246	0.0011604
1258	0.0012252
1270	0.001176
1282	0.0011424
1294	0.0011376
1306	0.001128
1318	0.00105
1330	0.0011376
1342	0.0011928
1354	0.0013104
1366	0.0016128
1378	0.0022548
1390	0.0018252
1402	0.0009732
1414	0.0006804
1426	0.0006972
1438	0.0009228
1450	0.0015288
1462	0.0019968
1474	0.0015552
1486	0.0008412
1498	0.000468
1510	0.0002136
1522	0.0002244
1534	0.0002508
1546	0.000192
1558	0.00018
1570	0.000294
1582	0.0002844
1594	0.0002748
1606	0.0002532
1618	0.0002076
1630	0.000234
1642	0.000198
1654	0.0001056
1666	0.0001584
1678	0.0001044
1690	0.0001236
1702	4.68e-05
1714	5.04e-05
1726	0.0001104
1738	4.44e-05
1750	3.84e-05
1762	0.0001032
1774	8.76e-05
1786	0.000102
1798	9e-05
1810	0.0001284
1822	0.000126
1834	0.0001428
1846	8.28e-05
1858	0.000108
1870	9.36e-05
1882	0.0001272
1894	0.0001164
1906	0.000102
1918	9.6e-05
1930	0.0001056
1942	8.88e-05
1954	0.0001056
1966	7.92e-05
1978	9e-05
1990	8.04e-05
2002	0.0001068
2014	7.32e-05
2026	7.92e-05
2038	6.84e-05
2050	6.72e-05
2062	6.24e-05
2074	7.68e-05
2086	6.48e-05
2098	4.32e-05
2110	4.68e-05
2122	4.08e-05
2134	4.44e-05
2146	1.68e-05
2158	5.04e-05
2170	2.88e-05
2182	2.4e-05
2194	2.52e-05
2206	2.28e-05
2218	7.2e-06
2230	3.48e-05
2242	4.44e-05
2254	4.44e-05
2266	2.52e-05
2278	3.24e-05
2290	4.2e-05
2302	5.52e-05
2314	8.4e-05
2326	0.0001188
2338	0.0001332
2350	0.000108
2362	0.0001908
2374	0.0001272
2386	8.16e-05
2398	5.16e-05
2410	6.6e-05
2422	4.2e-05
2434	5.28e-05
2446	6.6e-05
2458	4.44e-05
2470	3e-05
2482	4.08e-05
2494	3.96e-05
2506	3.72e-05
2518	5.88e-05
2530	6.96e-05
2542	9.48e-05
2554	8.88e-05
2566	7.8e-05
2578	7.2e-05
2590	8.04e-05
2602	0.0001152
2614	0.0001236
2626	0.0001296
2638	0.0001524
2650	0.0001476
2662	0.0001572
2674	0.0001788
2686	0.0001656
2698	0.0001716
2710	0.0002064
2722	0.0002364
2734	0.0002796
2746	0.0003072
2758	0.0003096
2770	0.000318
2782	0.0003876
2794	0.0004332
2806	0.0005856
2818	0.0007176
2830	0.0009504
2842	0.0014184
2854	0.0023424
2866	0.0036864
2878	0.004764
2890	0.004944
2902	0.0047868
2914	0.0059136
2926	0.0085008
2938	0.01104
2950	0.0103284
2962	0.0107964
2974	0.0117636
2986	0.0071772
2998	0.003048
3010	0.0015192
3022	0.0010128
3034	0.000762
3046	0.0006024
3058	0.0005016
3070	0.00045
3082	0.0004536
3094	0.000372
3106	0.000348
3118	0.0003084
3130	0.000276
3142	0.0002328
3154	0.0002436
3166	0.0002196
3178	0.0002496
3190	0.000234
3202	0.0001896
3214	0.0001608
3226	0.0001224
3238	0.0001116
3250	0.0001356
3262	9.96e-05
3274	0.000102
3286	0.000126
3298	0.0001056
3310	0.0001128
3322	9.96e-05
3334	0.0001104
3346	0.0001308
3358	0.0001452
3370	0.0001308
3382	0.000108
3394	0.0001068
3406	0.0001644
3418	0.0001692
3430	0.0001308
3442	0.0001512
3454	0.0001212
3466	0.0001368
3478	8.64e-05
3490	0.0001212
3502	7.08e-05
3514	0.0001236
3526	7.92e-05
3538	9.48e-05
3550	9.84e-05
3562	6.36e-05
3574	0.0001368
3586	3.6e-05
3598	0.0001284
3610	0.0001296
3622	0.0002856
3634	0.0006144
3646	0.0006444
3658	0.000378
3670	0.0001656
3682	0.0001548
3694	0.0001632
3706	0.0001452
3718	0.0001104
3730	8.64e-05
3742	3.36e-05
3754	8.16e-05
3766	0.00015
3778	0.0001884
3790	0.0001932
3802	0.0001848
3814	0.0002208
3826	0.0001968
3838	9.48e-05
