Infrared Spectrum: O-Trimethylsilylpropargyl alcohol
Formula: C 6 H 12 O Si
CAS: 5582-62-7
State: gas
Origin: EPA-IR VAPOR PHASE LIBRARY
1/CM	ABSORBANCE
549.9	0.00616
559.547	0.00508
569.193	0.00467
578.84	0.0048
588.486	0.00595
598.133	0.00913
607.779	0.01483
617.426	0.02338
627.072	0.03443
636.719	0.04115
646.365	0.04016
656.012	0.0432
665.658	0.03745
675.305	0.02631
684.951	0.01999
694.598	0.02047
704.245	0.02109
713.891	0.02102
723.538	0.02182
733.184	0.02463
742.831	0.03027
752.477	0.03721
762.124	0.03894
771.77	0.03311
781.417	0.02429
791.063	0.0187
800.71	0.01814
810.356	0.02324
820.003	0.03844
829.649	0.07627
839.296	0.14183
848.943	0.184
858.589	0.16781
868.236	0.15002
877.882	0.12229
887.529	0.08212
897.175	0.05299
906.822	0.03789
916.468	0.03063
926.115	0.02593
935.761	0.02082
945.408	0.01533
955.054	0.01074
964.701	0.00809
974.347	0.0075
983.994	0.00852
993.64	0.00987
1003.29	0.0103
1012.93	0.00956
1022.58	0.00848
1032.23	0.0081
1041.87	0.00924
1051.52	0.01213
1061.17	0.01782
1070.81	0.0295
1080.46	0.05414
1090.11	0.10493
1099.75	0.19764
1109.4	0.26357
1119.05	0.21365
1128.69	0.10041
1138.34	0.04583
1147.99	0.02593
1157.63	0.01584
1167.28	0.01124
1176.92	0.00943
1186.57	0.00841
1196.22	0.00853
1205.86	0.0097
1215.51	0.01197
1225.16	0.01908
1234.8	0.03565
1244.45	0.06399
1254.1	0.09341
1263.74	0.10156
1273.39	0.07243
1283.04	0.03802
1292.68	0.02292
1302.33	0.01756
1311.98	0.01418
1321.62	0.01187
1331.27	0.01011
1340.92	0.00938
1350.56	0.0103
1360.21	0.01641
1369.86	0.02089
1379.5	0.01909
1389.15	0.0105
1398.79	0.00815
1408.44	0.00755
1418.09	0.00717
1427.73	0.00676
1437.38	0.00663
1447.03	0.0068
1456.67	0.00678
1466.32	0.00607
1475.97	0.00475
1485.61	0.00371
1495.26	0.00317
1504.91	0.0028622
1514.55	0.0026371
1524.2	0.0025066
1533.85	0.0024511
1543.49	0.0024135
1553.14	0.0024848
1562.79	0.0025896
1572.43	0.0025732
1582.08	0.0026484
1591.73	0.0024634
1601.37	0.0024666
1611.02	0.0024744
1620.67	0.0024025
1630.31	0.0024975
1639.96	0.0023805
1649.6	0.00224815
1659.25	0.002101
1668.9	0.001924
1678.54	0.001812
1688.19	0.001679
1697.84	0.001642
1707.48	0.00168
1717.13	0.001614
1726.78	0.001548
1736.42	0.001512
1746.07	0.001546
1755.72	0.001487
1765.36	0.001547
1775.01	0.001643
1784.66	0.001813
1794.3	0.001959
1803.95	0.00223327
1813.6	0.002559
1823.24	0.0027971
1832.89	0.0030041
1842.54	0.003032
1852.18	0.0030935
1861.83	0.0029854
1871.47	0.0027482
1881.12	0.0023884
1890.77	0.0020918
1900.41	0.001898
1910.06	0.001817
1919.71	0.00194
1929.35	0.0021191
1939	0.0024013
1948.65	0.0024978
1958.29	0.0025162
1967.94	0.0024746
1977.59	0.0024652
1987.23	0.0023962
1996.88	0.0022849
2006.53	0.00214432
2016.17	0.002035
2025.82	0.001858
2035.47	0.00179
2045.11	0.001681
2054.76	0.001587
2064.41	0.001633
2074.05	0.001722
2083.7	0.001861
2093.35	0.0020892
2102.99	0.002395
2112.64	0.0026091
2122.28	0.0026307
2131.93	0.0022949
2141.58	0.001876
2151.22	0.001707
2160.87	0.001754
2170.52	0.001805
2180.16	0.001936
2189.81	0.0020585
2199.46	0.00222208
2209.1	0.00218371
2218.75	0.001924
2228.4	0.0017
2238.04	0.001585
2247.69	0.001505
2257.34	0.001459
2266.98	0.001429
2276.63	0.00136
2286.28	0.001361
2295.92	0.001249
2305.57	0.001308
2315.22	0.001196
2324.86	0.001194
2334.51	0.001201
2344.16	0.00119
2353.8	0.001202
2363.45	0.001221
2373.09	0.00119
2382.74	0.001222
2392.39	0.001214
2402.03	0.001222
2411.68	0.001187
2421.33	0.001171
2430.97	0.0011
2440.62	0.00113
2450.27	0.00115
2459.91	0.001204
2469.56	0.001221
2479.21	0.001179
2488.85	0.001179
2498.5	0.001218
2508.15	0.001271
2517.79	0.001153
2527.44	0.00103
2537.09	0.00106
2546.73	0.00104
2556.38	0.00092
2566.03	0.00096
2575.67	0.00094
2585.32	0.00098
2594.96	0.00107
2604.61	0.00105
2614.26	0.00115
2623.9	0.001176
2633.55	0.00115
2643.2	0.001195
2652.84	0.001315
2662.49	0.001407
2672.14	0.001482
2681.78	0.001444
2691.43	0.001487
2701.08	0.001727
2710.72	0.001966
2720.37	0.0023295
2730.02	0.0020621
2739.66	0.001852
2749.31	0.001738
2758.96	0.001682
2768.6	0.001867
2778.25	0.00222482
2787.9	0.0026526
2797.54	0.0031237
2807.19	0.00379
2816.84	0.00465
2826.48	0.00547
2836.13	0.00643
2845.77	0.00861
2855.42	0.01218
2865.07	0.01691
2874.71	0.01963
2884.36	0.01974
2894.01	0.02078
2903.65	0.02279
2913.3	0.02309
2922.95	0.02154
2932.59	0.02269
2942.24	0.02791
2951.89	0.03886
2961.53	0.04983
2971.18	0.04429
2980.83	0.02461
2990.47	0.01136
3000.12	0.00592
3009.77	0.00435
3019.41	0.00382
3029.06	0.00365
3038.71	0.00381
3048.35	0.00413
3058	0.00444
3067.64	0.00454
3077.29	0.00424
3086.94	0.00376
3096.58	0.00341
3106.23	0.0027568
3115.88	0.0024376
3125.52	0.001965
3135.17	0.001523
3144.82	0.00102
3154.46	0.00076
3164.11	0.0006
3173.76	0.00068
3183.4	0.00059
3193.05	0.00064
3202.7	0.00058
3212.34	0.00058
3221.99	0.00048
3231.64	0.00041
3241.28	0.00059
3250.93	0.00087
3260.58	0.001391
3270.22	0.0023949
3279.87	0.00433
3289.52	0.00687
3299.16	0.01313
3308.81	0.0176
3318.45	0.0294
3328.1	0.02946
3337.75	0.02284
3347.39	0.00799
3357.04	0.00388
3366.69	0.001766
3376.33	0.00077
3385.98	0.00035
3395.63	0.00024
3405.27	0.00042
3414.92	1e-05
3424.57	0.00015
3434.21	0
3443.86	0.00026
3453.51	0.00028
3463.15	0.0003
3472.8	0.0003
3482.45	0.0003
3492.09	0.00034
3501.74	0.00038
3511.39	0.00045
3521.03	0.00032
3530.68	0.0003
3540.33	0.00031
3549.97	0.00055
3559.62	0.00081
3569.26	0.0007
3578.91	0.00089
3588.56	0.00093
3598.2	0.00096
3607.85	0.00094
3617.5	0.00107
3627.14	0.00105
3636.79	0.001221
3646.44	0.001351
3656.08	0.001349
3665.73	0.001158
3675.38	0.001177
3685.02	0.00111
3694.67	0.001258
3704.32	0.001328
3713.96	0.001282
3723.61	0.001277
3733.26	0.001488
3742.9	0.001538
3752.55	0.001411
3762.2	0.001641
3771.84	0.001501
3781.49	0.001377
3791.13	0.001354
3800.78	0.001193
3810.43	0.001391
3820.07	0.001153
3829.72	0.00109
3839.37	0.00114
3849.01	0.0009
3858.66	0.00095
3868.31	0.00079
3877.95	0.00097
3887.6	0.00095
3897.25	0.00094
3906.89	0.00096
3916.54	0.00094
3926.19	0.00111
3935.83	0.001297
3945.48	0.001428
3955.13	0.001265
3964.77	0.001247
3974.42	0.00114
3984.07	0.00114
3993.71	0.00098
