Infrared Spectrum: 3-Ethoxybenzamide
Formula: C 9 H 11 N O 2
CAS: 55836-69-6
State: gas
Origin: EPA-IR VAPOR PHASE LIBRARY
1/CM	ABSORBANCE
549.8	0.002234
559.445	0.003114
569.09	0.003084
578.734	0.003364
588.379	0.003124
598.024	0.004424
607.669	0.004484
617.313	0.004814
626.958	0.003744
636.603	0.003404
646.248	0.002784
655.893	0.002494
665.537	0.002804
675.182	0.004064
684.827	0.005004
694.472	0.004884
704.116	0.004624
713.761	0.005424
723.406	0.005674
733.051	0.006644
742.695	0.010184
752.34	0.010924
761.985	0.006964
771.63	0.004564
781.275	0.004284
790.919	0.004944
800.564	0.004584
810.209	0.003894
819.854	0.003634
829.498	0.003594
839.143	0.003524
848.788	0.003954
858.433	0.003554
868.078	0.003764
877.722	0.004734
887.367	0.004244
897.012	0.003624
906.657	0.004064
916.301	0.004514
925.946	0.004974
935.591	0.004784
945.236	0.005174
954.88	0.003654
964.525	0.002574
974.17	0.001854
983.815	0.002324
993.46	0.002354
1003.1	0.003134
1012.75	0.003324
1022.39	0.004854
1032.04	0.008624
1041.68	0.013734
1051.33	0.013294
1060.97	0.008504
1070.62	0.007234
1080.26	0.005834
1089.91	0.006304
1099.55	0.007074
1109.2	0.007074
1118.84	0.006494
1128.49	0.003834
1138.13	0.002804
1147.78	0.002554
1157.42	0.002714
1167.07	0.002954
1176.71	0.003354
1186.36	0.002914
1196	0.004514
1205.64	0.007214
1215.29	0.013854
1224.93	0.023264
1234.58	0.026714
1244.22	0.021264
1253.87	0.014794
1263.51	0.010584
1273.16	0.010774
1282.8	0.012384
1292.45	0.012444
1302.09	0.012054
1311.74	0.014334
1321.38	0.019444
1331.03	0.031844
1340.67	0.046524
1350.32	0.031374
1359.96	0.012594
1369.61	0.007814
1379.25	0.006434
1388.9	0.006864
1398.54	0.006834
1408.18	0.004934
1417.83	0.005344
1427.47	0.009364
1437.12	0.015374
1446.76	0.013344
1456.41	0.006814
1466.05	0.005494
1475.7	0.008004
1485.34	0.010534
1494.99	0.007194
1504.63	0.003664
1514.28	0.002674
1523.92	0.002394
1533.57	0.003034
1543.21	0.003734
1552.86	0.005504
1562.5	0.009354
1572.15	0.020594
1581.79	0.038544
1591.44	0.034864
1601.08	0.019094
1610.73	0.010854
1620.37	0.005974
1630.01	0.004064
1639.66	0.003514
1649.3	0.003394
1658.95	0.003744
1668.59	0.004724
1678.24	0.006534
1687.88	0.009134
1697.53	0.012054
1707.17	0.023674
1716.82	0.047534
1726.46	0.040514
1736.11	0.013744
1745.75	0.008964
1755.4	0.007834
1765.04	0.004724
1774.69	0.002774
1784.33	0.001954
1793.98	0.0016842
1803.62	0.0014924
1813.27	0.0013892
1822.91	0.0015034
1832.55	0.001312
1842.2	0.0013448
1851.84	0.0014218
1861.49	0.0012863
1871.13	0.0011924
1880.78	0.0011545
1890.42	0.0011842
1900.07	0.0012587
1909.71	0.0013524
1919.36	0.0014181
1929	0.0013829
1938.65	0.0016252
1948.29	0.0013766
1957.94	0.0011799
1967.58	0.0011822
1977.23	0.0009947
1986.87	0.001024
1996.52	0.0009668
2006.16	0.0010297
2015.81	0.0009013
2025.45	0.000858
2035.1	0.0008792
2044.74	0.0011323
2054.38	0.0008926
2064.03	0.0009605
2073.67	0.0009924
2083.32	0.000966
2092.96	0.0009812
2102.61	0.0009515
2112.25	0.0008948
2121.9	0.0009309
2131.54	0.000711132
2141.19	0.0009188
2150.83	0.0008083
2160.48	0.0008059
2170.12	0.0009202
2179.77	0.0008542
2189.41	0.0010195
2199.06	0.00079942
2208.7	0.0008573
2218.35	0.0006542
2227.99	0.00077772
2237.64	0.0006324
2247.28	0.0006749
2256.92	0.00073261
2266.57	0.0006394
2276.21	0.00076799
2285.86	0.0008513
2295.5	0.0009136
2305.15	0.00073784
2314.79	0.00077824
2324.44	0.00075056
2334.08	0.0008082
2343.73	0.0008508
2353.37	0.00075434
2363.02	0.00074201
2372.66	0.0006434
2382.31	0.0008367
2391.95	0.00078158
2401.6	0.00095
2411.24	0.000688
2420.89	0.0008785
2430.53	0.0006674
2440.18	0.0009924
2449.82	0.0010347
2459.47	0.0011343
2469.11	0.0011215
2478.75	0.0008797
2488.4	0.0008097
2498.04	0.0009565
2507.69	0.00079781
2517.33	0.0009163
2526.98	0.0009652
2536.62	0.0009563
2546.27	0.0008611
2555.91	0.0009544
2565.56	0.0008183
2575.2	0.0009408
2584.85	0.0008237
2594.49	0.0006788
2604.14	0.0008461
2613.78	0.0006
2623.43	0.0006475
2633.07	0.0006513
2642.72	0.000710229
2652.36	0.0008937
2662.01	0.0008348
2671.65	0.0009581
2681.29	0.00080142
2690.94	0.0008652
2700.58	0.0009967
2710.23	0.000897
2719.87	0.00076042
2729.52	0.0008901
2739.16	0.0009275
2748.81	0.0009778
2758.45	0.0009642
2768.1	0.0010727
2777.74	0.0010848
2787.39	0.0010081
2797.03	0.001167
2806.68	0.0010323
2816.32	0.0012421
2825.97	0.0011944
2835.61	0.0011742
2845.26	0.0013419
2854.9	0.0015484
2864.55	0.002164
2874.19	0.002794
2883.84	0.003864
2893.48	0.004274
2903.12	0.004204
2912.77	0.004474
2922.41	0.004774
2932.06	0.005034
2941.7	0.005654
2951.35	0.005114
2960.99	0.004294
2970.64	0.004824
2980.28	0.007374
2989.93	0.008424
2999.57	0.005674
3009.22	0.003174
3018.86	0.002284
3028.51	0.002284
3038.15	0.002854
3047.8	0.002814
3057.44	0.002774
3067.09	0.003534
3076.73	0.004114
3086.38	0.003104
3096.02	0.002094
3105.67	0.0015001
3115.31	0.001243
3124.95	0.0011068
3134.6	0.0008057
3144.24	0.001077
3153.89	0.0009337
3163.53	0.0008805
3173.18	0.0006466
3182.82	0.00077064
3192.47	0.000949
3202.11	0.000709074
3211.76	0.0008168
3221.4	0.00075628
3231.05	0.000535
3240.69	0.000305
3250.34	0.000581
3259.98	0.00033
3269.63	0.000435
3279.27	0.000351
3288.92	0.0008231
3298.56	0.0010117
3308.21	0.0006858
3317.85	0.0006171
3327.49	0.00079878
3337.14	0.00043
3346.78	0.00077483
3356.43	0.0008558
3366.07	0.0006998
3375.72	0.0008197
3385.36	0.0012735
3395.01	0.0014054
3404.65	0.001964
3414.3	0.002744
3423.94	0.004214
3433.59	0.005364
3443.23	0.004344
3452.88	0.002154
3462.52	0.0012701
3472.17	0.0011157
3481.81	0.0010208
3491.46	0.0009741
3501.1	0.0010153
3510.75	0.0016592
3520.39	0.001934
3530.04	0.002624
3539.68	0.004034
3549.32	0.004494
3558.97	0.003564
3568.61	0.002174
3578.26	0.0014576
3587.9	0.00080006
3597.55	0.0006397
3607.19	0.0006762
3616.84	0.000486
3626.48	0.0008538
3636.13	0.00026
3645.77	0.00072419
3655.42	0.0009682
3665.06	0.0006642
3674.71	0.000527
3684.35	0.000405
3694	0.0006232
3703.64	0.0006235
3713.29	0.0006313
3722.93	0.000254
3732.58	0.000555
3742.22	0.000553
3751.86	0.000567
3761.51	0.0009407
3771.15	0.000589
3780.8	0.00065
3790.44	0.000593
3800.09	0.0006285
3809.73	0.000704514
3819.38	0.000421
3829.02	0.000703956
3838.67	0.0009196
3848.31	0.0006663
3857.96	0.0008428
3867.6	0.000256
3877.25	0.000432
3886.89	0.000856
3896.54	0.000354
3906.18	0.000386
3915.83	0.000602
3925.47	0.00022
3935.12	0.000382
3944.76	0.000558
3954.41	0.000341
3964.05	0.000469
3973.69	0.000531
3983.34	0.0009188
3992.98	0.00078329
