Infrared Spectrum: CYCLOPENTANECARBOXAMIDE, 3-HYDROXY-, CIS-
Formula: C6 H11 N O2
CAS: 55843-51-1
State: SOLID (0.8 mg / 650 mg KBr DISC)
Class: COBLENTZ III
Instrument: PERKIN-ELMER 221 (GRATING)
Instrument parameters: FILTER AT 980 CM^-^1. GRATING 4000-1428 CM^-^1, NaCl PRISM 1428-650 CM^-^1
Sampling: TRANSMISSION
Resolution: 2
Origin: SOUTHERN RESEARCH INSTITUTE
1/CM	TRANSMITTANCE
606.86	0.568
616.045	0.568
625.229	0.568
634.414	0.57
643.599	0.5595
652.783	0.5474
661.968	0.547
671.152	0.5463
680.337	0.543
689.522	0.5197
698.706	0.49
707.891	0.513
717.076	0.5639
726.26	0.6015
735.445	0.601
744.63	0.6294
753.814	0.7013
762.999	0.733
772.183	0.739
781.368	0.7385
790.553	0.7328
799.737	0.727
808.922	0.7297
818.107	0.722
827.291	0.723
836.476	0.7271
845.661	0.761
854.845	0.7621
864.03	0.7529
873.214	0.8193
882.399	0.826
891.584	0.825
900.768	0.824
909.953	0.82
919.138	0.8023
928.322	0.7526
937.507	0.794
946.692	0.7651
955.876	0.6833
965.061	0.6739
974.245	0.7305
983.43	0.6209
992.615	0.52
1001.8	0.7257
1010.98	0.73
1020.17	0.6846
1029.35	0.68
1038.54	0.7278
1047.72	0.6441
1056.91	0.6454
1066.09	0.6929
1075.28	0.6553
1084.46	0.5376
1093.65	0.449
1102.83	0.6063
1112.02	0.699
1121.2	0.697
1130.38	0.6023
1139.57	0.5889
1148.75	0.617
1157.94	0.6083
1167.12	0.6671
1176.31	0.7169
1185.49	0.718
1194.68	0.7079
1203.86	0.6798
1213.05	0.6055
1222.23	0.6732
1231.42	0.678
1240.6	0.6589
1249.78	0.637
1258.97	0.5968
1268.15	0.5377
1277.34	0.5201
1286.52	0.4776
1295.71	0.47
1304.89	0.4668
1314.08	0.4539
1323.26	0.4561
1332.45	0.5119
1341.63	0.4368
1350.82	0.4362
1360	0.5506
1369.18	0.5805
1378.37	0.571
1387.55	0.5288
1396.74	0.4625
1405.92	0.3482
1415.11	0.3001
1424.29	0.3954
1433.48	0.4656
1442.66	0.5041
1451.85	0.552
1461.03	0.5912
1470.22	0.6179
1479.4	0.6832
1488.59	0.694
1497.77	0.694
1506.95	0.6915
1516.14	0.6888
1525.32	0.6858
1534.51	0.6808
1543.69	0.674
1552.88	0.6709
1562.06	0.6438
1571.25	0.621
1580.43	0.5841
1589.62	0.5298
1598.8	0.4513
1607.99	0.3505
1617.17	0.221
1626.35	0.0997
1635.54	0.1108
1644.72	0.1837
1653.91	0.1614
1663.09	0.1316
1672.28	0.1739
1681.46	0.2407
1690.65	0.3882
1699.83	0.4697
1709.02	0.542
1718.2	0.6024
1727.39	0.6448
1736.57	0.6733
1745.76	0.6954
1754.94	0.7265
1764.12	0.7374
1773.31	0.7482
1782.49	0.7571
1791.68	0.7651
1800.86	0.774
1810.05	0.786
1819.23	0.7939
1828.42	0.8
1837.6	0.804
1846.79	0.8079
1855.97	0.813
1865.16	0.8198
1874.34	0.823
1883.52	0.824
1892.71	0.824
1901.89	0.824
1911.08	0.824
1920.26	0.824
1929.45	0.8235
1938.63	0.823
1947.82	0.823
1957	0.823
1966.19	0.8234
1975.37	0.828
1984.56	0.829
1993.74	0.829
2002.92	0.829
2012.11	0.828
2021.29	0.828
2030.48	0.828
2039.66	0.828
2048.85	0.828
2058.03	0.826
2067.22	0.825
2076.4	0.824
2085.59	0.824
2094.77	0.824
2103.96	0.824
2113.14	0.824
2122.33	0.825
2131.51	0.826
2140.69	0.828
2149.88	0.829
2159.06	0.829
2168.25	0.829
2177.43	0.829
2186.62	0.829
2195.8	0.829
2204.99	0.83
2214.17	0.829
2223.36	0.828
2232.54	0.828
2241.73	0.8258
2250.91	0.824
2260.09	0.821
2269.28	0.82
2278.46	0.817
2287.65	0.816
2296.83	0.815
2306.02	0.816
2315.2	0.8145
2324.39	0.815
2333.57	0.815
2342.76	0.815
2351.94	0.815
2361.13	0.815
2370.31	0.815
2379.49	0.815
2388.68	0.815
2397.86	0.815
2407.05	0.815
2416.23	0.815
2425.42	0.815
2434.6	0.815
2443.79	0.815
2452.97	0.815
2462.16	0.815
2471.34	0.8152
2480.53	0.8198
2489.71	0.811
2498.9	0.808
2508.08	0.8068
2517.26	0.8055
2526.45	0.803
2535.63	0.8028
2544.82	0.802
2554	0.8
2563.19	0.799
2572.37	0.794
2581.56	0.791
2590.74	0.7895
2599.93	0.7868
2609.11	0.786
2618.3	0.785
2627.48	0.7828
2636.66	0.781
2645.85	0.7788
2655.03	0.775
2664.22	0.773
2673.4	0.7675
2682.59	0.7595
2691.77	0.756
2700.96	0.75
2710.14	0.747
2719.33	0.7448
2728.51	0.7368
2737.7	0.728
2746.88	0.7238
2756.07	0.718
2765.25	0.715
2774.43	0.711
2783.62	0.7028
2792.8	0.686
2801.99	0.685
2811.17	0.686
2820.36	0.684
2829.54	0.681
2838.73	0.6768
2847.91	0.6629
2857.1	0.596
2866.28	0.572
2875.47	0.5774
2884.65	0.588
2893.83	0.5848
2903.02	0.5671
2912.2	0.5371
2921.39	0.4943
2930.57	0.4668
2939.76	0.4662
2948.94	0.4611
2958.13	0.4191
2967.31	0.4157
2976.5	0.4658
2985.68	0.6188
2994.87	0.7062
3004.05	0.7098
3013.23	0.7035
3022.42	0.702
3031.6	0.6916
3040.79	0.6688
3049.97	0.6623
3059.16	0.6493
3068.34	0.6301
3077.53	0.5978
3086.71	0.579
3095.9	0.562
3105.08	0.534
3114.27	0.5134
3123.45	0.4798
3132.64	0.44
3141.82	0.3992
3151	0.3544
3160.19	0.2891
3169.37	0.2413
3178.56	0.235
3187.74	0.239
3196.93	0.2462
3206.11	0.2597
3215.3	0.2752
3224.48	0.3069
3233.67	0.3222
3242.85	0.323
3252.04	0.3205
3261.22	0.31
3270.4	0.2887
3279.59	0.2759
3288.77	0.2518
3297.96	0.2308
3307.14	0.213
3316.33	0.197
3325.51	0.1882
3334.7	0.1519
3343.88	0.1168
3353.07	0.1162
3362.25	0.1232
3371.44	0.131
3380.62	0.1465
3389.81	0.1668
3398.99	0.2047
3408.17	0.228
3417.36	0.2502
3426.54	0.2671
3435.73	0.2832
3444.91	0.306
3454.1	0.3293
3463.28	0.3652
3472.47	0.3871
3481.65	0.4268
3490.84	0.4674
3500.02	0.4969
3509.21	0.5351
3518.39	0.5469
3527.57	0.5721
3536.76	0.6019
3545.94	0.6197
3555.13	0.6391
3564.31	0.6535
3573.5	0.6819
3582.68	0.7062
3591.87	0.7142
3601.05	0.7222
3610.24	0.7447
3619.42	0.7532
3628.61	0.7612
3637.79	0.7682
3646.97	0.782
3656.16	0.787
3665.34	0.7924
3674.53	0.8
3683.71	0.8022
3692.9	0.803
3702.08	0.8082
3711.27	0.813
3720.45	0.815
3729.64	0.816
3738.82	0.817
3748.01	0.817
3757.19	0.819
3766.38	0.821
3775.56	0.825
3784.74	0.825
3793.93	0.825
3803.11	0.828
