Infrared Spectrum: 2-Morpholinoaniline
Formula: C 10 H 14 N 2 O
CAS: 5585-33-1
State: gas
Origin: EPA-IR VAPOR PHASE LIBRARY
1/CM	ABSORBANCE
549.9	0.01403
559.547	0.01595
569.193	0.01881
578.84	0.01849
588.486	0.01903
598.133	0.01996
607.779	0.02052
617.426	0.02062
627.072	0.02092
636.719	0.02231
646.365	0.02042
656.012	0.01703
665.658	0.01516
675.305	0.0141
684.951	0.01328
694.598	0.01273
704.245	0.01296
713.891	0.01574
723.538	0.03046
733.184	0.06558
742.831	0.08325
752.477	0.05135
762.124	0.02489
771.77	0.01655
781.417	0.01352
791.063	0.01205
800.71	0.01167
810.356	0.01224
820.003	0.01098
829.649	0.00967
839.296	0.0134
848.943	0.02275
858.589	0.0205
868.236	0.01042
877.882	0.00901
887.529	0.01009
897.175	0.01255
906.822	0.0175
916.468	0.03175
926.115	0.06312
935.761	0.06711
945.408	0.03241
955.054	0.01257
964.701	0.00793
974.347	0.00659
983.994	0.00598
993.64	0.00574
1003.29	0.00579
1012.93	0.00703
1022.58	0.01193
1032.23	0.01913
1041.87	0.018
1051.52	0.01577
1061.17	0.01508
1070.81	0.01588
1080.46	0.01464
1090.11	0.01604
1099.75	0.02898
1109.4	0.06568
1119.05	0.10901
1128.69	0.10018
1138.34	0.05714
1147.99	0.03027
1157.63	0.01928
1167.28	0.01447
1176.92	0.01428
1186.57	0.01971
1196.22	0.03506
1205.86	0.06094
1215.51	0.07849
1225.16	0.05438
1234.8	0.03181
1244.45	0.03784
1254.1	0.06089
1263.74	0.06716
1273.39	0.04982
1283.04	0.04296
1292.68	0.04435
1302.33	0.02784
1311.98	0.02071
1321.62	0.01985
1331.27	0.01286
1340.92	0.00786
1350.56	0.00978
1360.21	0.01586
1369.86	0.02345
1379.5	0.01861
1389.15	0.00974
1398.79	0.00823
1408.44	0.00754
1418.09	0.00657
1427.73	0.00716
1437.38	0.01172
1447.03	0.02968
1456.67	0.0421
1466.32	0.02824
1475.97	0.02189
1485.61	0.04161
1495.26	0.09807
1504.91	0.09535
1514.55	0.03295
1524.2	0.01771
1533.85	0.01028
1543.49	0.00942
1553.14	0.01138
1562.79	0.01482
1572.43	0.02154
1582.08	0.03166
1591.73	0.04036
1601.37	0.05793
1611.02	0.07601
1620.67	0.05433
1630.31	0.023
1639.96	0.01149
1649.6	0.00787
1659.25	0.00625
1668.9	0.0055
1678.54	0.00479
1688.19	0.0041
1697.84	0.0035
1707.48	0.00316
1717.13	0.00255
1726.78	0.00254
1736.42	0.00268
1746.07	0.00341
1755.72	0.00381
1765.36	0.00363
1775.01	0.00301
1784.66	0.00297
1794.3	0.00305
1803.95	0.00263
1813.6	0.002346
1823.24	0.0024009
1832.89	0.00263
1842.54	0.00252
1852.18	0.00289
1861.83	0.00352
1871.47	0.00391
1881.12	0.00366
1890.77	0.00313
1900.41	0.00361
1910.06	0.00456
1919.71	0.00362
1929.35	0.00255
1939	0.00269
1948.65	0.00291
1958.29	0.00323
1967.94	0.00335
1977.59	0.00306
1987.23	0.0023443
1996.88	0.0019494
2006.53	0.0018934
2016.17	0.0019158
2025.82	0.0018872
2035.47	0.0018298
2045.11	0.0019104
2054.76	0.0021437
2064.41	0.0021615
2074.05	0.0020394
2083.7	0.0020337
2093.35	0.0020836
2102.99	0.0020557
2112.64	0.0018389
2122.28	0.0016854
2131.93	0.0015981
2141.58	0.0016285
2151.22	0.00152832
2160.87	0.0014429
2170.52	0.0014865
2180.16	0.00151464
2189.81	0.00150411
2199.46	0.00154986
2209.1	0.0016179
2218.75	0.0018034
2228.4	0.0019316
2238.04	0.001977
2247.69	0.0018243
2257.34	0.00157389
2266.98	0.0017099
2276.63	0.0019235
2286.28	0.0019344
2295.92	0.0020361
2305.57	0.002199
2315.22	0.0022273
2324.86	0.0019532
2334.51	0.0015609
2344.16	0.0014517
2353.8	0.0014614
2363.45	0.0014955
2373.09	0.0014924
2382.74	0.00154187
2392.39	0.00157749
2402.03	0.0017058
2411.68	0.0019482
2421.33	0.0020665
2430.97	0.0019633
2440.62	0.001829
2450.27	0.0017911
2459.91	0.0017426
2469.56	0.0017715
2479.21	0.0018099
2488.85	0.0017412
2498.5	0.001621
2508.15	0.0018087
2517.79	0.0019671
2527.44	0.0020389
2537.09	0.0019676
2546.73	0.0021701
2556.38	0.0023235
2566.03	0.0022643
2575.67	0.0022267
2585.32	0.0021492
2594.96	0.002365
2604.61	0.00255
2614.26	0.00263
2623.9	0.00253
2633.55	0.00264
2643.2	0.00304
2652.84	0.00361
2662.49	0.00428
2672.14	0.00581
2681.78	0.00739
2691.43	0.00696
2701.08	0.00582
2710.72	0.00576
2720.37	0.00661
2730.02	0.00836
2739.66	0.0098
2749.31	0.01039
2758.96	0.00954
2768.6	0.00796
2778.25	0.00712
2787.9	0.00772
2797.54	0.01074
2807.19	0.01791
2816.84	0.03784
2826.48	0.07167
2836.13	0.07618
2845.77	0.0713
2855.42	0.09351
2865.07	0.07071
2874.71	0.03522
2884.36	0.03132
2894.01	0.03679
2903.65	0.03635
2913.3	0.032
2922.95	0.02627
2932.59	0.02195
2942.24	0.03001
2951.89	0.0507
2961.53	0.08408
2971.18	0.10951
2980.83	0.04535
2990.47	0.01065
3000.12	0.00693
3009.77	0.00815
3019.41	0.01496
3029.06	0.0244
3038.71	0.02432
3048.35	0.02064
3058	0.02263
3067.64	0.02595
3077.29	0.02514
3086.94	0.0167
3096.58	0.00852
3106.23	0.00488
3115.88	0.00322
3125.52	0.0018192
3135.17	0.00155533
3144.82	0.001085
3154.46	0.00125
3164.11	0.00126
3173.76	0.001191
3183.4	0.000816
3193.05	0.000728
3202.7	0.00041
3212.34	0.000578
3221.99	0.0004
3231.64	0.00036
3241.28	0.00041
3250.93	0.00019
3260.58	0.00021
3270.22	0.00035
3279.87	0.00026
3289.52	0.0004
3299.16	0.00021
3308.81	0.00041
3318.45	0.000523
3328.1	0.0004
3337.75	0.00066
3347.39	0.00152357
3357.04	0.00505
3366.69	0.01144
3376.33	0.01348
3385.98	0.00911
3395.63	0.00488
3405.27	0.00302
3414.92	0.0022944
3424.57	0.0020536
3434.21	0.0019711
3443.86	0.00273
3453.51	0.00475
3463.15	0.00993
3472.8	0.01652
3482.45	0.01644
3492.09	0.01035
3501.74	0.00617
3511.39	0.0041
3521.03	0.00329
3530.68	0.0023114
3540.33	0.00152725
3549.97	0.000869
3559.62	0.000725
3569.26	0.000698
3578.91	0.000564
3588.56	0.000694
3598.2	0.00082
3607.85	0.000676
3617.5	0.000688
3627.14	0.000515
3636.79	0.000576
3646.44	0.000608
3656.08	0.000713
3665.73	0.000633
3675.38	0.000662
3685.02	0.000617
3694.67	0.000864
3704.32	0.000792
3713.96	0.000985
3723.61	0.001045
3733.26	0.000858
3742.9	0.00096
3752.55	0.00092
3762.2	0.000888
3771.84	0.000983
3781.49	0.001135
3791.13	0.001061
3800.78	0.001007
3810.43	0.000914
3820.07	0.001069
3829.72	0.001114
3839.37	0.000918
3849.01	0.001074
3858.66	0.001139
3868.31	0.001173
3877.95	0.001264
3887.6	0.001404
3897.25	0.0014983
3906.89	0.001309
3916.54	0.001402
3926.19	0.00152017
3935.83	0.001305
3945.48	0.00151763
3955.13	0.0016426
3964.77	0.0019525
3974.42	0.0022056
3984.07	0.0021247
3993.71	0.0021372
