Infrared Spectrum: 4-Chlorophenylacetone
Formula: C 9 H 9 Cl O
CAS: 5586-88-9
State: gas
Origin: EPA-IR VAPOR PHASE LIBRARY
1/CM	ABSORBANCE
549.8	0.004776
559.445	0.009046
569.09	0.010116
578.734	0.006026
588.379	0.002576
598.024	0.001266
607.669	0.0011225
617.313	0.0009557
626.958	0.0007138
636.603	0.001266
646.248	0.001216
655.893	0.002786
665.537	0.006716
675.182	0.005456
684.827	0.002006
694.472	0.001796
704.116	0.003806
713.761	0.005346
723.406	0.002486
733.051	0.001586
742.695	0.002056
752.34	0.003616
761.985	0.007336
771.63	0.010396
781.275	0.009606
790.919	0.007596
800.564	0.007496
810.209	0.010126
819.854	0.016226
829.498	0.018386
839.143	0.012496
848.788	0.006606
858.433	0.003666
868.078	0.002996
877.722	0.002566
887.367	0.002256
897.012	0.001636
906.657	0.001696
916.301	0.001366
925.946	0.001266
935.591	0.001516
945.236	0.001436
954.88	0.001706
964.525	0.002856
974.17	0.003976
983.815	0.003416
993.46	0.003716
1003.1	0.006096
1012.75	0.022416
1022.39	0.020416
1032.04	0.003816
1041.68	0.003316
1051.33	0.003396
1060.97	0.004006
1070.62	0.006446
1080.26	0.013286
1089.91	0.039466
1099.55	0.044566
1109.2	0.015856
1118.84	0.009966
1128.49	0.011256
1138.13	0.017016
1147.78	0.023546
1157.42	0.021506
1167.07	0.015096
1176.71	0.012316
1186.36	0.012796
1196	0.014456
1205.64	0.019306
1215.29	0.024946
1224.93	0.021676
1234.58	0.012726
1244.22	0.007656
1253.87	0.005736
1263.51	0.005526
1273.16	0.007496
1282.8	0.008586
1292.45	0.007746
1302.09	0.007926
1311.74	0.009306
1321.38	0.009696
1331.03	0.009406
1340.67	0.011316
1350.32	0.018976
1359.96	0.027726
1369.61	0.019666
1379.25	0.010356
1388.9	0.007936
1398.54	0.009066
1408.18	0.010716
1417.83	0.011826
1427.47	0.012426
1437.12	0.010376
1446.76	0.007696
1456.41	0.006236
1466.05	0.007116
1475.7	0.014466
1485.34	0.044166
1494.99	0.057776
1504.63	0.020836
1514.28	0.007016
1523.92	0.004126
1533.57	0.003286
1543.21	0.002746
1552.86	0.002466
1562.5	0.002406
1572.15	0.002486
1581.79	0.003156
1591.44	0.004376
1601.08	0.004446
1610.73	0.002776
1620.37	0.002276
1630.01	0.002456
1639.66	0.003166
1649.3	0.003986
1658.95	0.004006
1668.59	0.004416
1678.24	0.005946
1687.88	0.009226
1697.53	0.014826
1707.17	0.024396
1716.82	0.042686
1726.46	0.069916
1736.11	0.068906
1745.75	0.043966
1755.4	0.027956
1765.04	0.017446
1774.69	0.010866
1784.33	0.006426
1793.98	0.003846
1803.62	0.002516
1813.27	0.001786
1822.91	0.001376
1832.55	0.0011374
1842.2	0.0010083
1851.84	0.0010556
1861.49	0.0011899
1871.13	0.001636
1880.78	0.002276
1890.42	0.002766
1900.07	0.002296
1909.71	0.001356
1919.36	0.0008956
1929	0.000642
1938.65	0.000594
1948.29	0.0005684
1957.94	0.0005953
1967.58	0.000483
1977.23	0.0004557
1986.87	0.0004309
1996.52	0.000492
2006.16	0.0004403
2015.81	0.0005207
2025.45	0.0004663
2035.1	0.0005032
2044.74	0.0005362
2054.38	0.0004536
2064.03	0.0005183
2073.67	0.0004419
2083.32	0.0005236
2092.96	0.0005356
2102.61	0.0005235
2112.25	0.0005339
2121.9	0.0005774
2131.54	0.0005905
2141.19	0.0005189
2150.83	0.0005012
2160.48	0.000471
2170.12	0.0004902
2179.77	0.0004284
2189.41	0.0004137
2199.06	0.0003275
2208.7	0.0004527
2218.35	0.0003568
2227.99	0.0003837
2237.64	0.0003854
2247.28	0.0003213
2256.92	0.0003806
2266.57	0.0003925
2276.21	0.0005147
2285.86	0.0005671
2295.5	0.0005156
2305.15	0.0005358
2314.79	0.0004401
2324.44	0.0003888
2334.08	0.0003662
2343.73	0.000385
2353.37	0.00028078
2363.02	0.0003743
2372.66	0.0003763
2382.31	0.0003479
2391.95	0.0003695
2401.6	0.0004393
2411.24	0.0003396
2420.89	0.0003263
2430.53	0.0003756
2440.18	0.0002994
2449.82	0.00027618
2459.47	0.00034
2469.11	0.0003282
2478.75	0.00028014
2488.4	0.0003302
2498.04	0.00028371
2507.69	0.0003562
2517.33	0.000388
2526.98	0.00027409
2536.62	0.0004143
2546.27	0.0004335
2555.91	0.0003665
2565.56	0.0004332
2575.2	0.0004427
2584.85	0.0004757
2594.49	0.0005383
2604.14	0.0004723
2613.78	0.000437
2623.43	0.0003631
2633.07	0.00027407
2642.72	0.00023944
2652.36	0.00021176
2662.01	0.0003628
2671.65	0.000305
2681.29	0.0005065
2690.94	0.0005419
2700.58	0.0006151
2710.23	0.0004471
2719.87	0.000353
2729.52	0.0004993
2739.16	0.0004523
2748.81	0.00025719
2758.45	0.0003923
2768.1	0.0002979
2777.74	0.0004415
2787.39	0.0005002
2797.03	0.0006504
2806.68	0.0009266
2816.32	0.0008782
2825.97	0.001246
2835.61	0.001536
2845.26	0.001776
2854.9	0.001696
2864.55	0.001626
2874.19	0.002006
2883.84	0.002856
2893.48	0.004176
2903.12	0.005686
2912.77	0.007376
2922.41	0.009536
2932.06	0.009286
2941.7	0.007016
2951.35	0.006046
2960.99	0.006516
2970.64	0.006426
2980.28	0.005316
2989.93	0.004526
2999.57	0.004726
3009.22	0.005826
3018.86	0.006816
3028.51	0.008496
3038.15	0.009316
3047.8	0.006666
3057.44	0.005096
3067.09	0.003966
3076.73	0.004516
3086.38	0.005676
3096.02	0.005306
3105.67	0.003566
3115.31	0.001766
3124.95	0.001019
3134.6	0.0008294
3144.24	0.0005284
3153.89	0.0005323
3163.53	0.00029546
3173.18	0.0003595
3182.82	0.0003065
3192.47	0.0004164
3202.11	0.0003784
3211.76	0.00021026
3221.4	0.00029183
3231.05	0.0001293
3240.69	0.0003856
3250.34	0.0001799
3259.98	7.4e-05
3269.63	0.00021087
3279.27	0.0001172
3288.92	0.00024984
3298.56	0.00022536
3308.21	0.00019232
3317.85	0.00019059
3327.49	0.000198586
3337.14	0.0003268
3346.78	0.0001755
3356.43	0.0003462
3366.07	0.000503
3375.72	0.0004064
3385.36	0.0003083
3395.01	0.0004153
3404.65	0.0004866
3414.3	0.0008725
3423.94	0.0010714
3433.59	0.001346
3443.23	0.001486
3452.88	0.001536
3462.52	0.0010375
3472.17	0.0010158
3481.81	0.0006967
3491.46	0.0004368
3501.1	0.0004114
3510.75	0.0004112
3520.39	0.00024194
3530.04	0.0001388
3539.68	0.00022839
3549.32	0.0003325
3558.97	0.0004052
3568.61	5e-05
3578.26	9e-06
3587.9	0.0002866
3597.55	0.00026148
3607.19	5.9e-05
3616.84	8e-05
3626.48	0.00021008
3636.13	0.000201642
3645.77	0.00024953
3655.42	0.0003828
3665.06	0.0003078
3674.71	0.00023836
3684.35	0.0001089
3694	0.0001163
3703.64	0.0003155
3713.29	0.00021877
3722.93	0.0004467
3732.58	0.0004378
3742.22	0.0001657
3751.86	0.00029243
3761.51	0.0001231
3771.15	0.0003098
3780.8	9.4e-05
3790.44	0.000205705
3800.09	0.00021172
3809.73	0.0001364
3819.38	0.0001526
3829.02	0.0003056
3838.67	6.7e-05
3848.31	0.00024664
3857.96	0.00018845
3867.6	0.00021338
3877.25	0.00023332
3886.89	0.0005715
3896.54	0.0003193
3906.18	0.0003005
3915.83	0.0003997
3925.47	0.0004766
3935.12	0.000494
3944.76	0.0003754
3954.41	0.0003497
3964.05	0.0003691
3973.69	0.0001088
3983.34	0.0003826
3992.98	0.0003313
