Infrared Spectrum: 1,6-Hexane diisothiocyanate
Formula: C 8 H 12 N 2 S 2
CAS: 5586-70-9
State: gas
Origin: EPA-IR VAPOR PHASE LIBRARY
1/CM	ABSORBANCE
549.8	0.013431
559.445	0.012731
569.09	0.010441
578.734	0.008711
588.379	0.007331
598.024	0.005761
607.669	0.004741
617.313	0.003701
626.958	0.003471
636.603	0.003581
646.248	0.003491
655.893	0.004091
665.537	0.004361
675.182	0.003741
684.827	0.003501
694.472	0.004921
704.116	0.006471
713.761	0.006641
723.406	0.006861
733.051	0.007891
742.695	0.006551
752.34	0.004341
761.985	0.003301
771.63	0.002841
781.275	0.002271
790.919	0.001871
800.564	0.001691
810.209	0.001651
819.854	0.002061
829.498	0.001811
839.143	0.001981
848.788	0.001851
858.433	0.002211
868.078	0.002161
877.722	0.002171
887.367	0.002281
897.012	0.002641
906.657	0.003001
916.301	0.003511
925.946	0.003761
935.591	0.004061
945.236	0.003941
954.88	0.004181
964.525	0.003871
974.17	0.003571
983.815	0.003281
993.46	0.003661
1003.1	0.003581
1012.75	0.003611
1022.39	0.003351
1032.04	0.003171
1041.68	0.003311
1051.33	0.003401
1060.97	0.004341
1070.62	0.003781
1080.26	0.004631
1089.91	0.004831
1099.55	0.004471
1109.2	0.004261
1118.84	0.003901
1128.49	0.003871
1138.13	0.003501
1147.78	0.003391
1157.42	0.003521
1167.07	0.003301
1176.71	0.003611
1186.36	0.003811
1196	0.003731
1205.64	0.003671
1215.29	0.004181
1224.93	0.004301
1234.58	0.005101
1244.22	0.005721
1253.87	0.006291
1263.51	0.006361
1273.16	0.006591
1282.8	0.007871
1292.45	0.010381
1302.09	0.014041
1311.74	0.017421
1321.38	0.021001
1331.03	0.030871
1340.67	0.052731
1350.32	0.069471
1359.96	0.050471
1369.61	0.032151
1379.25	0.017951
1388.9	0.008961
1398.54	0.005681
1408.18	0.004581
1417.83	0.004281
1427.47	0.005571
1437.12	0.009431
1446.76	0.017551
1456.41	0.032071
1466.05	0.032631
1475.7	0.012421
1485.34	0.004901
1494.99	0.002891
1504.63	0.002061
1514.28	0.001631
1523.92	0.001481
1533.57	0.001411
1543.21	0.0012169
1552.86	0.0010841
1562.5	0.0010939
1572.15	0.0010526
1581.79	0.0009594
1591.44	0.0009644
1601.08	0.0008385
1610.73	0.0008658
1620.37	0.0008195
1630.01	0.0008644
1639.66	0.0009014
1649.3	0.000904
1658.95	0.000848
1668.59	0.0007509
1678.24	0.0009069
1687.88	0.0008071
1697.53	0.0008224
1707.17	0.0009195
1716.82	0.00085
1726.46	0.0009969
1736.11	0.000843
1745.75	0.0009271
1755.4	0.0009736
1765.04	0.0010597
1774.69	0.0011039
1784.33	0.001206
1793.98	0.0012104
1803.62	0.001341
1813.27	0.001381
1822.91	0.001641
1832.55	0.001861
1842.2	0.002131
1851.84	0.002711
1861.49	0.003171
1871.13	0.003961
1880.78	0.005001
1890.42	0.006321
1900.07	0.007971
1909.71	0.009981
1919.36	0.012601
1929	0.015811
1938.65	0.019911
1948.29	0.025181
1957.94	0.032131
1967.58	0.041691
1977.23	0.054981
1986.87	0.073931
1996.52	0.100821
2006.16	0.137871
2015.81	0.187341
2025.45	0.251411
2035.1	0.329301
2044.74	0.406701
2054.38	0.453921
2064.03	0.444491
2073.67	0.379301
2083.32	0.290721
2092.96	0.215621
2102.61	0.164121
2112.25	0.130961
2121.9	0.109261
2131.54	0.094471
2141.19	0.084131
2150.83	0.076591
2160.48	0.070201
2170.12	0.064421
2179.77	0.059431
2189.41	0.055671
2199.06	0.052321
2208.7	0.046861
2218.35	0.038781
2227.99	0.029871
2237.64	0.022221
2247.28	0.016591
2256.92	0.012741
2266.57	0.010151
2276.21	0.008191
2285.86	0.006931
2295.5	0.005771
2305.15	0.004841
2314.79	0.004031
2324.44	0.003391
2334.08	0.002971
2343.73	0.002581
2353.37	0.002191
2363.02	0.001991
2372.66	0.001831
2382.31	0.001701
2391.95	0.001531
2401.6	0.001431
2411.24	0.001401
2420.89	0.001331
2430.53	0.001371
2440.18	0.001341
2449.82	0.001311
2459.47	0.001341
2469.11	0.001361
2478.75	0.001431
2488.4	0.001461
2498.04	0.001461
2507.69	0.001551
2517.33	0.001731
2526.98	0.001851
2536.62	0.001801
2546.27	0.002071
2555.91	0.002241
2565.56	0.002171
2575.2	0.002391
2584.85	0.002341
2594.49	0.002241
2604.14	0.001871
2613.78	0.001811
2623.43	0.001701
2633.07	0.001671
2642.72	0.001761
2652.36	0.001911
2662.01	0.002421
2671.65	0.002811
2681.29	0.003551
2690.94	0.004271
2700.58	0.004801
2710.23	0.005621
2719.87	0.006581
2729.52	0.007341
2739.16	0.007361
2748.81	0.006551
2758.45	0.005601
2768.1	0.005001
2777.74	0.004351
2787.39	0.004221
2797.03	0.004131
2806.68	0.004351
2816.32	0.004371
2825.97	0.004601
2835.61	0.005081
2845.26	0.006761
2854.9	0.012031
2864.55	0.021211
2874.19	0.025941
2883.84	0.027531
2893.48	0.024511
2903.12	0.019891
2912.77	0.022151
2922.41	0.031581
2932.06	0.044551
2941.7	0.069781
2951.35	0.093871
2960.99	0.067841
2970.64	0.028711
2980.28	0.013011
2989.93	0.007461
2999.57	0.005061
3009.22	0.003791
3018.86	0.003051
3028.51	0.002301
3038.15	0.001951
3047.8	0.001741
3057.44	0.001491
3067.09	0.0012185
3076.73	0.0010318
3086.38	0.0009108
3096.02	0.00085
3105.67	0.0008616
3115.31	0.000729
3124.95	0.0005077
3134.6	0.0006503
3144.24	0.0005757
3153.89	0.0002468
3163.53	0.000409
3173.18	0.0003707
3182.82	0.000492
3192.47	0.0004239
3202.11	0.000467
3211.76	0.000338
3221.4	0.0003877
3231.05	0.0001729
3240.69	0.00026727
3250.34	0.0002085
3259.98	0.000239989
3269.63	0.000102
3279.27	9.1e-05
3288.92	0.0001676
3298.56	0.0002004
3308.21	0.0002183
3317.85	6.1e-05
3327.49	0.000121
3337.14	0.00022737
3346.78	0.0003532
3356.43	0.0001513
3366.07	1.5e-05
3375.72	0.00025259
3385.36	0.00024389
3395.01	0.00032539
3404.65	0.0003086
3414.3	0.0001557
3423.94	0.0004457
3433.59	0.00013
3443.23	0.00031713
3452.88	0.0003641
3462.52	0.00022501
3472.17	0.00031841
3481.81	0.0004598
3491.46	0.00030009
3501.1	0.00030484
3510.75	0.0001874
3520.39	0.0003354
3530.04	0.00026416
3539.68	0.00026594
3549.32	0.00028111
3558.97	0.0001655
3568.61	0.00030422
3578.26	0.0001777
3587.9	0.0001
3597.55	0.000235443
3607.19	0.0001668
3616.84	9e-05
3626.48	0.00032598
3636.13	0.00024447
3645.77	0.0001496
3655.42	0.0001862
3665.06	0.0003324
3674.71	0.00026412
3684.35	0.00025047
3694	0.0002057
3703.64	0.00027023
3713.29	0.000153
3722.93	0.00031477
3732.58	0.0003816
3742.22	0.0004554
3751.86	0.00025498
3761.51	0.0004825
3771.15	0.0004389
3780.8	0.0004222
3790.44	0.0003319
3800.09	0.0004986
3809.73	0.0005098
3819.38	0.0003177
3829.02	0.0004719
3838.67	0.0003758
3848.31	0.0005564
3857.96	0.0004553
3867.6	0.0005972
3877.25	0.0006817
3886.89	0.0005626
3896.54	0.0005641
3906.18	0.0006462
3915.83	0.0008036
3925.47	0.0006534
3935.12	0.0008544
3944.76	0.0009624
3954.41	0.00095
3964.05	0.0010989
3973.69	0.001271
3983.34	0.0011888
3992.98	0.001681
