Infrared Spectrum: 2-Naphthyldisulfide
Formula: C20 H14 S2
CAS: 5586-15-2
State: SOLUTION (1% CCl4 FOR 3800-1330, 1% CS2 FOR 1330-400 CM^-^1)
Class: COBLENTZ III
Instrument: DOW KBr FOREPRISM-GRATING
Instrument parameters: BLAZED AT 3.5, 12.0, 20.0 MICRON AND CHANGED AT 5.0, 7.5, 14.9 MICRON
Sampling: TRANSMISSION
Path length: 0.108 CM, 0.100 CM
Resolution: 2
Origin: DOW CHEMICAL COMPANY
1/CM	TRANSMITTANCE
3800	0.9246
3791	0.9317
3782	0.9318
3773	0.935
3764	0.9355
3755	0.9355
3746	0.9352
3737	0.9347
3728	0.9276
3719	0.91
3710	0.8977
3701	0.8933
3692	0.8955
3683	0.9021
3674	0.9105
3665	0.9159
3656	0.9181
3647	0.9198
3638	0.9198
3629	0.9187
3620	0.9177
3611	0.9119
3602	0.9068
3593	0.91
3584	0.9113
3575	0.9107
3566	0.9096
3557	0.9087
3548	0.9103
3539	0.9087
3530	0.9086
3521	0.9052
3512	0.9043
3503	0.9033
3494	0.9028
3485	0.902
3476	0.9016
3467	0.9009
3458	0.9003
3449	0.8997
3440	0.8991
3431	0.8989
3422	0.8986
3413	0.8983
3404	0.8982
3395	0.8987
3386	0.8993
3377	0.8998
3368	0.9007
3359	0.9017
3350	0.903
3341	0.9043
3332	0.9058
3323	0.9074
3314	0.9088
3305	0.9123
3296	0.9111
3287	0.9122
3278	0.9147
3269	0.9157
3260	0.9164
3251	0.9168
3242	0.9173
3233	0.9176
3224	0.918
3215	0.9183
3206	0.9164
3197	0.9182
3188	0.9191
3179	0.917
3170	0.9171
3161	0.9181
3152	0.9186
3143	0.9147
3134	0.9152
3125	0.9123
3116	0.9104
3107	0.9085
3098	0.9002
3089	0.8254
3080	0.7874
3071	0.7645
3062	0.5129
3053	0.389
3044	0.6423
3035	0.7661
3026	0.7814
3017	0.8151
3008	0.8286
2999	0.8442
2990	0.8642
2981	0.8814
2972	0.8918
2963	0.8959
2954	0.8964
2945	0.8971
2936	0.9046
2927	0.908
2918	0.9096
2909	0.9139
2900	0.9169
2891	0.9184
2882	0.9196
2873	0.9208
2864	0.9221
2855	0.9245
2846	0.9268
2837	0.9271
2828	0.9251
2819	0.9262
2810	0.9237
2801	0.9254
2792	0.9243
2783	0.9227
2774	0.9232
2765	0.9224
2756	0.9217
2747	0.9214
2738	0.9211
2729	0.9208
2720	0.9204
2711	0.9201
2702	0.9197
2693	0.9193
2684	0.919
2675	0.9191
2666	0.9191
2657	0.9216
2648	0.9204
2639	0.9195
2630	0.9199
2621	0.9222
2612	0.9224
2603	0.9223
2594	0.9226
2585	0.9228
2576	0.9231
2567	0.9234
2558	0.924
2549	0.9244
2540	0.9249
2531	0.9251
2522	0.9252
2513	0.9253
2504	0.9252
2495	0.9248
2486	0.924
2477	0.9219
2468	0.9175
2459	0.9187
2450	0.9181
2441	0.9198
2432	0.9194
2423	0.9179
2414	0.9158
2405	0.9131
2396	0.906
2387	0.8996
2378	0.896
2369	0.8883
2360	0.8777
2351	0.8631
2342	0.8381
2333	0.814
2324	0.7963
2315	0.77
2306	0.7418
2297	0.724
2288	0.7208
2279	0.7361
2270	0.7595
2261	0.7998
2252	0.8425
2243	0.8662
2234	0.8829
2225	0.8927
2216	0.898
2207	0.9032
2198	0.9077
2189	0.9088
2180	0.9111
2171	0.9148
2162	0.9138
2153	0.914
2144	0.9144
2135	0.9153
2126	0.9161
2117	0.9158
2108	0.9153
2099	0.9148
2090	0.9123
2081	0.9058
2072	0.8985
2063	0.8903
2054	0.8846
2045	0.8742
2036	0.8663
2027	0.8594
2018	0.8518
2009	0.8432
2000	0.8293
1991	0.8882
1982	0.9366
1973	0.9434
1964	0.9516
1955	0.9665
1946	0.8993
1937	0.9506
1928	0.9534
1919	0.9323
1910	0.9279
1901	0.9092
1892	0.9267
1883	0.9502
1874	0.9573
1865	0.9314
1856	0.908
1847	0.9023
1838	0.9033
1829	0.9016
1820	0.9032
1811	0.9266
1802	0.9311
1793	0.9347
1784	0.9405
1775	0.9532
1766	0.9585
1757	0.9403
1748	0.9327
1739	0.9589
1730	0.9582
1721	0.9606
1712	0.9647
1703	0.9479
1694	0.9313
1685	0.9488
1676	0.9597
1667	0.9567
1658	0.9455
1649	0.9371
1640	0.917
1631	0.8336
1622	0.5332
1613	0.5541
1604	0.2956
1595	0.0783
1586	0.0359
1577	0.0394
1568	0.0309
1559	0.0219
1550	0.0185
1541	0.0151
1532	0.0184
1523	0.0443
1514	0.0984
1505	0.1135
1496	0.2594
1487	0.4485
1478	0.6055
1469	0.7901
1460	0.8105
1451	0.754
1442	0.8884
1433	0.8592
1424	0.9038
1415	0.9401
1406	0.9577
1397	0.9661
1388	0.9722
1379	0.926
1370	0.9001
1361	0.8749
1352	0.8635
1343	0.7626
1334	0.8163
1325	0.8444
1316	0.8878
1307	0.9083
1298	0.9207
1289	0.9319
1280	0.9343
1271	0.9229
1262	0.7328
1253	0.8911
1244	0.9114
1235	0.8609
1226	0.8758
1217	0.912
1208	0.9168
1199	0.8553
1190	0.7965
1181	0.9023
1172	0.9286
1163	0.9302
1154	0.8352
1145	0.8661
1136	0.8224
1127	0.6755
1118	0.9045
1109	0.9355
1100	0.943
1091	0.9436
1082	0.9424
1073	0.9318
1064	0.869
1055	0.8841
1046	0.8994
1037	0.9123
1028	0.9133
1019	0.892
1010	0.8549
1001	0.8854
992	0.9244
983	0.9372
974	0.9279
965	0.9187
956	0.8264
947	0.8094
938	0.4907
929	0.858
920	0.8934
911	0.8975
902	0.8382
893	0.7198
884	0.419
875	0.2935
866	0.2724
857	0.1431
848	0.0487
839	0.3657
830	0.6933
821	0.7497
812	0.4833
803	0.2199
794	0.7407
785	0.7797
776	0.8277
767	0.8303
758	0.6434
749	0.7719
740	0.0309
731	0.6821
722	0.8025
713	0.8191
704	0.8213
695	0.827
686	0.83
677	0.8304
668	0.8297
659	0.686
650	0.5189
641	0.5791
632	0.6915
623	0.7228
614	0.8449
605	0.8811
596	0.7489
587	0.9076
578	0.9344
569	0.9444
560	0.9488
551	0.9449
542	0.9366
533	0.9353
524	0.9356
515	0.9189
506	0.9025
497	0.9088
488	0.8795
479	0.7671
470	0.1009
461	0.6397
452	0.7332
443	0.6712
434	0.5579
425	0.4108
416	0.2493
407	0.0781
398	0.0245
389	0.0169
