Infrared Spectrum: 3,3-Diphenylpropylamine
Formula: C 15 H 17 N
CAS: 5586-73-2
State: gas
Origin: EPA-IR VAPOR PHASE LIBRARY
1/CM	ABSORBANCE
501.5	0.00161
513.074	0.00184
524.648	0.00363
536.222	0.00533
547.796	0.00415
559.37	0.00609
570.944	0.00455
582.518	0.00581
594.092	0.0056
605.666	0.0036
617.24	0.00533
628.814	0.00582
640.388	0.00445
651.962	0.00456
663.536	0.0069
675.11	0.01058
686.684	0.02132
698.258	0.04723
709.832	0.02717
721.406	0.01765
732.98	0.02143
744.554	0.02684
756.128	0.02613
767.702	0.02272
779.276	0.0178
790.85	0.01222
802.423	0.00765
813.997	0.00536
825.571	0.00434
837.145	0.00377
848.719	0.00348
860.293	0.00302
871.867	0.00291
883.441	0.00284
895.015	0.00276
906.589	0.00288
918.163	0.00236
929.737	0.00188
941.311	0.00162
952.885	0.00165
964.459	0.00196
976.033	0.00224
987.607	0.00258
999.181	0.00316
1010.76	0.00409
1022.33	0.00654
1033.9	0.00878
1045.48	0.00544
1057.05	0.00678
1068.63	0.00873
1080.2	0.00636
1091.77	0.00365
1103.35	0.00257
1114.92	0.0021
1126.49	0.00197
1138.07	0.00154
1149.64	0.00125
1161.22	0.00112
1172.79	0.00123
1184.36	0.00178
1195.94	0.00125
1207.51	0.00114
1219.09	0.00121
1230.66	0.00152
1242.23	0.00133
1253.81	0.00115
1265.38	0.00122
1276.96	0.00147
1288.53	0.00187
1300.1	0.00249
1311.68	0.0026
1323.25	0.00276
1334.83	0.00284
1346.4	0.00331
1357.97	0.0038
1369.55	0.00417
1381.12	0.00458
1392.7	0.00388
1404.27	0.00252
1415.84	0.00212
1427.42	0.00285
1438.99	0.00618
1450.57	0.00993
1462.14	0.00602
1473.71	0.00547
1485.29	0.01098
1496.86	0.01729
1508.44	0.00493
1520.01	0.00234
1531.58	0.00212
1543.16	0.00193
1554.73	0.00186
1566.31	0.0025
1577.88	0.00472
1589.45	0.00915
1601.03	0.01213
1612.6	0.00779
1624.18	0.00666
1635.75	0.00435
1647.32	0.00256
1658.9	0.00189
1670.47	0.00143
1682.05	0.00107
1693.62	0.0008945
1705.19	0.0009246
1716.77	0.0009497
1728.34	0.00113
1739.92	0.00134
1751.49	0.00125
1763.06	0.00106
1774.64	0.00132
1786.21	0.00225
1797.79	0.00271
1809.36	0.00162
1820.93	0.00116
1832.51	0.0009052
1844.08	0.0009558
1855.66	0.00126
1867.23	0.00164
1878.8	0.00178
1890.38	0.0013
1901.95	0.000775
1913.53	0.000786
1925.1	0.00135
1936.67	0.00233
1948.25	0.00226
1959.82	0.00132
1971.4	0.0004347
1982.97	0.0003633
1994.54	0.0002566
2006.12	0.0002116
2017.69	0.0002069
2029.27	0.0002137
2040.84	0.0002011
2052.41	0.0001833
2063.99	0.0001844
2075.56	0.000199
2087.14	0.0001781
2098.71	0.0002047
2110.28	0.0001628
2121.86	0.0001797
2133.43	0.0001719
2145.01	0.0001755
2156.58	0.0001695
2168.15	0.0001839
2179.73	0.0001977
2191.3	0.0002101
2202.88	0.0001938
2214.45	0.0002514
2226.02	0.0002418
2237.6	0.0002405
2249.17	0.0002881
2260.74	0.0003136
2272.32	0.0003419
2283.89	0.0003256
2295.47	0.0003289
2307.04	0.0004641
2318.61	0.0005269
2330.19	0.0004451
2341.76	0.0005015
2353.34	0.000406
2364.91	0.0003719
2376.48	0.0003768
2388.06	0.0002819
2399.63	0.0002912
2411.21	0.0003226
2422.78	0.0003011
2434.35	0.0003222
2445.93	0.0003313
2457.5	0.000327
2469.08	0.0003044
2480.65	0.0003287
2492.22	0.000326
2503.8	0.0003229
2515.37	0.0003522
2526.95	0.0003615
2538.52	0.0003954
2550.09	0.0004223
2561.67	0.0003967
2573.24	0.0004802
2584.82	0.0005184
2596.39	0.0006053
2607.96	0.0006018
2619.54	0.0005655
2631.11	0.0006268
2642.69	0.0006831
2654.26	0.0006967
2665.83	0.0007285
2677.41	0.0008223
2688.98	0.0008589
2700.56	0.0008717
2712.13	0.0009196
2723.7	0.00102
2735.28	0.00119
2746.85	0.00136
2758.43	0.00146
2770	0.00153
2781.57	0.00156
2793.15	0.00167
2804.72	0.00183
2816.3	0.00226
2827.87	0.0032
2839.44	0.00514
2851.02	0.00819
2862.59	0.01176
2874.17	0.0131
2885.74	0.01213
2897.31	0.00935
2908.89	0.00977
2920.46	0.01496
2932.04	0.02343
2943.61	0.02337
2955.18	0.01374
2966.76	0.00661
2978.33	0.00379
2989.91	0.00329
3001.48	0.00457
3013.05	0.0079
3024.63	0.01854
3036.2	0.02281
3047.78	0.015
3059.35	0.01894
3070.92	0.03032
3082.5	0.01855
3094.07	0.01249
3105.65	0.00718
3117.22	0.00359
3128.79	0.00161
3140.37	0.001
3151.94	0.0009383
3163.52	0.0009116
3175.09	0.0006229
3186.66	0.0004911
3198.24	0.0004776
3209.81	0.0004073
3221.39	0.0003616
3232.96	0.0003368
3244.53	0.0003809
3256.11	0.0003579
3267.68	0.0003022
3279.26	0.0002702
3290.83	0.0003287
3302.4	0.0003281
3313.98	0.0003242
3325.55	0.0003911
3337.13	0.0006602
3348.7	0.0007755
3360.27	0.0005642
3371.85	0.0004154
3383.42	0.0004115
3395	0.0004544
3406.57	0.0005629
3418.14	0.0006726
3429.72	0.0005294
3441.29	0.0004096
3452.86	0.0003366
3464.44	0.0003518
3476.01	0.0003491
3487.59	0.0003175
3499.16	0.000343
3510.73	0.0003342
3522.31	0.0003473
3533.88	0.0003784
3545.46	0.0003418
3557.03	0.0003242
3568.6	0.0003822
3580.18	0.0003964
3591.75	0.0003515
3603.33	0.0003574
3614.9	0.0004025
3626.47	0.0004146
3638.05	0.0004602
3649.62	0.0005244
3661.2	0.0005349
3672.77	0.0005082
3684.34	0.0005066
3695.92	0.0004833
3707.49	0.0005058
3719.07	0.0004483
3730.64	0.0004564
3742.21	0.000413
3753.79	0.0003625
3765.36	0.0003095
3776.94	0.0004481
3788.51	0.000475
3800.08	0.0004079
3811.66	0.0004203
3823.23	0.0004142
3834.81	0.0003839
3846.38	0.0004333
3857.95	0.0004001
3869.53	0.0004044
3881.1	0.0004472
3892.68	0.0004854
3904.25	0.0004809
3915.82	0.000496
3927.4	0.0004723
3938.97	0.0004096
3950.55	0.0004855
3962.12	0.0004672
3973.69	0.000491
3985.27	0.0004813
3996.84	0.0005476
