Infrared Spectrum: PHOSPHORODIAMIDIC ACID, N,N'-DIPHENYL-, ETHYL ESTER
Formula: C14 H17 N2 O2 P
CAS: 5586-09-4
State: SOLID (KBr PELLET)
Class: COBLENTZ
Instrument: PERKIN-ELMER
Sampling: TRANSMISSION
Resolution: 4
Origin: STANDARD OIL OF OHIO
MICROMETERS	TRANSMITTANCE
2	0.948
2.03374	0.948
2.06749	0.95
2.10123	0.95
2.13497	0.947
2.16871	0.94
2.20246	0.945
2.2362	0.95
2.26994	0.943
2.30368	0.942
2.33743	0.943
2.37117	0.947
2.40491	0.948
2.43865	0.942
2.4724	0.926
2.50614	0.937
2.53988	0.938
2.57362	0.938
2.60737	0.94
2.64111	0.942
2.67485	0.942
2.70859	0.937
2.74234	0.882
2.77608	0.768
2.80982	0.629
2.84356	0.535
2.87731	0.477
2.91105	0.43
2.94479	0.372
2.97853	0.416
3.01228	0.437
3.04602	0.328
3.07976	0.198
3.11351	0.17
3.14725	0.219
3.18099	0.367
3.21473	0.438
3.24848	0.477
3.28222	0.561
3.31596	0.557
3.3497	0.472
3.38345	0.639
3.41719	0.59
3.45093	0.629
3.48467	0.743
3.51842	0.767
3.55216	0.787
3.5859	0.84
3.61964	0.869
3.65339	0.874
3.68713	0.891
3.72087	0.908
3.75461	0.909
3.78836	0.909
3.8221	0.913
3.85584	0.92
3.88958	0.923
3.92333	0.916
3.95707	0.909
3.99081	0.916
4.02455	0.93
4.0583	0.937
4.09204	0.938
4.12578	0.942
4.15952	0.942
4.19327	0.943
4.22701	0.94
4.26075	0.942
4.2945	0.942
4.32824	0.943
4.36198	0.947
4.39572	0.95
4.42947	0.95
4.46321	0.95
4.49695	0.95
4.53069	0.948
4.56444	0.947
4.59818	0.945
4.63192	0.945
4.66566	0.942
4.69941	0.94
4.73315	0.937
4.76689	0.931
4.80063	0.928
4.83438	0.928
4.86812	0.928
4.90186	0.926
4.9356	0.925
4.96935	0.925
5.00309	0.926
5.03683	0.921
5.07057	0.916
5.10432	0.899
5.13806	0.887
5.1718	0.884
5.20554	0.901
5.23929	0.914
5.27303	0.92
5.30677	0.913
5.34052	0.903
5.37426	0.896
5.408	0.897
5.44174	0.913
5.47549	0.918
5.50923	0.913
5.54297	0.899
5.57671	0.889
5.61046	0.887
5.6442	0.901
5.67794	0.909
5.71168	0.906
5.74543	0.896
5.77917	0.877
5.81291	0.87
5.84665	0.869
5.8804	0.875
5.91414	0.882
5.94788	0.877
5.98162	0.857
6.01537	0.816
6.04911	0.761
6.08285	0.717
6.11659	0.666
6.15034	0.579
6.18408	0.324
6.21782	0.062
6.25156	0.161
6.28531	0.372
6.31905	0.647
6.35279	0.763
6.38653	0.802
6.42028	0.819
6.45402	0.823
6.48776	0.812
6.52151	0.77
6.55525	0.724
6.58899	0.498
6.62273	0.224
6.65648	0.015
6.69022	0.011
6.72396	0.059
6.7577	0.261
6.79145	0.496
6.82519	0.673
6.85893	0.698
6.89267	0.705
6.92642	0.693
6.96016	0.702
6.9939	0.59
7.02764	0.379
7.06139	0.18
7.09513	0.183
7.12887	0.209
7.16261	0.227
7.19636	0.258
7.2301	0.403
7.26384	0.549
7.29758	0.639
7.33133	0.714
7.36507	0.77
7.39881	0.78
7.43255	0.765
7.4663	0.729
7.50004	0.666
7.53378	0.573
7.56753	0.573
7.60127	0.554
7.63501	0.425
7.66875	0.202
7.7025	0.127
7.73624	0.124
7.76998	0.113
7.80372	0.151
7.83747	0.304
7.87121	0.465
7.90495	0.591
7.93869	0.573
7.97244	0.494
8.00618	0.386
8.03992	0.28
8.07366	0.212
8.10741	0.142
8.14115	0.103
8.17489	0.057
8.20863	0.047
8.24238	0.039
8.27612	0.034
8.30986	0.037
8.3436	0.047
8.37735	0.069
8.41109	0.164
8.44483	0.232
8.47857	0.302
8.51232	0.404
8.54606	0.498
8.5798	0.5
8.61355	0.454
8.64729	0.438
8.68103	0.494
8.71477	0.619
8.74852	0.687
8.78226	0.712
8.816	0.727
8.84974	0.732
8.88349	0.734
8.91723	0.734
8.95097	0.729
8.98471	0.709
9.01846	0.663
9.0522	0.624
9.08594	0.574
9.11968	0.556
9.15343	0.562
9.18717	0.573
9.22091	0.515
9.25465	0.433
9.2884	0.387
9.32214	0.431
9.35588	0.433
9.38962	0.38
9.42337	0.289
9.45711	0.205
9.49085	0.132
9.52459	0.1
9.55834	0.054
9.59208	0.022
9.62582	0.015
9.65956	0.011
9.69331	0.011
9.72705	0.013
9.76079	0.039
9.79454	0.107
9.82828	0.198
9.86202	0.273
9.89576	0.306
9.92951	0.27
9.96325	0.137
9.99699	0.132
10.0307	0.267
10.0645	0.301
10.0982	0.25
10.132	0.154
10.1657	0.103
10.1994	0.064
10.2332	0.03
10.2669	0.018
10.3007	0.015
10.3344	0.013
10.3682	0.011
10.4019	0.011
10.4356	0.011
10.4694	0.011
10.5031	0.02
10.5369	0.034
10.5706	0.074
10.6044	0.139
10.6381	0.185
10.6718	0.217
10.7056	0.222
10.7393	0.221
10.7731	0.221
10.8068	0.244
10.8406	0.282
10.8743	0.355
10.908	0.433
10.9418	0.532
10.9755	0.586
11.0093	0.627
11.043	0.653
11.0768	0.671
11.1105	0.678
11.1442	0.68
11.178	0.678
11.2117	0.678
11.2455	0.685
11.2792	0.712
11.313	0.75
11.3467	0.773
11.3804	0.801
11.4142	0.819
11.4479	0.826
11.4817	0.833
11.5154	0.84
11.5491	0.841
11.5829	0.845
11.6166	0.848
11.6504	0.846
11.6841	0.843
11.7179	0.84
11.7516	0.833
11.7853	0.819
11.8191	0.804
11.8528	0.778
11.8866	0.727
11.9203	0.681
11.9541	0.634
11.9878	0.591
12.0215	0.561
12.0553	0.551
12.089	0.549
12.1228	0.557
12.1565	0.574
12.1903	0.59
12.224	0.602
12.2577	0.615
12.2915	0.62
12.3252	0.622
12.359	0.622
12.3927	0.62
12.4265	0.62
12.4602	0.625
12.4939	0.637
12.5277	0.647
12.5614	0.653
12.5952	0.658
12.6289	0.658
12.6627	0.654
12.6964	0.644
12.7301	0.637
12.7639	0.632
12.7976	0.63
12.8314	0.622
12.8651	0.61
12.8989	0.588
12.9326	0.564
12.9663	0.525
13.0001	0.494
13.0338	0.44
13.0676	0.386
13.1013	0.316
13.1351	0.231
13.1688	0.163
13.2025	0.125
13.2363	0.108
13.27	0.078
13.3038	0.068
13.3375	0.062
13.3712	0.079
13.405	0.122
13.4387	0.238
13.4725	0.338
13.5062	0.421
13.54	0.522
13.5737	0.579
13.6074	0.619
13.6412	0.644
13.6749	0.664
13.7087	0.678
13.7424	0.688
13.7762	0.7
13.8099	0.704
13.8436	0.705
13.8774	0.709
13.9111	0.71
13.9449	0.709
13.9786	0.707
14.0124	0.702
14.0461	0.695
14.0798	0.68
14.1136	0.664
14.1473	0.642
14.1811	0.605
14.2148	0.542
14.2486	0.496
14.2823	0.421
14.316	0.353
14.3498	0.284
14.3835	0.227
14.4173	0.192
14.451	0.173
14.4848	0.175
14.5185	0.246
14.5522	0.345
14.586	0.43
14.6197	0.522
14.6535	0.573
14.6872	0.603
14.721	0.624
14.7547	0.632
14.7884	0.636
14.8222	0.637
14.8559	0.639
14.8897	0.641
14.9234	0.642
14.9571	0.647
14.9909	0.651
15.0246	0.656
15.0584	0.659
15.0921	0.661
15.1259	0.663
15.1596	0.663
15.1933	0.664
15.2271	0.663
15.2608	0.663
15.2946	0.661
15.3283	0.658
15.3621	0.654
15.3958	0.649
