Infrared Spectrum: HYDANTOIN, 5-(1-ETHYL-n-PENTYL)-3-(TRICHLOROMETHYLTHIO)-
Formula: C11 H17 Cl3 N2 O2 S
CAS: 5588-20-5
State: SOLUTION (CS2 FOR 2-15 microns, AND C2Cl4 FOR 4-7.5 microns)
Class: COBLENTZ III
Instrument: PERKIN-ELMER 21 (GRATING)
Instrument parameters: FILTER AT ABOUT 10 MICRONS
Sampling: TRANSMISSION
Resolution: 2
1/CM	TRANSMITTANCE
4000	0.9178
3991	0.9178
3982	0.918
3973	0.918
3964	0.918
3955	0.9181
3946	0.9181
3937	0.9181
3928	0.9181
3919	0.9182
3910	0.9182
3901	0.9182
3892	0.9183
3883	0.9183
3874	0.9183
3865	0.9183
3856	0.9184
3847	0.9184
3838	0.9185
3829	0.9186
3820	0.9187
3811	0.9188
3802	0.9189
3793	0.9191
3784	0.9191
3775	0.9192
3766	0.9193
3757	0.9194
3748	0.9196
3739	0.9197
3730	0.9199
3721	0.9201
3712	0.9203
3703	0.9206
3694	0.9207
3685	0.921
3676	0.9212
3667	0.9213
3658	0.9213
3649	0.9212
3640	0.9212
3631	0.9211
3622	0.9209
3613	0.9209
3604	0.9207
3595	0.9205
3586	0.9197
3577	0.9181
3568	0.9134
3559	0.9091
3550	0.9056
3541	0.9035
3532	0.9018
3523	0.9008
3514	0.9002
3505	0.8997
3496	0.8993
3487	0.8988
3478	0.8971
3469	0.8689
3460	0.8278
3451	0.79
3442	0.7822
3433	0.793
3424	0.8075
3415	0.8221
3406	0.8368
3397	0.8377
3388	0.8334
3379	0.8239
3370	0.8134
3361	0.7968
3352	0.7741
3343	0.7476
3334	0.714
3325	0.68
3316	0.6458
3307	0.6116
3298	0.5771
3289	0.5424
3280	0.5075
3271	0.4725
3262	0.4372
3253	0.4178
3244	0.4086
3235	0.4032
3226	0.4046
3217	0.4059
3208	0.4152
3199	0.4347
3190	0.453
3181	0.4715
3172	0.4896
3163	0.4895
3154	0.472
3145	0.4543
3136	0.4526
3127	0.4775
3118	0.514
3109	0.5509
3100	0.5879
3091	0.6252
3082	0.6625
3073	0.7003
3064	0.7287
3055	0.7428
3046	0.7531
3037	0.7631
3028	0.7698
3019	0.771
3010	0.7699
3001	0.7596
2992	0.7172
2983	0.6442
2974	0.5676
2965	0.4905
2956	0.413
2947	0.3646
2938	0.3409
2929	0.3334
2920	0.3332
2911	0.3532
2902	0.3939
2893	0.4347
2884	0.4623
2875	0.4593
2866	0.452
2857	0.4494
2848	0.4973
2839	0.5642
2830	0.6315
2821	0.6831
2812	0.7053
2803	0.7268
2794	0.746
2785	0.7615
2776	0.7825
2767	0.8005
2758	0.8162
2749	0.8308
2740	0.8421
2731	0.8518
2722	0.8611
2713	0.8689
2704	0.8764
2695	0.8804
2686	0.8837
2677	0.8861
2668	0.8878
2659	0.8895
2650	0.8912
2641	0.8925
2632	0.894
2623	0.8953
2614	0.8965
2605	0.8973
2596	0.898
2587	0.8986
2578	0.899
2569	0.8992
2560	0.8991
2551	0.8989
2542	0.8988
2533	0.8988
2524	0.899
2515	0.8997
2506	0.9012
2497	0.9061
2488	0.9123
2479	0.9152
2470	0.9156
2461	0.916
2452	0.9161
2443	0.916
2434	0.9158
2425	0.9157
2416	0.9157
2407	0.9157
2398	0.9159
2389	0.9167
2380	0.9175
2371	0.9184
2362	0.9192
2353	0.9197
2344	0.9202
2335	0.9207
2326	0.9212
2317	0.9217
2308	0.9223
2299	0.9227
2290	0.9228
2281	0.9232
2272	0.9234
2263	0.9235
2254	0.9238
2245	0.9237
2236	0.9234
2227	0.9232
2218	0.9228
2209	0.9227
2200	0.9223
2191	0.922
2182	0.9218
2173	0.9215
2164	0.9212
2155	0.9209
2146	0.9213
2137	0.9218
2128	0.9225
2119	0.9227
2110	0.9224
2101	0.9221
2092	0.9213
2083	0.9204
2074	0.9192
2065	0.9165
2056	0.9166
2047	0.917
2038	0.9183
2029	0.9195
2020	0.9204
2011	0.9212
2002	0.9218
1993	0.9216
1984	0.9208
1975	0.9193
1966	0.9175
1957	0.9164
1948	0.9156
1939	0.915
1930	0.9136
1921	0.9127
1912	0.9135
1903	0.9156
1894	0.9177
1885	0.9171
1876	0.9134
1867	0.9083
1858	0.9016
1849	0.8896
1840	0.8701
1831	0.8349
1822	0.788
1813	0.641
1804	0.5503
1795	0.5493
1786	0.5754
1777	0.4891
1768	0.2861
1759	0.0811
1750	0.0423
1741	0.0663
1732	0.2769
1723	0.5038
1714	0.6839
1705	0.7421
1696	0.7857
1687	0.8171
1678	0.842
1669	0.8625
1660	0.8749
1651	0.8828
1642	0.889
1633	0.8932
1624	0.896
1615	0.8977
1606	0.898
1597	0.8986
1588	0.8996
1579	0.9014
1570	0.9054
1561	0.9086
1552	0.9104
1543	0.9115
1534	0.9117
1525	0.9036
1516	0.8821
1507	0.8723
1498	0.8695
1489	0.8615
1480	0.8271
1471	0.5447
1462	0.5262
1453	0.6749
1444	0.7442
1435	0.7625
1426	0.7671
1417	0.7638
1408	0.7399
1399	0.6957
1390	0.6008
1381	0.4077
1372	0.2776
1363	0.2627
1354	0.159
1345	0.1848
1336	0.2894
1327	0.4091
1318	0.403
1309	0.3171
1300	0.2359
1291	0.2322
1282	0.2992
1273	0.3684
1264	0.3216
1255	0.2761
1246	0.5035
1237	0.613
1228	0.6784
1219	0.6968
1210	0.7211
1201	0.761
1192	0.7928
1183	0.7342
1174	0.5475
1165	0.426
1156	0.5657
1147	0.6569
1138	0.7008
1129	0.7411
1120	0.7918
1111	0.7564
1102	0.7689
1093	0.7065
1084	0.6029
1075	0.4626
1066	0.4525
1057	0.5317
1048	0.6593
1039	0.769
1030	0.7998
1021	0.7682
1012	0.6874
1003	0.7562
994	0.8236
985	0.8808
976	0.8907
967	0.8814
958	0.8877
949	0.8945
940	0.8911
931	0.8956
922	0.8828
913	0.8798
904	0.8839
895	0.8837
886	0.8817
877	0.8662
868	0.8432
859	0.8287
850	0.8184
841	0.805
832	0.8091
823	0.7728
814	0.4735
805	0.1996
796	0.3972
787	0.4883
778	0.3844
769	0.2383
760	0.1075
751	0.1784
742	0.1627
733	0.4219
724	0.6155
715	0.6751
706	0.6812
697	0.6897
688	0.6908
679	0.6646
