Infrared Spectrum: Quinaldic acid, 4-hydroxy-8-methoxy-, ethyl ester
Formula: C13 H13 N O4
CAS: 55895-59-5
State: SOLID (MELT, COOLED RAPIDLY)
Class: COBLENTZ II
Instrument: PERKIN-ELMER 180 (GRATING)
Instrument parameters: GRATINGS: 2000, 1000, 500, 250 CM^-^1; FILTER CHANGE: 2970, 2000, 1485, 1000, 743, 500, 372, 250, 186 CM^-^1.
Sampling: TRANSMISSION
Resolution: 2
Origin: K. K. DEB-NCI FREDERICK CANCER RESEARCH CENTER
1/CM	TRANSMITTANCE
406	0.7529
415	0.7857
424	0.8108
433	0.8234
442	0.823
451	0.7846
460	0.7744
469	0.829
478	0.8542
487	0.8555
496	0.8086
505	0.7948
514	0.6515
523	0.6828
532	0.6713
541	0.7525
550	0.8142
559	0.8242
568	0.7719
577	0.6869
586	0.6526
595	0.745
604	0.665
613	0.5763
622	0.519
631	0.5005
640	0.5272
649	0.6229
658	0.6882
667	0.7442
676	0.7737
685	0.7833
694	0.6746
703	0.7189
712	0.694
721	0.78
730	0.7882
739	0.6805
748	0.3788
757	0.4991
766	0.6534
775	0.5279
784	0.2304
793	0.5062
802	0.7489
811	0.4772
820	0.6263
829	0.7785
838	0.7959
847	0.7161
856	0.6127
865	0.4093
874	0.5223
883	0.6984
892	0.7162
901	0.6841
910	0.7704
919	0.8091
928	0.8131
937	0.8213
946	0.8174
955	0.8079
964	0.7788
973	0.757
982	0.7235
991	0.6565
1000	0.6315
1009	0.4468
1018	0.1988
1027	0.3269
1036	0.5368
1045	0.624
1054	0.3555
1063	0.3942
1072	0.3457
1081	0.5625
1090	0.6575
1099	0.5342
1108	0.3849
1117	0.491
1126	0.5801
1135	0.5203
1144	0.2134
1153	0.3105
1162	0.5194
1171	0.2911
1180	0.4636
1189	0.424
1198	0.4922
1207	0.6159
1216	0.5634
1225	0.3985
1234	0.0995
1243	0.2384
1252	0.1644
1261	0.0515
1270	0.0453
1279	0.1101
1288	0.2602
1297	0.2226
1306	0.3226
1315	0.4939
1324	0.5816
1333	0.5327
1342	0.297
1351	0.4459
1360	0.5167
1369	0.2629
1378	0.2321
1387	0.4461
1396	0.4656
1405	0.56
1414	0.6145
1423	0.6273
1432	0.4353
1441	0.2777
1450	0.247
1459	0.2707
1468	0.2398
1477	0.1297
1486	0.38
1495	0.608
1504	0.5559
1513	0.3884
1522	0.2208
1531	0.0707
1540	0.2452
1549	0.484
1558	0.5056
1567	0.3682
1576	0.1553
1585	0.12
1594	0.0811
1603	0.0895
1612	0.0859
1621	0.1117
1630	0.0855
1639	0.0733
1648	0.4051
1657	0.6552
1666	0.732
1675	0.7495
1684	0.7427
1693	0.7243
1702	0.6761
1711	0.4549
1720	0.1579
1729	0.1265
1738	0.2373
1747	0.3569
1756	0.6611
1765	0.762
1774	0.8075
1783	0.8194
1792	0.8253
1801	0.8302
1810	0.8338
1819	0.8366
1828	0.8383
1837	0.8395
1846	0.8396
1855	0.8394
1864	0.8403
1873	0.8436
1882	0.8492
1891	0.8503
1900	0.8476
1909	0.8436
1918	0.8392
1927	0.8394
1936	0.8433
1945	0.8457
1954	0.8431
1963	0.8462
1972	0.8549
1981	0.8622
1990	0.8651
1999	0.8651
2008	0.8647
2017	0.8639
2026	0.8631
2035	0.8622
2044	0.8621
2053	0.8621
2062	0.8621
2071	0.8621
2080	0.8621
2089	0.8609
2098	0.8586
2107	0.8564
2116	0.8545
2125	0.8541
2134	0.8544
2143	0.8556
2152	0.8569
2161	0.8578
2170	0.8582
2179	0.8582
2188	0.8574
2197	0.8566
2206	0.8551
2215	0.8535
2224	0.8519
2233	0.8501
2242	0.8482
2251	0.8466
2260	0.8462
2269	0.8457
2278	0.8454
2287	0.845
2296	0.8446
2305	0.8442
2314	0.8439
2323	0.8436
2332	0.8433
2341	0.8429
2350	0.8414
2359	0.8399
2368	0.8384
2377	0.8368
2386	0.8353
2395	0.8338
2404	0.8325
2413	0.8311
2422	0.8298
2431	0.8285
2440	0.8273
2449	0.8263
2458	0.8253
2467	0.8244
2476	0.8234
2485	0.8221
2494	0.8207
2503	0.8193
2512	0.8157
2521	0.8123
2530	0.8105
2539	0.8114
2548	0.8128
2557	0.81
2566	0.807
2575	0.804
2584	0.8035
2593	0.8036
2602	0.8042
2611	0.8045
2620	0.8021
2629	0.7981
2638	0.7975
2647	0.8024
2656	0.8091
2665	0.8114
2674	0.8105
2683	0.8098
2692	0.8105
2701	0.81
2710	0.8059
2719	0.8002
2728	0.7947
2737	0.7935
2746	0.7926
2755	0.791
2764	0.7915
2773	0.7952
2782	0.7951
2791	0.7936
2800	0.7902
2809	0.7825
2818	0.7684
2827	0.7337
2836	0.6779
2845	0.6983
2854	0.7365
2863	0.7234
2872	0.708
2881	0.6923
2890	0.6735
2899	0.6546
2908	0.6606
2917	0.6568
2926	0.5974
2935	0.5597
2944	0.5907
2953	0.6035
2962	0.5599
2971	0.516
2980	0.5128
2989	0.5624
2998	0.601
3007	0.638
3016	0.6753
3025	0.6961
3034	0.7086
3043	0.714
3052	0.7101
3061	0.6915
3070	0.6767
3079	0.6799
3088	0.69
3097	0.7126
3106	0.7275
3115	0.7386
3124	0.7459
3133	0.7504
3142	0.7516
3151	0.7518
3160	0.7508
3169	0.7493
3178	0.7479
3187	0.7477
3196	0.7537
3205	0.7589
3214	0.762
3223	0.7644
3232	0.7661
3241	0.7668
3250	0.7646
3259	0.7658
3268	0.771
3277	0.7712
3286	0.7696
3295	0.7658
3304	0.7615
3313	0.7556
3322	0.7472
3331	0.7341
3340	0.7151
3349	0.6895
3358	0.6536
3367	0.5918
3376	0.5049
3385	0.3775
3394	0.2502
3403	0.2805
3412	0.4234
3421	0.5662
3430	0.7091
3439	0.7944
3448	0.8273
3457	0.8368
3466	0.8413
3475	0.8449
3484	0.8477
3493	0.8502
3502	0.8526
3511	0.8546
3520	0.8559
3529	0.8569
3538	0.8575
3547	0.858
3556	0.8586
3565	0.8588
3574	0.859
3583	0.8592
3592	0.8594
3601	0.8598
3610	0.8602
3619	0.8605
3628	0.8607
3637	0.8607
3646	0.8607
3655	0.8607
3664	0.8608
3673	0.8608
3682	0.8608
3691	0.8608
3700	0.8608
3709	0.8607
3718	0.8607
3727	0.8605
3736	0.8603
3745	0.86
3754	0.8599
3763	0.8597
3772	0.8597
3781	0.8598
