Infrared Spectrum: 2,4-DINITROPHENYL HYDRAZINE HYDROCHLORIDE
Formula: C6 H6 N4 O4  * H Cl
CAS: 55907-61-4
State: SOLID (MINERAL OIL MULL)
Class: COBLENTZ
Instrument: Not specified, most likely a prism, grating, or hybrid spectrometer.
Sampling: TRANSMISSION
Resolution: 4
Origin: DOW CHEMICAL COMPANY
MICROMETERS	TRANSMITTANCE
2.027	0.597
2.06804	0.6
2.10907	0.604
2.15011	0.609
2.19115	0.609
2.23218	0.604
2.27322	0.607
2.31425	0.619
2.35529	0.627
2.39633	0.633
2.43736	0.643
2.4784	0.648
2.51944	0.651
2.56047	0.656
2.60151	0.665
2.64255	0.668
2.68358	0.668
2.72462	0.668
2.76566	0.626
2.80669	0.578
2.84773	0.505
2.88876	0.337
2.9298	0.184
2.97084	0.218
3.01187	0.356
3.05291	0.261
3.09395	0.31
3.13498	0.406
3.17602	0.435
3.21706	0.363
3.25809	0.394
3.29913	0.348
3.34017	0.235
3.3812	0.076
3.42224	0.087
3.46327	0.153
3.50431	0.32
3.54535	0.401
3.58638	0.411
3.62742	0.428
3.66846	0.431
3.70949	0.428
3.75053	0.424
3.79157	0.435
3.8326	0.455
3.87364	0.481
3.91467	0.515
3.95571	0.547
3.99675	0.575
4.03778	0.597
4.07882	0.612
4.11986	0.631
4.16089	0.66
4.20193	0.663
4.24297	0.672
4.284	0.699
4.32504	0.721
4.36608	0.73
4.40711	0.738
4.44815	0.742
4.48918	0.744
4.53022	0.744
4.57126	0.749
4.61229	0.749
4.65333	0.752
4.69437	0.761
4.7354	0.762
4.77644	0.759
4.81748	0.744
4.85851	0.737
4.89955	0.733
4.94058	0.759
4.98162	0.786
5.02266	0.819
5.06369	0.829
5.10473	0.839
5.14577	0.841
5.1868	0.846
5.22784	0.872
5.26888	0.872
5.30991	0.872
5.35095	0.866
5.39199	0.87
5.43302	0.872
5.47406	0.863
5.51509	0.877
5.55613	0.875
5.59717	0.872
5.6382	0.878
5.67924	0.878
5.72028	0.866
5.76131	0.868
5.80235	0.877
5.84339	0.877
5.88442	0.861
5.92546	0.851
5.9665	0.822
6.00753	0.808
6.04857	0.745
6.0896	0.597
6.13064	0.344
6.17168	0.117
6.21271	0.233
6.25375	0.186
6.29479	0.3
6.33582	0.445
6.37686	0.498
6.4179	0.511
6.45893	0.455
6.49997	0.296
6.541	0.192
6.58204	0.18
6.62308	0.192
6.66411	0.18
6.70515	0.325
6.74619	0.465
6.78722	0.445
6.82826	0.44
6.8693	0.549
6.91033	0.604
6.95137	0.576
6.99241	0.489
7.03344	0.325
7.07448	0.262
7.11551	0.418
7.15655	0.59
7.19759	0.595
7.23862	0.552
7.27966	0.529
7.3207	0.406
7.36173	0.206
7.40277	0.11
7.44381	0.073
7.48484	0.136
7.52588	0.11
7.56692	0.093
7.60795	0.254
7.64899	0.447
7.69002	0.503
7.73106	0.435
7.7721	0.32
7.81313	0.382
7.85417	0.501
7.89521	0.561
7.93624	0.552
7.97728	0.476
8.01832	0.423
8.05935	0.482
8.10039	0.406
8.14142	0.348
8.18246	0.276
8.2235	0.206
8.26453	0.382
8.30557	0.566
8.34661	0.633
8.38764	0.672
8.42868	0.701
8.46972	0.715
8.51075	0.723
8.55179	0.73
8.59283	0.686
8.63386	0.518
8.6749	0.361
8.71593	0.486
8.75697	0.457
8.79801	0.313
8.83904	0.382
8.88008	0.511
8.92112	0.559
8.96215	0.575
9.00319	0.595
9.04423	0.604
9.08526	0.609
9.1263	0.646
9.16734	0.697
9.20837	0.718
9.24941	0.716
9.29044	0.715
9.33148	0.699
9.37252	0.658
9.41355	0.559
9.45459	0.549
9.49563	0.638
9.53666	0.682
9.5777	0.701
9.61874	0.716
9.65977	0.718
9.70081	0.72
9.74184	0.721
9.78288	0.726
9.82392	0.73
9.86495	0.74
9.90599	0.749
9.94703	0.752
9.98806	0.754
10.0291	0.754
10.0701	0.755
10.1112	0.757
10.1522	0.757
10.1932	0.759
10.2343	0.759
10.2753	0.761
10.3164	0.757
10.3574	0.745
10.3984	0.752
10.4395	0.764
10.4805	0.761
10.5215	0.767
10.5626	0.767
10.6036	0.767
10.6446	0.767
10.6857	0.75
10.7267	0.699
10.7678	0.592
10.8088	0.563
10.8498	0.646
10.8909	0.672
10.9319	0.626
10.9729	0.641
11.014	0.761
11.055	0.783
11.096	0.802
11.1371	0.807
11.1781	0.81
11.2192	0.81
11.2602	0.812
11.3012	0.819
11.3423	0.82
11.3833	0.822
11.4243	0.824
11.4654	0.827
11.5064	0.829
11.5474	0.829
11.5885	0.824
11.6295	0.824
11.6706	0.829
11.7116	0.831
11.7526	0.831
11.7937	0.829
11.8347	0.805
11.8757	0.732
11.9168	0.643
11.9578	0.675
11.9988	0.732
12.0399	0.696
12.0809	0.558
12.122	0.491
12.163	0.672
12.204	0.761
12.2451	0.779
12.2861	0.79
12.3271	0.79
12.3682	0.793
12.4092	0.803
12.4502	0.82
12.4913	0.829
12.5323	0.831
12.5734	0.837
12.6144	0.837
12.6554	0.837
12.6965	0.837
12.7375	0.837
12.7785	0.839
12.8196	0.839
12.8606	0.837
12.9016	0.836
12.9427	0.829
12.9837	0.824
13.0248	0.805
13.0658	0.769
13.1068	0.766
13.1479	0.8
13.1889	0.812
13.2299	0.812
13.271	0.802
13.312	0.786
13.353	0.754
13.3941	0.697
13.4351	0.583
13.4762	0.44
13.5172	0.378
13.5582	0.525
13.5993	0.694
13.6403	0.747
13.6813	0.761
13.7224	0.761
13.7634	0.749
13.8044	0.732
13.8455	0.725
13.8865	0.718
13.9276	0.696
13.9686	0.653
14.0096	0.578
14.0507	0.517
14.0917	0.489
14.1327	0.505
14.1738	0.561
14.2148	0.626
14.2558	0.668
14.2969	0.699
14.3379	0.72
14.379	0.73
14.42	0.733
14.461	0.732
14.5021	0.715
14.5431	0.696
14.5841	0.679
14.6252	0.672
14.6662	0.687
14.7073	0.713
14.7483	0.728
14.7893	0.737
14.8304	0.74
14.8714	0.738
14.9124	0.732
14.9535	0.728
14.9945	0.728
15.0355	0.718
15.0766	0.709
15.1176	0.696
15.1587	0.679
15.1997	0.658
15.2407	0.639
15.2818	0.621
15.3228	0.604
15.3638	0.595
15.4049	0.588
15.4459	0.587
15.4869	0.587
15.528	0.588
15.569	0.59
15.6101	0.592
15.6511	0.597
15.6921	0.598
15.7332	0.6
15.7742	0.597
15.8152	0.593
15.8563	0.59
15.8973	0.59
15.9383	0.59
