Infrared Spectrum: p-METHOXY VALEROPHENONE OXIME
Formula: C12 H17 N O2
CAS: 55937-94-5
State: SOLUTION (10% CCl4 FOR 5000-1330, 10% CS2 FOR 1330-625 CM^-^1)
Boiling point: 137-142 C AT 1 mmHg
Class: COBLENTZ
Instrument: Not specified, most likely a prism, grating, or hybrid spectrometer.
Sampling: TRANSMISSION
Path length: 0.0124 CM, 0.0105 CM
Resolution: 4
Origin: DOW CHEMICAL COMPANY
MICROMETERS	TRANSMITTANCE
1.986	0.904
2.02726	0.902
2.06851	0.9
2.10977	0.9
2.15103	0.898
2.19228	0.897
2.23354	0.886
2.2748	0.885
2.31605	0.89
2.35731	0.898
2.39857	0.895
2.43982	0.892
2.48108	0.89
2.52234	0.893
2.56359	0.892
2.60485	0.893
2.64611	0.904
2.68736	0.897
2.72862	0.856
2.76988	0.761
2.81113	0.772
2.85239	0.696
2.89365	0.561
2.9349	0.457
2.97616	0.304
3.01742	0.268
3.05867	0.263
3.09993	0.306
3.14119	0.385
3.18244	0.41
3.2237	0.409
3.26496	0.402
3.30621	0.424
3.34747	0.284
3.38873	0.126
3.42998	0.265
3.47124	0.385
3.5125	0.57
3.55375	0.71
3.59501	0.751
3.63627	0.779
3.67752	0.804
3.71878	0.825
3.76004	0.835
3.80129	0.835
3.84255	0.833
3.88381	0.827
3.92506	0.833
3.96632	0.854
4.00758	0.864
4.04883	0.871
4.09009	0.866
4.13135	0.869
4.1726	0.883
4.21386	0.886
4.25512	0.881
4.29637	0.859
4.33763	0.866
4.37889	0.88
4.42014	0.881
4.4614	0.88
4.50266	0.881
4.54391	0.886
4.58517	0.888
4.62643	0.886
4.66768	0.881
4.70894	0.878
4.7502	0.876
4.79145	0.863
4.83271	0.828
4.87397	0.825
4.91522	0.852
4.95648	0.863
4.99774	0.869
5.039	0.869
5.08025	0.864
5.12151	0.869
5.16277	0.871
5.20402	0.863
5.24528	0.847
5.28654	0.82
5.32779	0.827
5.36905	0.837
5.41031	0.847
5.45156	0.856
5.49282	0.863
5.53408	0.864
5.57533	0.864
5.61659	0.863
5.65785	0.844
5.6991	0.847
5.74036	0.851
5.78162	0.851
5.82287	0.847
5.86413	0.82
5.90539	0.746
5.94664	0.565
5.9879	0.619
6.02916	0.736
6.07041	0.727
6.11167	0.659
6.15293	0.498
6.19418	0.231
6.23544	0.184
6.2767	0.482
6.31795	0.51
6.35921	0.541
6.40047	0.631
6.44172	0.712
6.48298	0.744
6.52424	0.698
6.56549	0.464
6.60675	0.208
6.64801	0.472
6.68926	0.621
6.73052	0.63
6.77178	0.476
6.81303	0.186
6.85429	0.253
6.89555	0.339
6.9368	0.429
6.97806	0.577
7.01932	0.563
7.06057	0.537
7.10183	0.604
7.14309	0.664
7.18434	0.671
7.2256	0.577
7.26686	0.597
7.30811	0.607
7.34937	0.551
7.39063	0.513
7.43188	0.438
7.47314	0.347
7.5144	0.325
7.55565	0.318
7.59691	0.246
7.63817	0.172
7.67942	0.14
7.72068	0.224
7.76194	0.351
7.80319	0.38
7.84445	0.349
7.88571	0.255
7.92696	0.109
7.96822	0.029
8.00948	0.054
8.05073	0.21
8.09199	0.443
8.13325	0.542
8.1745	0.571
8.21576	0.583
8.25702	0.597
8.29827	0.643
8.33953	0.657
8.38079	0.556
8.42204	0.297
8.4633	0.118
8.50456	0.15
8.54581	0.375
8.58707	0.527
8.62833	0.66
8.66958	0.688
8.71084	0.712
8.7521	0.729
8.79335	0.739
8.83461	0.741
8.87587	0.72
8.91712	0.64
8.95838	0.547
8.99964	0.518
9.04089	0.582
9.08215	0.654
9.12341	0.71
9.16466	0.746
9.20592	0.76
9.24718	0.761
9.28843	0.739
9.32969	0.722
9.37095	0.676
9.4122	0.636
9.45346	0.537
9.49472	0.41
9.53597	0.272
9.57723	0.217
9.61849	0.2
9.65974	0.184
9.701	0.299
9.74226	0.446
9.78351	0.561
9.82477	0.631
9.86603	0.66
9.90728	0.678
9.94854	0.695
9.9898	0.702
10.0311	0.703
10.0723	0.719
10.1136	0.726
10.1548	0.724
10.1961	0.712
10.2373	0.688
10.2786	0.657
10.3199	0.614
10.3611	0.553
10.4024	0.518
10.4436	0.464
10.4849	0.363
10.5261	0.244
10.5674	0.155
10.6086	0.136
10.6499	0.198
10.6912	0.287
10.7324	0.332
10.7737	0.352
10.8149	0.292
10.8562	0.214
10.8974	0.167
10.9387	0.22
10.98	0.306
11.0212	0.402
11.0625	0.496
11.1037	0.568
11.145	0.601
11.1862	0.647
11.2275	0.684
11.2688	0.708
11.31	0.71
11.3513	0.698
11.3925	0.657
11.4338	0.645
11.475	0.655
11.5163	0.698
11.5576	0.715
11.5988	0.719
11.6401	0.717
11.6813	0.712
11.7226	0.698
11.7638	0.679
11.8051	0.631
11.8463	0.563
11.8876	0.436
11.9289	0.268
11.9701	0.113
12.0114	0.054
12.0526	0.051
12.0939	0.169
12.1351	0.282
12.1764	0.368
12.2177	0.404
12.2589	0.467
12.3002	0.513
12.3414	0.522
12.3827	0.481
12.4239	0.448
12.4652	0.45
12.5065	0.52
12.5477	0.589
12.589	0.619
12.6302	0.648
12.6715	0.657
12.7127	0.664
12.754	0.664
12.7953	0.659
12.8365	0.643
12.8778	0.631
12.919	0.611
12.9603	0.587
13.0015	0.571
13.0428	0.554
13.084	0.549
13.1253	0.535
13.1666	0.523
13.2078	0.513
13.2491	0.498
13.2903	0.486
13.3316	0.482
13.3728	0.486
13.4141	0.498
13.4554	0.505
13.4966	0.515
13.5379	0.525
13.5791	0.529
13.6204	0.535
13.6616	0.537
13.7029	0.539
13.7442	0.547
13.7854	0.556
13.8267	0.558
13.8679	0.568
13.9092	0.566
13.9504	0.577
13.9917	0.592
14.033	0.602
14.0742	0.614
14.1155	0.625
14.1567	0.636
14.198	0.645
14.2392	0.648
14.2805	0.657
14.3218	0.659
14.363	0.664
14.4043	0.669
14.4455	0.671
14.4868	0.678
14.528	0.678
14.5693	0.671
14.6105	0.674
14.6518	0.678
14.6931	0.672
14.7343	0.676
14.7756	0.672
14.8168	0.669
14.8581	0.669
14.8993	0.667
14.9406	0.666
14.9819	0.666
15.0231	0.667
15.0644	0.667
15.1056	0.66
15.1469	0.654
15.1881	0.648
15.2294	0.638
15.2707	0.631
15.3119	0.626
15.3532	0.625
15.3944	0.623
15.4357	0.625
15.4769	0.625
15.5182	0.625
15.5595	0.625
15.6007	0.63
15.642	0.638
15.6832	0.645
15.7245	0.657
15.7657	0.659
15.807	0.66
15.8482	0.662
