Infrared Spectrum: N,N-DICYCLOHEXYL CROTONAMIDE
Formula: C16 H27 N O
CAS: 55955-94-7
State: SOLID (MINERAL OIL MULL)
Class: COBLENTZ
Instrument: Not specified, most likely a prism, grating, or hybrid spectrometer.
Sampling: TRANSMISSION
Resolution: 4
Origin: DOW CHEMICAL COMPANY
MICROMETERS	TRANSMITTANCE
2.034	0.563
2.07512	0.572
2.11624	0.58
2.15735	0.587
2.19847	0.589
2.23959	0.568
2.28071	0.556
2.32182	0.565
2.36294	0.585
2.40406	0.594
2.44518	0.606
2.4863	0.619
2.52741	0.626
2.56853	0.633
2.60965	0.646
2.65077	0.65
2.69189	0.658
2.733	0.662
2.77412	0.67
2.81524	0.672
2.85636	0.672
2.89747	0.668
2.93859	0.679
2.97971	0.679
3.02083	0.679
3.06195	0.67
3.10306	0.657
3.14418	0.663
3.1853	0.662
3.22642	0.641
3.26753	0.602
3.30865	0.494
3.34977	0.181
3.39089	0.028
3.43201	0.04
3.47312	0.059
3.51424	0.317
3.55536	0.57
3.59648	0.648
3.6376	0.665
3.67871	0.674
3.71983	0.655
3.76095	0.679
3.80207	0.707
3.84318	0.723
3.8843	0.753
3.92542	0.753
3.96654	0.762
4.00766	0.769
4.04877	0.774
4.08989	0.774
4.13101	0.779
4.17213	0.779
4.21324	0.78
4.25436	0.787
4.29548	0.797
4.3366	0.804
4.37772	0.811
4.41883	0.803
4.45995	0.809
4.50107	0.825
4.54219	0.823
4.5833	0.823
4.62442	0.828
4.66554	0.83
4.70666	0.833
4.74778	0.84
4.78889	0.84
4.83001	0.843
4.87113	0.847
4.91225	0.852
4.95337	0.847
4.99448	0.85
5.0356	0.86
5.07672	0.859
5.11784	0.862
5.15895	0.865
5.20007	0.87
5.24119	0.87
5.28231	0.869
5.32343	0.865
5.36454	0.869
5.40566	0.869
5.44678	0.87
5.4879	0.872
5.52901	0.864
5.57013	0.862
5.61125	0.864
5.65237	0.859
5.69349	0.845
5.7346	0.818
5.77572	0.799
5.81684	0.78
5.85796	0.747
5.89908	0.677
5.94019	0.57
5.98131	0.29
6.02243	0.052
6.06355	0.191
6.10466	0.23
6.14578	0.096
6.1869	0.032
6.22802	0.05
6.26914	0.181
6.31025	0.358
6.35137	0.485
6.39249	0.573
6.43361	0.648
6.47472	0.68
6.51584	0.689
6.55696	0.687
6.59808	0.679
6.6392	0.658
6.68031	0.595
6.72143	0.487
6.76255	0.302
6.80367	0.093
6.84479	0.067
6.8859	0.047
6.92702	0.081
6.96814	0.191
7.00926	0.421
7.05037	0.539
7.09149	0.558
7.13261	0.505
7.17373	0.412
7.21485	0.32
7.25596	0.213
7.29708	0.156
7.3382	0.135
7.37932	0.205
7.42043	0.263
7.46155	0.3
7.50267	0.266
7.54379	0.21
7.58491	0.117
7.62602	0.11
7.66714	0.181
7.70826	0.283
7.74938	0.507
7.7905	0.551
7.83161	0.49
7.87273	0.482
7.91385	0.41
7.95497	0.475
7.99608	0.561
8.0372	0.373
8.07832	0.159
8.11944	0.31
8.16056	0.419
8.20167	0.315
8.24279	0.46
8.28391	0.599
8.32503	0.599
8.36614	0.465
8.40726	0.241
8.44838	0.241
8.4895	0.553
8.53062	0.701
8.57173	0.736
8.61285	0.701
8.65397	0.595
8.69509	0.38
8.7362	0.365
8.77732	0.57
8.81844	0.548
8.85956	0.356
8.90068	0.395
8.94179	0.578
8.98291	0.56
9.02403	0.448
9.06515	0.485
9.10627	0.616
9.14738	0.674
9.1885	0.719
9.22962	0.758
9.27074	0.758
9.31185	0.716
9.35297	0.699
9.39409	0.66
9.43521	0.522
9.47633	0.483
9.51744	0.597
9.55856	0.702
9.59968	0.748
9.6408	0.738
9.68191	0.679
9.72303	0.701
9.76415	0.741
9.80527	0.748
9.84639	0.74
9.8875	0.724
9.92862	0.672
9.96974	0.595
10.0109	0.57
10.052	0.597
10.0931	0.607
10.1342	0.589
10.1753	0.504
10.2164	0.348
10.2576	0.331
10.2987	0.302
10.3398	0.246
10.3809	0.283
10.422	0.475
10.4632	0.594
10.5043	0.674
10.5454	0.691
10.5865	0.674
10.6276	0.611
10.6687	0.528
10.7099	0.488
10.751	0.528
10.7921	0.59
10.8332	0.657
10.8743	0.701
10.9154	0.728
10.9566	0.745
10.9977	0.735
11.0388	0.667
11.0799	0.529
11.121	0.359
11.1622	0.222
11.2033	0.261
11.2444	0.558
11.2855	0.74
11.3266	0.782
11.3677	0.799
11.4089	0.801
11.45	0.779
11.4911	0.719
11.5322	0.658
11.5733	0.685
11.6145	0.764
11.6556	0.797
11.6967	0.806
11.7378	0.774
11.7789	0.701
11.82	0.704
11.8612	0.77
11.9023	0.76
11.9434	0.702
11.9845	0.65
12.0256	0.604
12.0667	0.606
12.1079	0.665
12.149	0.724
12.1901	0.765
12.2312	0.789
12.2723	0.799
12.3135	0.801
12.3546	0.796
12.3957	0.796
12.4368	0.791
12.4779	0.786
12.519	0.797
12.5602	0.813
12.6013	0.804
12.6424	0.777
12.6835	0.764
12.7246	0.775
12.7658	0.78
12.8069	0.777
12.848	0.806
12.8891	0.821
12.9302	0.826
12.9713	0.825
13.0125	0.821
13.0536	0.82
13.0947	0.811
13.1358	0.794
13.1769	0.774
13.218	0.767
13.2592	0.782
13.3003	0.797
13.3414	0.809
13.3825	0.813
13.4236	0.806
13.4648	0.803
13.5059	0.797
13.547	0.791
13.5881	0.784
13.6292	0.775
13.6703	0.769
13.7115	0.758
13.7526	0.745
13.7937	0.731
13.8348	0.714
13.8759	0.697
13.9171	0.679
13.9582	0.662
13.9993	0.64
14.0404	0.602
14.0815	0.555
14.1226	0.521
14.1638	0.517
14.2049	0.551
14.246	0.589
14.2871	0.611
14.3282	0.617
14.3693	0.614
14.4105	0.601
14.4516	0.59
14.4927	0.567
14.5338	0.544
14.5749	0.526
14.6161	0.514
14.6572	0.509
14.6983	0.519
14.7394	0.531
14.7805	0.544
14.8216	0.553
14.8628	0.558
14.9039	0.556
14.945	0.558
14.9861	0.563
15.0272	0.567
15.0683	0.56
15.1095	0.551
15.1506	0.543
15.1917	0.528
15.2328	0.516
15.2739	0.5
15.3151	0.495
15.3562	0.49
15.3973	0.494
15.4384	0.499
15.4795	0.5
15.5206	0.499
15.5618	0.494
15.6029	0.488
15.644	0.485
15.6851	0.482
15.7262	0.477
15.7674	0.473
15.8085	0.471
15.8496	0.468
