Infrared Spectrum: 2-Norbornanone, 3-methylene-
Formula: C8 H10 O
CAS: 5597-27-3
State: LIQUID (NEAT)
Boiling point: 70 C AT 10 mmHg
Class: COBLENTZ III
Instrument: DOW KBr FOREPRISM-GRATING
Instrument parameters: BLAZED AT 3.5, 12.0, 20.0 MICRON AND CHANGED AT 5.0, 7.5, 14.9 MICRON
Sampling: TRANSMISSION
Path length: CAPILLARY
Resolution: 2
Origin: DOW CHEMICAL COMPANY
1/CM	TRANSMITTANCE
461	0.7406
470	0.7439
479	0.7619
488	0.7604
497	0.7565
506	0.7568
515	0.7413
524	0.7527
533	0.7221
542	0.7568
551	0.777
560	0.7824
569	0.7874
578	0.7907
587	0.7905
596	0.7931
605	0.8004
614	0.8077
623	0.815
632	0.8162
641	0.8142
650	0.804
659	0.7464
668	0.8044
677	0.792
686	0.8053
695	0.8147
704	0.8205
713	0.8244
722	0.8277
731	0.8219
740	0.8114
749	0.7876
758	0.7827
767	0.7837
776	0.4849
785	0.7967
794	0.8009
803	0.7506
812	0.7988
821	0.8056
830	0.6839
839	0.8024
848	0.7958
857	0.7629
866	0.7892
875	0.7799
884	0.8041
893	0.7849
902	0.6844
911	0.7232
920	0.7003
929	0.5278
938	0.3593
947	0.5423
956	0.6623
965	0.7762
974	0.7962
983	0.7958
992	0.7934
1001	0.7791
1010	0.5953
1019	0.6939
1028	0.7672
1037	0.7583
1046	0.7449
1055	0.7285
1064	0.5075
1073	0.6198
1082	0.759
1091	0.7578
1100	0.6415
1109	0.6144
1118	0.7784
1127	0.768
1136	0.7181
1145	0.7718
1154	0.6752
1163	0.7272
1172	0.7401
1181	0.7235
1190	0.7755
1199	0.7802
1208	0.778
1217	0.7746
1226	0.7756
1235	0.7337
1244	0.6499
1253	0.4605
1262	0.6868
1271	0.6945
1280	0.7283
1289	0.7625
1298	0.6636
1307	0.6479
1316	0.7624
1325	0.8053
1334	0.8266
1343	0.8176
1352	0.7948
1361	0.7809
1370	0.7705
1379	0.7332
1388	0.6458
1397	0.6781
1406	0.6657
1415	0.6963
1424	0.7636
1433	0.7682
1442	0.7487
1451	0.6164
1460	0.7321
1469	0.7541
1478	0.7623
1487	0.7982
1496	0.8055
1505	0.8152
1514	0.8268
1523	0.8331
1532	0.8316
1541	0.8202
1550	0.8186
1559	0.8385
1568	0.8362
1577	0.8296
1586	0.8221
1595	0.8105
1604	0.7962
1613	0.7801
1622	0.7565
1631	0.7199
1640	0.646
1649	0.3638
1658	0.4419
1667	0.649
1676	0.7572
1685	0.7728
1694	0.743
1703	0.7049
1712	0.6554
1721	0.4963
1730	0.1769
1739	0.0628
1748	0.0976
1757	0.387
1766	0.6377
1775	0.7131
1784	0.7744
1793	0.7943
1802	0.8106
1811	0.8236
1820	0.8328
1829	0.8356
1838	0.8341
1847	0.8327
1856	0.8318
1865	0.8314
1874	0.8322
1883	0.8346
1892	0.8382
1901	0.8435
1910	0.8486
1919	0.8529
1928	0.8557
1937	0.8574
1946	0.8561
1955	0.8562
1964	0.8582
1973	0.8572
1982	0.8584
1991	0.8593
2000	0.9032
2009	0.9068
2018	0.9063
2027	0.9055
2036	0.9046
2045	0.9053
2054	0.9063
2063	0.9074
2072	0.9085
2081	0.9096
2090	0.9096
2099	0.9095
2108	0.9093
2117	0.9092
2126	0.9091
2135	0.9089
2144	0.9089
2153	0.9089
2162	0.9091
2171	0.9091
2180	0.9092
2189	0.9094
2198	0.9098
2207	0.91
2216	0.9104
2225	0.9103
2234	0.91
2243	0.9097
2252	0.9094
2261	0.9091
2270	0.9085
2279	0.9079
2288	0.9074
2297	0.9068
2306	0.9072
2315	0.9082
2324	0.9122
2333	0.9159
2342	0.9153
2351	0.9138
2360	0.912
2369	0.91
2378	0.9078
2387	0.9056
2396	0.9036
2405	0.9015
2414	0.8995
2423	0.8983
2432	0.8994
2441	0.9002
2450	0.8993
2459	0.8986
2468	0.8979
2477	0.8977
2486	0.8977
2495	0.8976
2504	0.8975
2513	0.897
2522	0.8965
2531	0.896
2540	0.8957
2549	0.8953
2558	0.8949
2567	0.8944
2576	0.8939
2585	0.8933
2594	0.8928
2603	0.8924
2612	0.8922
2621	0.8919
2630	0.8916
2639	0.8913
2648	0.8911
2657	0.8906
2666	0.8897
2675	0.8888
2684	0.8879
2693	0.887
2702	0.8861
2711	0.885
2720	0.8838
2729	0.8826
2738	0.8814
2747	0.8802
2756	0.8789
2765	0.8775
2774	0.8763
2783	0.875
2792	0.8738
2801	0.8724
2810	0.8694
2819	0.8665
2828	0.8625
2837	0.8551
2846	0.8442
2855	0.8204
2864	0.7711
2873	0.628
2882	0.4497
2891	0.6002
2900	0.7001
2909	0.6578
2918	0.5966
2927	0.564
2936	0.5291
2945	0.4397
2954	0.2904
2963	0.2897
2972	0.2972
2981	0.3526
2990	0.4421
2999	0.5302
3008	0.6329
3017	0.741
3026	0.7916
3035	0.8119
3044	0.8251
3053	0.8343
3062	0.8384
3071	0.8377
3080	0.832
3089	0.8299
3098	0.8445
3107	0.8498
3116	0.8534
3125	0.8558
3134	0.8571
3143	0.8583
3152	0.8587
3161	0.858
3170	0.8568
3179	0.8548
3188	0.853
3197	0.8528
3206	0.8527
3215	0.8529
3224	0.8531
3233	0.8529
3242	0.8528
3251	0.8529
3260	0.8531
3269	0.8528
3278	0.8525
3287	0.852
3296	0.8517
3305	0.8512
3314	0.8508
3323	0.8504
3332	0.8495
3341	0.8486
3350	0.8476
3359	0.8459
3368	0.8441
3377	0.8406
3386	0.8381
3395	0.8404
3404	0.8422
3413	0.8421
3422	0.8393
3431	0.8343
3440	0.8279
3449	0.8152
3458	0.8063
3467	0.8118
3476	0.8196
3485	0.8272
3494	0.8317
3503	0.8348
3512	0.8369
3521	0.8387
3530	0.8404
3539	0.842
3548	0.8429
3557	0.8439
3566	0.8457
3575	0.8474
3584	0.8491
3593	0.851
3602	0.8529
3611	0.8548
3620	0.8568
3629	0.8584
3638	0.8599
3647	0.8614
3656	0.863
3665	0.8642
3674	0.8654
3683	0.8666
3692	0.8677
3701	0.8684
3710	0.8692
3719	0.8699
3728	0.8704
3737	0.8704
3746	0.8704
3755	0.8704
3764	0.8701
3773	0.8698
3782	0.8695
3791	0.8694
3800	0.8693
3809	0.8687
