Infrared Spectrum: Chlorpyrifos
Formula: C 9 H 11 Cl 3 N O 4 P
CAS: 5598-15-2
State: gas
Instrument: HP-GC/MS/IRD
Origin: NIST Mass Spectrometry Data Center
1/CM	ABSORBANCE
550	0.0098888
562	0.0058649
574	0.0071799
586	0.0188045
598	0.0070221
610	0.0017095
622	0.000263
634	0.0006838
646	0.0045762
658	0.0063909
670	0.0124662
682	0.0095469
694	0.0070747
706	0.0086264
718	0.0095995
730	0.0102833
742	0.0156222
754	0.0240119
766	0.0229336
778	0.0178051
790	0.0159115
802	0.0202773
814	0.022881
826	0.0242223
838	0.0368463
850	0.0990195
862	0.169556
874	0.0664864
886	0.0260107
898	0.0249061
910	0.0160693
922	0.0182785
934	0.0336377
946	0.0712993
958	0.101281
970	0.153881
982	0.108698
994	0.0540465
1006	0.0485235
1018	0.0791104
1030	0.171134
1042	0.263
1054	0.209269
1066	0.198723
1078	0.154039
1090	0.109013
1102	0.0615683
1114	0.0369515
1126	0.0267997
1138	0.0254847
1150	0.0331643
1162	0.0633041
1174	0.0279569
1186	0.0174632
1198	0.0143072
1210	0.0184889
1222	0.0332958
1234	0.0219342
1246	0.0135708
1258	0.0201721
1270	0.0451834
1282	0.0655659
1294	0.0676962
1306	0.0907876
1318	0.0797153
1330	0.0663023
1342	0.052074
1354	0.0280621
1366	0.0296927
1378	0.0453675
1390	0.0865796
1402	0.163823
1414	0.226916
1426	0.161009
1438	0.0737715
1450	0.0338744
1462	0.0189886
1474	0.0131237
1486	0.0101255
1498	0.0082582
1510	0.0094154
1522	0.0177788
1534	0.04471
1546	0.0436317
1558	0.0164901
1570	0.0133604
1582	0.0062331
1594	0.0032875
1606	0.0024196
1618	0.0019199
1630	0.0015254
1642	0.001315
1654	0.0008942
1666	0.0009468
1678	0.0009994
1690	0.0009205
1702	0.0008679
1714	0.001052
1726	0.0012361
1738	0.0010257
1750	0.0009994
1762	0.0010783
1774	0.0012887
1786	0.0020514
1798	0.0024196
1810	0.0017621
1822	0.0017095
1834	0.0018673
1846	0.0016043
1858	0.0014202
1870	0.0013413
1882	0.0011572
1894	0.0008153
1906	0.000526
1918	0.0002893
1930	0.0001578
1942	7.89e-05
1954	2.63e-05
1966	0
1978	2.63e-05
1990	2.63e-05
2002	2.63e-05
2014	0.0001841
2026	0.0002104
2038	0.0001315
2050	2.63e-05
2062	0.0001052
2074	0.0002893
2086	0.0004734
2098	0.0004208
2110	0.0001841
2122	2.63e-05
2134	2.63e-05
2146	5.26e-05
2158	0.0001052
2170	0.0001315
2182	0.0001841
2194	0.0001052
2206	0.0001578
2218	0.0001841
2230	0.0002893
2242	0.0003682
2254	0.0002893
2266	0.0002104
2278	0.0001578
2290	0.0001841
2302	0.0002367
2314	0.0002367
2326	0.0002367
2338	0.0002104
2350	0.0002893
2362	0.0003419
2374	0.0004997
2386	0.0004997
2398	0.0003945
2410	0.0001841
2422	0.0001578
2434	0.0002367
2446	0.0003156
2458	0.0003419
2470	0.0004208
2482	0.0004734
2494	0.0007364
2506	0.000789
2518	0.0006049
2530	0.0006049
2542	0.0007364
2554	0.0007101
2566	0.0004471
2578	0.0002367
2590	0.0001315
2602	0.0002104
2614	0.0003156
2626	0.0002893
2638	0.0002367
2650	0.0001841
2662	0.0002367
2674	0.0003156
2686	0.0003156
2698	0.000263
2710	0.0002893
2722	0.0004734
2734	0.0010257
2746	0.0012887
2758	0.0016306
2770	0.0015517
2782	0.0013676
2794	0.0011309
2806	0.0010257
2818	0.0011309
2830	0.0013676
2842	0.001578
2854	0.0020777
2866	0.0032612
2878	0.005786
2890	0.0067854
2902	0.0079426
2914	0.0114668
2926	0.013939
2938	0.0218027
2950	0.0203825
2962	0.0151488
2974	0.0209611
2986	0.0351631
2998	0.0306658
3010	0.0192516
3022	0.0112038
3034	0.0062857
3046	0.0036294
3058	0.0022618
3070	0.0016569
3082	0.0015254
3094	0.0010257
3106	0.0008679
3118	0.0007364
3130	0.0006575
3142	0.0005786
3154	0.0005523
3166	0.0004734
3178	0.0004471
3190	0.0003419
3202	0.0004471
3214	0.0003682
3226	0.0003419
3238	0.0002893
3250	0.0002104
3262	0.0002104
3274	0.0002104
3286	0.0001052
3298	0.0001578
3310	0.0001052
3322	0.0001315
3334	7.89e-05
3346	0.0001315
3358	0.0001841
3370	0.0001052
3382	0.0001578
3394	0.0001315
3406	0.0001578
3418	0.0001315
3430	0.0002104
3442	7.89e-05
3454	0.0001578
3466	0.0001578
3478	0.0001578
3490	0.0001578
3502	0.0001578
3514	0.0001052
3526	0.0001052
3538	0.0001578
3550	0.0001841
3562	0.0001578
3574	0.0001841
3586	0.0003156
3598	0.0003419
3610	0.0001841
3622	0.0002367
3634	0.0001841
3646	0.0002367
3658	0.0002104
3670	0.0001841
3682	0.0002893
3694	0.0002367
3706	0.0002104
3718	0.000263
3730	0.0002893
3742	0.0002893
3754	0.0002367
3766	0.0003156
3778	0.0003682
3790	0.0003156
3802	0.0003156
3814	0.0003156
3826	0.000263
3838	0.0002893
