Infrared Spectrum: 3-Ethylcarbazole
Formula: C 14 H 13 N
CAS: 5599-49-5
State: gas
Instrument: HP-GC/MS/IRD
Origin: NIST Mass Spectrometry Data Center
1/CM	ABSORBANCE
550	0.000555
562	0.0008925
574	0.0004995
586	0.000363
598	0.0007905
610	0.001515
622	0.0019275
634	0.002139
646	0.0009315
658	0.001026
670	0.001497
682	0.0017595
694	0.0018495
706	0.0018975
718	0.003702
730	0.006537
742	0.0065205
754	0.003168
766	0.0018525
778	0.0014205
790	0.002604
802	0.0043485
814	0.0025665
826	0.0007755
838	0.000582
850	0.0004755
862	0.0005205
874	0.001104
886	0.0010425
898	0.0008085
910	0.000411
922	0.000339
934	0.000165
946	4.8e-05
958	0.000111
970	0.0001695
982	0.000171
994	0.0002715
1006	0.000744
1018	0.0007995
1030	0.0004605
1042	0.0004185
1054	0.00069
1066	0.0004185
1078	7.05e-05
1090	1.2e-05
1102	0.0003075
1114	0.000576
1126	0.000612
1138	0.0010095
1150	0.0007365
1162	0.000519
1174	0.0005775
1186	0.0005715
1198	0.0006735
1210	0.001641
1222	0.0053325
1234	0.015
1246	0.0059595
1258	0.001485
1270	0.001284
1282	0.0017025
1294	0.002337
1306	0.002931
1318	0.0058575
1330	0.005235
1342	0.002952
1354	0.001563
1366	0.001413
1378	0.0027825
1390	0.0022725
1402	0.0008985
1414	0.00078
1426	0.000903
1438	0.0021255
1450	0.0040095
1462	0.005277
1474	0.0054465
1486	0.0085785
1498	0.00855
1510	0.0022545
1522	0.0012105
1534	0.0007365
1546	0.00066
1558	0.0009615
1570	0.0009285
1582	0.001047
1594	0.001212
1606	0.002901
1618	0.0020985
1630	0.0007035
1642	0.000543
1654	0.000789
1666	0.0004365
1678	0.000483
1690	0.0003675
1702	0.0004965
1714	0.0004725
1726	0.000363
1738	0.0004845
1750	0.0006885
1762	0.0005925
1774	0.0003015
1786	0.0002775
1798	0.0003765
1810	0.000183
1822	0.000174
1834	0.0002535
1846	0.000711
1858	0.000543
1870	0.000441
1882	0.0003975
1894	0.0001575
1906	0.000255
1918	0.0004965
1930	0.0001155
1942	9e-05
1954	3.9e-05
1966	2.7e-05
1978	1.95e-05
1990	6.6e-05
2002	2.25e-05
2014	3.9e-05
2026	4.5e-05
2038	3e-05
2050	5.25e-05
2062	2.4e-05
2074	2.55e-05
2086	3.45e-05
2098	0
2110	6.15e-05
2122	9.45e-05
2134	6.75e-05
2146	6.3e-05
2158	1.95e-05
2170	3.45e-05
2182	1.8e-05
2194	3.9e-05
2206	2.85e-05
2218	5.1e-05
2230	4.8e-05
2242	3.75e-05
2254	5.4e-05
2266	9e-05
2278	0.0001035
2290	9.75e-05
2302	8.1e-05
2314	0.000135
2326	0.0002055
2338	0.000204
2350	0.0001635
2362	0.000225
2374	0.000126
2386	9.6e-05
2398	9.75e-05
2410	7.5e-05
2422	0.000129
2434	0.0001305
2446	0.000135
2458	0.0001455
2470	0.0001905
2482	0.0001515
2494	0.0001965
2506	0.0001845
2518	0.0001155
2530	0.000168
2542	0.000129
2554	0.0001335
2566	0.0001185
2578	0.0001755
2590	0.0002385
2602	0.000261
2614	0.0001845
2626	0.000177
2638	0.000237
2650	0.000243
2662	0.000222
2674	0.0001935
2686	0.0001635
2698	0.0002025
2710	0.0002175
2722	0.000162
2734	0.000189
2746	0.000201
2758	0.000243
2770	0.000303
2782	0.0003315
2794	0.0003015
2806	0.0003465
2818	0.000477
2830	0.000609
2842	0.0007545
2854	0.0011535
2866	0.0020625
2878	0.002754
2890	0.0027075
2902	0.0024645
2914	0.002535
2926	0.0032295
2938	0.0047565
2950	0.0042075
2962	0.005067
2974	0.0076905
2986	0.0027795
2998	0.001689
3010	0.0019035
3022	0.003306
3034	0.0038445
3046	0.0036435
3058	0.0043185
3070	0.005523
3082	0.0030195
3094	0.001656
3106	0.0009015
3118	0.000528
3130	0.0004065
3142	0.000342
3154	0.000369
3166	0.000291
3178	0.000258
3190	0.000231
3202	0.000222
3214	0.0002265
3226	0.0002175
3238	0.000207
3250	0.000132
3262	0.0001275
3274	8.85e-05
3286	0.0001215
3298	0.0001155
3310	7.8e-05
3322	6e-06
3334	5.55e-05
3346	0.0001095
3358	8.55e-05
3370	3.45e-05
3382	3.45e-05
3394	0.000114
3406	0.0001005
3418	0.000168
3430	0.0002085
3442	0.000357
3454	0.0004155
3466	0.00075
3478	0.001398
3490	0.0028425
3502	0.0040005
3514	0.0023805
3526	0.000903
3538	0.0003375
3550	0.0002715
3562	0.000219
3574	0.0001035
3586	0.000276
3598	0.0001425
3610	0.000306
3622	0.000168
3634	0.000144
3646	0.0002415
3658	0.000132
3670	0.0003015
3682	8.1e-05
3694	0.00015
3706	7.2e-05
3718	0.000177
3730	0.0002895
3742	0.00042
3754	0.000309
3766	9.9e-05
3778	0.0001215
3790	5.1e-05
3802	0.0001815
3814	0.000171
3826	0.0001365
3838	0.0003
