Infrared Spectrum: 6-METHYL-2-THIOURACIL
Formula: C5 H6 N2 O S
CAS: 56-04-2
State: SOLID (MINERAL OIL MULL)
Melting point: 330 C DECOMPOSES
Class: COBLENTZ
Instrument: Not specified, most likely a prism, grating, or hybrid spectrometer.
Sampling: TRANSMISSION
Resolution: 4
Origin: WYANDOTTE CHEMICALS CORP., WYANDOTTE, MICHIGAN, USA
MICROMETERS	TRANSMITTANCE
2.032	0.328
2.07179	0.355
2.11158	0.365
2.15137	0.381
2.19115	0.393
2.23094	0.403
2.27073	0.415
2.31052	0.425
2.35031	0.438
2.3901	0.458
2.42989	0.485
2.46967	0.505
2.50946	0.513
2.54925	0.515
2.58904	0.531
2.62883	0.543
2.66862	0.581
2.70841	0.608
2.7482	0.626
2.78798	0.651
2.82777	0.67
2.86756	0.695
2.90735	0.713
2.94714	0.733
2.98693	0.771
3.02672	0.811
3.0665	0.86
3.10629	0.691
3.14608	0.508
3.18587	0.3
3.22566	0.156
3.26545	0.131
3.30524	0.148
3.34502	0.11
3.38481	0.036
3.4246	0.035
3.46439	0.04
3.50418	0.045
3.54397	0.116
3.58376	0.133
3.62354	0.166
3.66333	0.211
3.70312	0.228
3.74291	0.256
3.7827	0.283
3.82249	0.305
3.86228	0.311
3.90207	0.303
3.94185	0.323
3.98164	0.356
4.02143	0.363
4.06122	0.396
4.10101	0.4
4.1408	0.435
4.18059	0.448
4.22037	0.44
4.26016	0.448
4.29995	0.443
4.33974	0.465
4.37953	0.495
4.41932	0.546
4.45911	0.551
4.49889	0.56
4.53868	0.57
4.57847	0.586
4.61826	0.59
4.65805	0.596
4.69784	0.618
4.73763	0.623
4.77741	0.638
4.8172	0.671
4.85699	0.686
4.89678	0.7
4.93657	0.721
4.97636	0.733
5.01615	0.748
5.05594	0.755
5.09572	0.765
5.13551	0.785
5.1753	0.806
5.21509	0.828
5.25488	0.803
5.29467	0.801
5.33446	0.821
5.37424	0.863
5.41403	0.86
5.45382	0.905
5.49361	0.938
5.5334	0.971
5.57319	0.96
5.61298	0.903
5.65276	0.846
5.69255	0.801
5.73234	0.553
5.77213	0.665
5.81192	0.431
5.85171	0.238
5.8915	0.186
5.93128	0.168
5.97107	0.073
6.01086	0.07
6.05065	0.053
6.09044	0.045
6.13023	0.041
6.17002	0.05
6.20981	0.048
6.24959	0.055
6.28938	0.048
6.32917	0.051
6.36896	0.043
6.40875	0.051
6.44854	0.065
6.48833	0.106
6.52811	0.116
6.5679	0.133
6.60769	0.16
6.64748	0.22
6.68727	0.248
6.72706	0.268
6.76685	0.235
6.80663	0.163
6.84642	0.176
6.88621	0.178
6.926	0.156
6.96579	0.108
7.00558	0.065
7.04537	0.071
7.08515	0.106
7.12494	0.2
7.16473	0.25
7.20452	0.17
7.24431	0.123
7.2841	0.293
7.32389	0.38
7.36368	0.313
7.40346	0.083
7.44325	0.095
7.48304	0.186
7.52283	0.258
7.56262	0.31
7.60241	0.36
7.6422	0.4
7.68198	0.43
7.72177	0.461
7.76156	0.481
7.80135	0.508
7.84114	0.535
7.88093	0.573
7.92072	0.6
7.9605	0.613
8.00029	0.566
8.04008	0.25
8.07987	0.373
8.11966	0.595
8.15945	0.691
8.19924	0.755
8.23902	0.606
8.27881	0.401
8.3186	0.106
8.35839	0.046
8.39818	0.135
8.43797	0.363
8.47776	0.431
8.51755	0.13
8.55733	0.04
8.59712	0.04
8.63691	0.061
8.6767	0.093
8.71649	0.155
8.75628	0.211
8.79607	0.25
8.83585	0.28
8.87564	0.31
8.91543	0.338
8.95522	0.355
8.99501	0.365
9.0348	0.378
9.07459	0.395
9.11437	0.406
9.15416	0.418
9.19395	0.423
9.23374	0.441
9.27353	0.445
9.31332	0.45
9.35311	0.46
9.39289	0.468
9.43268	0.481
9.47247	0.483
9.51226	0.456
9.55205	0.368
9.59184	0.301
9.63163	0.32
9.67142	0.308
9.7112	0.343
9.75099	0.411
9.79078	0.46
9.83057	0.491
9.87036	0.506
9.91015	0.518
9.94994	0.521
9.98972	0.525
10.0295	0.515
10.0693	0.501
10.1091	0.51
10.1489	0.52
10.1887	0.54
10.2285	0.548
10.2682	0.541
10.308	0.535
10.3478	0.508
10.3876	0.441
10.4274	0.373
10.4672	0.438
10.507	0.483
10.5468	0.52
10.5866	0.538
10.6263	0.543
10.6661	0.54
10.7059	0.511
10.7457	0.321
10.7855	0.355
10.8253	0.436
10.8651	0.47
10.9049	0.486
10.9447	0.488
10.9844	0.49
11.0242	0.485
11.064	0.48
11.1038	0.481
11.1436	0.463
11.1834	0.445
11.2232	0.428
11.263	0.4
11.3027	0.361
11.3425	0.323
11.3823	0.26
11.4221	0.208
11.4619	0.175
11.5017	0.175
11.5415	0.223
11.5813	0.301
11.6211	0.385
11.6608	0.431
11.7006	0.455
11.7404	0.448
11.7802	0.403
11.82	0.34
11.8598	0.245
11.8996	0.151
11.9394	0.078
11.9792	0.058
12.0189	0.058
12.0587	0.098
12.0985	0.213
12.1383	0.33
12.1781	0.42
12.2179	0.453
12.2577	0.43
12.2975	0.336
12.3373	0.256
12.377	0.206
12.4168	0.185
12.4566	0.198
12.4964	0.24
12.5362	0.291
12.576	0.358
12.6158	0.413
12.6556	0.473
12.6954	0.535
12.7351	0.578
12.7749	0.606
12.8147	0.636
12.8545	0.655
12.8943	0.671
12.9341	0.69
12.9739	0.703
13.0137	0.716
13.0534	0.726
13.0932	0.736
13.133	0.746
13.1728	0.751
13.2126	0.758
13.2524	0.763
13.2922	0.768
13.332	0.77
13.3718	0.773
13.4115	0.776
13.4513	0.778
13.4911	0.778
13.5309	0.778
13.5707	0.778
13.6105	0.773
13.6503	0.773
13.6901	0.776
13.7299	0.76
13.7696	0.76
13.8094	0.771
13.8492	0.783
13.889	0.791
13.9288	0.796
13.9686	0.815
14.0084	0.826
14.0482	0.845
14.088	0.853
14.1277	0.861
14.1675	0.866
14.2073	0.866
14.2471	0.873
14.2869	0.88
14.3267	0.885
14.3665	0.886
14.4063	0.89
14.446	0.89
14.4858	0.888
14.5256	0.886
14.5654	0.881
14.6052	0.878
14.645	0.875
14.6848	0.873
14.7246	0.871
14.7644	0.868
14.8041	0.861
14.8439	0.86
14.8837	0.856
14.9235	0.856
14.9633	0.846
15.0031	0.825
15.0429	0.773
15.0827	0.728
15.1225	0.763
15.1622	0.806
15.202	0.808
15.2418	0.796
15.2816	0.766
15.3214	0.721
15.3612	0.686
15.401	0.678
15.4408	0.703
15.4806	0.716
15.5203	0.708
15.5601	0.703
15.5999	0.703
15.6397	0.7
15.6795	0.686
15.7193	0.67
15.7591	0.656
15.7989	0.638
15.8387	0.626
15.8784	0.606
15.9182	0.585
15.958	0.576
15.9978	0.566
