Infrared Spectrum: gamma-Aminobutyric acid
Formula: C 4 H 9 N O 2
CAS: 56-12-2
State: solid
Instrument: Bruker Tensor 37 FTIR
Resolution: 0.96450084
Origin: Pacific Northwest National Laboratory Under IARPA Contract
1/cm	Reflectance
7498.99	0.683868
7481.63	0.69158
7464.27	0.685447
7446.91	0.670141
7429.55	0.657916
7412.19	0.628755
7394.84	0.630829
7377.48	0.627925
7360.12	0.61378
7342.76	0.620756
7325.4	0.605075
7308.04	0.607054
7290.68	0.618213
7273.32	0.620341
7255.96	0.622757
7238.6	0.634241
7221.24	0.640527
7203.88	0.63966
7186.52	0.644182
7169.16	0.646977
7151.8	0.649495
7134.44	0.650576
7117.08	0.652459
7099.72	0.653174
7082.36	0.652212
7065	0.655051
7047.64	0.655035
7030.28	0.649023
7012.92	0.65028
6995.56	0.652568
6978.2	0.649691
6960.84	0.644874
6943.48	0.638229
6926.12	0.631858
6908.76	0.62325
6891.4	0.615465
6874.04	0.597033
6856.68	0.584687
6839.32	0.565509
6821.96	0.547017
6804.6	0.526454
6787.24	0.498037
6769.88	0.476649
6752.52	0.45174
6735.16	0.420617
6717.8	0.372807
6700.44	0.353012
6683.08	0.351111
6665.72	0.320596
6648.36	0.323745
6631	0.300687
6613.64	0.307432
6596.28	0.302894
6578.92	0.306722
6561.56	0.311711
6544.2	0.314598
6526.85	0.31939
6509.49	0.326378
6492.13	0.328111
6474.77	0.328111
6457.41	0.327678
6440.05	0.325493
6422.69	0.324573
6405.33	0.31992
6387.97	0.317166
6370.61	0.312882
6353.25	0.309376
6335.89	0.306857
6318.53	0.303956
6301.17	0.299853
6283.81	0.299982
6266.45	0.299397
6249.09	0.295838
6231.73	0.290534
6214.37	0.284569
6197.01	0.27747
6179.65	0.269978
6162.29	0.259063
6144.93	0.246262
6127.57	0.229572
6110.21	0.208257
6092.85	0.18697
6075.49	0.172834
6058.13	0.165946
6040.77	0.161463
6023.41	0.157526
6006.05	0.15742
5988.69	0.160043
5971.33	0.136324
5953.97	0.116133
5936.61	0.119613
5919.25	0.0956193
5901.89	0.126097
5884.53	0.121626
5867.17	0.127922
5849.81	0.131415
5832.45	0.160041
5815.09	0.173299
5797.73	0.175139
5780.37	0.169524
5763.01	0.181367
5745.65	0.177761
5728.29	0.180406
5710.93	0.172671
5693.57	0.202464
5676.21	0.194597
5658.86	0.19298
5641.5	0.186289
5624.14	0.203273
5606.78	0.201659
5589.42	0.202334
5572.06	0.202787
5554.7	0.192296
5537.34	0.181688
5519.98	0.175451
5502.62	0.150622
5485.26	0.154652
5467.9	0.150077
5450.54	0.133612
5433.18	0.11374
5415.82	0.0791247
5398.46	0.0477443
5381.1	0.0395873
5363.74	0.0319801
5346.38	0.027004
5329.02	0.0240549
5311.66	0.0228494
5294.3	0.0217082
5276.94	0.0228854
5259.58	0.0249351
5242.22	0.0248835
5224.86	0.0276702
5207.5	0.0258851
5190.14	0.0269119
5172.78	0.027547
5155.42	0.0273482
5138.06	0.0278183
5120.7	0.0274176
5103.34	0.0282366
5085.98	0.0291066
5068.62	0.0280376
5051.26	0.0302832
5033.9	0.0314167
5016.54	0.0315185
4999.18	0.0319932
4981.82	0.0318941
4964.46	0.0317092
4947.1	0.0314429
4929.74	0.031713
4912.38	0.0324023
4895.02	0.0326576
4877.66	0.0303927
4860.3	0.0281033
4842.94	0.0292159
4825.58	0.0318104
4808.22	0.036978
4790.86	0.0453367
4773.51	0.0470613
4756.15	0.0539334
4738.79	0.0491539
4721.43	0.0471201
4704.07	0.0400049
4686.71	0.0484115
4669.35	0.0532641
4651.99	0.0509975
4634.63	0.0459193
4617.27	0.0337507
4599.91	0.0253412
4582.55	0.0212517
4565.19	0.0262353
4547.83	0.0383926
4530.47	0.036987
4513.11	0.0266425
4495.75	0.0335033
4478.39	0.0287967
4461.03	0.0289262
4443.67	0.0343181
4426.31	0.0373658
4408.95	0.0337308
4391.59	0.0341786
4374.23	0.0488905
4356.87	0.0541889
4339.51	0.0413724
4322.15	0.045223
4304.79	0.042506
4287.43	0.0483048
4270.07	0.0648881
4252.71	0.0297944
4235.35	0.0823541
4217.99	0.111526
4200.63	0.112782
4183.27	0.0319791
4165.91	0.0957482
4148.55	0.0326636
4131.19	0.0908659
4113.83	0.112811
4096.47	0.0941245
4079.11	0.0271644
4061.75	0.0349394
4044.39	0.689364
4027.03	0.692012
4009.67	0.686731
3992.31	0.66822
3974.95	0.657529
3957.59	0.637588
3940.23	0.636927
3922.87	0.626736
3905.52	0.628651
3888.16	0.622726
3870.8	0.609253
3853.44	0.620658
3836.08	0.625263
3818.72	0.631913
3801.36	0.636311
3784	0.645842
3766.64	0.645313
3749.28	0.651337
3731.92	0.65302
3714.56	0.655225
3697.2	0.658137
3679.84	0.659776
3662.48	0.658531
3645.12	0.660524
3627.76	0.661951
3610.4	0.66492
3593.04	0.66417
3575.68	0.66062
3558.32	0.656876
3540.96	0.657656
3523.6	0.655109
3506.24	0.650205
3488.88	0.646577
3471.52	0.638244
3454.16	0.630706
3436.8	0.618949
3419.44	0.605664
3402.08	0.593005
3384.72	0.573169
3367.36	0.552602
3350	0.52974
3332.64	0.505104
3315.28	0.482656
3297.92	0.456472
3280.56	0.422
3263.2	0.36338
3245.84	0.341667
3228.48	0.35782
3211.12	0.33888
3193.76	0.332307
3176.4	0.311475
3159.04	0.322977
3141.68	0.312639
3124.32	0.320525
3106.96	0.323957
3089.6	0.328222
3072.24	0.333965
3054.88	0.339569
3037.53	0.342098
3020.17	0.341442
3002.81	0.338664
2985.45	0.337709
2968.09	0.336134
2950.73	0.331806
2933.37	0.328954
2916.01	0.323651
2898.65	0.322219
2881.29	0.317757
2863.93	0.314166
2846.57	0.312515
2829.21	0.312308
2811.85	0.310956
2794.49	0.306417
2777.13	0.30058
2759.77	0.294408
2742.41	0.287833
2725.05	0.279068
2707.69	0.266562
2690.33	0.252469
2672.97	0.234111
2655.61	0.211341
2638.25	0.190473
2620.89	0.177986
2603.53	0.171884
2586.17	0.168875
2568.81	0.165999
2551.45	0.164832
2534.09	0.166956
2516.73	0.140333
2499.37	0.131258
2482.01	0.132501
2464.65	0.106528
2447.29	0.127389
2429.93	0.136109
2412.57	0.135434
2395.21	0.152913
2377.85	0.172128
2360.49	0.178963
2343.13	0.184085
2325.77	0.187481
2308.41	0.199969
2291.05	0.186473
2273.69	0.190733
2256.33	0.189963
2238.97	0.21191
2221.61	0.2022
2204.25	0.198725
2186.89	0.185813
2169.53	0.205774
2152.18	0.20952
2134.82	0.210569
2117.46	0.206681
2100.1	0.194537
2082.74	0.184488
2065.38	0.177677
2048.02	0.154546
2030.66	0.159632
2013.3	0.150659
1995.94	0.132002
1978.58	0.108451
1961.22	0.0682385
1943.86	0.0472309
1926.5	0.0381964
1909.14	0.0310926
1891.78	0.0258828
1874.42	0.0237668
1857.06	0.0227533
1839.7	0.0220546
1822.34	0.0231167
1804.98	0.0255753
1787.62	0.0245364
1770.26	0.0267216
1752.9	0.0267259
1735.54	0.0273667
1718.18	0.0278721
1700.82	0.0272119
1683.46	0.0280307
1666.1	0.0282942
1648.74	0.0287347
1631.38	0.0291141
1614.02	0.029094
1596.66	0.0311079
1579.3	0.0321123
1561.94	0.0321239
1544.58	0.0328252
1527.22	0.0322678
1509.86	0.0320209
1492.5	0.0320833
1475.14	0.0325563
1457.78	0.0330381
1440.42	0.0325374
1423.06	0.0296402
1405.7	0.0271898
1388.34	0.0311144
1370.98	0.0335269
1353.62	0.0410873
1336.26	0.0460367
1318.9	0.0486759
1301.54	0.0530133
1284.19	0.0505309
1266.83	0.0453573
1249.47	0.0392951
1232.11	0.0522583
1214.75	0.0561492
1197.39	0.0519625
1180.03	0.0431795
1162.67	0.0301415
1145.31	0.0228365
1127.95	0.0183838
1110.59	0.0421885
1093.23	0.0515293
1075.87	0.0321524
1058.51	0.0283503
1041.15	0.0303922
1023.79	0.0276848
1006.43	0.0563653
989.068	0.0369788
971.709	0.0320519
954.349	0.0355655
936.989	0.043068
919.629	0.0522219
902.269	0.0535998
884.91	0.031773
867.55	0.0291814
850.19	0.0455879
832.83	0.0349417
815.47	0.0383021
798.111	0.028457
780.751	0.0968644
763.391	0.112738
746.031	0.0602267
728.671	0.0713271
711.312	0.0874237
693.952	0.0379653
676.592	0.104977
659.232	0.11058
641.872	0.0748154
624.513	0.0253262
607.153	0.0380135
