Infrared Spectrum: TRIBUTYL TIN ACETATE
Formula: C14 H30 O2 Sn
CAS: 56-36-0
State: SOLID (MINERAL OIL MULL)
Class: COBLENTZ
Instrument: Not specified, most likely a prism, grating, or hybrid spectrometer.
Sampling: TRANSMISSION
Resolution: 4
Origin: WYANDOTTE CHEMICALS CORP., WYANDOTTE, MICHIGAN, USA
MICROMETERS	TRANSMITTANCE
2.019	0.816
2.05617	0.816
2.09334	0.819
2.1305	0.822
2.16767	0.825
2.20484	0.814
2.24201	0.805
2.27918	0.803
2.31634	0.808
2.35351	0.813
2.39068	0.817
2.42785	0.83
2.46502	0.842
2.50219	0.85
2.53935	0.856
2.57652	0.866
2.61369	0.872
2.65086	0.881
2.68803	0.892
2.72519	0.895
2.76236	0.9
2.79953	0.895
2.8367	0.894
2.87387	0.892
2.91103	0.88
2.9482	0.869
2.98537	0.866
3.02254	0.862
3.05971	0.859
3.09687	0.853
3.13404	0.819
3.17121	0.802
3.20838	0.786
3.24555	0.753
3.28272	0.686
3.31988	0.445
3.35705	0.08
3.39422	0.031
3.43139	0.032
3.46856	0.04
3.50572	0.048
3.54289	0.4
3.58006	0.661
3.61723	0.755
3.6544	0.769
3.69156	0.777
3.72873	0.803
3.7659	0.82
3.80307	0.833
3.84024	0.842
3.8774	0.858
3.91457	0.873
3.95174	0.898
3.98891	0.904
4.02608	0.904
4.06325	0.909
4.10041	0.915
4.13758	0.917
4.17475	0.917
4.21192	0.919
4.24909	0.922
4.28625	0.926
4.32342	0.933
4.36059	0.939
4.39776	0.942
4.43493	0.943
4.47209	0.948
4.50926	0.953
4.54643	0.959
4.5836	0.962
4.62077	0.964
4.65794	0.965
4.6951	0.964
4.73227	0.968
4.76944	0.97
4.80661	0.971
4.84378	0.971
4.88094	0.973
4.91811	0.973
4.95528	0.973
4.99245	0.975
5.02962	0.973
5.06678	0.973
5.10395	0.978
5.14112	0.978
5.17829	0.973
5.21546	0.973
5.25262	0.971
5.28979	0.973
5.32696	0.976
5.36413	0.973
5.4013	0.971
5.43847	0.973
5.47563	0.976
5.5128	0.976
5.54997	0.976
5.58714	0.976
5.62431	0.971
5.66147	0.961
5.69864	0.95
5.73581	0.942
5.77298	0.939
5.81015	0.936
5.84731	0.929
5.88448	0.897
5.92165	0.88
5.95882	0.831
5.99599	0.772
6.03315	0.75
6.07032	0.757
6.10749	0.705
6.14466	0.57
6.18183	0.437
6.219	0.239
6.25616	0.063
6.29333	0.04
6.3305	0.054
6.36767	0.06
6.40484	0.09
6.442	0.147
6.47917	0.236
6.51634	0.319
6.55351	0.428
6.59068	0.478
6.62784	0.532
6.66501	0.538
6.70218	0.498
6.73935	0.398
6.77652	0.121
6.81368	0.084
6.85085	0.102
6.88802	0.116
6.92519	0.123
6.96236	0.11
6.99953	0.09
7.03669	0.085
7.07386	0.096
7.11103	0.129
7.1482	0.191
7.18537	0.213
7.22253	0.176
7.2597	0.191
7.29687	0.347
7.33404	0.464
7.37121	0.496
7.40837	0.383
7.44554	0.302
7.48271	0.451
7.51988	0.562
7.55705	0.61
7.59421	0.619
7.63138	0.566
7.66855	0.568
7.70572	0.58
7.74289	0.56
7.78006	0.624
7.81722	0.66
7.85439	0.663
7.89156	0.7
7.92873	0.733
7.9659	0.741
8.00306	0.763
8.04023	0.777
8.0774	0.791
8.11457	0.789
8.15174	0.789
8.1889	0.789
8.22607	0.791
8.26324	0.791
8.30041	0.777
8.33758	0.718
8.37474	0.741
8.41191	0.752
8.44908	0.732
8.48625	0.767
8.52342	0.78
8.56059	0.766
8.59775	0.707
8.63492	0.694
8.67209	0.738
8.70926	0.791
8.74643	0.847
8.78359	0.859
8.82076	0.864
8.85793	0.852
8.8951	0.839
8.93227	0.82
8.96943	0.802
9.0066	0.788
9.04377	0.774
9.08094	0.757
9.11811	0.733
9.15528	0.682
9.19244	0.593
9.22961	0.501
9.26678	0.453
9.30395	0.521
9.34112	0.637
9.37828	0.683
9.41545	0.691
9.45262	0.686
9.48979	0.665
9.52696	0.657
9.56412	0.682
9.60129	0.694
9.63846	0.694
9.67563	0.668
9.7128	0.612
9.74996	0.546
9.78713	0.481
9.8243	0.415
9.86147	0.404
9.89864	0.461
9.93581	0.535
9.97297	0.598
10.0101	0.668
10.0473	0.714
10.0845	0.742
10.1216	0.771
10.1588	0.792
10.196	0.802
10.2331	0.803
10.2703	0.805
10.3075	0.797
10.3447	0.766
10.3818	0.727
10.419	0.71
10.4562	0.752
10.4933	0.8
10.5305	0.822
10.5677	0.825
10.6048	0.83
10.642	0.806
10.6792	0.774
10.7163	0.795
10.7535	0.816
10.7907	0.825
10.8278	0.828
10.865	0.831
10.9022	0.841
10.9393	0.852
10.9765	0.856
11.0137	0.864
11.0508	0.866
11.088	0.87
11.1252	0.869
11.1624	0.852
11.1995	0.841
11.2367	0.806
11.2739	0.753
11.311	0.677
11.3482	0.618
11.3854	0.595
11.4225	0.596
11.4597	0.612
11.4969	0.598
11.534	0.546
11.5712	0.566
11.6084	0.657
11.6455	0.736
11.6827	0.788
11.7199	0.806
11.757	0.808
11.7942	0.795
11.8314	0.783
11.8685	0.789
11.9057	0.805
11.9429	0.831
11.9801	0.842
12.0172	0.853
12.0544	0.866
12.0916	0.87
12.1287	0.869
12.1659	0.873
12.2031	0.88
12.2402	0.876
12.2774	0.88
12.3146	0.881
12.3517	0.881
12.3889	0.88
12.4261	0.881
12.4632	0.881
12.5004	0.881
12.5376	0.881
12.5747	0.881
12.6119	0.88
12.6491	0.88
12.6862	0.872
12.7234	0.864
12.7606	0.855
12.7977	0.848
12.8349	0.841
12.8721	0.833
12.9093	0.82
12.9464	0.805
12.9836	0.799
13.0208	0.799
13.0579	0.82
13.0951	0.83
13.1323	0.838
13.1694	0.841
13.2066	0.844
13.2438	0.844
13.2809	0.841
13.3181	0.836
13.3553	0.831
13.3924	0.83
13.4296	0.827
13.4668	0.825
13.5039	0.823
13.5411	0.822
13.5783	0.82
13.6154	0.819
13.6526	0.816
13.6898	0.813
13.727	0.809
13.7641	0.806
13.8013	0.803
13.8385	0.802
13.8756	0.788
13.9128	0.788
13.95	0.799
13.9871	0.811
14.0243	0.808
14.0615	0.809
14.0986	0.808
14.1358	0.803
14.173	0.783
14.2101	0.774
14.2473	0.766
14.2845	0.749
14.3216	0.733
14.3588	0.71
14.396	0.705
14.4331	0.693
14.4703	0.686
14.5075	0.685
14.5446	0.676
14.5818	0.655
14.619	0.638
14.6562	0.618
14.6933	0.598
14.7305	0.568
14.7677	0.534
14.8048	0.5
14.842	0.45
14.8792	0.409
14.9163	0.361
14.9535	0.328
14.9907	0.32
15.0278	0.338
15.065	0.369
15.1022	0.381
15.1393	0.383
15.1765	0.383
15.2137	0.406
15.2508	0.429
15.288	0.443
15.3252	0.453
15.3623	0.454
15.3995	0.462
15.4367	0.478
15.4739	0.506
15.511	0.535
15.5482	0.568
15.5854	0.59
15.6225	0.618
15.6597	0.632
15.6969	0.64
15.734	0.64
15.7712	0.641
15.8084	0.646
15.8455	0.644
15.8827	0.644
15.9199	0.646
15.957	0.647
15.9942	0.646
