Infrared Spectrum: 1,3-Diphenyl-1,1,3,3-tetramethyldisiloxane
Formula: C 16 H 22 O Si 2
CAS: 56-33-7
State: gas
Origin: EPA-IR VAPOR PHASE LIBRARY
1/CM	ABSORBANCE
549.9	0.00904
559.547	0.00801
569.193	0.00654
578.84	0.00579
588.486	0.0052
598.133	0.00504
607.779	0.00555
617.426	0.00628
627.072	0.00704
636.719	0.01291
646.365	0.0251
656.012	0.01928
665.658	0.01955
675.305	0.02943
684.951	0.04977
694.598	0.09046
704.245	0.10583
713.891	0.08042
723.538	0.08058
733.184	0.08146
742.831	0.05917
752.477	0.04343
762.124	0.0403
771.77	0.05956
781.417	0.13126
791.063	0.21575
800.71	0.20758
810.356	0.12303
820.003	0.11958
829.649	0.1846
839.296	0.18137
848.943	0.10318
858.589	0.06183
868.236	0.04401
877.882	0.03387
887.529	0.02621
897.175	0.01994
906.822	0.01533
916.468	0.01233
926.115	0.01065
935.761	0.01005
945.408	0.01001
955.054	0.01044
964.701	0.01183
974.347	0.01443
983.994	0.01966
993.64	0.03545
1003.29	0.04285
1012.93	0.05373
1022.58	0.09158
1032.23	0.1212
1041.87	0.19143
1051.52	0.30009
1061.17	0.3707
1070.81	0.32691
1080.46	0.21938
1090.11	0.13904
1099.75	0.10412
1109.4	0.14526
1119.05	0.21442
1128.69	0.08389
1138.34	0.03377
1147.99	0.01953
1157.63	0.01334
1167.28	0.00987
1176.92	0.00789
1186.57	0.00846
1196.22	0.00929
1205.86	0.0069
1215.51	0.0073
1225.16	0.01124
1234.8	0.02025
1244.45	0.04393
1254.1	0.12282
1263.74	0.1572
1273.39	0.05273
1283.04	0.02182
1292.68	0.01652
1302.33	0.01398
1311.98	0.01221
1321.62	0.01094
1331.27	0.00928
1340.92	0.00792
1350.56	0.00712
1360.21	0.00677
1369.86	0.00677
1379.5	0.00708
1389.15	0.00872
1398.79	0.01269
1408.44	0.01772
1418.09	0.02266
1427.73	0.02484
1437.38	0.01796
1447.03	0.0106
1456.67	0.0069
1466.32	0.00538
1475.97	0.00498
1485.61	0.0061
1495.26	0.00451
1504.91	0.0035879
1514.55	0.0035823
1524.2	0.003661
1533.85	0.0039573
1543.49	0.00435
1553.14	0.0046
1562.79	0.0051
1572.43	0.00606
1582.08	0.008
1591.73	0.01029
1601.37	0.00979
1611.02	0.00963
1620.67	0.00741
1630.31	0.00574
1639.96	0.0056
1649.6	0.00468
1659.25	0.0033894
1668.9	0.00287
1678.54	0.002653
1688.19	0.002573
1697.84	0.002715
1707.48	0.002767
1717.13	0.002716
1726.78	0.002976
1736.42	0.0033583
1746.07	0.0037706
1755.72	0.0039788
1765.36	0.0036672
1775.01	0.0036255
1784.66	0.003109
1794.3	0.0038309
1803.95	0.0068
1813.6	0.00717
1823.24	0.00465
1832.89	0.0034025
1842.54	0.002858
1852.18	0.002923
1861.83	0.003647
1871.47	0.0049
1881.12	0.00607
1890.77	0.00672
1900.41	0.00459
1910.06	0.0036338
1919.71	0.0035609
1929.35	0.0041829
1939	0.00542
1948.65	0.00629
1958.29	0.00656
1967.94	0.00456
1977.59	0.002751
1987.23	0.002423
1996.88	0.002291
2006.53	0.00214
2016.17	0.0021
2025.82	0.0021
2035.47	0.002257
2045.11	0.00242
2054.76	0.002362
2064.41	0.00212
2074.05	0.00203
2083.7	0.00205
2093.35	0.00203
2102.99	0.00204
2112.64	0.00201
2122.28	0.00203
2131.93	0.00201
2141.58	0.00206
2151.22	0.00208
2160.87	0.00206
2170.52	0.00197
2180.16	0.00202
2189.81	0.00203
2199.46	0.00195
2209.1	0.00199
2218.75	0.00216
2228.4	0.002265
2238.04	0.00222
2247.69	0.00209
2257.34	0.00204
2266.98	0.00201
2276.63	0.00201
2286.28	0.00208
2295.92	0.00206
2305.57	0.002305
2315.22	0.002696
2324.86	0.00212
2334.51	0.002
2344.16	0.00213
2353.8	0.00213
2363.45	0.0019
2373.09	0.00186
2382.74	0.00186
2392.39	0.00185
2402.03	0.00183
2411.68	0.00171
2421.33	0.0017
2430.97	0.00166
2440.62	0.00166
2450.27	0.00172
2459.91	0.00172
2469.56	0.00171
2479.21	0.00175
2488.85	0.00186
2498.5	0.00196
2508.15	0.00192
2517.79	0.00177
2527.44	0.00173
2537.09	0.00169
2546.73	0.00171
2556.38	0.00169
2566.03	0.00176
2575.67	0.00184
2585.32	0.00204
2594.96	0.00189
2604.61	0.00188
2614.26	0.00192
2623.9	0.00185
2633.55	0.00174
2643.2	0.00173
2652.84	0.00176
2662.49	0.00178
2672.14	0.00185
2681.78	0.00193
2691.43	0.00209
2701.08	0.00228
2710.72	0.00209
2720.37	0.00183
2730.02	0.00169
2739.66	0.00169
2749.31	0.00183
2758.96	0.00207
2768.6	0.002399
2778.25	0.002787
2787.9	0.0034777
2797.54	0.0041045
2807.19	0.0046
2816.84	0.00484
2826.48	0.00484
2836.13	0.00471
2845.77	0.00507
2855.42	0.00544
2865.07	0.00571
2874.71	0.00659
2884.36	0.00843
2894.01	0.01238
2903.65	0.01753
2913.3	0.01563
2922.95	0.01039
2932.59	0.00992
2942.24	0.01491
2951.89	0.03545
2961.53	0.08356
2971.18	0.05968
2980.83	0.0237
2990.47	0.01657
3000.12	0.02012
3009.77	0.02886
3019.41	0.0318
3029.06	0.02498
3038.71	0.02432
3048.35	0.03955
3058	0.07842
3067.64	0.06186
3077.29	0.04938
3086.94	0.03408
3096.58	0.02009
3106.23	0.00947
3115.88	0.00634
3125.52	0.00593
3135.17	0.00595
3144.82	0.0040724
3154.46	0.002261
3164.11	0.00157
3173.76	0.00131
3183.4	0.00107
3193.05	0.00068
3202.7	0.00053
3212.34	0.00032
3221.99	0.00038
3231.64	0.00034
3241.28	0.00025
3250.93	5e-05
3260.58	9e-05
3270.22	0.00015
3279.87	5e-05
3289.52	0.00019
3299.16	0.00025
3308.81	0.00024
3318.45	0.00021
3328.1	0.00037
3337.75	0.00019
3347.39	0.00023
3357.04	0.00017
3366.69	0.00029
3376.33	0.00017
3385.98	0.00021
3395.63	0.00036
3405.27	0.00044
3414.92	0.0003
3424.57	0.00049
3434.21	0.00029
3443.86	0.00034
3453.51	0.0004
3463.15	0.00036
3472.8	0.00044
3482.45	0.00049
3492.09	0.00053
3501.74	0.00066
3511.39	0.00069
3521.03	0.00073
3530.68	0.00078
3540.33	0.00093
3549.97	0.00102
3559.62	0.00106
3569.26	0.00112
3578.91	0.00132
3588.56	0.00137
3598.2	0.0015
3607.85	0.0015
3617.5	0.00181
3627.14	0.00204
3636.79	0.00211
3646.44	0.00209
3656.08	0.00204
3665.73	0.00197
3675.38	0.00203
3685.02	0.002496
3694.67	0.002676
3704.32	0.002382
3713.96	0.002333
3723.61	0.002387
3733.26	0.002441
3742.9	0.002759
3752.55	0.002517
3762.2	0.002301
3771.84	0.00196
3781.49	0.00188
3791.13	0.0018
3800.78	0.0018
3810.43	0.00154
3820.07	0.0015
3829.72	0.0015
3839.37	0.00144
3849.01	0.0015
3858.66	0.00148
3868.31	0.00153
3877.95	0.00152
3887.6	0.00159
3897.25	0.00157
3906.89	0.00167
3916.54	0.0015
3926.19	0.00164
3935.83	0.00155
3945.48	0.00166
3955.13	0.00163
3964.77	0.00171
3974.42	0.00168
3984.07	0.00175
3993.71	0.00181
