Infrared Spectrum: TRIBUTYL TIN OXIDE
Formula: C24 H54 O Sn2
CAS: 56-35-9
State: LIQUID
Melting point: 45 C
Boiling point: 180 C AT 2 mmHg
Class: COBLENTZ
Instrument: Not specified, most likely a prism, grating, or hybrid spectrometer.
Sampling: TRANSMISSION
Path length: 0.010 CM
Resolution: 4
Origin: WYANDOTTE CHEMICALS CORP., WYANDOTTE, MICHIGAN, USA
MICROMETERS	TRANSMITTANCE
2.054	0.914
2.09398	0.914
2.13395	0.913
2.17393	0.894
2.2139	0.787
2.25388	0.702
2.29386	0.699
2.33383	0.719
2.37381	0.731
2.41378	0.754
2.45376	0.789
2.49374	0.801
2.53371	0.814
2.57369	0.831
2.61367	0.834
2.65364	0.838
2.69362	0.838
2.73359	0.834
2.77357	0.841
2.81355	0.819
2.85352	0.809
2.8935	0.781
2.93347	0.761
2.97345	0.734
3.01343	0.701
3.0534	0.671
3.09338	0.677
3.13335	0.662
3.17333	0.617
3.21331	0.622
3.25328	0.595
3.29326	0.48
3.33324	0.17
3.37321	0.025
3.41319	0.028
3.45316	0.028
3.49314	0.031
3.53312	0.033
3.57309	0.111
3.61307	0.385
3.65304	0.515
3.69302	0.525
3.733	0.686
3.77297	0.651
3.81295	0.649
3.85292	0.682
3.8929	0.691
3.93288	0.764
3.97285	0.813
4.01283	0.831
4.05281	0.836
4.09278	0.838
4.13276	0.844
4.17273	0.828
4.21271	0.826
4.25269	0.844
4.29266	0.848
4.33264	0.851
4.37261	0.851
4.41259	0.846
4.45257	0.849
4.49254	0.869
4.53252	0.869
4.57249	0.848
4.61247	0.819
4.65245	0.839
4.69242	0.843
4.7324	0.848
4.77238	0.853
4.81235	0.853
4.85233	0.866
4.8923	0.866
4.93228	0.841
4.97226	0.833
5.01223	0.856
5.05221	0.869
5.09218	0.884
5.13216	0.884
5.17214	0.873
5.21211	0.854
5.25209	0.834
5.29206	0.849
5.33204	0.868
5.37202	0.853
5.41199	0.839
5.45197	0.848
5.49195	0.848
5.53192	0.863
5.5719	0.876
5.61187	0.869
5.65185	0.864
5.69183	0.831
5.7318	0.801
5.77178	0.772
5.81175	0.774
5.85173	0.797
5.89171	0.792
5.93168	0.777
5.97166	0.759
6.01163	0.747
6.05161	0.747
6.09159	0.761
6.13156	0.754
6.17154	0.757
6.21152	0.757
6.25149	0.757
6.29147	0.756
6.33144	0.742
6.37142	0.726
6.4114	0.692
6.45137	0.664
6.49135	0.614
6.53132	0.597
6.5713	0.594
6.61128	0.585
6.65125	0.547
6.69123	0.459
6.7312	0.318
6.77118	0.138
6.81116	0.023
6.85113	0.04
6.89111	0.041
6.93109	0.106
6.97106	0.242
7.01104	0.178
7.05101	0.071
7.09099	0.233
7.13097	0.368
7.17094	0.38
7.21092	0.25
7.25089	0.028
7.29087	0.195
7.33085	0.283
7.37082	0.253
7.4108	0.253
7.45077	0.123
7.49075	0.242
7.53073	0.492
7.5707	0.577
7.61068	0.584
7.65066	0.525
7.69063	0.377
7.73061	0.113
7.77058	0.19
7.81056	0.357
7.85054	0.4
7.89051	0.442
7.93049	0.46
7.97046	0.335
8.01044	0.283
8.05042	0.529
8.09039	0.636
8.13037	0.674
8.17034	0.692
8.21032	0.694
8.2503	0.676
8.29027	0.639
8.33025	0.535
8.37023	0.373
8.4102	0.327
8.45018	0.243
8.49015	0.228
8.53013	0.295
8.57011	0.353
8.61008	0.375
8.65006	0.307
8.69003	0.243
8.73001	0.257
8.76999	0.404
8.80996	0.515
8.84994	0.572
8.88991	0.595
8.92989	0.617
8.96987	0.626
9.00984	0.637
9.04982	0.617
9.0898	0.582
9.12977	0.492
9.16975	0.327
9.20972	0.178
9.2497	0.073
9.28968	0.033
9.32965	0.035
9.36963	0.091
9.4096	0.225
9.44958	0.285
9.48956	0.273
9.52953	0.205
9.56951	0.178
9.60948	0.275
9.64946	0.367
9.68944	0.378
9.72941	0.295
9.76939	0.205
9.80937	0.17
9.84934	0.19
9.88932	0.22
9.92929	0.195
9.96927	0.135
10.0092	0.151
10.0492	0.247
10.0892	0.31
10.1292	0.35
10.1692	0.383
10.2091	0.414
10.2491	0.434
10.2891	0.42
10.3291	0.352
10.369	0.218
10.409	0.093
10.449	0.068
10.489	0.173
10.5289	0.297
10.5689	0.385
10.6089	0.429
10.6489	0.455
10.6888	0.482
10.7288	0.51
10.7688	0.525
10.8088	0.567
10.8487	0.582
10.8887	0.602
10.9287	0.619
10.9687	0.624
11.0086	0.627
11.0486	0.632
11.0886	0.624
11.1286	0.617
11.1686	0.589
11.2085	0.55
11.2485	0.485
11.2885	0.365
11.3285	0.218
11.3684	0.138
11.4084	0.103
11.4484	0.078
11.4884	0.065
11.5283	0.085
11.5683	0.083
11.6083	0.08
11.6483	0.093
11.6882	0.13
11.7282	0.202
11.7682	0.268
11.8082	0.277
11.8481	0.253
11.8881	0.217
11.9281	0.185
11.9681	0.171
12.0081	0.17
12.048	0.163
12.088	0.148
12.128	0.128
12.168	0.103
12.2079	0.075
12.2479	0.053
12.2879	0.046
12.3279	0.041
12.3678	0.036
12.4078	0.035
12.4478	0.04
12.4878	0.04
12.5277	0.048
12.5677	0.068
12.6077	0.12
12.6477	0.141
12.6876	0.093
12.7276	0.043
12.7676	0.033
12.8076	0.043
12.8475	0.043
12.8875	0.038
12.9275	0.041
12.9675	0.038
13.0075	0.043
13.0474	0.035
13.0874	0.04
13.1274	0.04
13.1674	0.035
13.2073	0.038
13.2473	0.036
13.2873	0.035
13.3273	0.04
13.3672	0.043
13.4072	0.04
13.4472	0.041
13.4872	0.041
13.5271	0.045
13.5671	0.046
13.6071	0.055
13.6471	0.07
13.687	0.098
13.727	0.121
13.767	0.146
13.807	0.166
13.847	0.196
13.8869	0.218
13.9269	0.24
13.9669	0.253
14.0069	0.265
14.0468	0.265
14.0868	0.262
14.1268	0.25
14.1668	0.222
14.2067	0.183
14.2467	0.163
14.2867	0.136
14.3267	0.103
14.3666	0.095
14.4066	0.088
14.4466	0.085
14.4866	0.085
14.5265	0.091
14.5665	0.1
14.6065	0.103
14.6465	0.11
14.6865	0.118
14.7264	0.118
14.7664	0.13
14.8064	0.138
14.8464	0.14
14.8863	0.155
14.9263	0.155
14.9663	0.16
15.0063	0.183
15.0462	0.223
15.0862	0.255
15.1262	0.237
15.1662	0.208
15.2061	0.205
15.2461	0.225
15.2861	0.24
15.3261	0.252
15.366	0.267
15.406	0.285
15.446	0.3
15.486	0.313
15.5259	0.327
15.5659	0.34
15.6059	0.353
15.6459	0.368
15.6859	0.393
15.7258	0.412
15.7658	0.442
15.8058	0.472
15.8458	0.5
15.8857	0.515
15.9257	0.535
15.9657	0.549
