Infrared Spectrum: Parathion
Formula: C 10 H 14 N O 5 P S
CAS: 56-38-2
State: gas
Instrument: HP-GC/MS/IRD
Origin: NIST Mass Spectrometry Data Center
1/CM	ABSORBANCE
550	0.0008928
562	9.92e-05
574	0.0004464
586	0.0010044
598	0.001426
610	0.0010416
622	0.001426
634	0.0032984
646	0.0070308
658	0.0056296
670	0.004278
682	0.0045632
694	0.0037324
706	0.0025544
718	0.002728
730	0.004464
742	0.011842
754	0.0282472
766	0.0313224
778	0.0152148
790	0.0185628
802	0.023932
814	0.0347696
826	0.0431768
838	0.0274164
850	0.0296484
862	0.0314092
874	0.015934
886	0.01581
898	0.0278008
910	0.0658068
922	0.124
934	0.077562
946	0.0519684
958	0.0596812
970	0.0501952
982	0.030938
994	0.021514
1006	0.0297972
1018	0.0587016
1030	0.106752
1042	0.118829
1054	0.100502
1066	0.0770288
1078	0.0412424
1090	0.0318184
1102	0.028768
1114	0.021514
1126	0.0138632
1138	0.0133052
1150	0.0166532
1162	0.0269948
1174	0.0157852
1186	0.0122884
1198	0.0147932
1210	0.0329592
1222	0.069378
1234	0.0767808
1246	0.0277512
1258	0.0136772
1270	0.009796
1282	0.0089032
1294	0.0081344
1306	0.0074772
1318	0.007998
1330	0.0158472
1342	0.0472688
1354	0.0555024
1366	0.0256308
1378	0.0140864
1390	0.0114948
1402	0.0086676
1414	0.005456
1426	0.0052204
1438	0.0055552
1450	0.0065224
1462	0.0083452
1474	0.0133176
1486	0.0400148
1498	0.044888
1510	0.018662
1522	0.0239568
1534	0.0420608
1546	0.0444168
1558	0.023126
1570	0.0139004
1582	0.0228532
1594	0.0364312
1606	0.0203732
1618	0.0142972
1630	0.0058404
1642	0.0027528
1654	0.0021824
1666	0.002232
1678	0.0019964
1690	0.0015624
1702	0.0011656
1714	0.0009672
1726	0.0008928
1738	0.0008804
1750	0.0010168
1762	0.0013888
1774	0.001488
1786	0.001116
1798	0.0012772
1810	0.0016864
1822	0.0018228
1834	0.0017236
1846	0.0016492
1858	0.0015624
1870	0.0013764
1882	0.0011904
1894	0.0012896
1906	0.001488
1918	0.0011656
1930	0.0006572
1942	0.0004216
1954	0.0003968
1966	0.0005332
1978	0.0007812
1990	0.0008556
2002	0.0005332
2014	0.0002728
2026	0.0002728
2038	0.0001612
2050	0.0001364
2062	0.0001612
2074	0.0002976
2086	0.0004216
2098	0.0002852
2110	0.0002232
2122	0.000186
2134	0.0001612
2146	0.0001488
2158	0.000124
2170	0.0001116
2182	8.68e-05
2194	0.0001116
2206	0.0001612
2218	0.0001612
2230	0.000124
2242	0.0001984
2254	0.0002356
2266	0.0002356
2278	0.0002108
2290	0.000124
2302	9.92e-05
2314	0.0001116
2326	0.000124
2338	0.0001736
2350	0.0002232
2362	0.0002356
2374	0.0002976
2386	0.0003844
2398	0.0003472
2410	0.0003348
2422	0.0004464
2434	0.0006944
2446	0.0009672
2458	0.00093
2470	0.0006448
2482	0.0003968
2494	0.00031
2506	0.0003348
2518	0.0002852
2530	0.0002232
2542	0.0001488
2554	0.000186
2566	0.0002852
2578	0.00031
2590	0.0003472
2602	0.0004216
2614	0.0003596
2626	0.0002356
2638	0.0001612
2650	0.000186
2662	0.0001736
2674	0.0002356
2686	0.0003348
2698	0.0004092
2710	0.0003968
2722	0.0004464
2734	0.0004464
2746	0.0003844
2758	0.000496
2770	0.0005828
2782	0.0006572
2794	0.0005332
2806	0.0006324
2818	0.0008184
2830	0.0010788
2842	0.0013516
2854	0.00186
2866	0.0026908
2878	0.0040672
2890	0.0046872
2902	0.0054188
2914	0.007006
2926	0.0070556
2938	0.0108748
2950	0.0112716
2962	0.0092008
2974	0.0125736
2986	0.0195548
2998	0.0163308
3010	0.0089652
3022	0.005394
3034	0.0031248
3046	0.0019716
3058	0.0014136
3070	0.0012648
3082	0.0016244
3094	0.0018104
3106	0.0009548
3118	0.0006944
3130	0.0005456
3142	0.000496
3154	0.0003968
3166	0.0003472
3178	0.0003968
3190	0.0004464
3202	0.0004464
3214	0.000434
3226	0.0004216
3238	0.00031
3250	0.000186
3262	0.0001736
3274	9.92e-05
3286	9.92e-05
3298	0.000124
3310	0.0001612
3322	0.0001488
3334	0.0001984
3346	0.0001116
3358	9.92e-05
3370	0.0001612
3382	8.68e-05
3394	0.0001116
3406	8.68e-05
3418	0.000124
3430	8.68e-05
3442	0.0001116
3454	0.0001364
3466	8.68e-05
3478	0.000124
3490	0.0001488
3502	6.2e-05
3514	0.000124
3526	0.0001364
3538	0.000124
3550	0.0001116
3562	0.0001116
3574	9.92e-05
3586	8.68e-05
3598	0.0001488
3610	9.92e-05
3622	0.0001612
3634	0.0001488
3646	0.0001984
3658	0.0001488
3670	0.0002108
3682	0.0001736
3694	0.000248
3706	0.000248
3718	0.0002232
3730	0.00031
3742	0.0002232
3754	0.00031
3766	0.0002604
3778	0.0002356
3790	0.0001984
3802	0.0002852
3814	0.000248
3826	0.0002108
3838	0.0002232
