Infrared Spectrum: L-SERINE
Formula: C3 H7 N O3
CAS: 56-45-1
State: SOLID (KBr DISC), CsI DISC FOR 400-50 CM^-^1
Melting point: SUBLIMES AT 150 C IN VACUUM, DECOMPOSES AT 228 C
Class: COBLENTZ III
Instrument: PERKIN-ELMER 180 (GRATING)
Instrument parameters: FILTERS AT 2970, 2000, 1485, 1000, 743, 500, 372, 250, 186 AND GRATING CHANGES AT 2000, 1000, 500, 250 CM^-^1
Sampling: TRANSMISSION
Resolution: 4
Origin: NCI FREDERICK CANCER RESEARCH INSTITUTE
1/CM	TRANSMITTANCE
92.088	0.974
102.352	0.8371
112.615	0.76
122.879	0.685
133.143	0.549
143.407	0.506
153.67	0.536
163.934	0.522
174.198	0.511
184.462	0.538
194.725	0.616
204.989	0.7069
215.253	0.777
225.517	0.804
235.78	0.7151
246.044	0.538
256.308	0.597
266.572	0.687
276.835	0.656
287.099	0.532
297.363	0.38
307.627	0.4649
317.89	0.6429
328.154	0.704
338.418	0.695
348.681	0.612
358.945	0.494
369.209	0.389
379.473	0.56
389.736	0.716
400	0.77
410.264	0.766
420.528	0.741
430.791	0.715
441.055	0.715
451.319	0.738
461.583	0.744
471.846	0.734
482.11	0.714
492.374	0.677
502.638	0.619
512.901	0.5271
523.165	0.3901
533.429	0.4419
543.693	0.6089
553.956	0.676
564.22	0.707
574.484	0.716
584.747	0.768
595.011	0.727
605.275	0.518
615.539	0.4889
625.802	0.6939
636.066	0.794
646.33	0.835
656.594	0.857
666.857	0.874
677.121	0.892
687.385	0.905
697.649	0.911
707.912	0.916
718.176	0.915
728.44	0.918
738.704	0.924
748.967	0.923
759.231	0.919
769.495	0.909
779.759	0.907
790.022	0.889
800.286	0.725
810.55	0.858
820.813	0.897
831.077	0.886
841.341	0.848
851.605	0.5911
861.868	0.813
872.132	0.866
882.396	0.869
892.66	0.851
902.923	0.799
913.187	0.617
923.451	0.4609
933.715	0.8429
943.978	0.882
954.242	0.846
964.506	0.727
974.77	0.72
985.033	0.749
995.297	0.695
1005.56	0.488
1015.82	0.293
1026.09	0.6189
1036.35	0.761
1046.62	0.796
1056.88	0.804
1067.14	0.783
1077.41	0.652
1087.67	0.48
1097.93	0.678
1108.2	0.694
1118.46	0.56
1128.73	0.417
1138.99	0.6149
1149.25	0.784
1159.52	0.846
1169.78	0.862
1180.04	0.864
1190.31	0.857
1200.57	0.834
1210.84	0.776
1221.1	0.722
1231.36	0.753
1241.63	0.806
1251.89	0.811
1262.15	0.792
1272.42	0.762
1282.68	0.717
1292.95	0.595
1303.21	0.336
1313.47	0.43
1323.74	0.532
1334	0.4111
1344.26	0.31
1354.53	0.381
1364.79	0.467
1375.06	0.406
1385.32	0.331
1395.58	0.384
1405.85	0.339
1416.11	0.32
1426.37	0.374
1436.64	0.4759
1446.9	0.559
1457.17	0.48
1467.43	0.2261
1477.69	0.348
1487.96	0.427
1498.22	0.41
1508.48	0.472
1518.75	0.515
1529.01	0.497
1539.28	0.443
1549.54	0.355
1559.8	0.27
1570.07	0.191
1580.33	0.153
1590.59	0.134
1600.86	0.132
1611.12	0.137
1621.39	0.145
1631.65	0.162
1641.91	0.174
1652.18	0.264
1662.44	0.344
1672.7	0.413
1682.97	0.47
1693.23	0.518
1703.5	0.566
1713.76	0.6
1724.02	0.633
1734.29	0.663
1744.55	0.693
1754.81	0.718
1765.08	0.742
1775.34	0.764
1785.61	0.785
1795.87	0.802
1806.13	0.814
1816.4	0.822
1826.66	0.832
1836.92	0.843
1847.19	0.847
1857.45	0.852
1867.71	0.857
1877.98	0.864
1888.24	0.869
1898.51	0.872
1908.77	0.874
1919.03	0.874
1929.3	0.879
1939.56	0.881
1949.82	0.884
1960.09	0.88
1970.35	0.872
1980.62	0.864
1990.88	0.853
2001.14	0.8425
2011.41	0.832
2021.67	0.8185
2031.93	0.805
2042.2	0.7995
2052.46	0.804
2062.73	0.8171
2072.99	0.8281
2083.25	0.8386
2093.52	0.8471
2103.78	0.8617
2114.04	0.8712
2124.31	0.8816
2134.57	0.8831
2144.84	0.8902
2155.1	0.896
2165.36	0.901
2175.63	0.904
2185.89	0.906
2196.15	0.9071
2206.42	0.911
2216.68	0.907
2226.95	0.906
2237.21	0.9058
2247.47	0.9007
2257.74	0.8946
2268	0.889
2278.26	0.8922
2288.53	0.896
2298.79	0.8946
2309.06	0.8893
2319.32	0.8878
2329.58	0.8833
2339.85	0.8798
2350.11	0.8752
2360.37	0.8727
2370.64	0.8652
2380.9	0.8572
2391.17	0.8446
2401.43	0.8331
2411.69	0.8168
2421.96	0.7981
2432.22	0.7876
2442.48	0.7717
2452.75	0.7602
2463.01	0.7567
2473.28	0.755
2483.54	0.752
2493.8	0.7436
2504.07	0.7326
2514.33	0.7273
2524.59	0.7102
2534.86	0.6907
2545.12	0.6616
2555.39	0.6326
2565.65	0.6066
2575.91	0.5864
2586.18	0.5599
2596.44	0.5481
2606.7	0.5442
2616.97	0.5599
2627.23	0.5739
2637.5	0.577
2647.76	0.572
2658.02	0.5641
2668.29	0.5505
2678.55	0.5301
2688.81	0.507
2699.08	0.492
2709.34	0.4704
2719.61	0.4529
2729.87	0.4445
2740.13	0.4521
2750.4	0.4615
2760.66	0.463
2770.92	0.4604
2781.19	0.459
2791.45	0.457
2801.72	0.4477
2811.98	0.4297
2822.24	0.4086
2832.51	0.3896
2842.77	0.3737
2853.03	0.3589
2863.3	0.3434
2873.56	0.3271
2883.83	0.3103
2894.09	0.2927
2904.35	0.274
2914.62	0.275
2924.88	0.275
2935.14	0.2706
2945.41	0.2643
2955.67	0.257
2965.94	0.257
2976.2	0.2553
2986.46	0.2478
2996.73	0.2433
3006.99	0.2408
3017.25	0.2373
3027.52	0.233
3037.78	0.231
3048.04	0.229
3058.31	0.226
3068.57	0.223
3078.84	0.222
3089.1	0.221
3099.36	0.221
3109.63	0.2233
3119.89	0.2306
3130.15	0.2436
3140.42	0.265
3150.68	0.288
3160.95	0.3188
3171.21	0.3508
3181.47	0.3801
3191.74	0.4038
3202	0.4171
3212.26	0.4281
3222.53	0.4447
3232.79	0.4606
3243.06	0.4824
3253.32	0.4997
3263.58	0.5186
3273.85	0.5373
3284.11	0.5599
3294.37	0.571
3304.64	0.5769
3314.9	0.575
3325.17	0.5661
3335.43	0.5531
3345.69	0.5421
3355.96	0.5256
3366.22	0.501
3376.48	0.478
3386.75	0.455
3397.01	0.4364
3407.28	0.419
3417.54	0.4069
3427.8	0.399
3438.07	0.3939
3448.33	0.39
3458.59	0.389
3468.86	0.387
3479.12	0.3902
3489.39	0.3962
3499.65	0.4052
3509.91	0.4194
3520.18	0.4354
3530.44	0.4577
3540.7	0.4886
3550.97	0.5249
3561.23	0.5658
3571.5	0.5989
3581.76	0.6345
3592.02	0.6598
3602.29	0.6853
3612.55	0.7085
3622.81	0.725
3633.08	0.7407
3643.34	0.7564
3653.61	0.7628
3663.87	0.7777
3674.13	0.7834
3684.4	0.7927
3694.66	0.8005
3704.92	0.809
3715.19	0.8122
3725.45	0.8187
3735.72	0.822
3745.98	0.8245
3756.24	0.8273
3766.51	0.8298
3776.77	0.8326
3787.03	0.837
3797.3	0.838
