Infrared Spectrum: DIETHYLSTILBESTEROL
Formula: C18 H20 O2
CAS: 56-53-1
State: SOLID (1.0 mg / 200 mg KBr DISC)
Melting point: 169-172 C
Class: COBLENTZ III
Instrument: PERKIN-ELMER 21 (GRATING)
Instrument parameters: FILTER AT ABOUT 10 MICRONS
Sampling: TRANSMISSION
Resolution: 2
1/CM	TRANSMITTANCE
4000	0.6961
3991	0.6965
3982	0.6969
3973	0.6978
3964	0.6992
3955	0.7006
3946	0.7019
3937	0.7034
3928	0.7048
3919	0.7061
3910	0.7074
3901	0.7087
3892	0.7097
3883	0.71
3874	0.7103
3865	0.7105
3856	0.71
3847	0.7097
3838	0.7096
3829	0.71
3820	0.7104
3811	0.7107
3802	0.7124
3793	0.7141
3784	0.7156
3775	0.7169
3766	0.7185
3757	0.7198
3748	0.721
3739	0.7221
3730	0.7233
3721	0.724
3712	0.7245
3703	0.7249
3694	0.7251
3685	0.7251
3676	0.7251
3667	0.7251
3658	0.7251
3649	0.725
3640	0.725
3631	0.7246
3622	0.7238
3613	0.7231
3604	0.721
3595	0.7155
3586	0.708
3577	0.7001
3568	0.6811
3559	0.6586
3550	0.6385
3541	0.6185
3532	0.5982
3523	0.5779
3514	0.5575
3505	0.537
3496	0.5162
3487	0.5012
3478	0.4949
3469	0.4885
3460	0.4793
3451	0.4519
3442	0.4207
3433	0.3894
3424	0.3579
3415	0.3262
3406	0.2982
3397	0.289
3388	0.2855
3379	0.2826
3370	0.2845
3361	0.3006
3352	0.3113
3343	0.3246
3334	0.3441
3325	0.3639
3316	0.3839
3307	0.4039
3298	0.424
3289	0.444
3280	0.4574
3271	0.4741
3262	0.4868
3253	0.4973
3244	0.5091
3235	0.5219
3226	0.5346
3217	0.5465
3208	0.5584
3199	0.5689
3190	0.5772
3181	0.5856
3172	0.595
3163	0.6053
3154	0.6158
3145	0.6262
3136	0.6338
3127	0.6405
3118	0.6471
3109	0.6536
3100	0.6588
3091	0.6642
3082	0.6701
3073	0.6761
3064	0.6761
3055	0.6728
3046	0.6632
3037	0.655
3028	0.6536
3019	0.6548
3010	0.6565
3001	0.6572
2992	0.6538
2983	0.6071
2974	0.4964
2965	0.4389
2956	0.4384
2947	0.445
2938	0.4937
2929	0.519
2920	0.5209
2911	0.5273
2902	0.543
2893	0.562
2884	0.5789
2875	0.5862
2866	0.5845
2857	0.5828
2848	0.5847
2839	0.5941
2830	0.6089
2821	0.6216
2812	0.634
2803	0.6519
2794	0.6789
2785	0.6911
2776	0.7001
2767	0.7033
2758	0.7054
2749	0.7056
2740	0.7057
2731	0.7106
2722	0.7151
2713	0.7167
2704	0.7165
2695	0.7164
2686	0.7165
2677	0.7171
2668	0.7178
2659	0.7196
2650	0.7215
2641	0.7231
2632	0.7245
2623	0.726
2614	0.7265
2605	0.7274
2596	0.7281
2587	0.729
2578	0.7308
2569	0.7325
2560	0.7339
2551	0.7351
2542	0.7351
2533	0.7351
2524	0.736
2515	0.7371
2506	0.7388
2497	0.7408
2488	0.7428
2479	0.7448
2470	0.7461
2461	0.7475
2452	0.7462
2443	0.7426
2434	0.7407
2425	0.7408
2416	0.741
2407	0.7421
2398	0.7437
2389	0.7455
2380	0.7474
2371	0.7495
2362	0.7521
2353	0.7549
2344	0.7575
2335	0.7603
2326	0.7628
2317	0.7633
2308	0.764
2299	0.7655
2290	0.7664
2281	0.7669
2272	0.7697
2263	0.7728
2254	0.7751
2245	0.7768
2236	0.7772
2227	0.7774
2218	0.7782
2209	0.7792
2200	0.7801
2191	0.7811
2182	0.7821
2173	0.7832
2164	0.7843
2155	0.7854
2146	0.7858
2137	0.7864
2128	0.7868
2119	0.7874
2110	0.7882
2101	0.7889
2092	0.7895
2083	0.7881
2074	0.7864
2065	0.7842
2056	0.7828
2047	0.7824
2038	0.7825
2029	0.7834
2020	0.7845
2011	0.7858
2002	0.7865
1993	0.7867
1984	0.7869
1975	0.788
1966	0.7892
1957	0.7911
1948	0.7932
1939	0.7949
1930	0.7965
1921	0.798
1912	0.798
1903	0.7949
1894	0.7757
1885	0.748
1876	0.7732
1867	0.786
1858	0.7957
1849	0.8017
1840	0.8036
1831	0.8051
1822	0.8058
1813	0.8062
1804	0.8062
1795	0.8061
1786	0.8054
1777	0.804
1768	0.796
1759	0.7893
1750	0.7928
1741	0.7965
1732	0.7984
1723	0.7981
1714	0.795
1705	0.7915
1696	0.7915
1687	0.7919
1678	0.7865
1669	0.773
1660	0.7586
1651	0.7443
1642	0.7398
1633	0.7412
1624	0.7219
1615	0.6467
1606	0.4451
1597	0.5966
1588	0.5245
1579	0.7319
1570	0.7587
1561	0.7782
1552	0.7867
1543	0.7896
1534	0.7739
1525	0.6776
1516	0.3156
1507	0.2573
1498	0.483
1489	0.6678
1480	0.7047
1471	0.7024
1462	0.5942
1453	0.6053
1444	0.6415
1435	0.5892
1426	0.4393
1417	0.678
1408	0.7226
1399	0.7367
1390	0.7406
1381	0.7276
1372	0.6764
1363	0.6506
1354	0.6109
1345	0.5793
1336	0.4796
1327	0.5785
1318	0.683
1309	0.7464
1300	0.751
1291	0.7155
1282	0.608
1273	0.6362
1264	0.6881
1255	0.5604
1246	0.327
1237	0.3687
1228	0.4718
1219	0.4553
1210	0.3512
1201	0.2048
1192	0.2584
1183	0.414
1174	0.4867
1165	0.3764
1156	0.5707
1147	0.6089
1138	0.6426
1129	0.6674
1120	0.6728
1111	0.5323
1102	0.6225
1093	0.6346
1084	0.6758
1075	0.6712
1066	0.6953
1057	0.708
1048	0.7107
1039	0.7174
1030	0.729
1021	0.7414
1012	0.6699
1003	0.7401
994	0.7624
985	0.7739
976	0.7814
967	0.7868
958	0.7624
949	0.7865
940	0.7812
931	0.7884
922	0.7943
913	0.7768
904	0.7988
895	0.8033
886	0.8028
877	0.8036
868	0.8015
859	0.7465
850	0.4579
841	0.6248
832	0.3252
823	0.356
814	0.5786
805	0.5452
796	0.6958
787	0.7412
778	0.7543
769	0.7576
760	0.7596
751	0.7576
742	0.7312
733	0.6525
724	0.659
715	0.6458
706	0.7121
697	0.7047
688	0.6995
679	0.6898
670	0.6806
661	0.678
652	0.6683
