Infrared Spectrum: 2,3-Benzophenanthrene
Formula: C 18 H 12
CAS: 56-55-3
State: gas
Instrument: HP-GC/MS/IRD
Origin: NIST Mass Spectrometry Data Center
1/CM	ABSORBANCE
550	0.0001675
562	0.000277
574	0.000461
586	6.45e-05
598	1.4e-05
610	9.55e-05
622	0.0002215
634	3.95e-05
646	0.0002745
658	0.0002365
670	0.0002015
682	0.0004465
694	0.0002345
706	0.000177
718	0.0004115
730	0.001944
742	0.005
754	0.0023825
766	0.0006505
778	0.0005295
790	0.000871
802	0.00158
814	0.0004935
826	0.000158
838	0.0001805
850	0.0001935
862	0.000453
874	0.001957
886	0.0020245
898	0.000343
910	0.000138
922	0.0001765
934	0.0002235
946	0.000345
958	0.000164
970	6.7e-05
982	6e-05
994	6.5e-05
1006	0.000252
1018	0.0002355
1030	0.000231
1042	0.00022
1054	8e-06
1066	8e-06
1078	5.15e-05
1090	4.35e-05
1102	4.95e-05
1114	8.6e-05
1126	0.0002075
1138	0.000197
1150	0.000219
1162	0.00022
1174	0.0001705
1186	9.95e-05
1198	0.0002445
1210	0.0002545
1222	0.000248
1234	0.0005815
1246	0.0003895
1258	0.000153
1270	0.000331
1282	0.000351
1294	0.0003525
1306	0.000264
1318	0.0001715
1330	0.0003065
1342	0.000245
1354	0.000275
1366	0.000322
1378	0.000528
1390	0.000412
1402	0.000162
1414	0.000232
1426	0.000231
1438	0.000295
1450	0.000459
1462	0.000592
1474	0.000461
1486	0.0004215
1498	0.0007425
1510	0.000368
1522	0.000267
1534	0.0002485
1546	0.0001885
1558	0.0001665
1570	0.0001875
1582	0.000156
1594	0.0001305
1606	0.000177
1618	0.0001615
1630	0.000164
1642	0.0001305
1654	9.7e-05
1666	0.000128
1678	0.0002695
1690	0.0001805
1702	0.0001265
1714	0.0001385
1726	0.00014
1738	0.000214
1750	0.0002865
1762	0.000225
1774	0.0001535
1786	0.000122
1798	0.000222
1810	0.00013
1822	0.0001345
1834	0.0001555
1846	0.0001005
1858	4.7e-05
1870	7.9e-05
1882	0.000154
1894	0.0001725
1906	0.0002615
1918	0.000239
1930	0.0002695
1942	0.0002515
1954	5.55e-05
1966	3.25e-05
1978	1.65e-05
1990	1.35e-05
2002	2.05e-05
2014	1.95e-05
2026	2e-05
2038	1.65e-05
2050	2.8e-05
2062	4.1e-05
2074	4.05e-05
2086	2e-05
2098	2.05e-05
2110	1.45e-05
2122	1.2e-05
2134	3.25e-05
2146	2.55e-05
2158	1.95e-05
2170	2.15e-05
2182	1.35e-05
2194	2.05e-05
2206	3.45e-05
2218	9e-06
2230	3e-06
2242	1.85e-05
2254	2.55e-05
2266	3.3e-05
2278	3.25e-05
2290	2.45e-05
2302	4.25e-05
2314	4.15e-05
2326	4.3e-05
2338	3.85e-05
2350	3.45e-05
2362	2.2e-05
2374	8e-06
2386	2.95e-05
2398	2.9e-05
2410	2.5e-05
2422	3.4e-05
2434	3.3e-05
2446	2.8e-05
2458	3.85e-05
2470	2.5e-05
2482	2.2e-05
2494	1.65e-05
2506	2.9e-05
2518	1.6e-05
2530	2.7e-05
2542	3.25e-05
2554	3.7e-05
2566	3.25e-05
2578	3.1e-05
2590	3.65e-05
2602	4.4e-05
2614	2e-05
2626	3.3e-05
2638	1.25e-05
2650	3.6e-05
2662	1.85e-05
2674	4e-05
2686	2.55e-05
2698	3.75e-05
2710	1.7e-05
2722	2.25e-05
2734	3.65e-05
2746	1.1e-05
2758	3.5e-05
2770	4e-06
2782	3.95e-05
2794	1.35e-05
2806	2.25e-05
2818	4.55e-05
2830	4.1e-05
2842	4.2e-05
2854	4.65e-05
2866	1.45e-05
2878	2.4e-05
2890	5.85e-05
2902	6.6e-05
2914	5.25e-05
2926	7.2e-05
2938	6.25e-05
2950	0.000126
2962	0.0001325
2974	0.000189
2986	0.000234
2998	0.0003725
3010	0.000574
3022	0.00098
3034	0.001669
3046	0.002437
3058	0.0036705
3070	0.003635
3082	0.00201
3094	0.000866
3106	0.0004755
3118	0.0003065
3130	0.0001925
3142	0.0001155
3154	6.9e-05
3166	7.3e-05
3178	5.35e-05
3190	6.2e-05
3202	6.3e-05
3214	4.95e-05
3226	5.4e-05
3238	2.25e-05
3250	4.05e-05
3262	9.5e-06
3274	2.1e-05
3286	3.3e-05
3298	2.7e-05
3310	3.9e-05
3322	3e-05
3334	0
3346	6e-06
3358	4.65e-05
3370	2.25e-05
3382	3.35e-05
3394	1.85e-05
3406	3.7e-05
3418	2.15e-05
3430	1.95e-05
3442	4.65e-05
3454	6.15e-05
3466	4.45e-05
3478	7.15e-05
3490	0.0001765
3502	0.000202
3514	0.000143
3526	3.9e-05
3538	8e-06
3550	1.65e-05
3562	2.65e-05
3574	4.6e-05
3586	2.2e-05
3598	8e-06
3610	4.05e-05
3622	3.1e-05
3634	5.3e-05
3646	4.6e-05
3658	3.1e-05
3670	2.55e-05
3682	3.25e-05
3694	4.6e-05
3706	4.1e-05
3718	3.05e-05
3730	4.15e-05
3742	4.45e-05
3754	3.65e-05
3766	5.75e-05
3778	4e-05
3790	4.4e-05
3802	3.65e-05
3814	3.95e-05
3826	4.3e-05
3838	1.2e-05
