Infrared Spectrum: CHLORAMPHENICOL
Formula: C11 H12 Cl2 N2 O5
CAS: 56-75-7
State: SOLID (0.95 mg / 200 mg KBr DISC)
Melting point: 150.5-151.5 C
Class: COBLENTZ III
Instrument: PERKIN-ELMER 21 (GRATING)
Instrument parameters: FILTER AT ABOUT 10 MICRONS
Sampling: TRANSMISSION
Resolution: 2
1/CM	TRANSMITTANCE
4000	0.8208
3991	0.8203
3982	0.8197
3973	0.8192
3964	0.8186
3955	0.8181
3946	0.8175
3937	0.8171
3928	0.8169
3919	0.8168
3910	0.8165
3901	0.8164
3892	0.8161
3883	0.8161
3874	0.8169
3865	0.8178
3856	0.8188
3847	0.8196
3838	0.8204
3829	0.821
3820	0.8216
3811	0.8221
3802	0.8228
3793	0.8235
3784	0.8241
3775	0.8244
3766	0.8241
3757	0.8236
3748	0.8221
3739	0.8204
3730	0.8193
3721	0.8191
3712	0.8188
3703	0.8189
3694	0.8189
3685	0.819
3676	0.819
3667	0.8191
3658	0.8191
3649	0.8191
3640	0.8191
3631	0.8188
3622	0.8175
3613	0.8162
3604	0.8148
3595	0.8128
3586	0.8108
3577	0.8082
3568	0.8042
3559	0.7991
3550	0.7817
3541	0.7651
3532	0.7525
3523	0.7401
3514	0.7253
3505	0.71
3496	0.6878
3487	0.6619
3478	0.6359
3469	0.6098
3460	0.5834
3451	0.557
3442	0.5304
3433	0.5037
3424	0.4776
3415	0.4682
3406	0.4652
3397	0.463
3388	0.4604
3379	0.457
3370	0.4444
3361	0.4269
3352	0.4037
3343	0.3803
3334	0.3568
3325	0.333
3316	0.3094
3307	0.2985
3298	0.2995
3289	0.3056
3280	0.318
3271	0.3274
3262	0.3298
3253	0.33
3244	0.325
3235	0.3141
3226	0.3006
3217	0.3048
3208	0.3074
3199	0.3246
3190	0.3553
3181	0.3854
3172	0.4157
3163	0.446
3154	0.4768
3145	0.5076
3136	0.5386
3127	0.5697
3118	0.601
3109	0.6326
3100	0.6582
3091	0.6592
3082	0.658
3073	0.632
3064	0.5974
3055	0.5627
3046	0.5428
3037	0.5439
3028	0.565
3019	0.5991
3010	0.6335
3001	0.668
2992	0.7028
2983	0.7136
2974	0.7203
2965	0.724
2956	0.7234
2947	0.7125
2938	0.7007
2929	0.698
2920	0.7011
2911	0.7169
2902	0.7315
2893	0.7332
2884	0.728
2875	0.7217
2866	0.718
2857	0.7197
2848	0.7253
2839	0.7307
2830	0.7375
2821	0.7475
2812	0.7591
2803	0.7684
2794	0.7771
2785	0.7854
2776	0.7933
2767	0.7996
2758	0.7995
2749	0.798
2740	0.801
2731	0.8068
2722	0.8151
2713	0.8221
2704	0.827
2695	0.8286
2686	0.83
2677	0.8301
2668	0.8301
2659	0.8301
2650	0.83
2641	0.8298
2632	0.8296
2623	0.8294
2614	0.8299
2605	0.8305
2596	0.8313
2587	0.8338
2578	0.8375
2569	0.8414
2560	0.8452
2551	0.8499
2542	0.8527
2533	0.8541
2524	0.8551
2515	0.8558
2506	0.8564
2497	0.8568
2488	0.8574
2479	0.8575
2470	0.8571
2461	0.8568
2452	0.8566
2443	0.8566
2434	0.8566
2425	0.8567
2416	0.8571
2407	0.8589
2398	0.8623
2389	0.8656
2380	0.8675
2371	0.869
2362	0.8703
2353	0.8704
2344	0.8693
2335	0.8686
2326	0.8681
2317	0.8675
2308	0.8671
2299	0.8675
2290	0.8701
2281	0.8746
2272	0.8752
2263	0.8766
2254	0.8788
2245	0.8834
2236	0.8864
2227	0.885
2218	0.8797
2209	0.8775
2200	0.8771
2191	0.878
2182	0.8802
2173	0.8814
2164	0.882
2155	0.8816
2146	0.8828
2137	0.8831
2128	0.8824
2119	0.8818
2110	0.8832
2101	0.8857
2092	0.8871
2083	0.888
2074	0.887
2065	0.886
2056	0.8852
2047	0.8842
2038	0.8831
2029	0.882
2020	0.8811
2011	0.8814
2002	0.8817
1993	0.8825
1984	0.8837
1975	0.8836
1966	0.8816
1957	0.8793
1948	0.8761
1939	0.8644
1930	0.8585
1921	0.8663
1912	0.8756
1903	0.877
1894	0.8774
1885	0.8771
1876	0.8768
1867	0.8766
1858	0.8763
1849	0.8759
1840	0.8756
1831	0.8746
1822	0.8723
1813	0.8674
1804	0.8571
1795	0.8542
1786	0.8539
1777	0.8502
1768	0.8481
1759	0.8357
1750	0.8262
1741	0.8115
1732	0.7885
1723	0.7551
1714	0.6654
1705	0.5767
1696	0.4148
1687	0.0757
1678	0.0868
1669	0.4881
1660	0.6027
1651	0.6618
1642	0.6653
1633	0.7072
1624	0.7374
1615	0.7408
1606	0.591
1597	0.5607
1588	0.6495
1579	0.6338
1570	0.4475
1561	0.2697
1552	0.3741
1543	0.4871
1534	0.4157
1525	0.2371
1516	0.1616
1507	0.3026
1498	0.592
1489	0.6307
1480	0.696
1471	0.711
1462	0.6608
1453	0.7225
1444	0.729
1435	0.6992
1426	0.621
1417	0.5075
1408	0.4414
1399	0.5255
1390	0.597
1381	0.6419
1372	0.6286
1363	0.4891
1354	0.2678
1345	0.1584
1336	0.2739
1327	0.4943
1318	0.5385
1309	0.547
1300	0.6765
1291	0.6651
1282	0.5922
1273	0.6019
1264	0.6918
1255	0.6543
1246	0.5062
1237	0.4026
1228	0.571
1219	0.5606
1210	0.5714
1201	0.6191
1192	0.6774
1183	0.6822
1174	0.7434
1165	0.7714
1156	0.7978
1147	0.8039
1138	0.8085
1129	0.7965
1120	0.758
1111	0.6385
1102	0.4499
1093	0.6117
1084	0.6524
1075	0.4974
1066	0.2048
1057	0.2179
1048	0.5078
1039	0.6356
1030	0.7075
1021	0.7565
1012	0.7608
1003	0.77
994	0.7911
985	0.7901
976	0.6152
967	0.6984
958	0.7872
949	0.8125
940	0.8112
931	0.7307
922	0.8315
913	0.838
904	0.8438
895	0.8442
886	0.8349
877	0.8214
868	0.7688
859	0.7788
850	0.7131
841	0.4744
832	0.6398
823	0.465
814	0.3193
805	0.7048
796	0.7871
787	0.7697
778	0.5792
769	0.7471
760	0.6199
751	0.7155
742	0.7315
733	0.6183
724	0.7253
715	0.7162
706	0.5532
697	0.5962
688	0.5145
679	0.5821
670	0.5617
661	0.448
