Infrared Spectrum: Coumaphos
Formula: C 14 H 16 Cl O 5 P S
CAS: 56-72-4
State: gas
Instrument: HP-GC/MS/IRD
Origin: NIST Mass Spectrometry Data Center
1/CM	ABSORBANCE
550	0.000238
562	0.000212
574	0.000118
586	4.8e-05
598	0.000152
610	0.000496
622	0.000868
634	0.000904
646	0.000796
658	0.000348
670	0.000378
682	0.000804
694	0.000528
706	0.00051
718	0.001128
730	0.00286
742	0.002326
754	0.001666
766	0.001066
778	0.00157
790	0.002452
802	0.00331
814	0.00472
826	0.005984
838	0.003902
850	0.002582
862	0.00477
874	0.007426
886	0.0135
898	0.007788
910	0.00266
922	0.001952
934	0.002624
946	0.005028
958	0.009042
970	0.007708
982	0.006192
994	0.009886
1006	0.018372
1018	0.011672
1030	0.014674
1042	0.017876
1054	0.017968
1066	0.013144
1078	0.006522
1090	0.004778
1102	0.004
1114	0.002912
1126	0.003728
1138	0.007236
1150	0.009254
1162	0.006098
1174	0.00358
1186	0.00404
1198	0.002408
1210	0.001352
1222	0.001042
1234	0.001322
1246	0.003002
1258	0.0043
1270	0.007548
1282	0.00258
1294	0.001404
1306	0.00145
1318	0.002042
1330	0.002418
1342	0.002468
1354	0.001122
1366	0.000986
1378	0.001536
1390	0.002478
1402	0.00174
1414	0.001846
1426	0.001548
1438	0.00098
1450	0.000946
1462	0.000912
1474	0.001254
1486	0.00277
1498	0.004126
1510	0.002278
1522	0.001024
1534	0.000676
1546	0.000684
1558	0.00088
1570	0.00105
1582	0.001554
1594	0.003814
1606	0.0103
1618	0.007416
1630	0.002662
1642	0.001124
1654	0.0007
1666	0.000544
1678	0.000566
1690	0.000582
1702	0.000598
1714	0.000598
1726	0.000852
1738	0.001478
1750	0.002832
1762	0.00799
1774	0.019756
1786	0.011012
1798	0.00362
1810	0.002062
1822	0.001168
1834	0.000738
1846	0.000652
1858	0.00054
1870	0.000514
1882	0.000408
1894	0.000326
1906	0.000256
1918	0.000218
1930	0.000152
1942	0.000138
1954	0.000184
1966	0.000148
1978	0.000128
1990	0.0001
2002	0.000106
2014	0.00013
2026	8.4e-05
2038	6.2e-05
2050	6e-05
2062	5.8e-05
2074	5.2e-05
2086	9.8e-05
2098	8.2e-05
2110	8.4e-05
2122	0.000104
2134	6.4e-05
2146	9e-05
2158	7e-05
2170	6.8e-05
2182	3.8e-05
2194	5.2e-05
2206	7.2e-05
2218	7.8e-05
2230	6.4e-05
2242	4.8e-05
2254	4e-05
2266	7e-05
2278	8e-05
2290	8.8e-05
2302	9.6e-05
2314	0.00011
2326	0.000116
2338	0.000136
2350	0.000132
2362	0.000154
2374	0.000154
2386	0.00019
2398	0.000126
2410	0.00011
2422	8e-05
2434	9.8e-05
2446	6e-05
2458	0.000114
2470	8.6e-05
2482	4.8e-05
2494	7e-05
2506	2.4e-05
2518	5.6e-05
2530	4.8e-05
2542	4.6e-05
2554	4.4e-05
2566	5.6e-05
2578	8.6e-05
2590	4.8e-05
2602	4.8e-05
2614	5.2e-05
2626	9e-05
2638	7.4e-05
2650	5.6e-05
2662	4e-05
2674	3.4e-05
2686	1e-05
2698	6e-05
2710	6.2e-05
2722	9.4e-05
2734	0.0001
2746	0.000132
2758	0.000132
2770	0.000144
2782	0.0001
2794	0.00013
2806	9.6e-05
2818	8.8e-05
2830	0.000108
2842	0.000154
2854	0.000222
2866	0.00034
2878	0.0005
2890	0.000592
2902	0.000716
2914	0.000982
2926	0.001078
2938	0.001722
2950	0.001696
2962	0.001422
2974	0.001824
2986	0.002694
2998	0.00222
3010	0.00117
3022	0.000798
3034	0.000512
3046	0.000382
3058	0.000376
3070	0.000276
3082	0.000322
3094	0.000332
3106	0.000192
3118	6.8e-05
3130	5.8e-05
3142	9.4e-05
3154	0.00011
3166	9.2e-05
3178	0.0001
3190	0.000102
3202	0.00013
3214	9.4e-05
3226	0.000116
3238	0.000112
3250	7.8e-05
3262	8e-05
3274	9.4e-05
3286	9.6e-05
3298	0.000124
3310	2.8e-05
3322	6.4e-05
3334	0.000108
3346	7.8e-05
3358	0.0001
3370	0.000136
3382	6e-05
3394	9e-05
3406	0.0001
3418	0.000112
3430	0.000102
3442	0.000102
3454	0.0001
3466	0.000124
3478	0.000192
3490	0.000122
3502	0.000196
3514	0.000222
3526	0.000392
3538	0.000362
3550	0.00029
3562	0.000244
3574	0.000262
3586	0.000188
3598	0.000172
3610	0.000192
3622	0.000176
3634	0.000204
3646	0.0002
3658	0.000158
3670	0.000262
3682	0.00022
3694	0.000146
3706	0.00013
3718	0.000124
3730	0.000144
3742	0.000194
3754	0.000116
3766	0.000144
3778	0.000144
3790	0.000114
3802	0.00025
3814	0.000198
3826	0.000146
3838	0.00024
