Infrared Spectrum: L (+)-GLUTAMIC ACID, Alpha-FORM
Formula: C5 H9 N O4
CAS: 56-86-0
State: SOLID (SPLIT MULL)
Class: COBLENTZ
Instrument: Not specified, most likely a grating spectrometer.
Sampling: TRANSMISSION
Path length: (KBr PLATES)
Resolution: 4
Origin: STANDARD OIL OF OHIO
1/CM	TRANSMITTANCE
290.473	0.128
299.925	0.138
309.378	0.148
318.83	0.186
328.283	0.236
337.735	0.252
347.187	0.27
356.64	0.328
366.092	0.4339
375.545	0.5
384.997	0.568
394.449	0.61
403.902	0.651
413.354	0.651
422.807	0.632
432.259	0.5511
441.711	0.529
451.164	0.714
460.616	0.6531
470.069	0.5599
479.521	0.776
488.974	0.788
498.426	0.763
507.878	0.656
517.331	0.6169
526.783	0.6341
536.236	0.406
545.688	0.6508
555.14	0.803
564.593	0.842
574.045	0.854
583.498	0.856
592.95	0.849
602.402	0.835
611.855	0.7341
621.307	0.773
630.76	0.849
640.212	0.856
649.664	0.839
659.117	0.802
668.569	0.6119
678.022	0.7999
687.474	0.844
696.926	0.829
706.379	0.808
715.831	0.771
725.284	0.788
734.736	0.759
744.188	0.666
753.641	0.807
763.093	0.803
772.546	0.692
781.998	0.565
791.45	0.807
800.903	0.7681
810.355	0.702
819.808	0.505
829.26	0.793
838.712	0.79
848.165	0.761
857.617	0.489
867.07	0.7728
876.522	0.82
885.975	0.802
895.427	0.766
904.879	0.702
914.332	0.668
923.784	0.763
933.237	0.752
942.689	0.729
952.141	0.73
961.594	0.714
971.046	0.686
980.499	0.641
989.951	0.626
999.403	0.544
1008.86	0.473
1018.31	0.402
1027.76	0.494
1037.21	0.566
1046.67	0.61
1056.12	0.598
1065.57	0.578
1075.02	0.4121
1084.48	0.597
1093.93	0.593
1103.38	0.582
1112.83	0.551
1122.28	0.48
1131.74	0.377
1141.19	0.4011
1150.64	0.421
1160.09	0.247
1169.55	0.478
1179	0.4749
1188.45	0.549
1197.9	0.516
1207.36	0.46
1216.81	0.423
1226.26	0.368
1235.71	0.301
1245.17	0.274
1254.62	0.235
1264.07	0.203
1273.52	0.179
1282.98	0.231
1292.43	0.377
1301.88	0.2192
1311.33	0.187
1320.79	0.35
1330.24	0.49
1339.69	0.5
1349.14	0.568
1358.59	0.578
1368.05	0.4682
1377.5	0.527
1386.95	0.649
1396.4	0.644
1405.86	0.59
1415.31	0.472
1424.76	0.463
1434.21	0.556
1443.67	0.544
1453.12	0.36
1462.57	0.4309
1472.02	0.551
1481.48	0.544
1490.93	0.51
1500.38	0.472
1509.83	0.419
1519.29	0.351
1528.74	0.245
1538.19	0.257
1547.64	0.238
1557.1	0.186
1566.55	0.169
1576	0.133
1585.45	0.135
1594.9	0.172
1604.36	0.296
1613.81	0.4241
1623.26	0.47
1632.71	0.38
1642.17	0.439
1651.62	0.495
1661.07	0.504
1670.52	0.4139
1679.98	0.27
1689.43	0.27
1698.88	0.373
1708.33	0.4701
1717.79	0.536
1727.24	0.561
1736.69	0.583
1746.14	0.631
1755.6	0.653
1765.05	0.659
1774.5	0.663
1783.95	0.67
1793.41	0.681
1802.86	0.683
1812.31	0.685
1821.76	0.685
1831.22	0.675
1840.67	0.663
1850.12	0.648
1859.57	0.632
1869.02	0.617
1878.48	0.604
1887.93	0.593
1897.38	0.593
1906.83	0.587
1916.29	0.571
1925.74	0.558
1935.19	0.551
1944.64	0.544
1954.1	0.546
1963.55	0.556
1973	0.573
1982.45	0.592
1991.91	0.6
2001.36	0.6175
2010.81	0.624
2020.26	0.6289
2029.72	0.637
2039.17	0.641
2048.62	0.639
2058.07	0.6365
2067.53	0.632
2076.98	0.627
2086.43	0.622
2095.88	0.6156
2105.33	0.6022
2114.79	0.5703
2124.24	0.551
2133.69	0.5744
2143.14	0.6019
2152.6	0.619
2162.05	0.619
2171.5	0.62
2180.95	0.622
2190.41	0.624
2199.86	0.6221
2209.31	0.6181
2218.76	0.617
2228.22	0.6111
2237.67	0.6022
2247.12	0.597
2256.57	0.5882
2266.03	0.5759
2275.48	0.5663
2284.93	0.5622
2294.38	0.5564
2303.84	0.5522
2313.29	0.5431
2322.74	0.5386
2332.19	0.5342
2341.64	0.5244
2351.1	0.5192
2360.55	0.514
2370	0.5102
2379.45	0.5058
2388.91	0.4972
2398.36	0.4932
2407.81	0.4852
2417.26	0.4801
2426.72	0.4683
2436.17	0.468
2445.62	0.467
2455.07	0.4643
2464.53	0.4563
2473.98	0.4543
2483.43	0.4397
2492.88	0.4323
2502.34	0.4263
2511.79	0.423
2521.24	0.421
2530.69	0.4103
2540.15	0.4087
2549.6	0.4127
2559.05	0.4157
2568.5	0.4117
2577.96	0.4015
2587.41	0.389
2596.86	0.3795
2606.31	0.3627
2615.76	0.36
2625.22	0.3493
2634.67	0.3335
2644.12	0.3174
2653.57	0.3176
2663.03	0.3417
2672.48	0.3652
2681.93	0.3786
2691.38	0.3944
2700.84	0.399
2710.29	0.3926
2719.74	0.3758
2729.19	0.3524
2738.65	0.3503
2748.1	0.3566
2757.55	0.3692
2767	0.3704
2776.46	0.3614
2785.91	0.3534
2795.36	0.351
2804.81	0.3502
2814.27	0.3444
2823.72	0.3272
2833.17	0.3067
2842.62	0.2995
2852.07	0.297
2861.53	0.2945
2870.98	0.294
2880.43	0.297
2889.88	0.296
2899.34	0.294
2908.79	0.2925
2918.24	0.2967
2927.69	0.3025
2937.15	0.3252
2946.6	0.335
2956.05	0.3433
2965.5	0.3591
2974.96	0.3715
2984.41	0.3816
2993.86	0.3947
3003.31	0.3994
3012.77	0.4017
3022.22	0.4074
3031.67	0.4076
3041.12	0.4036
3050.58	0.3976
3060.03	0.3898
3069.48	0.3793
3078.93	0.3656
3088.38	0.3317
3097.84	0.3031
3107.29	0.3011
3116.74	0.338
3126.19	0.3943
3135.65	0.4429
3145.1	0.4804
3154.55	0.5057
3164	0.5408
3173.46	0.5731
3182.91	0.6123
3192.36	0.6369
3201.81	0.66
3211.27	0.6666
3220.72	0.6807
3230.17	0.6886
3239.62	0.692
3249.08	0.693
3258.53	0.6982
3267.98	0.7033
3277.43	0.7113
3286.89	0.7191
3296.34	0.72
3305.79	0.722
3315.24	0.722
3324.7	0.722
3334.15	0.722
3343.6	0.722
3353.05	0.722
3362.5	0.722
3371.96	0.722
3381.41	0.72
3390.86	0.72
3400.31	0.72
3409.77	0.72
3419.22	0.72
3428.67	0.72
3438.12	0.719
3447.58	0.7196
3457.03	0.72
3466.48	0.72
3475.93	0.719
3485.39	0.719
3494.84	0.719
3504.29	0.7182
3513.74	0.719
3523.2	0.719
3532.65	0.719
3542.1	0.719
3551.55	0.719
3561.01	0.717
3570.46	0.717
3579.91	0.717
3589.36	0.717
3598.81	0.717
3608.27	0.717
3617.72	0.717
3627.17	0.717
3636.62	0.715
3646.08	0.715
3655.53	0.714
3664.98	0.715
3674.43	0.714
3683.89	0.712
3693.34	0.714
3702.79	0.7119
3712.24	0.708
3721.7	0.708
3731.15	0.708
3740.6	0.707
3750.05	0.705
3759.51	0.705
3768.96	0.704
3778.41	0.703
3787.86	0.702
3797.32	0.702
3806.77	0.7
3816.22	0.7
3825.67	0.6975
3835.12	0.695
3844.58	0.693
3854.03	0.693
3863.48	0.694
3872.93	0.695
3882.39	0.695
3891.84	0.695
