Infrared Spectrum: L-(+)-GLUTAMINE
Formula: C5 H10 N2 O3
CAS: 56-85-9
State: SOLID (NUJOL MULL)
Melting point: 188-189 C
Class: COBLENTZ III
Instrument: PERKIN-ELMER 421 (GRATING)
Instrument parameters: GRATINGS: 1999 CM^-^1
Sampling: TRANSMISSION
Resolution: 2
Origin: ABBOTT LABORATORIES
1/CM	TRANSMITTANCE
651.6	0.351
660.07	0.323
668.54	0.313
677.01	0.34
685.48	0.435
693.95	0.478
702.42	0.487
710.89	0.483
719.36	0.48
727.83	0.527
736.299	0.561
744.769	0.566
753.239	0.573
761.709	0.552
770.179	0.389
778.649	0.55
787.119	0.578
795.589	0.53
804.059	0.292
812.529	0.564
820.999	0.622
829.469	0.593
837.939	0.507
846.409	0.501
854.879	0.633
863.349	0.644
871.819	0.64
880.289	0.605
888.759	0.538
897.229	0.634
905.698	0.64
914.168	0.602
922.638	0.622
931.108	0.668
939.578	0.668
948.048	0.667
956.518	0.662
964.988	0.653
973.458	0.644
981.928	0.618
990.398	0.496
998.868	0.657
1007.34	0.664
1015.81	0.656
1024.28	0.642
1032.75	0.604
1041.22	0.485
1049.69	0.481
1058.16	0.599
1066.63	0.56
1075.1	0.417
1083.57	0.501
1092.04	0.509
1100.51	0.479
1108.98	0.56
1117.45	0.516
1125.92	0.449
1134.39	0.541
1142.86	0.481
1151.33	0.37
1159.8	0.291
1168.27	0.536
1176.74	0.549
1185.21	0.508
1193.68	0.374
1202.15	0.492
1210.62	0.519
1219.09	0.508
1227.56	0.484
1236.03	0.452
1244.5	0.392
1252.97	0.341
1261.44	0.354
1269.91	0.231
1278.38	0.283
1286.85	0.371
1295.32	0.317
1303.79	0.2
1312.26	0.21
1320.73	0.202
1329.2	0.147
1337.67	0.317
1346.14	0.314
1354.61	0.245
1363.08	0.398
1371.55	0.296
1380.02	0.335
1388.49	0.284
1396.96	0.188
1405.43	0.127
1413.9	0.165
1422.37	0.231
1430.84	0.244
1439.31	0.173
1447.78	0.127
1456.25	0.123
1464.72	0.138
1473.19	0.131
1481.66	0.134
1490.12	0.208
1498.59	0.282
1507.06	0.382
1515.53	0.446
1524	0.479
1532.47	0.481
1540.94	0.432
1549.41	0.376
1557.88	0.297
1566.35	0.226
1574.82	0.164
1583.29	0.174
1591.76	0.204
1600.23	0.147
1608.7	0.105
1617.17	0.098
1625.64	0.1
1634.11	0.108
1642.58	0.127
1651.05	0.187
1659.52	0.236
1667.99	0.205
1676.46	0.138
1684.93	0.15
1693.4	0.355
1701.87	0.472
1710.34	0.518
1718.81	0.531
1727.28	0.59
1735.75	0.633
1744.22	0.661
1752.69	0.684
1761.16	0.707
1769.63	0.715
1778.1	0.72
1786.57	0.731
1795.04	0.745
1803.51	0.754
1811.98	0.756
1820.45	0.759
1828.92	0.762
1837.39	0.762
1845.86	0.762
1854.33	0.762
1862.8	0.762
1871.27	0.762
1879.74	0.763
1888.21	0.762
1896.68	0.761
1905.15	0.761
1913.62	0.755
1922.09	0.749
1930.56	0.748
1939.03	0.743
1947.5	0.74
1955.97	0.736
1964.44	0.727
1972.91	0.721
1981.38	0.709
1989.85	0.7
1998.32	0.686
2006.79	0.676
2015.26	0.662
2023.73	0.639
2032.2	0.627
2040.67	0.628
2049.14	0.646
2057.61	0.671
2066.08	0.691
2074.55	0.703
2083.02	0.715
2091.49	0.717
2099.96	0.717
2108.43	0.716
2116.9	0.71
2125.37	0.709
2133.84	0.708
2142.31	0.707
2150.78	0.704
2159.25	0.702
2167.72	0.7
2176.19	0.694
2184.66	0.691
2193.13	0.686
2201.6	0.686
2210.07	0.685
2218.54	0.682
2227.01	0.681
2235.48	0.675
2243.95	0.667
2252.42	0.657
2260.89	0.654
2269.36	0.656
2277.83	0.654
2286.3	0.651
2294.77	0.648
2303.24	0.645
2311.71	0.642
2320.18	0.638
2328.65	0.635
2337.12	0.631
2345.59	0.63
2354.06	0.628
2362.53	0.621
2371	0.615
2379.47	0.602
2387.94	0.599
2396.41	0.593
2404.88	0.589
2413.35	0.581
2421.82	0.576
2430.29	0.571
2438.76	0.56
2447.23	0.553
2455.7	0.541
2464.17	0.529
2472.64	0.518
2481.11	0.503
2489.58	0.495
2498.05	0.491
2506.52	0.479
2514.99	0.464
2523.46	0.45
2531.93	0.438
2540.4	0.424
2548.87	0.424
2557.34	0.42
2565.81	0.406
2574.28	0.397
2582.75	0.381
2591.22	0.361
2599.69	0.351
2608.16	0.337
2616.63	0.338
2625.1	0.341
2633.57	0.342
2642.04	0.342
2650.51	0.357
2658.98	0.368
2667.45	0.364
2675.92	0.357
2684.39	0.352
2692.86	0.335
2701.33	0.328
2709.8	0.315
2718.27	0.315
2726.74	0.324
2735.21	0.34
2743.68	0.355
2752.15	0.358
2760.62	0.353
2769.09	0.346
2777.56	0.342
2786.03	0.332
2794.5	0.322
2802.97	0.306
2811.44	0.284
2819.91	0.269
2828.38	0.216
2836.85	0.146
2845.32	0.09
2853.79	0.089
2862.26	0.096
2870.73	0.099
2879.2	0.094
2887.67	0.082
2896.14	0.072
2904.61	0.069
2913.08	0.066
2921.55	0.069
2930.02	0.072
2938.49	0.073
2946.96	0.082
2955.43	0.087
2963.9	0.106
2972.37	0.135
2980.84	0.169
2989.31	0.196
2997.78	0.21
3006.25	0.232
3014.72	0.24
3023.19	0.263
3031.66	0.277
3040.13	0.283
3048.6	0.291
3057.07	0.303
3065.54	0.311
3074.01	0.311
3082.48	0.307
3090.95	0.299
3099.42	0.289
3107.89	0.276
3116.36	0.267
3124.83	0.255
3133.3	0.24
3141.77	0.221
3150.24	0.198
3158.71	0.169
3167.17	0.165
3175.64	0.173
3184.11	0.181
3192.58	0.18
3201.05	0.176
3209.52	0.177
3217.99	0.21
3226.46	0.263
3234.93	0.303
3243.4	0.311
3251.87	0.308
3260.34	0.305
3268.81	0.309
3277.28	0.315
3285.75	0.317
3294.22	0.314
3302.69	0.303
3311.16	0.299
3319.63	0.313
3328.1	0.345
3336.57	0.378
3345.04	0.427
3353.51	0.457
3361.98	0.451
3370.45	0.437
3378.92	0.393
3387.39	0.32
3395.86	0.238
3404.33	0.221
3412.8	0.296
3421.27	0.438
3429.74	0.527
3438.21	0.589
3446.68	0.617
3455.15	0.658
3463.62	0.675
3472.09	0.688
3480.56	0.698
3489.03	0.705
3497.5	0.707
3505.97	0.708
3514.44	0.709
3522.91	0.709
3531.38	0.709
3539.85	0.709
3548.32	0.708
3556.79	0.707
3565.26	0.704
3573.73	0.702
3582.2	0.702
3590.67	0.7
3599.14	0.699
3607.61	0.696
3616.08	0.696
3624.55	0.696
3633.02	0.697
3641.49	0.696
3649.96	0.698
3658.43	0.692
3666.9	0.69
3675.37	0.69
3683.84	0.687
3692.31	0.686
3700.78	0.685
3709.25	0.682
3717.72	0.68
3726.19	0.677
3734.66	0.679
3743.13	0.668
3751.6	0.668
3760.07	0.668
3768.54	0.668
3777.01	0.664
3785.48	0.662
3793.95	0.659
3802.42	0.658
3810.89	0.656
3819.36	0.653
3827.83	0.648
3836.3	0.648
3844.77	0.647
3853.24	0.646
3861.71	0.646
3870.18	0.644
3878.65	0.642
3887.12	0.64
3895.59	0.639
3904.06	0.639
3912.53	0.639
3921	0.638
3929.47	0.635
3937.94	0.631
3946.41	0.63
3954.88	0.629
3963.35	0.628
3971.82	0.627
3980.29	0.624
3988.76	0.622
3997.23	0.619
