Infrared Spectrum: L-3,3'-Dithiodialanine
Formula: C6 H12 N2 O4 S2
CAS: 56-89-3
State: SOLID (OIL MULL, BETWEEN KBr DISCS)
Class: COBLENTZ III
Instrument: PERKIN-ELMER 521 (GRATING)
Instrument parameters: ORDER CHANGES: 1999, 690 CM^-^1
Sampling: TRANSMISSION
Resolution: 2
Origin: SMITH KLINE & FRENCH LABS.
1/CM	TRANSMITTANCE
4000	0.8442
3990	0.8447
3980	0.8453
3970	0.8458
3960	0.8468
3950	0.8478
3940	0.8488
3930	0.8497
3920	0.8508
3910	0.852
3900	0.8534
3890	0.8547
3880	0.8533
3870	0.8521
3860	0.8525
3850	0.8545
3840	0.8565
3830	0.8594
3820	0.8624
3810	0.864
3800	0.8655
3790	0.866
3780	0.8665
3770	0.8668
3760	0.8673
3750	0.8687
3740	0.8711
3730	0.873
3720	0.8739
3710	0.8748
3700	0.8756
3690	0.8768
3680	0.8799
3670	0.8817
3660	0.8813
3650	0.8809
3640	0.8806
3630	0.8803
3620	0.8801
3610	0.88
3600	0.88
3590	0.88
3580	0.88
3570	0.88
3560	0.88
3550	0.88
3540	0.8799
3530	0.8799
3520	0.8799
3510	0.8791
3500	0.8778
3490	0.8762
3480	0.8735
3470	0.8718
3460	0.872
3450	0.8716
3440	0.8647
3430	0.8567
3420	0.8514
3410	0.8586
3400	0.8634
3390	0.8675
3380	0.8717
3370	0.8754
3360	0.8774
3350	0.8793
3340	0.8792
3330	0.8791
3320	0.8753
3310	0.8708
3300	0.8643
3290	0.8568
3280	0.8482
3270	0.8371
3260	0.8245
3250	0.8045
3240	0.7865
3230	0.7675
3220	0.7471
3210	0.7254
3200	0.7049
3190	0.6812
3180	0.6589
3170	0.6374
3160	0.6143
3150	0.5572
3140	0.5256
3130	0.4998
3120	0.4789
3110	0.4641
3100	0.4509
3090	0.4377
3080	0.4231
3070	0.4082
3060	0.394
3050	0.3834
3040	0.372
3030	0.3606
3020	0.3447
3010	0.3221
3000	0.2992
2990	0.2346
2980	0.1384
2970	0.0498
2960	0.0376
2950	0.0366
2940	0.0271
2930	0.0157
2920	0.0371
2910	0.0646
2900	0.1075
2890	0.123
2880	0.0976
2870	0.0792
2860	0.0806
2850	0.2246
2840	0.3812
2830	0.4341
2820	0.4731
2810	0.5134
2800	0.538
2790	0.554
2780	0.566
2770	0.5695
2760	0.5692
2750	0.566
2740	0.5658
2730	0.5742
2720	0.5862
2710	0.596
2700	0.5966
2690	0.5956
2680	0.5952
2670	0.5958
2660	0.6096
2650	0.6247
2640	0.631
2630	0.6312
2620	0.6301
2610	0.6219
2600	0.6145
2590	0.6124
2580	0.6268
2570	0.6468
2560	0.6595
2550	0.6747
2540	0.6791
2530	0.6828
2520	0.6875
2510	0.6926
2500	0.6989
2490	0.7067
2480	0.7165
2470	0.7298
2460	0.7328
2450	0.7365
2440	0.7434
2430	0.7501
2420	0.7584
2410	0.7678
2400	0.7771
2390	0.7849
2380	0.788
2370	0.7867
2360	0.7956
2350	0.804
2340	0.8061
2330	0.8112
2320	0.8175
2310	0.827
2300	0.837
2290	0.8455
2280	0.8461
2270	0.8464
2260	0.8471
2250	0.8487
2240	0.8535
2230	0.8568
2220	0.8603
2210	0.8631
2200	0.8643
2190	0.865
2180	0.8653
2170	0.8645
2160	0.8634
2150	0.8612
2140	0.8557
2130	0.8478
2120	0.8378
2110	0.8344
2100	0.8318
2090	0.8315
2080	0.834
2070	0.8409
2060	0.8505
2050	0.8586
2040	0.867
2030	0.8764
2020	0.8831
2010	0.8883
2000	0.9089
1990	0.9178
1980	0.9198
1970	0.9232
1960	0.9267
1950	0.929
1940	0.9338
1930	0.9346
1920	0.9353
1910	0.937
1900	0.9397
1890	0.9415
1880	0.943
1870	0.9446
1860	0.9462
1850	0.9475
1840	0.9513
1830	0.9525
1820	0.9538
1810	0.9525
1800	0.9517
1790	0.9602
1780	0.9574
1770	0.9552
1760	0.9509
1750	0.9495
1740	0.9477
1730	0.9415
1720	0.9328
1710	0.9275
1700	0.9196
1690	0.9025
1680	0.8549
1670	0.706
1660	0.6197
1650	0.5676
1640	0.4522
1630	0.2856
1620	0.373
1610	0.4179
1600	0.2608
1590	0.1736
1580	0.2946
1570	0.4292
1560	0.5524
1550	0.6398
1540	0.6684
1530	0.6582
1520	0.541
1510	0.4082
1500	0.2355
1490	0.206
1480	0.2698
1470	0.2483
1460	0.3259
1450	0.4868
1440	0.6426
1430	0.5897
1420	0.2923
1410	0.1804
1400	0.4516
1390	0.3332
1380	0.4006
1370	0.5762
1360	0.6782
1350	0.5495
1340	0.448
1330	0.7099
1320	0.7451
1310	0.7232
1300	0.4675
1290	0.7539
1280	0.795
1270	0.7833
1260	0.7969
1250	0.8299
1240	0.8484
1230	0.8598
1220	0.8657
1210	0.8478
1200	0.643
1190	0.8204
1180	0.8473
1170	0.8494
1160	0.8462
1150	0.844
1140	0.8128
1130	0.6617
1120	0.8148
1110	0.8521
1100	0.8106
1090	0.8158
1080	0.8528
1070	0.8675
1060	0.8528
1050	0.7811
1040	0.8088
1030	0.8766
1020	0.8971
1010	0.9075
1000	0.913
990	0.912
980	0.8928
970	0.7384
960	0.8621
950	0.8984
940	0.9146
930	0.9281
920	0.9406
910	0.9521
900	0.9578
890	0.9554
880	0.8202
870	0.9145
860	0.8957
850	0.5375
840	0.8325
830	0.915
820	0.938
810	0.9508
800	0.9578
790	0.9414
780	0.7683
770	0.9371
760	0.9482
750	0.941
740	0.9236
730	0.9251
720	0.9291
710	0.9515
700	0.9571
690	0.9523
680	0.7578
670	0.8713
660	0.931
650	0.9507
640	0.9615
630	0.95
620	0.7394
610	0.8138
600	0.884
590	0.9038
580	0.9056
570	0.8985
560	0.8512
550	0.5558
540	0.6958
530	0.8135
520	0.8539
510	0.866
500	0.8606
490	0.865
480	0.8477
470	0.7662
460	0.629
450	0.7419
440	0.7921
430	0.7747
420	0.7171
410	0.6029
400	0.4954
390	0.4785
380	0.506
370	0.4807
360	0.4415
350	0.3606
340	0.2881
330	0.2143
320	0.155
310	0.1295
300	0.0911
290	0.0605
280	0.0327
270	0.0167
260	0.0089
250	0.001
