Infrared Spectrum: 17Alpha-ACETOXY-6Alpha-METHYL-PREGN-4-ENE-3,20-DIONE
Formula: C24 H34 O4
CAS: 560-12-3
State: SOLID (KBr DISC)
Class: COBLENTZ III
Instrument: PERKIN-ELMER 21 (GRATING)
Instrument parameters: NaCl PRISM
Sampling: TRANSMISSION
Resolution: 2
MICROMETERS	TRANSMITTANCE
1.993	0.732
2.02676	0.734
2.06052	0.738
2.09427	0.742
2.12803	0.745
2.16179	0.748
2.19555	0.748
2.2293	0.748
2.26306	0.748
2.29682	0.737
2.33058	0.723
2.36434	0.725
2.39809	0.734
2.43185	0.738
2.46561	0.742
2.49937	0.746
2.53312	0.751
2.56688	0.753
2.60064	0.756
2.6344	0.762
2.66816	0.766
2.70191	0.769
2.73567	0.77
2.76943	0.77
2.80319	0.77
2.83695	0.766
2.8707	0.759
2.90446	0.737
2.93822	0.731
2.97198	0.755
3.00573	0.759
3.03949	0.762
3.07325	0.766
3.10701	0.77
3.14077	0.77
3.17452	0.77
3.20828	0.77
3.24204	0.755
3.2758	0.718
3.30955	0.667
3.34331	0.475
3.37707	0.304
3.41083	0.32
3.44459	0.379
3.47834	0.419
3.5121	0.483
3.54586	0.619
3.57962	0.703
3.61337	0.734
3.64713	0.744
3.68089	0.749
3.71465	0.751
3.74841	0.758
3.78216	0.767
3.81592	0.772
3.84968	0.774
3.88344	0.781
3.9172	0.786
3.95095	0.79
3.98471	0.793
4.01847	0.8
4.05223	0.802
4.08598	0.805
4.11974	0.805
4.1535	0.805
4.18726	0.808
4.22102	0.809
4.25477	0.809
4.28853	0.809
4.32229	0.808
4.35605	0.813
4.3898	0.818
4.42356	0.82
4.45732	0.823
4.49108	0.829
4.52484	0.832
4.55859	0.833
4.59235	0.837
4.62611	0.839
4.65987	0.841
4.69362	0.844
4.72738	0.847
4.76114	0.848
4.7949	0.854
4.82866	0.857
4.86241	0.861
4.89617	0.867
4.92993	0.871
4.96369	0.871
4.99745	0.871
5.0312	0.875
5.06496	0.881
5.09872	0.881
5.13248	0.881
5.16623	0.882
5.19999	0.889
5.23375	0.888
5.26751	0.888
5.30127	0.889
5.33502	0.883
5.36878	0.872
5.40254	0.862
5.4363	0.862
5.47005	0.857
5.50381	0.836
5.53757	0.812
5.57133	0.76
5.60509	0.699
5.63884	0.632
5.6726	0.514
5.70636	0.351
5.74012	0.227
5.77387	0.156
5.80763	0.303
5.84139	0.451
5.87515	0.444
5.90891	0.304
5.94266	0.152
5.97642	0.215
6.01018	0.351
6.04394	0.43
6.0777	0.489
6.11145	0.555
6.14521	0.573
6.17897	0.476
6.21273	0.437
6.24648	0.553
6.28024	0.587
6.314	0.604
6.34776	0.623
6.38152	0.63
6.41527	0.641
6.44903	0.651
6.48279	0.657
6.51655	0.66
6.5503	0.661
6.58406	0.662
6.61782	0.661
6.65158	0.662
6.68534	0.653
6.71909	0.625
6.75285	0.574
6.78661	0.513
6.82037	0.432
6.85412	0.432
6.88788	0.447
6.92164	0.451
6.9554	0.448
6.98916	0.5
7.02291	0.5
7.05667	0.464
7.09043	0.528
7.12419	0.552
7.15795	0.468
7.1917	0.464
7.22546	0.46
7.25922	0.406
7.29298	0.299
7.32673	0.29
7.36049	0.338
7.39425	0.469
7.42801	0.531
7.46177	0.535
7.49552	0.532
7.52928	0.586
7.56304	0.6
7.5968	0.569
7.63055	0.528
7.66431	0.5
7.69807	0.451
7.73183	0.496
7.76559	0.475
7.79934	0.409
7.8331	0.296
7.86686	0.26
7.90062	0.206
7.93437	0.153
7.96813	0.151
8.00189	0.167
8.03565	0.218
8.06941	0.318
8.10316	0.317
8.13692	0.337
8.17068	0.384
8.20444	0.434
8.2382	0.434
8.27195	0.409
8.30571	0.513
8.33947	0.532
8.37323	0.52
8.40698	0.433
8.44074	0.402
8.4745	0.411
8.50826	0.433
8.54202	0.52
8.57577	0.549
8.60953	0.525
8.64329	0.517
8.67705	0.474
8.7108	0.537
8.74456	0.577
8.77832	0.572
8.81208	0.583
8.84584	0.605
8.87959	0.581
8.91335	0.495
8.94711	0.481
8.98087	0.476
9.01462	0.562
9.04838	0.615
9.08214	0.648
9.1159	0.655
9.14966	0.648
9.18341	0.605
9.21717	0.516
9.25093	0.458
9.28469	0.467
9.31845	0.516
9.3522	0.57
9.38596	0.583
9.41972	0.559
9.45348	0.45
9.48723	0.458
9.52099	0.461
9.55475	0.475
9.58851	0.542
9.62227	0.57
9.65602	0.587
9.68978	0.563
9.72354	0.509
9.7573	0.481
9.79105	0.462
9.82481	0.479
9.85857	0.504
9.89233	0.506
9.92609	0.504
9.95984	0.566
9.9936	0.587
10.0274	0.605
10.0611	0.633
10.0949	0.644
10.1286	0.648
10.1624	0.632
10.1961	0.567
10.2299	0.521
10.2637	0.46
10.2974	0.433
10.3312	0.411
10.3649	0.401
10.3987	0.413
10.4325	0.485
10.4662	0.524
10.5	0.542
10.5337	0.551
10.5675	0.555
10.6012	0.551
10.635	0.528
10.6688	0.565
10.7025	0.609
10.7363	0.627
10.77	0.634
10.8038	0.632
10.8375	0.615
10.8713	0.605
10.9051	0.594
10.9388	0.597
10.9726	0.658
11.0063	0.69
11.0401	0.688
11.0739	0.683
11.1076	0.676
11.1414	0.646
11.1751	0.643
11.2089	0.665
11.2426	0.634
11.2764	0.59
11.3102	0.598
11.3439	0.65
11.3777	0.686
11.4114	0.664
11.4452	0.542
11.4789	0.453
11.5127	0.492
11.5465	0.518
11.5802	0.57
11.614	0.612
11.6477	0.643
11.6815	0.662
11.7152	0.669
11.749	0.664
11.7828	0.672
11.8165	0.685
11.8503	0.683
11.884	0.689
11.9178	0.713
11.9516	0.724
11.9853	0.739
12.0191	0.745
12.0528	0.749
12.0866	0.753
12.1203	0.756
12.1541	0.753
12.1879	0.731
12.2216	0.713
12.2554	0.71
12.2891	0.711
12.3229	0.721
12.3566	0.724
12.3904	0.723
12.4242	0.725
12.4579	0.731
12.4917	0.742
12.5254	0.753
12.5592	0.76
12.593	0.767
12.6267	0.773
12.6605	0.776
12.6942	0.777
12.728	0.777
12.7617	0.776
12.7955	0.758
12.8293	0.723
12.863	0.717
12.8968	0.732
12.9305	0.751
12.9643	0.763
12.998	0.774
13.0318	0.783
13.0656	0.788
13.0993	0.793
13.1331	0.795
13.1668	0.798
13.2006	0.8
13.2344	0.8
13.2681	0.798
13.3019	0.795
13.3356	0.793
13.3694	0.797
13.4031	0.8
13.4369	0.798
13.4707	0.755
13.5044	0.706
13.5382	0.686
13.5719	0.697
13.6057	0.727
13.6394	0.748
13.6732	0.76
13.707	0.77
13.7407	0.776
13.7745	0.78
13.8082	0.783
13.842	0.787
13.8757	0.791
13.9095	0.795
13.9433	0.797
13.977	0.797
14.0108	0.795
14.0445	0.791
14.0783	0.783
14.1121	0.77
14.1458	0.746
14.1796	0.725
14.2133	0.689
14.2471	0.671
14.2808	0.653
14.3146	0.611
14.3484	0.594
14.3821	0.595
14.4159	0.604
14.4496	0.657
14.4834	0.683
14.5171	0.707
14.5509	0.728
14.5847	0.739
14.6184	0.745
14.6522	0.749
14.6859	0.752
14.7197	0.753
14.7535	0.755
14.7872	0.758
14.821	0.767
