Infrared Spectrum: 4-(p-Nitrophenyl)butyric acid
Formula: C 10 H 11 N O 4
CAS: 5600-62-4
State: gas
Origin: EPA-IR VAPOR PHASE LIBRARY
1/CM	ABSORBANCE
549.8	0.0082862
559.445	0.0092862
569.09	0.0087362
578.734	0.0087062
588.379	0.0099462
598.024	0.0109062
607.669	0.0112362
617.313	0.0114262
626.958	0.0103762
636.603	0.0097062
646.248	0.0098962
655.893	0.0071462
665.537	0.0055262
675.182	0.0054262
684.827	0.0067762
694.472	0.0074562
704.116	0.0060462
713.761	0.0048562
723.406	0.0045762
733.051	0.0063262
742.695	0.0084062
752.34	0.0062862
761.985	0.0040262
771.63	0.0025562
781.275	0.0023562
790.919	0.0036762
800.564	0.0052462
810.209	0.0052262
819.854	0.0051562
829.498	0.0057262
839.143	0.0106662
848.788	0.0208762
858.433	0.0200162
868.078	0.0068962
877.722	0.0035262
887.367	0.0026862
897.012	0.0023462
906.657	0.0018562
916.301	0.0015162
925.946	0.0011062
935.591	0.0010276
945.236	0.0012762
954.88	0.0015862
964.525	0.0019762
974.17	0.0028462
983.815	0.0035162
993.46	0.0033962
1003.1	0.0039262
1012.75	0.0074862
1022.39	0.0083262
1032.04	0.0074562
1041.68	0.0061062
1051.33	0.0059962
1060.97	0.0067162
1070.62	0.0076162
1080.26	0.0099662
1089.91	0.0144062
1099.55	0.0225862
1109.2	0.0373462
1118.84	0.0529362
1128.49	0.0410662
1138.13	0.0253162
1147.78	0.0185762
1157.42	0.0141862
1167.07	0.0132362
1176.71	0.0158162
1186.36	0.0147262
1196	0.0124962
1205.64	0.0104662
1215.29	0.0091462
1224.93	0.0081062
1234.58	0.0077762
1244.22	0.0069462
1253.87	0.0070062
1263.51	0.0072062
1273.16	0.0069362
1282.8	0.0070562
1292.45	0.0073062
1302.09	0.0080262
1311.74	0.0087562
1321.38	0.0103962
1331.03	0.0181362
1340.67	0.0450262
1350.32	0.0847062
1359.96	0.0439762
1369.61	0.0206062
1379.25	0.0162362
1388.9	0.0139062
1398.54	0.0094162
1408.18	0.0065562
1417.83	0.0056862
1427.47	0.0056862
1437.12	0.0057062
1446.76	0.0063762
1456.41	0.0069762
1466.05	0.0060262
1475.7	0.0058962
1485.34	0.0079362
1494.99	0.0120062
1504.63	0.0110062
1514.28	0.0150162
1523.92	0.0302862
1533.57	0.0545262
1543.21	0.0521462
1552.86	0.0260362
1562.5	0.0137762
1572.15	0.0098062
1581.79	0.0092062
1591.44	0.0128962
1601.08	0.0196662
1610.73	0.0134162
1620.37	0.0058362
1630.01	0.0029962
1639.66	0.0023262
1649.3	0.0020862
1658.95	0.0020562
1668.59	0.0020662
1678.24	0.0020262
1687.88	0.0020662
1697.53	0.0024362
1707.17	0.0029462
1716.82	0.0041362
1726.46	0.0064362
1736.11	0.0105662
1745.75	0.0169662
1755.4	0.0260062
1765.04	0.0409562
1774.69	0.0603962
1784.33	0.0529662
1793.98	0.0333562
1803.62	0.0205862
1813.27	0.0105662
1822.91	0.0049562
1832.55	0.0029662
1842.2	0.0020362
1851.84	0.0015362
1861.49	0.0012462
1871.13	0.0011662
1880.78	0.0009798
1890.42	0.0010129
1900.07	0.0012162
1909.71	0.0014962
1919.36	0.0016262
1929	0.0013662
1938.65	0.0009305
1948.29	0.0006996
1957.94	0.0007163
1967.58	0.0006693
1977.23	0.0006104
1986.87	0.0005969
1996.52	0.0004664
2006.16	0.0004758
2015.81	0.0004011
2025.45	0.0004112
2035.1	0.0004082
2044.74	0.0005022
2054.38	0.0004294
2064.03	0.0004104
2073.67	0.0004418
2083.32	0.0003859
2092.96	0.0004004
2102.61	0.0004224
2112.25	0.0004487
2121.9	0.0005208
2131.54	0.0005343
2141.19	0.0005327
2150.83	0.0004538
2160.48	0.0005289
2170.12	0.0004535
2179.77	0.000449
2189.41	0.0004979
2199.06	0.0005653
2208.7	0.0006957
2218.35	0.0007324
2227.99	0.000665
2237.64	0.0005321
2247.28	0.0005101
2256.92	0.0004264
2266.57	0.0005097
2276.21	0.0005184
2285.86	0.0005993
2295.5	0.0006405
2305.15	0.0005822
2314.79	0.000481
2324.44	0.0004534
2334.08	0.0005407
2343.73	0.0004831
2353.37	0.0005552
2363.02	0.0005306
2372.66	0.0005999
2382.31	0.0006777
2391.95	0.0005525
2401.6	0.0005418
2411.24	0.000613
2420.89	0.0006155
2430.53	0.0005366
2440.18	0.0005762
2449.82	0.0007045
2459.47	0.0008588
2469.11	0.0007517
2478.75	0.0006126
2488.4	0.0005439
2498.04	0.0005689
2507.69	0.0005401
2517.33	0.0003951
2526.98	0.0005479
2536.62	0.0004037
2546.27	0.0004253
2555.91	0.00043
2565.56	0.0004728
2575.2	0.0005555
2584.85	0.0004252
2594.49	0.0004291
2604.14	0.000639
2613.78	0.0006284
2623.43	0.0006299
2633.07	0.0004685
2642.72	0.000534
2652.36	0.0005597
2662.01	0.0005504
2671.65	0.0005586
2681.29	0.0005396
2690.94	0.0006463
2700.58	0.0006705
2710.23	0.0006356
2719.87	0.0006863
2729.52	0.0005981
2739.16	0.0005569
2748.81	0.0004626
2758.45	0.0003643
2768.1	0.000428
2777.74	0.0005239
2787.39	0.0006019
2797.03	0.0006651
2806.68	0.000712
2816.32	0.0009101
2825.97	0.0011262
2835.61	0.0013062
2845.26	0.0017562
2854.9	0.0026662
2864.55	0.0039562
2874.19	0.0051462
2883.84	0.0047562
2893.48	0.0038562
2903.12	0.0036462
2912.77	0.0044762
2922.41	0.0066162
2932.06	0.0096062
2941.7	0.0109062
2951.35	0.0120962
2960.99	0.0116762
2970.64	0.0084162
2980.28	0.0051062
2989.93	0.0031562
2999.57	0.0021562
3009.22	0.0016362
3018.86	0.0016862
3028.51	0.0015362
3038.15	0.0024662
3047.8	0.0036462
3057.44	0.0035262
3067.09	0.0024462
3076.73	0.0023462
3086.38	0.0022762
3096.02	0.0009211
3105.67	0.0006525
3115.31	0.0004783
3124.95	0.0005737
3134.6	0.000483
3144.24	0.0003448
3153.89	0.0002358
3163.53	0.0003751
3173.18	0.0002795
3182.82	0.0002335
3192.47	0.0002985
3202.11	0.0002681
3211.76	0.0003614
3221.4	0.0003361
3231.05	0.00017076
3240.69	0.0003095
3250.34	0.0002382
3259.98	0.0002749
3269.63	0.000396
3279.27	8.192e-05
3288.92	0.0002215
3298.56	0.00014577
3308.21	0.0003004
3317.85	0.0002886
3327.49	0.0002959
3337.14	0.0002147
3346.78	0.0002868
3356.43	0.00017017
3366.07	0.0002542
3375.72	0.0002336
3385.36	0.00016389
3395.01	0.0003635
3404.65	0.0003172
3414.3	0.0002684
3423.94	0.0003422
3433.59	0.00017736
3443.23	0.0003286
3452.88	0.0002696
3462.52	0.000277
3472.17	0.0002388
3481.81	0.000407
3491.46	0.0003616
3501.1	0.0008232
3510.75	0.0008632
3520.39	0.0008554
3530.04	0.0011262
3539.68	0.0017662
3549.32	0.0029362
3558.97	0.0064862
3568.61	0.0212662
3578.26	0.0252362
3587.9	0.0069262
3597.55	0.0027562
3607.19	0.0013562
3616.84	0.0008957
3626.48	0.0006198
3636.13	0.0007031
3645.77	0.0005814
3655.42	0.0002616
3665.06	0.000437
3674.71	0.0004114
3684.35	0.0004328
3694	0.0003297
3703.64	0.0003678
3713.29	0.0002269
3722.93	0.0003248
3732.58	0.0004074
3742.22	0.0004522
3751.86	0.0003066
3761.51	0.0002711
3771.15	0.0003217
3780.8	0.000363
3790.44	0.0003608
3800.09	0.00018411
3809.73	0.00013171
3819.38	0.0002996
3829.02	0.0004002
3838.67	0
3848.31	0.0003982
3857.96	0.000222
3867.6	0.00013794
3877.25	0.00011992
3886.89	8.7839e-05
3896.54	0.0002353
3906.18	0.0001964
3915.83	0.00011911
3925.47	9.4059e-05
3935.12	4.47e-05
3944.76	0.000314
3954.41	0.00015162
3964.05	0.0006005
3973.69	0.0003767
3983.34	0.000347
3992.98	0.0002361
