Infrared Spectrum: 2-Amino-4-chloro-6-methylpyrimidine
Formula: C5 H6 Cl N3
CAS: 5600-21-5
State: SOLID (SPLIT MULL), FLUOROLUBE FOR 3800-1330 CM^-^1, NUJOL FOR 1330-450 CM^-^1
Class: COBLENTZ III
Instrument: DOW KBr FOREPRISM-GRATING
Instrument parameters: BLAZED AT 3.5, 12.0, 20.0 MICRON AND CHANGED AT 5.0, 7.5, 14.9 MICRON
Sampling: TRANSMISSION
Resolution: 2
Origin: DOW CHEMICAL COMPANY
1/CM	TRANSMITTANCE
3794	0.5991
3785	0.6008
3776	0.6027
3767	0.6046
3758	0.6067
3749	0.6089
3740	0.6112
3731	0.6136
3722	0.615
3713	0.6162
3704	0.6176
3695	0.6193
3686	0.621
3677	0.6228
3668	0.6244
3659	0.626
3650	0.6277
3641	0.63
3632	0.6328
3623	0.6355
3614	0.6383
3605	0.6412
3596	0.6445
3587	0.6475
3578	0.6508
3569	0.6539
3560	0.6569
3551	0.6601
3542	0.6636
3533	0.6671
3524	0.6707
3515	0.6738
3506	0.6765
3497	0.6789
3488	0.6811
3479	0.6819
3470	0.6801
3461	0.6714
3452	0.6495
3443	0.575
3434	0.5171
3425	0.3834
3416	0.3522
3407	0.3456
3398	0.3448
3389	0.3662
3380	0.3973
3371	0.4338
3362	0.4526
3353	0.457
3344	0.4512
3335	0.4044
3326	0.3366
3317	0.3169
3308	0.3534
3299	0.3877
3290	0.4236
3281	0.45
3272	0.4688
3263	0.4814
3254	0.4876
3245	0.485
3236	0.439
3227	0.4151
3218	0.3876
3209	0.3629
3200	0.3473
3191	0.3875
3182	0.4115
3173	0.4399
3164	0.4579
3155	0.4746
3146	0.4855
3137	0.4936
3128	0.4971
3119	0.497
3110	0.4978
3101	0.5075
3092	0.5174
3083	0.5262
3074	0.5349
3065	0.5431
3056	0.5507
3047	0.5575
3038	0.5629
3029	0.5685
3020	0.5737
3011	0.5777
3002	0.5815
2993	0.5854
2984	0.5894
2975	0.5938
2966	0.5983
2957	0.602
2948	0.6012
2939	0.598
2930	0.5922
2921	0.5962
2912	0.6054
2903	0.6153
2894	0.6239
2885	0.6318
2876	0.6351
2867	0.6326
2858	0.6342
2849	0.6426
2840	0.6484
2831	0.655
2822	0.6597
2813	0.6605
2804	0.661
2795	0.6615
2786	0.6669
2777	0.6732
2768	0.6794
2759	0.6858
2750	0.6868
2741	0.6868
2732	0.6862
2723	0.6842
2714	0.6828
2705	0.6858
2696	0.6915
2687	0.6961
2678	0.6948
2669	0.6915
2660	0.6921
2651	0.6969
2642	0.7033
2633	0.7072
2624	0.7114
2615	0.7154
2606	0.7194
2597	0.7228
2588	0.7243
2579	0.7254
2570	0.7264
2561	0.7274
2552	0.7288
2543	0.7301
2534	0.7315
2525	0.7328
2516	0.734
2507	0.7353
2498	0.7365
2489	0.7378
2480	0.7399
2471	0.7418
2462	0.7436
2453	0.7449
2444	0.7458
2435	0.7461
2426	0.7465
2417	0.7472
2408	0.7481
2399	0.7492
2390	0.7508
2381	0.7539
2372	0.7553
2363	0.7508
2354	0.7508
2345	0.753
2336	0.7478
2327	0.7439
2318	0.7482
2309	0.7538
2300	0.7575
2291	0.7601
2282	0.7591
2273	0.7582
2264	0.7575
2255	0.7587
2246	0.7695
2237	0.7811
2228	0.789
2219	0.7901
2210	0.7908
2201	0.7915
2192	0.7935
2183	0.7961
2174	0.7995
2165	0.8028
2156	0.8065
2147	0.8104
2138	0.8111
2129	0.8122
2120	0.8154
2111	0.8185
2102	0.8225
2093	0.827
2084	0.8313
2075	0.8357
2066	0.8407
2057	0.8456
2048	0.8504
2039	0.8551
2030	0.8586
2021	0.8618
2012	0.8631
2003	0.86
1994	0.8389
1985	0.8365
1976	0.8408
1967	0.8402
1958	0.8398
1949	0.8437
1940	0.8486
1931	0.8511
1922	0.8525
1913	0.8509
1904	0.8499
1895	0.8517
1886	0.855
1877	0.8588
1868	0.8617
1859	0.8645
1850	0.8666
1841	0.8683
1832	0.8701
1823	0.8718
1814	0.8737
1805	0.8762
1796	0.8789
1787	0.8815
1778	0.8842
1769	0.8802
1760	0.8707
1751	0.8666
1742	0.8689
1733	0.869
1724	0.8671
1715	0.8823
1706	0.879
1697	0.8717
1688	0.8613
1679	0.835
1670	0.7914
1661	0.279
1652	0.2173
1643	0.2832
1634	0.3045
1625	0.5257
1616	0.7328
1607	0.7718
1598	0.7105
1589	0.4298
1580	0.2312
1571	0.2978
1562	0.2314
1553	0.1764
1544	0.2634
1535	0.3703
1526	0.5094
1517	0.5755
1508	0.6293
1499	0.6465
1490	0.5612
1481	0.345
1472	0.5047
1463	0.6121
1454	0.634
1445	0.6027
1436	0.5257
1427	0.566
1418	0.613
1409	0.6544
1400	0.6922
1391	0.7115
1382	0.6967
1373	0.5912
1364	0.6667
1355	0.6775
1346	0.6439
1337	0.6626
1328	0.7131
1319	0.5549
1310	0.2999
1301	0.3982
1292	0.3041
1283	0.612
1274	0.7265
1265	0.7268
1256	0.6747
1247	0.5532
1238	0.6254
1229	0.7558
1220	0.7926
1211	0.7958
1202	0.7905
1193	0.7794
1184	0.7538
1175	0.695
1166	0.6191
1157	0.6058
1148	0.7303
1139	0.7706
1130	0.7755
1121	0.7771
1112	0.7744
1103	0.7643
1094	0.7541
1085	0.751
1076	0.7674
1067	0.774
1058	0.778
1049	0.7628
1040	0.6731
1031	0.6392
1022	0.7019
1013	0.7598
1004	0.7638
995	0.7207
986	0.7772
977	0.8045
968	0.8132
959	0.8058
950	0.8234
941	0.8431
932	0.8528
923	0.8578
914	0.8577
905	0.8466
896	0.8006
887	0.6804
878	0.2835
869	0.7067
860	0.8151
851	0.832
842	0.8001
833	0.8246
824	0.8486
815	0.8467
806	0.7049
797	0.6229
788	0.3264
779	0.8192
770	0.8458
761	0.8509
752	0.8487
743	0.8413
734	0.8255
725	0.7958
716	0.8085
707	0.8054
698	0.8078
689	0.8225
680	0.8371
671	0.8573
662	0.8275
653	0.846
644	0.8473
635	0.8413
626	0.7971
617	0.7306
608	0.8321
599	0.8395
590	0.822
581	0.7774
572	0.778
563	0.6936
554	0.6471
545	0.5903
536	0.6179
527	0.4779
518	0.5587
509	0.5338
500	0.5253
491	0.5671
482	0.6371
473	0.6778
464	0.7044
455	0.7199
