Infrared Spectrum: trans-3,5-Dimethylcyclohexene
Formula: C 8 H 14
CAS: 56021-63-7
State: gas
Instrument: HP-GC/MS/IRD
Origin: NIST Mass Spectrometry Data Center
1/CM	ABSORBANCE
550	0.000189
562	6.6e-05
574	4.5e-05
586	2.4e-05
598	0.000111
610	0.000108
622	0.000117
634	0.000153
646	0.00036
658	0.001329
670	0.003192
682	0.003564
694	0.002256
706	0.002184
718	0.003552
730	0.002223
742	0.000987
754	0.00027
766	9.6e-05
778	0.000114
790	8.4e-05
802	0.000195
814	0.000435
826	0.000639
838	0.000555
850	0.000306
862	0.000486
874	0.000954
886	0.000948
898	0.000495
910	0.000276
922	0.000225
934	0.000315
946	0.000402
958	0.000486
970	0.000675
982	0.001527
994	0.001761
1006	0.001095
1018	0.000432
1030	0.000228
1042	0.000117
1054	0.000111
1066	0.000111
1078	0.000201
1090	0.000375
1102	0.000588
1114	0.000657
1126	0.000543
1138	0.000525
1150	0.000411
1162	0.000261
1174	0.000249
1186	0.000231
1198	0.000129
1210	0.000138
1222	0.000168
1234	0.000219
1246	0.000339
1258	0.000474
1270	0.000438
1282	0.000666
1294	0.001281
1306	0.001575
1318	0.001143
1330	0.000774
1342	0.001026
1354	0.00138
1366	0.001788
1378	0.002229
1390	0.001797
1402	0.000975
1414	0.000594
1426	0.001116
1438	0.002433
1450	0.004098
1462	0.004263
1474	0.002577
1486	0.001113
1498	0.000459
1510	0.000225
1522	0.000177
1534	0.000144
1546	0.000156
1558	0.000141
1570	0.000147
1582	0.000144
1594	0.000153
1606	0.000198
1618	0.00036
1630	0.000741
1642	0.001149
1654	0.001062
1666	0.00069
1678	0.000597
1690	0.000471
1702	0.000216
1714	0.000117
1726	4.5e-05
1738	1.5e-05
1750	0
1762	3e-05
1774	4.8e-05
1786	7.5e-05
1798	8.7e-05
1810	9.3e-05
1822	0.000111
1834	0.000132
1846	0.00012
1858	9.9e-05
1870	8.4e-05
1882	8.7e-05
1894	7.2e-05
1906	4.8e-05
1918	5.4e-05
1930	5.7e-05
1942	2.4e-05
1954	1.8e-05
1966	4.8e-05
1978	5.4e-05
1990	5.1e-05
2002	2.7e-05
2014	3e-05
2026	2.1e-05
2038	1.8e-05
2050	3e-05
2062	3e-05
2074	3.3e-05
2086	4.5e-05
2098	5.1e-05
2110	5.1e-05
2122	3.6e-05
2134	3.9e-05
2146	3e-05
2158	4.5e-05
2170	3.6e-05
2182	3.9e-05
2194	6.3e-05
2206	5.1e-05
2218	4.5e-05
2230	4.2e-05
2242	2.4e-05
2254	4.5e-05
2266	6e-05
2278	8.7e-05
2290	8.4e-05
2302	7.2e-05
2314	8.7e-05
2326	8.4e-05
2338	0.000105
2350	9.9e-05
2362	8.4e-05
2374	7.2e-05
2386	9.9e-05
2398	9.9e-05
2410	0.000135
2422	0.000171
2434	0.000135
2446	0.000138
2458	0.000123
2470	0.00015
2482	0.000126
2494	0.000117
2506	0.000117
2518	0.000126
2530	0.00012
2542	0.000135
2554	0.000183
2566	0.000219
2578	0.000228
2590	0.000294
2602	0.000348
2614	0.000354
2626	0.000369
2638	0.000372
2650	0.000366
2662	0.000303
2674	0.000285
2686	0.000273
2698	0.000351
2710	0.000474
2722	0.000672
2734	0.000792
2746	0.000735
2758	0.000684
2770	0.000741
2782	0.00087
2794	0.001119
2806	0.001458
2818	0.002421
2830	0.005802
2842	0.009942
2854	0.011412
2866	0.012486
2878	0.016029
2890	0.018711
2902	0.022563
2914	0.027762
2926	0.024852
2938	0.018645
2950	0.022566
2962	0.029451
2974	0.019017
2986	0.005769
2998	0.003087
3010	0.006525
3022	0.010479
3034	0.009102
3046	0.003093
3058	0.001782
3070	0.001398
3082	0.00096
3094	0.000708
3106	0.000606
3118	0.000501
3130	0.000459
3142	0.000393
3154	0.000438
3166	0.000435
3178	0.000456
3190	0.000504
3202	0.000429
3214	0.000309
3226	0.00024
3238	0.000138
3250	0.000144
3262	0.000153
3274	0.000204
3286	0.00015
3298	0.000177
3310	0.000168
3322	0.000183
3334	0.000186
3346	0.000135
3358	0.000144
3370	7.8e-05
3382	0.000114
3394	0.000135
3406	9.9e-05
3418	0.000114
3430	5.7e-05
3442	7.8e-05
3454	6e-05
3466	6.9e-05
3478	4.2e-05
3490	7.2e-05
3502	9.3e-05
3514	4.8e-05
3526	3.6e-05
3538	6.9e-05
3550	8.7e-05
3562	7.5e-05
3574	5.4e-05
3586	8.7e-05
3598	6.6e-05
3610	6.6e-05
3622	0.000138
3634	9.6e-05
3646	0.000111
3658	8.7e-05
3670	0.000105
3682	0.000156
3694	0.000183
3706	0.000147
3718	0.000132
3730	0.00018
3742	0.000159
3754	0.000165
3766	0.00018
3778	0.00018
3790	0.000201
3802	0.000207
3814	0.000192
3826	0.000168
3838	0.000204
