Infrared Spectrum: Purine, 7-benzyl-2,6-dichloro-
Formula: C12 H8 Cl2 N4
CAS: 56025-87-7
State: SOLID (1 mg / 650 mg KBr DISC)
Class: COBLENTZ III
Instrument: PERKIN-ELMER 521 (GRATING)
Instrument parameters: FILTERS AT 3130, 2475, 2000, 1150, 700, 410. GRATING CHANGES: 2000, 620 CM^-^1
Sampling: TRANSMISSION
Resolution: 2
Origin: SOUTHERN RESEARCH INSTITUTE
1/CM	TRANSMITTANCE
250	0.3009
260.032	0.3696
270.064	0.4382
280.096	0.5027
290.128	0.5824
300.16	0.6622
310.192	0.718
320.224	0.7382
330.256	0.7729
340.288	0.8264
350.32	0.8595
360.352	0.8784
370.384	0.8895
380.416	0.889
390.448	0.8967
400.48	0.912
410.512	0.9372
420.544	0.9422
430.576	0.943
440.608	0.9404
450.64	0.7854
460.672	0.9247
470.704	0.9601
480.736	0.9631
490.768	0.9648
500.8	0.9663
510.832	0.9665
520.864	0.9651
530.896	0.9607
540.928	0.9639
550.96	0.9555
560.992	0.9359
571.024	0.9512
581.056	0.9155
591.088	0.9512
601.12	0.9266
611.152	0.8416
621.184	0.6915
631.216	0.7225
641.248	0.9295
651.28	0.954
661.312	0.9451
671.344	0.9242
681.376	0.9023
691.408	0.7849
701.44	0.398
711.472	0.9395
721.504	0.9273
731.536	0.8912
741.568	0.5547
751.6	0.9315
761.632	0.9355
771.664	0.8713
781.696	0.6714
791.728	0.7815
801.76	0.8121
811.792	0.7967
821.824	0.9271
831.856	0.9097
841.888	0.8438
851.92	0.6901
861.952	0.5643
871.984	0.7199
882.016	0.9599
892.048	0.9612
902.08	0.9323
912.112	0.8229
922.144	0.9387
932.176	0.9147
942.208	0.8839
952.24	0.7887
962.272	0.8699
972.304	0.8175
982.336	0.3863
992.368	0.4571
1002.4	0.8953
1012.43	0.8761
1022.46	0.8442
1032.5	0.8822
1042.53	0.876
1052.56	0.8583
1062.59	0.7554
1072.62	0.7768
1082.66	0.8613
1092.69	0.8622
1102.72	0.8654
1112.75	0.8629
1122.78	0.8368
1132.82	0.7807
1142.85	0.7614
1152.88	0.5902
1162.91	0.3144
1172.94	0.7636
1182.98	0.6838
1193.01	0.7078
1203.04	0.4478
1213.07	0.7294
1223.1	0.4154
1233.14	0.6967
1243.17	0.8582
1253.2	0.8134
1263.23	0.7171
1273.26	0.7859
1283.3	0.6188
1293.33	0.3584
1303.36	0.5786
1313.39	0.823
1323.42	0.803
1333.46	0.801
1343.49	0.5978
1353.52	0.4877
1363.55	0.4241
1373.58	0.5992
1383.62	0.4253
1393.65	0.1857
1403.68	0.7581
1413.71	0.8274
1423.74	0.7458
1433.78	0.4495
1443.81	0.7327
1453.84	0.6171
1463.87	0.5872
1473.9	0.5182
1483.94	0.7758
1493.97	0.6766
1504	0.752
1514.03	0.7125
1524.06	0.3362
1534.1	0.5433
1544.13	0.7726
1554.16	0.823
1564.19	0.8342
1574.22	0.8305
1584.26	0.5945
1594.29	0.3432
1604.32	0.6868
1614.35	0.9178
1624.38	0.9531
1634.42	0.9725
1644.45	0.974
1654.48	0.9782
1664.51	0.9896
1674.54	0.9882
1684.58	0.9872
1694.61	0.9853
1704.64	0.9832
1714.67	0.9806
1724.7	0.9779
1734.74	0.9751
1744.77	0.9727
1754.8	0.9709
1764.83	0.9683
1774.86	0.9653
1784.9	0.9617
1794.93	0.9561
1804.96	0.9425
1814.99	0.9262
1825.02	0.9268
1835.06	0.9568
1845.09	0.9577
1855.12	0.9556
1865.15	0.9525
1875.18	0.9514
1885.22	0.9583
1895.25	0.9546
1905.28	0.9519
1915.31	0.9565
1925.34	0.9568
1935.38	0.9545
1945.41	0.9504
1955.44	0.944
1965.47	0.9382
1975.5	0.9435
1985.54	0.9354
1995.57	0.937
2005.6	0.9397
2015.63	0.936
2025.66	0.9334
2035.7	0.9319
2045.73	0.9311
2055.76	0.9304
2065.79	0.9291
2075.82	0.9277
2085.86	0.9265
2095.89	0.9256
2105.92	0.9247
2115.95	0.9238
2125.98	0.9229
2136.02	0.9219
2146.05	0.921
2156.08	0.9198
2166.11	0.9186
2176.14	0.9174
2186.18	0.9161
2196.21	0.9148
2206.24	0.9135
2216.27	0.9122
2226.3	0.9109
2236.34	0.9093
2246.37	0.9077
2256.4	0.9061
2266.43	0.9046
2276.46	0.903
2286.5	0.9014
2296.53	0.8999
2306.56	0.8983
2316.59	0.8966
2326.62	0.8943
2336.66	0.892
2346.69	0.8896
2356.72	0.8882
2366.75	0.8869
2376.78	0.8861
2386.82	0.8856
2396.85	0.8854
2406.88	0.8852
2416.91	0.8837
2426.94	0.8787
2436.98	0.8765
2447.01	0.8764
2457.04	0.876
2467.07	0.8757
2477.1	0.8753
2487.14	0.8743
2497.17	0.8731
2507.2	0.872
2517.23	0.8707
2527.26	0.8696
2537.3	0.8687
2547.33	0.8679
2557.36	0.8665
2567.39	0.865
2577.42	0.8635
2587.46	0.862
2597.49	0.8606
2607.52	0.8597
2617.55	0.8587
2627.58	0.8577
2637.62	0.8568
2647.65	0.8559
2657.68	0.8549
2667.71	0.8539
2677.74	0.8529
2687.78	0.8514
2697.81	0.8498
2707.84	0.8482
2717.87	0.8468
2727.9	0.8463
2737.94	0.8458
2747.97	0.8452
2758	0.844
2768.03	0.8432
2778.06	0.843
2788.1	0.8428
2798.13	0.8418
2808.16	0.8391
2818.19	0.8347
2828.22	0.8298
2838.26	0.8229
2848.29	0.8132
2858.32	0.8109
2868.35	0.814
2878.38	0.8155
2888.42	0.8108
2898.45	0.8033
2908.48	0.7953
2918.51	0.7914
2928.54	0.7917
2938.58	0.7892
2948.61	0.7889
2958.64	0.7907
2968.67	0.7821
2978.7	0.7795
2988.74	0.7921
2998.77	0.7645
3008.8	0.7473
3018.83	0.7824
3028.86	0.7729
3038.9	0.7629
3048.93	0.7131
3058.96	0.7322
3068.99	0.7406
3079.02	0.7447
3089.06	0.6964
3099.09	0.7841
3109.12	0.8176
3119.15	0.8189
3129.18	0.818
3139.22	0.8165
3149.25	0.8123
3159.28	0.8061
3169.31	0.8014
3179.34	0.8005
3189.38	0.7993
3199.41	0.7985
3209.44	0.7966
3219.47	0.794
3229.5	0.7905
3239.54	0.787
3249.57	0.7832
3259.6	0.7791
3269.63	0.7746
3279.66	0.7701
3289.7	0.7657
3299.73	0.7613
3309.76	0.757
3319.79	0.7528
3329.82	0.7486
3339.86	0.7435
3349.89	0.7383
3359.92	0.7331
3369.95	0.7289
3379.98	0.7256
3390.02	0.7223
3400.05	0.7199
3410.08	0.7178
3420.11	0.7162
3430.14	0.7148
3440.18	0.7149
3450.21	0.7152
3460.24	0.7157
3470.27	0.7174
3480.3	0.7196
3490.34	0.7219
3500.37	0.7246
3510.4	0.7272
3520.43	0.7309
3530.46	0.7348
3540.5	0.7387
3550.53	0.7426
3560.56	0.7463
3570.59	0.7499
3580.62	0.7536
3590.66	0.757
3600.69	0.7601
3610.72	0.7632
3620.75	0.766
3630.78	0.7671
3640.82	0.7684
3650.85	0.7693
3660.88	0.769
3670.91	0.7687
3680.94	0.7685
3690.98	0.7692
3701.01	0.7717
3711.04	0.7735
3721.07	0.7735
3731.1	0.7727
3741.14	0.7715
3751.17	0.7706
3761.2	0.7711
3771.23	0.7717
3781.26	0.772
3791.3	0.7714
3801.33	0.7705
3811.36	0.7653
3821.39	0.7617
3831.42	0.761
3841.46	0.7605
3851.49	0.7602
3861.52	0.76
3871.55	0.7599
3881.58	0.7596
3891.62	0.7589
3901.65	0.7583
3911.68	0.7577
3921.71	0.7571
3931.74	0.7569
3941.78	0.7566
3951.81	0.7564
3961.84	0.7561
3971.87	0.7565
3981.9	0.7583
3991.94	0.7531
4001.97	0.7529
4012	0.7527
