Infrared Spectrum: Benzamide, N-benzyl-2-(methylamino)-,
Formula: C15 H16 N2 O
CAS: 56042-78-5
State: SOLUTION 7% (CS2 FOR 7.5-15 microns, AND CCl4 FOR 2.5-7.5 microns)
Class: COBLENTZ III
Instrument: PERKIN-ELMER 21 (GRATING)
Instrument parameters: FILTER AT ABOUT 10 MICRONS
Path length: 0.01 CM
Resolution: 2
Origin: ABBOTT LABORATORIES
1/CM	TRANSMITTANCE
667	0.7153
676	0.7138
685	0.6782
694	0.205
703	0.4211
712	0.6117
721	0.4663
730	0.4546
739	0.1337
748	0.1949
757	0.6614
766	0.7676
775	0.7671
784	0.737
793	0.7588
802	0.7708
811	0.7505
820	0.7544
829	0.7508
838	0.7001
847	0.8226
856	0.8332
865	0.8316
874	0.8269
883	0.8142
892	0.7984
901	0.7951
910	0.8068
919	0.8068
928	0.7845
937	0.8078
946	0.8088
955	0.78
964	0.7431
973	0.734
982	0.7452
991	0.7842
1000	0.8111
1009	0.8082
1018	0.7756
1027	0.667
1036	0.6825
1045	0.705
1054	0.7537
1063	0.695
1072	0.6629
1081	0.7789
1090	0.7793
1099	0.7678
1108	0.7732
1117	0.7547
1126	0.7452
1135	0.6626
1144	0.6441
1153	0.6203
1162	0.2493
1171	0.3618
1180	0.6941
1189	0.6941
1198	0.654
1207	0.5946
1216	0.429
1225	0.2864
1234	0.2252
1243	0.2486
1252	0.3344
1261	0.1536
1270	0.1694
1279	0.3024
1288	0.4893
1297	0.5266
1306	0.4803
1315	0.4029
1324	0.4552
1333	0.7433
1342	0.7832
1351	0.7266
1360	0.7712
1369	0.8144
1378	0.8122
1387	0.7989
1396	0.7763
1405	0.6896
1414	0.4547
1423	0.4617
1432	0.6928
1441	0.6137
1450	0.4977
1459	0.54
1468	0.4064
1477	0.4422
1486	0.3226
1495	0.1625
1504	0.083
1513	0.0766
1522	0.1305
1531	0.4207
1540	0.6558
1549	0.708
1558	0.7003
1567	0.5014
1576	0.2308
1585	0.4359
1594	0.5004
1603	0.5814
1612	0.6366
1621	0.4354
1630	0.2364
1639	0.0837
1648	0.1018
1657	0.2474
1666	0.6306
1675	0.7505
1684	0.8738
1693	0.8976
1702	0.9027
1711	0.9048
1720	0.9055
1729	0.906
1738	0.9063
1747	0.9055
1756	0.9043
1765	0.9076
1774	0.9133
1783	0.9111
1792	0.9029
1801	0.9052
1810	0.9187
1819	0.9224
1828	0.9237
1837	0.9222
1846	0.9199
1855	0.9186
1864	0.9181
1873	0.9176
1882	0.9189
1891	0.9209
1900	0.9212
1909	0.9176
1918	0.9157
1927	0.9162
1936	0.9193
1945	0.9249
1954	0.9334
1963	0.9385
1972	0.9416
1981	0.9423
1990	0.9434
1999	0.9447
2008	0.9459
2017	0.9459
2026	0.945
2035	0.9431
2044	0.9405
2053	0.9399
2062	0.9402
2071	0.9404
2080	0.9404
2089	0.94
2098	0.9396
2107	0.9393
2116	0.9392
2125	0.9397
2134	0.9402
2143	0.9406
2152	0.941
2161	0.9413
2170	0.9416
2179	0.9418
2188	0.9421
2197	0.9424
2206	0.9427
2215	0.943
2224	0.9432
2233	0.9434
2242	0.9436
2251	0.9434
2260	0.9427
2269	0.9419
2278	0.9413
2287	0.9407
2296	0.94
2305	0.9395
2314	0.9392
2323	0.9393
2332	0.9393
2341	0.9394
2350	0.9394
2359	0.9395
2368	0.9396
2377	0.9396
2386	0.9401
2395	0.9408
2404	0.9415
2413	0.9422
2422	0.9426
2431	0.9417
2440	0.941
2449	0.9402
2458	0.9394
2467	0.9381
2476	0.9368
2485	0.9356
2494	0.9346
2503	0.9341
2512	0.9336
2521	0.933
2530	0.9332
2539	0.9336
2548	0.934
2557	0.9372
2566	0.9408
2575	0.9417
2584	0.9409
2593	0.9386
2602	0.9357
2611	0.9329
2620	0.9304
2629	0.9296
2638	0.9289
2647	0.9281
2656	0.9276
2665	0.9271
2674	0.9266
2683	0.926
2692	0.9245
2701	0.9231
2710	0.9217
2719	0.9172
2728	0.9116
2737	0.9081
2746	0.9043
2755	0.8962
2764	0.8808
2773	0.842
2782	0.7983
2791	0.7713
2800	0.7927
2809	0.8249
2818	0.8372
2827	0.8169
2836	0.7832
2845	0.7497
2854	0.7185
2863	0.7028
2872	0.6899
2881	0.6878
2890	0.6935
2899	0.7167
2908	0.7399
2917	0.7628
2926	0.7856
2935	0.8155
2944	0.8281
2953	0.8299
2962	0.8287
2971	0.8267
2980	0.8239
2989	0.8174
2998	0.8071
3007	0.7863
3016	0.7748
3025	0.7788
3034	0.7837
3043	0.7929
3052	0.8133
3061	0.8336
3070	0.8538
3079	0.8738
3088	0.8937
3097	0.9144
3106	0.9236
3115	0.9275
3124	0.9301
3133	0.9302
3142	0.9297
3151	0.9291
3160	0.9274
3169	0.9248
3178	0.9223
3187	0.9197
3196	0.9146
3205	0.9091
3214	0.9023
3223	0.8923
3232	0.8823
3241	0.871
3250	0.8512
3259	0.8261
3268	0.7885
3277	0.7508
3286	0.7133
3295	0.676
3304	0.6388
3313	0.6019
3322	0.5679
3331	0.567
3340	0.599
3349	0.6321
3358	0.6649
3367	0.6976
3376	0.7301
3385	0.7625
3394	0.776
3403	0.7718
3412	0.7621
3421	0.7525
3430	0.7435
3439	0.7536
3448	0.7905
3457	0.8272
3466	0.8637
3475	0.9
3484	0.9308
3493	0.9391
3502	0.9428
3511	0.9434
3520	0.9438
3529	0.9442
3538	0.9443
3547	0.9442
3556	0.9442
3565	0.9441
3574	0.9441
3583	0.9442
3592	0.9444
3601	0.9445
3610	0.9447
3619	0.9449
3628	0.945
3637	0.9452
3646	0.9454
3655	0.9456
3664	0.9457
3673	0.9459
3682	0.946
3691	0.946
3700	0.9461
3709	0.9462
3718	0.9463
3727	0.9464
3736	0.9465
3745	0.9466
3754	0.9467
3763	0.9467
3772	0.9465
3781	0.9464
3790	0.9462
3799	0.9461
3808	0.9458
3817	0.9456
3826	0.9455
3835	0.9453
3844	0.9452
3853	0.9449
3862	0.9448
3871	0.9447
3880	0.9446
3889	0.9445
3898	0.9444
3907	0.9443
3916	0.9444
3925	0.9453
3934	0.9463
3943	0.9473
3952	0.9483
3961	0.9493
3970	0.9503
3979	0.9513
3988	0.9523
3997	0.9532
