Infrared Spectrum: 2-(2-Benzothiazolyl)-5-methylphenol
Formula: C 14 H 11 N O S
CAS: 56048-54-5
State: gas
Origin: EPA-IR VAPOR PHASE LIBRARY
1/CM	ABSORBANCE
551.7	0.00205
563.274	0.00334
574.848	0.0047
586.421	0.00548
597.995	0.00277
609.569	0.00258
621.143	0.00295
632.717	0.00404
644.291	0.00433
655.864	0.00448
667.438	0.00572
679.012	0.00841
690.586	0.0206
702.16	0.02138
713.734	0.01763
725.307	0.0333
736.881	0.02623
748.455	0.03629
760.029	0.04056
771.603	0.01167
783.177	0.01157
794.75	0.0215
806.324	0.00906
817.898	0.00291
829.472	0.00253
841.046	0.00456
852.619	0.00532
864.193	0.00969
875.767	0.00696
887.341	0.00278
898.915	0.00251
910.489	0.00487
922.062	0.01423
933.636	0.03015
945.21	0.01222
956.784	0.00653
968.358	0.01736
979.932	0.03306
991.505	0.00998
1003.08	0.00685
1014.65	0.00845
1026.23	0.00303
1037.8	0.00287
1049.37	0.00292
1060.95	0.00332
1072.52	0.00512
1084.1	0.00335
1095.67	0.00293
1107.24	0.00364
1118.82	0.00637
1130.39	0.02042
1141.97	0.02869
1153.54	0.01094
1165.11	0.0106
1176.69	0.00932
1188.26	0.0157
1199.83	0.03593
1211.41	0.06253
1222.98	0.03788
1234.56	0.02912
1246.13	0.03184
1257.7	0.02141
1269.28	0.0188
1280.85	0.01469
1292.42	0.01073
1304	0.01549
1315.57	0.01783
1327.15	0.0119
1338.72	0.00996
1350.29	0.0139
1361.87	0.02096
1373.44	0.02493
1385.02	0.02236
1396.59	0.01368
1408.16	0.00965
1419.74	0.01192
1431.31	0.03032
1442.88	0.04827
1454.46	0.0274
1466.03	0.03727
1477.61	0.06899
1489.18	0.07897
1500.75	0.03739
1512.33	0.02847
1523.9	0.0242
1535.48	0.01715
1547.05	0.01832
1558.62	0.02589
1570.2	0.04034
1581.77	0.03911
1593.34	0.02049
1604.92	0.0149
1616.49	0.0278
1628.07	0.07209
1639.64	0.04282
1651.21	0.01231
1662.79	0.00557
1674.36	0.00397
1685.93	0.00446
1697.51	0.00318
1709.08	0.00264
1720.66	0.00387
1732.23	0.00387
1743.8	0.00209
1755.38	0.00174
1766.95	0.00232
1778.53	0.00294
1790.1	0.00188
1801.67	0.00203
1813.25	0.00253
1824.82	0.00141
1836.39	0.00127
1847.97	0.00145
1859.54	0.00286
1871.12	0.00268
1882.69	0.00177
1894.26	0.0024
1905.84	0.00198
1917.41	0.00124
1928.99	0.00242
1940.56	0.00224
1952.13	0.0008103
1963.71	0.0006257
1975.28	0.000618
1986.85	0.0006436
1998.43	0.0006386
2010	0.0006848
2021.58	0.0005599
2033.15	0.0005253
2044.72	0.0006017
2056.3	0.0006657
2067.87	0.0006995
2079.44	0.0007309
2091.02	0.0007039
2102.59	0.0006905
2114.17	0.0007685
2125.74	0.0007621
2137.31	0.0009951
2148.89	0.001
2160.46	0.0008099
2172.04	0.0008066
2183.61	0.0007758
2195.18	0.0008477
2206.76	0.000842
2218.33	0.000699
2229.9	0.0007142
2241.48	0.0008478
2253.05	0.000973
2264.63	0.0009361
2276.2	0.00101
2287.77	0.0011
2299.35	0.00112
2310.92	0.00118
2322.5	0.00126
2334.07	0.001
2345.64	0.00107
2357.22	0.0013
2368.79	0.00131
2380.36	0.00122
2391.94	0.00122
2403.51	0.0014
2415.09	0.0016
2426.66	0.00165
2438.23	0.0017
2449.81	0.00181
2461.38	0.00173
2472.96	0.00187
2484.53	0.00195
2496.1	0.00206
2507.68	0.00227
2519.25	0.00232
2530.82	0.00226
2542.4	0.00242
2553.97	0.00259
2565.55	0.00294
2577.12	0.00321
2588.69	0.00337
2600.27	0.00339
2611.84	0.00334
2623.41	0.0034
2634.99	0.00339
2646.56	0.00345
2658.14	0.00376
2669.71	0.004
2681.28	0.00447
2692.86	0.00496
2704.43	0.00525
2716.01	0.00567
2727.58	0.00622
2739.15	0.00632
2750.73	0.00559
2762.3	0.00513
2773.87	0.00538
2785.45	0.0058
2797.02	0.00597
2808.6	0.00613
2820.17	0.00654
2831.74	0.00713
2843.32	0.00784
2854.89	0.00892
2866.47	0.0116
2878.04	0.01352
2889.61	0.0126
2901.19	0.0126
2912.76	0.01403
2924.33	0.01921
2935.91	0.02345
2947.48	0.01591
2959.06	0.01341
2970.63	0.01265
2982.2	0.01304
2993.78	0.01424
3005.35	0.01595
3016.92	0.01804
3028.5	0.02323
3040.07	0.02461
3051.65	0.0235
3063.22	0.02907
3074.79	0.03656
3086.37	0.02459
3097.94	0.01872
3109.52	0.01712
3121.09	0.01751
3132.66	0.01709
3144.24	0.0167
3155.81	0.01628
3167.38	0.01648
3178.96	0.01684
3190.53	0.01676
3202.11	0.01663
3213.68	0.01626
3225.25	0.01636
3236.83	0.0161
3248.4	0.01571
3259.98	0.01497
3271.55	0.01406
3283.12	0.01337
3294.7	0.01251
3306.27	0.01169
3317.84	0.01068
3329.42	0.00971
3340.99	0.00894
3352.57	0.0081
3364.14	0.00738
3375.71	0.00672
3387.29	0.00594
3398.86	0.00527
3410.43	0.00464
3422.01	0.00414
3433.58	0.00369
3445.16	0.00322
3456.73	0.00286
3468.3	0.0025
3479.88	0.00206
3491.45	0.0019
3503.03	0.00163
3514.6	0.00137
3526.17	0.00116
3537.75	0.00119
3549.32	0.00102
3560.89	0.0008049
3572.47	0.0008937
3584.04	0.0008009
3595.62	0.000657
3607.19	0.0005622
3618.76	0.0005294
3630.34	0.0003626
3641.91	0.0005158
3653.49	0.000389
3665.06	0.0003669
3676.63	0.0002544
3688.21	0.0002854
3699.78	0.0002736
3711.35	0.0004048
3722.93	0.0002328
3734.5	0.0002592
3746.08	0.0002669
3757.65	0.0004296
3769.22	0.0003205
3780.8	0.000305
3792.37	0.0003388
3803.94	0.0003298
3815.52	0.0003653
3827.09	0.0002214
3838.67	0.0002209
3850.24	0.0002432
3861.81	0.0002245
3873.39	0.0002141
3884.96	0.0002645
3896.54	0.0004282
3908.11	0.0004218
3919.68	0.000639
3931.26	0.000415
3942.83	0.000405
3954.4	0.0003451
3965.98	0.0002691
3977.55	0.0003302
3989.13	0.0003303
4000.7	0.0004021
