Infrared Spectrum: N-(P-CHLOROPHENYLSULFONYL)-2-FURAMIDE
Formula: C11 H8 Cl N O4 S
CAS: 56059-65-5
State: SOLID (MINERAL OIL MULL)
Class: COBLENTZ
Instrument: Not specified, most likely a prism, grating, or hybrid spectrometer.
Sampling: TRANSMISSION
Resolution: 4
Origin: DOW CHEMICAL COMPANY
MICROMETERS	TRANSMITTANCE
2.055	0.507
2.09624	0.511
2.13747	0.521
2.17871	0.521
2.21994	0.523
2.26118	0.526
2.30241	0.536
2.34365	0.55
2.38489	0.562
2.42612	0.578
2.46736	0.588
2.50859	0.607
2.54983	0.614
2.59106	0.629
2.6323	0.638
2.67354	0.644
2.71477	0.631
2.75601	0.646
2.79724	0.668
2.83848	0.679
2.87972	0.574
2.92095	0.32
2.96219	0.336
3.00342	0.42
3.04466	0.384
3.08589	0.255
3.12713	0.231
3.16837	0.334
3.2096	0.394
3.25084	0.425
3.29207	0.397
3.33331	0.173
3.37454	0.034
3.41578	0.114
3.45702	0.19
3.49825	0.557
3.53949	0.629
3.58072	0.639
3.62196	0.67
3.66319	0.687
3.70443	0.698
3.74567	0.713
3.7869	0.723
3.82814	0.735
3.86937	0.744
3.91061	0.754
3.95185	0.763
3.99308	0.768
4.03432	0.771
4.07555	0.78
4.11679	0.783
4.15802	0.782
4.19926	0.787
4.2405	0.801
4.28173	0.806
4.32297	0.806
4.3642	0.811
4.40544	0.819
4.44667	0.819
4.48791	0.819
4.52915	0.826
4.57038	0.833
4.61162	0.842
4.65285	0.845
4.69409	0.849
4.73532	0.85
4.77656	0.854
4.8178	0.861
4.85903	0.869
4.90027	0.873
4.9415	0.876
4.98274	0.881
5.02398	0.886
5.06521	0.888
5.10645	0.888
5.14768	0.876
5.18892	0.876
5.23015	0.891
5.27139	0.897
5.31263	0.9
5.35386	0.9
5.3951	0.9
5.43633	0.898
5.47757	0.883
5.5188	0.879
5.56004	0.895
5.60128	0.888
5.64251	0.878
5.68375	0.859
5.72498	0.842
5.76622	0.813
5.80745	0.751
5.84869	0.624
5.88993	0.452
5.93116	0.301
5.9724	0.198
6.01363	0.301
6.05487	0.401
6.09611	0.31
6.13734	0.265
6.17858	0.348
6.21981	0.413
6.26105	0.409
6.30228	0.526
6.34352	0.614
6.38476	0.73
6.42599	0.77
6.46723	0.797
6.50846	0.809
6.5497	0.801
6.59093	0.747
6.63217	0.595
6.67341	0.387
6.71464	0.233
6.75588	0.307
6.79711	0.301
6.83835	0.365
6.87958	0.488
6.92082	0.548
6.96206	0.523
7.00329	0.382
7.04453	0.284
7.08576	0.358
7.127	0.457
7.16824	0.504
7.20947	0.38
7.25071	0.329
7.29194	0.439
7.33318	0.54
7.37441	0.574
7.41565	0.603
7.45689	0.634
7.49812	0.648
7.53936	0.658
7.58059	0.656
7.62183	0.656
7.66306	0.66
7.7043	0.66
7.74554	0.655
7.78677	0.653
7.82801	0.648
7.86924	0.634
7.91048	0.602
7.95171	0.567
7.99295	0.487
8.03419	0.361
8.07542	0.245
8.11666	0.161
8.15789	0.137
8.19913	0.205
8.24037	0.288
8.2816	0.265
8.32284	0.171
8.36407	0.156
8.40531	0.15
8.44654	0.262
8.48778	0.312
8.52902	0.37
8.57025	0.499
8.61149	0.579
8.65272	0.572
8.69396	0.557
8.73519	0.567
8.77643	0.495
8.81767	0.421
8.8589	0.473
8.90014	0.667
8.94137	0.708
8.98261	0.655
9.02384	0.583
9.06508	0.512
9.10632	0.576
9.14755	0.538
9.18879	0.457
9.23002	0.576
9.27126	0.653
9.3125	0.716
9.35373	0.794
9.39497	0.819
9.4362	0.833
9.47744	0.825
9.51867	0.71
9.55991	0.463
9.60115	0.459
9.64238	0.653
9.68362	0.72
9.72485	0.789
9.76609	0.821
9.80732	0.704
9.84856	0.425
9.8898	0.298
9.93103	0.428
9.97227	0.703
10.0135	0.795
10.0547	0.835
10.096	0.852
10.1372	0.867
10.1784	0.871
10.2197	0.869
10.2609	0.855
10.3022	0.861
10.3434	0.881
10.3846	0.857
10.4259	0.845
10.4671	0.886
10.5083	0.895
10.5496	0.902
10.5908	0.903
10.632	0.895
10.6733	0.847
10.7145	0.682
10.7557	0.579
10.797	0.751
10.8382	0.849
10.8795	0.869
10.9207	0.891
10.9619	0.902
11.0032	0.907
11.0444	0.912
11.0856	0.914
11.1269	0.91
11.1681	0.888
11.2093	0.849
11.2506	0.744
11.2918	0.708
11.333	0.819
11.3743	0.854
11.4155	0.876
11.4568	0.898
11.498	0.914
11.5392	0.914
11.5805	0.915
11.6217	0.914
11.6629	0.909
11.7042	0.897
11.7454	0.874
11.7866	0.83
11.8279	0.708
11.8691	0.65
11.9103	0.751
11.9516	0.789
11.9928	0.74
12.0341	0.531
12.0753	0.391
12.1165	0.418
12.1578	0.691
12.199	0.78
12.2402	0.814
12.2815	0.826
12.3227	0.83
12.3639	0.821
12.4052	0.811
12.4464	0.799
12.4876	0.785
12.5289	0.777
12.5701	0.77
12.6114	0.771
12.6526	0.78
12.6938	0.792
12.7351	0.801
12.7763	0.802
12.8175	0.804
12.8588	0.799
12.9	0.78
12.9412	0.751
12.9825	0.703
13.0237	0.595
13.0649	0.459
13.1062	0.368
13.1474	0.276
13.1887	0.271
13.2299	0.274
13.2711	0.296
13.3124	0.411
13.3536	0.531
13.3948	0.569
13.4361	0.578
13.4773	0.571
13.5185	0.559
13.5598	0.552
13.601	0.552
13.6423	0.56
13.6835	0.569
13.7247	0.576
13.766	0.579
13.8072	0.574
13.8484	0.56
13.8897	0.542
13.9309	0.504
13.9721	0.461
14.0134	0.409
14.0546	0.399
14.0958	0.396
14.1371	0.399
14.1783	0.439
14.2196	0.49
14.2608	0.538
14.302	0.559
14.3433	0.567
14.3845	0.569
14.4257	0.562
14.467	0.55
14.5082	0.533
14.5494	0.521
14.5907	0.507
14.6319	0.493
14.6731	0.475
14.7144	0.451
14.7556	0.433
14.7969	0.416
14.8381	0.392
14.8793	0.38
14.9206	0.37
14.9618	0.358
15.003	0.346
15.0443	0.334
15.0855	0.319
15.1267	0.301
15.168	0.281
15.2092	0.243
15.2504	0.209
15.2917	0.198
15.3329	0.205
15.3742	0.228
15.4154	0.246
15.4566	0.252
15.4979	0.246
15.5391	0.224
15.5803	0.217
15.6216	0.219
15.6628	0.229
15.704	0.243
15.7453	0.253
15.7865	0.262
15.8277	0.269
15.869	0.272
