Infrared Spectrum: SEC-BUTYLAMINOACETONITRILE
Formula: C6 H12 N2
CAS: 56095-81-9
Class: COBLENTZ
Instrument: PERKIN-ELMER
Sampling: TRANSMISSION
Path length: CAPILLARY
Resolution: 4
Origin: ABBOTT LABORATORIES - WASHBURN
MICROMETERS	TRANSMITTANCE
2.026	0.88
2.05889	0.877
2.09179	0.872
2.12468	0.879
2.15758	0.8719
2.19047	0.88
2.22337	0.8763
2.25626	0.8393
2.28916	0.834
2.32205	0.841
2.35495	0.854
2.38784	0.854
2.42074	0.8441
2.45363	0.8537
2.48653	0.8609
2.51942	0.867
2.55232	0.874
2.58521	0.869
2.61811	0.872
2.651	0.866
2.6839	0.8611
2.71679	0.8261
2.74969	0.814
2.78258	0.8031
2.81548	0.8112
2.84837	0.7933
2.88127	0.7612
2.91416	0.645
2.94706	0.431
2.97995	0.5519
3.01285	0.6556
3.04574	0.7379
3.07864	0.758
3.11153	0.7659
3.14443	0.778
3.17732	0.775
3.21022	0.7704
3.24311	0.7389
3.27601	0.5799
3.3089	0.0871
3.3418	0.1167
3.37469	0.1188
3.40759	0.2507
3.44048	0.218
3.47338	0.32
3.50627	0.4352
3.53917	0.5575
3.57206	0.6942
3.60496	0.74
3.63785	0.7519
3.67075	0.7749
3.70364	0.765
3.73654	0.765
3.76943	0.7598
3.80233	0.771
3.83522	0.7759
3.86812	0.8032
3.90101	0.824
3.93391	0.836
3.9668	0.839
3.9997	0.846
4.03259	0.838
4.06549	0.839
4.09838	0.834
4.13128	0.8378
4.16417	0.839
4.19707	0.833
4.22996	0.838
4.26286	0.839
4.29575	0.838
4.32865	0.839
4.36154	0.8381
4.39444	0.8098
4.42733	0.7253
4.46023	0.781
4.49312	0.8286
4.52602	0.838
4.55891	0.839
4.59181	0.839
4.6247	0.841
4.6576	0.8439
4.69049	0.842
4.72339	0.842
4.75628	0.844
4.78918	0.841
4.82207	0.844
4.85497	0.844
4.88786	0.846
4.92076	0.841
4.95365	0.8441
4.98655	0.841
5.01944	0.844
5.05234	0.842
5.08523	0.8333
5.11813	0.8403
5.15102	0.8401
5.18392	0.842
5.21681	0.8405
5.24971	0.835
5.2826	0.839
5.3155	0.8403
5.34839	0.836
5.38129	0.836
5.41418	0.841
5.44708	0.8411
5.47997	0.838
5.51287	0.842
5.54576	0.842
5.57866	0.8318
5.61155	0.8384
5.64445	0.8325
5.67734	0.822
5.71024	0.8083
5.74313	0.816
5.77603	0.812
5.80892	0.8079
5.84182	0.8109
5.87471	0.8047
5.90761	0.7996
5.9405	0.7902
5.9734	0.7803
6.00629	0.7667
6.03919	0.7604
6.07208	0.7652
6.10498	0.7661
6.13787	0.771
6.17077	0.776
6.20366	0.7778
6.23656	0.768
6.26945	0.7567
6.30235	0.748
6.33524	0.7477
6.36814	0.755
6.40103	0.755
6.43393	0.755
6.46682	0.752
6.49972	0.7491
6.53261	0.7376
6.56551	0.7172
6.5984	0.6952
6.6313	0.615
6.66419	0.5
6.69709	0.4422
6.72998	0.3552
6.76288	0.2652
6.79577	0.1767
6.82867	0.2034
6.86156	0.2401
6.89446	0.3236
6.92735	0.3826
6.96025	0.4047
6.99314	0.3208
7.02604	0.3828
7.05893	0.5428
7.09183	0.5886
7.12472	0.6059
7.15762	0.5788
7.19051	0.3912
7.22341	0.1627
7.2563	0.2847
7.2892	0.4656
7.32209	0.4211
7.35499	0.3851
7.38788	0.4585
7.42078	0.52
7.45367	0.5423
7.48657	0.4981
7.51946	0.4857
7.55236	0.542
7.58525	0.5898
7.61815	0.595
7.65104	0.6119
7.68394	0.6561
7.71683	0.6907
7.74973	0.7096
7.78262	0.7
7.81552	0.6652
7.84841	0.6517
7.88131	0.643
7.9142	0.6523
7.9471	0.6591
7.97999	0.6789
8.01289	0.6946
8.04578	0.707
8.07868	0.7073
8.11157	0.7093
8.14447	0.714
8.17736	0.7268
8.21026	0.736
8.24315	0.7421
8.27605	0.738
8.30894	0.7423
8.34184	0.7347
8.37473	0.7187
8.40763	0.6845
8.44052	0.6378
8.47342	0.5246
8.50631	0.3652
8.53921	0.2855
8.5721	0.3135
8.605	0.3444
8.63789	0.3541
8.67079	0.3119
8.70368	0.2964
8.73658	0.302
8.76947	0.3191
8.80237	0.3331
8.83526	0.3589
8.86816	0.414
8.90105	0.4557
8.93395	0.4905
8.96684	0.5197
8.99974	0.5312
9.03263	0.5225
9.06553	0.5031
9.09842	0.4768
9.13132	0.4327
9.16421	0.3793
9.19711	0.3474
9.23	0.3616
9.26289	0.432
9.29579	0.5015
9.32868	0.5922
9.36158	0.645
9.39447	0.6734
9.42737	0.6832
9.46026	0.703
9.49316	0.7083
9.52605	0.7237
9.55895	0.7258
9.59184	0.7227
9.62474	0.7086
9.65763	0.6937
9.69053	0.689
9.72342	0.6841
9.75632	0.6792
9.78921	0.667
9.82211	0.6723
9.855	0.6896
9.8879	0.699
9.92079	0.694
9.95369	0.6961
9.98658	0.6933
10.0195	0.6818
10.0524	0.6652
10.0853	0.649
10.1182	0.646
10.1511	0.6517
10.184	0.6581
10.2168	0.6525
10.2497	0.6427
10.2826	0.6296
10.3155	0.6134
10.3484	0.613
10.3813	0.5928
10.4142	0.5787
10.4471	0.5695
10.48	0.5862
10.5129	0.6531
10.5458	0.6888
10.5787	0.712
10.6116	0.7279
10.6445	0.732
10.6774	0.7257
10.7103	0.7176
10.7432	0.7091
10.7761	0.6995
10.809	0.6911
10.8419	0.6814
10.8747	0.6735
10.9076	0.667
10.9405	0.662
10.9734	0.656
11.0063	0.647
11.0392	0.6195
11.0721	0.5938
11.105	0.5715
11.1379	0.534
11.1708	0.5159
11.2037	0.5184
11.2366	0.523
11.2695	0.5221
11.3024	0.508
11.3353	0.4569
11.3682	0.4127
11.4011	0.3552
11.434	0.2891
11.4669	0.2693
11.4998	0.2594
11.5326	0.2741
11.5655	0.3151
11.5984	0.3524
11.6313	0.4147
11.6642	0.47
11.6971	0.5126
11.73	0.5454
11.7629	0.5652
11.7958	0.5775
11.8287	0.585
11.8616	0.5831
11.8945	0.5871
11.9274	0.5764
11.9603	0.5736
11.9932	0.571
12.0261	0.561
12.059	0.5591
12.0919	0.552
12.1248	0.5462
12.1577	0.5364
12.1905	0.537
12.2234	0.5221
12.2563	0.5229
12.2892	0.5091
12.3221	0.4944
12.355	0.4892
12.3879	0.48
12.4208	0.4681
12.4537	0.459
12.4866	0.4522
12.5195	0.4415
12.5524	0.4336
12.5853	0.4238
12.6182	0.413
12.6511	0.4078
12.684	0.401
12.7169	0.3902
12.7498	0.381
12.7827	0.3837
12.8156	0.3765
12.8484	0.3844
12.8813	0.3872
12.9142	0.398
12.9471	0.403
12.98	0.4204
13.0129	0.4338
13.0458	0.439
13.0787	0.442
13.1116	0.442
13.1445	0.442
13.1774	0.4381
13.2103	0.4313
13.2432	0.4238
13.2761	0.4216
13.309	0.4148
13.3419	0.413
13.3748	0.404
13.4077	0.396
13.4406	0.3975
13.4735	0.39
13.5063	0.3928
13.5392	0.3812
13.5721	0.3811
13.605	0.385
13.6379	0.38
13.6708	0.386
13.7037	0.3843
13.7366	0.3854
13.7695	0.3941
13.8024	0.3956
13.8353	0.3989
13.8682	0.4064
13.9011	0.416
13.934	0.413
13.9669	0.4181
13.9998	0.428
14.0327	0.4358
14.0656	0.4406
14.0985	0.444
14.1314	0.447
14.1642	0.466
14.1971	0.4678
14.23	0.4715
14.2629	0.4711
14.2958	0.483
14.3287	0.4875
14.3616	0.4923
14.3945	0.5042
14.4274	0.51
14.4603	0.5138
14.4932	0.5186
14.5261	0.522
14.559	0.525
14.5919	0.533
14.6248	0.535
14.6577	0.538
14.6906	0.542
14.7235	0.5456
14.7564	0.553
14.7893	0.5582
14.8221	0.555
14.855	0.56
14.8879	0.5655
14.9208	0.5708
14.9537	0.5808
14.9866	0.585
