Infrared Spectrum: MORPHINE, DIACETYL-
Formula: C21 H23 N O5
CAS: 561-27-3
State: SOLID (1.2 mg / 250 mg KBr DISC)
Melting point: 173 C
Boiling point: 272-274 C AT 12 mmHg
Class: COBLENTZ III
Instrument: PERKIN-ELMER 21 (GRATING)
Instrument parameters: FILTER AT ABOUT 10 MICRONS
Sampling: TRANSMISSION
Resolution: 2
Origin: BUREAU OF CUSTOMS
1/CM	TRANSMITTANCE
4000	0.9261
3991	0.9264
3982	0.9267
3973	0.927
3964	0.9274
3955	0.9278
3946	0.9281
3937	0.9285
3928	0.9285
3919	0.9286
3910	0.9288
3901	0.9289
3892	0.9291
3883	0.9292
3874	0.9292
3865	0.9292
3856	0.9285
3847	0.9275
3838	0.9268
3829	0.9274
3820	0.9283
3811	0.9291
3802	0.9301
3793	0.931
3784	0.9312
3775	0.9314
3766	0.9316
3757	0.9318
3748	0.932
3739	0.9321
3730	0.9318
3721	0.9314
3712	0.9309
3703	0.9304
3694	0.9299
3685	0.9294
3676	0.9289
3667	0.9284
3658	0.9275
3649	0.9265
3640	0.9255
3631	0.9244
3622	0.9234
3613	0.922
3604	0.9204
3595	0.9185
3586	0.916
3577	0.9133
3568	0.9105
3559	0.9078
3550	0.9053
3541	0.9027
3532	0.9001
3523	0.8981
3514	0.8973
3505	0.8965
3496	0.8957
3487	0.8955
3478	0.8957
3469	0.8959
3460	0.896
3451	0.8964
3442	0.8978
3433	0.8993
3424	0.9011
3415	0.9039
3406	0.9068
3397	0.9107
3388	0.9154
3379	0.92
3370	0.9216
3361	0.9228
3352	0.9242
3343	0.9248
3334	0.9254
3325	0.926
3316	0.9266
3307	0.9271
3298	0.9278
3289	0.9285
3280	0.9292
3271	0.9298
3262	0.9305
3253	0.9314
3244	0.9321
3235	0.9331
3226	0.9339
3217	0.9346
3208	0.935
3199	0.9354
3190	0.9359
3181	0.9363
3172	0.9368
3163	0.9371
3154	0.9371
3145	0.9373
3136	0.9368
3127	0.9364
3118	0.9357
3109	0.9341
3100	0.9318
3091	0.9273
3082	0.9082
3073	0.8966
3064	0.8897
3055	0.889
3046	0.8907
3037	0.8971
3028	0.9025
3019	0.9047
3010	0.8867
3001	0.8474
2992	0.8078
2983	0.7678
2974	0.7278
2965	0.6875
2956	0.6468
2947	0.623
2938	0.6239
2929	0.6383
2920	0.6533
2911	0.6801
2902	0.7151
2893	0.7412
2884	0.7419
2875	0.7706
2866	0.8087
2857	0.8467
2848	0.8398
2839	0.7908
2830	0.7439
2821	0.74
2812	0.8221
2803	0.8696
2794	0.8875
2785	0.9034
2776	0.9135
2767	0.9198
2758	0.9244
2749	0.9264
2740	0.9277
2731	0.9274
2722	0.9271
2713	0.9301
2704	0.9337
2695	0.9368
2686	0.9388
2677	0.9408
2668	0.9425
2659	0.9439
2650	0.9453
2641	0.9467
2632	0.9478
2623	0.9487
2614	0.9494
2605	0.9498
2596	0.949
2587	0.9475
2578	0.9471
2569	0.9473
2560	0.9477
2551	0.9486
2542	0.9495
2533	0.9503
2524	0.9513
2515	0.9523
2506	0.9525
2497	0.9528
2488	0.9531
2479	0.9534
2470	0.9537
2461	0.9537
2452	0.9535
2443	0.9532
2434	0.9528
2425	0.9525
2416	0.9523
2407	0.9517
2398	0.9506
2389	0.9495
2380	0.9475
2371	0.9453
2362	0.943
2353	0.9409
2344	0.9403
2335	0.94
2326	0.9427
2317	0.9455
2308	0.9485
2299	0.9509
2290	0.9532
2281	0.9555
2272	0.9577
2263	0.9588
2254	0.9599
2245	0.9609
2236	0.9616
2227	0.9621
2218	0.9627
2209	0.9628
2200	0.9631
2191	0.9633
2182	0.9634
2173	0.9632
2164	0.9624
2155	0.958
2146	0.9536
2137	0.9527
2128	0.9527
2119	0.9528
2110	0.9536
2101	0.9545
2092	0.9561
2083	0.9575
2074	0.9589
2065	0.9602
2056	0.9615
2047	0.9627
2038	0.9634
2029	0.9642
2020	0.9649
2011	0.9654
2002	0.9657
1993	0.9661
1984	0.9666
1975	0.967
1966	0.9675
1957	0.9675
1948	0.9675
1939	0.9664
1930	0.9633
1921	0.9581
1912	0.9552
1903	0.9543
1894	0.9533
1885	0.9515
1876	0.949
1867	0.946
1858	0.9421
1849	0.9363
1840	0.9193
1831	0.903
1822	0.8951
1813	0.8768
1804	0.7907
1795	0.6285
1786	0.4115
1777	0.1923
1768	0.3162
1759	0.2881
1750	0.2569
1741	0.6105
1732	0.7975
1723	0.8343
1714	0.8455
1705	0.8789
1696	0.9012
1687	0.9083
1678	0.9087
1669	0.899
1660	0.8854
1651	0.8775
1642	0.8284
1633	0.7022
1624	0.8574
1615	0.8897
1606	0.9095
1597	0.9197
1588	0.9252
1579	0.9282
1570	0.9295
1561	0.9291
1552	0.9271
1543	0.9228
1534	0.9144
1525	0.8982
1516	0.8583
1507	0.7758
1498	0.5822
1489	0.7661
1480	0.8216
1471	0.6758
1462	0.4236
1453	0.5436
1444	0.7033
1435	0.7371
1426	0.7678
1417	0.8414
1408	0.8459
1399	0.8265
1390	0.7622
1381	0.433
1372	0.375
1363	0.6747
1354	0.7201
1345	0.8196
1336	0.839
1327	0.7815
1318	0.818
1309	0.8537
1300	0.7937
1291	0.6421
1282	0.7289
1273	0.6564
1264	0.6006
1255	0.4448
1246	0.1901
1237	0.0619
1228	0.1716
1219	0.2712
1210	0.2981
1201	0.2594
1192	0.2895
1183	0.5093
1174	0.4878
1165	0.6269
1156	0.5752
1147	0.6589
1138	0.7132
1129	0.7758
1120	0.7688
1111	0.7542
1102	0.5254
1093	0.7764
1084	0.8467
1075	0.7632
1066	0.6943
1057	0.2784
1048	0.4758
1039	0.4148
1030	0.7671
1021	0.7496
1012	0.6319
1003	0.7832
994	0.8427
985	0.7889
976	0.8017
967	0.7348
958	0.8155
949	0.7867
940	0.7458
931	0.8865
922	0.8978
913	0.7017
904	0.7964
895	0.7954
886	0.616
877	0.8447
868	0.8324
859	0.9051
850	0.9093
841	0.8297
832	0.848
823	0.8164
814	0.8261
805	0.884
796	0.9078
787	0.8728
778	0.6144
769	0.7661
760	0.874
751	0.9153
742	0.8986
733	0.904
724	0.8803
715	0.9132
706	0.9081
697	0.8878
688	0.8447
679	0.7071
670	0.8278
661	0.7445
652	0.8256
