Infrared Spectrum: 4-Chloro-3-nitrobenzophenone
Formula: C 13 H 8 Cl N O 3
CAS: 56107-02-9
State: gas
Instrument: HP-GC/MS/IRD
Origin: NIST Mass Spectrometry Data Center
1/CM	ABSORBANCE
550	0.0038766
562	0.0022841
574	0.001729
586	0.0008736
598	0.0001638
610	0.0002093
622	0.0006734
634	0.0010101
646	0.0026572
658	0.0086086
670	0.0274092
682	0.0180362
694	0.0270816
706	0.020293
718	0.0251069
730	0.0222677
742	0.0079807
754	0.0092638
766	0.0131313
778	0.0069433
790	0.0103649
802	0.0031668
814	0.0023478
826	0.0062062
838	0.0126763
850	0.0050596
862	0.008372
874	0.010374
886	0.0029666
898	0.0036309
910	0.0074529
922	0.0059969
934	0.0051688
946	0.0134498
958	0.0339885
970	0.0287833
982	0.0095914
994	0.004095
1006	0.004004
1018	0.0024843
1030	0.0071708
1042	0.024661
1054	0.0422058
1066	0.0099099
1078	0.0036218
1090	0.0018746
1102	0.001911
1114	0.0026572
1126	0.0055146
1138	0.0064701
1150	0.0057421
1162	0.0063336
1174	0.0104377
1186	0.0141323
1198	0.0058695
1210	0.0081809
1222	0.0147602
1234	0.0341432
1246	0.0736281
1258	0.0459095
1270	0.0631085
1282	0.0829738
1294	0.0584402
1306	0.0322413
1318	0.0284193
1330	0.0206479
1342	0.0361725
1354	0.0554645
1366	0.0295204
1378	0.0130858
1390	0.0097552
1402	0.0065247
1414	0.0046228
1426	0.0046046
1438	0.0071435
1450	0.0127127
1462	0.0072436
1474	0.0098371
1486	0.0062335
1498	0.0073892
1510	0.0123851
1522	0.0213213
1534	0.0347529
1546	0.0640458
1558	0.0871507
1570	0.0527982
1582	0.0412321
1594	0.0506779
1606	0.0495768
1618	0.015197
1630	0.0081536
1642	0.0077623
1654	0.0090818
1666	0.0157157
1678	0.057148
1690	0.082082
1702	0.0251433
1714	0.0106834
1726	0.0067977
1738	0.0036309
1750	0.0018928
1762	0.0016198
1774	0.0017199
1786	0.001456
1798	0.0019565
1810	0.0027482
1822	0.0016562
1834	0.0008645
1846	0.0004641
1858	0.0003458
1870	0.0003367
1882	0.000546
1894	0.0010647
1906	0.0013832
1918	0.0013923
1930	0.0010647
1942	0.0009191
1954	0.0013923
1966	0.001183
1978	0.000728
1990	0.0001547
2002	8.19e-05
2014	0.0001183
2026	0.0001092
2038	3.64e-05
2050	2.73e-05
2062	3.64e-05
2074	0
2086	1.82e-05
2098	6.37e-05
2110	0.0001365
2122	0.0001365
2134	0.0001183
2146	0.0001274
2158	0.0001092
2170	0.0001001
2182	7.28e-05
2194	0.0001183
2206	0.0001001
2218	0.0001001
2230	9.1e-05
2242	0.000182
2254	0.0002002
2266	0.0001729
2278	0.0001911
2290	0.0002457
2302	0.0002548
2314	0.0003822
2326	0.000455
2338	0.000364
2350	0.0003276
2362	0.0002548
2374	0.0002912
2386	0.0003549
2398	0.0004459
2410	0.0005551
2422	0.0004732
2434	0.0004368
2446	0.0003185
2458	0.0001365
2470	9.1e-05
2482	0.0001001
2494	9.1e-05
2506	0.0001456
2518	0.0002275
2530	0.0002821
2542	0.0003003
2554	0.0003731
2566	0.0003276
2578	0.0003458
2590	0.0003458
2602	0.0003913
2614	0.0003549
2626	0.0003185
2638	0.000273
2650	0.0003367
2662	0.0002548
2674	0.0002639
2686	0.0003822
2698	0.0004459
2710	0.0004368
2722	0.0004186
2734	0.0004004
2746	0.0004368
2758	0.0004186
2770	0.000364
2782	0.0001274
2794	7.28e-05
2806	0.0001365
2818	0.0002912
2830	0.0004004
2842	0.0006552
2854	0.0008463
2866	0.001183
2878	0.0014378
2890	0.0016744
2902	0.0017108
2914	0.001274
2926	0.0008645
2938	0.0006825
2950	0.0005096
2962	0.000364
2974	0.0003549
2986	0.000364
2998	0.0005187
3010	0.0009919
3022	0.0024297
3034	0.0052325
3046	0.0051506
3058	0.0056875
3070	0.0136682
3082	0.0126581
3094	0.0089089
3106	0.0043316
3118	0.001638
3130	0.0008918
3142	0.0005369
3154	0.0006279
3166	0.0005369
3178	0.0002639
3190	0.000182
3202	0.0002002
3214	0.000182
3226	0.0001183
3238	5.46e-05
3250	0.0001001
3262	3.64e-05
3274	0.0001274
3286	0.0001183
3298	0.0001729
3310	0.0003185
3322	0.0003276
3334	0.0005005
3346	0.0012376
3358	0.0013286
3370	0.0008645
3382	0.000546
3394	0.0004186
3406	0.0003549
3418	0.0002548
3430	0.0001638
3442	0.0001729
3454	0.0002457
3466	0.0002093
3478	0.0001183
3490	0.0002184
3502	0.0001638
3514	0.0001911
3526	0.0001729
3538	0.0001638
3550	0.0001638
3562	0.0001911
3574	0.0001456
3586	0.0001729
3598	0.000182
3610	0.0002275
3622	0.0002275
3634	0.0002548
3646	0.0002548
3658	0.0003913
3670	0.0002366
3682	0.0002821
3694	0.0004095
3706	0.0003731
3718	0.0003822
3730	0.0003731
3742	0.000364
3754	0.0003913
3766	0.0003913
3778	0.0003913
3790	0.0002548
3802	0.0002912
3814	0.0003458
3826	0.0003276
3838	0.0003185
