Infrared Spectrum: 3,5-Dichloro-4-aminobenzoic acid
Formula: C 7 H 5 Cl 2 N O 2
CAS: 56187-37-2
State: gas
Origin: EPA-IR VAPOR PHASE LIBRARY
1/CM	ABSORBANCE
501.5	0.002782
513.074	0.003172
524.648	0.003282
536.222	0.002202
547.796	0.001542
559.37	0.002012
570.944	0.002352
582.518	0.003112
594.092	0.002882
605.666	0.001852
617.24	0.002232
628.814	0.006332
640.388	0.006272
651.962	0.001852
663.536	0.0011403
675.11	0.0009545
686.684	0.0010841
698.258	0.0011733
709.832	0.001712
721.406	0.002392
732.98	0.002002
744.554	0.001942
756.128	0.003202
767.702	0.004132
779.276	0.004432
790.85	0.005942
802.423	0.003402
813.997	0.002242
825.571	0.002012
837.145	0.001572
848.719	0.0013165
860.293	0.0011452
871.867	0.0010694
883.441	0.0011696
895.015	0.001932
906.589	0.001812
918.163	0.0011133
929.737	0.001006
941.311	0.0009427
952.885	0.0010153
964.459	0.0009451
976.033	0.0009729
987.607	0.0009515
999.181	0.0009305
1010.76	0.0009705
1022.33	0.0009582
1033.9	0.0010651
1045.48	0.0012404
1057.05	0.001682
1068.63	0.002412
1080.2	0.003022
1091.77	0.005012
1103.35	0.012082
1114.92	0.007152
1126.49	0.003052
1138.07	0.002952
1149.64	0.003342
1161.22	0.004302
1172.79	0.006712
1184.36	0.012362
1195.94	0.010352
1207.51	0.003232
1219.09	0.001552
1230.66	0.001397
1242.23	0.001502
1253.81	0.001592
1265.38	0.002092
1276.96	0.002342
1288.53	0.002282
1300.1	0.002822
1311.68	0.003632
1323.25	0.005432
1334.83	0.007372
1346.4	0.006922
1357.97	0.004592
1369.55	0.005112
1381.12	0.003292
1392.7	0.003452
1404.27	0.003872
1415.84	0.002722
1427.42	0.0013735
1438.99	0.0010377
1450.57	0.0010698
1462.14	0.0012699
1473.71	0.002352
1485.29	0.004522
1496.86	0.002962
1508.44	0.0011734
1520.01	0.0009578
1531.58	0.0009488
1543.16	0.0011781
1554.73	0.002242
1566.31	0.002552
1577.88	0.001642
1589.45	0.001932
1601.03	0.004222
1612.6	0.011522
1624.18	0.009592
1635.75	0.003092
1647.32	0.001672
1658.9	0.0012588
1670.47	0.0010375
1682.05	0.0008887
1693.62	0.0010567
1705.19	0.001572
1716.77	0.001492
1728.34	0.001582
1739.92	0.003692
1751.49	0.019252
1763.06	0.022992
1774.64	0.003242
1786.21	0.001622
1797.79	0.0011535
1809.36	0.0013364
1820.93	0.0010057
1832.51	0.00051674
1844.08	0.00044146
1855.66	0.00044991
1867.23	0.0003957
1878.8	0.0003909
1890.38	0.00046654
1901.95	0.0005784
1913.53	0.00046953
1925.1	0.00044151
1936.67	0.00044014
1948.25	0.00048338
1959.82	0.00047756
1971.4	0.00046215
1982.97	0.00043299
1994.54	0.000426389
2006.12	0.000430298
2017.69	0.0004112
2029.27	0.000428865
2040.84	0.000356
2052.41	0.000427394
2063.99	0.00041347
2075.56	0.000430882
2087.14	0.00043496
2098.71	0.000428656
2110.28	0.00041347
2121.86	0.0003869
2133.43	0.0003956
2145.01	0.00044176
2156.58	0.000422163
2168.15	0.000431251
2179.73	0.0003936
2191.3	0.0004437
2202.88	0.00043446
2214.45	0.00041617
2226.02	0.00041318
2237.6	0.000395
2249.17	0.0004034
2260.74	0.00041
2272.32	0.0003814
2283.89	0.0003947
2295.47	0.0003649
2307.04	0.0003624
2318.61	0.0003687
2330.19	0.0003763
2341.76	0.0004015
2353.34	0.0003797
2364.91	0.0003655
2376.48	0.00041461
2388.06	0.0003783
2399.63	0.0003826
2411.21	0.0003591
2422.78	0.0003525
2434.35	0.0003661
2445.93	0.0003515
2457.5	0.0003709
2469.08	0.000336
2480.65	0.0003327
2492.22	0.0003363
2503.8	0.0003248
2515.37	0.0003313
2526.95	0.0003326
2538.52	0.0003897
2550.09	0.0003639
2561.67	0.0003504
2573.24	0.000268
2584.82	0.0003384
2596.39	0.000321
2607.96	0.0003862
2619.54	0.00044462
2631.11	0.00047237
2642.69	0.000403
2654.26	0.0003468
2665.83	0.000304
2677.41	0.000264
2688.98	0.000273
2700.56	0.000252
2712.13	0.000307
2723.7	0.000281
2735.28	0.000248
2746.85	0.000309
2758.43	0.000304
2770	0.000256
2781.57	0.000238
2793.15	0.000273
2804.72	0.000259
2816.3	0.000271
2827.87	0.000263
2839.44	0.00027
2851.02	0.000206
2862.59	0.000217
2874.17	0.000196
2885.74	0.000227
2897.31	0.000246
2908.89	0.000232
2920.46	0.000183
2932.04	0
2943.61	0.000102
2955.18	0.000156
2966.76	0.000127
2978.33	0.000214
2989.91	0.000259
3001.48	0.000239
3013.05	0.000243
3024.63	0.000303
3036.2	0.00021
3047.78	0.000278
3059.35	0.000227
3070.92	0.000266
3082.5	0.0003514
3094.07	0.0003878
3105.65	0.000399
3117.22	0.0003818
3128.79	0.000307
3140.37	0.000261
3151.94	0.000195
3163.52	0.000216
3175.09	0.00028
3186.66	0.000234
3198.24	0.000315
3209.81	0.000189
3221.39	0.000259
3232.96	0.000215
3244.53	0.000226
3256.11	0.000127
3267.68	0.000207
3279.26	0.000146
3290.83	0.000161
3302.4	0.000192
3313.98	0.000302
3325.55	0.000224
3337.13	0.0003
3348.7	0.000223
3360.27	0.000271
3371.85	0.000292
3383.42	0.00043643
3395	0.0007947
3406.57	0.001752
3418.14	0.002222
3429.72	0.002402
3441.29	0.001432
3452.86	0.0005315
3464.44	0.0004646
3476.01	0.0006456
3487.59	0.0007971
3499.16	0.0012851
3510.73	0.001782
3522.31	0.001622
3533.88	0.001862
3545.46	0.0012905
3557.03	0.0006882
3568.6	0.0012149
3580.18	0.006602
3591.75	0.005862
3603.33	0.0006784
3614.9	0.0004089
3626.47	0.00023
3638.05	0.000249
3649.62	0.000233
3661.2	0.000196
3672.77	0.000168
3684.34	0.000248
3695.92	0.000249
3707.49	0.0003268
3719.07	0.000298
3730.64	0.000223
3742.21	0.000215
3753.79	0.000144
3765.36	0.000184
3776.94	0.000246
3788.51	0.00023
3800.08	0.000105
3811.66	0.00015
3823.23	0.000285
3834.81	0.000229
3846.38	0.000222
3857.95	0.00019
3869.53	0.000206
3881.1	0.000224
3892.68	0.000177
3904.25	0.000202
3915.82	0.000182
3927.4	0.000297
3938.97	0.000215
3950.55	0.000244
3962.12	0.000243
3973.69	0.000153
3985.27	0.000113
3996.84	0.000209
