Infrared Spectrum: Terpinen-4-ol
Formula: C10 H18 O
CAS: 562-74-3
State: LIQUID (NEAT)
Class: COBLENTZ III
Instrument: BECKMAN IR-12 (GRATING)
Instrument parameters: GRATING
Sampling: TRANSMISSION
Path length: CAPILLARY
Resolution: 2
Origin: COLGATE-PALMOLIVE COMPANY (KELLENBACH)
1/CM	TRANSMITTANCE
404	0.7214
413	0.7578
422	0.7709
431	0.7244
440	0.7656
449	0.7885
458	0.7929
467	0.7916
476	0.8295
485	0.8348
494	0.8416
503	0.8665
512	0.8737
521	0.8685
530	0.8531
539	0.8336
548	0.8075
557	0.7964
566	0.7797
575	0.7863
584	0.7856
593	0.7796
602	0.7716
611	0.778
620	0.7901
629	0.8073
638	0.7904
647	0.7851
656	0.7732
665	0.7845
674	0.7907
683	0.7832
692	0.8035
701	0.8232
710	0.8311
719	0.8316
728	0.7978
737	0.8484
746	0.8585
755	0.8546
764	0.8029
773	0.8172
782	0.8397
791	0.7739
800	0.5887
809	0.7614
818	0.8457
827	0.8489
836	0.7835
845	0.8385
854	0.7009
863	0.5353
872	0.724
881	0.4611
890	0.5492
899	0.7625
908	0.7963
917	0.5855
926	0.4986
935	0.7479
944	0.6574
953	0.6642
962	0.7832
971	0.8081
980	0.7601
989	0.5656
998	0.4683
1007	0.4704
1016	0.465
1025	0.4449
1034	0.7426
1043	0.7016
1052	0.6856
1061	0.4852
1070	0.4394
1079	0.654
1088	0.6911
1097	0.7505
1106	0.7378
1115	0.613
1124	0.5397
1133	0.6516
1142	0.659
1151	0.5843
1160	0.5486
1169	0.5795
1178	0.5824
1187	0.6238
1196	0.6652
1205	0.6779
1214	0.5559
1223	0.5497
1232	0.6658
1241	0.5933
1250	0.5956
1259	0.7293
1268	0.7412
1277	0.6852
1286	0.6254
1295	0.5859
1304	0.5971
1313	0.6298
1322	0.6828
1331	0.705
1340	0.6975
1349	0.6587
1358	0.4759
1367	0.4543
1376	0.4048
1385	0.5136
1394	0.6268
1403	0.6613
1412	0.6701
1421	0.588
1430	0.4597
1439	0.4013
1448	0.4382
1457	0.4665
1466	0.4402
1475	0.6189
1484	0.7835
1493	0.8238
1502	0.8337
1511	0.8396
1520	0.8445
1529	0.8618
1538	0.8669
1547	0.8659
1556	0.8644
1565	0.8625
1574	0.8591
1583	0.8553
1592	0.8529
1601	0.8561
1610	0.8526
1619	0.8481
1628	0.836
1637	0.827
1646	0.8437
1655	0.8389
1664	0.8315
1673	0.8178
1682	0.8241
1691	0.8586
1700	0.8647
1709	0.8662
1718	0.8738
1727	0.8797
1736	0.8721
1745	0.8788
1754	0.8868
1763	0.893
1772	0.8966
1781	0.8966
1790	0.8966
1799	0.8966
1808	0.8966
1817	0.8966
1826	0.8966
1835	0.8966
1844	0.8967
1853	0.8967
1862	0.8967
1871	0.8967
1880	0.8967
1889	0.8967
1898	0.8967
1907	0.8967
1916	0.8967
1925	0.8967
1934	0.8967
1943	0.8968
1952	0.8968
1961	0.8968
1970	0.8968
1979	0.8968
1988	0.8968
1997	0.8998
2006	0.9017
2015	0.9015
2024	0.9014
2033	0.9012
2042	0.9011
2051	0.901
2060	0.9009
2069	0.9007
2078	0.9006
2087	0.9004
2096	0.9003
2105	0.9002
2114	0.9001
2123	0.8999
2132	0.8998
2141	0.8996
2150	0.8995
2159	0.8994
2168	0.8992
2177	0.8991
2186	0.899
2195	0.8988
2204	0.8987
2213	0.8986
2222	0.8983
2231	0.8984
2240	0.8985
2249	0.8991
2258	0.8997
2267	0.8996
2276	0.8988
2285	0.8977
2294	0.8964
2303	0.8946
2312	0.8923
2321	0.8898
2330	0.8874
2339	0.8852
2348	0.8837
2357	0.8827
2366	0.8821
2375	0.8825
2384	0.8853
2393	0.8886
2402	0.8884
2411	0.8873
2420	0.8861
2429	0.8841
2438	0.8822
2447	0.8803
2456	0.8786
2465	0.878
2474	0.878
2483	0.8777
2492	0.8775
2501	0.877
2510	0.8763
2519	0.8756
2528	0.8742
2537	0.8721
2546	0.8701
2555	0.8676
2564	0.8637
2573	0.8596
2582	0.8548
2591	0.8513
2600	0.8512
2609	0.8527
2618	0.8554
2627	0.8581
2636	0.8586
2645	0.8558
2654	0.8515
2663	0.8488
2672	0.8476
2681	0.8471
2690	0.8472
2699	0.8382
2708	0.8063
2717	0.7865
2726	0.801
2735	0.8091
2744	0.8123
2753	0.813
2762	0.8135
2771	0.8072
2780	0.7964
2789	0.7777
2798	0.7473
2807	0.6607
2816	0.544
2825	0.3964
2834	0.398
2843	0.3465
2852	0.3405
2861	0.2331
2870	0.2065
2879	0.2008
2888	0.1775
2897	0.1558
2906	0.1468
2915	0.1532
2924	0.1687
2933	0.1781
2942	0.1627
2951	0.1313
2960	0.1654
2969	0.2957
2978	0.4261
2987	0.5565
2996	0.5873
3005	0.582
3014	0.6751
3023	0.7467
3032	0.7482
3041	0.7515
3050	0.7682
3059	0.7902
3068	0.7995
3077	0.8068
3086	0.8116
3095	0.8134
3104	0.8144
3113	0.8145
3122	0.8138
3131	0.8127
3140	0.8114
3149	0.8094
3158	0.8064
3167	0.8016
3176	0.797
3185	0.7937
3194	0.7919
3203	0.7902
3212	0.7889
3221	0.7845
3230	0.7791
3239	0.7721
3248	0.764
3257	0.7525
3266	0.7372
3275	0.7221
3284	0.7012
3293	0.68
3302	0.6588
3311	0.6376
3320	0.6164
3329	0.5928
3338	0.5678
3347	0.5439
3356	0.5221
3365	0.5031
3374	0.4886
3383	0.4741
3392	0.4603
3401	0.4474
3410	0.4351
3419	0.4261
3428	0.4182
3437	0.4116
3446	0.4077
3455	0.4068
3464	0.4101
3473	0.4182
3482	0.439
3491	0.4666
3500	0.4942
3509	0.5218
3518	0.5495
3527	0.5771
3536	0.6053
3545	0.6339
3554	0.6569
3563	0.6747
3572	0.6916
3581	0.7041
3590	0.707
3599	0.7106
3608	0.7339
3617	0.7572
3626	0.7908
3635	0.8128
3644	0.8272
3653	0.8349
3662	0.8364
3671	0.8372
3680	0.8383
3689	0.8421
3698	0.8464
3707	0.8461
3716	0.846
3725	0.8441
3734	0.8432
3743	0.8437
3752	0.8462
3761	0.8466
3770	0.8441
3779	0.8414
3788	0.8393
3797	0.8383
3806	0.8423
3815	0.842
3824	0.8409
3833	0.8394
3842	0.8378
3851	0.8362
3860	0.8346
3869	0.8332
3878	0.8318
3887	0.8306
3896	0.8296
3905	0.8286
3914	0.8276
3923	0.8269
3932	0.8263
3941	0.8256
3950	0.8249
3959	0.8242
3968	0.8235
3977	0.8229
3986	0.8235
3995	0.8241
