Infrared Spectrum: Silanetetrol, tetraacetate
Formula: C8 H12 O8 Si
CAS: 562-90-3
State: SOLUTION (2% CCl4 FOR 3800-1300, 2% CS2 FOR 1300-650, AND 2% CCl4 FOR 650-250)
Class: COBLENTZ III
Instrument: PERKIN-ELMER 521 (GRATING)
Instrument parameters: FILTERS AT 3150, 2500, 2000, 1150, 700, 410. GRATING CHANGES: 2000, 630
Path length: 0.012 CM, 0.011 CM, AND 0.010 CM
Resolution: 2
Origin: DOW CORNING CORP.
1/CM	TRANSMITTANCE
240	0.7669
249	0.7659
258	0.767
267	0.7686
276	0.7712
285	0.7742
294	0.7784
303	0.7895
312	0.808
321	0.8323
330	0.8445
339	0.851
348	0.8531
357	0.8495
366	0.8506
375	0.8469
384	0.846
393	0.829
402	0.8242
411	0.7951
420	0.7438
429	0.6125
438	0.6184
447	0.727
456	0.7532
465	0.7714
474	0.7674
483	0.7475
492	0.8082
501	0.8212
510	0.8204
519	0.8161
528	0.8127
537	0.8121
546	0.814
555	0.8159
564	0.8106
573	0.7935
582	0.7348
591	0.7104
600	0.7829
609	0.7899
618	0.7592
627	0.6391
636	0.7414
645	0.7514
654	0.8439
663	0.8588
672	0.8719
681	0.8863
690	0.8867
699	0.8894
708	0.8974
717	0.9015
726	0.9029
735	0.9137
744	0.9166
753	0.9017
762	0.8917
771	0.8908
780	0.879
789	0.8727
798	0.8719
807	0.8703
816	0.8722
825	0.8808
834	0.8907
843	0.8885
852	0.8815
861	0.8839
870	0.8941
879	0.8993
888	0.9002
897	0.9034
906	0.8948
915	0.8803
924	0.8663
933	0.8456
942	0.8135
951	0.7567
960	0.6601
969	0.6586
978	0.791
987	0.86
996	0.852
1005	0.7852
1014	0.5679
1023	0.5853
1032	0.8001
1041	0.8118
1050	0.847
1059	0.8773
1068	0.8921
1077	0.9013
1086	0.9087
1095	0.9178
1104	0.9214
1113	0.9111
1122	0.9012
1131	0.8987
1140	0.8996
1149	0.8897
1158	0.8715
1167	0.8128
1176	0.7393
1185	0.5845
1194	0.4184
1203	0.5016
1212	0.6714
1221	0.8188
1230	0.8768
1239	0.8835
1248	0.8774
1257	0.8513
1266	0.8183
1275	0.7911
1284	0.6808
1293	0.785
1302	0.7866
1311	0.8293
1320	0.8422
1329	0.8435
1338	0.8382
1347	0.8141
1356	0.7503
1365	0.5046
1374	0.3081
1383	0.743
1392	0.7707
1401	0.738
1410	0.679
1419	0.6318
1428	0.5963
1437	0.7338
1446	0.7878
1455	0.8178
1464	0.8333
1473	0.8374
1482	0.8386
1491	0.8315
1500	0.8135
1509	0.7559
1518	0.6222
1527	0.7719
1536	0.7746
1545	0.7666
1554	0.7715
1563	0.7869
1572	0.8023
1581	0.8127
1590	0.8253
1599	0.8425
1608	0.847
1617	0.845
1626	0.8417
1635	0.8409
1644	0.8403
1653	0.8389
1662	0.8328
1671	0.8244
1680	0.8132
1689	0.786
1698	0.7276
1707	0.4785
1716	0.1998
1725	0.4802
1734	0.6211
1743	0.5372
1752	0.2537
1761	0.0233
1770	0.0353
1779	0.3383
1788	0.5535
1797	0.6885
1806	0.7528
1815	0.7942
1824	0.8172
1833	0.834
1842	0.8476
1851	0.8583
1860	0.864
1869	0.8678
1878	0.8661
1887	0.865
1896	0.8643
1905	0.8677
1914	0.8701
1923	0.8723
1932	0.8736
1941	0.8732
1950	0.8725
1959	0.8721
1968	0.8718
1977	0.8717
1986	0.8739
1995	0.8771
2004	0.8761
2013	0.8748
2022	0.8745
2031	0.8747
2040	0.8758
2049	0.8771
2058	0.8803
2067	0.8818
2076	0.8829
2085	0.8828
2094	0.8827
2103	0.8826
2112	0.8825
2121	0.8812
2130	0.8794
2139	0.876
2148	0.873
2157	0.8704
2166	0.8686
2175	0.8688
2184	0.8714
2193	0.8734
2202	0.8741
2211	0.8749
2220	0.8757
2229	0.8752
2238	0.8744
2247	0.8733
2256	0.8722
2265	0.8714
2274	0.8709
2283	0.8702
2292	0.8696
2301	0.8696
2310	0.8697
2319	0.8692
2328	0.868
2337	0.8669
2346	0.8661
2355	0.8653
2364	0.8644
2373	0.8635
2382	0.8625
2391	0.8615
2400	0.8609
2409	0.8604
2418	0.8603
2427	0.8603
2436	0.8603
2445	0.8603
2454	0.8601
2463	0.8598
2472	0.8594
2481	0.8586
2490	0.8577
2499	0.8555
2508	0.8519
2517	0.8475
2526	0.8422
2535	0.8353
2544	0.831
2553	0.829
2562	0.8347
2571	0.8422
2580	0.8442
2589	0.8407
2598	0.8334
2607	0.8245
2616	0.8146
2625	0.8024
2634	0.8078
2643	0.8226
2652	0.8212
2661	0.8179
2670	0.8141
2679	0.8106
2688	0.8108
2697	0.8147
2706	0.8189
2715	0.8204
2724	0.8189
2733	0.8176
2742	0.8187
2751	0.8148
2760	0.8105
2769	0.8091
2778	0.8086
2787	0.8087
2796	0.8092
2805	0.8097
2814	0.8102
2823	0.8105
2832	0.8109
2841	0.8111
2850	0.8112
2859	0.8103
2868	0.8059
2877	0.7981
2886	0.7891
2895	0.78
2904	0.7731
2913	0.7677
2922	0.7639
2931	0.7609
2940	0.7591
2949	0.7621
2958	0.7733
2967	0.7775
2976	0.7696
2985	0.754
2994	0.7487
3003	0.7505
3012	0.7484
3021	0.7448
3030	0.7434
3039	0.7479
3048	0.754
3057	0.7607
3066	0.7677
3075	0.7738
3084	0.7768
3093	0.7763
3102	0.7768
3111	0.7768
3120	0.7754
3129	0.7846
3138	0.7957
3147	0.7983
3156	0.8046
3165	0.8103
3174	0.815
3183	0.8194
3192	0.823
3201	0.8258
3210	0.8294
3219	0.8335
3228	0.8375
3237	0.8411
3246	0.8444
3255	0.8475
3264	0.8516
3273	0.8546
3282	0.8576
3291	0.8593
3300	0.8608
3309	0.8623
3318	0.8637
3327	0.865
3336	0.8662
3345	0.8673
3354	0.8685
3363	0.8697
3372	0.8711
3381	0.8724
3390	0.8737
3399	0.8748
3408	0.876
3417	0.8766
3426	0.8769
3435	0.8771
3444	0.8774
3453	0.8776
3462	0.8777
3471	0.8775
3480	0.8761
3489	0.8733
3498	0.8701
3507	0.8679
3516	0.8687
3525	0.8706
3534	0.8727
3543	0.8744
3552	0.8792
3561	0.884
3570	0.8874
3579	0.8919
3588	0.8971
3597	0.9018
3606	0.8966
3615	0.8923
3624	0.8916
3633	0.8931
3642	0.8943
3651	0.893
3660	0.8947
3669	0.8949
3678	0.8934
3687	0.893
3696	0.8948
3705	0.8943
3714	0.8941
3723	0.894
3732	0.894
3741	0.8944
3750	0.8948
3759	0.8952
3768	0.8958
3777	0.8962
3786	0.8965
3795	0.8967
3804	0.8967
3813	0.896
3822	0.8955
