Infrared Spectrum: 2,2,6,6-Tetrachlorocyclohexanol
Formula: C 6 H 8 Cl 4 O
CAS: 56207-45-5
State: gas
Origin: EPA-IR VAPOR PHASE LIBRARY
1/CM	ABSORBANCE
549.9	0.00551
559.547	0.01401
569.193	0.0294
578.84	0.02078
588.486	0.01076
598.133	0.01915
607.779	0.04274
617.426	0.07478
627.072	0.04837
636.719	0.01653
646.365	0.01304
656.012	0.01489
665.658	0.0089
675.305	0.00725
684.951	0.00768
694.598	0.00787
704.245	0.01267
713.891	0.01647
723.538	0.02488
733.184	0.05602
742.831	0.05688
752.477	0.01738
762.124	0.00789
771.77	0.00764
781.417	0.01148
791.063	0.03022
800.71	0.05566
810.356	0.05014
820.003	0.02882
829.649	0.01259
839.296	0.01139
848.943	0.01463
858.589	0.02899
868.236	0.04325
877.882	0.02736
887.529	0.02949
897.175	0.05589
906.822	0.03635
916.468	0.01107
926.115	0.006
935.761	0.00572
945.408	0.00865
955.054	0.01845
964.701	0.03004
974.347	0.02859
983.994	0.01921
993.64	0.00947
1003.29	0.00531
1012.93	0.00543
1022.58	0.00873
1032.23	0.01099
1041.87	0.01129
1051.52	0.01845
1061.17	0.02419
1070.81	0.02879
1080.46	0.04732
1090.11	0.04823
1099.75	0.05004
1109.4	0.06211
1119.05	0.03547
1128.69	0.01733
1138.34	0.02404
1147.99	0.03671
1157.63	0.02909
1167.28	0.01262
1176.92	0.00671
1186.57	0.00584
1196.22	0.00572
1205.86	0.00667
1215.51	0.00906
1225.16	0.01036
1234.8	0.01089
1244.45	0.01268
1254.1	0.01433
1263.74	0.0173
1273.39	0.0219
1283.04	0.02391
1292.68	0.01515
1302.33	0.00909
1311.98	0.00805
1321.62	0.00967
1331.27	0.01547
1340.92	0.01773
1350.56	0.01195
1360.21	0.01074
1369.86	0.01189
1379.5	0.01361
1389.15	0.02037
1398.79	0.02303
1408.44	0.01258
1418.09	0.00721
1427.73	0.01097
1437.38	0.02238
1447.03	0.03114
1456.67	0.02537
1466.32	0.01091
1475.97	0.00425
1485.61	0.00306
1495.26	0.0025
1504.91	0.0021147
1514.55	0.0019626
1524.2	0.0018175
1533.85	0.0017696
1543.49	0.00154216
1553.14	0.001336
1562.79	0.001232
1572.43	0.001268
1582.08	0.00128
1591.73	0.001251
1601.37	0.001265
1611.02	0.001166
1620.67	0.000991
1630.31	0.000981
1639.96	0.001024
1649.6	0.001042
1659.25	0.00115
1668.9	0.001048
1678.54	0.001071
1688.19	0.001009
1697.84	0.001105
1707.48	0.001115
1717.13	0.001085
1726.78	0.00114
1736.42	0.001006
1746.07	0.000982
1755.72	0.00088
1765.36	0.000925
1775.01	0.000876
1784.66	0.000924
1794.3	0.000806
1803.95	0.000886
1813.6	0.000885
1823.24	0.000963
1832.89	0.000954
1842.54	0.000958
1852.18	0.000913
1861.83	0.000884
1871.47	0.000917
1881.12	0.00096
1890.77	0.000983
1900.41	0.000971
1910.06	0.000979
1919.71	0.001006
1929.35	0.000961
1939	0.001061
1948.65	0.000984
1958.29	0.000957
1967.94	0.000943
1977.59	0.00088
1987.23	0.00086
1996.88	0.000881
2006.53	0.000878
2016.17	0.000885
2025.82	0.000937
2035.47	0.000905
2045.11	0.000966
2054.76	0.000969
2064.41	0.000977
2074.05	0.000978
2083.7	0.001051
2093.35	0.001085
2102.99	0.001164
2112.64	0.001117
2122.28	0.001061
2131.93	0.001081
2141.58	0.001045
2151.22	0.00107
2160.87	0.001124
2170.52	0.001207
2180.16	0.001258
2189.81	0.001321
2199.46	0.0013906
2209.1	0.0014482
2218.75	0.0014178
2228.4	0.0014362
2238.04	0.00147671
2247.69	0.00149564
2257.34	0.0014394
2266.98	0.001198
2276.63	0.001125
2286.28	0.001082
2295.92	0.001117
2305.57	0.001217
2315.22	0.001229
2324.86	0.001152
2334.51	0.001031
2344.16	0.001067
2353.8	0.001109
2363.45	0.001044
2373.09	0.000952
2382.74	0.000989
2392.39	0.000981
2402.03	0.001023
2411.68	0.001182
2421.33	0.001243
2430.97	0.001226
2440.62	0.001231
2450.27	0.001144
2459.91	0.001034
2469.56	0.001135
2479.21	0.001192
2488.85	0.001169
2498.5	0.001116
2508.15	0.001097
2517.79	0.001067
2527.44	0.001086
2537.09	0.001105
2546.73	0.001062
2556.38	0.000986
2566.03	0.000932
2575.67	0.000954
2585.32	0.000939
2594.96	0.000945
2604.61	0.000907
2614.26	0.00086
2623.9	0.000839
2633.55	0.000901
2643.2	0.000944
2652.84	0.001051
2662.49	0.001144
2672.14	0.001079
2681.78	0.001094
2691.43	0.000855
2701.08	0.00078
2710.72	0.000632
2720.37	0.000712
2730.02	0.000745
2739.66	0.000735
2749.31	0.000711
2758.96	0.000685
2768.6	0.000897
2778.25	0.000995
2787.9	0.001249
2797.54	0.001142
2807.19	0.000908
2816.84	0.000857
2826.48	0.001013
2836.13	0.001164
2845.77	0.0019031
2855.42	0.0044
2865.07	0.00657
2874.71	0.00853
2884.36	0.01119
2894.01	0.00842
2903.65	0.00598
2913.3	0.0065
2922.95	0.01326
2932.59	0.02016
2942.24	0.02091
2951.89	0.02698
2961.53	0.03145
2971.18	0.04551
2980.83	0.03119
2990.47	0.00568
3000.12	0.0012
3009.77	0.000615
3019.41	0.00038
3029.06	0.0004
3038.71	0.00016
3048.35	0.00031
3058	0.00017
3067.64	8e-05
3077.29	0.00038
3086.94	0.00018
3096.58	0.00022
3106.23	8e-05
3115.88	6e-05
3125.52	9e-05
3135.17	0.00013
3144.82	0.00013
3154.46	0.00024
3164.11	0.00024
3173.76	0
3183.4	0.00016
3193.05	0.00012
3202.7	0.00021
3212.34	0.00026
3221.99	0.00029
3231.64	0.00031
3241.28	0.00039
3250.93	0.000538
3260.58	0.00067
3270.22	0.001105
3279.87	0.001056
3289.52	0.001052
3299.16	0.001024
3308.81	0.0014006
3318.45	0.00145046
3328.1	0.001273
3337.75	0.000996
3347.39	0.000958
3357.04	0.001046
3366.69	0.001195
3376.33	0.000844
3385.98	0.000868
3395.63	0.001025
3405.27	0.000985
3414.92	0.001088
3424.57	0.000974
3434.21	0.001006
3443.86	0.001033
3453.51	0.000879
3463.15	0.001125
3472.8	0.001021
3482.45	0.001073
3492.09	0.001195
3501.74	0.001045
3511.39	0.000954
3521.03	0.001212
3530.68	0.001255
3540.33	0.0015616
3549.97	0.0023245
3559.62	0.00374
3569.26	0.01096
3578.91	0.02485
3588.56	0.01877
3598.2	0.01021
3607.85	0.01446
3617.5	0.01634
3627.14	0.0122
3636.79	0.00639
3646.44	0.00336
3656.08	0.0023739
3665.73	0.0018264
3675.38	0.0019507
3685.02	0.0016298
3694.67	0.0014216
3704.32	0.001356
3713.96	0.001272
3723.61	0.001357
3733.26	0.0013746
3742.9	0.001379
3752.55	0.00149332
3762.2	0.0015834
3771.84	0.0017677
3781.49	0.0017766
3791.13	0.0019
3800.78	0.0019219
3810.43	0.0020978
3820.07	0.00222
3829.72	0.0027
3839.37	0.00306
3849.01	0.00285
3858.66	0.0019474
3868.31	0.0017849
3877.95	0.0019266
3887.6	0.0021558
3897.25	0.0020444
3906.89	0.0017493
3916.54	0.0014493
3926.19	0.0014115
3935.83	0.001291
3945.48	0.00124
3955.13	0.001032
3964.77	0.000933
3974.42	0.000917
3984.07	0.000863
3993.71	0.000854
