Infrared Spectrum: 2-DIMETHYLAMINOPYRIMIDINE
Formula: C6 H9 N3
CAS: 5621-02-3
State: LIQUID (NEAT)
Class: COBLENTZ III
Instrument: PERKIN-ELMER 21 (GRATING)
Instrument parameters: FILTER CHANGE AT ABOUT 1020 CM^-^1
Sampling: TRANSMISSION
Path length: CAPILLARY BETWEEN CsBr PLATES
Resolution: 2
Origin: SOUTHERN RESEARCH INSTITUTE
1/CM	TRANSMITTANCE
606.034	0.861
615.03	0.874
624.026	0.8378
633.022	0.7871
642.018	0.9288
651.014	0.95
660.01	0.948
669.006	0.9446
678.002	0.9414
686.998	0.9334
695.994	0.9269
704.99	0.92
713.986	0.916
722.982	0.911
731.978	0.9026
740.974	0.8953
749.97	0.8785
758.966	0.8304
767.962	0.7431
776.958	0.5802
785.954	0.5855
794.95	0.5145
803.946	0.4317
812.942	0.7441
821.938	0.8407
830.934	0.8774
839.93	0.8938
848.926	0.9018
857.921	0.905
866.917	0.907
875.913	0.908
884.909	0.908
893.905	0.906
902.901	0.905
911.897	0.9019
920.893	0.8925
929.889	0.8876
938.885	0.8796
947.881	0.8608
956.877	0.8171
965.873	0.6845
974.869	0.7014
983.865	0.2838
992.861	0.4415
1001.86	0.8042
1010.85	0.8602
1019.85	0.865
1028.85	0.857
1037.84	0.8439
1046.84	0.8353
1055.83	0.7897
1064.83	0.8016
1073.83	0.794
1082.82	0.7397
1091.82	0.801
1100.81	0.855
1109.81	0.853
1118.8	0.848
1127.8	0.831
1136.8	0.817
1145.79	0.811
1154.79	0.8056
1163.78	0.777
1172.78	0.6997
1181.78	0.6348
1190.77	0.6734
1199.77	0.6416
1208.76	0.5573
1217.76	0.6107
1226.76	0.5838
1235.75	0.7773
1244.75	0.8288
1253.74	0.8469
1262.74	0.8462
1271.74	0.8292
1280.73	0.812
1289.73	0.821
1298.72	0.7953
1307.72	0.6683
1316.72	0.6066
1325.71	0.7474
1334.71	0.789
1343.7	0.789
1352.7	0.7808
1361.7	0.7375
1370.69	0.496
1379.69	0.1
1388.68	0.2412
1397.68	0.1852
1406.68	0.0608
1415.67	0.1364
1424.67	0.4943
1433.66	0.5959
1442.66	0.564
1451.66	0.5441
1460.65	0.541
1469.65	0.539
1478.64	0.544
1487.64	0.5007
1496.64	0.4592
1505.63	0.3411
1514.63	0.1972
1523.62	0.104
1532.62	0.085
1541.62	0.0619
1550.61	0.0505
1559.61	0.1959
1568.6	0.353
1577.6	0.2535
1586.6	0.0541
1595.59	0.0518
1604.59	0.2863
1613.58	0.604
1622.58	0.7256
1631.58	0.7765
1640.57	0.8081
1649.57	0.829
1658.56	0.838
1667.56	0.837
1676.56	0.835
1685.55	0.834
1694.55	0.8449
1703.54	0.852
1712.54	0.853
1721.54	0.8444
1730.53	0.816
1739.53	0.8206
1748.52	0.826
1757.52	0.8924
1766.52	0.9024
1775.51	0.91
1784.51	0.915
1793.5	0.9153
1802.5	0.916
1811.5	0.916
1820.49	0.916
1829.49	0.916
1838.48	0.916
1847.48	0.919
1856.48	0.921
1865.47	0.925
1874.47	0.925
1883.46	0.925
1892.46	0.924
1901.46	0.923
1910.45	0.9153
1919.45	0.9063
1928.44	0.902
1937.44	0.8898
1946.44	0.8794
1955.43	0.8845
1964.43	0.8965
1973.42	0.9064
1982.42	0.9114
1991.42	0.916
2000.41	0.9193
2009.41	0.92
2018.4	0.921
2027.4	0.923
2036.4	0.923
2045.39	0.9204
2054.39	0.9184
2063.38	0.916
2072.38	0.9117
2081.38	0.911
2090.37	0.915
2099.37	0.9163
2108.36	0.917
2117.36	0.919
2126.35	0.919
2135.35	0.919
2144.35	0.916
2153.34	0.914
2162.34	0.9077
2171.33	0.905
2180.33	0.9106
2189.33	0.917
2198.32	0.921
2207.32	0.921
2216.31	0.921
2225.31	0.919
2234.31	0.917
2243.3	0.914
2252.3	0.9094
2261.29	0.9027
2270.29	0.901
2279.29	0.901
2288.28	0.9
2297.28	0.9003
2306.27	0.905
2315.27	0.905
2324.27	0.906
2333.26	0.906
2342.26	0.906
2351.25	0.908
2360.25	0.911
2369.25	0.908
2378.24	0.907
2387.24	0.9067
2396.23	0.907
2405.23	0.915
2414.23	0.919
2423.22	0.919
2432.22	0.9203
2441.21	0.921
2450.21	0.924
2459.21	0.923
2468.2	0.92
2477.2	0.919
2486.19	0.917
2495.19	0.9134
2504.19	0.907
2513.18	0.907
2522.18	0.906
2531.17	0.909
2540.17	0.915
2549.17	0.917
2558.16	0.917
2567.16	0.917
2576.15	0.917
2585.15	0.916
2594.15	0.917
2603.14	0.9176
2612.14	0.916
2621.13	0.9163
2630.13	0.919
2639.13	0.916
2648.12	0.914
2657.12	0.914
2666.11	0.911
2675.11	0.911
2684.11	0.906
2693.1	0.9057
2702.1	0.9007
2711.09	0.8954
2720.09	0.889
2729.09	0.882
2738.08	0.8667
2747.08	0.864
2756.07	0.8547
2765.07	0.8247
2774.07	0.8087
2783.06	0.7973
2792.06	0.8053
2801.05	0.812
2810.05	0.8087
2819.05	0.7754
2828.04	0.7298
2837.04	0.6904
2846.03	0.6132
2855.03	0.5737
2864.03	0.569
2873.02	0.5733
2882.02	0.578
2891.01	0.5747
2900.01	0.5627
2909.01	0.55
2918	0.547
2927	0.548
2935.99	0.5536
2944.99	0.5698
2953.99	0.6362
2962.98	0.6779
2971.98	0.702
2980.97	0.703
2989.97	0.7063
2998.97	0.7219
3007.96	0.7373
3016.96	0.7463
3025.95	0.7553
3034.95	0.7769
3043.95	0.799
3052.94	0.8309
3061.94	0.8529
3070.93	0.8653
3079.93	0.8703
3088.92	0.875
3097.92	0.876
3106.92	0.883
3115.91	0.885
3124.91	0.887
3133.9	0.887
3142.9	0.887
3151.9	0.887
3160.89	0.885
3169.89	0.883
3178.88	0.882
3187.88	0.8856
3196.88	0.8883
3205.87	0.891
3214.87	0.891
3223.86	0.889
3232.86	0.888
3241.86	0.8837
3250.85	0.882
3259.85	0.8797
3268.84	0.878
3277.84	0.878
3286.84	0.876
3295.83	0.8747
3304.83	0.873
3313.82	0.8697
3322.82	0.869
3331.82	0.867
3340.81	0.8634
3349.81	0.86
3358.8	0.8554
3367.8	0.8494
3376.8	0.847
3385.79	0.8404
3394.79	0.835
3403.78	0.8327
3412.78	0.8297
3421.78	0.828
3430.77	0.828
3439.77	0.829
3448.76	0.8306
3457.76	0.832
3466.76	0.83
3475.75	0.83
3484.75	0.834
3493.74	0.842
3502.74	0.843
3511.74	0.8437
3520.73	0.8473
3529.73	0.8536
3538.72	0.858
3547.72	0.86
3556.72	0.86
3565.71	0.86
3574.71	0.864
3583.7	0.8663
3592.7	0.871
3601.7	0.875
3610.69	0.8822
3619.69	0.889
3628.68	0.889
3637.68	0.8917
3646.68	0.892
3655.67	0.897
3664.67	0.898
3673.66	0.9
3682.66	0.901
3691.66	0.9036
3700.65	0.907
3709.65	0.9086
3718.64	0.9143
3727.64	0.914
3736.64	0.915
3745.63	0.915
3754.63	0.9143
3763.62	0.915
3772.62	0.915
3781.62	0.915
3790.61	0.915
3799.61	0.915
3808.6	0.914
3817.6	0.912
3826.6	0.912
3835.59	0.912
3844.59	0.9117
3853.58	0.911
3862.58	0.912
3871.58	0.911
3880.57	0.911
3889.57	0.914
3898.56	0.914
3907.56	0.915
3916.56	0.912
3925.55	0.912
3934.55	0.911
3943.54	0.912
3952.54	0.9117
3961.54	0.9117
3970.53	0.911
3979.53	0.911
3988.52	0.9094
3997.52	0.907
