Infrared Spectrum: 1,2,3,4-TETRAHYDROPYRIDO-[1,2-a] BENZIMIDAZOLE
Formula: C11 H12 N2
CAS: 5622-83-3
State: SOLID (KBr PRESSING)
Melting point: 101-102 C
Class: COBLENTZ
Instrument: Not specified, most likely a prism, grating, or hybrid spectrometer.
Sampling: TRANSMISSION
Resolution: 4
Origin: EASTMAN KODAK COMPANY, RESEARCH LABORATORIES, ROCHESTER, N.Y.
MICROMETERS	TRANSMITTANCE
2.193	0.582
2.23294	0.566
2.27289	0.555
2.31283	0.561
2.35277	0.579
2.39271	0.574
2.43266	0.591
2.4726	0.592
2.51254	0.61
2.55248	0.604
2.59243	0.609
2.63237	0.628
2.67231	0.638
2.71225	0.646
2.7522	0.643
2.79214	0.622
2.83208	0.587
2.87202	0.559
2.91197	0.54
2.95191	0.558
2.99185	0.587
3.03179	0.609
3.07174	0.638
3.11168	0.645
3.15162	0.65
3.19157	0.679
3.23151	0.669
3.27145	0.64
3.31139	0.484
3.35134	0.625
3.39128	0.515
3.43122	0.481
3.47116	0.482
3.51111	0.535
3.55105	0.622
3.59099	0.658
3.63093	0.696
3.67088	0.702
3.71082	0.719
3.75076	0.715
3.7907	0.729
3.83065	0.738
3.87059	0.74
3.91053	0.737
3.95047	0.747
3.99042	0.758
4.03036	0.771
4.0703	0.778
4.11025	0.778
4.15019	0.77
4.19013	0.783
4.23007	0.781
4.27002	0.791
4.30996	0.811
4.3499	0.809
4.38984	0.802
4.42979	0.789
4.46973	0.804
4.50967	0.791
4.54961	0.807
4.58956	0.812
4.6295	0.807
4.66944	0.811
4.70938	0.829
4.74933	0.821
4.78927	0.821
4.82921	0.83
4.86915	0.84
4.9091	0.844
4.94904	0.842
4.98898	0.85
5.02893	0.865
5.06887	0.862
5.10881	0.85
5.14875	0.84
5.1887	0.842
5.22864	0.844
5.26858	0.793
5.30852	0.812
5.34847	0.845
5.38841	0.845
5.42835	0.87
5.46829	0.871
5.50824	0.857
5.54818	0.862
5.58812	0.85
5.62806	0.821
5.66801	0.857
5.70795	0.875
5.74789	0.862
5.78783	0.868
5.82778	0.858
5.86772	0.862
5.90766	0.865
5.94761	0.863
5.98755	0.844
6.02749	0.87
6.06743	0.86
6.10738	0.86
6.14732	0.832
6.18726	0.83
6.2272	0.52
6.26715	0.766
6.30709	0.844
6.34703	0.88
6.38697	0.885
6.42692	0.885
6.46686	0.894
6.5068	0.889
6.54674	0.84
6.58669	0.732
6.62663	0.328
6.66657	0.318
6.70651	0.765
6.74646	0.592
6.7864	0.123
6.82634	0.533
6.86629	0.269
6.90623	0.147
6.94617	0.402
6.98611	0.361
7.02606	0.589
7.066	0.392
7.10594	0.114
7.14588	0.637
7.18583	0.727
7.22577	0.794
7.26571	0.591
7.30565	0.382
7.3456	0.546
7.38554	0.717
7.42548	0.54
7.46542	0.623
7.50537	0.702
7.54531	0.763
7.58525	0.412
7.62519	0.203
7.66514	0.548
7.70508	0.752
7.74502	0.755
7.78496	0.532
7.82491	0.397
7.86485	0.561
7.90479	0.405
7.94474	0.738
7.98468	0.788
8.02462	0.768
8.06456	0.752
8.10451	0.73
8.14445	0.433
8.18439	0.384
8.22433	0.676
8.26428	0.799
8.30422	0.809
8.34416	0.824
8.3841	0.837
8.42405	0.819
8.46399	0.806
8.50393	0.811
8.54387	0.729
8.58382	0.783
8.62376	0.642
8.6637	0.223
8.70364	0.669
8.74359	0.622
8.78353	0.798
8.82347	0.83
8.86342	0.835
8.90336	0.847
8.9433	0.853
8.98324	0.834
9.02319	0.791
9.06313	0.85
9.10307	0.862
9.14301	0.86
9.18296	0.821
9.2229	0.883
9.26284	0.889
9.30278	0.88
9.34273	0.868
9.38267	0.862
9.42261	0.858
9.46255	0.878
9.5025	0.899
9.54244	0.901
9.58238	0.893
9.62232	0.899
9.66227	0.903
9.70221	0.896
9.74215	0.898
9.7821	0.914
9.82204	0.904
9.86198	0.914
9.90192	0.86
9.94187	0.408
9.98181	0.707
10.0218	0.781
10.0617	0.784
10.1016	0.852
10.1416	0.871
10.1815	0.889
10.2215	0.891
10.2614	0.862
10.3013	0.873
10.3413	0.85
10.3812	0.775
10.4212	0.86
10.4611	0.891
10.5011	0.899
10.541	0.919
10.5809	0.911
10.6209	0.889
10.6608	0.855
10.7008	0.862
10.7407	0.848
10.7807	0.873
10.8206	0.906
10.8605	0.891
10.9005	0.86
10.9404	0.83
10.9804	0.903
11.0203	0.899
11.0603	0.875
11.1002	0.584
11.1401	0.779
11.1801	0.878
11.22	0.916
11.26	0.926
11.2999	0.929
11.3399	0.891
11.3798	0.812
11.4197	0.73
11.4597	0.812
11.4996	0.816
11.5396	0.881
11.5795	0.912
11.6195	0.921
11.6594	0.917
11.6993	0.889
11.7393	0.865
11.7792	0.896
11.8192	0.932
11.8591	0.921
11.8991	0.921
11.939	0.912
11.9789	0.832
12.0189	0.738
12.0588	0.819
12.0988	0.87
12.1387	0.819
12.1787	0.842
12.2186	0.917
12.2585	0.908
12.2985	0.917
12.3384	0.908
12.3784	0.919
12.4183	0.919
12.4583	0.908
12.4982	0.932
12.5381	0.912
12.5781	0.906
12.618	0.896
12.658	0.912
12.6979	0.88
12.7378	0.88
12.7778	0.858
12.8177	0.832
12.8577	0.73
12.8976	0.318
12.9376	0.216
12.9775	0.221
13.0174	0.451
13.0574	0.681
13.0973	0.6
13.1373	0.129
13.1772	0.08
13.2172	0.09
13.2571	0.249
13.297	0.481
13.337	0.571
13.3769	0.658
13.4169	0.692
13.4568	0.73
13.4968	0.77
13.5367	0.801
13.5766	0.817
13.6166	0.832
13.6565	0.819
13.6965	0.822
13.7364	0.77
13.7764	0.699
13.8163	0.635
13.8562	0.658
13.8962	0.778
13.9361	0.802
13.9761	0.84
14.016	0.858
14.056	0.84
14.0959	0.855
14.1358	0.863
14.1758	0.86
14.2157	0.866
14.2557	0.87
14.2956	0.852
14.3356	0.84
14.3755	0.86
14.4154	0.86
14.4554	0.88
14.4953	0.873
14.5353	0.858
14.5752	0.817
14.6152	0.689
14.6551	0.6
14.695	0.622
14.735	0.75
14.7749	0.801
14.8149	0.84
14.8548	0.863
14.8947	0.871
14.9347	0.868
14.9746	0.86
15.0146	0.852
15.0545	0.87
15.0945	0.893
15.1344	0.868
15.1743	0.87
15.2143	0.86
15.2542	0.862
15.2942	0.857
15.3341	0.855
15.3741	0.858
15.414	0.858
15.4539	0.84
15.4939	0.832
15.5338	0.845
15.5738	0.845
15.6137	0.844
15.6537	0.842
15.6936	0.821
15.7335	0.827
15.7735	0.814
15.8134	0.806
15.8534	0.799
