Infrared Spectrum: 2-Methyl-1-phenyl-1-butene
Formula: C 11 H 14
CAS: 56253-64-6
State: gas
Instrument: HP-GC/MS/IRD
Origin: NIST Mass Spectrometry Data Center
1/CM	ABSORBANCE
550	0.0002912
562	0.0003248
574	0.0003493
586	0.0001421
598	6.44e-05
610	4.62e-05
622	0.0003087
634	0.0002772
646	0.0001995
658	0.0003234
670	0.0005551
682	0.0013468
694	0.0029036
706	0.0026614
718	0.0019908
730	0.0024605
742	0.0014259
754	0.000637
766	0.0005845
778	0.0005257
790	0.0002744
802	0.0003997
814	0.0005061
826	0.000875
838	0.0009814
850	0.0006993
862	0.0003731
874	0.0002205
886	0.0001694
898	0.0002401
910	0.0004613
922	0.0002688
934	0.0001113
946	6.09e-05
958	0.0001148
970	0.0001519
982	0.0001582
994	0.0001932
1006	0.000329
1018	0.0004725
1030	0.0006132
1042	0.0004543
1054	0.0004641
1066	0.0006685
1078	0.0004704
1090	0.0001561
1102	0.0001281
1114	0.0001561
1126	6.86e-05
1138	8.4e-05
1150	7.84e-05
1162	0.0001624
1174	0.0004249
1186	0.0003535
1198	0.0002303
1210	0.0001967
1222	0.0001386
1234	0.0001498
1246	0.0001855
1258	0.0002443
1270	0.0003808
1282	0.0003129
1294	0.0002849
1306	0.0003549
1318	0.0003038
1330	0.0002541
1342	0.0002772
1354	0.0003633
1366	0.0005754
1378	0.0008421
1390	0.0006447
1402	0.0003535
1414	0.0003633
1426	0.0006195
1438	0.0010136
1450	0.0012635
1462	0.0012054
1474	0.0009338
1486	0.0012796
1498	0.0012943
1510	0.0003577
1522	0.0002233
1534	0.0002086
1546	0.000182
1558	0.0002492
1570	0.0003626
1582	0.0004564
1594	0.000917
1606	0.0007203
1618	0.0003997
1630	0.000525
1642	0.0008113
1654	0.0007805
1666	0.000371
1678	0.0002296
1690	0.000182
1702	0.0001323
1714	0.0001148
1726	0.0001428
1738	0.0001561
1750	0.0001974
1762	0.00014
1774	0.0001337
1786	0.0001841
1798	0.0002667
1810	0.0001764
1822	0.0001435
1834	0.0001162
1846	9.24e-05
1858	0.0001316
1870	0.0001841
1882	0.0002177
1894	0.0001771
1906	9.03e-05
1918	0.000105
1930	0.000196
1942	0.0002849
1954	0.0002198
1966	0.0001036
1978	7.7e-05
1990	4.62e-05
2002	6.23e-05
2014	7.63e-05
2026	8.61e-05
2038	8.19e-05
2050	5.39e-05
2062	2.73e-05
2074	2.66e-05
2086	4.48e-05
2098	6.72e-05
2110	2.66e-05
2122	5.04e-05
2134	3.15e-05
2146	3.71e-05
2158	5.18e-05
2170	6.02e-05
2182	3.99e-05
2194	3.5e-05
2206	4.06e-05
2218	2.8e-05
2230	4.13e-05
2242	4.69e-05
2254	4.76e-05
2266	5.39e-05
2278	4.13e-05
2290	2.52e-05
2302	6.16e-05
2314	5.11e-05
2326	4.41e-05
2338	3.36e-05
2350	5.04e-05
2362	2.38e-05
2374	4.55e-05
2386	6.51e-05
2398	6.44e-05
2410	6.79e-05
2422	4.41e-05
2434	5.11e-05
2446	4.9e-05
2458	4.62e-05
2470	5.46e-05
2482	4.41e-05
2494	4.55e-05
2506	4.55e-05
2518	4.34e-05
2530	6.86e-05
2542	3.57e-05
2554	7.21e-05
2566	7.77e-05
2578	6.44e-05
2590	4.97e-05
2602	7.07e-05
2614	9.8e-06
2626	4.83e-05
2638	6.58e-05
2650	5.74e-05
2662	0
2674	2.52e-05
2686	2.8e-05
2698	5.88e-05
2710	6.02e-05
2722	0.000147
2734	0.0001701
2746	0.0002177
2758	0.0001554
2770	8.05e-05
2782	0.0001197
2794	0.0002135
2806	0.0002618
2818	0.0003465
2830	0.0004963
2842	0.0007511
2854	0.0013692
2866	0.0024045
2878	0.0029183
2890	0.0030401
2902	0.0027797
2914	0.0032816
2926	0.0040523
2938	0.0039802
2950	0.0040705
2962	0.0047355
2974	0.007
2986	0.0047964
2998	0.0021028
3010	0.0017885
3022	0.0024115
3034	0.0025949
3046	0.0020657
3058	0.0026936
3070	0.0032732
3082	0.0022407
3094	0.0015624
3106	0.0009205
3118	0.0004844
3130	0.0003087
3142	0.0001925
3154	0.0001946
3166	0.0001547
3178	0.0001232
3190	0.0001337
3202	7.7e-05
3214	5.88e-05
3226	6.3e-05
3238	5.18e-05
3250	4.34e-05
3262	7.14e-05
3274	3.99e-05
3286	5.67e-05
3298	7.07e-05
3310	2.94e-05
3322	5.53e-05
3334	4.55e-05
3346	3.99e-05
3358	4.83e-05
3370	7e-05
3382	8.33e-05
3394	1.82e-05
3406	7.77e-05
3418	2.52e-05
3430	4.9e-05
3442	5.88e-05
3454	2.38e-05
3466	4.55e-05
3478	7.49e-05
3490	7.7e-05
3502	8.68e-05
3514	7.63e-05
3526	9.59e-05
3538	8.96e-05
3550	9.73e-05
3562	6.16e-05
3574	6.02e-05
3586	8.68e-05
3598	4.83e-05
3610	0.0001043
3622	1.61e-05
3634	9.87e-05
3646	0.0001246
3658	7.63e-05
3670	6.79e-05
3682	6.86e-05
3694	8.4e-05
3706	0.0001134
3718	0.0001057
3730	6.58e-05
3742	6.37e-05
3754	0.0001099
3766	8.33e-05
3778	5.53e-05
3790	3.08e-05
3802	6.44e-05
3814	9.1e-05
3826	8.19e-05
3838	9.8e-05
