Infrared Spectrum: Benzothiazol-2-ylacetonitrile
Formula: C9 H6 N2 S
CAS: 56278-50-3
State: gas
Origin: EPA-IR VAPOR PHASE LIBRARY
1/CM	ABSORBANCE
549.8	0.0011433
559.445	0.001814
569.09	0.0011785
578.734	0.0011969
588.379	0.001494
598.024	0.001344
607.669	0.002414
617.313	0.003944
626.958	0.005184
636.603	0.008234
646.248	0.008994
655.893	0.005684
665.537	0.003474
675.182	0.003664
684.827	0.004764
694.472	0.006424
704.116	0.010504
713.761	0.015864
723.406	0.023174
733.051	0.022784
742.695	0.024164
752.34	0.038284
761.985	0.035914
771.63	0.016844
781.275	0.004494
790.919	0.001484
800.564	0.0007876
810.209	0.0012177
819.854	0.002124
829.498	0.0009843
839.143	0.002494
848.788	0.004024
858.433	0.005444
868.078	0.005084
877.722	0.003014
887.367	0.002484
897.012	0.002814
906.657	0.003124
916.301	0.004784
925.946	0.005024
935.591	0.005854
945.236	0.006004
954.88	0.004164
964.525	0.001804
974.17	0.0012321
983.815	0.0012853
993.46	0.001974
1003.1	0.005214
1012.75	0.007724
1022.39	0.003074
1032.04	0.001974
1041.68	0.0012907
1051.33	0.003574
1060.97	0.008634
1070.62	0.007974
1080.26	0.003354
1089.91	0.005844
1099.55	0.009304
1109.2	0.012544
1118.84	0.016654
1128.49	0.019224
1138.13	0.015504
1147.78	0.014584
1157.42	0.012034
1167.07	0.007494
1176.71	0.004694
1186.36	0.004114
1196	0.003944
1205.64	0.003754
1215.29	0.004044
1224.93	0.004724
1234.58	0.008484
1244.22	0.011114
1253.87	0.007444
1263.51	0.004954
1273.16	0.005744
1282.8	0.009494
1292.45	0.016274
1302.09	0.019084
1311.74	0.013004
1321.38	0.006754
1331.03	0.003614
1340.67	0.002654
1350.32	0.002284
1359.96	0.002064
1369.61	0.001574
1379.25	0.001734
1388.9	0.002564
1398.54	0.004594
1408.18	0.009004
1417.83	0.014964
1427.47	0.020574
1437.12	0.023844
1446.76	0.011654
1456.41	0.008074
1466.05	0.006554
1475.7	0.004024
1485.34	0.003854
1494.99	0.005384
1504.63	0.011144
1514.28	0.021074
1523.92	0.023484
1533.57	0.014564
1543.21	0.007404
1552.86	0.005324
1562.5	0.004894
1572.15	0.004014
1581.79	0.003624
1591.44	0.003314
1601.08	0.003444
1610.73	0.002304
1620.37	0.001404
1630.01	0.0010031
1639.66	0.0010309
1649.3	0.000891
1658.95	0.001514
1668.59	0.001494
1678.24	0.0012022
1687.88	0.002154
1697.53	0.002644
1707.17	0.001504
1716.82	0.0008855
1726.46	0.0009675
1736.11	0.000903
1745.75	0.0009239
1755.4	0.0007975
1765.04	0.001254
1774.69	0.002184
1784.33	0.002774
1793.98	0.001994
1803.62	0.001414
1813.27	0.002154
1822.91	0.002194
1832.55	0.001022
1842.2	0.0007158
1851.84	0.0006871
1861.49	0.0012607
1871.13	0.001914
1880.78	0.001474
1890.42	0.001404
1900.07	0.002324
1909.71	0.002234
1919.36	0.001614
1929	0.001684
1938.65	0.002764
1948.29	0.002184
1957.94	0.0009265
1967.58	0.0008747
1977.23	0.0007157
1986.87	0.0006915
1996.52	0.0006649
2006.16	0.0006037
2015.81	0.000576
2025.45	0.0007003
2035.1	0.000651
2044.74	0.000657
2054.38	0.0006934
2064.03	0.0007599
2073.67	0.000571
2083.32	0.0008236
2092.96	0.0006302
2102.61	0.0008782
2112.25	0.0006656
2121.9	0.0009242
2131.54	0.0009078
2141.19	0.0008775
2150.83	0.0009131
2160.48	0.0010346
2170.12	0.0007347
2179.77	0.0006883
2189.41	0.0005702
2199.06	0.0007224
2208.7	0.000657
2218.35	0.0006993
2227.99	0.0006586
2237.64	0.0010141
2247.28	0.0010321
2256.92	0.0012482
2266.57	0.001344
2276.21	0.0011799
2285.86	0.0011776
2295.5	0.0011818
2305.15	0.0008751
2314.79	0.0010995
2324.44	0.0011135
2334.08	0.0009622
2343.73	0.0009067
2353.37	0.0008458
2363.02	0.000767
2372.66	0.0009006
2382.31	0.0011102
2391.95	0.0007478
2401.6	0.0007962
2411.24	0.0008486
2420.89	0.0008451
2430.53	0.0009642
2440.18	0.0007833
2449.82	0.0008015
2459.47	0.0007957
2469.11	0.0008216
2478.75	0.000741
2488.4	0.000607
2498.04	0.0007964
2507.69	0.0009514
2517.33	0.0006355
2526.98	0.0007248
2536.62	0.000871
2546.27	0.0008136
2555.91	0.00098
2565.56	0.0010061
2575.2	0.0010794
2584.85	0.0010434
2594.49	0.0011302
2604.14	0.0009436
2613.78	0.0010585
2623.43	0.0009259
2633.07	0.0010096
2642.72	0.00126
2652.36	0.0009923
2662.01	0.0009353
2671.65	0.0008577
2681.29	0.000948
2690.94	0.0007263
2700.58	0.0007482
2710.23	0.0006527
2719.87	0.0007624
2729.52	0.0010794
2739.16	0.0009008
2748.81	0.0006724
2758.45	0.0006849
2768.1	0.0005221
2777.74	0.0005212
2787.39	0.0005721
2797.03	0.0009975
2806.68	0.0007915
2816.32	0.0010077
2825.97	0.0007717
2835.61	0.0008756
2845.26	0.0005204
2854.9	0.0006334
2864.55	0.0007619
2874.19	0.0004825
2883.84	0.0007912
2893.48	0.0006056
2903.12	0.0004949
2912.77	0.0009067
2922.41	0.0008493
2932.06	0.0010026
2941.7	0.0012604
2951.35	0.0008281
2960.99	0.0009717
2970.64	0.0012105
2980.28	0.0012484
2989.93	0.001394
2999.57	0.001754
3009.22	0.001804
3018.86	0.002504
3028.51	0.002804
3038.15	0.004004
3047.8	0.004214
3057.44	0.006404
3067.09	0.014344
3076.73	0.019994
3086.38	0.011664
3096.02	0.005504
3105.67	0.003314
3115.31	0.002914
3124.95	0.002044
3134.6	0.001137
3144.24	0.0007647
3153.89	0.0004464
3163.53	0.0004348
3173.18	0.000976
3182.82	0.0007859
3192.47	0.0011081
3202.11	0.0009355
3211.76	0.0008942
3221.4	0.0009012
3231.05	0.000818
3240.69	0.0009306
3250.34	0.0005485
3259.98	0.0005546
3269.63	0.0005062
3279.27	0.0005609
3288.92	0.0004189
3298.56	0.0005803
3308.21	0.0008314
3317.85	0.0005254
3327.49	0.000886
3337.14	0.00034667
3346.78	0.00039331
3356.43	0.0007444
3366.07	0.0005669
3375.72	0.0005431
3385.36	0.000637
3395.01	0.00032884
3404.65	0.0005249
3414.3	0.0005163
3423.94	0.0009273
3433.59	0.00037054
3443.23	0.0009272
3452.88	0.0006237
3462.52	0.000318628
3472.17	0.0009324
3481.81	0.0005102
3491.46	0.00033849
3501.1	0.0006613
3510.75	0.0007569
3520.39	9.4e-05
3530.04	0.0002667
3539.68	0.0004591
3549.32	0.0005056
3558.97	0.0007379
3568.61	0.0005845
3578.26	0.00036158
3587.9	0.0006678
3597.55	0.0006292
3607.19	0.0004834
3616.84	0.00072
3626.48	0.0004798
3636.13	0.00038801
3645.77	0.0007321
3655.42	0.0005474
3665.06	0.0007061
3674.71	0.0008338
3684.35	0.0004997
3694	0.0008259
3703.64	0.0004528
3713.29	0.0005951
3722.93	0.0008316
3732.58	0.0004887
3742.22	0.000422
3751.86	0.0007292
3761.51	0.00032604
3771.15	0.0007632
3780.8	0.0007748
3790.44	0.0004346
3800.09	0.0004939
3809.73	0.0004943
3819.38	0.00041332
3829.02	0.0003806
3838.67	0.00036415
3848.31	0.0009477
3857.96	0.0005792
3867.6	0.0008848
3877.25	0.0005907
3886.89	0.0009535
3896.54	0.0007234
3906.18	0.00030799
3915.83	0.0007492
3925.47	0.0008732
3935.12	0.0008409
3944.76	0.0007506
3954.41	0.0008291
3964.05	0.0005788
3973.69	0.0005592
3983.34	0.0007255
3992.98	0.0005693
