Infrared Spectrum: 3-Phenylazo-2,4-pentanedione
Formula: C 11 H 12 N 2 O 2
CAS: 56276-49-4
State: gas
Origin: EPA-IR VAPOR PHASE LIBRARY
1/CM	ABSORBANCE
549.9	0.01133
559.547	0.021
569.193	0.0295
578.84	0.02518
588.486	0.02772
598.133	0.01843
607.779	0.01322
617.426	0.02164
627.072	0.02992
636.719	0.0157
646.365	0.00933
656.012	0.00872
665.658	0.01001
675.305	0.01435
684.951	0.0256
694.598	0.02461
704.245	0.02355
713.891	0.03243
723.538	0.04378
733.184	0.07038
742.831	0.08893
752.477	0.06434
762.124	0.02585
771.77	0.01594
781.417	0.0148
791.063	0.01224
800.71	0.00904
810.356	0.00721
820.003	0.00758
829.649	0.00783
839.296	0.0067
848.943	0.00709
858.589	0.00728
868.236	0.00636
877.882	0.00603
887.529	0.00764
897.175	0.00942
906.822	0.0105
916.468	0.02208
926.115	0.04737
935.761	0.03412
945.408	0.01705
955.054	0.01555
964.701	0.01975
974.347	0.02742
983.994	0.03197
993.64	0.02671
1003.29	0.02001
1012.93	0.01827
1022.58	0.02127
1032.23	0.02151
1041.87	0.02267
1051.52	0.0271
1061.17	0.02692
1070.81	0.02306
1080.46	0.01763
1090.11	0.01747
1099.75	0.0195
1109.4	0.01936
1119.05	0.02188
1128.69	0.02931
1138.34	0.04246
1147.99	0.07212
1157.63	0.14479
1167.28	0.25468
1176.92	0.24371
1186.57	0.13878
1196.22	0.12019
1205.86	0.1298
1215.51	0.07122
1225.16	0.05011
1234.8	0.04017
1244.45	0.05035
1254.1	0.07468
1263.74	0.0826
1273.39	0.07537
1283.04	0.10478
1292.68	0.14811
1302.33	0.11481
1311.98	0.0676
1321.62	0.05625
1331.27	0.0499
1340.92	0.04098
1350.56	0.05207
1360.21	0.09
1369.86	0.08219
1379.5	0.05574
1389.15	0.04675
1398.79	0.04788
1408.44	0.05119
1418.09	0.05083
1427.73	0.04609
1437.38	0.04232
1447.03	0.04484
1456.67	0.0704
1466.32	0.07142
1475.97	0.06309
1485.61	0.0842
1495.26	0.13935
1504.91	0.23271
1514.55	0.40432
1524.2	0.3907
1533.85	0.18538
1543.49	0.08779
1553.14	0.05466
1562.79	0.04179
1572.43	0.03824
1582.08	0.0446
1591.73	0.06275
1601.37	0.07925
1611.02	0.04556
1620.67	0.0268
1630.31	0.0319
1639.96	0.05513
1649.6	0.06889
1659.25	0.05064
1668.9	0.03478
1678.54	0.04505
1688.19	0.18251
1697.84	0.26206
1707.48	0.04797
1717.13	0.01944
1726.78	0.01657
1736.42	0.01706
1746.07	0.01155
1755.72	0.00704
1765.36	0.00623
1775.01	0.00686
1784.66	0.00616
1794.3	0.00511
1803.95	0.00457
1813.6	0.00428
1823.24	0.00429
1832.89	0.00435
1842.54	0.00512
1852.18	0.00568
1861.83	0.00515
1871.47	0.00421
1881.12	0.00331
1890.77	0.0029816
1900.41	0.0030527
1910.06	0.00344
1919.71	0.00381
1929.35	0.0044
1939	0.00382
1948.65	0.00376
1958.29	0.0024769
1967.94	0.001936
1977.59	0.002074
1987.23	0.002075
1996.88	0.001988
2006.53	0.001912
2016.17	0.001989
2025.82	0.002012
2035.47	0.001842
2045.11	0.001692
2054.76	0.001572
2064.41	0.001392
2074.05	0.001281
2083.7	0.00143
2093.35	0.001486
2102.99	0.001632
2112.64	0.001547
2122.28	0.001421
2131.93	0.001324
2141.58	0.001241
2151.22	0.00115
2160.87	0.0011
2170.52	0.001
2180.16	0.00096
2189.81	0.00089
2199.46	0.00093
2209.1	0.00104
2218.75	0.00121
2228.4	0.001322
2238.04	0.001297
2247.69	0.00115
2257.34	0.00111
2266.98	0.00116
2276.63	0.001269
2286.28	0.001281
2295.92	0.001245
2305.57	0.001425
2315.22	0.00191
2324.86	0.002008
2334.51	0.00229508
2344.16	0.0023899
2353.8	0.00225793
2363.45	0.002061
2373.09	0.001838
2382.74	0.001626
2392.39	0.001495
2402.03	0.001512
2411.68	0.001538
2421.33	0.001655
2430.97	0.001821
2440.62	0.001862
2450.27	0.001791
2459.91	0.001728
2469.56	0.001587
2479.21	0.001582
2488.85	0.001774
2498.5	0.001907
2508.15	0.001874
2517.79	0.001766
2527.44	0.001658
2537.09	0.001527
2546.73	0.001435
2556.38	0.001428
2566.03	0.001569
2575.67	0.001924
2585.32	0.002103
2594.96	0.002027
2604.61	0.001898
2614.26	0.002047
2623.9	0.001989
2633.55	0.001751
2643.2	0.001452
2652.84	0.001385
2662.49	0.001487
2672.14	0.001591
2681.78	0.001889
2691.43	0.002006
2701.08	0.001874
2710.72	0.001583
2720.37	0.001319
2730.02	0.00112
2739.66	0.00107
2749.31	0.00117
2758.96	0.00112
2768.6	0.00105
2778.25	0.00109
2787.9	0.00093
2797.54	0.00075
2807.19	0.00075
2816.84	0.00095
2826.48	0.0012
2836.13	0.001386
2845.77	0.001455
2855.42	0.001321
2865.07	0.001412
2874.71	0.001538
2884.36	0.001867
2894.01	0.0021978
2903.65	0.0024768
2913.3	0.0030816
2922.95	0.00404
2932.59	0.00736
2942.24	0.00963
2951.89	0.00764
2961.53	0.0063
2971.18	0.00684
2980.83	0.00795
2990.47	0.00931
3000.12	0.01113
3009.77	0.01467
3019.41	0.01566
3029.06	0.01453
3038.71	0.01728
3048.35	0.01778
3058	0.01654
3067.64	0.02055
3077.29	0.02603
3086.94	0.02038
3096.58	0.01485
3106.23	0.01347
3115.88	0.01024
3125.52	0.00748
3135.17	0.00639
3144.82	0.00568
3154.46	0.00548
3164.11	0.00513
3173.76	0.00503
3183.4	0.005
3193.05	0.00485
3202.7	0.00466
3212.34	0.00455
3221.99	0.00406
3231.64	0.00366
3241.28	0.00333
3250.93	0.00328
3260.58	0.0030139
3270.22	0.002901
3279.87	0.0028253
3289.52	0.0025965
3299.16	0.001972
3308.81	0.001536
3318.45	0.00136
3328.1	0.00119
3337.75	0.00119
3347.39	0.001421
3357.04	0.00224397
3366.69	0.0035
3376.33	0.0029281
3385.98	0.00097
3395.63	0.00045
3405.27	0.00029
3414.92	0.00033
3424.57	8e-05
3434.21	1e-05
3443.86	0.00013
3453.51	1e-05
3463.15	2e-05
3472.8	0.00012
3482.45	0.00027
3492.09	0.00024
3501.74	8e-05
3511.39	0.00033
3521.03	0.00043
3530.68	0.00035
3540.33	0.00044
3549.97	0.0003
3559.62	0.00047
3569.26	0.00051
3578.91	0.00053
3588.56	0.00063
3598.2	0.00043
3607.85	0.00055
3617.5	0.0006
3627.14	0.00062
3636.79	0.00082
3646.44	0.00087
3656.08	0.00086
3665.73	0.0008
3675.38	0.00086
3685.02	0.00078
3694.67	0.00069
3704.32	0.00072
3713.96	0.00084
3723.61	0.00079
3733.26	0.00071
3742.9	0.00074
3752.55	0.00076
3762.2	0.00064
3771.84	0.00063
3781.49	0.00058
3791.13	0.00065
3800.78	0.0007
3810.43	0.00071
3820.07	0.00065
3829.72	0.00073
3839.37	0.00088
3849.01	0.00074
3858.66	0.00083
3868.31	0.00065
3877.95	0.00077
3887.6	0.00072
3897.25	0.00075
3906.89	0.0008
3916.54	0.00073
3926.19	0.00084
3935.83	0.00085
3945.48	0.00083
3955.13	0.00078
3964.77	0.00088
3974.42	0.00067
3984.07	0.00078
3993.71	0.00079
