Infrared Spectrum: Bromonitromethane
Formula: C H 2 Br N O 2
CAS: 563-70-2
State: gas
Origin: EPA-IR VAPOR PHASE LIBRARY
1/CM	ABSORBANCE
549.8	0.004271
559.445	0.004901
569.09	0.004221
578.734	0.003761
588.379	0.002961
598.024	0.001821
607.669	0.001351
617.313	0.0011778
626.958	0.001581
636.603	0.002711
646.248	0.005371
655.893	0.012071
665.537	0.023821
675.182	0.030781
684.827	0.027521
694.472	0.014481
704.116	0.008781
713.761	0.006931
723.406	0.006441
733.051	0.008721
742.695	0.012271
752.34	0.013131
761.985	0.009931
771.63	0.005081
781.275	0.002441
790.919	0.001701
800.564	0.0012062
810.209	0.0010024
819.854	0.000926
829.498	0.0007059
839.143	0.0010059
848.788	0.0009979
858.433	0.0010552
868.078	0.001381
877.722	0.002941
887.367	0.005431
897.012	0.006661
906.657	0.005791
916.301	0.003051
925.946	0.0012195
935.591	0.0011372
945.236	0.0007293
954.88	0.0007553
964.525	0.0006202
974.17	0.0004144
983.815	0.000104
993.46	0.000455
1003.1	0.0004094
1012.75	0.0004882
1022.39	0.0004212
1032.04	0.0004048
1041.68	0.0005393
1051.33	0.0005005
1060.97	0.0005344
1070.62	0.0007168
1080.26	0.0007845
1089.91	0.0009825
1099.55	0.0012111
1109.2	0.001631
1118.84	0.002301
1128.49	0.003271
1138.13	0.004361
1147.78	0.005361
1157.42	0.005841
1167.07	0.005911
1176.71	0.006491
1186.36	0.005201
1196	0.005151
1205.64	0.004951
1215.29	0.005931
1224.93	0.006431
1234.58	0.011461
1244.22	0.022881
1253.87	0.024231
1263.51	0.021691
1273.16	0.010981
1282.8	0.006561
1292.45	0.005321
1302.09	0.005881
1311.74	0.009201
1321.38	0.015561
1331.03	0.025371
1340.67	0.038241
1350.32	0.049321
1359.96	0.049281
1369.61	0.035011
1379.25	0.013981
1388.9	0.007611
1398.54	0.007351
1408.18	0.007211
1417.83	0.007151
1427.47	0.005321
1437.12	0.004011
1446.76	0.003021
1456.41	0.002241
1466.05	0.001671
1475.7	0.001501
1485.34	0.001371
1494.99	0.001591
1504.63	0.002361
1514.28	0.003921
1523.92	0.007571
1533.57	0.014871
1543.21	0.027941
1552.86	0.048491
1562.5	0.076981
1572.15	0.108031
1581.79	0.121171
1591.44	0.121421
1601.08	0.116101
1610.73	0.067021
1620.37	0.032741
1630.01	0.013041
1639.66	0.004951
1649.3	0.002441
1658.95	0.001521
1668.59	0.0009928
1678.24	0.000828
1687.88	0.0006092
1697.53	0.000615
1707.17	0.0006319
1716.82	0.0005764
1726.46	0.0005577
1736.11	0.0004322
1745.75	0.0006154
1755.4	0.0004751
1765.04	0.0005574
1774.69	0.0006431
1784.33	0.000614
1793.98	0.0006704
1803.62	0.0006649
1813.27	0.0006054
1822.91	0.0004353
1832.55	0.0004874
1842.2	0.0004495
1851.84	0.0004084
1861.49	0.0004
1871.13	0.00027619
1880.78	0.000367
1890.42	0.0003659
1900.07	0.0003418
1909.71	0.0004351
1919.36	0.0004128
1929	0.00045
1938.65	0.0004049
1948.29	0.000385
1957.94	0.0004576
1967.58	0.0005401
1977.23	0.0004707
1986.87	0.000436
1996.52	0.0004493
2006.16	0.0003876
2015.81	0.0003783
2025.45	0.0004284
2035.1	0.000411
2044.74	0.0004355
2054.38	0.0004253
2064.03	0.0004863
2073.67	0.0005692
2083.32	0.0005335
2092.96	0.0004724
2102.61	0.0004395
2112.25	0.0004062
2121.9	0.0003665
2131.54	0.0003756
2141.19	0.00036047
2150.83	0.0004868
2160.48	0.0003989
2170.12	0.0005417
2179.77	0.0003781
2189.41	0.0004333
2199.06	0.0004599
2208.7	0.0003995
2218.35	0.0004341
2227.99	0.0004182
2237.64	0.0005166
2247.28	0.0005117
2256.92	0.0005388
2266.57	0.0005653
2276.21	0.0007269
2285.86	0.000919
2295.5	0.0009751
2305.15	0.0009076
2314.79	0.0009543
2324.44	0.0009446
2334.08	0.0008562
2343.73	0.0007298
2353.37	0.0005556
2363.02	0.0007544
2372.66	0.0005914
2382.31	0.0004111
2391.95	0.00030785
2401.6	0.0003851
2411.24	0.00031454
2420.89	0.0005278
2430.53	0.0004432
2440.18	0.0005536
2449.82	0.000713
2459.47	0.0008779
2469.11	0.0010073
2478.75	0.0010917
2488.4	0.0010873
2498.04	0.0010308
2507.69	0.0007962
2517.33	0.0006494
2526.98	0.000564
2536.62	0.000495
2546.27	0.0004249
2555.91	0.0003523
2565.56	0.0003829
2575.2	0.0004988
2584.85	0.0003821
2594.49	0.0004468
2604.14	0.0004541
2613.78	0.0004266
2623.43	0.0003991
2633.07	0.0005549
2642.72	0.0006208
2652.36	0.0008639
2662.01	0.0011698
2671.65	0.001531
2681.29	0.001741
2690.94	0.001871
2700.58	0.001841
2710.23	0.001531
2719.87	0.0010548
2729.52	0.0006389
2739.16	0.0004853
2748.81	0.0004907
2758.45	0.0004097
2768.1	0.00034997
2777.74	0.00030228
2787.39	0.0004559
2797.03	0.0004492
2806.68	0.0005048
2816.32	0.000529
2825.97	0.0003617
2835.61	0.0005147
2845.26	0.0006251
2854.9	0.0007803
2864.55	0.0010387
2874.19	0.0012606
2883.84	0.001791
2893.48	0.002231
2903.12	0.002931
2912.77	0.003461
2922.41	0.003801
2932.06	0.003801
2941.7	0.003361
2951.35	0.002401
2960.99	0.001531
2970.64	0.0009513
2980.28	0.000881
2989.93	0.001441
2999.57	0.001811
3009.22	0.001511
3018.86	0.0009618
3028.51	0.0006161
3038.15	0.0006391
3047.8	0.0007879
3057.44	0.0011081
3067.09	0.0012343
3076.73	0.001471
3086.38	0.0011925
3096.02	0.0011652
3105.67	0.0008279
3115.31	0.0006634
3124.95	0.0004245
3134.6	0.00034845
3144.24	0.0004867
3153.89	0.0004315
3163.53	0.00035827
3173.18	0.00036095
3182.82	0.00029781
3192.47	0.0002874
3202.11	0.0003973
3211.76	0.00031501
3221.4	0.00034868
3231.05	0.000260991
3240.69	0.000331
3250.34	0.0002139
3259.98	0.0003885
3269.63	0.0002515
3279.27	0.00032558
3288.92	0.00028885
3298.56	0.00025459
3308.21	0.000107
3317.85	0.00046
3327.49	0.0001639
3337.14	0.00034567
3346.78	0.0005683
3356.43	0.00030733
3366.07	0.0004849
3375.72	0.0004136
3385.36	0.0003162
3395.01	0.0005791
3404.65	0.00030193
3414.3	0.0004008
3423.94	0.00034245
3433.59	0.0004624
3443.23	0.0004001
3452.88	0.00027705
3462.52	0.000408
3472.17	0.0003398
3481.81	0.0004564
3491.46	0.000454
3501.1	0.0004108
3510.75	0.00034857
3520.39	0.0004193
3530.04	0.000471
3539.68	0.000629
3549.32	0.0004991
3558.97	0.00025332
3568.61	0.0004583
3578.26	0.0004837
3587.9	0.0004168
3597.55	0.000374
3607.19	0.00035766
3616.84	0.0003926
3626.48	0.0004466
3636.13	0.0005154
3645.77	0.0005344
3655.42	0.0004387
3665.06	0.00033036
3674.71	0.0004005
3684.35	0.0006475
3694	0.0006185
3703.64	0.00033225
3713.29	0.0005352
3722.93	0.0004011
3732.58	0.0003995
3742.22	0.0005282
3751.86	0.0005826
3761.51	0.00032952
3771.15	0.0004833
3780.8	0.0003766
3790.44	0.0003839
3800.09	0.0005327
3809.73	0.0006656
3819.38	0.0004105
3829.02	0.000454
3838.67	0.0005481
3848.31	0.0005065
3857.96	0.0004709
3867.6	0.0005352
3877.25	0.0004351
3886.89	0.0004454
3896.54	0.00032714
3906.18	0.00035191
3915.83	0.0003189
3925.47	0.000558
3935.12	0.0004305
3944.76	0.0005881
3954.41	0.0005052
3964.05	0.0005468
3973.69	0.0007125
3983.34	0.0004074
3992.98	0.0004094
