Infrared Spectrum: 3,3-Dimethylhexane
Formula: C 8 H 18
CAS: 563-16-6
State: gas
Instrument: HP-GC/MS/IRD
Origin: NIST Mass Spectrometry Data Center
1/CM	ABSORBANCE
550	9.1e-05
562	6.5e-05
574	0.00013
586	5.85e-05
598	7.15e-05
610	0.0001105
622	0.0001105
634	0.0001365
646	0.0001885
658	0.0001495
670	0.0001495
682	0.00013
694	0.0001625
706	0.000156
718	0.00026
730	0.0004095
742	0.0005525
754	0.000442
766	0.00039
778	0.000676
790	0.000689
802	0.000455
814	0.00026
826	0.0001755
838	0.000221
850	0.000208
862	0.0002145
874	0.000182
886	0.0002405
898	0.0003835
910	0.0005265
922	0.0005135
934	0.0005395
946	0.000663
958	0.0005005
970	0.000286
982	0.0003575
994	0.0006045
1006	0.0010855
1018	0.001157
1030	0.0007085
1042	0.0005655
1054	0.0004745
1066	0.0003315
1078	0.0003835
1090	0.0004225
1102	0.000364
1114	0.0001885
1126	0.000182
1138	0.000221
1150	0.000273
1162	0.0005135
1174	0.001053
1186	0.0016705
1198	0.001651
1210	0.0012675
1222	0.000858
1234	0.000559
1246	0.000494
1258	0.000585
1270	0.0005525
1282	0.000559
1294	0.000663
1306	0.000728
1318	0.000689
1330	0.0007085
1342	0.0010985
1354	0.002392
1366	0.0045435
1378	0.005551
1390	0.005057
1402	0.0027885
1414	0.0013195
1426	0.0013715
1438	0.002379
1450	0.0046215
1462	0.00741
1474	0.0075075
1486	0.004329
1498	0.0017485
1510	0.000871
1522	0.000624
1534	0.0004615
1546	0.0004095
1558	0.000429
1570	0.0003445
1582	0.0003185
1594	0.000299
1606	0.0002535
1618	0.000247
1630	0.000221
1642	0.0002145
1654	0.000247
1666	0.0001885
1678	0.000208
1690	0.0001495
1702	0.0001755
1714	0.00013
1726	0.000104
1738	0.0001105
1750	7.15e-05
1762	8.45e-05
1774	7.8e-05
1786	5.2e-05
1798	6.5e-05
1810	6.5e-05
1822	3.9e-05
1834	3.9e-05
1846	3.9e-05
1858	4.55e-05
1870	4.55e-05
1882	3.25e-05
1894	5.2e-05
1906	4.55e-05
1918	4.55e-05
1930	2.6e-05
1942	1.3e-05
1954	0
1966	2.6e-05
1978	1.95e-05
1990	0
2002	1.95e-05
2014	3.25e-05
2026	3.9e-05
2038	2.6e-05
2050	5.85e-05
2062	1.95e-05
2074	2.6e-05
2086	4.55e-05
2098	3.25e-05
2110	1.3e-05
2122	0
2134	2.6e-05
2146	1.95e-05
2158	2.6e-05
2170	1.3e-05
2182	2.6e-05
2194	1.95e-05
2206	2.6e-05
2218	2.6e-05
2230	3.9e-05
2242	1.95e-05
2254	4.55e-05
2266	5.2e-05
2278	5.85e-05
2290	5.85e-05
2302	7.15e-05
2314	7.15e-05
2326	0.00013
2338	0.000156
2350	0.0001235
2362	0.000182
2374	0.0001235
2386	0.0001105
2398	0.000143
2410	0.000143
2422	0.0001235
2434	9.75e-05
2446	7.8e-05
2458	0.000104
2470	9.1e-05
2482	9.75e-05
2494	9.75e-05
2506	0.000104
2518	0.000104
2530	0.0001105
2542	0.000182
2554	0.0001755
2566	0.000247
2578	0.000247
2590	0.0002405
2602	0.000286
2614	0.0003315
2626	0.0004225
2638	0.000481
2650	0.0004875
2662	0.0005395
2674	0.0005005
2686	0.000481
2698	0.0005265
2710	0.0006565
2722	0.000897
2734	0.0010725
2746	0.0011505
2758	0.001053
2770	0.0011245
2782	0.001274
2794	0.0015535
2806	0.0019955
2818	0.002652
2830	0.0038415
2842	0.006461
2854	0.010868
2866	0.0160745
2878	0.022685
2890	0.025883
2902	0.0273975
2914	0.030017
2926	0.0330915
2938	0.0386945
2950	0.0464815
2962	0.062842
2974	0.0553085
2986	0.0238225
2998	0.0085995
3010	0.004732
3022	0.0034905
3034	0.002795
3046	0.0022555
3058	0.001963
3070	0.0017875
3082	0.001586
3094	0.001404
3106	0.001248
3118	0.0010725
3130	0.0009165
3142	0.0008775
3154	0.000845
3166	0.000806
3178	0.000741
3190	0.0006695
3202	0.000611
3214	0.0005265
3226	0.0004485
3238	0.000351
3250	0.000299
3262	0.0002925
3274	0.0002535
3286	0.00026
3298	0.000195
3310	0.0002145
3322	0.0001885
3334	0.0002015
3346	0.0001625
3358	0.0001495
3370	0.000195
3382	0.000156
3394	0.0001495
3406	0.000143
3418	0.00013
3430	0.00013
3442	0.00013
3454	6.5e-05
3466	9.1e-05
3478	6.5e-05
3490	7.15e-05
3502	9.1e-05
3514	7.8e-05
3526	7.8e-05
3538	5.2e-05
3550	7.8e-05
3562	6.5e-05
3574	7.15e-05
3586	3.25e-05
3598	9.75e-05
3610	7.15e-05
3622	7.15e-05
3634	0.0001365
3646	0.00013
3658	0.0001495
3670	0.000169
3682	0.0002015
3694	0.000156
3706	0.0001495
3718	0.000143
3730	0.000143
3742	0.00013
3754	0.000195
3766	0.000169
3778	0.000143
3790	0.000182
3802	0.0002275
3814	0.000221
3826	0.0002405
3838	0.000221
