Infrared Spectrum: Semicarbazide, hydrochloride
Formula: C H6 Cl N3 O
CAS: 563-41-7
State: SOLID (KBr DISC)
Class: COBLENTZ III
Instrument: PERKIN-ELMER 157
Sampling: TRANSMISSION
Resolution: 2
Origin: BRITISH PETROLEUM CO. LTD., ENGLAND
1/CM	TRANSMITTANCE
667	0.4804
676	0.447
685	0.3805
694	0.2859
703	0.1884
712	0.1183
721	0.0967
730	0.1064
739	0.1564
748	0.2363
757	0.285
766	0.1463
775	0.0729
784	0.2082
793	0.2863
802	0.3402
811	0.3788
820	0.4061
829	0.4276
838	0.4325
847	0.4447
856	0.4529
865	0.4519
874	0.4518
883	0.4476
892	0.4378
901	0.4219
910	0.388
919	0.3537
928	0.2765
937	0.2282
946	0.2792
955	0.3455
964	0.3676
973	0.365
982	0.3554
991	0.3482
1000	0.3468
1009	0.3443
1018	0.3409
1027	0.3321
1036	0.3147
1045	0.2999
1054	0.287
1063	0.2733
1072	0.2559
1081	0.2281
1090	0.2065
1099	0.2078
1108	0.226
1117	0.2274
1126	0.227
1135	0.2078
1144	0.2099
1153	0.1963
1162	0.161
1171	0.1251
1180	0.0518
1189	0.0709
1198	0.1604
1207	0.1106
1216	0.0517
1225	0.0693
1234	0.1887
1243	0.2572
1252	0.2634
1261	0.2579
1270	0.245
1279	0.2327
1288	0.2275
1297	0.2145
1306	0.2049
1315	0.187
1324	0.1744
1333	0.1532
1342	0.1341
1351	0.1197
1360	0.0796
1369	0.0538
1378	0.0306
1387	0.0292
1396	0.0647
1405	0.0818
1414	0.1188
1423	0.1413
1432	0.1428
1441	0.1401
1450	0.1119
1459	0.0659
1468	0.0378
1477	0.0307
1486	0.0294
1495	0.03
1504	0.0439
1513	0.052
1522	0.0426
1531	0.0377
1540	0.0462
1549	0.0543
1558	0.0517
1567	0.0359
1576	0.0286
1585	0.0273
1594	0.0286
1603	0.0403
1612	0.0767
1621	0.151
1630	0.1632
1639	0.1586
1648	0.1369
1657	0.0786
1666	0.0594
1675	0.0287
1684	0.0264
1693	0.0271
1702	0.043
1711	0.0517
1720	0.0865
1729	0.1236
1738	0.2159
1747	0.2303
1756	0.2489
1765	0.3155
1774	0.352
1783	0.391
1792	0.4256
1801	0.46
1810	0.4862
1819	0.4935
1828	0.4922
1837	0.4871
1846	0.4829
1855	0.4793
1864	0.4661
1873	0.4512
1882	0.4338
1891	0.4148
1900	0.3985
1909	0.3831
1918	0.3631
1927	0.343
1936	0.3135
1945	0.295
1954	0.2939
1963	0.3261
1972	0.3855
1981	0.4105
1990	0.4138
1999	0.4194
2008	0.4438
2017	0.4844
2026	0.5035
2035	0.5075
2044	0.5077
2053	0.5045
2062	0.4962
2071	0.4932
2080	0.4936
2089	0.4939
2098	0.4882
2107	0.48
2116	0.4714
2125	0.4631
2134	0.4563
2143	0.4518
2152	0.4482
2161	0.4458
2170	0.444
2179	0.4409
2188	0.4359
2197	0.4285
2206	0.4211
2215	0.4142
2224	0.4071
2233	0.3968
2242	0.3871
2251	0.3779
2260	0.372
2269	0.3671
2278	0.3604
2287	0.3533
2296	0.3461
2305	0.3287
2314	0.31
2323	0.2939
2332	0.2779
2341	0.2701
2350	0.2664
2359	0.2631
2368	0.2604
2377	0.2553
2386	0.2472
2395	0.2353
2404	0.2189
2413	0.2003
2422	0.1873
2431	0.1795
2440	0.1733
2449	0.1655
2458	0.1586
2467	0.1525
2476	0.143
2485	0.1312
2494	0.1263
2503	0.1229
2512	0.1136
2521	0.1032
2530	0.0924
2539	0.0811
2548	0.0762
2557	0.0747
2566	0.0724
2575	0.0621
2584	0.0504
2593	0.04
2602	0.0362
2611	0.0339
2620	0.0318
2629	0.0301
2638	0.0284
2647	0.0271
2656	0.0272
2665	0.0277
2674	0.0293
2683	0.0314
2692	0.0339
2701	0.0355
2710	0.0355
2719	0.0344
2728	0.0328
2737	0.0318
2746	0.0309
2755	0.03
2764	0.0292
2773	0.0285
2782	0.0278
2791	0.0272
2800	0.027
2809	0.0269
2818	0.0268
2827	0.0267
2836	0.0266
2845	0.0268
2854	0.0272
2863	0.0274
2872	0.0278
2881	0.0281
2890	0.0293
2899	0.0307
2908	0.0322
2917	0.0346
2926	0.0374
2935	0.0405
2944	0.0435
2953	0.0461
2962	0.0475
2971	0.0482
2980	0.048
2989	0.0475
2998	0.046
3007	0.0444
3016	0.0421
3025	0.0399
3034	0.0377
3043	0.0365
3052	0.0357
3061	0.0362
3070	0.0373
3079	0.0387
3088	0.0405
3097	0.0428
3106	0.0449
3115	0.0468
3124	0.0471
3133	0.0491
3142	0.0461
3151	0.0446
3160	0.0429
3169	0.0408
3178	0.0387
3187	0.0359
3196	0.0319
3205	0.0293
3214	0.028
3223	0.0276
3232	0.0274
3241	0.0274
3250	0.0276
3259	0.0281
3268	0.0288
3277	0.0299
3286	0.0316
3295	0.035
3304	0.0404
3313	0.0487
3322	0.062
3331	0.0772
3340	0.0924
3349	0.1052
3358	0.1072
3367	0.107
3376	0.103
3385	0.091
3394	0.0791
3403	0.0672
3412	0.0555
3421	0.0437
3430	0.0328
3439	0.0319
3448	0.0523
3457	0.0941
3466	0.1359
3475	0.1776
3484	0.2189
3493	0.2601
3502	0.3011
3511	0.3418
3520	0.374
3529	0.4013
3538	0.4283
3547	0.4552
3556	0.482
3565	0.5086
3574	0.5351
3583	0.5615
3592	0.5877
3601	0.6248
3610	0.6429
3619	0.6465
3628	0.6501
3637	0.6536
3646	0.657
3655	0.6594
3664	0.6613
3673	0.6641
3682	0.6691
3691	0.6748
3700	0.677
3709	0.6778
3718	0.6783
3727	0.6781
3736	0.6778
3745	0.6772
3754	0.6762
3763	0.6751
3772	0.6739
3781	0.6728
3790	0.6715
3799	0.6701
3808	0.6687
3817	0.6673
3826	0.6657
3835	0.6639
3844	0.6622
3853	0.6609
3862	0.6598
3871	0.6593
3880	0.6591
3889	0.6591
3898	0.6595
3907	0.6601
3916	0.6607
3925	0.6613
3934	0.6618
3943	0.6623
3952	0.6628
3961	0.6625
3970	0.6622
3979	0.6619
3988	0.6616
3997	0.6614
