Infrared Spectrum: 6,6-ETHYLENE TESTOSTERONE 17-CYCLOPENTEN-1'-YL ETHER
Formula: C26 H36 O2
CAS: 5630-90-0
State: SOLID (OIL MULL)
Class: COBLENTZ III
Instrument: Not specified, most likely a prism spectrometer.
Instrument parameters: NaCl PRISM
Sampling: TRANSMISSION
Resolution: 2
Origin: SMITH KLINE & FRENCH LABS.
MICROMETERS	TRANSMITTANCE
1.999	0.451
2.03319	0.453
2.06738	0.468
2.10156	0.478
2.13575	0.487
2.16994	0.497
2.20413	0.503
2.23832	0.51
2.27251	0.515
2.30669	0.52
2.34088	0.512
2.37507	0.507
2.40926	0.516
2.44345	0.529
2.47763	0.537
2.51182	0.55
2.54601	0.565
2.5802	0.569
2.61439	0.587
2.64858	0.59
2.68276	0.593
2.71695	0.602
2.75114	0.611
2.78533	0.623
2.81952	0.625
2.85371	0.631
2.88789	0.633
2.92208	0.633
2.95627	0.635
2.99046	0.64
3.02465	0.642
3.05883	0.647
3.09302	0.653
3.12721	0.658
3.1614	0.663
3.19559	0.665
3.22978	0.667
3.26396	0.667
3.29815	0.645
3.33234	0.581
3.36653	0.565
3.40072	0.424
3.4349	0.152
3.46909	0.066
3.50328	0.06
3.53747	0.07
3.57166	0.089
3.60585	0.336
3.64003	0.618
3.67422	0.732
3.70841	0.759
3.7426	0.759
3.77679	0.76
3.81097	0.76
3.84516	0.768
3.87935	0.769
3.91354	0.779
3.94773	0.796
3.98192	0.808
4.0161	0.815
4.05029	0.822
4.08448	0.824
4.11867	0.83
4.15286	0.836
4.18704	0.835
4.22123	0.835
4.25542	0.836
4.28961	0.837
4.3238	0.836
4.35799	0.836
4.39217	0.84
4.42636	0.854
4.46055	0.86
4.49474	0.864
4.52893	0.868
4.56312	0.865
4.5973	0.87
4.63149	0.876
4.66568	0.88
4.69987	0.882
4.73406	0.884
4.76824	0.884
4.80243	0.884
4.83662	0.884
4.87081	0.883
4.905	0.882
4.93919	0.888
4.97337	0.898
5.00756	0.899
5.04175	0.9
5.07594	0.903
5.11013	0.905
5.14431	0.905
5.1785	0.907
5.21269	0.916
5.24688	0.917
5.28107	0.915
5.31526	0.915
5.34944	0.92
5.38363	0.922
5.41782	0.928
5.45201	0.933
5.4862	0.938
5.52038	0.94
5.55457	0.94
5.58876	0.941
5.62295	0.949
5.65714	0.952
5.69133	0.953
5.72551	0.953
5.7597	0.945
5.79389	0.932
5.82808	0.924
5.86227	0.92
5.89646	0.889
5.93064	0.76
5.96483	0.56
5.99902	0.337
6.03321	0.266
6.0674	0.222
6.10158	0.227
6.13577	0.186
6.16996	0.513
6.20415	0.639
6.23834	0.476
6.27253	0.432
6.30671	0.657
6.3409	0.72
6.37509	0.74
6.40928	0.773
6.44347	0.78
6.47765	0.799
6.51184	0.803
6.54603	0.807
6.58022	0.813
6.61441	0.813
6.6486	0.813
6.68278	0.813
6.71697	0.808
6.75116	0.774
6.78535	0.669
6.81954	0.535
6.85372	0.262
6.88791	0.231
6.9221	0.238
6.95629	0.3
6.99048	0.426
7.02467	0.661
7.05885	0.721
7.09304	0.691
7.12723	0.776
7.16142	0.809
7.19561	0.749
7.22979	0.659
7.26398	0.524
7.29817	0.405
7.33236	0.372
7.36655	0.444
7.40074	0.581
7.43492	0.546
7.46911	0.46
7.5033	0.37
7.53749	0.47
7.57168	0.455
7.60587	0.647
7.64005	0.731
7.67424	0.622
7.70843	0.516
7.74262	0.577
7.77681	0.645
7.81099	0.636
7.84518	0.562
7.87937	0.489
7.91356	0.47
7.94775	0.444
7.98194	0.469
8.01612	0.491
8.05031	0.524
8.0845	0.539
8.11869	0.566
8.15288	0.453
8.18706	0.381
8.22125	0.492
8.25544	0.566
8.28963	0.595
8.32382	0.619
8.35801	0.6
8.39219	0.571
8.42638	0.526
8.46057	0.44
8.49476	0.443
8.52895	0.513
8.56313	0.581
8.59732	0.631
8.63151	0.676
8.6657	0.705
8.69989	0.721
8.73408	0.749
8.76826	0.773
8.80245	0.773
8.83664	0.771
8.87083	0.761
8.90502	0.709
8.9392	0.707
8.97339	0.709
9.00758	0.739
9.04177	0.766
9.07596	0.795
9.11015	0.802
9.14433	0.812
9.17852	0.815
9.21271	0.84
9.2469	0.841
9.28109	0.841
9.31528	0.825
9.34946	0.783
9.38365	0.766
9.41784	0.737
9.45203	0.72
9.48622	0.612
9.5204	0.513
9.55459	0.513
9.58878	0.473
9.62297	0.55
9.65716	0.578
9.69135	0.553
9.72553	0.541
9.75972	0.6
9.79391	0.636
9.8281	0.532
9.86229	0.503
9.89647	0.562
9.93066	0.564
9.96485	0.675
9.99904	0.75
10.0332	0.78
10.0674	0.789
10.1016	0.788
10.1358	0.782
10.17	0.763
10.2042	0.779
10.2384	0.784
10.2725	0.772
10.3067	0.719
10.3409	0.702
10.3751	0.716
10.4093	0.767
10.4435	0.776
10.4777	0.778
10.5119	0.778
10.5461	0.727
10.5802	0.664
10.6144	0.616
10.6486	0.681
10.6828	0.748
10.717	0.707
10.7512	0.692
10.7854	0.761
10.8196	0.79
10.8537	0.784
10.8879	0.786
10.9221	0.792
10.9563	0.783
10.9905	0.79
11.0247	0.815
11.0589	0.837
11.0931	0.835
11.1272	0.831
11.1614	0.841
11.1956	0.861
11.2298	0.869
11.264	0.865
11.2982	0.851
11.3324	0.838
11.3666	0.831
11.4008	0.849
11.4349	0.853
11.4691	0.847
11.5033	0.761
11.5375	0.537
11.5717	0.598
11.6059	0.698
11.6401	0.731
11.6743	0.765
11.7084	0.762
11.7426	0.78
11.7768	0.828
11.811	0.861
11.8452	0.875
11.8794	0.881
11.9136	0.88
11.9478	0.866
11.982	0.861
12.0161	0.861
12.0503	0.854
12.0845	0.837
12.1187	0.847
12.1529	0.878
12.1871	0.888
12.2213	0.869
12.2555	0.869
12.2896	0.892
12.3238	0.901
12.358	0.915
12.3922	0.916
12.4264	0.916
12.4606	0.916
12.4948	0.916
12.529	0.914
12.5632	0.9
12.5973	0.892
12.6315	0.868
12.6657	0.832
12.6999	0.783
12.7341	0.774
12.7683	0.811
12.8025	0.845
12.8367	0.848
12.8708	0.848
12.905	0.834
12.9392	0.786
12.9734	0.732
13.0076	0.693
13.0418	0.704
13.076	0.705
13.1102	0.68
13.1444	0.663
13.1785	0.657
13.2127	0.67
13.2469	0.694
13.2811	0.738
13.3153	0.757
13.3495	0.767
13.3837	0.767
13.4179	0.771
13.452	0.772
13.4862	0.774
13.5204	0.784
13.5546	0.789
13.5888	0.79
13.623	0.794
13.6572	0.796
13.6914	0.797
13.7256	0.799
13.7597	0.8
13.7939	0.8
13.8281	0.799
13.8623	0.795
13.8965	0.796
13.9307	0.796
13.9649	0.8
13.9991	0.813
14.0332	0.82
14.0674	0.829
14.1016	0.831
14.1358	0.832
14.17	0.834
14.2042	0.834
14.2384	0.834
14.2726	0.834
14.3068	0.829
14.3409	0.817
14.3751	0.786
14.4093	0.755
14.4435	0.709
14.4777	0.664
14.5119	0.617
14.5461	0.61
14.5803	0.658
14.6144	0.713
14.6486	0.744
14.6828	0.761
14.717	0.767
14.7512	0.769
14.7854	0.769
14.8196	0.767
14.8538	0.767
