Infrared Spectrum: 1,8-Octane diisothiocyanate
Formula: C 10 H 16 N 2 S 2
CAS: 56312-14-2
State: gas
Origin: EPA-IR VAPOR PHASE LIBRARY
1/CM	ABSORBANCE
549.8	0.012206
559.445	0.010996
569.09	0.010506
578.734	0.008946
588.379	0.006916
598.024	0.005736
607.669	0.004816
617.313	0.004096
626.958	0.003476
636.603	0.003346
646.248	0.003896
655.893	0.004396
665.537	0.004356
675.182	0.003936
684.827	0.004026
694.472	0.005326
704.116	0.006816
713.761	0.006956
723.406	0.006946
733.051	0.005296
742.695	0.004456
752.34	0.003916
761.985	0.003746
771.63	0.003666
781.275	0.003376
790.919	0.003266
800.564	0.003276
810.209	0.002876
819.854	0.003086
829.498	0.002926
839.143	0.002546
848.788	0.002086
858.433	0.002756
868.078	0.002096
877.722	0.002196
887.367	0.002206
897.012	0.002316
906.657	0.002756
916.301	0.003086
925.946	0.003376
935.591	0.003326
945.236	0.003236
954.88	0.003326
964.525	0.003346
974.17	0.003346
983.815	0.003246
993.46	0.003486
1003.1	0.003496
1012.75	0.004096
1022.39	0.004086
1032.04	0.004416
1041.68	0.004006
1051.33	0.004176
1060.97	0.004156
1070.62	0.004186
1080.26	0.004136
1089.91	0.004346
1099.55	0.005046
1109.2	0.004426
1118.84	0.004176
1128.49	0.004066
1138.13	0.003776
1147.78	0.004046
1157.42	0.003766
1167.07	0.003426
1176.71	0.003736
1186.36	0.003626
1196	0.004306
1205.64	0.004326
1215.29	0.004426
1224.93	0.004976
1234.58	0.004926
1244.22	0.005616
1253.87	0.005526
1263.51	0.006346
1273.16	0.007626
1282.8	0.008396
1292.45	0.010396
1302.09	0.013486
1311.74	0.016726
1321.38	0.020476
1331.03	0.030046
1340.67	0.050776
1350.32	0.063796
1359.96	0.046106
1369.61	0.029586
1379.25	0.015666
1388.9	0.008276
1398.54	0.005486
1408.18	0.004536
1417.83	0.004616
1427.47	0.005866
1437.12	0.009996
1446.76	0.018796
1456.41	0.033166
1466.05	0.032636
1475.7	0.012836
1485.34	0.005236
1494.99	0.003136
1504.63	0.002366
1514.28	0.001886
1523.92	0.001726
1533.57	0.0015587
1543.21	0.0014562
1552.86	0.0013885
1562.5	0.001273
1572.15	0.0011625
1581.79	0.0011022
1591.44	0.0011289
1601.08	0.0010932
1610.73	0.0010528
1620.37	0.0009721
1630.01	0.001102
1639.66	0.0010553
1649.3	0.0010673
1658.95	0.0010189
1668.59	0.0010255
1678.24	0.0010443
1687.88	0.0010408
1697.53	0.0010331
1707.17	0.0010263
1716.82	0.001142
1726.46	0.0010623
1736.11	0.001114
1745.75	0.001103
1755.4	0.0010849
1765.04	0.0011122
1774.69	0.0012716
1784.33	0.0012249
1793.98	0.0013178
1803.62	0.0013426
1813.27	0.0014903
1822.91	0.001656
1832.55	0.001886
1842.2	0.002176
1851.84	0.002586
1861.49	0.003026
1871.13	0.003706
1880.78	0.004496
1890.42	0.005716
1900.07	0.007106
1909.71	0.008936
1919.36	0.011176
1929	0.014056
1938.65	0.017596
1948.29	0.022196
1957.94	0.028366
1967.58	0.036586
1977.23	0.048156
1986.87	0.064316
1996.52	0.086936
2006.16	0.118196
2015.81	0.160456
2025.45	0.216486
2035.1	0.286546
2044.74	0.360156
2054.38	0.410326
2064.03	0.410296
2073.67	0.358236
2083.32	0.282256
2092.96	0.213286
2102.61	0.163496
2112.25	0.130066
2121.9	0.107176
2131.54	0.090856
2141.19	0.079556
2150.83	0.072116
2160.48	0.066946
2170.12	0.062976
2179.77	0.059316
2189.41	0.055676
2199.06	0.051206
2208.7	0.044746
2218.35	0.036226
2227.99	0.027716
2237.64	0.020656
2247.28	0.015666
2256.92	0.012296
2266.57	0.009766
2276.21	0.007916
2285.86	0.006576
2295.5	0.005586
2305.15	0.004586
2314.79	0.003886
2324.44	0.003296
2334.08	0.002766
2343.73	0.002406
2353.37	0.002246
2363.02	0.002016
2372.66	0.001696
2382.31	0.001696
2391.95	0.0014947
2401.6	0.0015266
2411.24	0.0014777
2420.89	0.0013539
2430.53	0.0013392
2440.18	0.0013868
2449.82	0.0014029
2459.47	0.0013677
2469.11	0.0013359
2478.75	0.0013815
2488.4	0.0014652
2498.04	0.0015379
2507.69	0.0016035
2517.33	0.0015942
2526.98	0.001786
2536.62	0.001906
2546.27	0.002026
2555.91	0.002146
2565.56	0.002276
2575.2	0.002236
2584.85	0.002276
2594.49	0.002156
2604.14	0.002116
2613.78	0.001966
2623.43	0.001776
2633.07	0.001796
2642.72	0.001836
2652.36	0.002066
2662.01	0.002496
2671.65	0.002986
2681.29	0.003546
2690.94	0.004086
2700.58	0.004686
2710.23	0.005456
2719.87	0.006096
2729.52	0.006986
2739.16	0.006976
2748.81	0.006546
2758.45	0.005646
2768.1	0.005066
2777.74	0.004696
2787.39	0.004586
2797.03	0.004576
2806.68	0.004946
2816.32	0.005206
2825.97	0.005806
2835.61	0.006896
2845.26	0.009956
2854.9	0.019956
2864.55	0.036776
2874.19	0.035536
2883.84	0.031916
2893.48	0.028256
2903.12	0.026046
2912.77	0.034246
2922.41	0.052846
2932.06	0.080496
2941.7	0.107856
2951.35	0.108476
2960.99	0.069056
2970.64	0.028906
2980.28	0.013776
2989.93	0.008256
2999.57	0.005666
3009.22	0.004316
3018.86	0.003496
3028.51	0.002786
3038.15	0.002306
3047.8	0.001986
3057.44	0.0015797
3067.09	0.0014329
3076.73	0.0010832
3086.38	0.0011796
3096.02	0.0010024
3105.67	0.0009758
3115.31	0.0005409
3124.95	0.00062412
3134.6	0.0005737
3144.24	0.0007275
3153.89	0.0006431
3163.53	0.000381
3173.18	0.0005645
3182.82	0.000511
3192.47	0.000474
3202.11	0.000529
3211.76	0.000385
3221.4	0.0005532
3231.05	0.000344
3240.69	0
3250.34	0.000366
3259.98	0.000201
3269.63	0.000213
3279.27	0.000355
3288.92	0.000322
3298.56	0.000207
3308.21	0.000339
3317.85	0.000265
3327.49	0.000216
3337.14	0.00032
3346.78	0.000248
3356.43	5e-05
3366.07	0.000501
3375.72	0.000365
3385.36	7.9e-05
3395.01	0.000251
3404.65	0.000241
3414.3	0.000418
3423.94	0.000375
3433.59	0.000469
3443.23	0.000298
3452.88	0.000246
3462.52	0.000429
3472.17	0.000413
3481.81	0.000516
3491.46	0.000411
3501.1	0.000368
3510.75	0.000356
3520.39	0.000272
3530.04	0.00028
3539.68	0.000387
3549.32	0.000385
3558.97	0.000204
3568.61	0.000314
3578.26	0.00042
3587.9	0.000438
3597.55	0.000262
3607.19	0.000496
3616.84	0.000393
3626.48	0.000442
3636.13	0.000523
3645.77	0.000536
3655.42	0.000377
3665.06	0.0005395
3674.71	0.00064028
3684.35	0.0006701
3694	0.00044
3703.64	0.000485
3713.29	0.000442
3722.93	0.000425
3732.58	0.000374
3742.22	0.0005977
3751.86	0.00070362
3761.51	0.0007578
3771.15	0.0008726
3780.8	0.000634154
3790.44	0.0005771
3800.09	0.0006058
3809.73	0.000522
3819.38	0.00064118
3829.02	0.000533
3838.67	0.0006361
3848.31	0.0005366
3857.96	0.0008627
3867.6	0.00068152
3877.25	0.00066911
3886.89	0.00065099
3896.54	0.0007308
3906.18	0.0009835
3915.83	0.0007961
3925.47	0.0009646
3935.12	0.0009285
3944.76	0.0011727
3954.41	0.0011449
3964.05	0.0012674
3973.69	0.0013468
3983.34	0.0013044
3992.98	0.001756
