Infrared Spectrum: N,N-DIMETHYL-p-PHENYLENEDIAMINE, OXALATE
Formula: C18 H26 N4 O4
CAS: 56331-39-6
State: SOLID (OIL MULL)
Melting point: 207 C
Class: COBLENTZ III
Instrument: BAIRD NaCl PRISM
Sampling: TRANSMISSION
Resolution: 4
Origin: WYANDOTTE CHEMICALS CORP.
MICROMETERS	TRANSMITTANCE
2.069	0.223
2.1082	0.226
2.1474	0.229
2.1866	0.232
2.2258	0.235
2.265	0.238
2.3042	0.239
2.3434	0.245
2.3826	0.249
2.4218	0.256
2.461	0.264
2.5002	0.272
2.5394	0.286
2.5786	0.297
2.6178	0.305
2.657	0.319
2.6962	0.33
2.7354	0.348
2.7746	0.358
2.8138	0.373
2.853	0.382
2.8922	0.384
2.9314	0.395
2.9706	0.401
3.0098	0.411
3.049	0.422
3.0882	0.448
3.1274	0.466
3.1666	0.474
3.2058	0.476
3.245	0.472
3.2842	0.442
3.3234	0.379
3.3626	0.282
3.4018	0.105
3.441	0.023
3.4802	0.02
3.5194	0.02
3.5586	0.024
3.5978	0.136
3.637	0.205
3.6762	0.249
3.7154	0.271
3.7546	0.286
3.7938	0.277
3.833	0.242
3.8722	0.222
3.9114	0.219
3.9506	0.219
3.9898	0.226
4.029	0.234
4.0682	0.25
4.1074	0.271
4.1466	0.283
4.1858	0.299
4.225	0.319
4.2642	0.343
4.3034	0.359
4.3426	0.371
4.3818	0.388
4.421	0.414
4.4602	0.442
4.4994	0.455
4.5386	0.475
4.5778	0.49
4.617	0.507
4.6562	0.527
4.6954	0.549
4.7346	0.568
4.7738	0.577
4.813	0.585
4.8522	0.587
4.8914	0.585
4.9306	0.585
4.9698	0.587
5.009	0.604
5.0482	0.619
5.0874	0.632
5.1266	0.654
5.1658	0.68
5.205	0.707
5.2442	0.726
5.2834	0.742
5.3226	0.755
5.3618	0.773
5.401	0.782
5.4402	0.778
5.4794	0.802
5.5186	0.835
5.5578	0.853
5.597	0.867
5.6362	0.883
5.6754	0.893
5.7146	0.906
5.7538	0.909
5.793	0.904
5.8322	0.899
5.8714	0.885
5.9106	0.868
5.9498	0.823
5.989	0.73
6.0282	0.536
6.0674	0.472
6.1066	0.337
6.1458	0.251
6.185	0.299
6.2242	0.292
6.2634	0.237
6.3026	0.239
6.3418	0.303
6.381	0.348
6.4202	0.385
6.4594	0.395
6.4986	0.353
6.5378	0.259
6.577	0.239
6.6162	0.218
6.6554	0.218
6.6946	0.223
6.7338	0.232
6.773	0.218
6.8122	0.132
6.8514	0.117
6.8906	0.153
6.9298	0.191
6.969	0.261
7.0082	0.399
7.0474	0.47
7.0866	0.5
7.1258	0.522
7.165	0.545
7.2042	0.547
7.2434	0.422
7.2826	0.312
7.3218	0.3
7.361	0.315
7.4002	0.394
7.4394	0.441
7.4786	0.471
7.5178	0.48
7.557	0.507
7.5962	0.479
7.6354	0.422
7.6746	0.32
7.7138	0.212
7.753	0.199
7.7922	0.25
7.8314	0.332
7.8706	0.431
7.9098	0.501
7.949	0.57
7.9882	0.617
8.0274	0.64
8.0666	0.549
8.1058	0.455
8.145	0.438
8.1842	0.405
8.2234	0.402
8.2626	0.443
8.3018	0.501
8.341	0.529
8.3802	0.527
8.4194	0.411
8.4586	0.348
8.4978	0.379
8.537	0.433
8.5762	0.486
8.6154	0.542
8.6546	0.574
8.6938	0.589
8.733	0.571
8.7722	0.533
8.8114	0.603
8.8506	0.651
8.8898	0.68
8.929	0.689
8.9682	0.694
9.0074	0.695
9.0466	0.713
9.0858	0.751
9.125	0.769
9.1642	0.78
9.2034	0.788
9.2426	0.789
9.2818	0.789
9.321	0.783
9.3602	0.724
9.3994	0.625
9.4386	0.648
9.4778	0.717
9.517	0.755
9.5562	0.781
9.5954	0.799
9.6346	0.807
9.6738	0.82
9.713	0.832
9.7522	0.84
9.7914	0.848
9.8306	0.857
9.8698	0.866
9.909	0.871
9.9482	0.872
9.9874	0.874
10.0266	0.878
10.0658	0.884
10.105	0.893
10.1442	0.898
10.1834	0.899
10.2226	0.901
10.2618	0.899
10.301	0.899
10.3402	0.902
10.3794	0.905
10.4186	0.907
10.4578	0.912
10.497	0.914
10.5362	0.855
10.5754	0.754
10.6146	0.75
10.6538	0.799
10.693	0.851
10.7322	0.872
10.7714	0.883
10.8106	0.901
10.8498	0.888
10.889	0.867
10.9282	0.891
10.9674	0.907
11.0066	0.918
11.0458	0.925
11.085	0.933
11.1242	0.938
11.1634	0.941
11.2026	0.939
11.2418	0.941
11.281	0.944
11.3202	0.947
11.3594	0.952
11.3986	0.957
11.4378	0.959
11.477	0.963
11.5162	0.969
11.5554	0.971
11.5946	0.959
11.6338	0.959
11.673	0.97
11.7122	0.975
11.7514	0.975
11.7906	0.977
11.8298	0.979
11.869	0.98
11.9082	0.981
11.9474	0.985
11.9866	0.986
12.0258	0.988
12.065	0.99
12.1042	0.99
12.1434	0.99
12.1826	0.985
12.2218	0.972
12.261	0.952
12.3002	0.895
12.3394	0.73
12.3786	0.64
12.4178	0.604
12.457	0.566
12.4962	0.432
12.5354	0.341
12.5746	0.356
12.6138	0.486
12.653	0.603
12.6922	0.726
12.7314	0.832
12.7706	0.882
12.8098	0.907
12.849	0.917
12.8882	0.925
12.9274	0.928
12.9666	0.927
13.0058	0.914
13.045	0.879
13.0842	0.759
13.1234	0.582
13.1626	0.422
13.2018	0.332
13.241	0.373
13.2802	0.496
13.3194	0.601
13.3586	0.703
13.3978	0.767
13.437	0.807
13.4762	0.832
13.5154	0.845
13.5546	0.852
13.5938	0.856
13.633	0.857
13.6722	0.863
13.7114	0.866
13.7506	0.866
13.7898	0.863
13.829	0.861
13.8682	0.857
13.9074	0.853
13.9466	0.857
13.9858	0.874
14.025	0.893
14.0642	0.905
14.1034	0.915
14.1426	0.921
14.1818	0.926
14.221	0.929
14.2602	0.929
14.2994	0.922
14.3386	0.918
14.3778	0.916
14.417	0.911
14.4562	0.9
14.4954	0.898
14.5346	0.896
14.5738	0.896
14.613	0.895
14.6522	0.891
14.6914	0.891
14.7306	0.888
14.7698	0.88
14.809	0.873
14.8482	0.867
14.8874	0.861
14.9266	0.856
14.9658	0.846
15.005	0.821
15.0442	0.78
15.0834	0.742
15.1226	0.737
15.1618	0.754
15.201	0.76
15.2402	0.759
15.2794	0.746
15.3186	0.727
15.3578	0.718
15.397	0.71
15.4362	0.694
15.4754	0.676
15.5146	0.667
15.5538	0.652
15.593	0.641
15.6322	0.62
15.6714	0.6
15.7106	0.579
15.7498	0.565
15.789	0.555
15.8282	0.545
15.8674	0.536
15.9066	0.53
15.9458	0.518
15.985	0.506
