Infrared Spectrum: KETENE, DIMETHYL-, DIMETHYL ACETAL
Formula: C6 H12 O2
CAS: 5634-54-8
State: LIQUID
Boiling point: 107-108 C
Class: COBLENTZ
Instrument: Not specified, most likely a prism, grating, or hybrid spectrometer.
Sampling: TRANSMISSION
Path length: 0.0030 CM
Resolution: 4
Origin: TENNESSEE EASTMAN COMPANY, RESEARCH LABORATORIES
MICROMETERS	TRANSMITTANCE
2.053	0.993
2.09275	0.993
2.13251	0.993
2.17226	0.991
2.21202	0.941
2.25177	0.897
2.29153	0.923
2.33128	0.93
2.37103	0.936
2.41079	0.941
2.45054	0.943
2.4903	0.945
2.53005	0.951
2.56981	0.953
2.60956	0.95
2.64931	0.963
2.68907	0.966
2.72882	0.968
2.76858	0.956
2.80833	0.945
2.84809	0.938
2.88784	0.935
2.92759	0.933
2.96735	0.94
3.0071	0.943
3.04686	0.941
3.08661	0.943
3.12637	0.941
3.16612	0.915
3.20587	0.87
3.24563	0.775
3.28538	0.626
3.32514	0.076
3.36489	0.074
3.40465	0.054
3.4444	0.164
3.48415	0.184
3.52391	0.516
3.56366	0.833
3.60342	0.888
3.64317	0.807
3.68293	0.92
3.72268	0.941
3.76243	0.948
3.80219	0.948
3.84194	0.945
3.8817	0.941
3.92145	0.963
3.96121	0.975
4.00096	0.968
4.04071	0.971
4.08047	0.961
4.12022	0.938
4.15998	0.908
4.19973	0.928
4.23949	0.938
4.27924	0.926
4.31899	0.933
4.35875	0.956
4.3985	0.958
4.43826	0.968
4.47801	0.975
4.51777	0.97
4.55752	0.96
4.59727	0.946
4.63703	0.943
4.67678	0.941
4.71654	0.946
4.75629	0.95
4.79605	0.936
4.8358	0.913
4.87555	0.925
4.91531	0.897
4.95506	0.887
4.99482	0.897
5.03457	0.868
5.07433	0.92
5.11408	0.92
5.15383	0.887
5.19359	0.89
5.23334	0.89
5.2731	0.918
5.31285	0.918
5.35261	0.911
5.39236	0.908
5.43211	0.935
5.47187	0.94
5.51162	0.938
5.55138	0.921
5.59113	0.87
5.63088	0.727
5.67064	0.519
5.71039	0.318
5.75015	0.279
5.7899	0.146
5.82966	0.019
5.86941	0.112
5.90916	0.579
5.94892	0.659
5.98867	0.789
6.02843	0.838
6.06818	0.837
6.10794	0.85
6.14769	0.85
6.18744	0.853
6.2272	0.853
6.26695	0.84
6.30671	0.828
6.34646	0.817
6.38622	0.808
6.42597	0.81
6.46572	0.77
6.50548	0.784
6.54523	0.769
6.58499	0.762
6.62474	0.739
6.6645	0.684
6.70425	0.566
6.744	0.397
6.78376	0.224
6.82351	0.159
6.86327	0.116
6.90302	0.169
6.94278	0.39
6.98253	0.526
7.02228	0.619
7.06204	0.689
7.10179	0.719
7.14155	0.717
7.1813	0.659
7.22106	0.614
7.26081	0.616
7.30056	0.634
7.34032	0.699
7.38007	0.704
7.41983	0.697
7.45958	0.727
7.49934	0.76
7.53909	0.767
7.57884	0.767
7.6186	0.749
7.65835	0.707
7.69811	0.652
7.73786	0.549
7.77762	0.426
7.81737	0.35
7.85712	0.277
7.89688	0.099
7.93663	0.061
7.97639	0.205
8.01614	0.32
8.0559	0.367
8.09565	0.313
8.1354	0.182
8.17516	0.073
8.21491	0.026
8.25467	0.018
8.29442	0.019
8.33418	0.018
8.37393	0.031
8.41368	0.076
8.45344	0.088
8.49319	0.051
8.53295	0.021
8.5727	0.009
8.61246	0.006
8.65221	0.009
8.69196	0.006
8.73172	0.006
8.77147	0.008
8.81123	0.016
8.85098	0.048
8.89074	0.091
8.93049	0.139
8.97024	0.187
9.01	0.264
9.04975	0.313
9.08951	0.332
9.12926	0.355
9.16902	0.342
9.20877	0.33
9.24852	0.362
9.28828	0.372
9.32803	0.378
9.36779	0.401
9.40754	0.441
9.4473	0.453
9.48705	0.397
9.5268	0.322
9.56656	0.209
9.60631	0.078
9.64607	0.033
9.68582	0.074
9.72558	0.21
9.76533	0.33
9.80508	0.388
9.84484	0.358
9.88459	0.274
9.92435	0.137
9.9641	0.041
10.0039	0.024
10.0436	0.049
10.0834	0.144
10.1231	0.284
10.1629	0.435
10.2026	0.524
10.2424	0.578
10.2821	0.601
10.3219	0.589
10.3616	0.561
10.4014	0.596
10.4412	0.666
10.4809	0.724
10.5207	0.757
10.5604	0.78
10.6002	0.8
10.6399	0.812
10.6797	0.822
10.7194	0.825
10.7592	0.828
10.7989	0.835
10.8387	0.835
10.8784	0.82
10.9182	0.797
10.958	0.774
10.9977	0.812
11.0375	0.838
11.0772	0.85
11.117	0.857
11.1567	0.863
11.1965	0.883
11.2362	0.903
11.276	0.916
11.3157	0.925
11.3555	0.928
11.3953	0.933
11.435	0.936
11.4748	0.938
11.5145	0.938
11.5543	0.938
11.594	0.938
11.6338	0.94
11.6735	0.94
11.7133	0.938
11.753	0.931
11.7928	0.931
11.8326	0.933
11.8723	0.933
11.9121	0.933
11.9518	0.93
11.9916	0.916
12.0313	0.89
12.0711	0.86
12.1108	0.865
12.1506	0.878
12.1903	0.893
12.2301	0.9
12.2698	0.906
12.3096	0.91
12.3494	0.91
12.3891	0.908
12.4289	0.906
12.4686	0.893
12.5084	0.885
12.5481	0.878
12.5879	0.878
12.6276	0.887
12.6674	0.895
12.7071	0.897
12.7469	0.897
12.7867	0.898
12.8264	0.9
12.8662	0.898
12.9059	0.895
12.9457	0.882
12.9854	0.88
13.0252	0.872
13.0649	0.865
13.1047	0.863
13.1444	0.857
13.1842	0.852
13.224	0.852
13.2637	0.847
13.3035	0.843
13.3432	0.84
13.383	0.837
13.4227	0.828
13.4625	0.822
13.5022	0.822
13.542	0.818
13.5817	0.815
13.6215	0.805
13.6612	0.794
13.701	0.774
13.7408	0.747
13.7805	0.7
13.8203	0.667
13.86	0.641
13.8998	0.647
13.9395	0.674
13.9793	0.697
14.019	0.719
14.0588	0.737
14.0985	0.75
14.1383	0.755
14.1781	0.762
14.2178	0.767
14.2576	0.769
14.2973	0.767
14.3371	0.765
14.3768	0.762
14.4166	0.76
14.4563	0.757
14.4961	0.75
14.5358	0.747
14.5756	0.744
14.6154	0.739
14.6551	0.735
14.6949	0.725
14.7346	0.72
14.7744	0.712
14.8141	0.705
14.8539	0.699
14.8936	0.686
14.9334	0.676
14.9731	0.667
15.0129	0.667
15.0526	0.661
15.0924	0.652
15.1322	0.646
15.1719	0.636
15.2117	0.631
15.2514	0.624
15.2912	0.611
15.3309	0.607
15.3707	0.602
15.4104	0.598
15.4502	0.596
15.4899	0.589
15.5297	0.586
15.5695	0.578
15.6092	0.574
15.649	0.569
15.6887	0.566
15.7285	0.564
15.7682	0.561
15.808	0.558
15.8477	0.558
15.8875	0.553
15.9272	0.551
15.967	0.549
