Infrared Spectrum: 4-Ethoxyphenethylamine
Formula: C 10 H 15 N O
CAS: 56370-30-0
State: gas
Origin: EPA-IR VAPOR PHASE LIBRARY
1/CM	ABSORBANCE
549.8	0.00707
559.445	0.00794
569.09	0.0079
578.734	0.00771
588.379	0.00614
598.024	0.00456
607.669	0.00406
617.313	0.00385
626.958	0.00426
636.603	0.00436
646.248	0.00461
655.893	0.00481
665.537	0.00526
675.182	0.00616
684.827	0.00754
694.472	0.00941
704.116	0.01053
713.761	0.0116
723.406	0.01276
733.051	0.01402
742.695	0.01667
752.34	0.02039
761.985	0.02447
771.63	0.02843
781.275	0.02908
790.919	0.0277
800.564	0.02697
810.209	0.02687
819.854	0.02583
829.498	0.02175
839.143	0.01583
848.788	0.0119
858.433	0.00964
868.078	0.00787
877.722	0.00652
887.367	0.00708
897.012	0.00939
906.657	0.01077
916.301	0.01074
925.946	0.00955
935.591	0.00636
945.236	0.00475
954.88	0.00394
964.525	0.00399
974.17	0.00452
983.815	0.00554
993.46	0.0064
1003.1	0.00833
1012.75	0.01286
1022.39	0.01625
1032.04	0.02625
1041.68	0.0388
1051.33	0.03854
1060.97	0.03048
1070.62	0.02315
1080.26	0.018
1089.91	0.01862
1099.55	0.0191
1109.2	0.01875
1118.84	0.0167
1128.49	0.01072
1138.13	0.00785
1147.78	0.00726
1157.42	0.01031
1167.07	0.02444
1176.71	0.03249
1186.36	0.01348
1196	0.01126
1205.64	0.01957
1215.29	0.04051
1224.93	0.08317
1234.58	0.1329
1244.22	0.13435
1253.87	0.07965
1263.51	0.03682
1273.16	0.02519
1282.8	0.0242
1292.45	0.0259
1302.09	0.0247
1311.74	0.01701
1321.38	0.01072
1331.03	0.00859
1340.67	0.00803
1350.32	0.00835
1359.96	0.00943
1369.61	0.01053
1379.25	0.01328
1388.9	0.01938
1398.54	0.01913
1408.18	0.01022
1417.83	0.00706
1427.47	0.00688
1437.12	0.00841
1446.76	0.00948
1456.41	0.00944
1466.05	0.0107
1475.7	0.0185
1485.34	0.02518
1494.99	0.03323
1504.63	0.09423
1514.28	0.10376
1523.92	0.02853
1533.57	0.01149
1543.21	0.00779
1552.86	0.00655
1562.5	0.00685
1572.15	0.009
1581.79	0.01198
1591.44	0.01449
1601.08	0.02244
1610.73	0.03146
1620.37	0.02473
1630.01	0.01385
1639.66	0.0085
1649.3	0.00562
1658.95	0.00388
1668.59	0.00294
1678.24	0.0024
1687.88	0.00213
1697.53	0.00196
1707.17	0.00187
1716.82	0.00177
1726.46	0.0017
1736.11	0.00185
1745.75	0.0021
1755.4	0.00222
1765.04	0.00188
1774.69	0.00146
1784.33	0.0013
1793.98	0.00129
1803.62	0.00143
1813.27	0.00145
1822.91	0.00146
1832.55	0.00162
1842.2	0.00183
1851.84	0.00218
1861.49	0.00256
1871.13	0.0028
1880.78	0.0027
1890.42	0.00222
1900.07	0.0018
1909.71	0.00158
1919.36	0.00165
1929	0.00174
1938.65	0.0019
1948.29	0.00185
1957.94	0.00185
1967.58	0.00178
1977.23	0.00173
1986.87	0.00145
1996.52	0.00149
2006.16	0.00142
2015.81	0.00139
2025.45	0.00143
2035.1	0.00142
2044.74	0.00161
2054.38	0.00163
2064.03	0.00162
2073.67	0.00148
2083.32	0.0013
2092.96	0.001108
2102.61	0.0010012
2112.25	0.000901
2121.9	0.0007828
2131.54	0.0008063
2141.19	0.000742
2150.83	0.0006622
2160.48	0.0006978
2170.12	0.0006182
2179.77	0.000721
2189.41	0.000654
2199.06	0.0005794
2208.7	0.0005914
2218.35	0.0006191
2227.99	0.0005686
2237.64	0.0006059
2247.28	0.000629
2256.92	0.0007147
2266.57	0.0007966
2276.21	0.0008493
2285.86	0.0008357
2295.5	0.0009049
2305.15	0.0009374
2314.79	0.0009005
2324.44	0.0009284
2334.08	0.0008948
2343.73	0.0008884
2353.37	0.0008957
2363.02	0.0008133
2372.66	0.0006064
2382.31	0.0008405
2391.95	0.0008619
2401.6	0.0010708
2411.24	0.00129
2420.89	0.00123
2430.53	0.00125
2440.18	0.00127
2449.82	0.00139
2459.47	0.0015
2469.11	0.00144
2478.75	0.00141
2488.4	0.00137
2498.04	0.00125
2507.69	0.0011567
2517.33	0.00129
2526.98	0.00138
2536.62	0.00133
2546.27	0.00131
2555.91	0.0010718
2565.56	0.0010401
2575.2	0.0009439
2584.85	0.0010814
2594.49	0.00116
2604.14	0.00119
2613.78	0.0012
2623.43	0.0010438
2633.07	0.00121
2642.72	0.0012
2652.36	0.00128
2662.01	0.00127
2671.65	0.00135
2681.29	0.00152
2690.94	0.00159
2700.58	0.00173
2710.23	0.00204
2719.87	0.00236
2729.52	0.00294
2739.16	0.0032
2748.81	0.00321
2758.45	0.00316
2768.1	0.003
2777.74	0.00313
2787.39	0.0033
2797.03	0.00358
2806.68	0.00418
2816.32	0.00531
2825.97	0.00698
2835.61	0.01027
2845.26	0.01644
2854.9	0.02293
2864.55	0.02496
2874.19	0.02626
2883.84	0.02738
2893.48	0.02698
2903.12	0.03095
2912.77	0.03976
2922.41	0.0465
2932.06	0.04956
2941.7	0.0525
2951.35	0.03954
2960.99	0.02733
2970.64	0.02525
2980.28	0.03082
2989.93	0.03237
2999.57	0.02357
3009.22	0.01619
3018.86	0.01441
3028.51	0.01877
3038.15	0.01861
3047.8	0.01003
3057.44	0.00794
3067.09	0.00865
3076.73	0.00788
3086.38	0.00631
3096.02	0.00595
3105.67	0.00478
3115.31	0.0034
3124.95	0.00267
3134.6	0.00191
3144.24	0.00142
3153.89	0.00127
3163.53	0.0010382
3173.18	0.0009536
3182.82	0.0008972
3192.47	0.0008256
3202.11	0.0008091
3211.76	0.0008141
3221.4	0.0007378
3231.05	0.0007333
3240.69	0.0005732
3250.34	0.0005518
3259.98	0.0004828
3269.63	0.0004904
3279.27	0.0005229
3288.92	0.0005774
3298.56	0.0005255
3308.21	0.0005302
3317.85	0.0005525
3327.49	0.0006584
3337.14	0.0008644
3346.78	0.0010105
3356.43	0.000814
3366.07	0.0006276
3375.72	0.0004438
3385.36	0.0004015
3395.01	0.0005172
3404.65	0.000616
3414.3	0.0006371
3423.94	0.0006055
3433.59	0.0006152
3443.23	0.0004053
3452.88	0.0004168
3462.52	0.000366
3472.17	0.0002749
3481.81	0.00017295
3491.46	0.0002932
3501.1	0.00023939
3510.75	0.0002934
3520.39	0.0001356
3530.04	0.0002841
3539.68	0.0002706
3549.32	0.00024053
3558.97	0.0004435
3568.61	0.0003905
3578.26	0.000407
3587.9	0.000167944
3597.55	0.0004349
3607.19	0.0004728
3616.84	0.0003619
3626.48	0.0004333
3636.13	0.000162397
3645.77	0.0004125
3655.42	0.0004936
3665.06	0.0003365
3674.71	0.0003204
3684.35	0.0003958
3694	0.0004005
3703.64	0.0003551
3713.29	0.0004186
3722.93	0.0003144
3732.58	0.0003683
3742.22	0.0002981
3751.86	0.0003295
3761.51	0.0004396
3771.15	0.0004563
3780.8	0.0004051
3790.44	0.0004811
3800.09	0.0003682
3809.73	0.0004749
3819.38	0.0004683
3829.02	0.0004529
3838.67	0.0003093
3848.31	0.0003885
3857.96	0.0004696
3867.6	0.0005491
3877.25	0.0003707
3886.89	0.0004223
3896.54	0.0003396
3906.18	0.0004691
3915.83	0.00024941
3925.47	0.0003815
3935.12	0.0004423
3944.76	0.0004426
3954.41	0.0004623
3964.05	0.0005307
3973.69	0.0004531
3983.34	0.0003504
3992.98	0.0004156
