Infrared Spectrum: s-Triazine, 2,4,6-triazido-,
Formula: C3 N12
CAS: 5637-83-2
State: SOLUTION (CCl4 FOR 2-10.9, CCl4 FOR 5.7-7.8, AND CS2 FOR 9.6-16 MICRON)
Class: COBLENTZ III
Instrument: BAIRD (GRATING)
Instrument parameters: NaCl PRISM
Path length: 0.010 CM, 0.003 CM, AND 0.010 CM
Resolution: 2
Origin: WYANDOTTE CHEMICALS CORP.
1/CM	TRANSMITTANCE
626	0.6903
635	0.7038
644	0.7044
653	0.7218
662	0.7228
671	0.7508
680	0.7634
689	0.7568
698	0.6282
707	0.7301
716	0.7796
725	0.7889
734	0.781
743	0.7393
752	0.7606
761	0.7787
770	0.7717
779	0.7553
788	0.7414
797	0.7
806	0.2669
815	0.7522
824	0.7806
833	0.7769
842	0.7493
851	0.7043
860	0.7138
869	0.7348
878	0.7626
887	0.7912
896	0.8052
905	0.8062
914	0.806
923	0.8125
932	0.801
941	0.8062
950	0.7846
959	0.767
968	0.6811
977	0.6485
986	0.4466
995	0.6648
1004	0.5753
1013	0.5335
1022	0.7367
1031	0.7736
1040	0.7977
1049	0.8011
1058	0.7824
1067	0.7816
1076	0.774
1085	0.7749
1094	0.7679
1103	0.74
1112	0.7571
1121	0.8034
1130	0.826
1139	0.8205
1148	0.7627
1157	0.414
1166	0.6352
1175	0.5993
1184	0.3173
1193	0.161
1202	0.0849
1211	0.0187
1220	0.0333
1229	0.2715
1238	0.4665
1247	0.3489
1256	0.4459
1265	0.5532
1274	0.6736
1283	0.7359
1292	0.7395
1301	0.7261
1310	0.6361
1319	0.5308
1328	0.2853
1337	0.0983
1346	0.0277
1355	0.0239
1364	0.023
1373	0.0668
1382	0.2292
1391	0.3895
1400	0.531
1409	0.6099
1418	0.639
1427	0.6413
1436	0.5645
1445	0.46
1454	0.5506
1463	0.6442
1472	0.6331
1481	0.5965
1490	0.4629
1499	0.4443
1508	0.346
1517	0.1719
1526	0.0527
1535	0.0526
1544	0.05
1553	0.0476
1562	0.0413
1571	0.0392
1580	0.0248
1589	0.0544
1598	0.2949
1607	0.5087
1616	0.6435
1625	0.7624
1634	0.789
1643	0.8172
1652	0.8091
1661	0.7851
1670	0.7871
1679	0.8041
1688	0.7856
1697	0.7955
1706	0.8142
1715	0.8231
1724	0.849
1733	0.8668
1742	0.868
1751	0.8726
1760	0.8656
1769	0.8647
1778	0.8532
1787	0.839
1796	0.8597
1805	0.8586
1814	0.851
1823	0.8556
1832	0.8665
1841	0.875
1850	0.8758
1859	0.8751
1868	0.8813
1877	0.8842
1886	0.8818
1895	0.8774
1904	0.8731
1913	0.8772
1922	0.8737
1931	0.8596
1940	0.8508
1949	0.8508
1958	0.858
1967	0.871
1976	0.8702
1985	0.8568
1994	0.8542
2003	0.8529
2012	0.8512
2021	0.8476
2030	0.8379
2039	0.8246
2048	0.8084
2057	0.7806
2066	0.7265
2075	0.6405
2084	0.3498
2093	0.0993
2102	0.1363
2111	0.1411
2120	0.0534
2129	0.0278
2138	0.1385
2147	0.1616
2156	0.105
2165	0.1032
2174	0.2423
2183	0.3803
2192	0.5173
2201	0.6308
2210	0.7092
2219	0.7225
2228	0.7317
2237	0.7492
2246	0.774
2255	0.7844
2264	0.7755
2273	0.755
2282	0.7358
2291	0.7187
2300	0.6901
2309	0.6692
2318	0.6799
2327	0.7049
2336	0.7528
2345	0.8144
2354	0.818
2363	0.8083
2372	0.7875
2381	0.7745
2390	0.7678
2399	0.8141
2408	0.8301
2417	0.8398
2426	0.8477
2435	0.8516
2444	0.8561
2453	0.8609
2462	0.8651
2471	0.8678
2480	0.8656
2489	0.8625
2498	0.8608
2507	0.8651
2516	0.87
2525	0.8748
2534	0.8804
2543	0.8864
2552	0.8907
2561	0.894
2570	0.8967
2579	0.899
2588	0.9014
2597	0.9037
2606	0.9073
2615	0.9103
2624	0.913
2633	0.9151
2642	0.9169
2651	0.9175
2660	0.9172
2669	0.9154
2678	0.9121
2687	0.9081
2696	0.9044
2705	0.9018
2714	0.9027
2723	0.9049
2732	0.9071
2741	0.908
2750	0.9038
2759	0.8972
2768	0.8893
2777	0.8818
2786	0.8816
2795	0.892
2804	0.9024
2813	0.9057
2822	0.9054
2831	0.9028
2840	0.8966
2849	0.8864
2858	0.8748
2867	0.869
2876	0.871
2885	0.8756
2894	0.8782
2903	0.8771
2912	0.8746
2921	0.8705
2930	0.8643
2939	0.8576
2948	0.8568
2957	0.8631
2966	0.8691
2975	0.8717
2984	0.8743
2993	0.8797
3002	0.892
3011	0.9037
3020	0.9105
3029	0.9111
3038	0.9101
3047	0.9066
3056	0.9029
3065	0.8983
3074	0.8925
3083	0.8868
3092	0.8803
3101	0.8806
3110	0.8841
3119	0.8893
3128	0.8964
3137	0.9021
3146	0.9055
3155	0.906
3164	0.9059
3173	0.9059
3182	0.9064
3191	0.9078
3200	0.9119
3209	0.9165
3218	0.917
3227	0.9164
3236	0.9151
3245	0.9133
3254	0.91
3263	0.9055
3272	0.9002
3281	0.8914
3290	0.891
3299	0.8917
3308	0.8926
3317	0.8939
3326	0.8953
3335	0.8966
3344	0.898
3353	0.8996
3362	0.9012
3371	0.9029
3380	0.9047
3389	0.9067
3398	0.9086
3407	0.9106
3416	0.9125
3425	0.9144
3434	0.916
3443	0.9177
3452	0.9192
3461	0.9207
3470	0.9223
3479	0.9241
3488	0.9259
3497	0.9277
3506	0.9286
3515	0.9289
3524	0.9292
3533	0.9292
3542	0.9291
3551	0.9291
3560	0.929
3569	0.9294
3578	0.9299
3587	0.9307
3596	0.9321
3605	0.9337
3614	0.9366
3623	0.9398
3632	0.9429
3641	0.9457
3650	0.9471
3659	0.9478
3668	0.9484
3677	0.9485
3686	0.9485
3695	0.9485
3704	0.9486
3713	0.9487
3722	0.9492
3731	0.9504
3740	0.9515
3749	0.9528
3758	0.9541
3767	0.9558
3776	0.9574
3785	0.9592
3794	0.9611
3803	0.9631
3812	0.9646
3821	0.9638
3830	0.962
3839	0.961
3848	0.9607
3857	0.9606
3866	0.9607
3875	0.9612
3884	0.9616
3893	0.962
3902	0.9623
3911	0.9626
3920	0.9623
3929	0.9619
3938	0.9615
3947	0.9611
3956	0.9603
3965	0.9593
3974	0.9583
3983	0.9574
3992	0.9567
