Infrared Spectrum: Ethyl o-carboethoxymethylsalicylate
Formula: C 13 H 16 O 5
CAS: 56424-77-2
State: gas
Origin: EPA-IR VAPOR PHASE LIBRARY
1/CM	ABSORBANCE
549.8	0.00536
559.445	0.0051
569.09	0.00519
578.735	0.00613
588.38	0.00652
598.025	0.00789
607.67	0.00688
617.315	0.00551
626.96	0.0049
636.605	0.0049
646.251	0.00727
655.896	0.01462
665.541	0.01017
675.186	0.00714
684.831	0.00824
694.476	0.01216
704.121	0.02028
713.766	0.02173
723.411	0.01614
733.056	0.01559
742.701	0.02757
752.346	0.04956
761.991	0.04166
771.636	0.02534
781.281	0.01659
790.926	0.01376
800.571	0.01232
810.216	0.01086
819.861	0.01029
829.507	0.01085
839.152	0.01291
848.797	0.01798
858.442	0.02034
868.087	0.01522
877.732	0.01045
887.377	0.00728
897.022	0.00624
906.667	0.00767
916.312	0.01066
925.957	0.01238
935.602	0.01222
945.247	0.01052
954.892	0.00816
964.537	0.0073
974.182	0.00799
983.827	0.00977
993.472	0.01369
1003.12	0.02149
1012.76	0.03469
1022.41	0.05226
1032.05	0.07817
1041.7	0.09909
1051.34	0.10065
1060.99	0.10824
1070.63	0.14079
1080.28	0.18448
1089.92	0.18426
1099.57	0.14874
1109.21	0.08725
1118.86	0.08212
1128.5	0.10932
1138.15	0.08886
1147.79	0.06317
1157.44	0.09194
1167.08	0.11882
1176.73	0.18198
1186.37	0.21965
1196.02	0.16156
1205.66	0.1343
1215.31	0.14194
1224.95	0.14674
1234.6	0.17572
1244.24	0.22081
1253.89	0.19298
1263.53	0.1537
1273.18	0.17704
1282.82	0.21915
1292.47	0.24445
1302.11	0.18802
1311.76	0.102
1321.4	0.05276
1331.05	0.03092
1340.69	0.02202
1350.34	0.02135
1359.98	0.0309
1369.63	0.0448
1379.27	0.03721
1388.92	0.02683
1398.56	0.022
1408.21	0.01904
1417.85	0.01917
1427.5	0.02479
1437.14	0.04112
1446.79	0.07177
1456.43	0.07179
1466.08	0.04589
1475.73	0.05627
1485.37	0.09208
1495.02	0.06278
1504.66	0.02464
1514.31	0.01361
1523.95	0.01007
1533.6	0.00845
1543.24	0.00821
1552.89	0.00939
1562.53	0.01285
1572.18	0.02118
1581.82	0.02999
1591.47	0.03655
1601.11	0.05148
1610.76	0.02949
1620.4	0.01325
1630.05	0.00925
1639.69	0.00794
1649.34	0.00768
1658.98	0.00811
1668.63	0.00931
1678.27	0.01197
1687.92	0.01712
1697.56	0.02609
1707.21	0.04235
1716.85	0.07353
1726.5	0.13189
1736.14	0.18786
1745.79	0.22762
1755.43	0.22671
1765.08	0.13907
1774.72	0.12046
1784.37	0.08782
1794.01	0.04385
1803.66	0.02325
1813.3	0.01515
1822.95	0.01111
1832.59	0.00854
1842.24	0.00681
1851.88	0.00575
1861.53	0.00518
1871.17	0.0051
1880.82	0.00528
1890.46	0.00525
1900.11	0.00529
1909.75	0.00549
1919.4	0.00504
1929.04	0.0048
1938.69	0.00486
1948.33	0.00439
1957.98	0.00358
1967.62	0.00309
1977.27	0.00288
1986.91	0.00281
1996.56	0.00283
2006.2	0.00293
2015.85	0.00308
2025.49	0.00326
2035.14	0.00335
2044.78	0.0034
2054.43	0.0035
2064.07	0.0036
2073.72	0.0038
2083.36	0.00393
2093.01	0.00397
2102.65	0.00381
2112.3	0.00349
2121.94	0.00314
2131.59	0.00293
2141.23	0.00279
2150.88	0.0025055
2160.52	0.0022161
2170.17	0.0018928
2179.81	0.0017856
2189.46	0.00166521
2199.1	0.00167324
2208.75	0.00164302
2218.39	0.001787
2228.04	0.0018157
2237.68	0.00187
2247.33	0.0019737
2256.97	0.0020969
2266.62	0.002068
2276.26	0.0021003
2285.91	0.0019955
2295.55	0.0020079
2305.2	0.0020922
2314.84	0.002262
2324.49	0.0022934
2334.13	0.0022518
2343.78	0.002273
2353.42	0.0022431
2363.07	0.0022409
2372.72	0.0021728
2382.36	0.0020712
2392.01	0.0020469
2401.65	0.0020164
2411.3	0.0019283
2420.94	0.0018512
2430.59	0.0018415
2440.23	0.0018309
2449.88	0.0018199
2459.52	0.0018158
2469.17	0.0018782
2478.81	0.00173559
2488.46	0.00174922
2498.1	0.0017567
2507.75	0.00171353
2517.39	0.00164399
2527.04	0.00169559
2536.68	0.001606
2546.33	0.0016141
2555.97	0.0016004
2565.62	0.0015596
2575.26	0.0015867
2584.91	0.001509
2594.55	0.00132
2604.2	0.001236
2613.84	0.001233
2623.49	0.001013
2633.13	0.000903
2642.78	0.000923
2652.42	0.000875
2662.07	0.000952
2671.71	0.001017
2681.36	0.001048
2691	0.00115
2700.65	0.001189
2710.29	0.001441
2719.94	0.00163
2729.58	0.0019496
2739.23	0.0019338
2748.87	0.0018728
2758.52	0.0020525
2768.16	0.0022563
2777.81	0.0024261
2787.45	0.002518
2797.1	0.0025677
2806.74	0.00278
2816.39	0.00323
2826.03	0.00376
2835.68	0.00414
2845.32	0.005
2854.97	0.00636
2864.61	0.00894
2874.26	0.01225
2883.9	0.01607
2893.55	0.01707
2903.19	0.02006
2912.84	0.02477
2922.48	0.02719
2932.13	0.03474
2941.77	0.04829
2951.42	0.04369
2961.06	0.0397
2970.71	0.04915
2980.35	0.07074
2990	0.07333
2999.64	0.04686
3009.29	0.03181
3018.93	0.02023
3028.58	0.01447
3038.22	0.01304
3047.87	0.01156
3057.51	0.01134
3067.16	0.01479
3076.8	0.01978
3086.45	0.01741
3096.09	0.00725
3105.74	0.00499
3115.38	0.00372
3125.03	0.00271
3134.67	0.0022006
3144.32	0.0020656
3153.96	0.0019766
3163.61	0.0017893
3173.25	0.001452
3182.9	0.001085
3192.54	0.001073
3202.19	0.000866
3211.83	0.000768
3221.48	0.00053
3231.12	0.00065
3240.77	0.0003
3250.41	0.00019
3260.06	0.00025
3269.7	0.00018
3279.35	0.00022
3289	0.00012
3298.64	0.00014
3308.29	0.00021
3317.93	0.00029
3327.58	0.00027
3337.22	0.00025
3346.87	0.00032
3356.51	0.00031
3366.16	0.00032
3375.8	0.00023
3385.45	0.00042
3395.09	0.00049
3404.74	0.00062
3414.38	0.000817
3424.03	0.000704
3433.67	0.00115
3443.32	0.001169
3452.96	0.001285
3462.61	0.0015688
3472.25	0.00169455
3481.9	0.0019931
3491.54	0.0019521
3501.19	0.001504
3510.83	0.001211
3520.48	0.001058
3530.12	0.001058
3539.77	0.001103
3549.41	0.000851
3559.06	0.000772
3568.7	0.000761
3578.35	0.0006
3587.99	0.00061
3597.64	0.00041
3607.28	0.00058
3616.93	0.00043
3626.57	0.00061
3636.22	0.00045
3645.86	0.00051
3655.51	0.00044
3665.15	0.00058
3674.8	0.00059
3684.44	0.00052
3694.09	0.00063
3703.73	0.00055
3713.38	0.00063
3723.02	0.000822
3732.67	0.000674
3742.31	0.000852
3751.96	0.000872
3761.6	0.000839
3771.25	0.000754
3780.89	0.000841
3790.54	0.000808
3800.18	0.000906
3809.83	0.000862
3819.47	0.000795
3829.12	0.000721
3838.76	0.000908
3848.41	0.000938
3858.05	0.000967
3867.7	0.000879
3877.34	0.000884
3886.99	0.001006
3896.63	0.000948
3906.28	0.000975
3915.92	0.000888
3925.57	0.00089
3935.21	0.001036
3944.86	0.001014
3954.5	0.000989
3964.15	0.001002
3973.79	0.001034
3983.44	0.001124
3993.08	0.001112
