Infrared Spectrum: 2,4-Difluorobenzyl alcohol
Formula: C 7 H 6 F 2 O
CAS: 56456-47-4
State: gas
Origin: EPA-IR VAPOR PHASE LIBRARY
1/CM	ABSORBANCE
549.8	0.005026
559.445	0.004406
569.09	0.003346
578.734	0.004366
588.379	0.004126
598.024	0.006566
607.669	0.008416
617.313	0.007476
626.958	0.005116
636.603	0.003096
646.248	0.002316
655.893	0.0011716
665.537	0.001746
675.182	0.001746
684.827	0.002966
694.472	0.002926
704.116	0.004036
713.761	0.004606
723.406	0.005736
733.051	0.005466
742.695	0.004266
752.34	0.003436
761.985	0.004576
771.63	0.006106
781.275	0.007716
790.919	0.009006
800.564	0.011036
810.209	0.012956
819.854	0.013596
829.498	0.010686
839.143	0.021706
848.788	0.038026
858.433	0.031936
868.078	0.016546
877.722	0.005516
887.367	0.003546
897.012	0.003356
906.657	0.004116
916.301	0.004346
925.946	0.007266
935.591	0.013826
945.236	0.023336
954.88	0.035866
964.525	0.044346
974.17	0.041676
983.815	0.029376
993.46	0.022666
1003.1	0.026156
1012.75	0.036906
1022.39	0.047286
1032.04	0.047156
1041.68	0.035886
1051.33	0.025286
1060.97	0.016456
1070.62	0.013296
1080.26	0.017466
1089.91	0.049656
1099.55	0.057586
1109.2	0.032036
1118.84	0.014756
1128.49	0.037576
1138.13	0.064076
1147.78	0.049516
1157.42	0.014536
1167.07	0.011406
1176.71	0.013336
1186.36	0.016686
1196	0.016086
1205.64	0.012176
1215.29	0.009356
1224.93	0.010476
1234.58	0.011336
1244.22	0.013036
1253.87	0.021606
1263.51	0.038086
1273.16	0.063826
1282.8	0.066066
1292.45	0.039286
1302.09	0.018856
1311.74	0.011976
1321.38	0.009266
1331.03	0.008586
1340.67	0.008546
1350.32	0.009016
1359.96	0.011096
1369.61	0.014966
1379.25	0.019276
1388.9	0.019286
1398.54	0.017596
1408.18	0.018956
1417.83	0.025566
1427.47	0.031376
1437.12	0.027176
1446.76	0.017226
1456.41	0.017446
1466.05	0.020936
1475.7	0.017296
1485.34	0.021456
1494.99	0.057456
1504.63	0.095776
1514.28	0.072196
1523.92	0.021046
1533.57	0.010036
1543.21	0.008916
1552.86	0.008846
1562.5	0.008736
1572.15	0.011736
1581.79	0.021636
1591.44	0.041846
1601.08	0.066416
1610.73	0.085596
1620.37	0.073156
1630.01	0.045296
1639.66	0.026546
1649.3	0.016536
1658.95	0.009486
1668.59	0.005676
1678.24	0.004026
1687.88	0.003106
1697.53	0.003756
1707.17	0.003306
1716.82	0.002326
1726.46	0.0015761
1736.11	0.0015992
1745.75	0.002046
1755.4	0.0016243
1765.04	0.001686
1774.69	0.0012094
1784.33	0.0013157
1793.98	0.0014416
1803.62	0.0012783
1813.27	0.001646
1822.91	0.001656
1832.55	0.0015023
1842.2	0.001597
1851.84	0.001926
1861.49	0.002376
1871.13	0.002896
1880.78	0.002946
1890.42	0.002026
1900.07	0.001342
1909.71	0.0013247
1919.36	0.0011004
1929	0.0011275
1938.65	0.0011709
1948.29	0.0013626
1957.94	0.0010743
1967.58	0.0014297
1977.23	0.0015914
1986.87	0.0015458
1996.52	0.001716
2006.16	0.001696
2015.81	0.002056
2025.45	0.001696
2035.1	0.001916
2044.74	0.002166
2054.38	0.001646
2064.03	0.001836
2073.67	0.0015451
2083.32	0.0013962
2092.96	0.0013765
2102.61	0.0013438
2112.25	0.001148
2121.9	0.0009179
2131.54	0.0012284
2141.19	0.0012696
2150.83	0.0011882
2160.48	0.0011008
2170.12	0.0010666
2179.77	0.0013356
2189.41	0.0013179
2199.06	0.0015016
2208.7	0.0014431
2218.35	0.001896
2227.99	0.001826
2237.64	0.001846
2247.28	0.002186
2256.92	0.0014093
2266.57	0.001676
2276.21	0.001636
2285.86	0.0014458
2295.5	0.0014189
2305.15	0.001756
2314.79	0.001976
2324.44	0.001736
2334.08	0.001936
2343.73	0.002046
2353.37	0.002126
2363.02	0.002096
2372.66	0.001966
2382.31	0.002186
2391.95	0.002016
2401.6	0.002526
2411.24	0.002326
2420.89	0.002556
2430.53	0.001876
2440.18	0.0014047
2449.82	0.0013338
2459.47	0.0012808
2469.11	0.001716
2478.75	0.001636
2488.4	0.0014658
2498.04	0.0014743
2507.69	0.001563
2517.33	0.002006
2526.98	0.001986
2536.62	0.001786
2546.27	0.0013737
2555.91	0.002016
2565.56	0.002166
2575.2	0.001966
2584.85	0.0015439
2594.49	0.001776
2604.14	0.0013625
2613.78	0.0013815
2623.43	0.001736
2633.07	0.001946
2642.72	0.001736
2652.36	0.001776
2662.01	0.0011903
2671.65	0.001676
2681.29	0.0015395
2690.94	0.001726
2700.58	0.001986
2710.23	0.001866
2719.87	0.001906
2729.52	0.002086
2739.16	0.002156
2748.81	0.002476
2758.45	0.002796
2768.1	0.002716
2777.74	0.002086
2787.39	0.002036
2797.03	0.002756
2806.68	0.002976
2816.32	0.002836
2825.97	0.002686
2835.61	0.003726
2845.26	0.004196
2854.9	0.005216
2864.55	0.006936
2874.19	0.009296
2883.84	0.012636
2893.48	0.014636
2903.12	0.013806
2912.77	0.011576
2922.41	0.010216
2932.06	0.010396
2941.7	0.010966
2951.35	0.012246
2960.99	0.011006
2970.64	0.009746
2980.28	0.007466
2989.93	0.005276
2999.57	0.004276
3009.22	0.002856
3018.86	0.002616
3028.51	0.002476
3038.15	0.002666
3047.8	0.003686
3057.44	0.003516
3067.09	0.003066
3076.73	0.003056
3086.38	0.003696
3096.02	0.003146
3105.67	0.001976
3115.31	0.0010921
3124.95	0.002076
3134.6	0.0009906
3144.24	0.0015984
3153.89	0.0012465
3163.53	0.0014966
3173.18	0.001463
3182.82	0.0016116
3192.47	0.0011915
3202.11	0.0014174
3211.76	0.0013256
3221.4	0.001786
3231.05	0.0011744
3240.69	0.0012127
3250.34	0.0009817
3259.98	0.0010173
3269.63	0.0007964
3279.27	0.00095
3288.92	0.000932
3298.56	0.0013893
3308.21	0.0005474
3317.85	0.0011168
3327.49	0.0013407
3337.14	0.001189
3346.78	0.0010137
3356.43	0.0009147
3366.07	0.0012607
3375.72	0.001048
3385.36	0.0009832
3395.01	0.00067549
3404.65	0.0009429
3414.3	0.0008022
3423.94	0.0009094
3433.59	0.0008607
3443.23	0.0006911
3452.88	0.0011963
3462.52	0.0008982
3472.17	0.0009612
3481.81	0.0010865
3491.46	0.001756
3501.1	0.0012754
3510.75	0.001726
3520.39	0.0012816
3530.04	0.001736
3539.68	0.0014738
3549.32	0.0005461
3558.97	0.001676
3568.61	0.0010295
3578.26	0.001856
3587.9	0.001816
3597.55	0.002006
3607.19	0.001756
3616.84	0.002906
3626.48	0.003696
3636.13	0.005816
3645.77	0.008966
3655.42	0.013556
3665.06	0.013016
3674.71	0.009586
3684.35	0.006956
3694	0.003906
3703.64	0.003586
3713.29	0.003176
3722.93	0.002286
3732.58	0.001776
3742.22	0.001846
3751.86	0.0015866
3761.51	0.0009801
3771.15	0.0014322
3780.8	0.001208
3790.44	0.001926
3800.09	0.0016062
3809.73	0.0010371
3819.38	0.0015384
3829.02	0.001756
3838.67	0.001766
3848.31	0.001646
3857.96	0.0010221
3867.6	0.001936
3877.25	0.001866
3886.89	0.001816
3896.54	0.0012132
3906.18	0.0014081
3915.83	0.0011249
3925.47	0.0008135
3935.12	0.0011122
3944.76	0.0010637
3954.41	0.0011477
3964.05	0.0014247
3973.69	0.001776
3983.34	0.0008458
3992.98	0.001636
