Infrared Spectrum: 2-Chloro-6-fluorobenzyl alcohol
Formula: C 7 H 6 Cl F O
CAS: 56456-50-9
State: gas
Origin: EPA-IR VAPOR PHASE LIBRARY
1/CM	ABSORBANCE
549.9	0.00977
559.547	0.00791
569.193	0.00512
578.84	0.00404
588.486	0.00327
598.133	0.00316
607.779	0.00313
617.426	0.00332
627.072	0.00479
636.719	0.00686
646.365	0.00563
656.012	0.00366
665.658	0.0027392
675.305	0.0027336
684.951	0.00288
694.598	0.00357
704.245	0.00666
713.891	0.01497
723.538	0.02524
733.184	0.01891
742.831	0.00974
752.477	0.00692
762.124	0.01821
771.77	0.04111
781.417	0.05421
791.063	0.02863
800.71	0.0118
810.356	0.0144
820.003	0.01541
829.649	0.0124
839.296	0.0116
848.943	0.02543
858.589	0.0542
868.236	0.0606
877.882	0.03657
887.529	0.01955
897.175	0.01217
906.822	0.0095
916.468	0.00935
926.115	0.00985
935.761	0.01151
945.408	0.01658
955.054	0.02939
964.701	0.04867
974.347	0.05471
983.994	0.04051
993.64	0.031
1003.29	0.04017
1012.93	0.06684
1022.58	0.09068
1032.23	0.07348
1041.87	0.03674
1051.52	0.01679
1061.17	0.01149
1070.81	0.00971
1080.46	0.00845
1090.11	0.00757
1099.75	0.00772
1109.4	0.00861
1119.05	0.01116
1128.69	0.0181
1138.34	0.02559
1147.99	0.02748
1157.63	0.02837
1167.28	0.02972
1176.92	0.0289
1186.57	0.03517
1196.22	0.03818
1205.86	0.03119
1215.51	0.02413
1225.16	0.02385
1234.8	0.04098
1244.45	0.06788
1254.1	0.0589
1263.74	0.02381
1273.39	0.01416
1283.04	0.01354
1292.68	0.01315
1302.33	0.01148
1311.98	0.00965
1321.62	0.00966
1331.27	0.01113
1340.92	0.01233
1350.56	0.01207
1360.21	0.01332
1369.86	0.01918
1379.5	0.02749
1389.15	0.03038
1398.79	0.02391
1408.44	0.01564
1418.09	0.0126
1427.73	0.01593
1437.38	0.03307
1447.03	0.08485
1456.67	0.11976
1466.32	0.0798
1475.97	0.02927
1485.61	0.01357
1495.26	0.00777
1504.91	0.00731
1514.55	0.00873
1524.2	0.00999
1533.85	0.01011
1543.49	0.01073
1553.14	0.01404
1562.79	0.02709
1572.43	0.057
1582.08	0.07524
1591.73	0.06072
1601.37	0.05162
1611.02	0.0361
1620.67	0.01411
1630.31	0.00627
1639.96	0.00441
1649.6	0.00395
1659.25	0.00392
1668.9	0.0033
1678.54	0.00287
1688.19	0.0026918
1697.84	0.0022831
1707.48	0.0020203
1717.13	0.0017437
1726.78	0.0019433
1736.42	0.0020715
1746.07	0.0025306
1755.72	0.00336
1765.36	0.00321
1775.01	0.0020764
1784.66	0.00157
1794.3	0.001515
1803.95	0.0016
1813.6	0.00167
1823.24	0.0020327
1832.89	0.00324
1842.54	0.00356
1852.18	0.002339
1861.83	0.001513
1871.47	0.001405
1881.12	0.001508
1890.77	0.001491
1900.41	0.0019022
1910.06	0.00347
1919.71	0.00428
1929.35	0.00306
1939	0.001545
1948.65	0.001283
1958.29	0.001301
1967.94	0.001333
1977.59	0.00147
1987.23	0.001595
1996.88	0.0017387
2006.53	0.0019032
2016.17	0.0020553
2025.82	0.0022213
2035.47	0.0022124
2045.11	0.002051
2054.76	0.00177544
2064.41	0.001649
2074.05	0.001603
2083.7	0.0016704
2093.35	0.00179098
2102.99	0.0020056
2112.64	0.0019711
2122.28	0.001669
2131.93	0.00145
2141.58	0.001283
2151.22	0.001214
2160.87	0.001144
2170.52	0.00114
2180.16	0.001191
2189.81	0.001168
2199.46	0.001242
2209.1	0.001354
2218.75	0.001394
2228.4	0.001441
2238.04	0.001391
2247.69	0.001314
2257.34	0.001244
2266.98	0.001283
2276.63	0.001312
2286.28	0.001475
2295.92	0.001658
2305.57	0.001693
2315.22	0.0017283
2324.86	0.001627
2334.51	0.001547
2344.16	0.001458
2353.8	0.001394
2363.45	0.001277
2373.09	0.001317
2382.74	0.0014
2392.39	0.001442
2402.03	0.001518
2411.68	0.001618
2421.33	0.001599
2430.97	0.0016791
2440.62	0.0016801
2450.27	0.0017554
2459.91	0.0016769
2469.56	0.0016749
2479.21	0.0017227
2488.85	0.00185388
2498.5	0.0017428
2508.15	0.001535
2517.79	0.001414
2527.44	0.001475
2537.09	0.001418
2546.73	0.001347
2556.38	0.001243
2566.03	0.001202
2575.67	0.001214
2585.32	0.001209
2594.96	0.001198
2604.61	0.001105
2614.26	0.001026
2623.9	0.001005
2633.55	0.001089
2643.2	0.001185
2652.84	0.001309
2662.49	0.001437
2672.14	0.001445
2681.78	0.00138
2691.43	0.001229
2701.08	0.001299
2710.72	0.001337
2720.37	0.001346
2730.02	0.001366
2739.66	0.001315
2749.31	0.001174
2758.96	0.001189
2768.6	0.00109
2778.25	0.001154
2787.9	0.001259
2797.54	0.001344
2807.19	0.001365
2816.84	0.001572
2826.48	0.001547
2836.13	0.0019866
2845.77	0.0024141
2855.42	0.00297
2865.07	0.00401
2874.71	0.00609
2884.36	0.01008
2894.01	0.01455
2903.65	0.01423
2913.3	0.01056
2922.95	0.00792
2932.59	0.00737
2942.24	0.00826
2951.89	0.00988
2961.53	0.01038
2971.18	0.00985
2980.83	0.00874
2990.47	0.00815
3000.12	0.00793
3009.77	0.00641
3019.41	0.0041
3029.06	0.0024143
3038.71	0.001632
3048.35	0.00181001
3058	0.0023677
3067.64	0.00446
3077.29	0.0073
3086.94	0.00807
3096.58	0.00468
3106.23	0.00148
3115.88	0.00049
3125.52	0.00041
3135.17	0.00042
3144.82	0.00056
3154.46	0.00049
3164.11	0.00049
3173.76	0
3183.4	0.00042
3193.05	0.0002
3202.7	0.0001
3212.34	2e-05
3221.99	0.0002
3231.64	0.0001
3241.28	0.00028
3250.93	0.00048
3260.58	0.00025
3270.22	0.00041
3279.87	0.00036
3289.52	0.00045
3299.16	0.00035
3308.81	0.00058
3318.45	0.00057
3328.1	0.00065
3337.75	0.00074
3347.39	0.000819
3357.04	0.00064
3366.69	0.000972
3376.33	0.000859
3385.98	0.000933
3395.63	0.001046
3405.27	0.000979
3414.92	0.000988
3424.57	0.001296
3434.21	0.001504
3443.86	0.001303
3453.51	0.001196
3463.15	0.001352
3472.8	0.001351
3482.45	0.001505
3492.09	0.00134
3501.74	0.001282
3511.39	0.001286
3521.03	0.001182
3530.68	0.001286
3540.33	0.001473
3549.97	0.001561
3559.62	0.0017017
3569.26	0.0021174
3578.91	0.0022868
3588.56	0.0025871
3598.2	0.00286
3607.85	0.00347
3617.5	0.00445
3627.14	0.00677
3636.79	0.01316
3646.44	0.01922
3656.08	0.01978
3665.73	0.01367
3675.38	0.00699
3685.02	0.00434
3694.67	0.00422
3704.32	0.00474
3713.96	0.00428
3723.61	0.00282
3733.26	0.001995
3742.9	0.00165
3752.55	0.001508
3762.2	0.001623
3771.84	0.001614
3781.49	0.001661
3791.13	0.001665
3800.78	0.001635
3810.43	0.001638
3820.07	0.0017262
3829.72	0.0017477
3839.37	0.00177475
3849.01	0.00184279
3858.66	0.00179054
3868.31	0.00167
3877.95	0.0018724
3887.6	0.001878
3897.25	0.0020012
3906.89	0.0018957
3916.54	0.00182282
3926.19	0.0017236
3935.83	0.001614
3945.48	0.00178335
3955.13	0.0017227
3964.77	0.001548
3974.42	0.001464
3984.07	0.001378
3993.71	0.001493
