Infrared Spectrum: 2,3-Dimethylpentane
Formula: C 7 H 16
CAS: 565-59-3
State: gas
Instrument: HP-GC/MS/IRD
Origin: NIST Mass Spectrometry Data Center
1/CM	ABSORBANCE
550	0.000546
562	0.000168
574	0.000175
586	0.000126
598	0
610	0.000189
622	0.000189
634	0.000189
646	0.000147
658	0.000196
670	0.000231
682	0.00021
694	0.000287
706	0.000252
718	0.000392
730	0.000371
742	0.000427
754	0.000469
766	0.000469
778	0.000616
790	0.000644
802	0.000581
814	0.000343
826	0.00042
838	0.000287
850	0.000385
862	0.000434
874	0.000399
886	0.000399
898	0.000469
910	0.000616
922	0.000616
934	0.000567
946	0.000686
958	0.000987
970	0.001211
982	0.001316
994	0.00154
1006	0.001764
1018	0.001519
1030	0.001106
1042	0.000896
1054	0.000777
1066	0.000749
1078	0.000602
1090	0.000658
1102	0.001162
1114	0.002037
1126	0.002359
1138	0.00182
1150	0.00126
1162	0.000924
1174	0.000686
1186	0.000595
1198	0.000434
1210	0.00035
1222	0.000399
1234	0.000469
1246	0.000672
1258	0.000805
1270	0.000847
1282	0.000861
1294	0.001036
1306	0.001176
1318	0.001169
1330	0.001113
1342	0.001344
1354	0.002401
1366	0.005138
1378	0.008071
1390	0.007826
1402	0.004032
1414	0.001827
1426	0.001813
1438	0.00315
1450	0.00595
1462	0.008365
1474	0.007483
1486	0.004403
1498	0.002058
1510	0.00112
1522	0.000812
1534	0.000665
1546	0.000567
1558	0.000476
1570	0.000469
1582	0.000441
1594	0.000406
1606	0.000406
1618	0.000399
1630	0.000392
1642	0.000378
1654	0.000371
1666	0.000336
1678	0.000315
1690	0.00028
1702	0.00021
1714	0.000231
1726	0.000189
1738	0.000133
1750	0.000168
1762	0.000147
1774	0.000112
1786	0.000126
1798	0.000147
1810	0.000154
1822	0.000126
1834	0.000147
1846	0.000119
1858	0.000105
1870	9.8e-05
1882	9.8e-05
1894	0.000105
1906	7e-05
1918	7.7e-05
1930	5.6e-05
1942	5.6e-05
1954	7.7e-05
1966	3.5e-05
1978	5.6e-05
1990	2.8e-05
2002	4.9e-05
2014	4.2e-05
2026	5.6e-05
2038	4.2e-05
2050	3.5e-05
2062	4.9e-05
2074	4.2e-05
2086	5.6e-05
2098	2.8e-05
2110	5.6e-05
2122	2.1e-05
2134	1.4e-05
2146	5.6e-05
2158	1.4e-05
2170	7e-06
2182	2.8e-05
2194	2.1e-05
2206	7e-06
2218	0
2230	2.1e-05
2242	4.9e-05
2254	2.8e-05
2266	4.9e-05
2278	3.5e-05
2290	7e-05
2302	7e-05
2314	6.3e-05
2326	7e-05
2338	8.4e-05
2350	0.000105
2362	9.1e-05
2374	0.00014
2386	0.000168
2398	0.000126
2410	0.000147
2422	0.000105
2434	9.8e-05
2446	9.8e-05
2458	7e-05
2470	9.8e-05
2482	9.8e-05
2494	0.000112
2506	0.000126
2518	0.000126
2530	0.000133
2542	0.00021
2554	0.000217
2566	0.000336
2578	0.000427
2590	0.000539
2602	0.000602
2614	0.000644
2626	0.000602
2638	0.000567
2650	0.000574
2662	0.000567
2674	0.000616
2686	0.000686
2698	0.000707
2710	0.000791
2722	0.001015
2734	0.001232
2746	0.001309
2758	0.001246
2770	0.001253
2782	0.001372
2794	0.001631
2806	0.002016
2818	0.002485
2830	0.003185
2842	0.004704
2854	0.009135
2866	0.018928
2878	0.030499
2890	0.03164
2902	0.0266
2914	0.026754
2926	0.032578
2938	0.038227
2950	0.047607
2962	0.066773
2974	0.063287
2986	0.034265
2998	0.012964
3010	0.005845
3022	0.003773
3034	0.00294
3046	0.00252
3058	0.002142
3070	0.00189
3082	0.001659
3094	0.001533
3106	0.001379
3118	0.001288
3130	0.001253
3142	0.001169
3154	0.001141
3166	0.001127
3178	0.001001
3190	0.000854
3202	0.000693
3214	0.000511
3226	0.000406
3238	0.00028
3250	0.000252
3262	0.000217
3274	0.000203
3286	0.00021
3298	0.000189
3310	0.00021
3322	0.00014
3334	0.000154
3346	0.000147
3358	0.000147
3370	0.000161
3382	0.000147
3394	0.00014
3406	0.000133
3418	0.000126
3430	9.8e-05
3442	9.8e-05
3454	0.000112
3466	9.8e-05
3478	3.5e-05
3490	4.9e-05
3502	0.000126
3514	4.9e-05
3526	0.00014
3538	7.7e-05
3550	9.8e-05
3562	0.000112
3574	4.9e-05
3586	2.1e-05
3598	8.4e-05
3610	9.1e-05
3622	8.4e-05
3634	4.9e-05
3646	6.3e-05
3658	9.8e-05
3670	0.000112
3682	4.9e-05
3694	0.000154
3706	9.8e-05
3718	0.000175
3730	0.000112
3742	0.000112
3754	0.000147
3766	0.000133
3778	0.000175
3790	0.000147
3802	0.000224
3814	0.000224
3826	0.000217
3838	0.000147
