Infrared Spectrum: 2,3,4-Trimethyl-2-pentene
Formula: C 8 H 16
CAS: 565-77-5
State: gas
Instrument: HP-GC/MS/IRD
Origin: NIST Mass Spectrometry Data Center
1/CM	ABSORBANCE
550	0.0001196
562	0.0001638
574	0.0003172
586	0.0004654
598	0.0003562
610	0.0001508
622	9.36e-05
634	0.0001144
646	9.1e-05
658	0.0002522
670	0.0002002
682	0.0001768
694	6.76e-05
706	6.76e-05
718	0.0001638
730	7.54e-05
742	5.72e-05
754	5.72e-05
766	0.0001404
778	8.32e-05
790	0.0001586
802	7.54e-05
814	0.00013
826	8.84e-05
838	0.000156
850	0.0001378
862	0.0002132
874	0.0001716
886	0.0002028
898	0.0002002
910	0.0002054
922	0.0001976
934	0.000234
946	0.0002678
958	0.0002808
970	0.0003198
982	0.000299
994	0.0002678
1006	0.000286
1018	0.0003614
1030	0.0004602
1042	0.0007982
1054	0.0011232
1066	0.0011908
1078	0.001248
1090	0.0016718
1102	0.002574
1114	0.0030004
1126	0.002106
1138	0.001274
1150	0.0015626
1162	0.0014664
1174	0.0008424
1186	0.000533
1198	0.0003198
1210	0.0001924
1222	0.0002652
1234	0.0002782
1246	0.000299
1258	0.0004134
1270	0.0004732
1282	0.0004784
1294	0.0005174
1306	0.000754
1318	0.0009412
1330	0.00091
1342	0.0010764
1354	0.001924
1366	0.003523
1378	0.0038844
1390	0.0029978
1402	0.0019162
1414	0.0015626
1426	0.0016016
1438	0.0019188
1450	0.002652
1462	0.0032708
1474	0.0029198
1486	0.001963
1498	0.0013702
1510	0.001118
1522	0.0010036
1534	0.0008788
1546	0.0007722
1558	0.0006838
1570	0.000559
1582	0.0004914
1594	0.0004212
1606	0.0003432
1618	0.000351
1630	0.000299
1642	0.0002626
1654	0.000286
1666	0.0002028
1678	0.0001482
1690	0.0001378
1702	0.0001092
1714	7.8e-05
1726	4.42e-05
1738	4.94e-05
1750	6.5e-05
1762	7.8e-05
1774	8.32e-05
1786	5.98e-05
1798	7.8e-05
1810	4.68e-05
1822	3.9e-05
1834	4.68e-05
1846	8.84e-05
1858	3.38e-05
1870	1.04e-05
1882	7.28e-05
1894	3.9e-05
1906	6.24e-05
1918	4.94e-05
1930	4.94e-05
1942	2.6e-06
1954	4.16e-05
1966	2.86e-05
1978	2.08e-05
1990	3.64e-05
2002	2.08e-05
2014	5.2e-06
2026	3.38e-05
2038	8.58e-05
2050	2.86e-05
2062	4.42e-05
2074	1.3e-05
2086	5.2e-06
2098	1.56e-05
2110	3.38e-05
2122	2.08e-05
2134	2.6e-05
2146	1.04e-05
2158	2.6e-05
2170	5.98e-05
2182	1.56e-05
2194	3.12e-05
2206	4.16e-05
2218	2.86e-05
2230	2.34e-05
2242	3.9e-05
2254	7.28e-05
2266	6.76e-05
2278	9.1e-05
2290	5.98e-05
2302	7.28e-05
2314	6.76e-05
2326	0.0001092
2338	0.0001196
2350	0.000117
2362	0.0001664
2374	0.0001534
2386	0.000169
2398	0.0001638
2410	0.0001534
2422	0.0001404
2434	0.000117
2446	0.000143
2458	0.000182
2470	0.0001742
2482	0.000156
2494	0.0001482
2506	0.0001664
2518	0.0001872
2530	0.0001664
2542	0.0001898
2554	0.0001794
2566	0.0001872
2578	0.0002444
2590	0.0002626
2602	0.0002652
2614	0.0002704
2626	0.000273
2638	0.0003146
2650	0.000312
2662	0.0003432
2674	0.0003458
2686	0.0003484
2698	0.0004108
2710	0.0005382
2722	0.0008086
2734	0.001001
2746	0.0010114
2758	0.0009516
2770	0.0009516
2782	0.0010088
2794	0.0011232
2806	0.0013832
2818	0.0017992
2830	0.0024466
2842	0.0036296
2854	0.0063596
2866	0.0112632
2878	0.014976
2890	0.0145054
2902	0.0141596
2914	0.0165672
2926	0.0193726
2938	0.01911
2950	0.0186914
2962	0.0247
2974	0.0239876
2986	0.01404
2998	0.0095602
3010	0.0081926
3022	0.0066092
3034	0.0049946
3046	0.0036868
3058	0.0027014
3070	0.0020384
3082	0.0015444
3094	0.001287
3106	0.0010036
3118	0.000884
3130	0.0007436
3142	0.0006474
3154	0.000624
3166	0.0005434
3178	0.0004914
3190	0.0004368
3202	0.0003406
3214	0.0002756
3226	0.000338
3238	0.0002522
3250	0.0002366
3262	0.0002132
3274	0.0002184
3286	0.0002054
3298	0.0001768
3310	0.000169
3322	0.0001612
3334	0.0001352
3346	0.0001534
3358	0.0001482
3370	8.58e-05
3382	9.88e-05
3394	9.1e-05
3406	0.0001352
3418	0.0001248
3430	0.0001326
3442	5.2e-05
3454	0.0001196
3466	9.1e-05
3478	7.54e-05
3490	8.58e-05
3502	0.0001898
3514	0.00013
3526	7.28e-05
3538	8.58e-05
3550	8.58e-05
3562	9.88e-05
3574	5.98e-05
3586	4.42e-05
3598	9.88e-05
3610	8.32e-05
3622	0.0001196
3634	0.0001248
3646	0.00013
3658	0.0001274
3670	9.62e-05
3682	4.68e-05
3694	0.00013
3706	0.0001352
3718	8.84e-05
3730	0.000104
3742	0.000117
3754	0.0001222
3766	0.0001144
3778	0.0001066
3790	9.88e-05
3802	0.0001612
3814	0.0001924
3826	0.0001118
3838	0.0001456
