Infrared Spectrum: TERPINOL
Formula: C10 H20 O2
CAS: 565-48-0
State: SOLID (MINERAL OIL MULL)
Class: COBLENTZ
Instrument: Not specified, most likely a prism, grating, or hybrid spectrometer.
Sampling: TRANSMISSION
Resolution: 4
Origin: WYANDOTTE CHEMICALS CORP., WYANDOTTE, MICHIGAN, USA
MICROMETERS	TRANSMITTANCE
2.034	0.966
2.07486	0.969
2.11571	0.988
2.15657	0.993
2.19742	0.969
2.23828	0.928
2.27913	0.93
2.31999	0.943
2.36084	0.949
2.4017	0.959
2.44256	0.986
2.48341	1
2.52427	1
2.56512	1
2.60598	1.001
2.64683	1.008
2.68769	1.003
2.72854	0.955
2.7694	0.713
2.81026	0.376
2.85111	0.286
2.89197	0.147
2.93282	0.129
2.97368	0.14
3.01453	0.117
3.05539	0.067
3.09625	0.039
3.1371	0.042
3.17796	0.04
3.21881	0.05
3.25967	0.113
3.30052	0.179
3.34138	0.071
3.38223	0.027
3.42309	0.028
3.46395	0.03
3.5048	0.032
3.54566	0.241
3.58651	0.37
3.62737	0.471
3.66822	0.514
3.70908	0.516
3.74993	0.551
3.79079	0.55
3.83165	0.585
3.8725	0.611
3.91336	0.645
3.95421	0.679
3.99507	0.704
4.03592	0.74
4.07678	0.738
4.11763	0.767
4.15849	0.762
4.19935	0.767
4.2402	0.764
4.28106	0.767
4.32191	0.78
4.36277	0.801
4.40362	0.818
4.44448	0.818
4.48533	0.814
4.52619	0.799
4.56705	0.796
4.6079	0.816
4.64876	0.82
4.68961	0.828
4.73047	0.806
4.77132	0.811
4.81218	0.845
4.85304	0.86
4.89389	0.872
4.93475	0.882
4.9756	0.889
5.01646	0.896
5.05731	0.906
5.09817	0.904
5.13902	0.904
5.17988	0.908
5.22074	0.908
5.26159	0.91
5.30245	0.908
5.3433	0.906
5.38416	0.906
5.42501	0.904
5.46587	0.903
5.50672	0.901
5.54758	0.887
5.58844	0.886
5.62929	0.881
5.67015	0.877
5.711	0.855
5.75186	0.823
5.79271	0.828
5.83357	0.818
5.87442	0.801
5.91528	0.777
5.95614	0.752
5.99699	0.716
6.03785	0.658
6.0787	0.477
6.11956	0.528
6.16041	0.655
6.20127	0.696
6.24213	0.713
6.28298	0.713
6.32384	0.711
6.36469	0.707
6.40555	0.702
6.4464	0.685
6.48726	0.677
6.52811	0.663
6.56897	0.634
6.60983	0.595
6.65068	0.533
6.69154	0.415
6.73239	0.256
6.77325	0.135
6.8141	0.081
6.85496	0.093
6.89581	0.13
6.93667	0.222
6.97753	0.268
7.01838	0.3
7.05924	0.388
7.10009	0.392
7.14095	0.47
7.1818	0.334
7.22266	0.118
7.26351	0.118
7.30437	0.185
7.34523	0.234
7.38608	0.471
7.42694	0.553
7.46779	0.604
7.50865	0.561
7.5495	0.531
7.59036	0.247
7.63121	0.249
7.67207	0.38
7.71293	0.519
7.75378	0.601
7.79464	0.587
7.83549	0.606
7.87635	0.651
7.9172	0.59
7.95806	0.4
7.99892	0.446
8.03977	0.292
8.08063	0.392
8.12148	0.456
8.16234	0.354
8.20319	0.395
8.24405	0.517
8.2849	0.56
8.32576	0.502
8.36662	0.339
8.40747	0.196
8.44833	0.096
8.48918	0.059
8.53004	0.135
8.57089	0.266
8.61175	0.361
8.6526	0.443
8.69346	0.431
8.73432	0.286
8.77517	0.146
8.81603	0.14
8.85688	0.378
8.89774	0.441
8.93859	0.404
8.97945	0.529
9.0203	0.563
9.06116	0.587
9.10202	0.594
9.14287	0.595
9.18373	0.589
9.22458	0.575
9.26544	0.585
9.30629	0.589
9.34715	0.589
9.388	0.587
9.42886	0.584
9.46972	0.59
9.51057	0.589
9.55143	0.563
9.59228	0.543
9.63314	0.577
9.67399	0.584
9.71485	0.57
9.75571	0.502
9.79656	0.382
9.83742	0.307
9.87827	0.528
9.91913	0.592
9.95998	0.577
10.0008	0.488
10.0417	0.332
10.0825	0.171
10.1234	0.186
10.1643	0.303
10.2051	0.461
10.246	0.526
10.2868	0.58
10.3277	0.604
10.3685	0.609
10.4094	0.584
10.4503	0.471
10.4911	0.293
10.532	0.39
10.5728	0.531
10.6137	0.602
10.6545	0.601
10.6954	0.517
10.7362	0.339
10.7771	0.331
10.818	0.366
10.8588	0.432
10.8997	0.443
10.9405	0.298
10.9814	0.144
11.0222	0.123
11.0631	0.061
11.1039	0.078
11.1448	0.152
11.1857	0.264
11.2265	0.354
11.2674	0.412
11.3082	0.443
11.3491	0.46
11.3899	0.47
11.4308	0.47
11.4716	0.47
11.5125	0.451
11.5534	0.439
11.5942	0.421
11.6351	0.407
11.6759	0.388
11.7168	0.365
11.7576	0.346
11.7985	0.336
11.8393	0.32
11.8802	0.295
11.9211	0.246
11.9619	0.232
12.0028	0.273
12.0436	0.298
12.0845	0.312
12.1253	0.322
12.1662	0.339
12.207	0.356
12.2479	0.371
12.2888	0.388
12.3296	0.405
12.3705	0.417
12.4113	0.427
12.4522	0.438
12.493	0.451
12.5339	0.465
12.5747	0.475
12.6156	0.483
12.6565	0.49
12.6973	0.497
12.7382	0.499
12.779	0.497
12.8199	0.477
12.8607	0.429
12.9016	0.378
12.9424	0.3
12.9833	0.366
13.0242	0.449
13.065	0.478
13.1059	0.488
13.1467	0.492
13.1876	0.495
13.2284	0.485
13.2693	0.492
13.3101	0.485
13.351	0.483
13.3919	0.48
13.4327	0.48
13.4736	0.48
13.5144	0.478
13.5553	0.471
13.5961	0.473
13.637	0.47
13.6778	0.47
13.7187	0.458
13.7596	0.415
13.8004	0.334
13.8413	0.31
13.8821	0.368
13.923	0.431
13.9638	0.468
14.0047	0.495
14.0455	0.504
14.0864	0.519
14.1273	0.529
14.1681	0.534
14.209	0.538
14.2498	0.541
14.2907	0.541
14.3315	0.541
14.3724	0.541
14.4132	0.541
14.4541	0.536
14.495	0.531
14.5358	0.529
14.5767	0.526
14.6175	0.521
14.6584	0.516
14.6992	0.511
14.7401	0.505
14.7809	0.502
14.8218	0.499
14.8627	0.494
14.9035	0.49
14.9444	0.488
14.9852	0.485
15.0261	0.482
15.0669	0.482
15.1078	0.48
15.1486	0.471
15.1895	0.461
15.2304	0.461
15.2712	0.46
15.3121	0.461
15.3529	0.465
15.3938	0.466
15.4346	0.471
15.4755	0.473
15.5163	0.475
15.5572	0.485
15.5981	0.492
15.6389	0.492
15.6798	0.497
15.7206	0.5
15.7615	0.504
15.8023	0.509
15.8432	0.516
15.884	0.522
15.9249	0.526
15.9658	0.528
