Infrared Spectrum: Alpha,Beta-DICHLOROPROPIONIC ACID
Formula: C3 H4 Cl2 O2
CAS: 565-64-0
State: SOLUTION (10% CCl4 FOR 2.5-7.5, 10% CS2 FOR 7.5-16 MICRON)
Class: COBLENTZ
Instrument: Not specified, most likely a prism, grating, or hybrid spectrometer.
Sampling: TRANSMISSION
Path length: 0.01 CM, 0.01 CM
Resolution: 4
Origin: DOW CHEMICAL COMPANY
MICROMETERS	TRANSMITTANCE
2.013	0.9
2.05303	0.9
2.09305	0.902
2.13308	0.903
2.17311	0.902
2.21313	0.888
2.25316	0.898
2.29319	0.897
2.33322	0.893
2.37324	0.895
2.41327	0.898
2.4533	0.9
2.49332	0.897
2.53335	0.9
2.57338	0.892
2.6134	0.9
2.65343	0.89
2.69346	0.887
2.73348	0.87
2.77351	0.849
2.81354	0.782
2.85356	0.757
2.89359	0.737
2.93362	0.668
2.97365	0.603
3.01367	0.514
3.0537	0.422
3.09373	0.325
3.13375	0.25
3.17378	0.197
3.21381	0.155
3.25383	0.142
3.29386	0.126
3.33389	0.135
3.37391	0.139
3.41394	0.132
3.45397	0.149
3.49399	0.189
3.53402	0.238
3.57405	0.281
3.61408	0.305
3.6541	0.326
3.69413	0.341
3.73416	0.328
3.77418	0.356
3.81421	0.376
3.85424	0.399
3.89426	0.381
3.93429	0.431
3.97432	0.485
4.01434	0.545
4.05437	0.585
4.0944	0.615
4.13442	0.638
4.17445	0.651
4.21448	0.661
4.25451	0.678
4.29453	0.691
4.33456	0.698
4.37459	0.714
4.41461	0.734
4.45464	0.746
4.49467	0.754
4.53469	0.756
4.57472	0.752
4.61475	0.762
4.65477	0.767
4.6948	0.771
4.73483	0.781
4.77486	0.786
4.81488	0.791
4.85491	0.791
4.89494	0.786
4.93496	0.781
4.97499	0.774
5.01502	0.782
5.05504	0.786
5.09507	0.786
5.1351	0.786
5.17512	0.779
5.21515	0.772
5.25518	0.771
5.2952	0.762
5.33523	0.752
5.37526	0.747
5.41529	0.728
5.45531	0.703
5.49534	0.678
5.53537	0.63
5.57539	0.54
5.61542	0.432
5.65545	0.316
5.69547	0.159
5.7355	0.041
5.77553	0.034
5.81555	0.099
5.85558	0.283
5.89561	0.454
5.93563	0.529
5.97566	0.583
6.01569	0.611
6.05572	0.648
6.09574	0.679
6.13577	0.689
6.1758	0.674
6.21582	0.623
6.25585	0.558
6.29588	0.532
6.3359	0.507
6.37593	0.462
6.41596	0.402
6.45598	0.432
6.49601	0.52
6.53604	0.558
6.57606	0.59
6.61609	0.64
6.65612	0.691
6.69615	0.718
6.73617	0.703
6.7762	0.678
6.81623	0.597
6.85625	0.384
6.89628	0.164
6.93631	0.132
6.97633	0.202
7.01636	0.223
7.05639	0.283
7.09641	0.462
7.13644	0.605
7.17647	0.676
7.21649	0.704
7.25652	0.724
7.29655	0.728
7.33658	0.709
7.3766	0.658
7.41663	0.592
7.45666	0.527
7.49668	0.509
7.53671	0.52
7.57674	0.497
7.61676	0.449
7.65679	0.346
7.69682	0.182
7.73684	0.099
7.77687	0.147
7.8169	0.263
7.85693	0.268
7.89695	0.356
7.93698	0.378
7.97701	0.266
8.01703	0.134
8.05706	0.242
8.09709	0.394
8.13711	0.457
8.17714	0.437
8.21717	0.334
8.25719	0.18
8.29722	0.144
8.33725	0.189
8.37727	0.348
8.4173	0.464
8.45733	0.505
8.49736	0.514
8.53738	0.472
8.57741	0.434
8.61744	0.467
8.65746	0.519
8.69749	0.545
8.73752	0.55
8.77754	0.55
8.81757	0.542
8.8576	0.533
8.89762	0.54
8.93765	0.562
8.97768	0.575
9.0177	0.583
9.05773	0.583
9.09776	0.582
9.13779	0.58
9.17781	0.577
9.21784	0.568
9.25787	0.555
9.29789	0.552
9.33792	0.55
9.37795	0.55
9.41797	0.557
9.458	0.565
9.49803	0.572
9.53805	0.577
9.57808	0.58
9.61811	0.585
9.65813	0.587
9.69816	0.588
9.73819	0.585
9.77822	0.585
9.81824	0.585
9.85827	0.588
9.8983	0.587
9.93832	0.582
9.97835	0.573
10.0184	0.562
10.0584	0.542
10.0984	0.507
10.1385	0.431
10.1785	0.326
10.2185	0.303
10.2585	0.343
10.2986	0.346
10.3386	0.396
10.3786	0.421
10.4186	0.416
10.4587	0.404
10.4987	0.386
10.5387	0.356
10.5788	0.331
10.6188	0.305
10.6588	0.286
10.6988	0.266
10.7389	0.245
10.7789	0.223
10.8189	0.21
10.8589	0.2
10.899	0.195
10.939	0.195
10.979	0.202
11.019	0.212
11.0591	0.233
11.0991	0.242
11.1391	0.252
11.1792	0.275
11.2192	0.293
11.2592	0.31
11.2992	0.325
11.3393	0.343
11.3793	0.358
11.4193	0.368
11.4593	0.376
11.4994	0.383
11.5394	0.384
11.5794	0.381
11.6195	0.371
11.6595	0.369
11.6995	0.381
11.7395	0.402
11.7796	0.424
11.8196	0.451
11.8596	0.479
11.8996	0.514
11.9397	0.54
11.9797	0.553
12.0197	0.555
12.0597	0.545
12.0998	0.505
12.1398	0.464
12.1798	0.447
12.2199	0.467
12.2599	0.505
12.2999	0.535
12.3399	0.555
12.38	0.563
12.42	0.573
12.46	0.577
12.5	0.582
12.5401	0.585
12.5801	0.588
12.6201	0.592
12.6602	0.592
12.7002	0.595
12.7402	0.6
12.7802	0.606
12.8203	0.618
12.8603	0.631
12.9003	0.641
12.9403	0.648
12.9804	0.653
13.0204	0.653
13.0604	0.651
13.1004	0.648
13.1405	0.641
13.1805	0.633
13.2205	0.615
13.2606	0.593
13.3006	0.562
13.3406	0.507
13.3806	0.417
13.4207	0.271
13.4607	0.155
13.5007	0.106
13.5407	0.126
13.5808	0.194
13.6208	0.29
13.6608	0.359
13.7009	0.429
13.7409	0.466
13.7809	0.485
13.8209	0.497
13.861	0.502
13.901	0.502
13.941	0.497
13.981	0.49
14.0211	0.485
14.0611	0.48
14.1011	0.475
14.1411	0.469
14.1812	0.457
14.2212	0.441
14.2612	0.421
14.3013	0.391
14.3413	0.356
14.3813	0.32
14.4213	0.276
14.4614	0.237
14.5014	0.215
14.5414	0.203
14.5814	0.205
14.6215	0.218
14.6615	0.238
14.7015	0.262
14.7415	0.283
14.7816	0.31
14.8216	0.328
14.8616	0.344
14.9017	0.356
14.9417	0.374
14.9817	0.394
15.0217	0.401
15.0618	0.401
15.1018	0.396
15.1418	0.391
15.1818	0.384
15.2219	0.376
15.2619	0.366
15.3019	0.359
15.342	0.353
15.382	0.344
15.422	0.336
15.462	0.326
15.5021	0.321
15.5421	0.313
15.5821	0.305
15.6221	0.298
15.6622	0.293
15.7022	0.288
15.7422	0.281
15.7822	0.275
15.8223	0.266
15.8623	0.263
15.9023	0.271
