Infrared Spectrum: 2,4-Dimethyl-3-pentanone
Formula: C 7 H 14 O
CAS: 565-80-0
State: gas
Instrument: HP-GC/MS/IRD
Origin: NIST Mass Spectrometry Data Center
1/CM	ABSORBANCE
550	0.0002288
562	0.0003036
574	9.46e-05
586	0.0002244
598	0.0003432
610	0.0004246
622	0.0003894
634	0.0001738
646	0.0001738
658	0.000187
670	0.0001914
682	0.0002552
694	0.0002068
706	0.0003454
718	0.0002904
730	0.0003652
742	0.000396
754	0.000385
766	0.0003388
778	0.0003498
790	0.0002794
802	0.0002442
814	0.0002068
826	7.92e-05
838	0.0003564
850	0.0005192
862	0.000539
874	0.0004884
886	0.000495
898	0.0005038
910	0.0005192
922	0.000693
934	0.0007392
946	0.0008712
958	0.0011528
970	0.0020042
982	0.0028622
994	0.003663
1006	0.0060566
1018	0.0085162
1030	0.006578
1042	0.0027918
1054	0.0020878
1066	0.0021648
1078	0.0022902
1090	0.002189
1102	0.0018854
1114	0.001793
1126	0.001606
1138	0.0012342
1150	0.0009394
1162	0.0009482
1174	0.0012078
1186	0.0013024
1198	0.0008932
1210	0.000572
1222	0.000297
1234	0.0002002
1246	0.0002772
1258	0.0003674
1270	0.000506
1282	0.0006446
1294	0.0007876
1306	0.000814
1318	0.0009438
1330	0.0013376
1342	0.0019184
1354	0.0024288
1366	0.0030184
1378	0.00418
1390	0.0042856
1402	0.0022968
1414	0.001111
1426	0.001199
1438	0.001804
1450	0.0030184
1462	0.0046332
1474	0.0048994
1486	0.0031812
1498	0.0014784
1510	0.000781
1522	0.0005104
1534	0.000385
1546	0.0003014
1558	0.0002728
1570	0.0002794
1582	0.0002706
1594	0.0003212
1606	0.0003146
1618	0.00033
1630	0.0003696
1642	0.0004466
1654	0.0005214
1666	0.0007744
1678	0.0013508
1690	0.0026708
1702	0.0059686
1714	0.011374
1726	0.0135322
1738	0.0073436
1750	0.0022682
1762	0.0009064
1774	0.0004708
1786	0.0003146
1798	0.0002266
1810	0.0001738
1822	0.0001628
1834	0.0001254
1846	0.0001562
1858	0.000143
1870	0.0001144
1882	0.0001144
1894	0.0001188
1906	0.000121
1918	0.000121
1930	8.36e-05
1942	7.92e-05
1954	7.26e-05
1966	5.72e-05
1978	5.06e-05
1990	5.06e-05
2002	4.62e-05
2014	6.38e-05
2026	6.38e-05
2038	6.38e-05
2050	5.28e-05
2062	3.52e-05
2074	3.3e-05
2086	1.1e-05
2098	1.98e-05
2110	4.4e-05
2122	3.08e-05
2134	1.54e-05
2146	0
2158	1.76e-05
2170	3.3e-05
2182	1.98e-05
2194	4.62e-05
2206	4.18e-05
2218	5.06e-05
2230	6.16e-05
2242	5.5e-05
2254	4.4e-05
2266	3.96e-05
2278	3.08e-05
2290	4.18e-05
2302	4.84e-05
2314	3.3e-05
2326	5.28e-05
2338	9.02e-05
2350	7.04e-05
2362	5.72e-05
2374	8.14e-05
2386	9.24e-05
2398	0.0001012
2410	0.00011
2422	0.0001034
2434	7.04e-05
2446	9.9e-05
2458	8.36e-05
2470	0.0001254
2482	0.0001012
2494	0.000121
2506	0.0001232
2518	0.0001144
2530	0.000132
2542	0.0001584
2554	0.0001474
2566	0.0001848
2578	0.0001518
2590	0.0001694
2602	0.0001364
2614	0.0001672
2626	0.000154
2638	0.000198
2650	0.000198
2662	0.000187
2674	0.000187
2686	0.0002002
2698	0.0002134
2710	0.0002486
2722	0.000297
2734	0.000363
2746	0.0004158
2758	0.0004356
2770	0.0004686
2782	0.0004862
2794	0.0005324
2806	0.0006446
2818	0.0007832
2830	0.000913
2842	0.001177
2854	0.0017732
2866	0.0033308
2878	0.0059268
2890	0.00715
2902	0.0072952
2914	0.0076142
2926	0.0088044
2938	0.0109032
2950	0.0115478
2962	0.0155518
2974	0.0219626
2986	0.0174834
2998	0.0072512
3010	0.0030008
3022	0.00154
3034	0.000968
3046	0.0007062
3058	0.000583
3070	0.000572
3082	0.000583
3094	0.0005148
3106	0.0005434
3118	0.00055
3130	0.0005192
3142	0.0004818
3154	0.000517
3166	0.0005258
3178	0.0004708
3190	0.000429
3202	0.0003432
3214	0.0002816
3226	0.0002354
3238	0.0001936
3250	0.0002156
3262	0.0001716
3274	0.0001364
3286	0.0001694
3298	0.0001606
3310	0.000154
3322	0.000132
3334	0.0001452
3346	0.0001254
3358	0.0001254
3370	0.0001782
3382	0.0001782
3394	0.0002024
3406	0.0002332
3418	0.0003234
3430	0.0003806
3442	0.0002838
3454	0.0002002
3466	8.58e-05
3478	9.46e-05
3490	7.7e-05
3502	3.96e-05
3514	4.18e-05
3526	4.4e-05
3538	6.82e-05
3550	7.7e-05
3562	8.36e-05
3574	5.5e-05
3586	2.2e-05
3598	4.4e-05
3610	7.7e-05
3622	6.38e-05
3634	4.62e-05
3646	8.36e-05
3658	7.48e-05
3670	9.02e-05
3682	7.04e-05
3694	6.82e-05
3706	7.92e-05
3718	0.000121
3730	7.04e-05
3742	1.54e-05
3754	0.0001166
3766	5.5e-05
3778	7.48e-05
3790	6.16e-05
3802	9.02e-05
3814	7.7e-05
3826	8.14e-05
3838	9.46e-05
