Infrared Spectrum: 11Alpha-HYDROXY-5Alpha-PREGNANE-3,20-DIONE
Formula: C21 H32 O3
CAS: 565-96-8
State: SOLID (KBr DISC)
Class: COBLENTZ III
Instrument: BECKMAN IR-7
Sampling: TRANSMISSION
Resolution: 4
Origin: THE WORCESTER FOUNDATION FOR EXPERIMENTAL BIOLOGY, Neal L. McNiven
1/CM	TRANSMITTANCE
602.185	0.285
610.926	0.408
619.667	0.549
628.408	0.598
637.149	0.668
645.89	0.678
654.63	0.75
663.371	0.777
672.112	0.805
680.853	0.836
689.594	0.697
698.335	0.88
707.076	0.928
715.817	0.945
724.558	0.952
733.299	0.842
742.04	0.911
750.781	0.976
759.521	0.977
768.262	0.894
777.003	0.975
785.744	0.986
794.485	0.99
803.226	0.987
811.967	0.952
820.708	0.898
829.449	0.92
838.19	0.939
846.931	0.974
855.671	0.915
864.412	0.785
873.153	0.924
881.894	0.932
890.635	0.855
899.376	0.857
908.117	0.72
916.858	0.588
925.599	0.754
934.34	0.728
943.081	0.733
951.821	0.663
960.562	0.398
969.303	0.474
978.044	0.346
986.785	0.4429
995.526	0.619
1004.27	0.581
1013.01	0.415
1021.75	0.1241
1030.49	0.3059
1039.23	0.402
1047.97	0.251
1056.71	0.377
1065.45	0.19
1074.19	0.4499
1082.94	0.6
1091.68	0.522
1100.42	0.423
1109.16	0.473
1117.9	0.37
1126.64	0.333
1135.38	0.571
1144.12	0.446
1152.86	0.2271
1161.6	0.1769
1170.34	0.515
1179.09	0.541
1187.83	0.328
1196.57	0.313
1205.31	0.502
1214.05	0.126
1222.79	0.198
1231.53	0.389
1240.27	0.566
1249.01	0.557
1257.75	0.219
1266.49	0.514
1275.24	0.38
1283.98	0.4439
1292.72	0.661
1301.46	0.588
1310.2	0.555
1318.94	0.656
1327.68	0.445
1336.42	0.27
1345.16	0.193
1353.9	0.11
1362.64	0.28
1371.39	0.448
1380.13	0.2321
1388.87	0.265
1397.61	0.22
1406.35	0.201
1415.09	0.216
1423.83	0.229
1432.57	0.367
1441.31	0.25
1450.05	0.229
1458.79	0.333
1467.54	0.426
1476.28	0.616
1485.02	0.75
1493.76	0.796
1502.5	0.812
1511.24	0.852
1519.98	0.865
1528.72	0.875
1537.46	0.859
1546.2	0.867
1554.94	0.862
1563.69	0.859
1572.43	0.845
1581.17	0.838
1589.91	0.835
1598.65	0.823
1607.39	0.804
1616.13	0.769
1624.87	0.72
1633.61	0.688
1642.35	0.658
1651.09	0.5179
1659.84	0.481
1668.58	0.379
1677.32	0.201
1686.06	0.034
1694.8	0.029
1703.54	0.004
1712.28	0.048
1721.02	0.26
1729.76	0.451
1738.5	0.62
1747.24	0.717
1755.99	0.787
1764.73	0.833
1773.47	0.845
1782.21	0.854
1790.95	0.885
1799.69	0.904
1808.43	0.912
1817.17	0.915
1825.91	0.915
1834.65	0.925
1843.39	0.939
1852.14	0.944
1860.88	0.945
1869.62	0.946
1878.36	0.946
1887.1	0.947
1895.84	0.955
1904.58	0.955
1913.32	0.953
1922.06	0.948
1930.8	0.944
1939.54	0.943
1948.29	0.945
1957.03	0.948
1965.77	0.945
1974.51	0.939
1983.25	0.938
1991.99	0.939
2000.73	0.9423
2009.47	0.942
2018.21	0.942
2026.95	0.941
2035.69	0.9407
2044.44	0.939
2053.18	0.939
2061.92	0.9387
2070.66	0.9367
2079.4	0.936
2088.14	0.934
2096.88	0.933
2105.62	0.932
2114.36	0.931
2123.1	0.9302
2131.84	0.9256
2140.59	0.9246
2149.33	0.925
2158.07	0.9236
2166.81	0.9226
2175.55	0.9205
2184.29	0.9195
2193.03	0.917
2201.77	0.9125
2210.51	0.9115
2219.25	0.9095
2227.99	0.9045
2236.74	0.8995
2245.48	0.8965
2254.22	0.896
2262.96	0.8934
2271.7	0.8904
2280.44	0.888
2289.18	0.887
2297.92	0.886
2306.66	0.8834
2315.4	0.8818
2324.14	0.8767
2332.89	0.874
2341.63	0.8724
2350.37	0.8703
2359.11	0.869
2367.85	0.868
2376.59	0.867
2385.33	0.867
2394.07	0.867
2402.81	0.867
2411.55	0.867
2420.29	0.8653
2429.04	0.8633
2437.78	0.8595
2446.52	0.8562
2455.26	0.854
2464	0.8522
2472.74	0.8512
2481.48	0.8502
2490.22	0.8482
2498.96	0.8452
2507.7	0.843
2516.44	0.8373
2525.19	0.834
2533.93	0.833
2542.67	0.8301
2551.41	0.8252
2560.15	0.8191
2568.89	0.8142
2577.63	0.8092
2586.37	0.807
2595.11	0.8051
2603.85	0.8002
2612.59	0.797
2621.34	0.794
2630.08	0.7881
2638.82	0.777
2647.56	0.769
2656.3	0.767
2665.04	0.767
2673.78	0.767
2682.52	0.7671
2691.26	0.769
2700	0.769
2708.74	0.7668
2717.49	0.7578
2726.23	0.7498
2734.97	0.7319
2743.71	0.7279
2752.45	0.724
2761.19	0.7199
2769.93	0.7156
2778.67	0.7076
2787.41	0.684
2796.15	0.6647
2804.89	0.5321
2813.64	0.3266
2822.38	0.2906
2831.12	0.2603
2839.86	0.1652
2848.6	0.101
2857.34	0.0821
2866.08	0.124
2874.82	0.0958
2883.56	0.187
2892.3	0.1801
2901.04	0.1068
2909.79	0.0503
2918.53	0.0242
2927.27	0.01
2936.01	0.0144
2944.75	0.033
2953.49	0.0481
2962.23	0.0789
2970.97	0.1953
2979.71	0.2761
2988.45	0.3362
2997.19	0.4169
3005.94	0.5219
3014.68	0.6379
3023.42	0.6894
3032.16	0.7112
3040.9	0.7267
3049.64	0.7345
3058.38	0.7375
3067.12	0.743
3075.86	0.747
3084.6	0.7475
3093.34	0.748
3102.09	0.749
3110.83	0.749
3119.57	0.748
3128.31	0.748
3137.05	0.748
3145.79	0.747
3154.53	0.7454
3163.27	0.744
3172.01	0.743
3180.75	0.743
3189.49	0.7404
3198.24	0.7394
3206.98	0.7374
3215.72	0.7337
3224.46	0.7307
3233.2	0.7283
3241.94	0.7263
3250.68	0.7226
3259.42	0.7176
3268.16	0.7153
3276.9	0.7088
3285.64	0.7015
3294.39	0.6953
3303.13	0.6905
3311.87	0.6859
3320.61	0.6693
3329.35	0.6599
3338.09	0.6488
3346.83	0.6207
3355.57	0.5964
3364.31	0.5508
3373.05	0.512
3381.8	0.5361
3390.54	0.5399
3399.28	0.5288
3408.02	0.5155
3416.76	0.5003
3425.5	0.4782
3434.24	0.4171
3442.98	0.3472
3451.72	0.2671
3460.46	0.1426
3469.2	0.087
3477.95	0.0289
3486.69	0.0576
3495.43	0.1047
3504.17	0.1734
3512.91	0.2512
3521.65	0.3623
3530.39	0.4425
3539.13	0.5357
3547.87	0.5855
3556.61	0.6315
3565.35	0.6941
3574.1	0.7064
3582.84	0.7193
3591.58	0.7354
3600.32	0.7471
3609.06	0.7458
3617.8	0.7436
3626.54	0.7547
3635.28	0.7631
3644.02	0.766
3652.76	0.7648
3661.5	0.7606
3670.25	0.7568
3678.99	0.7538
3687.73	0.7532
3696.47	0.7596
3705.21	0.7681
3713.95	0.7807
3722.69	0.7865
3731.43	0.7913
3740.17	0.793
3748.91	0.7943
3757.65	0.794
3766.4	0.793
3775.14	0.7917
3783.88	0.79
3792.62	0.788
3801.36	0.7867
3810.1	0.785
3818.84	0.783
3827.58	0.781
3836.32	0.78
3845.06	0.7786
3853.8	0.777
3862.55	0.7756
3871.29	0.7746
3880.03	0.7726
3888.77	0.7716
3897.51	0.769
3906.25	0.7685
3914.99	0.767
3923.73	0.7655
3932.47	0.764
3941.21	0.7625
3949.95	0.761
3958.7	0.759
3967.44	0.7575
3976.18	0.756
3984.92	0.753
3993.66	0.7514
4002.4	0.7504
4011.14	0.7502
4019.88	0.749
