Infrared Spectrum: 3-Methyl-2-pentanol
Formula: C 6 H 14 O
CAS: 565-60-6
State: gas
Instrument: HP-GC/MS/IRD
Origin: NIST Mass Spectrometry Data Center
1/CM	ABSORBANCE
550	4.56e-05
562	9.44e-05
574	5.04e-05
586	8.12e-05
598	0.0001096
610	0.0001308
622	6.2e-05
634	7.6e-05
646	7.12e-05
658	0.0001104
670	4.48e-05
682	7.64e-05
694	3.36e-05
706	5.76e-05
718	0.0001092
730	8.68e-05
742	7.52e-05
754	0.0001112
766	9.56e-05
778	0.0001324
790	0.000126
802	0.000118
814	0.000104
826	0.000214
838	0.000116
850	0.00018
862	0.0001968
874	0.0001228
886	0.000152
898	0.0002572
910	0.0004504
922	0.0004536
934	0.0003068
946	0.0002148
958	0.0002664
970	0.0003468
982	0.0003724
994	0.0004276
1006	0.0005164
1018	0.0005812
1030	0.0005772
1042	0.0005664
1054	0.0006756
1066	0.0008428
1078	0.0009932
1090	0.0009856
1102	0.0009948
1114	0.0012036
1126	0.0013916
1138	0.0013732
1150	0.0009636
1162	0.0007216
1174	0.0005416
1186	0.0004452
1198	0.0003736
1210	0.0003544
1222	0.000442
1234	0.0005064
1246	0.00057
1258	0.0004896
1270	0.0003852
1282	0.000356
1294	0.0003216
1306	0.0003256
1318	0.0003112
1330	0.0003352
1342	0.0003564
1354	0.0004816
1366	0.0006952
1378	0.0009756
1390	0.0009652
1402	0.0006216
1414	0.000334
1426	0.0003028
1438	0.0003476
1450	0.000508
1462	0.0005968
1474	0.0004768
1486	0.0002964
1498	0.0001808
1510	5.4e-05
1522	6.92e-05
1534	6.92e-05
1546	6.64e-05
1558	8.84e-05
1570	7.84e-05
1582	7.48e-05
1594	6.28e-05
1606	5.28e-05
1618	7.72e-05
1630	5.76e-05
1642	6.84e-05
1654	7.88e-05
1666	5.4e-05
1678	4.28e-05
1690	4.96e-05
1702	4e-05
1714	3.52e-05
1726	4.24e-05
1738	4.48e-05
1750	0
1762	1.44e-05
1774	3.96e-05
1786	6.8e-06
1798	1.84e-05
1810	2.72e-05
1822	1.16e-05
1834	2.6e-05
1846	2.52e-05
1858	3.88e-05
1870	1.6e-05
1882	2.96e-05
1894	4.24e-05
1906	4.08e-05
1918	3.88e-05
1930	3.56e-05
1942	3.88e-05
1954	5.52e-05
1966	3.32e-05
1978	4.56e-05
1990	2.8e-05
2002	3.32e-05
2014	3.12e-05
2026	3.44e-05
2038	2.56e-05
2050	5.44e-05
2062	3.24e-05
2074	3.08e-05
2086	3e-05
2098	3.08e-05
2110	4.36e-05
2122	3.12e-05
2134	2.92e-05
2146	4.56e-05
2158	2.68e-05
2170	3.88e-05
2182	2.8e-05
2194	3.36e-05
2206	3.4e-05
2218	4e-05
2230	4.76e-05
2242	3.04e-05
2254	3.4e-05
2266	3.8e-05
2278	4.12e-05
2290	3.72e-05
2302	4.4e-05
2314	5.52e-05
2326	9.32e-05
2338	8.4e-05
2350	7.2e-05
2362	0.000112
2374	8.24e-05
2386	4.76e-05
2398	5.12e-05
2410	4.72e-05
2422	3.84e-05
2434	5.36e-05
2446	6.4e-05
2458	3.84e-05
2470	4.8e-05
2482	4.16e-05
2494	3.04e-05
2506	4.08e-05
2518	3.28e-05
2530	3.2e-05
2542	3.92e-05
2554	6.2e-05
2566	4.4e-05
2578	6.28e-05
2590	7.88e-05
2602	7.48e-05
2614	7.16e-05
2626	8.32e-05
2638	0.0001004
2650	9.52e-05
2662	7.76e-05
2674	8.2e-05
2686	9.76e-05
2698	9.8e-05
2710	0.0001024
2722	0.0001164
2734	0.0001308
2746	0.0001656
2758	0.000172
2770	0.0001628
2782	0.0001832
2794	0.000226
2806	0.000276
2818	0.0003476
2830	0.0004528
2842	0.0006796
2854	0.0010384
2866	0.0016224
2878	0.0022844
2890	0.0024364
2902	0.0021464
2914	0.0019608
2926	0.002228
2938	0.002434
2950	0.0026284
2962	0.0033936
2974	0.004
2986	0.0030556
2998	0.0014912
3010	0.0006744
3022	0.0003844
3034	0.000276
3046	0.0002324
3058	0.0001724
3070	0.000152
3082	0.0001496
3094	0.0001532
3106	0.0001224
3118	9.16e-05
3130	0.0001388
3142	8.84e-05
3154	0.0001028
3166	8.72e-05
3178	8.64e-05
3190	4.56e-05
3202	5.6e-05
3214	6.24e-05
3226	4.72e-05
3238	2.76e-05
3250	5.88e-05
3262	4.24e-05
3274	4.56e-05
3286	3.96e-05
3298	3.56e-05
3310	3.96e-05
3322	2.96e-05
3334	5.36e-05
3346	5.28e-05
3358	5.96e-05
3370	5.08e-05
3382	5.2e-05
3394	7.36e-05
3406	5.04e-05
3418	7.6e-05
3430	8.16e-05
3442	5.96e-05
3454	7.92e-05
3466	7.32e-05
3478	7.48e-05
3490	7.12e-05
3502	4.64e-05
3514	7.04e-05
3526	3.2e-05
3538	7.16e-05
3550	8.8e-05
3562	5.92e-05
3574	9.08e-05
3586	3.52e-05
3598	8.88e-05
3610	7e-05
3622	8.36e-05
3634	0.0002124
3646	0.000298
3658	0.0003336
3670	0.0002928
3682	0.0001552
3694	0.0001344
3706	0.0001384
3718	0.0001172
3730	0.000118
3742	0.000124
3754	0.0001476
3766	0.0001392
3778	0.0001104
3790	0.0001344
3802	0.0001452
3814	0.000168
3826	0.0001324
3838	0.0001152
