Infrared Spectrum: 2,2,2',4'-TETRACHLOROPROPIONANILIDE
Formula: C9 H7 Cl4 N O
CAS: 56511-20-7
State: SOLUTION (10% IN CCl4 FOR 5000-1350 CM^-^1, 10% IN CS2 FOR 1350-625 CM^-^1)
Class: COBLENTZ
Instrument: Not specified, most likely a prism, grating, or hybrid spectrometer.
Sampling: TRANSMISSION
Path length: 0.01 CM, 0.01 CM
Resolution: 4
Origin: DOW CHEMICAL COMPANY
MICROMETERS	TRANSMITTANCE
2.033	0.907
2.0722	0.918
2.11139	0.92
2.15059	0.922
2.18978	0.93
2.22898	0.928
2.26817	0.923
2.30737	0.931
2.34656	0.93
2.38576	0.922
2.42495	0.935
2.46415	0.939
2.50334	0.935
2.54254	0.935
2.58173	0.938
2.62093	0.938
2.66012	0.938
2.69932	0.938
2.73851	0.933
2.77771	0.93
2.8169	0.922
2.8561	0.925
2.89529	0.9
2.93449	0.683
2.97368	0.631
3.01288	0.897
3.05208	0.931
3.09127	0.928
3.13047	0.923
3.16966	0.918
3.20886	0.868
3.24805	0.881
3.28725	0.913
3.32644	0.887
3.36564	0.904
3.40483	0.897
3.44403	0.93
3.48322	0.941
3.52242	0.949
3.56161	0.936
3.60081	0.936
3.64	0.943
3.6792	0.951
3.71839	0.948
3.75759	0.959
3.79678	0.954
3.83598	0.957
3.87517	0.956
3.91437	0.962
3.95356	0.969
3.99276	0.967
4.03196	0.964
4.07115	0.951
4.11035	0.969
4.14954	0.967
4.18874	0.961
4.22793	0.949
4.26713	0.941
4.30632	0.948
4.34552	0.949
4.38471	0.961
4.42391	0.969
4.4631	0.972
4.5023	0.983
4.54149	0.983
4.58069	0.98
4.61988	0.97
4.65908	0.97
4.69827	0.978
4.73747	0.988
4.77666	0.98
4.81586	0.988
4.85505	0.98
4.89425	0.98
4.93344	0.977
4.97264	0.967
5.01184	0.965
5.05103	0.988
5.09023	0.987
5.12942	0.983
5.16862	0.978
5.20781	0.969
5.24701	0.941
5.2862	0.959
5.3254	0.959
5.36459	0.957
5.40379	0.959
5.44298	0.967
5.48218	0.949
5.52137	0.936
5.56057	0.922
5.59976	0.909
5.63896	0.87
5.67815	0.858
5.71735	0.801
5.75654	0.636
5.79574	0.232
5.83493	0.09
5.87413	0.23
5.91332	0.586
5.95252	0.79
5.99171	0.842
6.03091	0.862
6.07011	0.87
6.1093	0.845
6.1485	0.779
6.18769	0.689
6.22689	0.464
6.26608	0.159
6.30528	0.115
6.34447	0.314
6.38367	0.405
6.42286	0.344
6.46206	0.3
6.50125	0.224
6.54045	0.115
6.57964	0.064
6.61884	0.068
6.65803	0.228
6.69723	0.49
6.73642	0.599
6.77562	0.469
6.81481	0.558
6.85401	0.756
6.8932	0.67
6.9324	0.714
6.97159	0.759
7.01079	0.792
7.04999	0.829
7.08918	0.732
7.12838	0.529
7.16757	0.31
7.20677	0.284
7.24596	0.488
7.28516	0.834
7.32435	0.862
7.36355	0.887
7.40274	0.899
7.44194	0.884
7.48113	0.857
7.52033	0.784
7.55952	0.676
7.59872	0.498
7.63791	0.251
7.67711	0.305
7.7163	0.629
7.7555	0.8
7.79469	0.845
7.83389	0.855
7.87308	0.818
7.91228	0.84
7.95147	0.849
7.99067	0.805
8.02987	0.707
8.06906	0.704
8.10826	0.719
8.14745	0.667
8.18665	0.738
8.22584	0.803
8.26504	0.839
8.30423	0.866
8.34343	0.871
8.38262	0.875
8.42182	0.875
8.46101	0.878
8.50021	0.878
8.5394	0.878
8.5786	0.868
8.61779	0.858
8.65699	0.837
8.69618	0.805
8.73538	0.8
8.77457	0.81
8.81377	0.793
8.85296	0.667
8.89216	0.441
8.93135	0.396
8.97055	0.603
9.00975	0.607
9.04894	0.423
9.08814	0.418
9.12733	0.594
9.16653	0.589
9.20572	0.475
9.24492	0.298
9.28411	0.209
9.32331	0.282
9.3625	0.524
9.4017	0.647
9.44089	0.672
9.48009	0.584
9.51928	0.719
9.55848	0.831
9.59767	0.863
9.63687	0.875
9.67606	0.899
9.71526	0.909
9.75445	0.925
9.79365	0.926
9.83284	0.933
9.87204	0.939
9.91123	0.938
9.95043	0.941
9.98963	0.938
10.0288	0.943
10.068	0.936
10.1072	0.936
10.1464	0.938
10.1856	0.948
10.2248	0.956
10.264	0.957
10.3032	0.959
10.3424	0.956
10.3816	0.954
10.4208	0.941
10.46	0.918
10.4992	0.886
10.5384	0.892
10.5776	0.923
10.6167	0.913
10.6559	0.876
10.6951	0.787
10.7343	0.659
10.7735	0.61
10.8127	0.805
10.8519	0.862
10.8911	0.879
10.9303	0.889
10.9695	0.897
11.0087	0.892
11.0479	0.886
11.0871	0.883
11.1263	0.87
11.1655	0.86
11.2047	0.842
11.2439	0.818
11.2831	0.795
11.3223	0.766
11.3615	0.738
11.4007	0.691
11.4398	0.625
11.479	0.485
11.5182	0.31
11.5574	0.277
11.5966	0.423
11.6358	0.438
11.675	0.454
11.7142	0.564
11.7534	0.634
11.7926	0.694
11.8318	0.727
11.871	0.741
11.9102	0.74
11.9494	0.728
11.9886	0.702
12.0278	0.654
12.067	0.56
12.1062	0.399
12.1454	0.219
12.1846	0.167
12.2238	0.389
12.2629	0.551
12.3021	0.629
12.3413	0.66
12.3805	0.675
12.4197	0.678
12.4589	0.681
12.4981	0.683
12.5373	0.678
12.5765	0.662
12.6157	0.629
12.6549	0.587
12.6941	0.517
12.7333	0.402
12.7725	0.316
12.8117	0.258
12.8509	0.248
12.8901	0.24
12.9293	0.23
12.9685	0.228
13.0077	0.272
13.0469	0.358
13.086	0.454
13.1252	0.53
13.1644	0.597
13.2036	0.637
13.2428	0.676
13.282	0.701
13.3212	0.717
13.3604	0.732
13.3996	0.738
13.4388	0.74
13.478	0.738
13.5172	0.74
13.5564	0.738
13.5956	0.737
13.6348	0.727
13.674	0.717
13.7132	0.701
13.7524	0.689
13.7916	0.683
13.8308	0.676
13.8699	0.67
13.9091	0.67
13.9483	0.668
13.9875	0.673
14.0267	0.673
14.0659	0.662
14.1051	0.652
14.1443	0.631
14.1835	0.603
14.2227	0.568
14.2619	0.55
14.3011	0.56
14.3403	0.579
14.3795	0.592
14.4187	0.587
14.4579	0.581
14.4971	0.571
14.5363	0.563
14.5755	0.551
14.6147	0.538
14.6539	0.527
14.693	0.509
14.7322	0.498
14.7714	0.478
14.8106	0.457
14.8498	0.441
14.889	0.426
14.9282	0.407
14.9674	0.397
15.0066	0.378
15.0458	0.362
15.085	0.35
15.1242	0.344
15.1634	0.34
15.2026	0.337
15.2418	0.334
15.281	0.324
15.3202	0.319
15.3594	0.306
15.3986	0.28
15.4378	0.241
15.477	0.207
15.5161	0.186
15.5553	0.178
15.5945	0.18
15.6337	0.188
15.6729	0.193
15.7121	0.204
15.7513	0.219
15.7905	0.227
15.8297	0.23
15.8689	0.23
15.9081	0.211
