Infrared Spectrum: Phenyl propargyl sulphide
Formula: C 9 H 8 S
CAS: 5651-88-7
State: gas
Origin: EPA-IR VAPOR PHASE LIBRARY
1/CM	ABSORBANCE
549.8	0.0020596
559.445	0.0024358
569.09	0.000823
578.734	0.00266
588.379	0.00304
598.024	0.0026064
607.669	0.00339
617.313	0.00748
626.958	0.01326
636.603	0.02755
646.248	0.02142
655.893	0.01006
665.537	0.00681
675.182	0.00736
684.827	0.01036
694.472	0.01132
704.116	0.00978
713.761	0.00807
723.406	0.00917
733.051	0.01058
742.695	0.0119
752.34	0.00897
761.985	0.00468
771.63	0.0026166
781.275	0.00266
790.919	0.0018154
800.564	0.00281
810.209	0.0023547
819.854	0.004
829.498	0.0022214
839.143	0.0018766
848.788	0.0017749
858.433	0.00276
868.078	0.00170114
877.722	0.0024179
887.367	0.0016138
897.012	0.0020271
906.657	0.002419
916.301	0.0021129
925.946	0.0020051
935.591	0.0024746
945.236	0.0028
954.88	0.00312
964.525	0.0023969
974.17	0.0020596
983.815	0.001316
993.46	0.001334
1003.1	0.00338
1012.75	0.0025684
1022.39	0.00405
1032.04	0.00407
1041.68	0.00318
1051.33	0.0025043
1060.97	0.00401
1070.62	0.00444
1080.26	0.00578
1089.91	0.00609
1099.55	0.00404
1109.2	0.001399
1118.84	0.00359
1128.49	0.00308
1138.13	0.0024839
1147.78	0.00322
1157.42	0.0022884
1167.07	0.00269
1176.71	0.00479
1186.36	0.00421
1196	0.0025448
1205.64	0.00386
1215.29	0.0069
1224.93	0.00926
1234.58	0.00952
1244.22	0.00874
1253.87	0.00886
1263.51	0.00945
1273.16	0.00663
1282.8	0.00457
1292.45	0.00348
1302.09	0.00341
1311.74	0.00305
1321.38	0.0027
1331.03	0.00286
1340.67	0.0021498
1350.32	0.002257
1359.96	0.0020041
1369.61	0.0021661
1379.25	0.0025276
1388.9	0.0022374
1398.54	0.00295
1408.18	0.00374
1417.83	0.00427
1427.47	0.0048
1437.12	0.00478
1446.76	0.00419
1456.41	0.00366
1466.05	0.00489
1475.7	0.00798
1485.34	0.00711
1494.99	0.00366
1504.63	0.0020809
1514.28	0.0022187
1523.92	0.0018154
1533.57	0.0020606
1543.21	0.0020181
1552.86	0.00289
1562.5	0.00266
1572.15	0.00356
1581.79	0.00559
1591.44	0.00522
1601.08	0.00294
1610.73	0.0021774
1620.37	0.0020877
1630.01	0.0026052
1639.66	0.00268
1649.3	0.0019536
1658.95	0.0024081
1668.59	0.0025652
1678.24	0.0020127
1687.88	0.0024411
1697.53	0.0019786
1707.17	0.0020698
1716.82	0.0020704
1726.46	0.0022107
1736.11	0.0023442
1745.75	0.0023536
1755.4	0.0021075
1765.04	0.0023832
1774.69	0.0024694
1784.33	0.0025483
1793.98	0.0024123
1803.62	0.0021835
1813.27	0.0020081
1822.91	0.0018274
1832.55	0.0020026
1842.2	0.001966
1851.84	0.0021257
1861.49	0.0022158
1871.13	0.0022055
1880.78	0.0023923
1890.42	0.0020571
1900.07	0.0018541
1909.71	0.0017741
1919.36	0.0022499
1929	0.0022156
1938.65	0.0020125
1948.29	0.0025532
1957.94	0.0023235
1967.58	0.0021599
1977.23	0.0015578
1986.87	0.0017628
1996.52	0.0017912
2006.16	0.0017595
2015.81	0.0018999
2025.45	0.0017413
2035.1	0.0015987
2044.74	0.00162652
2054.38	0.00162019
2064.03	0.0019145
2073.67	0.00162609
2083.32	0.0019814
2092.96	0.001518
2102.61	0.0016359
2112.25	0.0018575
2121.9	0.0020879
2131.54	0.0017708
2141.19	0.0017393
2150.83	0.0015845
2160.48	0.0015328
2170.12	0.00163873
2179.77	0.00170641
2189.41	0.0015511
2199.06	0.0015536
2208.7	0.0019729
2218.35	0.0018294
2227.99	0.001522
2237.64	0.0019139
2247.28	0.0015858
2256.92	0.001432
2266.57	0.00164227
2276.21	0.0018734
2285.86	0.00164531
2295.5	0.00165637
2305.15	0.0020136
2314.79	0.0018689
2324.44	0.0019097
2334.08	0.00171577
2343.73	0.001405
2353.37	0.0019522
2363.02	0.0017345
2372.66	0.0019909
2382.31	0.0017999
2391.95	0.00172366
2401.6	0.00162696
2411.24	0.001508
2420.89	0.0019163
2430.53	0.0018455
2440.18	0.0019038
2449.82	0.00167166
2459.47	0.001494
2469.11	0.0018116
2478.75	0.0015405
2488.4	0.0015804
2498.04	0.001489
2507.69	0.001281
2517.33	0.0017746
2526.98	0.001432
2536.62	0.001421
2546.27	0.0015957
2555.91	0.0019541
2565.56	0.001762
2575.2	0.001374
2584.85	0.00164386
2594.49	0.001375
2604.14	0.0018406
2613.78	0.0017509
2623.43	0.001465
2633.07	0.0016719
2642.72	0.0015672
2652.36	0.001305
2662.01	0.0019477
2671.65	0.001457
2681.29	0.001527
2690.94	0.0017783
2700.58	0.0015549
2710.23	0.001147
2719.87	0.0015384
2729.52	0.001467
2739.16	0.001316
2748.81	0.001125
2758.45	0.001496
2768.1	0.001374
2777.74	0.001475
2787.39	0.0017385
2797.03	0.0015563
2806.68	0.00164151
2816.32	0.001318
2825.97	0.001453
2835.61	0.00169096
2845.26	0.00163341
2854.9	0.0017451
2864.55	0.001028
2874.19	0.0017992
2883.84	0.001374
2893.48	0.00168402
2903.12	0.001269
2912.77	0.0015459
2922.41	0.00372
2932.06	0.00416
2941.7	0.00272
2951.35	0.0017948
2960.99	0.0022608
2970.64	0.001455
2980.28	0.0024603
2989.93	0.00167271
2999.57	0.0024051
3009.22	0.00328
3018.86	0.00321
3028.51	0.0034
3038.15	0.00316
3047.8	0.00364
3057.44	0.00648
3067.09	0.00998
3076.73	0.00979
3086.38	0.00681
3096.02	0.00485
3105.67	0.0024249
3115.31	0.0018486
3124.95	0.0017704
3134.6	0.0024912
3144.24	0.0017576
3153.89	0.001516
3163.53	0.00163044
3173.18	0.001492
3182.82	0.001234
3192.47	0.001428
3202.11	0.0022079
3211.76	0.0015528
3221.4	0.0018471
3231.05	0.001136
3240.69	0.0015668
3250.34	0.002315
3259.98	0.0021209
3269.63	0.002178
3279.27	0.002108
3288.92	0.00357
3298.56	0.0052
3308.21	0.00815
3317.85	0.01092
3327.49	0.01405
3337.14	0.00987
3346.78	0.00343
3356.43	0.0024964
3366.07	0.0023584
3375.72	0.0025889
3385.36	0.0018176
3395.01	0.0018389
3404.65	0.0024954
3414.3	0.00169018
3423.94	0.001316
3433.59	0.001393
3443.23	0.00171691
3452.88	0.0025574
3462.52	0.001303
3472.17	0.001036
3481.81	0.0025857
3491.46	0.001478
3501.1	0.0020389
3510.75	0.0017793
3520.39	0.0018414
3530.04	0.0019897
3539.68	0.0020527
3549.32	0.00168928
3558.97	0.0019054
3568.61	0.0021061
3578.26	0.0019645
3587.9	0.0022633
3597.55	0.001416
3607.19	0.00165726
3616.84	0.001071
3626.48	0.0017786
3636.13	0.001252
3645.77	0.0019176
3655.42	0.0017321
3665.06	0.0022012
3674.71	0.0019966
3684.35	0.00167815
3694	0.0017985
3703.64	0.0017869
3713.29	0.00166739
3722.93	0.001467
3732.58	0.0022381
3742.22	0.0018162
3751.86	0.001018
3761.51	0.001432
3771.15	0.0018118
3780.8	0.0019424
3790.44	0.00168712
3800.09	0.00162017
3809.73	0.0017629
3819.38	0.0020558
3829.02	0.001394
3838.67	0.00162493
3848.31	0.001422
3857.96	0.000883
3867.6	0.001232
3877.25	0.0019904
3886.89	0.0019387
3896.54	0.0019172
3906.18	0.00153
3915.83	0.0020509
3925.47	0.001286
3935.12	0.0018248
3944.76	0.0021565
3954.41	0.0019488
3964.05	0.001093
3973.69	0.0017859
3983.34	0.0019211
3992.98	0.001431
