Infrared Spectrum: 2-(P-CHLOROPHENOXY)ETHYL CHLORO ACETATE
Formula: C10 H10 Cl2 O3
CAS: 56521-88-1
State: SOLUTION (10% CCl4 FOR 5000-1330, 10% CS2 FOR 1330-625 CM^-^1)
Class: COBLENTZ
Instrument: Not specified, most likely a prism, grating, or hybrid spectrometer.
Sampling: TRANSMISSION
Path length: 0.0117 CM, 0.0114 CM
Resolution: 4
Origin: DOW CHEMICAL COMPANY
MICROMETERS	TRANSMITTANCE
2.034	0.904
2.07524	0.9
2.11648	0.904
2.15772	0.902
2.19896	0.894
2.24019	0.888
2.28143	0.895
2.32267	0.894
2.36391	0.894
2.40515	0.899
2.44639	0.905
2.48763	0.909
2.52887	0.912
2.57011	0.914
2.61135	0.914
2.65258	0.916
2.69382	0.916
2.73506	0.911
2.7763	0.902
2.81754	0.899
2.85878	0.9
2.90002	0.905
2.94126	0.905
2.9825	0.907
3.02374	0.909
3.06497	0.912
3.10621	0.911
3.14745	0.904
3.18869	0.885
3.22993	0.882
3.27117	0.868
3.31241	0.803
3.35365	0.68
3.39489	0.811
3.43613	0.801
3.47736	0.902
3.5186	0.905
3.55984	0.912
3.60108	0.914
3.64232	0.923
3.68356	0.931
3.7248	0.931
3.76604	0.931
3.80728	0.931
3.84852	0.921
3.88975	0.912
3.93099	0.909
3.97223	0.914
4.01347	0.912
4.05471	0.931
4.09595	0.924
4.13719	0.924
4.17843	0.929
4.21967	0.928
4.26091	0.909
4.30214	0.905
4.34338	0.909
4.38462	0.926
4.42586	0.931
4.4671	0.933
4.50834	0.936
4.54958	0.933
4.59082	0.933
4.63206	0.929
4.6733	0.929
4.71453	0.924
4.75577	0.924
4.79701	0.917
4.83825	0.917
4.87949	0.905
4.92073	0.904
4.96197	0.916
5.00321	0.912
5.04445	0.919
5.08569	0.924
5.12692	0.926
5.16816	0.926
5.2094	0.923
5.25064	0.904
5.29188	0.885
5.33312	0.873
5.37436	0.887
5.4156	0.882
5.45684	0.87
5.49808	0.844
5.53931	0.8
5.58055	0.567
5.62179	0.285
5.66303	0.109
5.70427	0.138
5.74551	0.271
5.78675	0.639
5.82799	0.764
5.86923	0.83
5.91046	0.875
5.9517	0.899
5.99294	0.904
6.03418	0.9
6.07542	0.888
6.11666	0.866
6.1579	0.834
6.19914	0.717
6.24038	0.463
6.28162	0.49
6.32285	0.511
6.36409	0.564
6.40533	0.55
6.44657	0.516
6.48781	0.541
6.52905	0.591
6.57029	0.615
6.61153	0.615
6.65277	0.452
6.69401	0.141
6.73524	0.398
6.77648	0.598
6.81772	0.558
6.85896	0.543
6.9002	0.685
6.94144	0.685
6.98268	0.675
7.02392	0.611
7.06516	0.535
7.1064	0.649
7.14763	0.75
7.18887	0.839
7.23011	0.82
7.27135	0.762
7.31259	0.803
7.35383	0.846
7.39507	0.815
7.43631	0.762
7.47755	0.755
7.51879	0.724
7.56002	0.5
7.60126	0.357
7.6425	0.208
7.68374	0.205
7.72498	0.172
7.76622	0.128
7.80746	0.136
7.8487	0.23
7.88994	0.34
7.93118	0.282
7.97241	0.165
8.01365	0.049
8.05489	0.03
8.09613	0.076
8.13737	0.15
8.17861	0.237
8.21985	0.372
8.26109	0.442
8.30233	0.459
8.34357	0.413
8.3848	0.335
8.42604	0.222
8.46728	0.145
8.50852	0.088
8.54976	0.046
8.591	0.058
8.63224	0.1
8.67348	0.177
8.71472	0.261
8.75596	0.3
8.79719	0.336
8.83843	0.411
8.87967	0.492
8.92091	0.553
8.96215	0.567
9.00339	0.572
9.04463	0.538
9.08587	0.471
9.12711	0.362
9.16834	0.288
9.20958	0.478
9.25082	0.499
9.29206	0.391
9.3333	0.362
9.37454	0.461
9.41578	0.547
9.45702	0.536
9.49826	0.468
9.5395	0.36
9.58073	0.343
9.62197	0.432
9.66321	0.562
9.70445	0.629
9.74569	0.658
9.78693	0.658
9.82817	0.652
9.86941	0.641
9.91065	0.536
9.95189	0.487
9.99312	0.723
10.0344	0.769
10.0756	0.813
10.1168	0.822
10.1581	0.822
10.1993	0.806
10.2406	0.774
10.2818	0.705
10.323	0.596
10.3643	0.494
10.4055	0.442
10.4468	0.471
10.488	0.529
10.5292	0.56
10.5705	0.596
10.6117	0.635
10.6529	0.659
10.6942	0.666
10.7354	0.654
10.7767	0.622
10.8179	0.6
10.8591	0.601
10.9004	0.62
10.9416	0.658
10.9829	0.699
11.0241	0.717
11.0653	0.735
11.1066	0.753
11.1478	0.769
11.1891	0.774
11.2303	0.779
11.2715	0.777
11.3128	0.765
11.354	0.745
11.3953	0.723
11.4365	0.694
11.4777	0.666
11.519	0.644
11.5602	0.625
11.6014	0.613
11.6427	0.605
11.6839	0.605
11.7252	0.61
11.7664	0.627
11.8076	0.642
11.8489	0.656
11.8901	0.663
11.9314	0.649
11.9726	0.615
12.0138	0.526
12.0551	0.461
12.0963	0.297
12.1376	0.116
12.1788	0.054
12.22	0.17
12.2613	0.408
12.3025	0.574
12.3437	0.651
12.385	0.671
12.4262	0.652
12.4675	0.605
12.5087	0.533
12.5499	0.492
12.5912	0.487
12.6324	0.504
12.6737	0.502
12.7149	0.516
12.7561	0.565
12.7974	0.611
12.8386	0.654
12.8799	0.685
12.9211	0.707
12.9623	0.729
13.0036	0.747
13.0448	0.758
13.086	0.772
13.1273	0.781
13.1685	0.786
13.2098	0.789
13.251	0.791
13.2922	0.788
13.3335	0.782
13.3747	0.782
13.416	0.782
13.4572	0.777
13.4984	0.774
13.5397	0.77
13.5809	0.765
13.6222	0.762
13.6634	0.757
13.7046	0.75
13.7459	0.741
13.7871	0.731
13.8284	0.719
13.8696	0.705
13.9108	0.694
13.9521	0.673
13.9933	0.659
14.0345	0.644
14.0758	0.63
14.117	0.611
14.1583	0.601
14.1995	0.586
14.2407	0.577
14.282	0.569
14.3232	0.56
14.3645	0.557
14.4057	0.558
14.4469	0.56
14.4882	0.558
14.5294	0.557
14.5707	0.555
14.6119	0.55
14.6531	0.543
14.6944	0.533
14.7356	0.519
14.7768	0.499
14.8181	0.475
14.8593	0.43
14.9006	0.4
14.9418	0.358
14.983	0.311
15.0243	0.268
15.0655	0.251
15.1068	0.254
15.148	0.283
15.1892	0.314
15.2305	0.341
15.2717	0.358
15.313	0.381
15.3542	0.393
15.3954	0.4
15.4367	0.403
15.4779	0.403
15.5191	0.405
15.5604	0.403
15.6016	0.4
15.6429	0.393
15.6841	0.388
15.7253	0.381
15.7666	0.379
15.8078	0.376
15.8491	0.377
15.8903	0.377
