Infrared Spectrum: 2,3-Dimethoxybenzyl alcohol
Formula: C 9 H 12 O 3
CAS: 5653-67-8
State: gas
Origin: EPA-IR VAPOR PHASE LIBRARY
1/CM	ABSORBANCE
549.9	0.01261
559.547	0.01216
569.193	0.01204
578.84	0.0113
588.486	0.0103
598.133	0.01006
607.779	0.0107
617.426	0.01176
627.072	0.01224
636.719	0.01131
646.365	0.01014
656.012	0.00977
665.658	0.01097
675.305	0.0143
684.951	0.02042
694.598	0.02663
704.245	0.02433
713.891	0.01723
723.538	0.01798
733.184	0.03999
742.831	0.0845
752.477	0.08207
762.124	0.04492
771.77	0.03313
781.417	0.04121
791.063	0.04442
800.71	0.04357
810.356	0.03972
820.003	0.02604
829.649	0.01446
839.296	0.0104
848.943	0.00965
858.589	0.01009
868.236	0.01156
877.882	0.01391
887.529	0.01751
897.175	0.02172
906.822	0.02408
916.468	0.02316
926.115	0.02211
935.761	0.02364
945.408	0.02931
955.054	0.03872
964.701	0.04462
974.347	0.04808
983.994	0.06138
993.64	0.09971
1003.29	0.18033
1012.93	0.27321
1022.58	0.28266
1032.23	0.21361
1041.87	0.15053
1051.52	0.11363
1061.17	0.10136
1070.81	0.11162
1080.46	0.13286
1090.11	0.12358
1099.75	0.07657
1109.4	0.04065
1119.05	0.02842
1128.69	0.02517
1138.34	0.02625
1147.99	0.03197
1157.63	0.04486
1167.28	0.06354
1176.92	0.07888
1186.57	0.08468
1196.22	0.08837
1205.86	0.10809
1215.51	0.15696
1225.16	0.19352
1234.8	0.16863
1244.45	0.14017
1254.1	0.17161
1263.74	0.26443
1273.39	0.33415
1283.04	0.26957
1292.68	0.16625
1302.33	0.10906
1311.98	0.07001
1321.62	0.04747
1331.27	0.04011
1340.92	0.0387
1350.56	0.04031
1360.21	0.04566
1369.86	0.05463
1379.5	0.06412
1389.15	0.0686
1398.79	0.06356
1408.44	0.05446
1418.09	0.06604
1427.73	0.1081
1437.38	0.1154
1447.03	0.08896
1456.67	0.11482
1466.32	0.20907
1475.97	0.31303
1485.61	0.258
1495.26	0.11004
1504.91	0.04564
1514.55	0.02837
1524.2	0.02203
1533.85	0.01884
1543.49	0.01761
1553.14	0.0183
1562.79	0.02325
1572.43	0.03895
1582.08	0.06222
1591.73	0.06068
1601.37	0.0373
1611.02	0.02325
1620.67	0.01517
1630.31	0.01161
1639.96	0.00967
1649.6	0.00836
1659.25	0.00737
1668.9	0.0069587
1678.54	0.0067777
1688.19	0.0069761
1697.84	0.00719
1707.48	0.0069381
1717.13	0.0066366
1726.78	0.0063114
1736.42	0.0062513
1746.07	0.005904
1755.72	0.00572
1765.36	0.005621
1775.01	0.005727
1784.66	0.005709
1794.3	0.005774
1803.95	0.006426
1813.6	0.00754
1823.24	0.00786
1832.89	0.00735
1842.54	0.0066101
1852.18	0.005757
1861.83	0.005149
1871.47	0.005125
1881.12	0.005705
1890.77	0.00715
1900.41	0.00855
1910.06	0.00824
1919.71	0.0067337
1929.35	0.005921
1939	0.0060403
1948.65	0.0066857
1958.29	0.00754
1967.94	0.0084
1977.59	0.00899
1987.23	0.0094
1996.88	0.00993
2006.53	0.01072
2016.17	0.01141
2025.82	0.01111
2035.47	0.0095
2045.11	0.00786
2054.76	0.0068683
2064.41	0.0062406
2074.05	0.005818
2083.7	0.005475
2093.35	0.005206
2102.99	0.00493
2112.64	0.00474
2122.28	0.00464
2131.93	0.00475
2141.58	0.00501
2151.22	0.005352
2160.87	0.005783
2170.52	0.006078
2180.16	0.005892
2189.81	0.005267
2199.46	0.00454
2209.1	0.00408
2218.75	0.00395
2228.4	0.00383
2238.04	0.00381
2247.69	0.0038
2257.34	0.00389
2266.98	0.00409
2276.63	0.0044
2286.28	0.0044
2295.92	0.00396
2305.57	0.00357
2315.22	0.00346
2324.86	0.00354
2334.51	0.00359
2344.16	0.00353
2353.8	0.00348
2363.45	0.00361
2373.09	0.00394
2382.74	0.00427
2392.39	0.00442
2402.03	0.00426
2411.68	0.00394
2421.33	0.00385
2430.97	0.00397
2440.62	0.00418
2450.27	0.00424
2459.91	0.00423
2469.56	0.00431
2479.21	0.00447
2488.85	0.00469
2498.5	0.00492
2508.15	0.00507
2517.79	0.00506
2527.44	0.005231
2537.09	0.005398
2546.73	0.005562
2556.38	0.005598
2566.03	0.005393
2575.67	0.00495
2585.32	0.00451
2594.96	0.00427
2604.61	0.00413
2614.26	0.00398
2623.9	0.00391
2633.55	0.00396
2643.2	0.00399
2652.84	0.00389
2662.49	0.00374
2672.14	0.00368
2681.78	0.00379
2691.43	0.00397
2701.08	0.00418
2710.72	0.0043
2720.37	0.00441
2730.02	0.00468
2739.66	0.00494
2749.31	0.005393
2758.96	0.005846
2768.6	0.0065086
2778.25	0.0075
2787.9	0.00896
2797.54	0.01143
2807.19	0.01589
2816.84	0.02424
2826.48	0.04257
2836.13	0.0746
2845.77	0.08159
2855.42	0.05918
2865.07	0.05339
2874.71	0.06373
2884.36	0.07506
2894.01	0.07752
2903.65	0.07595
2913.3	0.07981
2922.95	0.09091
2932.59	0.11887
2942.24	0.15816
2951.89	0.15726
2961.53	0.12675
2971.18	0.10267
2980.83	0.08313
2990.47	0.07729
3000.12	0.08473
3009.77	0.07459
3019.41	0.05096
3029.06	0.03997
3038.71	0.03711
3048.35	0.03754
3058	0.03962
3067.64	0.04367
3077.29	0.04407
3086.94	0.03384
3096.58	0.01889
3106.23	0.00927
3115.88	0.005803
3125.52	0.00417
3135.17	0.00322
3144.82	0.00245
3154.46	0.00206
3164.11	0.00175
3173.76	0.00144
3183.4	0.0011
3193.05	0.00071
3202.7	0.00046
3212.34	0.00028
3221.99	0.00023
3231.64	0.00015
3241.28	0.00023
3250.93	9e-05
3260.58	9e-05
3270.22	3e-05
3279.87	9e-05
3289.52	8e-05
3299.16	0.00031
3308.81	0.00021
3318.45	0.00028
3328.1	0.00042
3337.75	0.00051
3347.39	0.00062
3357.04	0.00074
3366.69	0.00075
3376.33	0.00097
3385.98	0.00108
3395.63	0.00124
3405.27	0.00135
3414.92	0.00154
3424.57	0.00156
3434.21	0.00162
3443.86	0.00183
3453.51	0.00214
3463.15	0.00207
3472.8	0.00226
3482.45	0.00236
3492.09	0.00232
3501.74	0.00244
3511.39	0.00272
3521.03	0.00304
3530.68	0.00345
3540.33	0.00381
3549.97	0.00442
3559.62	0.0048
3569.26	0.005173
3578.91	0.00568
3588.56	0.006789
3598.2	0.00871
3607.85	0.01326
3617.5	0.01848
3627.14	0.01875
3636.79	0.01768
3646.44	0.01942
3656.08	0.01994
3665.73	0.018
3675.38	0.01462
3685.02	0.01105
3694.67	0.00774
3704.32	0.005778
3713.96	0.00459
3723.61	0.00392
3733.26	0.00359
3742.9	0.0033
3752.55	0.0032
3762.2	0.00311
3771.84	0.00307
3781.49	0.00304
3791.13	0.00309
3800.78	0.00323
3810.43	0.0033
3820.07	0.00362
3829.72	0.00372
3839.37	0.00391
3849.01	0.00399
3858.66	0.00394
3868.31	0.00408
3877.95	0.00409
3887.6	0.00406
3897.25	0.00392
3906.89	0.00363
3916.54	0.00354
3926.19	0.00356
3935.83	0.00347
3945.48	0.00348
3955.13	0.00347
3964.77	0.00344
3974.42	0.0035
3984.07	0.00333
3993.71	0.00337
