Infrared Spectrum: .alpha.-Chlordene
Formula: C 10 H 6 Cl 6
CAS: 56534-02-2
State: gas
Instrument: HP-GC/MS/IRD
Origin: NIST Mass Spectrometry Data Center
1/CM	ABSORBANCE
550	0.0009064
562	0.0005192
574	0.0014372
586	0.0009292
598	0.0002252
610	9.92e-05
622	0.0002568
634	0.0005488
646	0.0002148
658	0.0001708
670	0.0002092
682	0.0009592
694	0.00199
706	0.0006512
718	0.0015356
730	0.00092
742	0.0010696
754	0.000892
766	0.0014276
778	0.0034588
790	0.0007048
802	0.0001864
814	2.08e-05
826	8.72e-05
838	8.32e-05
850	1.72e-05
862	7.4e-05
874	0.0001748
886	0.0003332
898	0.0005832
910	0.0017596
922	0.0023852
934	0.000894
946	0.000536
958	0.0003092
970	0.000274
982	0.0005228
994	0.0009172
1006	0.0007408
1018	0.0008196
1030	0.0004616
1042	0.0003544
1054	0.0007524
1066	0.0006636
1078	0.0011508
1090	0.0012412
1102	0.0013176
1114	0.0015124
1126	0.0009156
1138	0.0025632
1150	0.002734
1162	0.0009028
1174	0.00087
1186	0.0015028
1198	0.0013516
1210	0.0005128
1222	0.0002488
1234	0.0002076
1246	0.0007332
1258	0.0020892
1270	0.0010844
1282	0.0008304
1294	0.0004124
1306	0.0003348
1318	0.0005496
1330	0.0004276
1342	0.000134
1354	9.08e-05
1366	5.08e-05
1378	5.92e-05
1390	5.16e-05
1402	4.8e-05
1414	5.88e-05
1426	0.0001276
1438	0.0004388
1450	0.0007568
1462	0.0001284
1474	2.4e-05
1486	1.28e-05
1498	3.16e-05
1510	3.64e-05
1522	5.32e-05
1534	7.24e-05
1546	7.6e-05
1558	0.0001316
1570	0.0003464
1582	0.0012556
1594	0.0038404
1606	0.0024408
1618	0.000254
1630	0.0001104
1642	4.88e-05
1654	6.72e-05
1666	6.12e-05
1678	2.52e-05
1690	4.12e-05
1702	3.52e-05
1714	3.16e-05
1726	5.92e-05
1738	1.52e-05
1750	4.56e-05
1762	3.64e-05
1774	3e-05
1786	4.52e-05
1798	1.48e-05
1810	2.16e-05
1822	7.6e-06
1834	4.72e-05
1846	4.28e-05
1858	3.84e-05
1870	2.72e-05
1882	3.8e-05
1894	4.16e-05
1906	5.88e-05
1918	3.64e-05
1930	1.92e-05
1942	4.44e-05
1954	3.6e-05
1966	3e-05
1978	2.84e-05
1990	5.4e-05
2002	6.2e-05
2014	4.12e-05
2026	4.48e-05
2038	4.12e-05
2050	4.08e-05
2062	6e-05
2074	4.92e-05
2086	5.96e-05
2098	5.52e-05
2110	3.52e-05
2122	2.44e-05
2134	5.12e-05
2146	5.36e-05
2158	6e-05
2170	3.04e-05
2182	4.16e-05
2194	1.84e-05
2206	4.92e-05
2218	5.44e-05
2230	3.6e-05
2242	5.12e-05
2254	6.8e-05
2266	3.96e-05
2278	4.32e-05
2290	6.88e-05
2302	7.2e-05
2314	7.36e-05
2326	5.88e-05
2338	7.12e-05
2350	8.68e-05
2362	8.48e-05
2374	7.08e-05
2386	3.04e-05
2398	5.84e-05
2410	5.76e-05
2422	9e-05
2434	7.76e-05
2446	4.44e-05
2458	5.48e-05
2470	8.16e-05
2482	6.6e-05
2494	6.04e-05
2506	5.32e-05
2518	4.56e-05
2530	7e-05
2542	8.72e-05
2554	7.24e-05
2566	4.44e-05
2578	2.88e-05
2590	6.8e-05
2602	5.88e-05
2614	9.44e-05
2626	4.76e-05
2638	7.12e-05
2650	5.48e-05
2662	2.52e-05
2674	2.72e-05
2686	3.72e-05
2698	8.24e-05
2710	8.84e-05
2722	7e-05
2734	6.4e-05
2746	3.16e-05
2758	8.92e-05
2770	7.48e-05
2782	7.4e-05
2794	3.64e-05
2806	7.76e-05
2818	6.6e-05
2830	3.08e-05
2842	6.8e-06
2854	6.12e-05
2866	8e-05
2878	0.0001348
2890	9.88e-05
2902	3.32e-05
2914	6.24e-05
2926	7e-05
2938	0.0001456
2950	0.0005804
2962	0.0002784
2974	0.0008004
2986	0.000982
2998	0.0008336
3010	0.000108
3022	2.76e-05
3034	6.92e-05
3046	9.84e-05
3058	0.0001072
3070	5.4e-05
3082	0.000114
3094	0.0001156
3106	6.92e-05
3118	8e-05
3130	8.24e-05
3142	8.6e-05
3154	3.32e-05
3166	0.0001172
3178	0.0001104
3190	0.00013
3202	5.52e-05
3214	9.64e-05
3226	0.0001272
3238	6.64e-05
3250	8.4e-05
3262	6.92e-05
3274	9.44e-05
3286	6.64e-05
3298	8.4e-05
3310	9.4e-05
3322	9.4e-05
3334	0.0001692
3346	9.64e-05
3358	0.0001484
3370	2.28e-05
3382	7e-05
3394	0.0001776
3406	8.24e-05
3418	7e-05
3430	6.88e-05
3442	0.0001188
3454	0.0001424
3466	8.24e-05
3478	8.92e-05
3490	0.0001168
3502	0.0001508
3514	0.0001372
3526	0.0001704
3538	7.88e-05
3550	9.84e-05
3562	0.000132
3574	8.84e-05
3586	0.0001408
3598	8.8e-05
3610	0.0001548
3622	0.000148
3634	7.88e-05
3646	0.0001104
3658	0.0001116
3670	8.56e-05
3682	5e-05
3694	0.0001308
3706	9.08e-05
3718	0.0001408
3730	0.00017
3742	0.0002092
3754	8.28e-05
3766	8.8e-05
3778	4.28e-05
3790	0.0001272
3802	6.48e-05
3814	7.04e-05
3826	8.12e-05
3838	0.0001688
