Infrared Spectrum: 3Beta-HYDROXYPREGN-5-EN-20-ONE
Formula: C21 H32 O2
CAS: 566-66-5
State: SOLID (KBr DISC)
Class: COBLENTZ III
Instrument: BECKMAN IR-7
Sampling: TRANSMISSION
Resolution: 4
Origin: THE WORCESTER FOUNDATION FOR EXPERIMENTAL BIOLOGY, Neal L. McNiven
1/CM	TRANSMITTANCE
597.809	0.477
606.573	0.522
615.336	0.622
624.1	0.712
632.864	0.752
641.627	0.794
650.391	0.807
659.155	0.836
667.919	0.839
676.682	0.848
685.446	0.85
694.21	0.845
702.973	0.842
711.737	0.841
720.501	0.836
729.264	0.831
738.028	0.764
746.792	0.819
755.556	0.855
764.319	0.863
773.083	0.865
781.847	0.863
790.61	0.85
799.374	0.6801
808.138	0.764
816.901	0.811
825.665	0.78
834.429	0.759
843.192	0.745
851.956	0.7959
860.72	0.856
869.484	0.858
878.247	0.784
887.011	0.85
895.775	0.866
904.538	0.814
913.302	0.819
922.066	0.783
930.829	0.82
939.593	0.792
948.357	0.61
957.12	0.641
965.884	0.8
974.648	0.79
983.412	0.7251
992.175	0.749
1000.94	0.777
1009.7	0.644
1018.47	0.546
1027.23	0.607
1035.99	0.656
1044.76	0.489
1053.52	0.221
1062.28	0.3459
1071.05	0.43
1079.81	0.652
1088.58	0.707
1097.34	0.612
1106.1	0.698
1114.87	0.764
1123.63	0.769
1132.39	0.655
1141.16	0.723
1149.92	0.727
1158.69	0.6851
1167.45	0.572
1176.21	0.628
1184.98	0.6121
1193.74	0.525
1202.5	0.741
1211.27	0.779
1220.03	0.541
1228.8	0.582
1237.56	0.665
1246.32	0.593
1255.09	0.708
1263.85	0.735
1272.61	0.674
1281.38	0.687
1290.14	0.503
1298.9	0.588
1307.67	0.711
1316.43	0.716
1325.2	0.735
1333.96	0.704
1342.72	0.606
1351.49	0.45
1360.25	0.325
1369.01	0.51
1377.78	0.491
1386.54	0.61
1395.31	0.628
1404.07	0.573
1412.83	0.604
1421.6	0.512
1430.36	0.478
1439.12	0.471
1447.89	0.564
1456.65	0.522
1465.41	0.534
1474.18	0.703
1482.94	0.839
1491.71	0.894
1500.47	0.909
1509.23	0.912
1518	0.911
1526.76	0.919
1535.52	0.925
1544.29	0.924
1553.05	0.922
1561.82	0.92
1570.58	0.917
1579.34	0.909
1588.11	0.905
1596.87	0.894
1605.63	0.879
1614.4	0.864
1623.16	0.845
1631.92	0.827
1640.69	0.773
1649.45	0.767
1658.22	0.717
1666.98	0.579
1675.74	0.312
1684.51	0.204
1693.27	0.344
1702.03	0.54
1710.8	0.748
1719.56	0.858
1728.33	0.898
1737.09	0.91
1745.85	0.925
1754.62	0.938
1763.38	0.954
1772.14	0.962
1780.91	0.97
1789.67	0.973
1798.44	0.975
1807.2	0.977
1815.96	0.978
1824.73	0.978
1833.49	0.978
1842.25	0.975
1851.02	0.98
1859.78	0.98
1868.54	0.976
1877.31	0.976
1886.07	0.978
1894.84	0.978
1903.6	0.98
1912.36	0.979
1921.13	0.978
1929.89	0.98
1938.65	0.978
1947.42	0.975
1956.18	0.973
1964.95	0.978
1973.71	0.977
1982.47	0.978
1991.24	0.979
2000	0.979
2008.76	0.98
2017.53	0.978
2026.29	0.978
2035.05	0.978
2043.82	0.978
2052.58	0.978
2061.35	0.978
2070.11	0.977
2078.87	0.9771
2087.64	0.9769
2096.4	0.975
2105.16	0.975
2113.93	0.975
2122.69	0.975
2131.46	0.975
2140.22	0.9762
2148.98	0.9772
2157.75	0.978
2166.51	0.979
2175.27	0.979
2184.04	0.978
2192.8	0.9745
2201.57	0.9642
2210.33	0.96
2219.09	0.958
2227.86	0.9577
2236.62	0.957
2245.38	0.957
2254.15	0.957
2262.91	0.957
2271.67	0.956
2280.44	0.9546
2289.2	0.951
2297.97	0.9496
2306.73	0.947
2315.49	0.9436
2324.26	0.9391
2333.02	0.9355
2341.78	0.9335
2350.55	0.932
2359.31	0.927
2368.08	0.9215
2376.84	0.92
2385.6	0.92
2394.37	0.922
2403.13	0.9226
2411.89	0.925
2420.66	0.925
2429.42	0.9266
2438.18	0.927
2446.95	0.927
2455.71	0.927
2464.48	0.927
2473.24	0.9263
2482	0.9253
2490.77	0.925
2499.53	0.9223
2508.29	0.9213
2517.06	0.9193
2525.82	0.9175
2534.59	0.9132
2543.35	0.9082
2552.11	0.9042
2560.88	0.903
2569.64	0.9012
2578.4	0.8982
2587.17	0.898
2595.93	0.898
2604.7	0.897
2613.46	0.896
2622.22	0.894
2630.99	0.893
2639.75	0.8891
2648.51	0.8802
2657.28	0.8741
2666.04	0.871
2674.8	0.87
2683.57	0.869
2692.33	0.868
2701.1	0.866
2709.86	0.864
2718.62	0.863
2727.39	0.862
2736.15	0.86
2744.91	0.8569
2753.68	0.8505
2762.44	0.8156
2771.21	0.8047
2779.97	0.7896
2788.73	0.7774
2797.5	0.7633
2806.26	0.6884
2815.02	0.6034
2823.79	0.5058
2832.55	0.4557
2841.31	0.3487
2850.08	0.3348
2858.84	0.3459
2867.61	0.3567
2876.37	0.356
2885.13	0.3167
2893.9	0.2934
2902.66	0.2581
2911.42	0.2122
2920.19	0.1842
2928.95	0.168
2937.72	0.1784
2946.48	0.2008
2955.24	0.2319
2964.01	0.3671
2972.77	0.4118
2981.53	0.4961
2990.3	0.5515
2999.06	0.623
3007.83	0.7032
3016.59	0.7644
3025.35	0.769
3034.12	0.7883
3042.88	0.8068
3051.64	0.8415
3060.41	0.851
3069.17	0.8555
3077.93	0.8611
3086.7	0.863
3095.46	0.864
3104.23	0.864
3112.99	0.863
3121.75	0.8634
3130.52	0.8624
3139.28	0.8604
3148.04	0.8584
3156.81	0.8564
3165.57	0.855
3174.34	0.8533
3183.1	0.8493
3191.86	0.8473
3200.63	0.846
3209.39	0.844
3218.15	0.842
3226.92	0.8403
3235.68	0.839
3244.44	0.8362
3253.21	0.8324
3261.97	0.8282
3270.74	0.827
3279.5	0.8252
3288.26	0.8222
3297.03	0.8183
3305.79	0.8111
3314.55	0.8053
3323.32	0.7994
3332.08	0.7855
3340.85	0.7576
3349.61	0.7512
3358.37	0.7471
3367.14	0.7392
3375.9	0.7252
3384.66	0.7112
3393.43	0.7021
3402.19	0.682
3410.96	0.665
3419.72	0.6599
3428.48	0.6357
3437.25	0.6005
3446.01	0.5706
3454.77	0.5441
3463.54	0.5033
3472.3	0.4642
3481.06	0.398
3489.83	0.3417
3498.59	0.2877
3507.36	0.2991
3516.12	0.3398
3524.88	0.4169
3533.65	0.5228
3542.41	0.5773
3551.17	0.62
3559.94	0.6601
3568.7	0.7037
3577.47	0.7373
3586.23	0.7641
3594.99	0.7889
3603.76	0.8097
3612.52	0.8239
3621.28	0.8316
3630.05	0.8403
3638.81	0.8537
3647.57	0.8684
3656.34	0.8774
3665.1	0.88
3673.87	0.8824
3682.63	0.885
3691.39	0.887
3700.16	0.89
3708.92	0.89
3717.68	0.889
3726.45	0.887
3735.21	0.8865
3743.98	0.885
3752.74	0.886
3761.5	0.887
3770.27	0.889
3779.03	0.891
3787.79	0.892
3796.56	0.8904
3805.32	0.89
3814.09	0.8884
3822.85	0.8874
3831.61	0.887
3840.38	0.887
3849.14	0.887
3857.9	0.887
3866.67	0.887
3875.43	0.887
3884.19	0.886
3892.96	0.8836
3901.72	0.8776
3910.49	0.876
3919.25	0.8777
3928.01	0.877
3936.78	0.8778
3945.54	0.878
3954.3	0.878
3963.07	0.877
3971.83	0.8788
3980.6	0.879
3989.36	0.879
3998.12	0.879
4006.89	0.879
4015.65	0.879
