Infrared Spectrum: (R)-(-)-2-Phenylglycinol
Formula: C 8 H 11 N O
CAS: 56613-80-0
State: gas
Origin: EPA-IR VAPOR PHASE LIBRARY
1/CM	ABSORBANCE
549.8	0.01083
559.445	0.00954
569.09	0.0076
578.735	0.00694
588.38	0.00662
598.025	0.00645
607.67	0.00684
617.315	0.00839
626.96	0.00866
636.605	0.00748
646.251	0.00735
655.896	0.00865
665.541	0.01094
675.186	0.01509
684.831	0.0254
694.476	0.04069
704.121	0.04153
713.766	0.02901
723.411	0.02163
733.056	0.02349
742.701	0.03003
752.346	0.03541
761.991	0.03337
771.636	0.02716
781.281	0.02256
790.926	0.02141
800.571	0.02155
810.216	0.02107
819.861	0.01996
829.507	0.01792
839.152	0.01607
848.797	0.01495
858.442	0.01435
868.087	0.01354
877.732	0.013
887.377	0.01224
897.022	0.01068
906.667	0.00938
916.312	0.00834
925.957	0.00741
935.602	0.00702
945.247	0.00721
954.892	0.00786
964.537	0.00855
974.182	0.0091
983.827	0.01005
993.472	0.0119
1003.12	0.01521
1012.76	0.02179
1022.41	0.03438
1032.05	0.05121
1041.7	0.06315
1051.34	0.05915
1060.99	0.04138
1070.63	0.02468
1080.28	0.01725
1089.92	0.0139
1099.57	0.0112
1109.21	0.00882
1118.86	0.00733
1128.5	0.00656
1138.15	0.00673
1147.79	0.00735
1157.44	0.0077
1167.08	0.00764
1176.73	0.0076
1186.37	0.00773
1196.02	0.00777
1205.66	0.00743
1215.31	0.00711
1224.95	0.00717
1234.6	0.00732
1244.24	0.00781
1253.89	0.00845
1263.53	0.00827
1273.18	0.00747
1282.82	0.00745
1292.47	0.00792
1302.11	0.00851
1311.76	0.00895
1321.4	0.00979
1331.05	0.01048
1340.69	0.01079
1350.34	0.01177
1359.98	0.01269
1369.63	0.01327
1379.27	0.01347
1388.92	0.01282
1398.56	0.01179
1408.21	0.0102
1417.85	0.00768
1427.5	0.00603
1437.14	0.00665
1446.79	0.00903
1456.43	0.01007
1466.08	0.0085
1475.73	0.00733
1485.37	0.0101
1495.02	0.01107
1504.66	0.00718
1514.31	0.00413
1523.95	0.00362
1533.6	0.00368
1543.24	0.00365
1552.89	0.00362
1562.53	0.00396
1572.18	0.00476
1581.82	0.00634
1591.47	0.00897
1601.11	0.01179
1610.76	0.01248
1620.4	0.01153
1630.05	0.00983
1639.69	0.00715
1649.34	0.00496
1658.98	0.00357
1668.63	0.00268
1678.27	0.002
1687.92	0.00152
1697.56	0.00129
1707.21	0.00118
1716.85	0.00117
1726.5	0.00136
1736.14	0.00139
1745.79	0.00144
1755.43	0.00119
1765.08	0.00106
1774.72	0.00116
1784.37	0.00156
1794.01	0.00231
1803.66	0.00226
1813.3	0.00152
1822.95	0.00112
1832.59	0.0009238
1842.24	0.0008914
1851.88	0.0011
1861.53	0.00146
1871.17	0.00182
1880.82	0.00192
1890.46	0.00155
1900.11	0.0009613
1909.75	0.0007656
1919.4	0.0009032
1929.04	0.0014
1938.69	0.00199
1948.33	0.0022
1957.98	0.00177
1967.62	0.00103
1977.27	0.0004792
1986.91	0.0003891
1996.56	0.0003135
2006.2	0.0003231
2015.85	0.0002784
2025.49	0.0003684
2035.14	0.0003757
2044.78	0.0004077
2054.43	0.0005251
2064.07	0.0004551
2073.72	0.0004995
2083.36	0.0004607
2093.01	0.0004772
2102.65	0.0003643
2112.3	0.0003088
2121.94	0.0002384
2131.59	0.0001762
2141.23	0.0001223
2150.88	0.0001378
2160.52	0.0001231
2170.17	0.0001039
2179.81	0.0001363
2189.46	5.043e-05
2199.1	7.295e-05
2208.75	2.958e-05
2218.39	9.232e-05
2228.04	0.0001056
2237.68	0.000111
2247.33	0.0001247
2256.97	0.0001804
2266.62	0.0001589
2276.26	0.0001263
2285.91	0.000146
2295.55	0.0001389
2305.2	0.0002483
2314.84	0.0004053
2324.49	0.000341
2334.13	0.0003518
2343.78	0.0004116
2353.42	0.0002651
2363.07	0.0003036
2372.72	0.0002876
2382.36	0.0002088
2392.01	0.0001478
2401.65	0.0001565
2411.3	0.0002374
2420.94	0.0001882
2430.59	0.0001699
2440.23	0.0002281
2449.88	0.0001973
2459.52	0.0002078
2469.17	0.0001496
2478.81	0.0001938
2488.46	0.0001861
2498.1	0.0002008
2507.75	0.0002186
2517.39	0.0003097
2527.04	0.0002444
2536.68	0.0002366
2546.33	0.0002987
2555.97	0.0002577
2565.62	0.0003124
2575.26	0.0003285
2584.91	0.0004217
2594.55	0.0004748
2604.2	0.0005509
2613.84	0.000497
2623.49	0.0005118
2633.13	0.0005966
2642.78	0.000596
2652.42	0.0006658
2662.07	0.00066
2671.71	0.0007083
2681.36	0.0007701
2691	0.0007644
2700.65	0.0008608
2710.29	0.000984
2719.94	0.00115
2729.58	0.00138
2739.23	0.00145
2748.87	0.00168
2758.52	0.00172
2768.16	0.00184
2777.81	0.0022
2787.45	0.0025
2797.1	0.00278
2806.74	0.0033
2816.39	0.00415
2826.03	0.00525
2835.68	0.00709
2845.32	0.00998
2854.97	0.01355
2864.61	0.01758
2874.26	0.02089
2883.9	0.02068
2893.55	0.01727
2903.19	0.01458
2912.84	0.01522
2922.48	0.01895
2932.13	0.02221
2941.77	0.0212
2951.42	0.01755
2961.06	0.01325
2970.71	0.00893
2980.35	0.00545
2990	0.00368
2999.64	0.00383
3009.29	0.00583
3018.93	0.011
3028.58	0.01787
3038.22	0.01921
3047.87	0.01451
3057.51	0.01506
3067.16	0.02234
3076.8	0.02248
3086.45	0.01487
3096.09	0.01014
3105.74	0.00632
3115.38	0.00345
3125.03	0.00171
3134.67	0.0009309
3144.32	0.0006698
3153.96	0.0006648
3163.61	0.0006968
3173.25	0.0005585
3182.9	0.0003577
3192.54	0.0003396
3202.19	0.000384
3211.83	0.0004091
3221.48	0.000406
3231.12	0.0003956
3240.77	0.000359
3250.41	0.0002473
3260.06	0.000434
3269.7	0.0004985
3279.35	0.0003963
3289	0.0004405
3298.64	0.0006181
3308.29	0.0005041
3317.93	0.0006331
3327.58	0.00101
3337.22	0.00123
3346.87	0.0013
3356.51	0.00114
3366.16	0.0009245
3375.8	0.0008366
3385.45	0.0008835
3395.09	0.0012
3404.74	0.00165
3414.38	0.00198
3424.03	0.00185
3433.67	0.00144
3443.32	0.00145
3452.96	0.00133
3462.61	0.00132
3472.25	0.00113
3481.9	0.00114
3491.54	0.00118
3501.19	0.00113
3510.83	0.00121
3520.48	0.0016
3530.12	0.00199
3539.77	0.00264
3549.41	0.00373
3559.06	0.00467
3568.7	0.00469
3578.35	0.00422
3587.99	0.00355
3597.64	0.00318
3607.28	0.00307
3616.93	0.00396
3626.57	0.00537
3636.22	0.00563
3645.86	0.00553
3655.51	0.00628
3665.15	0.00644
3674.8	0.00596
3684.44	0.00481
3694.09	0.00318
3703.73	0.00225
3713.38	0.00191
3723.02	0.00149
3732.67	0.00127
3742.31	0.0011
3751.96	0.00106
3761.6	0.0009627
3771.25	0.0008199
3780.89	0.0008789
3790.54	0.0007754
3800.18	0.0006499
3809.83	0.0008232
3819.47	0.0008087
3829.12	0.0007338
3838.76	0.0008164
3848.41	0.0008285
3858.05	0.0007658
3867.7	0.000697
3877.34	0.0008756
3886.99	0.0006582
3896.63	0.0007568
3906.28	0.0007155
3915.92	0.0006927
3925.57	0.0006295
3935.21	0.0006548
3944.86	0.0006322
3954.5	0.0006828
3964.15	0.0005754
3973.79	0.0006065
3983.44	0.0004193
3993.08	0.0003964
