Infrared Spectrum: 3,3-Tetramethyleneglutaric anhydride
Formula: C 9 H 12 O 3
CAS: 5662-95-3
State: gas
Origin: EPA-IR VAPOR PHASE LIBRARY
1/CM	ABSORBANCE
549.9	0.00417
559.547	0.00442
569.193	0.00453
578.84	0.00585
588.486	0.00833
598.133	0.01025
607.779	0.01013
617.426	0.00813
627.072	0.00599
636.719	0.00387
646.365	0.0025828
656.012	0.0020013
665.658	0.0019398
675.305	0.0017121
684.951	0.0015264
694.598	0.001284
704.245	0.001283
713.891	0.001137
723.538	0.001031
733.184	0.001021
742.831	0.001119
752.477	0.001296
762.124	0.001429
771.77	0.0016952
781.417	0.0019028
791.063	0.0021532
800.71	0.00263
810.356	0.00299
820.003	0.0024418
829.649	0.0017687
839.296	0.001471
848.943	0.001395
858.589	0.001377
868.236	0.0015249
877.882	0.0018367
887.529	0.0023234
897.175	0.00315
906.822	0.0044
916.468	0.00712
926.115	0.01475
935.761	0.02851
945.408	0.034
955.054	0.02271
964.701	0.01148
974.347	0.0075
983.994	0.00596
993.64	0.0058
1003.29	0.0067
1012.93	0.009
1022.58	0.01261
1032.23	0.01908
1041.87	0.03157
1051.52	0.04959
1061.17	0.07305
1070.81	0.09593
1080.46	0.08917
1090.11	0.0518
1099.75	0.02665
1109.4	0.01688
1119.05	0.0122
1128.69	0.01028
1138.34	0.01031
1147.99	0.01109
1157.63	0.01393
1167.28	0.01924
1176.92	0.02467
1186.57	0.02338
1196.22	0.01789
1205.86	0.01592
1215.51	0.01746
1225.16	0.0197
1234.8	0.02444
1244.45	0.02428
1254.1	0.01831
1263.74	0.01303
1273.39	0.0106
1283.04	0.00901
1292.68	0.00711
1302.33	0.00677
1311.98	0.00729
1321.62	0.00738
1331.27	0.00696
1340.92	0.00561
1350.56	0.00393
1360.21	0.00301
1369.86	0.00276
1379.5	0.0024141
1389.15	0.0023534
1398.79	0.00275
1408.44	0.0042
1418.09	0.00682
1427.73	0.00806
1437.38	0.00686
1447.03	0.00617
1456.67	0.00626
1466.32	0.00575
1475.97	0.00491
1485.61	0.00422
1495.26	0.00321
1504.91	0.0024014
1514.55	0.0019981
1524.2	0.0017038
1533.85	0.0015617
1543.49	0.00149
1553.14	0.001383
1562.79	0.001375
1572.43	0.001407
1582.08	0.001326
1591.73	0.0014
1601.37	0.001416
1611.02	0.001464
1620.67	0.001434
1630.31	0.0014994
1639.96	0.00163792
1649.6	0.0018195
1659.25	0.0019685
1668.9	0.0020751
1678.54	0.0021513
1688.19	0.0022611
1697.84	0.0025642
1707.48	0.00316
1717.13	0.00433
1726.78	0.00592
1736.42	0.00859
1746.07	0.01284
1755.72	0.01891
1765.36	0.03325
1775.01	0.08831
1784.66	0.16345
1794.3	0.14194
1803.95	0.05768
1813.6	0.04463
1823.24	0.07881
1832.89	0.0728
1842.54	0.02356
1852.18	0.00927
1861.83	0.00599
1871.47	0.00454
1881.12	0.00357
1890.77	0.00293
1900.41	0.0024166
1910.06	0.0022119
1919.71	0.0021846
1929.35	0.0020644
1939	0.0019296
1948.65	0.00161735
1958.29	0.001422
1967.94	0.001419
1977.59	0.001356
1987.23	0.001338
1996.88	0.00133
2006.53	0.001347
2016.17	0.001318
2025.82	0.001317
2035.47	0.001243
2045.11	0.001244
2054.76	0.001235
2064.41	0.001217
2074.05	0.001246
2083.7	0.001287
2093.35	0.001323
2102.99	0.001338
2112.64	0.001407
2122.28	0.001459
2131.93	0.0015186
2141.58	0.0015185
2151.22	0.00162066
2160.87	0.00158281
2170.52	0.0015564
2180.16	0.0015525
2189.81	0.00159798
2199.46	0.0015409
2209.1	0.0015064
2218.75	0.001457
2228.4	0.0015245
2238.04	0.0016076
2247.69	0.00162878
2257.34	0.00160597
2266.98	0.00161107
2276.63	0.0017077
2286.28	0.00168907
2295.92	0.0017322
2305.57	0.00166564
2315.22	0.0016452
2324.86	0.0015101
2334.51	0.001475
2344.16	0.001437
2353.8	0.001368
2363.45	0.001408
2373.09	0.001272
2382.74	0.001239
2392.39	0.001123
2402.03	0.001111
2411.68	0.001121
2421.33	0.001114
2430.97	0.001055
2440.62	0.001072
2450.27	0.001063
2459.91	0.001053
2469.56	0.001061
2479.21	0.001081
2488.85	0.001012
2498.5	0.001061
2508.15	0.000997
2517.79	0.001038
2527.44	0.000939
2537.09	0.00097
2546.73	0.001029
2556.38	0.000954
2566.03	0.001024
2575.67	0.001017
2585.32	0.000974
2594.96	0.000969
2604.61	0.000976
2614.26	0.000987
2623.9	0.000884
2633.55	0.000977
2643.2	0.000947
2652.84	0.000934
2662.49	0.000917
2672.14	0.000959
2681.78	0.000961
2691.43	0.000927
2701.08	0.000922
2710.72	0.001055
2720.37	0.001048
2730.02	0.001028
2739.66	0.001021
2749.31	0.001167
2758.96	0.001085
2768.6	0.00114
2778.25	0.001104
2787.9	0.001151
2797.54	0.001278
2807.19	0.001405
2816.84	0.0017429
2826.48	0.0022572
2836.13	0.0025783
2845.77	0.00327
2855.42	0.00501
2865.07	0.00863
2874.71	0.01306
2884.36	0.01454
2894.01	0.01361
2903.65	0.01304
2913.3	0.01556
2922.95	0.01706
2932.59	0.01958
2942.24	0.02376
2951.89	0.0286
2961.53	0.03606
2971.18	0.03772
2980.83	0.02362
2990.47	0.01101
3000.12	0.00627
3009.77	0.0042
3019.41	0.00297
3029.06	0.0020839
3038.71	0.00167869
3048.35	0.00128
3058	0.000999
3067.64	0.001015
3077.29	0.000774
3086.94	0.000692
3096.58	0.000794
3106.23	0.00048
3115.88	0.00053
3125.52	0.00044
3135.17	0.00031
3144.82	0.00042
3154.46	0.00024
3164.11	0.00036
3173.76	0.0004
3183.4	5e-05
3193.05	0.00025
3202.7	0.00035
3212.34	0.00023
3221.99	7e-05
3231.64	0.00033
3241.28	0.00032
3250.93	0.00031
3260.58	0.0004
3270.22	0.00039
3279.87	0.00025
3289.52	0.00033
3299.16	0.00039
3308.81	0.00013
3318.45	0.00028
3328.1	0.00019
3337.75	0.00018
3347.39	0.00036
3357.04	0.00025
3366.69	0.00021
3376.33	0.00024
3385.98	0.00028
3395.63	0.00042
3405.27	0.00033
3414.92	0.0003
3424.57	0.00027
3434.21	0.00043
3443.86	0.0005
3453.51	0.00049
3463.15	0.00049
3472.8	0.0004
3482.45	0.00045
3492.09	0.00054
3501.74	0.00055
3511.39	0.000894
3521.03	0.000714
3530.68	0.000764
3540.33	0.000973
3549.97	0.001183
3559.62	0.0015699
3569.26	0.001797
3578.91	0.002263
3588.56	0.00279
3598.2	0.00292
3607.85	0.0021975
3617.5	0.001245
3627.14	0.00111
3636.79	0.001077
3646.44	0.001115
3656.08	0.001009
3665.73	0.000924
3675.38	0.000785
3685.02	0.000787
3694.67	0.000764
3704.32	0.00082
3713.96	0.00075
3723.61	0.000813
3733.26	0.000791
3742.9	0.000639
3752.55	0.000726
3762.2	0.00082
3771.84	0.000751
3781.49	0.000988
3791.13	0.000969
3800.78	0.000912
3810.43	0.000851
3820.07	0.000874
3829.72	0.000939
3839.37	0.000917
3849.01	0.000944
3858.66	0.000944
3868.31	0.000971
3877.95	0.00098
3887.6	0.000846
3897.25	0.000974
3906.89	0.001146
3916.54	0.000935
3926.19	0.000982
3935.83	0.000933
3945.48	0.001024
3955.13	0.000948
3964.77	0.001033
3974.42	0.00105
3984.07	0.001157
3993.71	0.001099
