Infrared Spectrum: N-(2-MERCAPTOETHYL) OCTANAMIDE
Formula: C10 H21 N O S
CAS: 56630-30-9
State: SOLID (MINERAL OIL MULL)
Melting point: 49-50 C
Class: COBLENTZ
Instrument: Not specified, most likely a prism, grating, or hybrid spectrometer.
Sampling: TRANSMISSION
Resolution: 4
Origin: ARTHUR D. LITTLE, INC.
1/CM	TRANSMITTANCE
576.073	0.569
583.972	0.569
591.872	0.572
599.771	0.585
607.67	0.59
615.569	0.602
623.469	0.614
631.368	0.622
639.267	0.639
647.167	0.656
655.066	0.661
662.965	0.657
670.864	0.656
678.764	0.656
686.663	0.656
694.562	0.646
702.461	0.646
710.361	0.716
718.26	0.74
726.159	0.763
734.059	0.776
741.958	0.784
749.857	0.799
757.756	0.814
765.656	0.826
773.555	0.83
781.454	0.835
789.354	0.834
797.253	0.841
805.152	0.837
813.051	0.834
820.951	0.833
828.85	0.833
836.749	0.837
844.648	0.841
852.548	0.841
860.447	0.834
868.346	0.828
876.246	0.828
884.145	0.83
892.044	0.82
899.943	0.8
907.843	0.775
915.742	0.79
923.641	0.807
931.541	0.801
939.44	0.797
947.339	0.805
955.238	0.801
963.138	0.812
971.037	0.816
978.936	0.818
986.836	0.82
994.735	0.811
1002.63	0.8
1010.53	0.779
1018.43	0.77
1026.33	0.799
1034.23	0.8
1042.13	0.796
1050.03	0.804
1057.93	0.804
1065.83	0.811
1073.73	0.816
1081.63	0.82
1089.53	0.814
1097.43	0.809
1105.32	0.807
1113.22	0.809
1121.12	0.809
1129.02	0.803
1136.92	0.8
1144.82	0.795
1152.72	0.792
1160.62	0.791
1168.52	0.779
1176.42	0.748
1184.32	0.677
1192.22	0.652
1200.12	0.725
1208.02	0.766
1215.91	0.738
1223.81	0.698
1231.71	0.669
1239.61	0.695
1247.51	0.746
1255.41	0.737
1263.31	0.708
1271.21	0.703
1279.11	0.703
1287.01	0.706
1294.91	0.711
1302.81	0.721
1310.71	0.712
1318.61	0.709
1326.5	0.704
1334.4	0.685
1342.3	0.635
1350.2	0.604
1358.1	0.593
1366	0.545
1373.9	0.576
1381.8	0.657
1389.7	0.677
1397.6	0.65
1405.5	0.608
1413.4	0.595
1421.3	0.61
1429.2	0.528
1437.09	0.49
1444.99	0.422
1452.89	0.393
1460.79	0.489
1468.69	0.702
1476.59	0.73
1484.49	0.74
1492.39	0.732
1500.29	0.713
1508.19	0.695
1516.09	0.67
1523.99	0.603
1531.89	0.486
1539.79	0.438
1547.68	0.548
1555.58	0.658
1563.48	0.73
1571.38	0.74
1579.28	0.741
1587.18	0.729
1595.08	0.69
1602.98	0.633
1610.88	0.587
1618.78	0.509
1626.68	0.379
1634.58	0.339
1642.48	0.439
1650.37	0.548
1658.27	0.665
1666.17	0.749
1674.07	0.77
1681.97	0.78
1689.87	0.799
1697.77	0.816
1705.67	0.824
1713.57	0.83
1721.47	0.833
1729.37	0.834
1737.27	0.838
1745.17	0.846
1753.07	0.851
1760.96	0.855
1768.86	0.856
1776.76	0.858
1784.66	0.858
1792.56	0.856
1800.46	0.856
1808.36	0.855
1816.26	0.856
1824.16	0.858
1832.06	0.859
1839.96	0.859
1847.86	0.858
1855.76	0.856
1863.66	0.856
1871.55	0.855
1879.45	0.854
1887.35	0.854
1895.25	0.854
1903.15	0.854
1911.05	0.854
1918.95	0.854
1926.85	0.855
1934.75	0.855
1942.65	0.855
1950.55	0.854
1958.45	0.853
1966.35	0.855
1974.25	0.855
1982.14	0.854
1990.04	0.851
1997.94	0.849
2005.84	0.847
2013.74	0.849
2021.64	0.85
2029.54	0.85
2037.44	0.849
2045.34	0.847
2053.24	0.846
2061.14	0.843
2069.04	0.841
2076.94	0.842
2084.84	0.842
2092.73	0.842
2100.63	0.843
2108.53	0.842
2116.43	0.842
2124.33	0.841
2132.23	0.839
2140.13	0.839
2148.03	0.837
2155.93	0.838
2163.83	0.839
2171.73	0.841
2179.63	0.842
2187.53	0.841
2195.43	0.839
2203.32	0.838
2211.22	0.838
2219.12	0.839
2227.02	0.839
2234.92	0.839
2242.82	0.841
2250.72	0.839
2258.62	0.837
2266.52	0.835
2274.42	0.834
2282.32	0.837
2290.22	0.834
2298.12	0.832
2306.02	0.829
2313.91	0.828
2321.81	0.826
2329.71	0.825
2337.61	0.822
2345.51	0.824
2353.41	0.824
2361.31	0.825
2369.21	0.829
2377.11	0.832
2385.01	0.832
2392.91	0.829
2400.81	0.829
2408.71	0.829
2416.61	0.829
2424.5	0.829
2432.4	0.829
2440.3	0.828
2448.2	0.828
2456.1	0.826
2464	0.826
2471.9	0.824
2479.8	0.822
2487.7	0.82
2495.6	0.814
2503.5	0.813
2511.4	0.809
2519.3	0.805
2527.19	0.801
2535.09	0.79
2542.99	0.78
2550.89	0.793
2558.79	0.797
2566.69	0.799
2574.59	0.801
2582.49	0.8
2590.39	0.795
2598.29	0.79
2606.19	0.788
2614.09	0.787
2621.99	0.787
2629.89	0.783
2637.78	0.783
2645.68	0.78
2653.58	0.776
2661.48	0.776
2669.38	0.776
2677.28	0.776
2685.18	0.776
2693.08	0.776
2700.98	0.775
2708.88	0.772
2716.78	0.766
2724.68	0.759
2732.58	0.758
2740.48	0.759
2748.37	0.759
2756.27	0.759
2764.17	0.758
2772.07	0.75
2779.97	0.737
2787.87	0.716
2795.77	0.704
2803.67	0.686
2811.57	0.662
2819.47	0.625
2827.37	0.555
2835.27	0.427
2843.17	0.25
2851.07	0.167
2858.96	0.182
2866.86	0.212
2874.76	0.269
2882.66	0.278
2890.56	0.228
2898.46	0.187
2906.36	0.127
2914.26	0.07
2922.16	0.061
2930.06	0.102
2937.96	0.118
2945.86	0.14
2953.76	0.145
2961.66	0.225
2969.55	0.35
2977.45	0.467
2985.35	0.566
2993.25	0.637
3001.15	0.683
3009.05	0.703
3016.95	0.717
3024.85	0.724
3032.75	0.725
3040.65	0.721
3048.55	0.709
3056.45	0.688
3064.35	0.665
3072.25	0.673
3080.14	0.692
3088.04	0.724
3095.94	0.744
3103.84	0.749
3111.74	0.751
3119.64	0.755
3127.54	0.757
3135.44	0.757
3143.34	0.753
3151.24	0.749
3159.14	0.745
3167.04	0.733
3174.94	0.724
3182.84	0.712
3190.73	0.695
3198.63	0.692
3206.53	0.695
3214.43	0.696
3222.33	0.696
3230.23	0.695
3238.13	0.686
3246.03	0.661
3253.93	0.635
3261.83	0.597
3269.73	0.564
3277.63	0.511
3285.53	0.451
3293.43	0.413
3301.32	0.388
3309.22	0.398
3317.12	0.426
3325.02	0.475
3332.92	0.526
3340.82	0.591
3348.72	0.631
