Infrared Spectrum: Allylidenecyclohexane
Formula: C 9 H 14
CAS: 5664-10-8
State: gas
Instrument: HP-GC/MS/IRD
Origin: NIST Mass Spectrometry Data Center
1/CM	ABSORBANCE
550	0.0002176
562	0.0003584
574	0.0005024
586	0.0003168
598	0.0002592
610	3.52e-05
622	2.88e-05
634	3.2e-05
646	0.0001216
658	0.0002592
670	0.0005888
682	0.0006496
694	0.0006432
706	0.0004704
718	0.0002688
730	0.0001536
742	0.0002368
754	0.0003808
766	0.0004032
778	0.0005504
790	0.0008832
802	0.0011488
814	0.0008512
826	0.0007584
838	0.0008
850	0.0008064
862	0.0008096
874	0.0010144
886	0.0016064
898	0.003152
910	0.0063744
922	0.0058624
934	0.0028736
946	0.0018752
958	0.0014816
970	0.0014624
982	0.0022912
994	0.0029312
1006	0.0018208
1018	0.0008192
1030	0.0005888
1042	0.00064
1054	0.0006176
1066	0.0005664
1078	0.0005568
1090	0.0004992
1102	0.0004416
1114	0.0005632
1126	0.0008608
1138	0.0011232
1150	0.0009888
1162	0.000544
1174	0.0003232
1186	0.0001984
1198	0.0001952
1210	0.0002176
1222	0.0002432
1234	0.0004096
1246	0.0004992
1258	0.000624
1270	0.0009408
1282	0.0010176
1294	0.0007936
1306	0.0005792
1318	0.0005696
1330	0.0007104
1342	0.0009888
1354	0.0007168
1366	0.0004928
1378	0.0004864
1390	0.0004352
1402	0.0006464
1414	0.001072
1426	0.00192
1438	0.0030656
1450	0.0029568
1462	0.0018432
1474	0.000832
1486	0.0003328
1498	0.0002304
1510	0.0001472
1522	0.0001344
1534	9.92e-05
1546	0.000144
1558	0.000176
1570	0.0001792
1582	0.000224
1594	0.0002848
1606	0.000432
1618	0.0009184
1630	0.0020864
1642	0.0023488
1654	0.0010528
1666	0.0005024
1678	0.0003104
1690	0.0002048
1702	0.0001792
1714	0.000176
1726	0.0001504
1738	9.6e-05
1750	0.0001024
1762	8.64e-05
1774	8e-05
1786	9.28e-05
1798	0.0001376
1810	0.000256
1822	0.0005696
1834	0.000688
1846	0.0003648
1858	0.0001728
1870	0.0001056
1882	6.72e-05
1894	7.04e-05
1906	5.12e-05
1918	4.48e-05
1930	5.12e-05
1942	7.04e-05
1954	7.68e-05
1966	8.32e-05
1978	0.0001024
1990	8e-05
2002	4.48e-05
2014	2.88e-05
2026	3.52e-05
2038	1.92e-05
2050	4.48e-05
2062	2.56e-05
2074	4.48e-05
2086	1.6e-05
2098	9.6e-06
2110	6.4e-06
2122	9.6e-06
2134	5.12e-05
2146	1.92e-05
2158	6.08e-05
2170	7.04e-05
2182	5.44e-05
2194	4.48e-05
2206	5.12e-05
2218	5.44e-05
2230	7.04e-05
2242	2.88e-05
2254	2.88e-05
2266	4.8e-05
2278	4.16e-05
2290	2.88e-05
2302	2.24e-05
2314	5.12e-05
2326	4.16e-05
2338	5.44e-05
2350	2.88e-05
2362	5.12e-05
2374	3.52e-05
2386	6.08e-05
2398	3.84e-05
2410	2.56e-05
2422	9.6e-06
2434	4.16e-05
2446	3.2e-06
2458	2.88e-05
2470	2.56e-05
2482	6.08e-05
2494	7.36e-05
2506	9.92e-05
2518	8.32e-05
2530	9.28e-05
2542	6.72e-05
2554	3.2e-05
2566	7.68e-05
2578	7.36e-05
2590	0.0001248
2602	0.0001216
2614	0.0001408
2626	0.0002112
2638	0.0002816
2650	0.0004128
2662	0.0004928
2674	0.0004416
2686	0.0003872
2698	0.0003264
2710	0.0002752
2722	0.0002784
2734	0.0002752
2746	0.0003072
2758	0.0003328
2770	0.0004704
2782	0.0006816
2794	0.0009312
2806	0.0013152
2818	0.0022144
2830	0.0048352
2842	0.0095296
2854	0.011408
2866	0.0112512
2878	0.0109056
2890	0.0121984
2902	0.0149312
2914	0.0194912
2926	0.025808
2938	0.032
2950	0.023488
2962	0.0081536
2974	0.004704
2986	0.0045312
2998	0.00456
3010	0.0043488
3022	0.0031008
3034	0.0023904
3046	0.002416
3058	0.0023232
3070	0.0026048
3082	0.003664
3094	0.0027904
3106	0.0010272
3118	0.0004928
3130	0.0003744
3142	0.0002848
3154	0.0002528
3166	0.0002208
3178	0.0001984
3190	0.0001888
3202	0.0001824
3214	0.0001184
3226	0.0001216
3238	0.000112
3250	7.36e-05
3262	9.92e-05
3274	8.64e-05
3286	5.12e-05
3298	1.92e-05
3310	8.96e-05
3322	4.8e-05
3334	7.68e-05
3346	4.48e-05
3358	6.08e-05
3370	7.36e-05
3382	8.32e-05
3394	6.4e-05
3406	8.32e-05
3418	7.04e-05
3430	3.52e-05
3442	3.2e-05
3454	9.28e-05
3466	2.88e-05
3478	3.2e-06
3490	6.08e-05
3502	6.08e-05
3514	3.84e-05
3526	9.6e-06
3538	0
3550	3.2e-05
3562	4.48e-05
3574	5.44e-05
3586	5.44e-05
3598	5.44e-05
3610	3.84e-05
3622	4.8e-05
3634	2.88e-05
3646	4.8e-05
3658	5.12e-05
3670	6.08e-05
3682	4.16e-05
3694	7.68e-05
3706	7.04e-05
3718	6.08e-05
3730	4.48e-05
3742	9.6e-05
3754	6.72e-05
3766	6.4e-05
3778	8e-05
3790	6.08e-05
3802	0.000112
3814	8.64e-05
3826	6.4e-05
3838	8.64e-05
