Infrared Spectrum: Cyclohexylethyne
Formula: C 8 H 12
CAS: 5664-20-0
State: gas
Instrument: HP-GC/MS/IRD
Origin: NIST Mass Spectrometry Data Center
1/CM	ABSORBANCE
550	0.000868
562	0.0003224
574	0.0004433
586	0.000434
598	0.0005952
610	0.0017701
622	0.0069998
634	0.0155155
646	0.0056172
658	0.0012214
670	0.0003441
682	0.0001426
694	5.27e-05
706	3.1e-06
718	0.0001271
730	4.96e-05
742	0.0001271
754	0.0002077
766	0.0002666
778	0.0002201
790	0.0001302
802	7.44e-05
814	0.0001023
826	0.0002325
838	0.00031
850	0.00031
862	0.0002759
874	0.0004433
886	0.0006045
898	0.000434
910	0.0001767
922	0.0001364
934	0.0002201
946	0.0001984
958	8.37e-05
970	4.03e-05
982	4.34e-05
994	0.000155
1006	0.0002666
1018	0.0002976
1030	0.0002542
1042	0.0003162
1054	0.0003131
1066	9.92e-05
1078	8.37e-05
1090	2.79e-05
1102	7.44e-05
1114	0.0001705
1126	0.0001612
1138	0.0002511
1150	0.0002015
1162	0.0001891
1174	0.0001302
1186	0.0001736
1198	0.0001829
1210	0.0001581
1222	0.0005239
1234	0.0020646
1246	0.0042098
1258	0.0032674
1270	0.0008339
1282	0.0003379
1294	0.0003472
1306	0.0004371
1318	0.0004495
1330	0.000341
1342	0.0004092
1354	0.0005394
1366	0.0004557
1378	0.0002356
1390	0.0001581
1402	0.0001488
1414	0.000248
1426	0.0004619
1438	0.0014725
1450	0.0026474
1462	0.0022227
1474	0.0009796
1486	0.0003069
1498	0.0001054
1510	0.0001085
1522	8.06e-05
1534	3.41e-05
1546	5.89e-05
1558	5.27e-05
1570	4.34e-05
1582	4.65e-05
1594	2.79e-05
1606	4.96e-05
1618	4.03e-05
1630	1.24e-05
1642	3.72e-05
1654	4.34e-05
1666	4.65e-05
1678	7.75e-05
1690	6.2e-05
1702	7.44e-05
1714	4.34e-05
1726	5.58e-05
1738	7.44e-05
1750	5.89e-05
1762	7.44e-05
1774	4.34e-05
1786	4.03e-05
1798	5.58e-05
1810	3.1e-05
1822	6.2e-05
1834	6.2e-05
1846	4.03e-05
1858	5.58e-05
1870	5.58e-05
1882	2.17e-05
1894	4.34e-05
1906	2.79e-05
1918	5.27e-05
1930	3.72e-05
1942	2.48e-05
1954	2.79e-05
1966	4.34e-05
1978	2.48e-05
1990	2.79e-05
2002	3.1e-05
2014	3.1e-05
2026	3.72e-05
2038	2.48e-05
2050	2.79e-05
2062	4.34e-05
2074	0.0001054
2086	0.0002635
2098	0.0005239
2110	0.000806
2122	0.0007502
2134	0.0003131
2146	9.92e-05
2158	8.37e-05
2170	4.03e-05
2182	6.51e-05
2194	4.03e-05
2206	4.03e-05
2218	5.27e-05
2230	7.75e-05
2242	5.27e-05
2254	3.72e-05
2266	3.1e-05
2278	6.82e-05
2290	5.58e-05
2302	3.41e-05
2314	3.72e-05
2326	6.51e-05
2338	6.2e-05
2350	7.44e-05
2362	7.44e-05
2374	6.82e-05
2386	6.2e-05
2398	4.34e-05
2410	4.96e-05
2422	0
2434	3.1e-06
2446	2.79e-05
2458	2.17e-05
2470	6.2e-06
2482	2.79e-05
2494	1.55e-05
2506	1.24e-05
2518	2.17e-05
2530	4.96e-05
2542	3.41e-05
2554	1.24e-05
2566	6.2e-05
2578	7.13e-05
2590	7.13e-05
2602	8.68e-05
2614	9.92e-05
2626	8.99e-05
2638	0.0001643
2650	0.0002108
2662	0.00031
2674	0.0003255
2686	0.0002387
2698	0.0002232
2710	9.3e-05
2722	9.3e-05
2734	6.2e-05
2746	8.06e-05
2758	8.68e-05
2770	0.0001395
2782	0.0002139
2794	0.0003286
2806	0.0004061
2818	0.0004464
2830	0.0006572
2842	0.0018724
2854	0.0056885
2866	0.0083948
2878	0.0066247
2890	0.0042222
2902	0.0048174
2914	0.0083111
2926	0.0178777
2938	0.0309628
2950	0.024583
2962	0.0088753
2974	0.0018383
2986	0.0005487
2998	0.0003038
3010	0.0001891
3022	0.0001457
3034	0.0001333
3046	0.0001736
3058	0.0002015
3070	0.0001643
3082	8.68e-05
3094	0.0001178
3106	6.2e-05
3118	3.1e-05
3130	4.03e-05
3142	2.17e-05
3154	9.3e-05
3166	0.0001333
3178	0.0001085
3190	9.92e-05
3202	6.51e-05
3214	7.13e-05
3226	3.72e-05
3238	4.03e-05
3250	0.0001271
3262	0.0002542
3274	0.0004588
3286	0.000837
3298	0.0018321
3310	0.0031403
3322	0.0051181
3334	0.0046035
3346	0.0013392
3358	0.0005146
3370	0.0001457
3382	6.82e-05
3394	6.51e-05
3406	6.82e-05
3418	0.0001085
3430	0.0001333
3442	0.0001674
3454	0.0001209
3466	0.0001426
3478	0.0001209
3490	7.13e-05
3502	8.68e-05
3514	3.72e-05
3526	0
3538	0.0001147
3550	5.27e-05
3562	7.75e-05
3574	4.96e-05
3586	4.03e-05
3598	5.89e-05
3610	7.44e-05
3622	3.72e-05
3634	4.65e-05
3646	6.51e-05
3658	4.65e-05
3670	0.0001023
3682	8.06e-05
3694	0.0001116
3706	8.68e-05
3718	0.0001054
3730	5.58e-05
3742	0.0001054
3754	5.89e-05
3766	4.65e-05
3778	5.58e-05
3790	4.65e-05
3802	0.0001519
3814	0.0001054
3826	8.06e-05
3838	6.2e-05
