Infrared Spectrum: .gamma.-Chlordene
Formula: C 10 H 6 Cl 6
CAS: 56641-38-4
State: gas
Instrument: HP-GC/MS/IRD
Origin: NIST Mass Spectrometry Data Center
1/CM	ABSORBANCE
550	0.0028504
562	0.0010185
574	6.37e-05
586	0.0013783
598	0.0010073
610	0.0002716
622	0.0016191
634	0.0026866
646	0.0001344
658	0.0001351
670	0.0002905
682	0.0009737
694	0.004431
706	0.0020573
718	0.0018529
730	0.0011739
742	0.0011095
754	0.0011837
766	0.0028007
778	0.0011347
790	0.0001841
802	0.000154
814	0.000189
826	0.0003143
838	0.000406
850	0.0024213
862	0.007
874	0.0031633
886	0.0039004
898	0.0016478
910	0.000784
922	0.0013825
934	0.0014014
946	0.0014007
958	0.0005222
970	0.0011956
982	0.0023422
994	0.0009184
1006	0.0011767
1018	0.0016807
1030	0.0019936
1042	0.0010528
1054	0.002709
1066	0.0024374
1078	0.0010325
1090	0.0009366
1102	0.0021427
1114	0.0039627
1126	0.0020657
1138	0.003486
1150	0.006678
1162	0.0027069
1174	0.0003563
1186	0.0002331
1198	0.0014707
1210	0.0010381
1222	0.0019523
1234	0.0002849
1246	6.86e-05
1258	0.0006258
1270	0.001659
1282	0.0007861
1294	0.0006328
1306	0.0016877
1318	0.0010507
1330	0.0003801
1342	3.5e-05
1354	2.1e-06
1366	8.4e-06
1378	2.24e-05
1390	7.7e-06
1402	9.1e-06
1414	7.56e-05
1426	0.0002044
1438	0.000413
1450	0.0011984
1462	0.0009198
1474	0.0002261
1486	0.0001911
1498	0.0001379
1510	9.73e-05
1522	0.0001092
1534	0.00014
1546	0.0001876
1558	0.0002156
1570	0.0004207
1582	0.0010122
1594	0.003724
1606	0.0061173
1618	0.0049672
1630	0.0007903
1642	0.0003185
1654	0.0001743
1666	0.0001204
1678	8.82e-05
1690	7.35e-05
1702	7.49e-05
1714	5.46e-05
1726	7.07e-05
1738	5.11e-05
1750	8.12e-05
1762	6.58e-05
1774	5.39e-05
1786	7.77e-05
1798	7.77e-05
1810	5.74e-05
1822	7.91e-05
1834	3.43e-05
1846	4.55e-05
1858	5.18e-05
1870	7e-05
1882	8.26e-05
1894	7.7e-05
1906	5.95e-05
1918	5.88e-05
1930	4.34e-05
1942	6.58e-05
1954	6.65e-05
1966	4.41e-05
1978	3.85e-05
1990	3.92e-05
2002	5.39e-05
2014	3.43e-05
2026	5.6e-05
2038	7e-05
2050	5.88e-05
2062	3.57e-05
2074	7e-05
2086	6.72e-05
2098	5.39e-05
2110	5.81e-05
2122	7.91e-05
2134	6.79e-05
2146	6.86e-05
2158	8.75e-05
2170	5.04e-05
2182	2.66e-05
2194	9.66e-05
2206	6.37e-05
2218	7.7e-05
2230	8.33e-05
2242	7.42e-05
2254	7.21e-05
2266	4.34e-05
2278	7.35e-05
2290	7.98e-05
2302	7.98e-05
2314	0.0001064
2326	8.54e-05
2338	0.0001057
2350	0.0001008
2362	0.0001022
2374	7.35e-05
2386	7.7e-05
2398	8.26e-05
2410	7.7e-05
2422	7.77e-05
2434	6.3e-05
2446	0.0001197
2458	7.7e-05
2470	7.63e-05
2482	3.43e-05
2494	6.65e-05
2506	0.0001001
2518	0.0001274
2530	9.66e-05
2542	0.0001113
2554	0.0001204
2566	0.0001134
2578	6.37e-05
2590	7e-05
2602	4.2e-05
2614	7e-05
2626	8.33e-05
2638	6.65e-05
2650	9.17e-05
2662	7.35e-05
2674	8.96e-05
2686	6.02e-05
2698	0.0001414
2710	0.0001113
2722	0.0001015
2734	0.0001092
2746	9.73e-05
2758	9.66e-05
2770	0.0001582
2782	6.3e-05
2794	0.0001099
2806	8.47e-05
2818	8.75e-05
2830	0.0001155
2842	0.0001351
2854	0.0001659
2866	0.0002485
2878	0.0005278
2890	0.0003934
2902	0.0002478
2914	0.0002037
2926	0.000224
2938	0.0003864
2950	0.0014693
2962	0.0013692
2974	0.0012418
2986	0.0030807
2998	0.0008785
3010	0.0002177
3022	0.0001869
3034	9.38e-05
3046	0.0001064
3058	0.0001071
3070	0.0001253
3082	0.0001155
3094	0.0001008
3106	0.0001617
3118	0.0001827
3130	0.0001043
3142	0.0001533
3154	0.0001078
3166	0.0001456
3178	0.0001589
3190	0.0001274
3202	0.0001603
3214	0.0001743
3226	0.0001106
3238	0.0001386
3250	9.03e-05
3262	0.0001512
3274	9.59e-05
3286	0.0001001
3298	0.0001316
3310	8.96e-05
3322	9.66e-05
3334	0.0001645
3346	9.52e-05
3358	0.0001911
3370	8.4e-05
3382	7.7e-05
3394	0.0001113
3406	0.0001071
3418	0.00014
3430	0.0001582
3442	0.0001134
3454	4.83e-05
3466	0.0001288
3478	0.0001435
3490	9.66e-05
3502	0.0001344
3514	0.0001288
3526	0.0001393
3538	0.000154
3550	0.0001288
3562	0.0001344
3574	0.000112
3586	8.19e-05
3598	0.0001547
3610	5.32e-05
3622	0.0001281
3634	6.23e-05
3646	0.0001407
3658	0.0001155
3670	0.0001309
3682	0.0001036
3694	0.0001827
3706	0.00021
3718	0.0001099
3730	0.0002254
3742	0.0001743
3754	0.0001806
3766	0.0002093
3778	0.0001645
3790	0.0001512
3802	0.0002086
3814	0.0001449
3826	0.0001883
3838	0.0001806
