Infrared Spectrum: Allyldiethyl amine
Formula: C 7 H 15 N
CAS: 5666-17-1
State: gas
Instrument: HP-GC/MS/IRD
Origin: NIST Mass Spectrometry Data Center
1/CM	ABSORBANCE
550	0.000371
562	0.0007685
574	0.0005141
586	0.0003498
598	0.0006254
610	0.0009328
622	0.00106
634	0.0007526
646	0.00053
658	0.0002915
670	0.0001484
682	5.3e-05
694	1.59e-05
706	8.48e-05
718	0.000106
730	0.0002067
742	0.0004823
754	0.001325
766	0.0025546
778	0.0031588
790	0.0028355
802	0.0026924
814	0.0024115
826	0.0015794
838	0.0011236
850	0.0009805
862	0.0010494
874	0.0014893
886	0.0025122
898	0.0052682
910	0.0123702
922	0.0148453
934	0.0080878
946	0.004452
958	0.0044573
970	0.0053053
982	0.0072875
994	0.0092326
1006	0.0073723
1018	0.0047806
1030	0.0055491
1042	0.0084323
1054	0.0123172
1066	0.0148665
1078	0.0144054
1090	0.012879
1102	0.0107325
1114	0.0081461
1126	0.0060314
1138	0.0050827
1150	0.0058459
1162	0.0083104
1174	0.0102979
1186	0.0108703
1198	0.0123861
1210	0.0102184
1222	0.0052894
1234	0.003127
1246	0.0032436
1258	0.0043089
1270	0.005459
1282	0.0071391
1294	0.0084323
1306	0.00795
1318	0.0079129
1330	0.0093651
1342	0.0109604
1354	0.0114321
1366	0.0122695
1378	0.0150043
1390	0.0135945
1402	0.0081249
1414	0.0063176
1426	0.0058565
1438	0.0058989
1450	0.00742
1462	0.0078599
1474	0.0062169
1486	0.0035669
1498	0.0018391
1510	0.0011713
1522	0.0010017
1534	0.0009063
1546	0.0007844
1558	0.0006519
1570	0.000636
1582	0.0005936
1594	0.0006466
1606	0.0008586
1618	0.0013197
1630	0.0026129
1642	0.0033602
1654	0.0019398
1666	0.000689
1678	0.000424
1690	0.0003021
1702	0.000212
1714	0.0001431
1726	0.0001272
1738	5.83e-05
1750	5.83e-05
1762	0.0001113
1774	0.0001113
1786	0.0001696
1798	0.0002491
1810	0.0004346
1822	0.000848
1834	0.0014469
1846	0.0014575
1858	0.0008056
1870	0.000371
1882	0.0002862
1894	0.0002067
1906	0.000159
1918	0.0001219
1930	0.0001272
1942	0.0001643
1954	0.0001908
1966	0.0002438
1978	0.0002226
1990	0.0001802
2002	8.48e-05
2014	2.65e-05
2026	1.59e-05
2038	2.12e-05
2050	3.18e-05
2062	4.24e-05
2074	7.42e-05
2086	4.77e-05
2098	5.3e-05
2110	6.89e-05
2122	4.77e-05
2134	4.24e-05
2146	7.42e-05
2158	4.77e-05
2170	5.83e-05
2182	8.48e-05
2194	7.42e-05
2206	6.36e-05
2218	3.18e-05
2230	4.77e-05
2242	9.54e-05
2254	0.0001166
2266	0.0001007
2278	9.54e-05
2290	7.95e-05
2302	5.3e-05
2314	4.77e-05
2326	5.3e-05
2338	9.54e-05
2350	0.0001272
2362	0.0001749
2374	0.0001961
2386	0.0002226
2398	0.0002438
2410	0.0002597
2422	0.0002756
2434	0.0002491
2446	0.0002544
2458	0.0001802
2470	0.0002226
2482	0.0001961
2494	0.0001961
2506	0.0002915
2518	0.0003392
2530	0.0004187
2542	0.0005565
2554	0.0006943
2566	0.0008268
2578	0.0009275
2590	0.0010017
2602	0.0010706
2614	0.0011819
2626	0.001431
2638	0.0017225
2650	0.0020352
2662	0.0023744
2674	0.0028408
2686	0.003392
2698	0.0040916
2710	0.0048548
2722	0.0055173
2734	0.0062222
2746	0.0073564
2758	0.0093916
2770	0.0123596
2782	0.0179458
2794	0.0265318
2806	0.0325844
2818	0.0306393
2830	0.0234419
2842	0.016536
2854	0.0130168
2866	0.013939
2878	0.0180836
2890	0.0201347
2902	0.0205269
2914	0.0232299
2926	0.0297383
2938	0.0357962
2950	0.0340207
2962	0.0375876
2974	0.0524276
2986	0.0431738
2998	0.020405
3010	0.0110823
3022	0.0078016
3034	0.0053371
3046	0.0045898
3058	0.0051304
3070	0.0069748
3082	0.0093386
3094	0.0071762
3106	0.0033602
3118	0.0018603
3130	0.0014628
3142	0.0012826
3154	0.0011501
3166	0.0009911
3178	0.0008268
3190	0.0006201
3202	0.0005194
3214	0.0004558
3226	0.0004028
3238	0.0003763
3250	0.0003604
3262	0.0002385
3274	0.0003021
3286	0.0002438
3298	0.0001802
3310	0.0001749
3322	0.0001749
3334	0.0001802
3346	0.0002173
3358	0.0001749
3370	0.0001378
3382	0.0001696
3394	0.000106
3406	9.01e-05
3418	0.0001378
3430	0.0001272
3442	0.0001749
3454	0.0001643
3466	0.0001325
3478	8.48e-05
3490	8.48e-05
3502	0.0001378
3514	0.0001113
3526	0.0001007
3538	0.0001113
3550	9.54e-05
3562	0.000106
3574	9.54e-05
3586	0.0001431
3598	0.0001272
3610	0.0002067
3622	0.0001325
3634	0.0001537
3646	0.0001113
3658	0.0001908
3670	0.0001908
3682	0.0002279
3694	0.000265
3706	0.000265
3718	0.0002226
3730	0.0001908
3742	0.0002544
3754	0.0002067
3766	0.0002226
3778	0.0002597
3790	0.0003021
3802	0.0002809
3814	0.0002703
3826	0.0002968
3838	0.0003445
