Infrared Spectrum: Oxadiazole, 1,2,4-, 5-(3-chlorophenyl)-3-(5-nitrofuran-2-yl)-
Formula: C12 H6 Cl N3 O4
CAS: 5671-09-0
State: SOLID (NUJOL MULL)
Melting point: 149 C
Class: COBLENTZ III
Instrument: PERKIN-ELMER 21 (GRATING)
Instrument parameters: NaCl PRISM; FILTER AT 10 MICRON
Sampling: TRANSMISSION
Resolution: 2
Origin: ABBOTT LABORATORIES - WASHBURN
1/CM	TRANSMITTANCE
654	0.7576
663	0.7406
672	0.5062
681	0.8138
690	0.8327
699	0.8307
708	0.7209
717	0.7938
726	0.8077
735	0.7215
744	0.7975
753	0.1326
762	0.8214
771	0.62
780	0.8217
789	0.788
798	0.8387
807	0.7632
816	0.5347
825	0.7859
834	0.8897
843	0.9104
852	0.9028
861	0.8983
870	0.8895
879	0.8666
888	0.796
897	0.7868
906	0.5591
915	0.83
924	0.8277
933	0.7805
942	0.8508
951	0.8382
960	0.7872
969	0.6966
978	0.6535
987	0.8521
996	0.7531
1005	0.78
1014	0.4108
1023	0.8139
1032	0.8304
1041	0.8274
1050	0.8245
1059	0.8198
1068	0.7962
1077	0.7567
1086	0.7153
1095	0.7971
1104	0.7585
1113	0.8092
1122	0.8233
1131	0.8184
1140	0.8021
1149	0.7803
1158	0.7947
1167	0.7851
1176	0.7804
1185	0.6928
1194	0.7902
1203	0.7867
1212	0.7846
1221	0.7724
1230	0.7577
1239	0.5457
1248	0.7523
1257	0.7387
1266	0.5874
1275	0.5882
1284	0.6828
1293	0.6713
1302	0.5516
1311	0.4948
1320	0.4475
1329	0.1627
1338	0.3495
1347	0.1432
1356	0.0989
1365	0.3774
1374	0.4036
1383	0.5839
1392	0.5937
1401	0.387
1410	0.6351
1419	0.658
1428	0.5676
1437	0.3475
1446	0.2832
1455	0.2825
1464	0.2805
1473	0.5608
1482	0.6596
1491	0.6742
1500	0.5021
1509	0.2309
1518	0.4098
1527	0.6348
1536	0.5859
1545	0.3101
1554	0.4125
1563	0.6086
1572	0.7652
1581	0.7396
1590	0.7206
1599	0.7442
1608	0.6124
1617	0.8073
1626	0.8245
1635	0.826
1644	0.8186
1653	0.8136
1662	0.8206
1671	0.8366
1680	0.8403
1689	0.8447
1698	0.8513
1707	0.8521
1716	0.8532
1725	0.864
1734	0.8684
1743	0.8675
1752	0.8667
1761	0.8647
1770	0.8606
1779	0.8508
1788	0.8406
1797	0.8525
1806	0.8691
1815	0.8698
1824	0.8697
1833	0.8699
1842	0.8705
1851	0.8711
1860	0.8714
1869	0.8706
1878	0.8677
1887	0.8634
1896	0.8645
1905	0.8684
1914	0.8677
1923	0.8661
1932	0.8627
1941	0.8602
1950	0.8586
1959	0.8594
1968	0.8627
1977	0.8602
1986	0.8556
1995	0.8519
2004	0.8511
2013	0.8497
2022	0.8491
2031	0.8493
2040	0.8506
2049	0.8494
2058	0.8472
2067	0.8453
2076	0.8437
2085	0.8425
2094	0.8413
2103	0.8398
2112	0.8382
2121	0.8373
2130	0.8366
2139	0.8339
2148	0.831
2157	0.8281
2166	0.8272
2175	0.8271
2184	0.8272
2193	0.8268
2202	0.8244
2211	0.8211
2220	0.817
2229	0.8155
2238	0.8149
2247	0.8152
2256	0.8142
2265	0.8102
2274	0.8045
2283	0.7983
2292	0.7924
2301	0.7853
2310	0.7813
2319	0.7818
2328	0.7827
2337	0.7833
2346	0.7839
2355	0.7843
2364	0.7846
2373	0.7846
2382	0.7843
2391	0.7841
2400	0.7833
2409	0.7823
2418	0.7809
2427	0.7795
2436	0.7784
2445	0.7776
2454	0.7754
2463	0.7736
2472	0.7715
2481	0.7693
2490	0.7653
2499	0.7614
2508	0.7574
2517	0.7529
2526	0.748
2535	0.7433
2544	0.7386
2553	0.734
2562	0.7293
2571	0.7244
2580	0.7216
2589	0.7194
2598	0.7174
2607	0.7157
2616	0.7126
2625	0.7074
2634	0.7017
2643	0.6971
2652	0.6927
2661	0.6893
2670	0.6862
2679	0.6828
2688	0.68
2697	0.6784
2706	0.6768
2715	0.6753
2724	0.6731
2733	0.6698
2742	0.6654
2751	0.6589
2760	0.6509
2769	0.6404
2778	0.6202
2787	0.5965
2796	0.5717
2805	0.5406
2814	0.4901
2823	0.3671
2832	0.2448
2841	0.1237
2850	0.0787
2859	0.0718
2868	0.0701
2877	0.0685
2886	0.0432
2895	0.0233
2904	0.0229
2913	0.0243
2922	0.0274
2931	0.0352
2940	0.063
2949	0.0994
2958	0.1198
2967	0.1794
2976	0.3057
2985	0.4312
2994	0.4807
3003	0.5093
3012	0.5384
3021	0.5642
3030	0.5781
3039	0.587
3048	0.5878
3057	0.5875
3066	0.5862
3075	0.5858
3084	0.5866
3093	0.5888
3102	0.5902
3111	0.5895
3120	0.587
3129	0.5858
3138	0.5895
3147	0.5972
3156	0.6098
3165	0.6223
3174	0.6326
3183	0.6443
3192	0.6518
3201	0.6548
3210	0.6569
3219	0.6579
3228	0.6584
3237	0.6586
3246	0.6586
3255	0.6585
3264	0.6577
3273	0.6564
3282	0.6545
3291	0.6523
3300	0.65
3309	0.6475
3318	0.645
3327	0.6424
3336	0.6395
3345	0.6365
3354	0.6343
3363	0.6323
3372	0.6304
3381	0.6297
3390	0.6295
3399	0.6292
3408	0.6291
3417	0.6292
3426	0.6294
3435	0.6296
3444	0.6298
3453	0.6299
3462	0.6302
3471	0.6308
3480	0.6312
3489	0.6317
3498	0.6322
3507	0.6326
3516	0.633
3525	0.6333
3534	0.6328
3543	0.6319
3552	0.6311
3561	0.6303
3570	0.6295
3579	0.6286
3588	0.6278
3597	0.6269
3606	0.6259
3615	0.6233
3624	0.6192
3633	0.6168
3642	0.6157
3651	0.6148
3660	0.6145
3669	0.6141
3678	0.6137
3687	0.6133
3696	0.6126
3705	0.6116
3714	0.6107
3723	0.6095
3732	0.608
3741	0.6065
3750	0.6052
3759	0.6041
3768	0.6029
3777	0.6018
3786	0.6006
3795	0.5994
3804	0.5982
3813	0.5971
3822	0.5959
3831	0.5947
3840	0.5934
3849	0.5921
3858	0.5909
3867	0.5895
3876	0.5884
3885	0.5875
3894	0.5865
3903	0.5855
3912	0.5845
3921	0.5836
3930	0.5826
3939	0.5816
3948	0.5807
3957	0.5797
3966	0.5788
3975	0.5778
3984	0.5769
3993	0.5759
