Infrared Spectrum: Oxadiazole, 1,2,4-, 5-(dichloromethyl)-3-(5-nitrofuran-2-yl)-
Formula: C7 H3 Cl2 N3 O4
CAS: 5671-14-7
State: SOLUTION (7% CHCl3) VS SOLVENT
Class: COBLENTZ III
Instrument: PERKIN-ELMER 421 (GRATING)
Instrument parameters: GRATINGS: 1999 CM^-^1
Sampling: TRANSMISSION
Path length: 0.01 CM
Resolution: 2
Origin: ABBOTT LABORATORIES - WASHBURN
1/CM	TRANSMITTANCE
650	0.7933
659	0.7767
668	0.7738
677	0.7517
686	0.6826
695	0.5705
704	0.431
713	0.3543
722	0.3354
731	0.3368
740	0.3347
749	0.3308
758	0.3311
767	0.3322
776	0.3329
785	0.3314
794	0.3238
803	0.2783
812	0.4405
821	0.7176
830	0.8139
839	0.8341
848	0.8222
857	0.807
866	0.8021
875	0.7783
884	0.7184
893	0.4779
902	0.4774
911	0.6937
920	0.8064
929	0.8158
938	0.8073
947	0.7857
956	0.7046
965	0.6656
974	0.7472
983	0.6888
992	0.7442
1001	0.6511
1010	0.3775
1019	0.7446
1028	0.7889
1037	0.7939
1046	0.7943
1055	0.7948
1064	0.7945
1073	0.7935
1082	0.7919
1091	0.7899
1100	0.7873
1109	0.7774
1118	0.7625
1127	0.7292
1136	0.7437
1145	0.7946
1154	0.7865
1163	0.7396
1172	0.7262
1181	0.6807
1190	0.5852
1199	0.5423
1208	0.5473
1217	0.5541
1226	0.5381
1235	0.5119
1244	0.7633
1253	0.7627
1262	0.7413
1271	0.692
1280	0.5329
1289	0.4693
1298	0.4239
1307	0.3071
1316	0.2775
1325	0.1777
1334	0.2107
1343	0.0229
1352	0.1709
1361	0.4855
1370	0.3005
1379	0.6437
1388	0.6769
1397	0.4916
1406	0.5667
1415	0.7342
1424	0.7538
1433	0.7965
1442	0.7825
1451	0.7566
1460	0.7723
1469	0.8046
1478	0.7776
1487	0.6887
1496	0.5081
1505	0.3691
1514	0.2439
1523	0.4877
1532	0.4813
1541	0.3978
1550	0.3352
1559	0.4908
1568	0.4237
1577	0.5715
1586	0.6845
1595	0.6823
1604	0.6526
1613	0.7333
1622	0.7786
1631	0.796
1640	0.8067
1649	0.8098
1658	0.8191
1667	0.8171
1676	0.8142
1685	0.8128
1694	0.8167
1703	0.8192
1712	0.8265
1721	0.8271
1730	0.8225
1739	0.8202
1748	0.8192
1757	0.8139
1766	0.8286
1775	0.8381
1784	0.8499
1793	0.8555
1802	0.8569
1811	0.8587
1820	0.8561
1829	0.8565
1838	0.8609
1847	0.8593
1856	0.8633
1865	0.8649
1874	0.8656
1883	0.8655
1892	0.8652
1901	0.8648
1910	0.8641
1919	0.8638
1928	0.8664
1937	0.8673
1946	0.8661
1955	0.8629
1964	0.8645
1973	0.8673
1982	0.857
1991	0.8537
2000	0.8594
2009	0.8592
2018	0.8589
2027	0.8579
2036	0.8589
2045	0.8632
2054	0.864
2063	0.8634
2072	0.865
2081	0.8658
2090	0.8668
2099	0.8682
2108	0.8693
2117	0.868
2126	0.8664
2135	0.8645
2144	0.8629
2153	0.8625
2162	0.8624
2171	0.8632
2180	0.8634
2189	0.8623
2198	0.8617
2207	0.8629
2216	0.8655
2225	0.869
2234	0.8685
2243	0.8639
2252	0.8627
2261	0.8637
2270	0.8655
2279	0.8668
2288	0.8683
2297	0.8706
2306	0.8714
2315	0.8714
2324	0.8716
2333	0.8716
2342	0.8709
2351	0.8761
2360	0.8831
2369	0.8881
2378	0.8971
2387	0.9056
2396	0.901
2405	0.8842
2414	0.8748
2423	0.8701
2432	0.8694
2441	0.8649
2450	0.8604
2459	0.8573
2468	0.8548
2477	0.8527
2486	0.8502
2495	0.8531
2504	0.8537
2513	0.8537
2522	0.8536
2531	0.8535
2540	0.8537
2549	0.854
2558	0.8539
2567	0.8541
2576	0.8568
2585	0.8618
2594	0.8614
2603	0.86
2612	0.8592
2621	0.8576
2630	0.8561
2639	0.8548
2648	0.8534
2657	0.8527
2666	0.8559
2675	0.8578
2684	0.857
2693	0.8563
2702	0.8566
2711	0.8583
2720	0.8607
2729	0.8607
2738	0.8591
2747	0.8559
2756	0.8544
2765	0.8574
2774	0.8601
2783	0.8609
2792	0.8621
2801	0.8685
2810	0.8696
2819	0.8731
2828	0.878
2837	0.8802
2846	0.8775
2855	0.872
2864	0.8728
2873	0.8751
2882	0.8751
2891	0.875
2900	0.8862
2909	0.9111
2918	0.916
2927	0.9113
2936	0.9144
2945	0.9187
2954	0.9049
2963	0.8799
2972	0.8487
2981	0.826
2990	0.8093
2999	0.8269
3008	0.8548
3017	0.8514
3026	0.8547
3035	0.8745
3044	0.884
3053	0.8852
3062	0.8831
3071	0.8764
3080	0.8723
3089	0.867
3098	0.8588
3107	0.8469
3116	0.8276
3125	0.7573
3134	0.7163
3143	0.7008
3152	0.8289
3161	0.85
3170	0.8556
3179	0.8583
3188	0.8603
3197	0.862
3206	0.8639
3215	0.8652
3224	0.8665
3233	0.8695
3242	0.8725
3251	0.8733
3260	0.873
3269	0.8728
3278	0.8728
3287	0.8727
3296	0.8722
3305	0.8718
3314	0.8712
3323	0.8705
3332	0.8698
3341	0.8689
3350	0.867
3359	0.8652
3368	0.8633
3377	0.8608
3386	0.8587
3395	0.8599
3404	0.8653
3413	0.8707
3422	0.8711
3431	0.8711
3440	0.8709
3449	0.8709
3458	0.8698
3467	0.8655
3476	0.862
3485	0.8609
3494	0.8602
3503	0.86
3512	0.862
3521	0.8678
3530	0.8703
3539	0.8702
3548	0.8698
3557	0.87
3566	0.8707
3575	0.8714
3584	0.8735
3593	0.8774
3602	0.8831
3611	0.8841
3620	0.8831
3629	0.882
3638	0.881
3647	0.8807
3656	0.8783
3665	0.8827
3674	0.8857
3683	0.8804
3692	0.8804
3701	0.8809
3710	0.8812
3719	0.8814
3728	0.8817
3737	0.8829
3746	0.8855
3755	0.8858
3764	0.8852
3773	0.8842
3782	0.8837
3791	0.8835
3800	0.8835
3809	0.8855
3818	0.8853
3827	0.8823
3836	0.8822
3845	0.884
3854	0.8836
3863	0.8812
3872	0.8812
3881	0.8817
3890	0.8822
3899	0.8828
3908	0.8829
3917	0.8832
3926	0.8865
3935	0.8827
3944	0.8812
3953	0.8809
3962	0.8807
3971	0.8823
3980	0.883
3989	0.8841
3998	0.8851
