Infrared Spectrum: 3,5-Dimethyl-2,4,6-tribromophenol
Formula: C 8 H 7 Br 3 O
CAS: 56759-60-5
State: gas
Origin: EPA-IR VAPOR PHASE LIBRARY
1/CM	ABSORBANCE
549.9	0.0007061
559.547	0.0009152
569.193	0.0011322
578.84	0.002128
588.486	0.0011242
598.133	0.0012919
607.779	0.003068
617.426	0.002348
627.072	0.0012181
636.719	0.002208
646.365	0.007678
656.012	0.026198
665.658	0.016638
675.305	0.008508
684.951	0.004198
694.598	0.003158
704.245	0.002138
713.891	0.002158
723.538	0.001828
733.184	0.001738
742.831	0.0013013
752.477	0.0008231
762.124	0.0008043
771.77	0.0008583
781.417	0.001475
791.063	0.002388
800.71	0.001678
810.356	0.0006808
820.003	0.000315
829.649	0.00024
839.296	0.000255
848.943	0.000287
858.589	0.000353
868.236	0.0004516
877.882	0.0006801
887.529	0.0006812
897.175	0.0007319
906.822	0.0010973
916.468	0.0010667
926.115	0.001277
935.761	0.001598
945.408	0.002278
955.054	0.004498
964.701	0.006788
974.347	0.014978
983.994	0.009538
993.64	0.002988
1003.29	0.001828
1012.93	0.001728
1022.58	0.002088
1032.23	0.002168
1041.87	0.003158
1051.52	0.005988
1061.17	0.007078
1070.81	0.007488
1080.46	0.004488
1090.11	0.002528
1099.75	0.001497
1109.4	0.001329
1119.05	0.001768
1128.69	0.001848
1138.34	0.0008237
1147.99	0.0007665
1157.63	0.000842
1167.28	0.00142
1176.92	0.002418
1186.57	0.006168
1196.22	0.024838
1205.86	0.041068
1215.51	0.008828
1225.16	0.002018
1234.8	0.001738
1244.45	0.002158
1254.1	0.003448
1263.74	0.009238
1273.39	0.027808
1283.04	0.032888
1292.68	0.007178
1302.33	0.002648
1311.98	0.003188
1321.62	0.003748
1331.27	0.004358
1340.92	0.004138
1350.56	0.005228
1360.21	0.009648
1369.86	0.022468
1379.5	0.044178
1389.15	0.037638
1398.79	0.018558
1408.44	0.013008
1418.09	0.011498
1427.73	0.010238
1437.38	0.008038
1447.03	0.006318
1456.67	0.005638
1466.32	0.005198
1475.97	0.005068
1485.61	0.004788
1495.26	0.003938
1504.91	0.003548
1514.55	0.003398
1524.2	0.003878
1533.85	0.004808
1543.49	0.004848
1553.14	0.003358
1562.79	0.002198
1572.43	0.0012779
1582.08	0.0008532
1591.73	0.0006879
1601.37	0.000663
1611.02	0.0006331
1620.67	0.0006478
1630.31	0.00058977
1639.96	0.00056228
1649.6	0.0004752
1659.25	0.000329
1668.9	0.000246
1678.54	0.000169
1688.19	0.000239
1697.84	0.000236
1707.48	0.000153
1717.13	0.000152
1726.78	9.3e-05
1736.42	0.000104
1746.07	0.000133
1755.72	0.000182
1765.36	0.000159
1775.01	0.000133
1784.66	5.9e-05
1794.3	0.000119
1803.95	4.2e-05
1813.6	1e-06
1823.24	7.3e-05
1832.89	4.5e-05
1842.54	6.6e-05
1852.18	3.4e-05
1861.83	8.6e-05
1871.47	8.6e-05
1881.12	0.000102
1890.77	1e-05
1900.41	1.1e-05
1910.06	2.9e-05
1919.71	5.8e-05
1929.35	8.5e-05
1939	0.000121
1948.65	0.000222
1958.29	0.000186
1967.94	0.000232
1977.59	0.00014
1987.23	0.000162
1996.88	0.000156
2006.53	0.000192
2016.17	0.000172
2025.82	0.000189
2035.47	0.000177
2045.11	0.000265
2054.76	0.000259
2064.41	0.000241
2074.05	0.000225
2083.7	0.000218
2093.35	0.000246
2102.99	0.000203
2112.64	0.000291
2122.28	0.00026
2131.93	0.000281
2141.58	0.000227
2151.22	0.000259
2160.87	0.000247
2170.52	0.000209
2180.16	0.000197
2189.81	0.000206
2199.46	0.000225
2209.1	0.000242
2218.75	0.000238
2228.4	0.000266
2238.04	0.000241
2247.69	0.0003
2257.34	0.000359
2266.98	0.000392
2276.63	0.000306
2286.28	0.000332
2295.92	0.000359
2305.57	0.000363
2315.22	0.000321
2324.86	0.0004586
2334.51	0.0004931
2344.16	0.0004553
2353.8	0.00049636
2363.45	0.0006183
2373.09	0.00051719
2382.74	0.000452
2392.39	0.00053634
2402.03	0.000734
2411.68	0.0007327
2421.33	0.00059633
2430.97	0.0006147
2440.62	0.00054369
2450.27	0.00056228
2459.91	0.00053856
2469.56	0.00051836
2479.21	0.00059285
2488.85	0.00048802
2498.5	0.0004852
2508.15	0.0004461
2517.79	0.00049125
2527.44	0.0004856
2537.09	0.0004847
2546.73	0.000505674
2556.38	0.00050097
2566.03	0.00049138
2575.67	0.0006175
2585.32	0.0006003
2594.96	0.0006915
2604.61	0.0006493
2614.26	0.0007355
2623.9	0.00057184
2633.55	0.00054943
2643.2	0.00059278
2652.84	0.0006126
2662.49	0.0006004
2672.14	0.0006155
2681.78	0.00054422
2691.43	0.00057368
2701.08	0.0006523
2710.72	0.0006676
2720.37	0.0006586
2730.02	0.0006936
2739.66	0.0007716
2749.31	0.0009454
2758.96	0.0008001
2768.6	0.0006581
2778.25	0.0005954
2787.9	0.0006973
2797.54	0.0007946
2807.19	0.0007698
2816.84	0.0009083
2826.48	0.0008453
2836.13	0.0010163
2845.77	0.0010807
2855.42	0.001491
2865.07	0.001708
2874.71	0.001848
2884.36	0.001728
2894.01	0.001508
2903.65	0.001508
2913.3	0.002078
2922.95	0.002758
2932.59	0.004338
2942.24	0.005778
2951.89	0.004668
2961.53	0.003608
2971.18	0.002628
2980.83	0.001888
2990.47	0.001528
3000.12	0.001538
3009.77	0.001608
3019.41	0.001608
3029.06	0.001758
3038.71	0.001738
3048.35	0.001658
3058	0.001608
3067.64	0.0014412
3077.29	0.0011235
3086.94	0.0007811
3096.58	0.000845
3106.23	0.0007647
3115.88	0.0008553
3125.52	0.0007823
3135.17	0.0006182
3144.82	0.00059679
3154.46	0.0006572
3164.11	0.00059206
3173.76	0.000369
3183.4	0.000362
3193.05	0.0004136
3202.7	0.000373
3212.34	0.000332
3221.99	0.0004627
3231.64	0.00031
3241.28	0.000291
3250.93	0.0006055
3260.58	0.000368
3270.22	0.000294
3279.87	0.000345
3289.52	0.000302
3299.16	0.000187
3308.81	0.000195
3318.45	9e-05
3328.1	0.000243
3337.75	0.000262
3347.39	0.00033
3357.04	0.000221
3366.69	0.000266
3376.33	0.000239
3385.98	0.000245
3395.63	0.000179
3405.27	0.00033
3414.92	0.000382
3424.57	3.6e-05
3434.21	7.8e-05
3443.86	0.000122
3453.51	0.000153
3463.15	0.000133
3472.8	0.000239
3482.45	0.00026
3492.09	0.000385
3501.74	0.0006641
3511.39	0.0012838
3521.03	0.005568
3530.68	0.039868
3540.33	0.031238
3549.97	0.012778
3559.62	0.003838
3569.26	0.0011735
3578.91	0.0008435
3588.56	0.0007091
3598.2	0.0004283
3607.85	0.000316
3617.5	0.000292
3627.14	0.000263
3636.79	0.000277
3646.44	0.00021
3656.08	0.000263
3665.73	0.0004566
3675.38	0.000264
3685.02	0.000325
3694.67	0.00026
3704.32	0.000162
3713.96	0.000329
3723.61	0.000241
3733.26	0.000366
3742.9	0.0004672
3752.55	0.000133
3762.2	0.000343
3771.84	0.00032
3781.49	0.000346
3791.13	0.000308
3800.78	0.000371
3810.43	0.0004821
3820.07	0.000533
3829.72	0.0004837
3839.37	0.000326
3849.01	0.0004338
3858.66	0.000374
3868.31	0.000422
3877.95	0.0004423
3887.6	0.00053401
3897.25	0.0004582
3906.89	0.000632
3916.54	0.00058613
3926.19	0.0006598
3935.83	0.00055164
3945.48	0.000498835
3955.13	0.0006179
3964.77	0.0004688
3974.42	0.0004224
3984.07	0.0004745
3993.71	0.0004054
