Infrared Spectrum: 1,12-DODECANEDIOL
Formula: C12 H26 O2
CAS: 5675-51-4
State: SOLID (NUJOL MULL)
Class: COBLENTZ
Instrument: Not specified, most likely a grating spectrometer.
Sampling: TRANSMISSION
Resolution: 4
Origin: US INDUSTRIAL CHEMICALS COMPANY, CINCINNATI, OHIO
MICROMETERS	TRANSMITTANCE
2.007	0.724
2.04788	0.729
2.08875	0.736
2.12963	0.744
2.1705	0.741
2.21138	0.724
2.25226	0.71
2.29313	0.719
2.33401	0.731
2.37488	0.738
2.41576	0.751
2.45664	0.773
2.49751	0.78
2.53839	0.784
2.57927	0.804
2.62014	0.821
2.66102	0.833
2.70189	0.857
2.74277	0.874
2.78365	0.882
2.82452	0.809
2.8654	0.642
2.90627	0.336
2.94715	0.222
2.98803	0.197
3.0289	0.318
3.06978	0.428
3.11065	0.517
3.15153	0.583
3.19241	0.63
3.23328	0.642
3.27416	0.62
3.31504	0.569
3.35591	0.295
3.39679	0.028
3.43766	0.001
3.47854	0.03
3.51942	0.025
3.56029	0.389
3.60117	0.574
3.64204	0.625
3.68292	0.637
3.7238	0.664
3.76467	0.678
3.80555	0.705
3.84642	0.727
3.8873	0.755
3.92818	0.773
3.96905	0.785
4.00993	0.795
4.0508	0.801
4.09168	0.807
4.13256	0.812
4.17343	0.819
4.21431	0.829
4.25519	0.838
4.29606	0.843
4.33694	0.848
4.37781	0.86
4.41869	0.869
4.45957	0.874
4.50044	0.875
4.54132	0.877
4.58219	0.886
4.62307	0.889
4.66395	0.889
4.70482	0.889
4.7457	0.889
4.78657	0.887
4.82745	0.886
4.86833	0.886
4.9092	0.886
4.95008	0.887
4.99096	0.896
5.03183	0.904
5.07271	0.906
5.11358	0.908
5.15446	0.911
5.19534	0.913
5.23621	0.914
5.27709	0.918
5.31796	0.92
5.35884	0.921
5.39972	0.923
5.44059	0.925
5.48147	0.926
5.52234	0.928
5.56322	0.931
5.6041	0.935
5.64497	0.937
5.68585	0.937
5.72672	0.937
5.7676	0.938
5.80848	0.94
5.84935	0.94
5.89023	0.94
5.93111	0.94
5.97198	0.94
6.01286	0.94
6.05373	0.94
6.09461	0.94
6.13549	0.94
6.17636	0.943
6.21724	0.943
6.25811	0.947
6.29899	0.948
6.33987	0.95
6.38074	0.948
6.42162	0.947
6.46249	0.942
6.50337	0.938
6.54425	0.935
6.58512	0.93
6.626	0.918
6.66688	0.892
6.70775	0.772
6.74863	0.547
6.7895	0.379
6.83038	0.09
6.87126	0.258
6.91213	0.477
6.95301	0.673
6.99388	0.818
7.03476	0.874
7.07564	0.891
7.11651	0.877
7.15739	0.818
7.19826	0.62
7.23914	0.414
7.28002	0.387
7.32089	0.377
7.36177	0.518
7.40264	0.389
7.44352	0.568
7.4844	0.67
7.52527	0.734
7.56615	0.768
7.60703	0.727
7.6479	0.715
7.68878	0.758
7.72965	0.765
7.77053	0.79
7.81141	0.818
7.85228	0.823
7.89316	0.835
7.93403	0.848
7.97491	0.848
8.01579	0.836
8.05666	0.835
8.09754	0.846
8.13841	0.846
8.17929	0.85
8.22017	0.86
8.26104	0.858
8.30192	0.86
8.3428	0.853
8.38367	0.857
8.42455	0.867
8.46542	0.848
8.5063	0.858
8.54718	0.853
8.58805	0.867
8.62893	0.874
8.6698	0.877
8.71068	0.884
8.75156	0.894
8.79243	0.899
8.83331	0.911
8.87418	0.911
8.91506	0.911
8.95594	0.916
8.99681	0.916
9.03769	0.923
9.07856	0.904
9.11944	0.896
9.16032	0.877
9.20119	0.845
9.24207	0.782
9.28295	0.69
9.32382	0.596
9.3647	0.465
9.40557	0.37
9.44645	0.316
9.48733	0.503
9.5282	0.508
9.56908	0.278
9.60995	0.272
9.65083	0.455
9.69171	0.585
9.73258	0.675
9.77346	0.724
9.81433	0.772
9.85521	0.804
9.89609	0.838
9.93696	0.853
9.97784	0.86
10.0187	0.661
10.0596	0.326
10.1005	0.352
10.1413	0.561
10.1822	0.647
10.2231	0.697
10.264	0.738
10.3048	0.767
10.3457	0.784
10.3866	0.799
10.4275	0.807
10.4684	0.826
10.5092	0.835
10.5501	0.845
10.591	0.853
10.6319	0.863
10.6727	0.874
10.7136	0.879
10.7545	0.884
10.7954	0.887
10.8362	0.891
10.8771	0.897
10.918	0.899
10.9589	0.904
10.9997	0.908
11.0406	0.911
11.0815	0.913
11.1224	0.913
11.1632	0.913
11.2041	0.914
11.245	0.918
11.2859	0.921
11.3268	0.925
11.3676	0.926
11.4085	0.933
11.4494	0.935
11.4903	0.937
11.5311	0.937
11.572	0.937
11.6129	0.935
11.6538	0.933
11.6946	0.931
11.7355	0.928
11.7764	0.926
11.8173	0.92
11.8581	0.914
11.899	0.92
11.9399	0.928
11.9808	0.93
12.0216	0.938
12.0625	0.933
12.1034	0.937
12.1443	0.942
12.1851	0.94
12.226	0.935
12.2669	0.937
12.3078	0.937
12.3487	0.937
12.3895	0.938
12.4304	0.931
12.4713	0.937
12.5122	0.937
12.553	0.94
12.5939	0.938
12.6348	0.935
12.6757	0.938
12.7165	0.935
12.7574	0.938
12.7983	0.947
12.8392	0.945
12.88	0.937
12.9209	0.933
12.9618	0.933
13.0027	0.943
13.0435	0.948
13.0844	0.95
13.1253	0.945
13.1662	0.948
13.2071	0.945
13.2479	0.942
13.2888	0.938
13.3297	0.935
13.3706	0.925
13.4114	0.909
13.4523	0.882
13.4932	0.838
13.5341	0.816
13.5749	0.811
13.6158	0.784
13.6567	0.724
13.6976	0.724
13.7384	0.758
13.7793	0.792
13.8202	0.819
13.8611	0.848
13.9019	0.87
13.9428	0.889
13.9837	0.906
14.0246	0.921
14.0654	0.931
14.1063	0.938
14.1472	0.945
14.1881	0.95
14.229	0.959
14.2698	0.955
14.3107	0.959
14.3516	0.955
14.3925	0.957
14.4333	0.957
14.4742	0.955
14.5151	0.947
14.556	0.954
14.5968	0.954
14.6377	0.948
14.6786	0.945
14.7195	0.938
14.7603	0.938
14.8012	0.933
14.8421	0.926
14.883	0.925
14.9238	0.92
14.9647	0.916
15.0056	0.909
15.0465	0.903
15.0874	0.897
15.1282	0.891
15.1691	0.879
15.21	0.87
15.2509	0.869
15.2917	0.86
15.3326	0.853
15.3735	0.848
15.4144	0.838
15.4552	0.828
15.4961	0.819
15.537	0.812
15.5779	0.807
15.6187	0.785
15.6596	0.773
15.7005	0.765
15.7414	0.753
15.7822	0.753
15.8231	0.738
15.864	0.727
15.9049	0.726
15.9457	0.719
