Infrared Spectrum: 1,4 Octadiene
Formula: C 8 H 14
CAS: 5675-25-2
State: gas
Instrument: HP-GC/MS/IRD
Origin: NIST Mass Spectrometry Data Center
1/CM	ABSORBANCE
550	0.0009438
562	0.0006136
574	0.0007254
586	0.0010062
598	0.0009724
610	0.001222
622	0.0012064
634	0.001274
646	0.0011934
658	0.0011934
670	0.0015912
682	0.0022412
694	0.0034476
706	0.0044226
718	0.0041522
730	0.003003
742	0.001846
754	0.0011908
766	0.0007618
778	0.0004264
790	0.000195
802	0.0001378
814	0.0002288
826	0.0003146
838	0.0007176
850	0.0011544
862	0.0017368
874	0.0025038
886	0.003874
898	0.0061958
910	0.00884
922	0.0071968
934	0.0040638
946	0.0026234
958	0.0021502
970	0.0023608
982	0.0033254
994	0.0036894
1006	0.0028938
1018	0.0020696
1030	0.001547
1042	0.0013364
1054	0.0011674
1066	0.0011622
1078	0.001313
1090	0.0011362
1102	0.0008502
1114	0.0006916
1126	0.0005564
1138	0.0003276
1150	0.0001014
1162	5.98e-05
1174	3.12e-05
1186	7.54e-05
1198	0.0001456
1210	0.00026
1222	0.0003562
1234	0.0003614
1246	0.0005538
1258	0.0011388
1270	0.0016198
1282	0.0013286
1294	0.0008684
1306	0.0008112
1318	0.000884
1330	0.0011414
1342	0.0010244
1354	0.000702
1366	0.0008528
1378	0.0015496
1390	0.0023452
1402	0.0026884
1414	0.0024154
1426	0.0024752
1438	0.0030264
1450	0.0035334
1462	0.0035464
1474	0.0026598
1486	0.001508
1498	0.0008918
1510	0.0006006
1522	0.000442
1534	0.0003718
1546	0.000364
1558	0.0003432
1570	0.0003328
1582	0.0003848
1594	0.0005876
1606	0.000962
1618	0.001859
1630	0.0037284
1642	0.0043888
1654	0.0026442
1666	0.0014378
1678	0.0009386
1690	0.000689
1702	0.0005252
1714	0.0003614
1726	0.0002548
1738	0.0001586
1750	0.0001144
1762	9.88e-05
1774	0.0001352
1786	0.0001794
1798	0.0002704
1810	0.0004966
1822	0.000897
1834	0.001014
1846	0.0006864
1858	0.0004576
1870	0.000325
1882	0.000247
1894	0.000182
1906	0.0001482
1918	0.0001586
1930	0.0001482
1942	0.000143
1954	0.0001716
1966	0.0002132
1978	0.0002236
1990	0.000195
2002	0.0001638
2014	0.0001508
2026	0.0001742
2038	0.0001898
2050	0.0002106
2062	0.000182
2074	0.0001586
2086	0.0001586
2098	0.0001664
2110	0.0001378
2122	0.0001742
2134	0.000156
2146	0.0001768
2158	0.0001846
2170	0.0001612
2182	0.000182
2194	0.0001794
2206	0.0001768
2218	0.0001534
2230	0.0001664
2242	0.0001664
2254	0.0001534
2266	0.0001534
2278	0.0001612
2290	0.0001638
2302	0.0001638
2314	0.0001846
2326	0.000182
2338	0.0001768
2350	0.000182
2362	0.0002106
2374	0.0001846
2386	0.0002002
2398	0.0002002
2410	0.0001872
2422	0.0001898
2434	0.0001872
2446	0.0002106
2458	0.0001768
2470	0.0001794
2482	0.0001846
2494	0.0002132
2506	0.0002158
2518	0.00026
2530	0.0002496
2542	0.0002392
2554	0.000273
2566	0.0002756
2578	0.0002886
2590	0.0002704
2602	0.0002678
2614	0.0002704
2626	0.0003094
2638	0.0003198
2650	0.0003484
2662	0.0004004
2674	0.0003952
2686	0.0004264
2698	0.0005122
2710	0.000572
2722	0.000611
2734	0.0006682
2746	0.000689
2758	0.0007124
2770	0.0007878
2782	0.0009152
2794	0.0011752
2806	0.0015158
2818	0.002093
2830	0.0031408
2842	0.0047268
2854	0.0069706
2866	0.0101478
2878	0.0133354
2890	0.0135876
2902	0.0134472
2914	0.0155714
2926	0.0194038
2938	0.0229034
2950	0.0224744
2962	0.0247494
2974	0.024323
2986	0.0152386
2998	0.0117182
3010	0.0140712
3022	0.0136526
3034	0.0086216
3046	0.0047684
3058	0.0039676
3070	0.0044772
3082	0.0059462
3094	0.0052754
3106	0.0026494
3118	0.0015626
3130	0.0011414
3142	0.0008528
3154	0.0007332
3166	0.0006292
3178	0.0005226
3190	0.000494
3202	0.000455
3214	0.0003562
3226	0.0003354
3238	0.0003016
3250	0.0003536
3262	0.000325
3274	0.0003016
3286	0.00026
3298	0.00026
3310	0.0002236
3322	0.0002262
3334	0.000247
3346	0.0002288
3358	0.0002236
3370	0.0002288
3382	0.0001846
3394	0.0001638
3406	0.0002028
3418	0.000195
3430	0.0001638
3442	0.0001846
3454	0.0001664
3466	0.0001664
3478	0.000169
3490	0.0002054
3502	0.000156
3514	0.000169
3526	0.000182
3538	0.0001638
3550	0.000169
3562	0.0001742
3574	0.000143
3586	0.0001924
3598	0.0001638
3610	0.0001768
3622	0.0001768
3634	0.000169
3646	0.000169
3658	0.0001898
3670	0.0001898
3682	0.0002106
3694	0.0001586
3706	0.0002028
3718	0.0002028
3730	0.000169
3742	0.0002314
3754	0.0002236
3766	0.0001664
3778	0.0001716
3790	0.0002002
3802	0.0001768
3814	0.0002158
3826	0.0001872
3838	0.0002158
