Infrared Spectrum: 2,5-Dimethylbenzoxazole
Formula: C9 H9 N O
CAS: 5676-58-4
State: SOLUTION (10% CCl4 FOR 3800-1330, 10% CS2 FOR 1330-400 CM^-^1) VS SOLVENT
Class: COBLENTZ III
Instrument: DOW KBr FOREPRISM-GRATING
Instrument parameters: BLAZED AT 3.5, 12.0, 20.0 MICRON AND CHANGED AT 5.0, 7.5, 14.9 MICRON
Sampling: TRANSMISSION
Path length: 0.011 CM, 0.011 CM
Resolution: 2
Origin: DOW CHEMICAL COMPANY
1/CM	TRANSMITTANCE
3800	0.9807
3791	0.9809
3782	0.9814
3773	0.9817
3764	0.9823
3755	0.9838
3746	0.9853
3737	0.9852
3728	0.9825
3719	0.9783
3710	0.9751
3701	0.9746
3692	0.9647
3683	0.9416
3674	0.9511
3665	0.9606
3656	0.9658
3647	0.9684
3638	0.9695
3629	0.9692
3620	0.966
3611	0.9623
3602	0.9607
3593	0.96
3584	0.9589
3575	0.9533
3566	0.9471
3557	0.9421
3548	0.9378
3539	0.9341
3530	0.9305
3521	0.9271
3512	0.9237
3503	0.9202
3494	0.9162
3485	0.9106
3476	0.9051
3467	0.9021
3458	0.9
3449	0.8966
3440	0.8916
3431	0.8843
3422	0.8807
3413	0.8841
3404	0.8891
3395	0.894
3386	0.8988
3377	0.9034
3368	0.9071
3359	0.91
3350	0.9105
3341	0.9097
3332	0.9091
3323	0.9099
3314	0.911
3305	0.9124
3296	0.9138
3287	0.9146
3278	0.9151
3269	0.9155
3260	0.9157
3251	0.9155
3242	0.9147
3233	0.9139
3224	0.9135
3215	0.9117
3206	0.9084
3197	0.9049
3188	0.9071
3179	0.9105
3170	0.9097
3161	0.9055
3152	0.9013
3143	0.9009
3134	0.9037
3125	0.9038
3116	0.9028
3107	0.8881
3098	0.8663
3089	0.8609
3080	0.8574
3071	0.8454
3062	0.822
3053	0.7842
3044	0.7291
3035	0.7049
3026	0.7
3017	0.7286
3008	0.7569
2999	0.7664
2990	0.7644
2981	0.7199
2972	0.6553
2963	0.645
2954	0.6469
2945	0.6401
2936	0.5916
2927	0.4391
2918	0.5378
2909	0.6645
2900	0.7234
2891	0.7593
2882	0.774
2873	0.7486
2864	0.6533
2855	0.7284
2846	0.8064
2837	0.8543
2828	0.8774
2819	0.8916
2810	0.898
2801	0.9035
2792	0.9093
2783	0.915
2774	0.9218
2765	0.9287
2756	0.9271
2747	0.921
2738	0.9125
2729	0.9001
2720	0.9081
2711	0.9295
2702	0.932
2693	0.934
2684	0.9357
2675	0.938
2666	0.9401
2657	0.9416
2648	0.929
2639	0.9212
2630	0.9263
2621	0.9301
2612	0.9312
2603	0.9273
2594	0.9189
2585	0.9192
2576	0.9233
2567	0.9275
2558	0.9305
2549	0.9306
2540	0.9267
2531	0.9293
2522	0.9337
2513	0.935
2504	0.9335
2495	0.9332
2486	0.9378
2477	0.9415
2468	0.9411
2459	0.9368
2450	0.9318
2441	0.9311
2432	0.9337
2423	0.936
2414	0.936
2405	0.9371
2396	0.9402
2387	0.9447
2378	0.9492
2369	0.9537
2360	0.9583
2351	0.9634
2342	0.9689
2333	0.9755
2324	0.982
2315	0.9846
2306	0.9654
2297	0.9449
2288	0.9481
2279	0.9537
2270	0.9531
2261	0.9451
2252	0.9399
2243	0.944
2234	0.9497
2225	0.9541
2216	0.9539
2207	0.9527
2198	0.95
2189	0.9484
2180	0.9477
2171	0.9473
2162	0.9487
2153	0.9504
2144	0.9528
2135	0.9544
2126	0.9556
2117	0.9564
2108	0.9533
2099	0.949
2090	0.947
2081	0.9548
2072	0.958
2063	0.9454
2054	0.9443
2045	0.9487
2036	0.9509
2027	0.9523
2018	0.9528
2009	0.9535
2000	0.9538
1991	0.9539
1982	0.9537
1973	0.9531
1964	0.9435
1955	0.9446
1946	0.9509
1937	0.9558
1928	0.9567
1919	0.9542
1910	0.951
1901	0.9478
1892	0.9442
1883	0.9441
1874	0.9317
1865	0.8589
1856	0.8896
1847	0.9188
1838	0.9285
1829	0.9378
1820	0.9438
1811	0.934
1802	0.9113
1793	0.9378
1784	0.9506
1775	0.9423
1766	0.9288
1757	0.9046
1748	0.8618
1739	0.8378
1730	0.8288
1721	0.8036
1712	0.8663
1703	0.8639
1694	0.8625
1685	0.8868
1676	0.8888
1667	0.8775
1658	0.898
1649	0.9047
1640	0.8858
1631	0.5042
1622	0.5571
1613	0.5545
1604	0.5876
1595	0.607
1586	0.0316
1577	0.2495
1568	0.6448
1559	0.7944
1550	0.8157
1541	0.8293
1532	0.7811
1523	0.7985
1514	0.7898
1505	0.7721
1496	0.7415
1487	0.1736
1478	0.4242
1469	0.4237
1460	0.3759
1451	0.4018
1442	0.2764
1433	0.2612
1424	0.5304
1415	0.7064
1406	0.7539
1397	0.7764
1388	0.568
1379	0.6989
1370	0.7792
1361	0.8165
1352	0.8474
1343	0.8673
1334	0.8496
1325	0.7235
1316	0.7996
1307	0.8432
1298	0.8242
1289	0.7215
1280	0.525
1271	0.0945
1262	0.02
1253	0.5577
1244	0.6724
1235	0.7144
1226	0.8048
1217	0.8392
1208	0.7818
1199	0.7804
1190	0.4137
1181	0.1465
1172	0.5194
1163	0.7942
1154	0.8668
1145	0.8874
1136	0.8663
1127	0.8331
1118	0.6681
1109	0.8821
1100	0.9028
1091	0.9093
1082	0.9067
1073	0.8995
1064	0.8852
1055	0.8611
1046	0.7469
1037	0.6476
1028	0.786
1019	0.824
1010	0.8561
1001	0.8412
992	0.8418
983	0.8883
974	0.908
965	0.9114
956	0.9044
947	0.8213
938	0.7218
929	0.477
920	0.2154
911	0.6775
902	0.8671
893	0.9012
884	0.8967
875	0.7851
866	0.5653
857	0.6469
848	0.8031
839	0.3104
830	0.8791
821	0.9075
812	0.8156
803	0.1849
794	0.3864
785	0.8818
776	0.9421
767	0.6939
758	0.9432
749	0.9777
740	0.9856
731	0.9921
722	0.9938
713	0.9967
704	1.0033
695	1.0023
686	1.0017
677	0.9842
668	1.0024
659	0.979
650	0.9192
641	0.9971
632	1.0055
623	1.0068
614	1.0068
605	0.9728
596	0.6071
587	0.8965
578	0.985
569	0.9947
560	0.996
551	0.9971
542	0.9987
533	1.0006
524	1.0039
515	1.0078
506	1.013
497	1.0178
488	1.0197
479	1.0075
470	1.0198
461	1.0159
452	1.0111
443	1.0028
434	0.9691
425	0.7185
416	0.8917
407	0.9492
398	0.953
389	0.9553
