Infrared Spectrum: N-(m-NITROBENZYLIDENE)ANILINE
Formula: C13 H10 N2 O2
CAS: 5676-82-4
State: SOLUTION (10% CCl4 FOR 5000-1330, 10% CS2 FOR 1330-625 CM^-^1)
Class: COBLENTZ
Instrument: Not specified, most likely a prism, grating, or hybrid spectrometer.
Sampling: TRANSMISSION
Path length: 0.0124 CM, 0.0124 CM
Resolution: 4
Origin: DOW CHEMICAL COMPANY
MICROMETERS	TRANSMITTANCE
2.007	0.897
2.04818	0.897
2.08935	0.894
2.13053	0.894
2.17171	0.894
2.21289	0.894
2.25406	0.897
2.29524	0.897
2.33642	0.895
2.37759	0.888
2.41877	0.882
2.45995	0.887
2.50113	0.892
2.5423	0.892
2.58348	0.888
2.62466	0.895
2.66583	0.894
2.70701	0.894
2.74819	0.9
2.78937	0.902
2.83054	0.902
2.87172	0.905
2.9129	0.907
2.95407	0.909
2.99525	0.909
3.03643	0.9
3.07761	0.882
3.11878	0.885
3.15996	0.866
3.20114	0.709
3.24231	0.651
3.28349	0.758
3.32467	0.818
3.36585	0.852
3.40702	0.782
3.4482	0.711
3.48938	0.846
3.53055	0.871
3.57173	0.882
3.61291	0.885
3.65409	0.89
3.69526	0.887
3.73644	0.887
3.77762	0.888
3.81879	0.887
3.85997	0.892
3.90115	0.892
3.94233	0.89
3.9835	0.89
4.02468	0.888
4.06586	0.878
4.10703	0.887
4.14821	0.888
4.18939	0.888
4.23057	0.885
4.27174	0.88
4.31292	0.882
4.3541	0.882
4.39527	0.888
4.43645	0.882
4.47763	0.888
4.51881	0.892
4.55998	0.89
4.60116	0.887
4.64234	0.888
4.68351	0.885
4.72469	0.888
4.76587	0.892
4.80705	0.892
4.84822	0.888
4.8894	0.88
4.93058	0.878
4.97175	0.88
5.01293	0.885
5.05411	0.863
5.09529	0.841
5.13646	0.83
5.17764	0.822
5.21882	0.854
5.25999	0.858
5.30117	0.849
5.34235	0.841
5.38353	0.842
5.4247	0.852
5.46588	0.849
5.50706	0.854
5.54824	0.844
5.58941	0.825
5.63059	0.847
5.67177	0.844
5.71294	0.822
5.75412	0.81
5.7953	0.813
5.83648	0.818
5.87765	0.829
5.91883	0.837
5.96001	0.815
6.00118	0.782
6.04236	0.707
6.08354	0.452
6.12472	0.335
6.16589	0.509
6.20707	0.579
6.24825	0.36
6.28942	0.29
6.3306	0.437
6.37178	0.553
6.41296	0.495
6.45413	0.311
6.49531	0.1
6.53649	0.145
6.57766	0.49
6.61884	0.623
6.66002	0.586
6.7012	0.394
6.74237	0.415
6.78355	0.7
6.82473	0.728
6.8659	0.646
6.90708	0.646
6.94826	0.772
6.98944	0.818
7.03061	0.83
7.07179	0.827
7.11297	0.817
7.15414	0.798
7.19532	0.781
7.2365	0.731
7.27768	0.605
7.31885	0.304
7.36003	0.035
7.40121	0.082
7.44238	0.335
7.48356	0.485
7.52474	0.523
7.56592	0.497
7.60709	0.545
7.64827	0.683
7.68945	0.719
7.73062	0.687
7.7718	0.695
7.81298	0.733
7.85416	0.654
7.89533	0.743
7.93651	0.825
7.97769	0.839
8.01886	0.822
8.06004	0.798
8.10122	0.798
8.1424	0.815
8.18357	0.829
8.22475	0.829
8.26593	0.798
8.3071	0.723
8.34828	0.497
8.38946	0.41
8.43064	0.721
8.47181	0.77
8.51299	0.705
8.55417	0.639
8.59534	0.666
8.63652	0.695
8.6777	0.767
8.71888	0.803
8.76005	0.829
8.80123	0.842
8.84241	0.849
8.88358	0.856
8.92476	0.854
8.96594	0.839
9.00712	0.81
9.04829	0.735
9.08947	0.656
9.13065	0.61
9.17182	0.541
9.213	0.553
9.25418	0.605
9.29536	0.49
9.33653	0.483
9.37771	0.692
9.41889	0.808
9.46006	0.837
9.50124	0.854
9.54242	0.859
9.5836	0.868
9.62477	0.871
9.66595	0.87
9.70713	0.82
9.7483	0.724
9.78948	0.74
9.83066	0.827
9.87184	0.842
9.91301	0.852
9.95419	0.849
9.99537	0.822
10.0365	0.827
10.0777	0.832
10.1189	0.811
10.1601	0.794
10.2013	0.781
10.2424	0.753
10.2836	0.661
10.3248	0.517
10.366	0.6
10.4071	0.712
10.4483	0.753
10.4895	0.752
10.5307	0.707
10.5718	0.747
10.613	0.788
10.6542	0.801
10.6954	0.767
10.7366	0.716
10.7777	0.664
10.8189	0.68
10.8601	0.716
10.9013	0.745
10.9424	0.714
10.9836	0.644
11.0248	0.594
11.066	0.55
11.1072	0.558
11.1483	0.649
11.1895	0.712
11.2307	0.784
11.2719	0.841
11.313	0.849
11.3542	0.856
11.3954	0.854
11.4366	0.844
11.4777	0.827
11.5189	0.794
11.5601	0.724
11.6013	0.635
11.6425	0.617
11.6836	0.712
11.7248	0.74
11.766	0.736
11.8072	0.779
11.8483	0.834
11.8895	0.842
11.9307	0.842
11.9719	0.832
12.013	0.805
12.0542	0.762
12.0954	0.736
12.1366	0.69
12.1778	0.576
12.2189	0.429
12.2601	0.333
12.3013	0.271
12.3425	0.27
12.3836	0.288
12.4248	0.341
12.466	0.458
12.5072	0.664
12.5484	0.774
12.5895	0.803
12.6307	0.829
12.6719	0.837
12.7131	0.837
12.7542	0.837
12.7954	0.829
12.8366	0.818
12.8778	0.8
12.9189	0.772
12.9601	0.729
13.0013	0.663
13.0425	0.49
13.0837	0.252
13.1248	0.088
13.166	0.063
13.2072	0.198
13.2484	0.425
13.2895	0.591
13.3307	0.67
13.3719	0.729
13.4131	0.753
13.4542	0.762
13.4954	0.757
13.5366	0.7
13.5778	0.591
13.619	0.382
13.6601	0.239
13.7013	0.326
13.7425	0.564
13.7837	0.692
13.8248	0.755
13.866	0.784
13.9072	0.796
13.9484	0.8
13.9896	0.8
14.0307	0.789
14.0719	0.769
14.1131	0.731
14.1543	0.688
14.1954	0.601
14.2366	0.463
14.2778	0.328
14.319	0.222
14.3601	0.153
14.4013	0.105
14.4425	0.083
14.4837	0.085
14.5249	0.133
14.566	0.206
14.6072	0.252
14.6484	0.309
14.6896	0.329
14.7307	0.319
14.7719	0.275
14.8131	0.264
14.8543	0.3
14.8954	0.389
14.9366	0.5
14.9778	0.589
15.019	0.68
15.0602	0.719
15.1013	0.736
15.1425	0.747
15.1837	0.752
15.2249	0.755
15.266	0.755
15.3072	0.755
15.3484	0.755
15.3896	0.755
15.4308	0.753
15.4719	0.75
15.5131	0.75
15.5543	0.753
15.5955	0.758
15.6366	0.764
15.6778	0.77
15.719	0.777
15.7602	0.779
15.8013	0.784
15.8425	0.788
15.8837	0.789
