Infrared Spectrum: 1-Phenyl-1,2,3-trobromopropane
Formula: C 9 H 9 Br 3
CAS: 56762-23-3
State: gas
Origin: EPA-IR VAPOR PHASE LIBRARY
1/CM	ABSORBANCE
549.9	0.006038
559.547	0.013228
569.193	0.013368
578.84	0.009408
588.486	0.007618
598.133	0.006128
607.779	0.006228
617.426	0.008618
627.072	0.007028
636.719	0.007998
646.365	0.005838
656.012	0.005228
665.658	0.006018
675.305	0.009148
684.951	0.014418
694.598	0.029128
704.245	0.018498
713.891	0.008118
723.538	0.007738
733.184	0.008298
742.831	0.010708
752.477	0.012748
762.124	0.008178
771.77	0.004218
781.417	0.002448
791.063	0.002498
800.71	0.002938
810.356	0.003228
820.003	0.004858
829.649	0.003838
839.296	0.001938
848.943	0.001568
858.589	0.001878
868.236	0.002768
877.882	0.003888
887.529	0.002618
897.175	0.0014307
906.822	0.001128
916.468	0.0011916
926.115	0.0011088
935.761	0.001217
945.408	0.001578
955.054	0.001968
964.701	0.002208
974.347	0.002498
983.994	0.002398
993.64	0.0014593
1003.29	0.001738
1012.93	0.0011931
1022.58	0.001878
1032.23	0.003278
1041.87	0.0011988
1051.52	0.0011054
1061.17	0.001678
1070.81	0.002788
1080.46	0.002328
1090.11	0.0013313
1099.75	0.001668
1109.4	0.001948
1119.05	0.003218
1128.69	0.007038
1138.34	0.008168
1147.99	0.005528
1157.63	0.004028
1167.28	0.004108
1176.92	0.005218
1186.57	0.006558
1196.22	0.006828
1205.86	0.008278
1215.51	0.010188
1225.16	0.008908
1234.8	0.008128
1244.45	0.004828
1254.1	0.004758
1263.74	0.007768
1273.39	0.006018
1283.04	0.004258
1292.68	0.003188
1302.33	0.002788
1311.98	0.003308
1321.62	0.003538
1331.27	0.003348
1340.92	0.002918
1350.56	0.002278
1360.21	0.002008
1369.86	0.0013596
1379.5	0.0012204
1389.15	0.0010256
1398.79	0.0010085
1408.44	0.001498
1418.09	0.004308
1427.73	0.007038
1437.38	0.006208
1447.03	0.005638
1456.67	0.007118
1466.32	0.002078
1475.97	0.001638
1485.61	0.003428
1495.26	0.006688
1504.91	0.002958
1514.55	0.0010248
1524.2	0.000946
1533.85	0.0007528
1543.49	0.0006063
1553.14	0.00046992
1562.79	0.00056305
1572.43	0.0007639
1582.08	0.0013393
1591.73	0.001848
1601.37	0.001788
1611.02	0.0008824
1620.67	0.00056677
1630.31	0.000373
1639.96	0.0004171
1649.6	0.00050957
1659.25	0.0006503
1668.9	0.0007283
1678.54	0.0006188
1688.19	0.0004465
1697.84	0.0004046
1707.48	0.0004171
1717.13	0.0004671
1726.78	0.0005838
1736.42	0.000749
1746.07	0.0006849
1755.72	0.00057297
1765.36	0.00055275
1775.01	0.0007113
1784.66	0.0010625
1794.3	0.001548
1803.95	0.0009704
1813.6	0.0006774
1823.24	0.00053104
1832.89	0.0003878
1842.54	0.000432
1852.18	0.000481464
1861.83	0.000736
1871.47	0.0010149
1881.12	0.0010293
1890.77	0.0009541
1900.41	0.0006303
1910.06	0.00049801
1919.71	0.000487283
1929.35	0.000678
1939	0.0012534
1948.65	0.0012684
1958.29	0.0012247
1967.94	0.0007731
1977.59	0.000361
1987.23	0.000322
1996.88	0.000246
2006.53	0.000248
2016.17	0.000213
2025.82	0.000273
2035.47	0.000243
2045.11	0.00026
2054.76	0.000188
2064.41	0.000212
2074.05	0.000195
2083.7	0.000203
2093.35	0.000199
2102.99	0.000221
2112.64	0.000154
2122.28	0.000179
2131.93	0.000204
2141.58	0.00015
2151.22	0.000182
2160.87	0.000232
2170.52	0.000175
2180.16	0.000242
2189.81	0.000215
2199.46	0.000253
2209.1	0.000197
2218.75	0.000274
2228.4	0.000257
2238.04	0.0003
2247.69	0.000296
2257.34	0.00035
2266.98	0.000326
2276.63	0.000308
2286.28	0.0004275
2295.92	0.0004468
2305.57	0.00046932
2315.22	0.0005797
2324.86	0.00050681
2334.51	0.00051698
2344.16	0.00047046
2353.8	0.00050303
2363.45	0.0004626
2373.09	0.0004251
2382.74	0.0004271
2392.39	0.000363
2402.03	0.000372
2411.68	0.000376
2421.33	0.000326
2430.97	0.0003995
2440.62	0.000342
2450.27	0.000377
2459.91	0.0003901
2469.56	0.000371
2479.21	0.000323
2488.85	0.000348
2498.5	0.00036
2508.15	0.000346
2517.79	0.000349
2527.44	0.000307
2537.09	0.000275
2546.73	0.000291
2556.38	0.000361
2566.03	0.000305
2575.67	0.000254
2585.32	0.000284
2594.96	0.00031
2604.61	0.000348
2614.26	0.000348
2623.9	0.000258
2633.55	0.0003834
2643.2	0.000339
2652.84	0.000325
2662.49	0.000356
2672.14	0.000324
2681.78	0.000329
2691.43	0.000287
2701.08	0.000324
2710.72	0.000225
2720.37	0.000208
2730.02	0.000342
2739.66	0.000238
2749.31	0.000314
2758.96	0.000271
2768.6	0.000328
2778.25	0.000313
2787.9	0.000318
2797.54	0.000367
2807.19	0.000352
2816.84	0.000354
2826.48	0.0004259
2836.13	0.000485826
2845.77	0.000486351
2855.42	0.000345
2865.07	0.0004084
2874.71	0.000365
2884.36	0.00047264
2894.01	0.0004273
2903.65	0.0004006
2913.3	0.0005835
2922.95	0.0004105
2932.59	0.00056388
2942.24	0.0009357
2951.89	0.0010834
2961.53	0.001758
2971.18	0.002668
2980.83	0.002348
2990.47	0.001738
3000.12	0.0012348
3009.77	0.001628
3019.41	0.002818
3029.06	0.006828
3038.71	0.009178
3048.35	0.005608
3058	0.005708
3067.64	0.010778
3077.29	0.012148
3086.94	0.006998
3096.58	0.005678
3106.23	0.003518
3115.88	0.002068
3125.52	0.0009466
3135.17	0.00051587
3144.82	0.0004516
3154.46	0.0004018
3164.11	0.00035
3173.76	0.000332
3183.4	0.000215
3193.05	0.000164
3202.7	0.000199
3212.34	0.00017
3221.99	0.000252
3231.64	0.000259
3241.28	0.000133
3250.93	0.000266
3260.58	2.9e-05
3270.22	0.000192
3279.87	0.000292
3289.52	0.000229
3299.16	0.000144
3308.81	0.000128
3318.45	0.000246
3328.1	6.9e-05
3337.75	0.000207
3347.39	0.000114
3357.04	2e-05
3366.69	7.9e-05
3376.33	0.00011
3385.98	6.7e-05
3395.63	0.000106
3405.27	0.000134
3414.92	0.000301
3424.57	0.000231
3434.21	4.2e-05
3443.86	4.9e-05
3453.51	4.8e-05
3463.15	0.000213
3472.8	0.000189
3482.45	0.000325
3492.09	0.000164
3501.74	0.000206
3511.39	8.4e-05
3521.03	0.000176
3530.68	0.000195
3540.33	8.5e-05
3549.97	7.3e-05
3559.62	0.000181
3569.26	0.000339
3578.91	0.00015
3588.56	0.000266
3598.2	0.0004074
3607.85	0.000315
3617.5	0.000351
3627.14	0.000218
3636.79	0.00025
3646.44	0.000298
3656.08	0.0003812
3665.73	0.000331
3675.38	0.000292
3685.02	0.000299
3694.67	0.000371
3704.32	0.00034
3713.96	0.000263
3723.61	0.000313
3733.26	0.000335
3742.9	0.000319
3752.55	0.000185
3762.2	0.00024
3771.84	0.00024
3781.49	0.000228
3791.13	0.000225
3800.78	0.000249
3810.43	0.000231
3820.07	0.000289
3829.72	0.000246
3839.37	0.000206
3849.01	0.000271
3858.66	0.000203
3868.31	0.000343
3877.95	0.000273
3887.6	0.000306
3897.25	0.000352
3906.89	0.0003844
3916.54	0.000423
3926.19	0.000183
3935.83	0.000259
3945.48	0.000177
3955.13	0.000236
3964.77	0.000266
3974.42	0.000191
3984.07	0.000234
3993.71	0.000295
