Infrared Spectrum: PHENYL PHOSPHAZOANILIDE
Formula: C12 H11 N2 P
CAS: 5679-59-4
State: SOLID (KBr PELLET)
Melting point: 251-253 C
Class: COBLENTZ
Instrument: Not specified, most likely a prism, grating, or hybrid spectrometer.
Sampling: TRANSMISSION
Resolution: 4
Origin: TENNESSEE EASTMAN COMPANY, RESEARCH LABORATORIES
MICROMETERS	TRANSMITTANCE
2.038	0.818
2.07782	0.821
2.11765	0.824
2.15747	0.828
2.19729	0.833
2.23711	0.839
2.27694	0.844
2.31676	0.848
2.35658	0.853
2.39641	0.856
2.43623	0.856
2.47605	0.854
2.51588	0.856
2.5557	0.861
2.59552	0.859
2.63534	0.858
2.67517	0.858
2.71499	0.859
2.75481	0.848
2.79464	0.831
2.83446	0.813
2.87428	0.796
2.9141	0.769
2.95393	0.764
2.99375	0.771
3.03357	0.727
3.0734	0.826
3.11322	0.826
3.15304	0.826
3.19286	0.823
3.23269	0.804
3.27251	0.737
3.31233	0.672
3.35216	0.717
3.39198	0.701
3.4318	0.682
3.47163	0.666
3.51145	0.674
3.55127	0.696
3.59109	0.702
3.63092	0.716
3.67074	0.721
3.71056	0.731
3.75039	0.731
3.79021	0.712
3.83003	0.699
3.86985	0.691
3.90968	0.689
3.9495	0.704
3.98932	0.724
4.02915	0.731
4.06897	0.751
4.10879	0.759
4.14862	0.764
4.18844	0.756
4.22826	0.724
4.26808	0.716
4.30791	0.757
4.34773	0.796
4.38755	0.814
4.42738	0.823
4.4672	0.826
4.50702	0.828
4.54684	0.829
4.58667	0.826
4.62649	0.824
4.66631	0.829
4.70614	0.834
4.74596	0.841
4.78578	0.851
4.82561	0.858
4.86543	0.858
4.90525	0.858
4.94507	0.858
4.9849	0.868
5.02472	0.879
5.06454	0.878
5.10437	0.869
5.14419	0.869
5.18401	0.871
5.22383	0.878
5.26366	0.884
5.30348	0.889
5.3433	0.891
5.38313	0.891
5.42295	0.881
5.46277	0.886
5.50259	0.891
5.54242	0.894
5.58224	0.889
5.62206	0.884
5.66189	0.878
5.70171	0.876
5.74153	0.864
5.78136	0.866
5.82118	0.864
5.861	0.869
5.90082	0.858
5.94065	0.864
5.98047	0.858
6.02029	0.849
6.06012	0.813
6.09994	0.794
6.13976	0.774
6.17958	0.741
6.21941	0.577
6.25923	0.188
6.29905	0.465
6.33888	0.629
6.3787	0.721
6.41852	0.801
6.45835	0.824
6.49817	0.843
6.53799	0.819
6.57781	0.722
6.61764	0.485
6.65746	0.17
6.69728	0.307
6.73711	0.455
6.77693	0.577
6.81675	0.741
6.85657	0.796
6.8964	0.836
6.93622	0.868
6.97604	0.888
7.01587	0.893
7.05569	0.901
7.09551	0.913
7.13534	0.898
7.17516	0.883
7.21498	0.851
7.2548	0.826
7.29463	0.692
7.33445	0.716
7.37427	0.831
7.4141	0.864
7.45392	0.806
7.49374	0.792
7.53356	0.849
7.57339	0.861
7.61321	0.836
7.65303	0.823
7.69286	0.771
7.73268	0.601
7.7725	0.42
7.81232	0.143
7.85215	0.103
7.89197	0.18
7.93179	0.353
7.97162	0.522
8.01144	0.642
8.05126	0.697
8.09109	0.684
8.13091	0.601
8.17073	0.537
8.21055	0.542
8.25038	0.642
8.2902	0.697
8.33002	0.719
8.36985	0.729
8.40967	0.729
8.44949	0.672
8.48931	0.614
8.52914	0.676
8.56896	0.687
8.60878	0.627
8.64861	0.597
8.68843	0.595
8.72825	0.601
8.76808	0.641
8.8079	0.677
8.84772	0.692
8.88754	0.699
8.92737	0.709
8.96719	0.721
9.00701	0.721
9.04684	0.699
9.08666	0.692
9.12648	0.707
9.1663	0.714
9.20613	0.701
9.24595	0.589
9.28577	0.579
9.3256	0.651
9.36542	0.702
9.40524	0.709
9.44507	0.702
9.48489	0.674
9.52471	0.637
9.56453	0.614
9.60436	0.614
9.64418	0.612
9.684	0.534
9.72383	0.545
9.76365	0.626
9.80347	0.674
9.84329	0.679
9.88312	0.651
9.92294	0.629
9.96276	0.59
10.0026	0.55
10.0424	0.647
10.0822	0.692
10.1221	0.702
10.1619	0.731
10.2017	0.746
10.2415	0.756
10.2813	0.756
10.3212	0.769
10.361	0.784
10.4008	0.789
10.4406	0.792
10.4805	0.794
10.5203	0.787
10.5601	0.766
10.5999	0.731
10.6398	0.687
10.6796	0.642
10.7194	0.595
10.7592	0.532
10.799	0.452
10.8389	0.405
10.8787	0.419
10.9185	0.35
10.9583	0.257
10.9982	0.237
11.038	0.26
11.0778	0.368
11.1176	0.424
11.1575	0.405
11.1973	0.377
11.2371	0.372
11.2769	0.372
11.3167	0.372
11.3566	0.373
11.3964	0.393
11.4362	0.467
11.476	0.534
11.5159	0.614
11.5557	0.651
11.5955	0.654
11.6353	0.582
11.6751	0.47
11.715	0.322
11.7548	0.232
11.7946	0.215
11.8344	0.233
11.8743	0.302
11.9141	0.388
11.9539	0.487
11.9937	0.587
12.0336	0.641
12.0734	0.681
12.1132	0.704
12.153	0.722
12.1928	0.737
12.2327	0.751
12.2725	0.759
12.3123	0.764
12.3521	0.777
12.392	0.782
12.4318	0.781
12.4716	0.752
12.5114	0.696
12.5513	0.644
12.5911	0.652
12.6309	0.706
12.6707	0.767
12.7105	0.799
12.7504	0.818
12.7902	0.839
12.83	0.848
12.8698	0.853
12.9097	0.854
12.9495	0.861
12.9893	0.858
13.0291	0.846
13.069	0.816
13.1088	0.747
13.1486	0.595
13.1884	0.459
13.2282	0.33
13.2681	0.262
13.3079	0.253
13.3477	0.29
13.3875	0.365
13.4274	0.455
13.4672	0.552
13.507	0.579
13.5468	0.616
13.5866	0.664
13.6265	0.727
13.6663	0.767
13.7061	0.791
13.7459	0.809
13.7858	0.821
13.8256	0.829
13.8654	0.839
13.9052	0.843
13.9451	0.851
13.9849	0.854
14.0247	0.858
14.0645	0.856
14.1043	0.849
14.1442	0.821
14.184	0.746
14.2238	0.641
14.2636	0.545
14.3035	0.497
14.3433	0.482
14.3831	0.477
14.4229	0.452
14.4628	0.405
14.5026	0.377
14.5424	0.377
14.5822	0.419
14.622	0.485
14.6619	0.55
14.7017	0.595
14.7415	0.627
14.7813	0.656
14.8212	0.674
14.861	0.689
14.9008	0.691
14.9406	0.691
14.9805	0.694
15.0203	0.699
15.0601	0.676
15.0999	0.642
15.1397	0.632
15.1796	0.659
15.2194	0.694
15.2592	0.714
15.299	0.727
15.3389	0.727
15.3787	0.729
15.4185	0.729
15.4583	0.727
15.4982	0.726
15.538	0.726
15.5778	0.719
15.6176	0.711
15.6574	0.704
15.6973	0.701
15.7371	0.694
15.7769	0.684
15.8167	0.681
15.8566	0.674
15.8964	0.671
15.9362	0.662
15.976	0.661
