Infrared Spectrum: 9H-Purine-9-acetic acid, 6-chloro-, ethyl ester
Formula: C9 H9 Cl N4 O2
CAS: 56791-59-4
State: SOLID (KBr DISC)
Class: COBLENTZ III
Instrument: PERKIN-ELMER 21 (GRATING)
Instrument parameters: FILTER CHANGE ABOUT 1090 CM^-^1
Sampling: TRANSMISSION
Resolution: 2
Origin: SOUTHERN RESEARCH INSTITUTE
1/CM	TRANSMITTANCE
602	0.832
611	0.8257
620	0.8112
629	0.7377
638	0.5591
647	0.6384
656	0.8525
665	0.8405
674	0.8263
683	0.8382
692	0.8222
701	0.8079
710	0.7668
719	0.7367
728	0.7849
737	0.7903
746	0.7766
755	0.7391
764	0.7154
773	0.5433
782	0.5206
791	0.7108
800	0.7408
809	0.7332
818	0.7209
827	0.7292
836	0.7187
845	0.688
854	0.6073
863	0.4609
872	0.6982
881	0.6045
890	0.685
899	0.6593
908	0.684
917	0.6583
926	0.6127
935	0.3234
944	0.3301
953	0.611
962	0.6647
971	0.6749
980	0.4891
989	0.7396
998	0.7311
1007	0.6883
1016	0.5412
1025	0.3372
1034	0.6491
1043	0.7317
1052	0.7246
1061	0.7146
1070	0.7038
1079	0.6869
1088	0.6622
1097	0.6341
1106	0.6156
1115	0.5815
1124	0.5558
1133	0.5452
1142	0.4576
1151	0.4563
1160	0.4927
1169	0.4515
1178	0.3798
1187	0.2719
1196	0.1094
1205	0.3438
1214	0.3477
1223	0.2798
1232	0.2523
1241	0.173
1250	0.2255
1259	0.3333
1268	0.3653
1277	0.4594
1286	0.5888
1295	0.6191
1304	0.6484
1313	0.6663
1322	0.6456
1331	0.457
1340	0.2418
1349	0.4822
1358	0.6014
1367	0.5895
1376	0.5463
1385	0.3249
1394	0.5502
1403	0.4364
1412	0.2969
1421	0.4942
1430	0.4024
1439	0.4353
1448	0.4065
1457	0.6389
1466	0.7187
1475	0.6322
1484	0.5975
1493	0.5962
1502	0.4887
1511	0.6531
1520	0.6682
1529	0.6365
1538	0.5494
1547	0.3671
1556	0.2284
1565	0.2028
1574	0.4509
1583	0.5532
1592	0.3863
1601	0.3075
1610	0.5966
1619	0.6928
1628	0.7358
1637	0.7524
1646	0.7509
1655	0.7562
1664	0.7605
1673	0.7547
1682	0.7202
1691	0.6978
1700	0.6412
1709	0.5916
1718	0.4472
1727	0.3363
1736	0.1756
1745	0.2072
1754	0.3942
1763	0.646
1772	0.6889
1781	0.7125
1790	0.7406
1799	0.7692
1808	0.7811
1817	0.7873
1826	0.7897
1835	0.7908
1844	0.7901
1853	0.7892
1862	0.7885
1871	0.7882
1880	0.7878
1889	0.7875
1898	0.7872
1907	0.7872
1916	0.7873
1925	0.788
1934	0.7902
1943	0.7903
1952	0.7881
1961	0.7875
1970	0.7869
1979	0.7863
1988	0.7855
1997	0.7842
2006	0.7828
2015	0.7816
2024	0.7805
2033	0.7822
2042	0.7819
2051	0.7796
2060	0.7798
2069	0.7825
2078	0.7787
2087	0.7699
2096	0.7679
2105	0.7677
2114	0.7676
2123	0.7673
2132	0.767
2141	0.7666
2150	0.7657
2159	0.7625
2168	0.7589
2177	0.756
2186	0.7589
2195	0.7541
2204	0.7512
2213	0.7534
2222	0.7544
2231	0.7529
2240	0.7495
2249	0.7453
2258	0.7424
2267	0.7393
2276	0.7389
2285	0.7388
2294	0.7388
2303	0.7387
2312	0.7387
2321	0.7374
2330	0.7353
2339	0.7303
2348	0.7246
2357	0.7222
2366	0.725
2375	0.7242
2384	0.716
2393	0.7086
2402	0.7058
2411	0.7068
2420	0.7079
2429	0.7084
2438	0.7116
2447	0.7179
2456	0.7193
2465	0.7154
2474	0.708
2483	0.701
2492	0.6978
2501	0.6958
2510	0.6962
2519	0.6967
2528	0.6952
2537	0.6919
2546	0.6908
2555	0.6915
2564	0.6911
2573	0.6901
2582	0.6891
2591	0.6879
2600	0.6867
2609	0.6914
2618	0.7003
2627	0.7037
2636	0.6908
2645	0.6766
2654	0.6754
2663	0.6793
2672	0.6782
2681	0.679
2690	0.6858
2699	0.685
2708	0.6751
2717	0.6715
2726	0.6701
2735	0.6689
2744	0.6671
2753	0.6664
2762	0.6657
2771	0.6662
2780	0.6574
2789	0.6558
2798	0.6457
2807	0.6434
2816	0.6463
2825	0.6442
2834	0.6325
2843	0.6271
2852	0.6292
2861	0.6274
2870	0.6192
2879	0.6159
2888	0.6146
2897	0.6127
2906	0.6016
2915	0.5834
2924	0.5673
2933	0.5518
2942	0.5509
2951	0.5499
2960	0.536
2969	0.5089
2978	0.5038
2987	0.5123
2996	0.5384
3005	0.5733
3014	0.6015
3023	0.6127
3032	0.6086
3041	0.6035
3050	0.5976
3059	0.5914
3068	0.5884
3077	0.5927
3086	0.5973
3095	0.5979
3104	0.5974
3113	0.6011
3122	0.6104
3131	0.6081
3140	0.6125
3149	0.6202
3158	0.6222
3167	0.6204
3176	0.6182
3185	0.615
3194	0.6126
3203	0.6107
3212	0.6106
3221	0.6085
3230	0.6021
3239	0.602
3248	0.6025
3257	0.6044
3266	0.6009
3275	0.5964
3284	0.5928
3293	0.5901
3302	0.5878
3311	0.5903
3320	0.5926
3329	0.5857
3338	0.5772
3347	0.5696
3356	0.5617
3365	0.5534
3374	0.542
3383	0.5307
3392	0.5206
3401	0.5162
3410	0.5164
3419	0.5179
3428	0.514
3437	0.5065
3446	0.5026
3455	0.4977
3464	0.507
3473	0.5032
3482	0.5076
3491	0.5087
3500	0.5119
3509	0.52
3518	0.5208
3527	0.5281
3536	0.5289
3545	0.5353
3554	0.5425
3563	0.5484
3572	0.5541
3581	0.5577
3590	0.5596
3599	0.5655
3608	0.5723
3617	0.576
3626	0.5726
3635	0.5813
3644	0.5942
3653	0.5971
3662	0.5982
3671	0.5991
3680	0.6003
3689	0.6026
3698	0.6034
3707	0.6012
3716	0.6007
3725	0.598
3734	0.5933
3743	0.595
3752	0.5974
3761	0.6006
3770	0.6034
3779	0.6125
3788	0.6121
3797	0.6042
3806	0.5946
3815	0.5917
3824	0.5885
3833	0.5909
3842	0.5997
3851	0.5981
3860	0.5925
3869	0.5916
3878	0.5908
3887	0.5916
3896	0.5941
3905	0.5976
3914	0.5945
3923	0.5904
3932	0.5882
3941	0.5899
3950	0.5914
3959	0.5888
3968	0.578
3977	0.5846
3986	0.5843
3995	0.5612
