Infrared Spectrum: 3-NITROALIZARINE
Formula: C14 H7 N O6
CAS: 568-93-4
State: SOLID (MULL)
Melting point: 144 C (DECOMPOSES)
Class: COBLENTZ
Instrument: Not specified, most likely a prism, grating, or hybrid spectrometer.
Sampling: TRANSMISSION
Resolution: 4
Origin: WYANDOTTE CHEMICALS CORP., WYANDOTTE, MICHIGAN, USA
MICROMETERS	TRANSMITTANCE
2.014	0.246
2.05397	0.237
2.09395	0.242
2.13392	0.246
2.1739	0.251
2.21387	0.237
2.25385	0.257
2.29382	0.259
2.3338	0.269
2.37377	0.286
2.41374	0.296
2.45372	0.306
2.49369	0.321
2.53367	0.314
2.57364	0.329
2.61362	0.344
2.65359	0.342
2.69356	0.349
2.73354	0.356
2.77351	0.352
2.81349	0.352
2.85346	0.352
2.89344	0.352
2.93341	0.354
2.97339	0.354
3.01336	0.354
3.05333	0.341
3.09331	0.304
3.13328	0.241
3.17326	0.246
3.21323	0.279
3.25321	0.239
3.29318	0.199
3.33315	0.179
3.37313	0.036
3.4131	0.021
3.45308	0.026
3.49305	0.029
3.53303	0.133
3.573	0.429
3.61298	0.495
3.65295	0.515
3.69292	0.502
3.7329	0.52
3.77287	0.53
3.81285	0.534
3.85282	0.565
3.8928	0.584
3.93277	0.602
3.97275	0.612
4.01272	0.627
4.05269	0.645
4.09267	0.652
4.13264	0.655
4.17262	0.66
4.21259	0.668
4.25257	0.675
4.29254	0.687
4.33251	0.697
4.37249	0.708
4.41246	0.725
4.45244	0.722
4.49241	0.738
4.53239	0.747
4.57236	0.757
4.61234	0.76
4.65231	0.778
4.69228	0.788
4.73226	0.805
4.77223	0.82
4.81221	0.816
4.85218	0.82
4.89216	0.833
4.93213	0.835
4.97211	0.851
5.01208	0.836
5.05205	0.85
5.09203	0.836
5.132	0.875
5.17198	0.885
5.21195	0.908
5.25193	0.903
5.2919	0.908
5.33187	0.9
5.37185	0.92
5.41182	0.851
5.4518	0.925
5.49177	0.921
5.53175	0.938
5.57172	0.958
5.6117	0.965
5.65167	0.956
5.69164	0.975
5.73162	0.975
5.77159	0.97
5.81157	0.93
5.85154	0.868
5.89152	0.825
5.93149	0.505
5.97146	0.138
6.01144	0.472
6.05141	0.119
6.09139	0.242
6.13136	0.41
6.17134	0.224
6.21131	0.291
6.25129	0.043
6.29126	0.106
6.33123	0.291
6.37121	0.396
6.41118	0.381
6.45116	0.297
6.49113	0.259
6.53111	0.422
6.57108	0.572
6.61106	0.655
6.65103	0.7
6.691	0.633
6.73098	0.505
6.77095	0.207
6.81093	0.138
6.8509	0.103
6.89088	0.159
6.93085	0.279
6.97082	0.257
7.0108	0.154
7.05077	0.189
7.09075	0.274
7.13072	0.371
7.1707	0.502
7.21067	0.364
7.25065	0.262
7.29062	0.377
7.33059	0.321
7.37057	0.128
7.41054	0.028
7.45052	0.029
7.49049	0.044
7.53047	0.081
7.57044	0.163
7.61042	0.204
7.65039	0.071
7.69036	0.063
7.73034	0.113
7.77031	0.156
7.81029	0.091
7.85026	0.039
7.89024	0.036
7.93021	0.021
7.97018	0.024
8.01016	0.073
8.05013	0.074
8.09011	0.049
8.13008	0.053
8.17006	0.064
8.21003	0.073
8.25001	0.074
8.28998	0.079
8.32995	0.133
8.36993	0.186
8.4099	0.269
8.44988	0.351
8.48985	0.367
8.52983	0.326
8.5698	0.282
8.60977	0.309
8.64975	0.391
8.68972	0.43
8.7297	0.455
8.76967	0.442
8.80965	0.5
8.84962	0.564
8.8896	0.605
8.92957	0.648
8.96954	0.622
9.00952	0.657
9.04949	0.682
9.08947	0.638
9.12944	0.7
9.16942	0.74
9.20939	0.753
9.24937	0.755
9.28934	0.71
9.32931	0.623
9.36929	0.374
9.40926	0.309
9.44924	0.327
9.48921	0.522
9.52919	0.652
9.56916	0.733
9.60913	0.758
9.64911	0.73
9.68908	0.537
9.72906	0.555
9.76903	0.645
9.80901	0.7
9.84898	0.765
9.88896	0.75
9.92893	0.777
9.9689	0.815
10.0089	0.815
10.0489	0.82
10.0888	0.821
10.1288	0.797
10.1688	0.675
10.2088	0.77
10.2487	0.8
10.2887	0.813
10.3287	0.813
10.3686	0.808
10.4086	0.768
10.4486	0.655
10.4886	0.562
10.5285	0.718
10.5685	0.773
10.6085	0.801
10.6485	0.808
10.6884	0.752
10.7284	0.414
10.7684	0.615
10.8084	0.778
10.8483	0.788
10.8883	0.803
10.9283	0.846
10.9683	0.88
11.0082	0.866
11.0482	0.876
11.0882	0.888
11.1282	0.9
11.1681	0.906
11.2081	0.896
11.2481	0.891
11.2881	0.853
11.328	0.692
11.368	0.797
11.408	0.883
11.448	0.918
11.4879	0.923
11.5279	0.926
11.5679	0.925
11.6079	0.928
11.6478	0.933
11.6878	0.931
11.7278	0.926
11.7678	0.906
11.8077	0.905
11.8477	0.893
11.8877	0.89
11.9276	0.888
11.9676	0.866
12.0076	0.823
12.0476	0.677
12.0875	0.43
12.1275	0.455
12.1675	0.59
12.2075	0.648
12.2474	0.73
12.2874	0.673
12.3274	0.575
12.3674	0.414
12.4073	0.259
12.4473	0.178
12.4873	0.134
12.5273	0.188
12.5672	0.279
12.6072	0.454
12.6472	0.552
12.6872	0.61
12.7271	0.643
12.7671	0.69
12.8071	0.727
12.8471	0.728
12.887	0.698
12.927	0.733
12.967	0.787
13.007	0.811
13.0469	0.76
13.0869	0.662
13.1269	0.449
13.1669	0.417
13.2068	0.628
13.2468	0.757
13.2868	0.797
13.3268	0.8
13.3667	0.77
13.4067	0.675
13.4467	0.544
13.4867	0.332
13.5266	0.231
13.5666	0.48
13.6066	0.687
13.6465	0.745
13.6865	0.77
13.7265	0.768
13.7665	0.728
13.8064	0.638
13.8464	0.55
13.8864	0.577
13.9264	0.572
13.9663	0.439
14.0063	0.222
14.0463	0.079
14.0863	0.153
14.1262	0.317
14.1662	0.555
14.2062	0.722
14.2462	0.787
14.2861	0.816
14.3261	0.835
14.3661	0.851
14.4061	0.855
14.446	0.863
14.486	0.856
14.526	0.846
14.566	0.828
14.6059	0.785
14.6459	0.717
14.6859	0.667
14.7259	0.635
14.7658	0.633
14.8058	0.683
14.8458	0.723
14.8858	0.745
14.9257	0.755
14.9657	0.74
15.0057	0.693
15.0457	0.643
15.0856	0.618
15.1256	0.594
15.1656	0.564
15.2055	0.539
15.2455	0.525
15.2855	0.557
15.3255	0.582
15.3654	0.587
15.4054	0.567
15.4454	0.544
15.4854	0.51
15.5253	0.485
15.5653	0.447
15.6053	0.424
15.6453	0.409
15.6852	0.397
15.7252	0.386
15.7652	0.386
15.8052	0.389
15.8451	0.391
15.8851	0.394
15.9251	0.4
15.9651	0.404
16.005	0.414
