Infrared Spectrum: Diethylphthalimidomalonate
Formula: C 15 H 15 N O 6
CAS: 5680-61-5
State: gas
Origin: EPA-IR VAPOR PHASE LIBRARY
1/CM	ABSORBANCE
501.5	0.0007849
513.074	0.002679
524.648	0.007389
536.222	0.006849
547.796	0.008099
559.37	0.006989
570.944	0.003359
582.518	0.001919
594.092	0.002369
605.666	0.003529
617.24	0.010719
628.814	0.009569
640.388	0.003899
651.962	0.002959
663.536	0.003539
675.11	0.004859
686.684	0.005499
698.258	0.008089
709.832	0.025859
721.406	0.025309
732.98	0.028029
744.554	0.023899
756.128	0.013689
767.702	0.007299
779.276	0.005499
790.85	0.004169
802.423	0.003409
813.997	0.003929
825.571	0.003649
837.145	0.003339
848.719	0.004759
860.293	0.009929
871.867	0.014199
883.441	0.013569
895.015	0.005899
906.589	0.005699
918.163	0.010819
929.737	0.015549
941.311	0.007859
952.885	0.007539
964.459	0.007799
976.033	0.007089
987.607	0.008769
999.181	0.012509
1010.76	0.016989
1022.33	0.031009
1033.9	0.057339
1045.48	0.054949
1057.05	0.028579
1068.63	0.020799
1080.2	0.023629
1091.77	0.032949
1103.35	0.048039
1114.92	0.051509
1126.49	0.029259
1138.07	0.026879
1149.64	0.039459
1161.22	0.064769
1172.79	0.082459
1184.36	0.080389
1195.94	0.064509
1207.51	0.056599
1219.09	0.068099
1230.66	0.087729
1242.23	0.101699
1253.81	0.094579
1265.38	0.075559
1276.96	0.065489
1288.53	0.059639
1300.1	0.050449
1311.68	0.035539
1323.25	0.030189
1334.83	0.032979
1346.4	0.045569
1357.97	0.050779
1369.55	0.093529
1381.12	0.134459
1392.7	0.092039
1404.27	0.036429
1415.84	0.024549
1427.42	0.018609
1438.99	0.013209
1450.57	0.013219
1462.14	0.014739
1473.71	0.017939
1485.29	0.009159
1496.86	0.005709
1508.44	0.004139
1520.01	0.003429
1531.58	0.003219
1543.16	0.002959
1554.73	0.002859
1566.31	0.003149
1577.88	0.003609
1589.45	0.004249
1601.03	0.004779
1612.6	0.005669
1624.18	0.004279
1635.75	0.003569
1647.32	0.003339
1658.9	0.003809
1670.47	0.004659
1682.05	0.006049
1693.62	0.009159
1705.19	0.016499
1716.77	0.030589
1728.34	0.066899
1739.92	0.228349
1751.49	0.218389
1763.06	0.197519
1774.64	0.174709
1786.21	0.080219
1797.79	0.056569
1809.36	0.026699
1820.93	0.014749
1832.51	0.009819
1844.08	0.007339
1855.66	0.005269
1867.23	0.004479
1878.8	0.004119
1890.38	0.003729
1901.95	0.003659
1913.53	0.003409
1925.1	0.002759
1936.67	0.003039
1948.25	0.002409
1959.82	0.002059
1971.4	0.002409
1982.97	0.001539
1994.54	0.001279
2006.12	0.0011078
2017.69	0.0010227
2029.27	0.00109
2040.84	0.001179
2052.41	0.001199
2063.99	0.001199
2075.56	0.001259
2087.14	0.001399
2098.71	0.001419
2110.28	0.001499
2121.86	0.001829
2133.43	0.002989
2145.01	0.005029
2156.58	0.003989
2168.15	0.001649
2179.73	0.0010574
2191.3	0.0008982
2202.88	0.0008763
2214.45	0.000905
2226.02	0.0009232
2237.6	0.0008918
2249.17	0.0009453
2260.74	0.0010039
2272.32	0.0011439
2283.89	0.001479
2295.47	0.002229
2307.04	0.003429
2318.61	0.004789
2330.19	0.004929
2341.76	0.004449
2353.34	0.004759
2364.91	0.006349
2376.48	0.004209
2388.06	0.001499
2399.63	0.0009367
2411.21	0.0009059
2422.78	0.0009325
2434.35	0.0009326
2445.93	0.0009923
2457.5	0.0010394
2469.08	0.0010791
2480.65	0.0010353
2492.22	0.0009963
2503.8	0.0008208
2515.37	0.0006256
2526.95	0.0005434
2538.52	0.0005258
2550.09	0.0005057
2561.67	0.0004651
2573.24	0.0004141
2584.82	0.0003806
2596.39	0.0003705
2607.96	0.0003901
2619.54	0.0004769
2631.11	0.0005522
2642.69	0.0005711
2654.26	0.000484
2665.83	0.0004644
2677.41	0.0005225
2688.98	0.0005538
2700.56	0.0005922
2712.13	0.0004275
2723.7	0.000451
2735.28	0.0005522
2746.85	0.0005426
2758.43	0.0006747
2770	0.0008515
2781.57	0.001135
2793.15	0.0010978
2804.72	0.0010651
2816.3	0.001209
2827.87	0.001479
2839.44	0.001639
2851.02	0.002009
2862.59	0.002769
2874.17	0.004099
2885.74	0.006279
2897.31	0.006649
2908.89	0.008939
2920.46	0.010419
2932.04	0.013539
2943.61	0.021839
2955.18	0.015079
2966.76	0.015619
2978.33	0.024459
2989.91	0.031689
3001.48	0.018819
3013.05	0.011839
3024.63	0.006869
3036.2	0.004619
3047.78	0.004249
3059.35	0.005629
3070.92	0.005189
3082.5	0.006569
3094.07	0.005989
3105.65	0.002129
3117.22	0.0010876
3128.79	0.0008668
3140.37	0.000763
3151.94	0.000647
3163.52	0.000508
3175.09	0.0004653
3186.66	0.0004794
3198.24	0.0004722
3209.81	0.0005406
3221.39	0.0004005
3232.96	0.0003143
3244.53	0.00024851
3256.11	0.0001215
3267.68	7.9e-05
3279.26	8.71e-05
3290.83	0.000153
3302.4	6.2e-05
3313.98	6.2e-05
3325.55	7.8e-05
3337.13	5.2e-05
3348.7	0.0001204
3360.27	9.56e-05
3371.85	0.0001012
3383.42	0.0001231
3395	9.84e-05
3406.57	0.0001248
3418.14	0.0001541
3429.72	0.00021133
3441.29	0.0002555
3452.86	0.0003868
3464.44	0.0006589
3476.01	0.0011344
3487.59	0.001469
3499.16	0.002139
3510.73	0.003269
3522.31	0.003289
3533.88	0.002309
3545.46	0.001259
3557.03	0.0009286
3568.6	0.0006704
3580.18	0.0006532
3591.75	0.000434
3603.33	0.000387
3614.9	0.0002664
3626.47	0.00025224
3638.05	0.0003426
3649.62	0.0001525
3661.2	0.0002817
3672.77	0.0002986
3684.34	0.000319
3695.92	0.0003391
3707.49	0.00020235
3719.07	0.0001644
3730.64	0.0001501
3742.21	0.0001615
3753.79	9.31e-05
3765.36	0.000179548
3776.94	0.00022755
3788.51	0.00023278
3800.08	5.8e-05
3811.66	0.0001431
3823.23	0.00017323
3834.81	0.000149
3846.38	0.0001026
3857.95	4.8e-05
3869.53	3.9e-05
3881.1	5.7e-05
3892.68	0.000151
3904.25	7.4e-05
3915.82	7.3e-05
3927.4	8.08e-05
3938.97	0.000136
3950.55	0.00021374
3962.12	0.00020843
3973.69	0.00022717
3985.27	0.00023369
3996.84	0.00019649
