Infrared Spectrum: Dicyclopropylmethane
Formula: C 7 H 12
CAS: 5685-47-2
State: gas
Instrument: HP-GC/MS/IRD
Origin: NIST Mass Spectrometry Data Center
1/CM	ABSORBANCE
550	0.000148
562	0.0001624
574	0.0002112
586	0.0002936
598	0.0002584
610	0.000392
622	0.0001944
634	1.92e-05
646	0.0001904
658	0.0004016
670	0.000188
682	0.0002136
694	0.0001656
706	0.0001232
718	0.000428
730	0.0002808
742	0.0004392
754	0.0004864
766	0.0008784
778	0.0012392
790	0.0013664
802	0.0013408
814	0.0016544
826	0.0017256
838	0.0015584
850	0.0012912
862	0.0009456
874	0.000812
886	0.0006024
898	0.0005776
910	0.0007232
922	0.0008592
934	0.0009664
946	0.0007344
958	0.0008256
970	0.0013168
982	0.0020584
994	0.0023552
1006	0.0029776
1018	0.0032
1030	0.0022792
1042	0.0012256
1054	0.0007576
1066	0.000516
1078	0.0004368
1090	0.0003568
1102	0.000328
1114	0.0003152
1126	0.0001768
1138	0.0002288
1150	0.0003048
1162	0.0003136
1174	0.0004016
1186	0.0003776
1198	0.0003184
1210	0.000312
1222	0.0002736
1234	0.0002208
1246	0.000304
1258	0.0004144
1270	0.0004856
1282	0.0008872
1294	0.0011064
1306	0.0007016
1318	0.0003952
1330	0.000252
1342	0.0002112
1354	0.0002792
1366	0.0002736
1378	0.0002968
1390	0.0003088
1402	0.0003744
1414	0.0005264
1426	0.0008064
1438	0.000952
1450	0.001
1462	0.000944
1474	0.0006888
1486	0.0003424
1498	0.0002112
1510	0.0001888
1522	0.000168
1534	0.0001704
1546	0.0001936
1558	0.0001352
1570	0.0001376
1582	0.0001264
1594	0.000164
1606	0.0001704
1618	0.00014
1630	0.0001552
1642	0.0001288
1654	0.00016
1666	0.0001568
1678	0.00016
1690	0.0001176
1702	0.0001496
1714	0.000136
1726	0.0001624
1738	0.0001784
1750	0.00012
1762	0.0002152
1774	0.000176
1786	0.0002208
1798	0.0002864
1810	0.0002384
1822	0.0002128
1834	0.0001792
1846	0.000208
1858	0.0002096
1870	0.0001992
1882	0.0002376
1894	0.00022
1906	0.0002648
1918	0.0002808
1930	0.0002392
1942	0.0002032
1954	0.000164
1966	0.000124
1978	0.0001328
1990	0.0001216
2002	0.0001552
2014	0.0001976
2026	0.0002744
2038	0.0002976
2050	0.0003432
2062	0.0002664
2074	0.0002504
2086	0.0002464
2098	0.000184
2110	0.0001264
2122	0.0001072
2134	0.0001336
2146	9.76e-05
2158	8e-05
2170	0.0001128
2182	8.64e-05
2194	9.92e-05
2206	0.0001216
2218	9.52e-05
2230	0.0001144
2242	5.2e-05
2254	9.68e-05
2266	7.68e-05
2278	9.36e-05
2290	8.4e-05
2302	4.64e-05
2314	1.52e-05
2326	9.36e-05
2338	2.64e-05
2350	6.24e-05
2362	4.8e-05
2374	7.28e-05
2386	0.0001136
2398	8.8e-05
2410	0.0001272
2422	9.52e-05
2434	9.28e-05
2446	0.0001272
2458	0.0001632
2470	0.0001944
2482	0.0001528
2494	0.000112
2506	8e-05
2518	0.0001176
2530	0.0001216
2542	8.32e-05
2554	0.000124
2566	0.000112
2578	0.0001072
2590	9.6e-05
2602	9.92e-05
2614	0.0001312
2626	0.0001256
2638	7.36e-05
2650	0.000148
2662	0.0001208
2674	0.0001208
2686	0.0001304
2698	0.000196
2710	0.0001736
2722	0.000188
2734	0.0002128
2746	0.000204
2758	0.0001784
2770	0.000212
2782	0.0001552
2794	0.0002064
2806	0.000328
2818	0.0005248
2830	0.0008856
2842	0.0014224
2854	0.0017488
2866	0.0017472
2878	0.001812
2890	0.0027904
2902	0.0041536
2914	0.004376
2926	0.0027392
2938	0.0013512
2950	0.0008256
2962	0.0008608
2974	0.0014024
2986	0.0027784
2998	0.0056488
3010	0.0079344
3022	0.0069256
3034	0.0037336
3046	0.001996
3058	0.0021232
3070	0.0041832
3082	0.005968
3094	0.0047816
3106	0.0018056
3118	0.0006992
3130	0.0003608
3142	0.000312
3154	0.0002448
3166	0.000212
3178	0.0001848
3190	9.12e-05
3202	0.0001776
3214	0.0001624
3226	0.0001864
3238	0.0001632
3250	0.00024
3262	0.0002728
3274	0.0001584
3286	0.0002528
3298	0.0001624
3310	0.0001424
3322	0.0001176
3334	0.0001832
3346	0.0001088
3358	0.000152
3370	0.000148
3382	2.56e-05
3394	0.0002264
3406	0.0001168
3418	0.0002096
3430	0.0001528
3442	0.0001248
3454	0.0001496
3466	0.000216
3478	0.0001824
3490	0.0001464
3502	0.0001896
3514	0.000196
3526	0.0001392
3538	0.0001336
3550	0.0001672
3562	0.000196
3574	0.000184
3586	0.000108
3598	0.0001608
3610	7.04e-05
3622	0.0001544
3634	0.0001856
3646	0.00012
3658	0.0001528
3670	0.0001
3682	0.0001768
3694	0.0001712
3706	0.0001272
3718	7.76e-05
3730	0.0001568
3742	0.0002136
3754	0.0002336
3766	0.0002216
3778	0.0002192
3790	0.000256
3802	0.0002952
3814	0.000208
3826	0.0002416
3838	0.0002496
