Infrared Spectrum: Benzylamine, o-n-hexyloxy-N-methyl-N-2-propynyl-,
Formula: C17 H25 N O
CAS: 56862-38-5
State: LIQUID (NEAT)
Class: COBLENTZ III
Instrument: PERKIN-ELMER 21 (GRATING)
Instrument parameters: FILTER AT ABOUT 10 MICRONS
Path length: CAPILLARY
Resolution: 2
Origin: ABBOTT LABORATORIES
1/CM	TRANSMITTANCE
649	0.387
658	0.4635
667	0.5561
676	0.6206
685	0.6818
694	0.7119
703	0.6985
712	0.6215
721	0.5552
730	0.5475
739	0.5872
748	0.1876
757	0.2732
766	0.6371
775	0.7281
784	0.7176
793	0.7345
802	0.7665
811	0.7534
820	0.6888
829	0.6977
838	0.7048
847	0.6928
856	0.6854
865	0.7463
874	0.7826
883	0.7453
892	0.6666
901	0.6829
910	0.7659
919	0.7379
928	0.624
937	0.6195
946	0.6875
955	0.7088
964	0.6733
973	0.6607
982	0.6769
991	0.6609
1000	0.6038
1009	0.4539
1018	0.292
1027	0.2484
1036	0.3922
1045	0.349
1054	0.5533
1063	0.6485
1072	0.7236
1081	0.7316
1090	0.5797
1099	0.3346
1108	0.5026
1117	0.519
1126	0.4966
1135	0.6465
1144	0.7069
1153	0.6381
1162	0.7635
1171	0.7268
1180	0.6327
1189	0.5744
1198	0.6264
1207	0.5844
1216	0.4163
1225	0.2562
1234	0.0942
1243	0.1201
1252	0.2651
1261	0.4107
1270	0.4459
1279	0.4119
1288	0.4614
1297	0.543
1306	0.591
1315	0.4875
1324	0.4759
1333	0.6541
1342	0.6728
1351	0.5895
1360	0.4513
1369	0.5424
1378	0.5898
1387	0.6536
1396	0.7481
1405	0.7103
1414	0.6672
1423	0.5813
1432	0.4997
1441	0.2953
1450	0.1633
1459	0.2802
1468	0.3334
1477	0.4622
1486	0.1836
1495	0.5191
1504	0.7026
1513	0.7769
1522	0.8071
1531	0.8194
1540	0.8193
1549	0.8139
1558	0.7981
1567	0.7564
1576	0.6965
1585	0.5633
1594	0.4187
1603	0.511
1612	0.8153
1621	0.8234
1630	0.8268
1639	0.8284
1648	0.8292
1657	0.8274
1666	0.8239
1675	0.8216
1684	0.8363
1693	0.8436
1702	0.8461
1711	0.8466
1720	0.8467
1729	0.8468
1738	0.8465
1747	0.8462
1756	0.8458
1765	0.8455
1774	0.8452
1783	0.8449
1792	0.8446
1801	0.8443
1810	0.8438
1819	0.8431
1828	0.8424
1837	0.842
1846	0.8417
1855	0.8401
1864	0.8386
1873	0.8366
1882	0.8341
1891	0.8317
1900	0.8339
1909	0.8372
1918	0.8405
1927	0.843
1936	0.8453
1945	0.8467
1954	0.8476
1963	0.8466
1972	0.8455
1981	0.8443
1990	0.8431
1999	0.8418
2008	0.8405
2017	0.8388
2026	0.8371
2035	0.837
2044	0.8401
2053	0.8443
2062	0.8434
2071	0.8417
2080	0.8386
2089	0.8388
2098	0.8407
2107	0.8446
2116	0.8486
2125	0.8522
2134	0.8543
2143	0.8565
2152	0.8585
2161	0.8586
2170	0.8586
2179	0.8587
2188	0.8587
2197	0.8588
2206	0.8586
2215	0.8584
2224	0.8582
2233	0.8579
2242	0.8577
2251	0.8575
2260	0.8573
2269	0.8576
2278	0.8579
2287	0.8583
2296	0.8587
2305	0.8591
2314	0.8594
2323	0.8598
2332	0.8601
2341	0.8602
2350	0.8603
2359	0.8603
2368	0.8604
2377	0.8605
2386	0.8606
2395	0.8601
2404	0.8588
2413	0.8576
2422	0.8563
2431	0.8551
2440	0.8538
2449	0.8524
2458	0.851
2467	0.8496
2476	0.8497
2485	0.8501
2494	0.8505
2503	0.8508
2512	0.851
2521	0.8513
2530	0.8515
2539	0.8518
2548	0.851
2557	0.8499
2566	0.8487
2575	0.8476
2584	0.8453
2593	0.8427
2602	0.84
2611	0.8374
2620	0.8353
2629	0.8332
2638	0.8286
2647	0.8238
2656	0.8171
2665	0.8097
2674	0.8024
2683	0.7924
2692	0.781
2701	0.7696
2710	0.7553
2719	0.7367
2728	0.7155
2737	0.6735
2746	0.6362
2755	0.5995
2764	0.563
2773	0.5297
2782	0.5302
2791	0.5476
2800	0.5646
2809	0.5582
2818	0.4829
2827	0.4082
2836	0.3339
2845	0.2646
2854	0.257
2863	0.2681
2872	0.282
2881	0.2959
2890	0.3076
2899	0.2681
2908	0.2137
2917	0.1597
2926	0.1388
2935	0.1668
2944	0.2824
2953	0.3973
2962	0.5116
2971	0.625
2980	0.7189
2989	0.7319
2998	0.7354
3007	0.7373
3016	0.7391
3025	0.7404
3034	0.7417
3043	0.746
3052	0.7544
3061	0.7788
3070	0.8048
3079	0.8165
3088	0.8162
3097	0.8142
3106	0.8106
3115	0.8061
3124	0.7994
3133	0.7929
3142	0.7868
3151	0.7809
3160	0.7755
3169	0.771
3178	0.7664
3187	0.7618
3196	0.757
3205	0.7516
3214	0.7278
3223	0.6939
3232	0.6602
3241	0.6267
3250	0.5934
3259	0.5602
3268	0.5343
3277	0.532
3286	0.5381
3295	0.6159
3304	0.7132
3313	0.799
3322	0.8181
3331	0.8245
3340	0.8283
3349	0.8315
3358	0.8342
3367	0.8365
3376	0.8387
3385	0.8408
3394	0.843
3403	0.8452
3412	0.8474
3421	0.8496
3430	0.8518
3439	0.8541
3448	0.8565
3457	0.8588
3466	0.8596
3475	0.8602
3484	0.8609
3493	0.8613
3502	0.8612
3511	0.8611
3520	0.861
3529	0.861
3538	0.8609
3547	0.8608
3556	0.8608
3565	0.8606
3574	0.8604
3583	0.8603
3592	0.8601
3601	0.86
3610	0.8598
3619	0.8598
3628	0.8598
3637	0.8599
3646	0.86
3655	0.8601
3664	0.8601
3673	0.8602
3682	0.8604
3691	0.8605
3700	0.8608
3709	0.8609
3718	0.8612
3727	0.8614
3736	0.8616
3745	0.8618
3754	0.862
3763	0.8616
3772	0.8605
3781	0.859
3790	0.857
3799	0.855
3808	0.8531
3817	0.8513
3826	0.8507
3835	0.85
3844	0.8499
3853	0.8502
3862	0.8507
3871	0.8527
3880	0.8549
3889	0.8569
3898	0.8576
3907	0.8581
3916	0.8584
3925	0.8585
3934	0.8585
3943	0.8586
3952	0.8588
3961	0.8589
3970	0.8591
3979	0.8593
3988	0.8595
3997	0.8596
