Infrared Spectrum: Piperonylamine, N-methyl-N-2-propynyl-,
Formula: C12 H13 N O2
CAS: 56862-18-1
State: LIQUID (NEAT)
Class: COBLENTZ III
Instrument: PERKIN-ELMER 21 (GRATING)
Instrument parameters: FILTER AT ABOUT 10 MICRONS
Path length: CAPILLARY
Resolution: 2
Origin: ABBOTT LABORATORIES
1/CM	TRANSMITTANCE
668	0.5874
677	0.6495
686	0.7125
695	0.7562
704	0.7767
713	0.7364
722	0.7845
731	0.8186
740	0.8248
749	0.8245
758	0.8141
767	0.7492
776	0.5576
785	0.7391
794	0.7053
803	0.4051
812	0.4404
821	0.6581
830	0.7178
839	0.6896
848	0.7152
857	0.6615
866	0.5678
875	0.6638
884	0.7529
893	0.7103
902	0.7006
911	0.6734
920	0.4974
929	0.3352
938	0.4045
947	0.6466
956	0.7628
965	0.7637
974	0.7262
983	0.6878
992	0.7333
1001	0.74
1010	0.6717
1019	0.4425
1028	0.214
1037	0.1007
1046	0.4008
1055	0.6448
1064	0.728
1073	0.7412
1082	0.6841
1091	0.4929
1100	0.6007
1109	0.5726
1118	0.5372
1127	0.5403
1136	0.6826
1145	0.7471
1154	0.7585
1163	0.732
1172	0.6014
1181	0.4966
1190	0.5312
1199	0.5982
1208	0.5986
1217	0.4975
1226	0.251
1235	0.0964
1244	0.0989
1253	0.2336
1262	0.4548
1271	0.595
1280	0.6323
1289	0.6958
1298	0.6892
1307	0.6935
1316	0.6571
1325	0.5718
1334	0.6054
1343	0.5752
1352	0.5446
1361	0.5493
1370	0.474
1379	0.5914
1388	0.7128
1397	0.7068
1406	0.6624
1415	0.5992
1424	0.5276
1433	0.2734
1442	0.1441
1451	0.4057
1460	0.4843
1469	0.5065
1478	0.364
1487	0.1014
1496	0.2266
1505	0.5798
1514	0.6974
1523	0.7579
1532	0.7911
1541	0.8042
1550	0.8063
1559	0.8038
1568	0.7999
1577	0.7956
1586	0.7883
1595	0.7678
1604	0.7215
1613	0.7817
1622	0.7909
1631	0.7882
1640	0.8157
1649	0.8238
1658	0.8266
1667	0.8226
1676	0.8248
1685	0.819
1694	0.7831
1703	0.7287
1712	0.6914
1721	0.7806
1730	0.8262
1739	0.8362
1748	0.8446
1757	0.8537
1766	0.8615
1775	0.8663
1784	0.8669
1793	0.8664
1802	0.8656
1811	0.8648
1820	0.8625
1829	0.8565
1838	0.8474
1847	0.8367
1856	0.8358
1865	0.8438
1874	0.8595
1883	0.8681
1892	0.8732
1901	0.8754
1910	0.8773
1919	0.879
1928	0.8788
1937	0.8765
1946	0.8741
1955	0.8736
1964	0.8742
1973	0.8745
1982	0.873
1991	0.87
2000	0.8673
2009	0.8648
2018	0.8641
2027	0.864
2036	0.8643
2045	0.8651
2054	0.8659
2063	0.8667
2072	0.8675
2081	0.8688
2090	0.8705
2099	0.8727
2108	0.8751
2117	0.8765
2126	0.877
2135	0.8773
2144	0.8772
2153	0.877
2162	0.8768
2171	0.8766
2180	0.8761
2189	0.8756
2198	0.8751
2207	0.8746
2216	0.8741
2225	0.8736
2234	0.8731
2243	0.8725
2252	0.872
2261	0.8714
2270	0.871
2279	0.8711
2288	0.8712
2297	0.8712
2306	0.8713
2315	0.8714
2324	0.8716
2333	0.8717
2342	0.8719
2351	0.8723
2360	0.8731
2369	0.8738
2378	0.8745
2387	0.8753
2396	0.8766
2405	0.8779
2414	0.8791
2423	0.8791
2432	0.8788
2441	0.8783
2450	0.8777
2459	0.8771
2468	0.8755
2477	0.8739
2486	0.8722
2495	0.8703
2504	0.8683
2513	0.8664
2522	0.8642
2531	0.8619
2540	0.8596
2549	0.8578
2558	0.8564
2567	0.855
2576	0.8538
2585	0.8539
2594	0.8541
2603	0.8549
2612	0.855
2621	0.8539
2630	0.8516
2639	0.8479
2648	0.8426
2657	0.836
2666	0.8304
2675	0.825
2684	0.8198
2693	0.8124
2702	0.8002
2711	0.785
2720	0.7711
2729	0.7497
2738	0.7002
2747	0.6488
2756	0.5977
2765	0.5433
2774	0.5349
2783	0.5421
2792	0.5652
2801	0.5842
2810	0.5849
2819	0.5751
2828	0.5621
2837	0.5491
2846	0.5362
2855	0.5239
2864	0.5157
2873	0.5124
2882	0.5128
2891	0.5188
2900	0.5301
2909	0.5453
2918	0.5602
2927	0.5812
2936	0.6029
2945	0.6188
2954	0.6371
2963	0.6645
2972	0.6916
2981	0.7112
2990	0.7293
2999	0.7526
3008	0.7833
3017	0.7946
3026	0.7988
3035	0.8016
3044	0.8042
3053	0.807
3062	0.8108
3071	0.8195
3080	0.8312
3089	0.8322
3098	0.8316
3107	0.831
3116	0.8293
3125	0.8272
3134	0.8243
3143	0.8209
3152	0.8175
3161	0.8135
3170	0.8094
3179	0.8051
3188	0.8008
3197	0.7964
3206	0.7911
3215	0.7856
3224	0.7779
3233	0.7567
3242	0.7095
3251	0.6624
3260	0.6157
3269	0.5698
3278	0.5547
3287	0.5559
3296	0.5718
3305	0.6892
3314	0.831
3323	0.841
3332	0.8479
3341	0.8514
3350	0.8536
3359	0.8556
3368	0.8575
3377	0.8593
3386	0.861
3395	0.8626
3404	0.8643
3413	0.8659
3422	0.8674
3431	0.869
3440	0.8706
3449	0.8717
3458	0.8721
3467	0.8723
3476	0.8726
3485	0.8729
3494	0.8732
3503	0.8736
3512	0.8744
3521	0.8756
3530	0.8769
3539	0.8772
3548	0.8771
3557	0.877
3566	0.8769
3575	0.877
3584	0.8772
3593	0.8775
3602	0.8781
3611	0.8803
3620	0.8826
3629	0.8839
3638	0.8844
3647	0.8849
3656	0.8853
3665	0.8852
3674	0.885
3683	0.8848
3692	0.8847
3701	0.8844
3710	0.8841
3719	0.8839
3728	0.8837
3737	0.8834
3746	0.8831
3755	0.8825
3764	0.8818
3773	0.8812
3782	0.8806
3791	0.8799
3800	0.8792
3809	0.8784
3818	0.8774
3827	0.8765
3836	0.8756
3845	0.8747
3854	0.8735
3863	0.872
3872	0.8707
3881	0.8701
3890	0.87
3899	0.8702
3908	0.8707
3917	0.8714
3926	0.8723
3935	0.8731
3944	0.8738
3953	0.8746
3962	0.8755
3971	0.8763
3980	0.8771
3989	0.8778
3998	0.8783
