Infrared Spectrum: CHLOROTRIANISENE
Formula: C23 H21 Cl O3
CAS: 569-57-3
State: SOLID (0.95 mg / 200 mg KBr DISC) VS KBr
Melting point: 114-116 C
Class: COBLENTZ III
Instrument: PERKIN-ELMER 21 (GRATING)
Instrument parameters: FILTER AT ABOUT 10 MICRONS
Sampling: TRANSMISSION
Path length: 0.055 CM (THICKNESS)
Resolution: 2
1/CM	TRANSMITTANCE
4000	0.6077
3991	0.608
3982	0.6081
3973	0.6081
3964	0.6081
3955	0.6081
3946	0.6081
3937	0.6089
3928	0.6099
3919	0.6109
3910	0.6118
3901	0.6123
3892	0.6128
3883	0.6131
3874	0.6135
3865	0.614
3856	0.6144
3847	0.6148
3838	0.6152
3829	0.6153
3820	0.6154
3811	0.6155
3802	0.6157
3793	0.6158
3784	0.6159
3775	0.6162
3766	0.6165
3757	0.6167
3748	0.6171
3739	0.6174
3730	0.6179
3721	0.6198
3712	0.6217
3703	0.6238
3694	0.6252
3685	0.6258
3676	0.6262
3667	0.6268
3658	0.6273
3649	0.628
3640	0.6288
3631	0.6295
3622	0.6303
3613	0.631
3604	0.6319
3595	0.6327
3586	0.6335
3577	0.6341
3568	0.6348
3559	0.6354
3550	0.636
3541	0.6367
3532	0.6374
3523	0.638
3514	0.6387
3505	0.6394
3496	0.6403
3487	0.6411
3478	0.6421
3469	0.643
3460	0.6442
3451	0.6457
3442	0.6471
3433	0.6487
3424	0.6503
3415	0.6518
3406	0.6534
3397	0.6543
3388	0.6547
3379	0.6551
3370	0.6556
3361	0.656
3352	0.6565
3343	0.6568
3334	0.6572
3325	0.6576
3316	0.6582
3307	0.6586
3298	0.6594
3289	0.6601
3280	0.6608
3271	0.6617
3262	0.6636
3253	0.6661
3244	0.6671
3235	0.6675
3226	0.6678
3217	0.6682
3208	0.6684
3199	0.6687
3190	0.669
3181	0.6693
3172	0.6694
3163	0.6693
3154	0.6692
3145	0.6692
3136	0.669
3127	0.6689
3118	0.6688
3109	0.6687
3100	0.6687
3091	0.6686
3082	0.6685
3073	0.6656
3064	0.6598
3055	0.6548
3046	0.6521
3037	0.6507
3028	0.6498
3019	0.6488
3010	0.6481
3001	0.644
2992	0.636
2983	0.6292
2974	0.6226
2965	0.6171
2956	0.612
2947	0.6089
2938	0.6062
2929	0.6058
2920	0.6058
2911	0.606
2902	0.6106
2893	0.6149
2884	0.6178
2875	0.6202
2866	0.6209
2857	0.6193
2848	0.6192
2839	0.6198
2830	0.6228
2821	0.6262
2812	0.6301
2803	0.6343
2794	0.639
2785	0.6437
2776	0.6498
2767	0.6561
2758	0.6615
2749	0.6661
2740	0.6703
2731	0.6735
2722	0.676
2713	0.6774
2704	0.6785
2695	0.6792
2686	0.6798
2677	0.681
2668	0.6824
2659	0.6839
2650	0.6858
2641	0.688
2632	0.6901
2623	0.6922
2614	0.694
2605	0.6942
2596	0.6945
2587	0.6944
2578	0.6935
2569	0.6928
2560	0.6925
2551	0.6921
2542	0.6917
2533	0.6915
2524	0.6919
2515	0.6925
2506	0.6942
2497	0.6957
2488	0.6969
2479	0.6983
2470	0.6997
2461	0.701
2452	0.7022
2443	0.7036
2434	0.7075
2425	0.7117
2416	0.7154
2407	0.7175
2398	0.7191
2389	0.7195
2380	0.7199
2371	0.72
2362	0.7197
2353	0.7194
2344	0.719
2335	0.7195
2326	0.723
2317	0.7257
2308	0.7285
2299	0.7315
2290	0.7348
2281	0.7375
2272	0.7397
2263	0.7417
2254	0.7437
2245	0.7457
2236	0.7476
2227	0.7501
2218	0.7532
2209	0.756
2200	0.7584
2191	0.7599
2182	0.7615
2173	0.7656
2164	0.7689
2155	0.7706
2146	0.7715
2137	0.774
2128	0.7767
2119	0.7794
2110	0.7817
2101	0.7838
2092	0.7856
2083	0.7867
2074	0.785
2065	0.7728
2056	0.7654
2047	0.7632
2038	0.7636
2029	0.7647
2020	0.7661
2011	0.7696
2002	0.7765
1993	0.7818
1984	0.7865
1975	0.7885
1966	0.7894
1957	0.7912
1948	0.7957
1939	0.8007
1930	0.8033
1921	0.8041
1912	0.8046
1903	0.805
1894	0.7835
1885	0.7762
1876	0.7841
1867	0.7936
1858	0.8011
1849	0.804
1840	0.8078
1831	0.8125
1822	0.8182
1813	0.8228
1804	0.8273
1795	0.8285
1786	0.8293
1777	0.8299
1768	0.8306
1759	0.8318
1750	0.8353
1741	0.8391
1732	0.8421
1723	0.8454
1714	0.8489
1705	0.8531
1696	0.8568
1687	0.8596
1678	0.8618
1669	0.8635
1660	0.8642
1651	0.8634
1642	0.8608
1633	0.85
1624	0.728
1615	0.363
1606	0.3324
1597	0.5395
1588	0.7138
1579	0.6775
1570	0.7148
1561	0.7635
1552	0.8251
1543	0.8368
1534	0.8358
1525	0.6484
1516	0.2374
1507	0.29
1498	0.4775
1489	0.5841
1480	0.6584
1471	0.5751
1462	0.5052
1453	0.596
1444	0.5619
1435	0.6714
1426	0.7458
1417	0.7365
1408	0.7443
1399	0.7721
1390	0.7998
1381	0.8144
1372	0.8256
1363	0.8307
1354	0.836
1345	0.8452
1336	0.8594
1327	0.8705
1318	0.865
1309	0.7075
1300	0.5507
1291	0.3627
1282	0.3749
1273	0.5702
1264	0.5939
1255	0.1454
1246	0.0746
1237	0.2308
1228	0.4201
1219	0.5469
1210	0.6324
1201	0.6984
1192	0.7265
1183	0.4376
1174	0.3097
1165	0.4483
1156	0.5786
1147	0.531
1138	0.6487
1129	0.686
1120	0.7112
1111	0.5852
1102	0.5786
1093	0.6989
1084	0.7293
1075	0.7467
1066	0.7654
1057	0.7854
1048	0.7901
1039	0.6574
1030	0.3058
1021	0.3675
1012	0.5079
1003	0.6522
994	0.6936
985	0.7484
976	0.7633
967	0.6229
958	0.7326
949	0.7448
940	0.7698
931	0.7695
922	0.7725
913	0.8042
904	0.8133
895	0.8232
886	0.8287
877	0.8414
868	0.6958
859	0.7439
850	0.6521
841	0.7094
832	0.378
823	0.504
814	0.4573
805	0.5668
796	0.6582
787	0.7058
778	0.7615
769	0.5692
760	0.6694
751	0.7535
742	0.7794
733	0.7825
724	0.7834
715	0.7917
706	0.7699
697	0.8011
688	0.8071
679	0.8148
670	0.8178
