Infrared Spectrum: MECLIZINE
Formula: C25 H27 Cl N2
CAS: 569-65-3
State: SOLUTION 1.3% (CS2 FOR 2-15 microns, AND C2Cl4 FOR 5-7.2 microns)
Boiling point: 230 C AT 2 mmHg
Class: COBLENTZ III
Instrument: PERKIN-ELMER 21 (GRATING)
Instrument parameters: FILTER AT ABOUT 10 MICRONS
Sampling: TRANSMISSION
Path length: 0.1 CM
Resolution: 2
1/CM	TRANSMITTANCE
4000	0.9585
3991	0.9578
3982	0.9578
3973	0.9582
3964	0.9584
3955	0.9586
3946	0.9588
3937	0.959
3928	0.9592
3919	0.9593
3910	0.9596
3901	0.9599
3892	0.9604
3883	0.9609
3874	0.9613
3865	0.9618
3856	0.9624
3847	0.9628
3838	0.9633
3829	0.9638
3820	0.9642
3811	0.9644
3802	0.9647
3793	0.965
3784	0.9652
3775	0.9654
3766	0.9656
3757	0.9659
3748	0.9662
3739	0.9664
3730	0.9666
3721	0.9667
3712	0.9668
3703	0.9671
3694	0.9671
3685	0.9674
3676	0.9675
3667	0.9675
3658	0.9678
3649	0.9683
3640	0.9689
3631	0.9694
3622	0.9699
3613	0.9706
3604	0.9717
3595	0.9727
3586	0.9737
3577	0.9743
3568	0.9749
3559	0.9753
3550	0.9758
3541	0.9763
3532	0.9767
3523	0.9766
3514	0.9764
3505	0.9761
3496	0.9759
3487	0.9757
3478	0.9754
3469	0.9753
3460	0.9752
3451	0.9751
3442	0.9749
3433	0.9748
3424	0.9747
3415	0.9746
3406	0.9746
3397	0.9744
3388	0.9742
3379	0.974
3370	0.9738
3361	0.9736
3352	0.9733
3343	0.9731
3334	0.9728
3325	0.9727
3316	0.9725
3307	0.9724
3298	0.9721
3289	0.9721
3280	0.972
3271	0.9718
3262	0.9718
3253	0.9716
3244	0.9712
3235	0.9708
3226	0.9704
3217	0.9699
3208	0.9696
3199	0.9693
3190	0.9689
3181	0.9686
3172	0.9681
3163	0.9675
3154	0.9668
3145	0.9662
3136	0.9654
3127	0.964
3118	0.9617
3109	0.9159
3100	0.8878
3091	0.8599
3082	0.8315
3073	0.8031
3064	0.7745
3055	0.7607
3046	0.7568
3037	0.7178
3028	0.6942
3019	0.7268
3010	0.7656
3001	0.8044
2992	0.8243
2983	0.7539
2974	0.6618
2965	0.6304
2956	0.6287
2947	0.6244
2938	0.6122
2929	0.6071
2920	0.6069
2911	0.6271
2902	0.6607
2893	0.6675
2884	0.6696
2875	0.6808
2866	0.6971
2857	0.7136
2848	0.7194
2839	0.6694
2830	0.6054
2821	0.5409
2812	0.476
2803	0.4109
2794	0.3905
2785	0.4202
2776	0.4564
2767	0.4825
2758	0.5012
2749	0.5986
2740	0.7028
2731	0.7564
2722	0.7848
2713	0.7976
2704	0.8011
2695	0.8075
2686	0.8187
2677	0.8368
2668	0.86
2659	0.8775
2650	0.8907
2641	0.9049
2632	0.9181
2623	0.929
2614	0.9304
2605	0.9323
2596	0.9342
2587	0.9362
2578	0.9382
2569	0.9402
2560	0.9423
2551	0.9448
2542	0.9471
2533	0.9498
2524	0.9544
2515	0.9562
2506	0.9578
2497	0.9589
2488	0.9599
2479	0.9609
2470	0.9615
2461	0.962
2452	0.9625
2443	0.963
2434	0.9634
2425	0.9637
2416	0.9637
2407	0.9635
2398	0.9634
2389	0.9628
2380	0.9623
2371	0.9618
2362	0.9623
2353	0.9627
2344	0.9637
2335	0.9647
2326	0.9663
2317	0.9682
2308	0.9701
2299	0.9721
2290	0.9725
2281	0.9698
2272	0.9684
2263	0.9678
2254	0.9682
2245	0.9684
2236	0.9689
2227	0.9698
2218	0.9706
2209	0.969
2200	0.9666
2191	0.964
2182	0.9628
2173	0.962
2164	0.962
2155	0.9621
2146	0.9621
2137	0.9623
2128	0.9623
2119	0.9625
2110	0.9628
2101	0.9646
2092	0.9674
2083	0.9712
2074	0.9748
2065	0.9768
2056	0.977
2047	0.9714
2038	0.9698
2029	0.9703
2020	0.9707
2011	0.9717
2002	0.9725
1993	0.9728
1984	0.9728
1975	0.9709
1966	0.9658
1957	0.9553
1948	0.9478
1939	0.9418
1930	0.9431
1921	0.9525
1912	0.958
1903	0.9566
1894	0.948
1885	0.9462
1876	0.9452
1867	0.9523
1858	0.9589
1849	0.9623
1840	0.9662
1831	0.9687
1822	0.9674
1813	0.9604
1804	0.9547
1795	0.9534
1786	0.9509
1777	0.9489
1768	0.9548
1759	0.96
1750	0.9625
1741	0.9674
1732	0.9743
1723	0.9805
1714	0.9811
1705	0.9778
1696	0.9736
1687	0.9696
1678	0.9666
1669	0.966
1660	0.9681
1651	0.9717
1642	0.972
1633	0.9671
1624	0.9455
1615	0.8335
1606	0.8162
1597	0.8248
1588	0.8906
1579	0.9366
1570	0.9643
1561	0.9732
1552	0.977
1543	0.9767
1534	0.9702
1525	0.973
1516	0.9756
1507	0.8906
1498	0.549
1489	0.4157
1480	0.7868
1471	0.8174
1462	0.7144
1453	0.5284
1444	0.7887
1435	0.8585
1426	0.902
1417	0.9043
1408	0.8071
1399	0.8757
1390	0.8728
1381	0.8289
1372	0.7598
1363	0.7992
1354	0.7617
1345	0.6528
1336	0.6035
1327	0.6721
1318	0.7378
1309	0.6376
1300	0.602
1291	0.5538
1282	0.5898
1273	0.68
1264	0.7565
1255	0.8135
1246	0.8609
1237	0.9041
1228	0.9163
1219	0.9304
1210	0.9259
1201	0.8871
1192	0.8144
1183	0.7361
1174	0.7568
1165	0.7182
1156	0.5306
1147	0.478
1138	0.3476
1129	0.5232
1120	0.7496
1111	0.7541
1102	0.7612
1093	0.5581
1084	0.5233
1075	0.8409
1066	0.8549
1057	0.9197
1048	0.9186
1039	0.8898
1030	0.818
1021	0.8571
1012	0.429
1003	0.4498
994	0.818
985	0.8895
976	0.9064
967	0.9103
958	0.9105
949	0.8245
940	0.8642
931	0.9259
922	0.908
913	0.8189
904	0.9289
895	0.8588
886	0.8614
877	0.8271
868	0.8321
859	0.7601
850	0.6851
841	0.7103
832	0.7968
823	0.8328
814	0.7593
805	0.5698
796	0.6567
787	0.836
778	0.6139
769	0.597
760	0.7304
751	0.679
742	0.7481
733	0.8727
724	0.8796
715	0.556
706	0.6703
697	0.345
688	0.7426
679	0.9318
670	0.9549
