Infrared Spectrum: 1,8-Dimethylnaphthalene
Formula: C 12 H 12
CAS: 569-41-5
State: gas
Instrument: HP-GC/MS/IRD
Origin: NIST Mass Spectrometry Data Center
1/CM	ABSORBANCE
550	0.0006096
562	0.00068
574	0.000632
586	0.000144
598	0.0001776
610	0.00012
622	0.0001264
634	6.56e-05
646	0.0001152
658	8e-05
670	0.0003168
682	0.0003328
694	0.0002432
706	0.0003408
718	0.0003872
730	0.000512
742	0.0019152
754	0.0086352
766	0.014752
778	0.0052576
790	0.0035232
802	0.0080112
814	0.0076112
826	0.0023536
838	0.0005536
850	0.0004048
862	0.0002752
874	0.0001872
886	0.0002576
898	0.0002992
910	0.0002144
922	0.0002544
934	0.0006
946	0.0009408
958	0.000632
970	0.000504
982	0.0004192
994	0.0003872
1006	0.0003808
1018	0.0006448
1030	0.00128
1042	0.0022224
1054	0.0014608
1066	0.0004048
1078	0.0003696
1090	0.0003408
1102	0.0007664
1114	0.0012224
1126	0.0005632
1138	0.0002128
1150	0.0001504
1162	0.0005424
1174	0.0005744
1186	0.0002944
1198	0.0003696
1210	0.0004144
1222	0.0002704
1234	0.000288
1246	0.0008128
1258	0.0014
1270	0.0008576
1282	0.0003664
1294	0.0002352
1306	0.000304
1318	0.0004032
1330	0.000408
1342	0.0004512
1354	0.0010512
1366	0.0017744
1378	0.0016368
1390	0.0015376
1402	0.0012352
1414	0.00132
1426	0.002048
1438	0.0040832
1450	0.0052688
1462	0.0040576
1474	0.0028432
1486	0.001904
1498	0.0018976
1510	0.0015872
1522	0.000928
1534	0.0006384
1546	0.00068
1558	0.001016
1570	0.0019392
1582	0.0032432
1594	0.0028784
1606	0.0014048
1618	0.0007248
1630	0.0005104
1642	0.0004176
1654	0.0004176
1666	0.000408
1678	0.0004352
1690	0.0005568
1702	0.0006944
1714	0.0006784
1726	0.0003296
1738	0.0002016
1750	0.0002736
1762	0.0006448
1774	0.000944
1786	0.0005152
1798	0.000216
1810	0.0001776
1822	0.000288
1834	0.0005264
1846	0.0006672
1858	0.000552
1870	0.000264
1882	0.0001648
1894	0.0003056
1906	0.0008192
1918	0.0012688
1930	0.000664
1942	0.0001872
1954	9.12e-05
1966	8.64e-05
1978	7.2e-05
1990	5.6e-05
2002	6.24e-05
2014	4.32e-05
2026	5.76e-05
2038	4.48e-05
2050	4.96e-05
2062	3.52e-05
2074	2.56e-05
2086	2.24e-05
2098	2.08e-05
2110	0
2122	1.92e-05
2134	2.4e-05
2146	4.32e-05
2158	3.04e-05
2170	1.92e-05
2182	1.92e-05
2194	2.56e-05
2206	3.52e-05
2218	3.36e-05
2230	3.52e-05
2242	5.44e-05
2254	6.4e-05
2266	3.84e-05
2278	3.84e-05
2290	4.8e-05
2302	4.8e-05
2314	0.0001248
2326	0.0001824
2338	0.0001744
2350	0.0001312
2362	0.0001008
2374	0.0001088
2386	0.00012
2398	0.0001408
2410	0.0001152
2422	0.0001056
2434	0.0001072
2446	9.6e-05
2458	8.64e-05
2470	0.0001072
2482	0.0001008
2494	0.0001104
2506	0.0001216
2518	8.32e-05
2530	0.0001008
2542	8.96e-05
2554	7.68e-05
2566	6.08e-05
2578	5.76e-05
2590	7.84e-05
2602	0.0001136
2614	0.000104
2626	0.000136
2638	9.76e-05
2650	0.0001216
2662	0.0001632
2674	0.0001328
2686	0.0001088
2698	0.0001344
2710	0.0001424
2722	0.0001872
2734	0.0003296
2746	0.0004304
2758	0.0003616
2770	0.0003616
2782	0.000336
2794	0.0003424
2806	0.0004064
2818	0.000464
2830	0.0005536
2842	0.0006752
2854	0.0009168
2866	0.001456
2878	0.0023728
2890	0.0027264
2902	0.0026256
2914	0.0035104
2926	0.0048208
2938	0.0066192
2950	0.007384
2962	0.0066896
2974	0.0093504
2986	0.0097312
2998	0.0056432
3010	0.0048896
3022	0.0058432
3034	0.0075072
3046	0.009304
3058	0.0113728
3070	0.0087488
3082	0.0042784
3094	0.0030224
3106	0.001904
3118	0.0009216
3130	0.0005216
3142	0.0004224
3154	0.000392
3166	0.0003648
3178	0.0003776
3190	0.0003472
3202	0.0003728
3214	0.0003312
3226	0.0001968
3238	0.0001488
3250	0.0001152
3262	9.12e-05
3274	7.68e-05
3286	0.0001056
3298	0.0001312
3310	0.0001184
3322	6.24e-05
3334	9.12e-05
3346	0.0001024
3358	5.6e-05
3370	0.0001008
3382	8e-05
3394	4.16e-05
3406	0.000112
3418	4e-05
3430	6.08e-05
3442	4.32e-05
3454	7.2e-05
3466	6.4e-06
3478	5.6e-05
3490	9.76e-05
3502	7.04e-05
3514	0.000104
3526	4.96e-05
3538	4.8e-05
3550	5.28e-05
3562	8e-05
3574	6.4e-05
3586	6.24e-05
3598	7.36e-05
3610	7.68e-05
3622	6.56e-05
3634	4.48e-05
3646	1.92e-05
3658	2.56e-05
3670	4.48e-05
3682	5.76e-05
3694	5.6e-05
3706	5.92e-05
3718	4e-05
3730	9.44e-05
3742	8.32e-05
3754	6.72e-05
3766	7.36e-05
3778	9.76e-05
3790	0.0001104
3802	0.0001904
3814	0.0001536
3826	0.0001808
3838	0.0001856
