Infrared Spectrum: 3,5-Dibromobenzyl bromide
Formula: C 7 H 5 Br 3
CAS: 56908-88-4
State: gas
Origin: EPA-IR VAPOR PHASE LIBRARY
1/CM	ABSORBANCE
549.8	0.0016896
559.445	0.01523
569.09	0.01951
578.734	0.00372
588.379	0.0021756
598.024	0.00125645
607.669	0.00225
617.313	0.00239
626.958	0.00626
636.603	0.00986
646.248	0.00679
655.893	0.00604
665.537	0.00849
675.182	0.01983
684.827	0.02815
694.472	0.00946
704.116	0.00431
713.761	0.00347
723.406	0.00384
733.051	0.01064
742.695	0.04919
752.34	0.0483
761.985	0.00951
771.63	0.00338
781.275	0.00123868
790.919	0.0014805
800.564	0.001077
810.209	0.0016848
819.854	0.00131549
829.498	0.00354
839.143	0.00596
848.788	0.01096
858.433	0.0197
868.078	0.01307
877.722	0.00708
887.367	0.00861
897.012	0.00624
906.657	0.00371
916.301	0.00276
925.946	0.00233
935.591	0.00121421
945.236	0.000941
954.88	0.000792
964.525	0.00125793
974.17	0.0013694
983.815	0.0021737
993.46	0.00299
1003.1	0.0019373
1012.75	0.00224
1022.39	0.0015717
1032.04	0
1041.68	0.000675
1051.33	0.00071
1060.97	0.00072
1070.62	0.0016006
1080.26	0.00299
1089.91	0.00785
1099.55	0.00982
1109.2	0.00611
1118.84	0.00618
1128.49	0.00324
1138.13	0.0016214
1147.78	0.00302
1157.42	0.00231
1167.07	0.00284
1176.71	0.00314
1186.36	0.00416
1196	0.00777
1205.64	0.01679
1215.29	0.03851
1224.93	0.04995
1234.58	0.02858
1244.22	0.0142
1253.87	0.00626
1263.51	0.00612
1273.16	0.00574
1282.8	0.00322
1292.45	0.00277
1302.09	0.00243
1311.74	0.0017258
1321.38	0.0020794
1331.03	0.00237
1340.67	0.00286
1350.32	0.00431
1359.96	0.00837
1369.61	0.01141
1379.25	0.00713
1388.9	0.00641
1398.54	0.00814
1408.18	0.01659
1417.83	0.03782
1427.47	0.04512
1437.12	0.01789
1446.76	0.00822
1456.41	0.00537
1466.05	0.00316
1475.7	0.0020599
1485.34	0.0021106
1494.99	0.0018699
1504.63	0.00232
1514.28	0.00307
1523.92	0.00487
1533.57	0.01053
1543.21	0.03181
1552.86	0.07363
1562.5	0.06634
1572.15	0.0288
1581.79	0.03761
1591.44	0.02453
1601.08	0.00716
1610.73	0.00418
1620.37	0.00303
1630.01	0.00299
1639.66	0.00268
1649.3	0.00222
1658.95	0.001808
1668.59	0.0020189
1678.24	0.0015928
1687.88	0.0018059
1697.53	0.0017625
1707.17	0.0020476
1716.82	0.00303
1726.46	0.00436
1736.11	0.00392
1745.75	0.0029
1755.4	0.00414
1765.04	0.00366
1774.69	0.00266
1784.33	0.0021733
1793.98	0.0017674
1803.62	0.0014895
1813.27	0.0012004
1822.91	0.001114
1832.55	0.0011676
1842.2	0.001403
1851.84	0.0014588
1861.49	0.00128435
1871.13	0.00112
1880.78	0.001154
1890.42	0.00123738
1900.07	0.0011328
1909.71	0.001085
1919.36	0.001107
1929	0.000988
1938.65	0.0011686
1948.29	0.0014092
1957.94	0.000918
1967.58	0.0011616
1977.23	0.0011583
1986.87	0.0011598
1996.52	0.0014863
2006.16	0.001152
2015.81	0.0011907
2025.45	0.000892
2035.1	0.00122941
2044.74	0.0011458
2054.38	0.00091
2064.03	0.0011881
2073.67	0.0013492
2083.32	0.001002
2092.96	0.0012887
2102.61	0.000853
2112.25	0.0011205
2121.9	0.0011423
2131.54	0.000978
2141.19	0.000987
2150.83	0.0011811
2160.48	0.00109
2170.12	0.00122403
2179.77	0.00127758
2189.41	0.000989
2199.06	0.001096
2208.7	0.001064
2218.35	0.00129406
2227.99	0.001007
2237.64	0.0011787
2247.28	0.001113
2256.92	0.00124034
2266.57	0.00104
2276.21	0.0013432
2285.86	0.0011234
2295.5	0.001398
2305.15	0.001158
2314.79	0.0013396
2324.44	0.001096
2334.08	0.00129701
2343.73	0.00152
2353.37	0.0013585
2363.02	0.00124675
2372.66	0.0014465
2382.31	0.001763
2391.95	0.001751
2401.6	0.0018025
2411.24	0.0016053
2420.89	0.0013486
2430.53	0.001029
2440.18	0.0014976
2449.82	0.0013581
2459.47	0.001173
2469.11	0.0013342
2478.75	0.0011229
2488.4	0.001089
2498.04	0.0011744
2507.69	0.000782
2517.33	0.0011842
2526.98	0.00126015
2536.62	0.000758
2546.27	0.0012538
2555.91	0.00099
2565.56	0.0013381
2575.2	0.0011965
2584.85	0.001059
2594.49	0.0011768
2604.14	0.001177
2613.78	0.0014245
2623.43	0.0013384
2633.07	0.0013617
2642.72	0.001639
2652.36	0.0017887
2662.01	0.0016686
2671.65	0.0017677
2681.29	0.0018193
2690.94	0.001033
2700.58	0.0014306
2710.23	0.001102
2719.87	0.000888
2729.52	0.000863
2739.16	0.0013812
2748.81	0.000979
2758.45	0.0014177
2768.1	0.000833
2777.74	0.00128816
2787.39	0.0014511
2797.03	0.00123917
2806.68	0.001484
2816.32	0.00122102
2825.97	0.0015013
2835.61	0.0018278
2845.26	0.0018549
2854.9	0.0017227
2864.55	0.0012005
2874.19	0.0016184
2883.84	0.0013298
2893.48	0.00125978
2903.12	0.001647
2912.77	0.00096
2922.41	0.000979
2932.06	0.000897
2941.7	0.00127295
2951.35	0.0021952
2960.99	0.00275
2970.64	0.0035
2980.28	0.00604
2989.93	0.00383
2999.57	0.002064
3009.22	0.0021602
3018.86	0.00233
3028.51	0.0021776
3038.15	0.0014708
3047.8	0.0014895
3057.44	0.0019661
3067.09	0.0020401
3076.73	0.0021238
3086.38	0.0017985
3096.02	0.000624
3105.67	0.0013521
3115.31	0.000926
3124.95	0.0013784
3134.6	0.0016359
3144.24	0.0014402
3153.89	0.0015645
3163.53	0.0017155
3173.18	0.001051
3182.82	0.001534
3192.47	0.001102
3202.11	0.000465
3211.76	0.000921
3221.4	0.0018136
3231.05	0.000963
3240.69	0.00125238
3250.34	0.001017
3259.98	0.001066
3269.63	0.000959
3279.27	0.000321
3288.92	0.0014185
3298.56	0.001063
3308.21	0.000738
3317.85	0.000884
3327.49	0.0011581
3337.14	0.0014372
3346.78	0.0014955
3356.43	0.00127673
3366.07	0.001203
3375.72	0.0014709
3385.36	0.001037
3395.01	0.001704
3404.65	0.001115
3414.3	0.000953
3423.94	0.001001
3433.59	0.000913
3443.23	0.0015416
3452.88	0.000798
3462.52	0.001
3472.17	0.001003
3481.81	0.0013257
3491.46	0.000946
3501.1	0.000976
3510.75	0.001
3520.39	0.000842
3530.04	0.0018607
3539.68	0.00129278
3549.32	0.001097
3558.97	0.000721
3568.61	0.00125292
3578.26	0.000839
3587.9	0.000409
3597.55	0.000575
3607.19	0.0019238
3616.84	0.000337
3626.48	0.000462
3636.13	0.0014514
3645.77	0.0014985
3655.42	0.000665
3665.06	0.0017787
3674.71	0.00102
3684.35	0.0011949
3694	0.001073
3703.64	0.000707
3713.29	0.000933
3722.93	0.000627
3732.58	0.00073
3742.22	0.00091
3751.86	0.001476
3761.51	0.00122834
3771.15	0.000594
3780.8	0.0014659
3790.44	0.00123818
3800.09	0.000868
3809.73	0.001729
3819.38	0.0011392
3829.02	0.00127481
3838.67	0.000974
3848.31	0.0016814
3857.96	0.0019829
3867.6	0.0015397
3877.25	0.000649
3886.89	0.00127853
3896.54	0.00122503
3906.18	0.0014673
3915.83	0.001415
3925.47	0.001101
3935.12	0.0018688
3944.76	0.000778
3954.41	0.0014276
3964.05	0.001037
3973.69	0.0015718
3983.34	0.0011965
3992.98	0.0014268
