Infrared Spectrum: 1,4,5,8-Naphthalenetetracarboxylic 1,8: 4,5-diimide
Formula: C14 H6 N2 O4
CAS: 5690-24-4
State: SOLID (SPLIT MULL), FLUOROLUBE FOR 3800-1330 CM^-^1, NUJOL FOR 1330-400 CM^-^1
Melting point: MORE THAN 300 C
Class: COBLENTZ III
Instrument: BECKMAN IR-9 (GRATING)
Instrument parameters: ORDER CHANGES: 670, 1200, 2000 CM^-^1
Sampling: TRANSMISSION
Resolution: 2
Origin: DOW CHEMICAL COMPANY
1/CM	TRANSMITTANCE
404	0.4064
413	0.5223
422	0.5882
431	0.6012
440	0.3934
449	0.6914
458	0.7639
467	0.7911
476	0.8057
485	0.8
494	0.7808
503	0.808
512	0.8134
521	0.8162
530	0.8196
539	0.8098
548	0.7365
557	0.8057
566	0.8293
575	0.8318
584	0.8316
593	0.8312
602	0.8212
611	0.7665
620	0.6362
629	0.0871
638	0.7221
647	0.8407
656	0.8591
665	0.8496
674	0.8464
683	0.7639
692	0.6327
701	0.8594
710	0.8581
719	0.8221
728	0.8015
737	0.8148
746	0.8125
755	0.7737
764	0.3784
773	0.5317
782	0.7515
791	0.7653
800	0.7525
809	0.6712
818	0.6514
827	0.7261
836	0.6928
845	0.6069
854	0.4444
863	0.3903
872	0.3808
881	0.4927
890	0.5945
899	0.6414
908	0.7308
917	0.7464
926	0.571
935	0.769
944	0.7718
953	0.773
962	0.7742
971	0.776
980	0.7807
989	0.7796
998	0.7571
1007	0.7708
1016	0.7246
1025	0.7105
1034	0.6247
1043	0.5857
1052	0.7267
1061	0.7328
1070	0.7487
1079	0.751
1088	0.6901
1097	0.4922
1106	0.562
1115	0.7342
1124	0.7362
1133	0.7239
1142	0.7234
1151	0.6357
1160	0.6757
1169	0.6491
1178	0.6807
1187	0.6542
1196	0.5848
1205	0.5507
1214	0.5646
1223	0.5427
1232	0.4554
1241	0.4669
1250	0.4016
1259	0.1668
1268	0.0188
1277	0.0091
1286	0.2331
1295	0.5825
1304	0.6196
1313	0.6468
1322	0.6204
1331	0.3954
1340	0.1684
1349	0.0903
1358	0.6415
1367	0.6065
1376	0.4812
1385	0.6541
1394	0.7287
1403	0.6912
1412	0.6517
1421	0.6179
1430	0.5516
1439	0.4239
1448	0.3489
1457	0.6999
1466	0.7128
1475	0.6883
1484	0.6651
1493	0.654
1502	0.621
1511	0.595
1520	0.6044
1529	0.6108
1538	0.588
1547	0.5543
1556	0.5299
1565	0.477
1574	0.32
1583	0.3061
1592	0.6587
1601	0.5648
1610	0.5146
1619	0.4815
1628	0.444
1637	0.3859
1646	0.3028
1655	0.2384
1664	0.1555
1673	0.0722
1682	0.0316
1691	0.0783
1700	0.0504
1709	0.0425
1718	0.0896
1727	0.4387
1736	0.5517
1745	0.6519
1754	0.6786
1763	0.7219
1772	0.6735
1781	0.7138
1790	0.8156
1799	0.8771
1808	0.8757
1817	0.8633
1826	0.8457
1835	0.8338
1844	0.829
1853	0.8242
1862	0.8158
1871	0.8083
1880	0.8028
1889	0.7983
1898	0.7925
1907	0.786
1916	0.779
1925	0.7738
1934	0.7698
1943	0.7654
1952	0.7582
1961	0.7498
1970	0.7401
1979	0.7257
1988	0.706
1997	0.6987
2006	0.7261
2015	0.7184
2024	0.711
2033	0.7039
2042	0.7007
2051	0.6971
2060	0.6922
2069	0.6871
2078	0.6818
2087	0.6764
2096	0.6707
2105	0.6647
2114	0.6603
2123	0.6571
2132	0.6541
2141	0.6511
2150	0.6486
2159	0.646
2168	0.6412
2177	0.636
2186	0.6301
2195	0.6241
2204	0.6168
2213	0.6092
2222	0.6023
2231	0.5967
2240	0.595
2249	0.5933
2258	0.592
2267	0.5886
2276	0.5852
2285	0.5812
2294	0.5772
2303	0.5743
2312	0.5729
2321	0.5729
2330	0.5728
2339	0.5741
2348	0.5762
2357	0.5805
2366	0.5856
2375	0.5786
2384	0.5627
2393	0.5512
2402	0.5491
2411	0.5474
2420	0.5457
2429	0.5439
2438	0.5417
2447	0.5394
2456	0.5368
2465	0.5335
2474	0.5303
2483	0.5272
2492	0.5245
2501	0.5218
2510	0.5191
2519	0.5166
2528	0.5144
2537	0.5121
2546	0.5099
2555	0.5089
2564	0.5084
2573	0.5078
2582	0.5073
2591	0.5046
2600	0.5009
2609	0.496
2618	0.4915
2627	0.4877
2636	0.484
2645	0.4803
2654	0.4781
2663	0.4758
2672	0.4733
2681	0.4705
2690	0.467
2699	0.4627
2708	0.458
2717	0.4533
2726	0.4486
2735	0.4438
2744	0.4387
2753	0.4335
2762	0.4279
2771	0.4217
2780	0.4155
2789	0.4045
2798	0.3936
2807	0.3818
2816	0.3696
2825	0.3493
2834	0.3229
2843	0.2954
2852	0.2679
2861	0.2603
2870	0.2959
2879	0.3644
2888	0.3843
2897	0.381
2906	0.3748
2915	0.3671
2924	0.36
2933	0.3543
2942	0.354
2951	0.3503
2960	0.345
2969	0.3388
2978	0.3308
2987	0.3214
2996	0.3061
3005	0.2875
3014	0.267
3023	0.2463
3032	0.2235
3041	0.2027
3050	0.1826
3059	0.1625
3068	0.1507
3077	0.1513
3086	0.1944
3095	0.2992
3104	0.3171
3113	0.3115
3122	0.3053
3131	0.3042
3140	0.2928
3149	0.2721
3158	0.2525
3167	0.2452
3176	0.2464
3185	0.2642
3194	0.3122
3203	0.38
3212	0.4379
3221	0.4509
3230	0.4568
3239	0.4622
3248	0.4687
3257	0.4772
3266	0.4848
3275	0.4904
3284	0.4892
3293	0.4846
3302	0.4786
3311	0.4717
3320	0.4651
3329	0.4593
3338	0.4541
3347	0.4499
3356	0.4467
3365	0.4434
3374	0.4412
3383	0.4388
3392	0.4369
3401	0.4352
3410	0.4342
3419	0.4334
3428	0.4324
3437	0.4305
3446	0.428
3455	0.4251
3464	0.4222
3473	0.4199
3482	0.4176
3491	0.4153
3500	0.413
3509	0.4106
3518	0.4088
3527	0.4073
3536	0.4059
3545	0.4046
3554	0.4032
3563	0.4016
3572	0.4
3581	0.3984
3590	0.397
3599	0.3956
3608	0.3945
3617	0.3932
3626	0.3922
3635	0.3909
3644	0.3899
3653	0.3884
3662	0.3873
3671	0.3859
3680	0.3846
3689	0.3832
3698	0.3818
3707	0.3805
3716	0.379
3725	0.3774
3734	0.3758
3743	0.3742
3752	0.3718
3761	0.3689
3770	0.3666
3779	0.3645
3788	0.3624
3797	0.3604
