Infrared Spectrum: 2,5-Dichlorothiophene-3-sulphonyl chloride
Formula: C 4 H Cl 3 O 2 S 2
CAS: 56946-83-9
State: gas
Origin: EPA-IR VAPOR PHASE LIBRARY
1/CM	ABSORBANCE
549.9	0.13794
559.547	0.18517
569.193	0.08079
578.84	0.03196
588.486	0.01999
598.133	0.02013
607.779	0.0168
617.426	0.02967
627.072	0.11744
636.719	0.11087
646.365	0.02213
656.012	0.00883
665.658	0.00502
675.305	0.00437
684.951	0.00591
694.598	0.00369
704.245	0.0026796
713.891	0.0026784
723.538	0.0023151
733.184	0.0024568
742.831	0.00319
752.477	0.00362
762.124	0.00328
771.77	0.0026664
781.417	0.0026365
791.063	0.0025825
800.71	0.00301
810.356	0.0045
820.003	0.0108
829.649	0.02032
839.296	0.01532
848.943	0.01932
858.589	0.01949
868.236	0.00729
877.882	0.00355
887.529	0.0025395
897.175	0.0020599
906.822	0.0022939
916.468	0.0023608
926.115	0.0021062
935.761	0.0019042
945.408	0.0020963
955.054	0.0026311
964.701	0.0026735
974.347	0.00274
983.994	0.00312
993.64	0.00512
1003.29	0.01136
1012.93	0.01151
1022.58	0.01262
1032.23	0.02855
1041.87	0.08017
1051.52	0.07605
1061.17	0.01321
1070.81	0.00571
1080.46	0.00502
1090.11	0.00459
1099.75	0.00487
1109.4	0.00702
1119.05	0.01243
1128.69	0.02696
1138.34	0.03388
1147.99	0.02071
1157.63	0.02227
1167.28	0.03508
1176.92	0.06569
1186.57	0.13924
1196.22	0.16278
1205.86	0.05895
1215.51	0.01445
1225.16	0.00667
1234.8	0.00397
1244.45	0.00295
1254.1	0.0025959
1263.74	0.00305
1273.39	0.00346
1283.04	0.00379
1292.68	0.0052
1302.33	0.01163
1311.98	0.01754
1321.62	0.0118
1331.27	0.00754
1340.92	0.00729
1350.56	0.0068
1360.21	0.00826
1369.86	0.01139
1379.5	0.02218
1389.15	0.03654
1398.79	0.08603
1408.44	0.15051
1418.09	0.0678
1427.73	0.07368
1437.38	0.07872
1447.03	0.02503
1456.67	0.01078
1466.32	0.00578
1475.97	0.00423
1485.61	0.00556
1495.26	0.0111
1504.91	0.03126
1514.55	0.04335
1524.2	0.01511
1533.85	0.0059
1543.49	0.00338
1553.14	0.0026189
1562.79	0.0023875
1572.43	0.0019571
1582.08	0.0017933
1591.73	0.001802
1601.37	0.0019912
1611.02	0.0018937
1620.67	0.0019977
1630.31	0.0025028
1639.96	0.00338
1649.6	0.00464
1659.25	0.00479
1668.9	0.0031
1678.54	0.0021388
1688.19	0.0020069
1697.84	0.0020483
1707.48	0.0020785
1717.13	0.0020301
1726.78	0.00178111
1736.42	0.0016692
1746.07	0.001502
1755.72	0.00147
1765.36	0.00141
1775.01	0.001401
1784.66	0.001474
1794.3	0.001475
1803.95	0.001428
1813.6	0.001386
1823.24	0.001406
1832.89	0.001496
1842.54	0.001466
1852.18	0.001469
1861.83	0.001496
1871.47	0.001475
1881.12	0.001384
1890.77	0.00134
1900.41	0.001415
1910.06	0.00151
1919.71	0.001512
1929.35	0.001453
1939	0.00143
1948.65	0.001382
1958.29	0.00143
1967.94	0.001341
1977.59	0.001423
1987.23	0.001475
1996.88	0.001546
2006.53	0.001545
2016.17	0.001524
2025.82	0.001546
2035.47	0.0016431
2045.11	0.00173054
2054.76	0.001613
2064.41	0.001481
2074.05	0.001445
2083.7	0.001483
2093.35	0.001462
2102.99	0.001528
2112.64	0.001582
2122.28	0.001457
2131.93	0.0014
2141.58	0.001446
2151.22	0.00155
2160.87	0.0016453
2170.52	0.00174292
2180.16	0.0018464
2189.81	0.0018939
2199.46	0.002097
2209.1	0.0024742
2218.75	0.00281
2228.4	0.00291
2238.04	0.0026682
2247.69	0.0021357
2257.34	0.0016795
2266.98	0.001491
2276.63	0.001459
2286.28	0.001509
2295.92	0.001452
2305.57	0.001459
2315.22	0.001578
2324.86	0.00168634
2334.51	0.00169067
2344.16	0.0016376
2353.8	0.0016935
2363.45	0.00170172
2373.09	0.0016393
2382.74	0.00143
2392.39	0.00128
2402.03	0.001184
2411.68	0.001164
2421.33	0.00119
2430.97	0.001259
2440.62	0.001311
2450.27	0.001309
2459.91	0.001205
2469.56	0.001176
2479.21	0.001199
2488.85	0.00123
2498.5	0.00126
2508.15	0.001396
2517.79	0.001447
2527.44	0.00136
2537.09	0.001442
2546.73	0.0016464
2556.38	0.0018548
2566.03	0.0018314
2575.67	0.0017455
2585.32	0.0019077
2594.96	0.0017925
2604.61	0.001499
2614.26	0.001322
2623.9	0.001286
2633.55	0.001148
2643.2	0.001172
2652.84	0.001147
2662.49	0.00097
2672.14	0.000975
2681.78	0.000959
2691.43	0.001
2701.08	0.001101
2710.72	0.000954
2720.37	0.000912
2730.02	0.000888
2739.66	0.00082
2749.31	0.000924
2758.96	0.000741
2768.6	0.000803
2778.25	0.000847
2787.9	0.000895
2797.54	0.001342
2807.19	0.001243
2816.84	0.001332
2826.48	0.001215
2836.13	0.001074
2845.77	0.001282
2855.42	0.001256
2865.07	0.001291
2874.71	0.000763
2884.36	0.00061
2894.01	0.00061
2903.65	0.0006
2913.3	0.00046
2922.95	0.00047
2932.59	0.00044
2942.24	0.00055
2951.89	0.00035
2961.53	0.00063
2971.18	0.00038
2980.83	0.00066
2990.47	0.00044
3000.12	0.00052
3009.77	0.00047
3019.41	0.00037
3029.06	0.00052
3038.71	0.00022
3048.35	0.00023
3058	0.00034
3067.64	0.00031
3077.29	0.00039
3086.94	0.000802
3096.58	0.00177531
3106.23	0.00471
3115.88	0.0101
3125.52	0.00374
3135.17	0.00063
3144.82	0.00021
3154.46	0.00022
3164.11	0.00012
3173.76	9e-05
3183.4	0.00011
3193.05	2e-05
3202.7	0.0001
3212.34	0.0002
3221.99	0.00011
3231.64	0.00013
3241.28	6e-05
3250.93	0.00012
3260.58	2e-05
3270.22	8e-05
3279.87	0.00014
3289.52	0.00016
3299.16	5e-05
3308.81	0.00017
3318.45	0.00016
3328.1	0.00022
3337.75	0.00015
3347.39	0.00018
3357.04	0.0002
3366.69	0.00024
3376.33	0.0001
3385.98	0.00013
3395.63	0.00045
3405.27	0.00032
3414.92	0.00032
3424.57	0.0003
3434.21	0.00037
3443.86	0.00034
3453.51	0.00037
3463.15	0.00037
3472.8	0.00028
3482.45	0.00051
3492.09	0.00048
3501.74	0.00047
3511.39	0.00058
3521.03	0.00058
3530.68	0.00043
3540.33	0.00049
3549.97	0.00051
3559.62	0.00055
3569.26	0.00059
3578.91	0.00046
3588.56	0.00056
3598.2	0.00049
3607.85	0.0006
3617.5	0.000739
3627.14	0.00062
3636.79	0.00067
3646.44	0.000698
3656.08	0.00067
3665.73	0.000818
3675.38	0.000749
3685.02	0.000709
3694.67	0.00072
3704.32	0.000736
3713.96	0.000885
3723.61	0.000788
3733.26	0.000863
3742.9	0.000824
3752.55	0.000767
3762.2	0.000775
3771.84	0.000761
3781.49	0.000885
3791.13	0.000909
3800.78	0.000999
3810.43	0.000826
3820.07	0.000806
3829.72	0.00081
3839.37	0.000812
3849.01	0.00075
3858.66	0.000797
3868.31	0.000868
3877.95	0.000833
3887.6	0.00085
3897.25	0.000867
3906.89	0.000848
3916.54	0.000864
3926.19	0.000813
3935.83	0.000904
3945.48	0.000842
3955.13	0.000815
3964.77	0.000748
3974.42	0.000799
3984.07	0.000874
3993.71	0.000835
