Infrared Spectrum: p-Toluenesulphonylacetonitrile
Formula: C 9 H 9 N O 2 S
CAS: 5697-44-9
State: gas
Origin: EPA-IR VAPOR PHASE LIBRARY
1/CM	ABSORBANCE
549.9	0.0008178
559.547	0.0012633
569.193	0.002777
578.84	0.003577
588.486	0.001947
598.133	0.0007685
607.779	0.0006629
617.426	0.0011701
627.072	0.001497
636.719	0.0008061
646.365	0.0006085
656.012	0.0006233
665.658	0.0010185
675.305	0.0008882
684.951	0.0005553
694.598	0.0006776
704.245	0.0006097
713.891	0.0007296
723.538	0.001327
733.184	0.002997
742.831	0.004497
752.477	0.002187
762.124	0.0007677
771.77	0.0005475
781.417	0.000632
791.063	0.0007642
800.71	0.0010917
810.356	0.001737
820.003	0.001367
829.649	0.0006908
839.296	0.0006635
848.943	0.0007687
858.589	0.001637
868.236	0.002477
877.882	0.001427
887.529	0.0006337
897.175	0.00040656
906.822	0.00038282
916.468	0.00040157
926.115	0.00038325
935.761	0.0003223
945.408	0.0003148
955.054	0.0003638
964.701	0.00039321
974.347	0.000335502
983.994	0.00035779
993.64	0.0003
1003.29	0.000329654
1012.93	0.0005482
1022.58	0.0005867
1032.23	0.00040376
1041.87	0.0004398
1051.52	0.0004579
1061.17	0.0004832
1070.81	0.0006828
1080.46	0.001397
1090.11	0.002067
1099.75	0.0012414
1109.4	0.0006684
1119.05	0.0006085
1128.69	0.0010849
1138.34	0.002557
1147.99	0.004177
1157.63	0.004117
1167.28	0.008337
1176.92	0.007807
1186.57	0.002187
1196.22	0.001427
1205.86	0.001397
1215.51	0.0010401
1225.16	0.001617
1234.8	0.002167
1244.45	0.001837
1254.1	0.0008522
1263.74	0.0006845
1273.39	0.0007057
1283.04	0.0007746
1292.68	0.0006776
1302.33	0.0006984
1311.98	0.0007089
1321.62	0.0005972
1331.27	0.0007066
1340.92	0.0011276
1350.56	0.002467
1360.21	0.006237
1369.86	0.008187
1379.5	0.003807
1389.15	0.001657
1398.79	0.001677
1408.44	0.001327
1418.09	0.00091
1427.73	0.0007239
1437.38	0.0006854
1447.03	0.0005581
1456.67	0.0005974
1466.32	0.0005453
1475.97	0.0005576
1485.61	0.0006946
1495.26	0.0007681
1504.91	0.0005944
1514.55	0.00041538
1524.2	0.0005163
1533.85	0.0004454
1543.49	0.000475
1553.14	0.0004286
1562.79	0.0004616
1572.43	0.0005484
1582.08	0.0007527
1591.73	0.0012518
1601.37	0.001407
1611.02	0.0007751
1620.67	0.0005834
1630.31	0.000427
1639.96	0.00041498
1649.6	0.000507
1659.25	0.00038359
1668.9	0.00036593
1678.54	0.00034249
1688.19	0.000328666
1697.84	0.00035796
1707.48	0.000326177
1717.13	0.00038107
1726.78	0.0003122
1736.42	0.00032386
1746.07	0.00035104
1755.72	0.00034075
1765.36	0.0003506
1775.01	0.0003587
1784.66	0.00035125
1794.3	0.00040475
1803.95	0.00041717
1813.6	0.0003046
1823.24	0.000332781
1832.89	0.000288
1842.54	0.0002868
1852.18	0.0002757
1861.83	0.0002919
1871.47	0.0002966
1881.12	0.000312
1890.77	0.0002961
1900.41	0.0003535
1910.06	0.00041555
1919.71	0.0004459
1929.35	0.00036701
1939	0.0002961
1948.65	0.0002915
1958.29	0.0002761
1967.94	0.0002708
1977.59	0.0002831
1987.23	0.000285
1996.88	0.0002934
2006.53	0.0002796
2016.17	0.0002776
2025.82	0.0002916
2035.47	0.0002637
2045.11	0.0002842
2054.76	0.0002732
2064.41	0.0002317
2074.05	0.000226
2083.7	0.0002502
2093.35	0.000216
2102.99	0.0002735
2112.64	0.0002473
2122.28	0.0002275
2131.93	0.000208
2141.58	0.0002405
2151.22	0.000215
2160.87	0.00025
2170.52	0.0002472
2180.16	0.0002416
2189.81	0.0002343
2199.46	0.0002311
2209.1	0.000261
2218.75	0.0002935
2228.4	0.0002597
2238.04	0.000224
2247.69	0.0002762
2257.34	0.0003128
2266.98	0.0002953
2276.63	0.0002613
2286.28	0.0002493
2295.92	0.0002867
2305.57	0.0002484
2315.22	0.0002731
2324.86	0.0002719
2334.51	0.000265
2344.16	0.0002512
2353.8	0.0002513
2363.45	0.0002642
2373.09	0.0002609
2382.74	0.0002904
2392.39	0.000213
2402.03	0.0002685
2411.68	0.0002289
2421.33	0.000216
2430.97	0.0002373
2440.62	0.0002622
2450.27	0.0002378
2459.91	0.0002409
2469.56	0.000197
2479.21	0.0002358
2488.85	0.000202
2498.5	0.000209
2508.15	0.0002724
2517.79	0.0002652
2527.44	0.000227
2537.09	0.000169
2546.73	0.000174
2556.38	0.000194
2566.03	0.0002485
2575.67	0.000222
2585.32	0.0002399
2594.96	0.0002465
2604.61	0.0002331
2614.26	0.000177
2623.9	0.000158
2633.55	0.000209
2643.2	0.000149
2652.84	0.000131
2662.49	0.000197
2672.14	0.000168
2681.78	0.000163
2691.43	0.000195
2701.08	0.000119
2710.72	0.000201
2720.37	0.000202
2730.02	0.000113
2739.66	0.000174
2749.31	0.0002769
2758.96	0.000116
2768.6	0.000146
2778.25	0.000162
2787.9	0.0002338
2797.54	0.000124
2807.19	0.000162
2816.84	0.0002669
2826.48	0.0002295
2836.13	0.000118
2845.77	0.0002408
2855.42	0.000285
2865.07	0.0002521
2874.71	0.00036684
2884.36	0.00040018
2894.01	0.00040802
2903.65	0.00039308
2913.3	0.0004535
2922.95	0.0005079
2932.59	0.0007148
2942.24	0.000737
2951.89	0.0006461
2961.53	0.00038956
2971.18	0.00035262
2980.83	0.00032303
2990.47	0.00036247
3000.12	0.0004472
3009.77	0.0004956
3019.41	0.00042433
3029.06	0.000521
3038.71	0.0006504
3048.35	0.0008239
3058	0.0005924
3067.64	0.0005548
3077.29	0.0006553
3086.94	0.000262
3096.58	0.00022
3106.23	0.0002458
3115.88	0.000182
3125.52	0.000123
3135.17	0.0002497
3144.82	0.0002998
3154.46	0.000182
3164.11	0.000204
3173.76	0.000209
3183.4	6.1e-05
3193.05	0.000132
3202.7	0.000326628
3212.34	0.0002634
3221.99	0.000177
3231.64	6.7e-05
3241.28	0.000226
3250.93	9.8e-05
3260.58	0.00012
3270.22	0.000223
3279.87	0.000217
3289.52	0.0002567
3299.16	0.0002317
3308.81	0.0003608
3318.45	4.6e-05
3328.1	0.000189
3337.75	0.0002414
3347.39	0.000193
3357.04	0.0002986
3366.69	0.000159
3376.33	0.000272
3385.98	8.3e-05
3395.63	0.000104
3405.27	0.000135
3414.92	0.0002773
3424.57	0.0002422
3434.21	0.0002708
3443.86	0.0002306
3453.51	0.000172
3463.15	0.000143
3472.8	0.000221
3482.45	0.0002391
3492.09	0.0002502
3501.74	0.0002607
3511.39	0.000102
3521.03	0.0002331
3530.68	0.000138
3540.33	0.0002
3549.97	8.8e-05
3559.62	0.00034102
3569.26	0.0003137
3578.91	0.000152
3588.56	0.0002572
3598.2	0.0002281
3607.85	0.0003071
3617.5	0.000202
3627.14	0.0002981
3636.79	0.0002591
3646.44	0.000202
3656.08	0.0002338
3665.73	0.0002624
3675.38	0.000214
3685.02	6.7e-05
3694.67	0.000185
3704.32	0.000185
3713.96	0.0003097
3723.61	0.0002505
3733.26	0.0003036
3742.9	0.0002626
3752.55	0.0002761
3762.2	0.000164
3771.84	0.000145
3781.49	0.000133
3791.13	0.000221
3800.78	0.000219
3810.43	0.0002766
3820.07	0.000266
3829.72	0.000161
3839.37	0.00011
3849.01	0.000176
3858.66	0.000138
3868.31	0.000126
3877.95	0.000312
3887.6	0.0002518
3897.25	0.000208
3906.89	0.000154
3916.54	0.000221
3926.19	0.000146
3935.83	0.0002993
3945.48	0.000163
3955.13	0.000145
3964.77	0.00017
3974.42	0.000179
3984.07	0.000156
3993.71	0.000168
