Infrared Spectrum: 1-HYDROXY-2-(N-BENZYL) NAPHTHAMIDE
Formula: C18 H15 N O2
CAS: 5697-04-1
State: SOLID (KBr PRESSING)
Melting point: 121-122 C
Class: COBLENTZ
Instrument: Not specified, most likely a prism, grating, or hybrid spectrometer.
Sampling: TRANSMISSION
Resolution: 4
Origin: EASTMAN KODAK COMPANY, RESEARCH LABORATORIES, ROCHESTER, N.Y.
MICROMETERS	TRANSMITTANCE
2.035	0.695
2.07019	0.691
2.10539	0.697
2.14058	0.704
2.17577	0.712
2.21096	0.709
2.24616	0.712
2.28135	0.712
2.31654	0.721
2.35174	0.725
2.38693	0.726
2.42212	0.726
2.45731	0.728
2.49251	0.728
2.5277	0.73
2.56289	0.739
2.59809	0.744
2.63328	0.749
2.66847	0.751
2.70367	0.756
2.73886	0.751
2.77405	0.721
2.80924	0.686
2.84444	0.651
2.87963	0.611
2.91482	0.5
2.95002	0.367
2.98521	0.541
3.0204	0.621
3.05559	0.665
3.09079	0.691
3.12598	0.7
3.16117	0.705
3.19637	0.719
3.23156	0.725
3.26675	0.684
3.30194	0.647
3.33714	0.67
3.37233	0.697
3.40752	0.679
3.44272	0.651
3.47791	0.691
3.5131	0.695
3.5483	0.691
3.58349	0.698
3.61868	0.702
3.65387	0.705
3.68907	0.712
3.72426	0.712
3.75945	0.719
3.79465	0.725
3.82984	0.733
3.86503	0.742
3.90022	0.753
3.93542	0.753
3.97061	0.754
4.0058	0.768
4.041	0.775
4.07619	0.781
4.11138	0.781
4.14657	0.784
4.18177	0.793
4.21696	0.803
4.25215	0.817
4.28735	0.828
4.32254	0.823
4.35773	0.819
4.39293	0.817
4.42812	0.819
4.46331	0.819
4.4985	0.823
4.5337	0.83
4.56889	0.83
4.60408	0.823
4.63928	0.828
4.67447	0.831
4.70966	0.835
4.74485	0.833
4.78005	0.833
4.81524	0.835
4.85043	0.842
4.88563	0.847
4.92082	0.847
4.95601	0.851
4.9912	0.852
5.0264	0.852
5.06159	0.849
5.09678	0.835
5.13198	0.83
5.16717	0.831
5.20236	0.84
5.23755	0.849
5.27275	0.851
5.30794	0.847
5.34313	0.847
5.37833	0.84
5.41352	0.851
5.44871	0.851
5.48391	0.842
5.5191	0.847
5.55429	0.847
5.58948	0.851
5.62468	0.854
5.65987	0.851
5.69506	0.837
5.73026	0.828
5.76545	0.81
5.80064	0.802
5.83583	0.793
5.87103	0.807
5.90622	0.816
5.94141	0.817
5.97661	0.817
6.0118	0.798
6.04699	0.756
6.08218	0.719
6.11738	0.486
6.15257	0.388
6.18776	0.392
6.22296	0.227
6.25815	0.28
6.29334	0.283
6.32854	0.388
6.36373	0.497
6.39892	0.509
6.43411	0.385
6.46931	0.173
6.5045	0.18
6.53969	0.259
6.57489	0.39
6.61008	0.577
6.64527	0.551
6.68046	0.332
6.71566	0.562
6.75085	0.705
6.78604	0.693
6.82124	0.5
6.85643	0.637
6.89162	0.553
6.92681	0.679
6.96201	0.742
6.9972	0.672
7.03239	0.598
7.06759	0.528
7.10278	0.297
7.13797	0.604
7.17317	0.593
7.20836	0.281
7.24355	0.507
7.27874	0.549
7.31394	0.604
7.34913	0.602
7.38432	0.506
7.41952	0.458
7.45471	0.355
7.4899	0.392
7.52509	0.539
7.56029	0.649
7.59548	0.691
7.63067	0.683
7.66587	0.647
7.70106	0.527
7.73625	0.366
7.77144	0.287
7.80664	0.243
7.84183	0.367
7.87702	0.528
7.91222	0.586
7.94741	0.476
7.9826	0.472
8.01779	0.558
8.05299	0.637
8.08818	0.684
8.12337	0.695
8.15857	0.698
8.19376	0.707
8.22895	0.725
8.26415	0.646
8.29934	0.521
8.33453	0.625
8.36972	0.66
8.40492	0.705
8.44011	0.725
8.4753	0.698
8.5105	0.672
8.54569	0.719
8.58088	0.754
8.61607	0.728
8.65127	0.7
8.68646	0.663
8.72165	0.66
8.75685	0.726
8.79204	0.751
8.82723	0.756
8.86242	0.763
8.89762	0.765
8.93281	0.767
8.968	0.772
9.0032	0.774
9.03839	0.758
9.07358	0.73
9.10878	0.704
9.14397	0.746
9.17916	0.774
9.21435	0.761
9.24955	0.723
9.28474	0.714
9.31993	0.749
9.35513	0.775
9.39032	0.784
9.42551	0.791
9.4607	0.786
9.4959	0.786
9.53109	0.788
9.56628	0.789
9.60148	0.789
9.63667	0.786
9.67186	0.709
9.70705	0.674
9.74225	0.598
9.77744	0.625
9.81263	0.737
9.84783	0.742
9.88302	0.684
9.91821	0.676
9.95341	0.665
9.9886	0.64
10.0238	0.707
10.059	0.758
10.0942	0.788
10.1294	0.791
10.1646	0.803
10.1998	0.807
10.2349	0.812
10.2701	0.819
10.3053	0.824
10.3405	0.826
10.3757	0.823
10.4109	0.809
10.4461	0.795
10.4813	0.826
10.5165	0.826
10.5517	0.831
10.5869	0.838
10.6221	0.831
10.6573	0.828
10.6925	0.821
10.7276	0.828
10.7628	0.837
10.798	0.831
10.8332	0.833
10.8684	0.821
10.9036	0.823
10.9388	0.819
10.974	0.807
11.0092	0.81
11.0444	0.803
11.0796	0.817
11.1148	0.807
11.15	0.8
11.1852	0.782
11.2203	0.737
11.2555	0.719
11.2907	0.704
11.3259	0.73
11.3611	0.742
11.3963	0.739
11.4315	0.714
11.4667	0.681
11.5019	0.683
11.5371	0.735
11.5723	0.744
11.6075	0.742
11.6427	0.735
11.6779	0.718
11.7131	0.707
11.7482	0.698
11.7834	0.688
11.8186	0.7
11.8538	0.707
11.889	0.707
11.9242	0.707
11.9594	0.697
11.9946	0.695
12.0298	0.705
12.065	0.718
12.1002	0.733
12.1354	0.749
12.1706	0.751
12.2058	0.74
12.2409	0.725
12.2761	0.649
12.3113	0.602
12.3465	0.565
12.3817	0.523
12.4169	0.506
12.4521	0.537
12.4873	0.562
12.5225	0.583
12.5577	0.581
12.5929	0.471
12.6281	0.434
12.6633	0.567
12.6985	0.609
12.7336	0.632
12.7688	0.661
12.804	0.7
12.8392	0.707
12.8744	0.709
12.9096	0.7
12.9448	0.611
12.98	0.411
13.0152	0.264
13.0504	0.406
13.0856	0.565
13.1208	0.646
13.156	0.712
13.1912	0.733
13.2263	0.737
13.2615	0.753
13.2967	0.758
13.3319	0.756
13.3671	0.749
13.4023	0.758
13.4375	0.756
13.4727	0.739
13.5079	0.728
13.5431	0.716
13.5783	0.677
13.6135	0.646
13.6487	0.621
13.6839	0.6
13.719	0.516
13.7542	0.457
13.7894	0.432
13.8246	0.432
13.8598	0.387
13.895	0.374
13.9302	0.423
13.9654	0.521
14.0006	0.618
14.0358	0.681
14.071	0.704
14.1062	0.721
14.1414	0.728
14.1766	0.714
14.2117	0.69
14.2469	0.669
14.2821	0.628
14.3173	0.577
14.3525	0.506
14.3877	0.488
14.4229	0.527
14.4581	0.614
14.4933	0.686
14.5285	0.73
14.5637	0.749
14.5989	0.761
14.6341	0.77
14.6693	0.777
14.7044	0.772
14.7396	0.772
14.7748	0.772
14.81	0.781
14.8452	0.77
14.8804	0.765
14.9156	0.767
14.9508	0.775
14.986	0.768
15.0212	0.74
15.0564	0.73
15.0916	0.723
15.1268	0.711
15.162	0.705
15.1971	0.714
15.2323	0.73
15.2675	0.754
15.3027	0.763
15.3379	0.774
15.3731	0.779
15.4083	0.786
15.4435	0.788
15.4787	0.784
15.5139	0.781
15.5491	0.777
15.5843	0.77
15.6195	0.774
15.6547	0.772
15.6898	0.77
15.725	0.768
15.7602	0.763
15.7954	0.76
15.8306	0.74
15.8658	0.737
15.901	0.73
15.9362	0.726
