Infrared Spectrum: 3-Phenyl-p-anisidine
Formula: C 13 H 13 N O
CAS: 56970-26-4
State: gas
Origin: EPA-IR VAPOR PHASE LIBRARY
1/CM	ABSORBANCE
549.8	0.01308
559.445	0.0142
569.09	0.01411
578.734	0.01394
588.379	0.01533
598.024	0.01929
607.669	0.01621
617.313	0.01432
626.958	0.01823
636.603	0.02171
646.248	0.0249
655.893	0.03086
665.537	0.03162
675.182	0.0286
684.827	0.03368
694.472	0.05855
704.116	0.05053
713.761	0.02987
723.406	0.02646
733.051	0.03361
742.695	0.03501
752.34	0.02169
761.985	0.01546
771.63	0.01488
781.275	0.01202
790.919	0.01603
800.564	0.02645
810.209	0.02941
819.854	0.01969
829.498	0.01104
839.143	0.00825
848.788	0.0094
858.433	0.01423
868.078	0.01561
877.722	0.01069
887.367	0.01083
897.012	0.00968
906.657	0.0068
916.301	0.00598
925.946	0.00467
935.591	0.00411
945.236	0.00458
954.88	0.00464
964.525	0.00519
974.17	0.00639
983.815	0.00794
993.46	0.01053
1003.1	0.01562
1012.75	0.02691
1022.39	0.03935
1032.04	0.03731
1041.68	0.03253
1051.33	0.02668
1060.97	0.01807
1070.62	0.01502
1080.26	0.01211
1089.91	0.01018
1099.55	0.00878
1109.2	0.00798
1118.84	0.00871
1128.49	0.01323
1138.13	0.01784
1147.78	0.01348
1157.42	0.00843
1167.07	0.00962
1176.71	0.01501
1186.36	0.01606
1196	0.01649
1205.64	0.02676
1215.29	0.04892
1224.93	0.08346
1234.58	0.09376
1244.22	0.06556
1253.87	0.05517
1263.51	0.0521
1273.16	0.03815
1282.8	0.02649
1292.45	0.01973
1302.09	0.0168
1311.74	0.01836
1321.38	0.01251
1331.03	0.0064
1340.67	0.00441
1350.32	0.00372
1359.96	0.00359
1369.61	0.00402
1379.25	0.00461
1388.9	0.00529
1398.54	0.00714
1408.18	0.01222
1417.83	0.02395
1427.47	0.03353
1437.12	0.02687
1446.76	0.02384
1456.41	0.02837
1466.05	0.03837
1475.7	0.05259
1485.34	0.10396
1494.99	0.11234
1504.63	0.08169
1514.28	0.04961
1523.92	0.02108
1533.57	0.0129
1543.21	0.01012
1552.86	0.00958
1562.5	0.01139
1572.15	0.01515
1581.79	0.01623
1591.44	0.02022
1601.08	0.02959
1610.73	0.03536
1620.37	0.05017
1630.01	0.03932
1639.66	0.01879
1649.3	0.01078
1658.95	0.00748
1668.59	0.00578
1678.24	0.00464
1687.88	0.00393
1697.53	0.00347
1707.17	0.00353
1716.82	0.00379
1726.46	0.00384
1736.11	0.00368
1745.75	0.00364
1755.4	0.00312
1765.04	0.00277
1774.69	0.00289
1784.33	0.00326
1793.98	0.00414
1803.62	0.00376
1813.27	0.0032
1822.91	0.00296
1832.55	0.00286
1842.2	0.00298
1851.84	0.00311
1861.49	0.00319
1871.13	0.0036
1880.78	0.00345
1890.42	0.00304
1900.07	0.00216
1909.71	0.00198
1919.36	0.00214
1929	0.00294
1938.65	0.00388
1948.29	0.00365
1957.94	0.0032
1967.58	0.00238
1977.23	0.00245
1986.87	0.00256
1996.52	0.00264
2006.16	0.00272
2015.81	0.00267
2025.45	0.00272
2035.1	0.0026
2044.74	0.00236
2054.38	0.00211
2064.03	0.00196
2073.67	0.00171
2083.32	0.00151
2092.96	0.00138
2102.61	0.0012716
2112.25	0.0011975
2121.9	0.0010978
2131.54	0.0009422
2141.19	0.0009218
2150.83	0.0009718
2160.48	0.0009329
2170.12	0.0009338
2179.77	0.0007725
2189.41	0.0008727
2199.06	0.0009202
2208.7	0.0009431
2218.35	0.000996
2227.99	0.0009879
2237.64	0.0011375
2247.28	0.0012201
2256.92	0.0012238
2266.57	0.0011928
2276.21	0.0011448
2285.86	0.0010858
2295.5	0.0009063
2305.15	0.0009486
2314.79	0.0011979
2324.44	0.0009014
2334.08	0.0010204
2343.73	0.0010314
2353.37	0.0008397
2363.02	0.0008852
2372.66	0.0009156
2382.31	0.000851
2391.95	0.0006873
2401.6	0.0006594
2411.24	0.0006717
2420.89	0.0007737
2430.53	0.0007016
2440.18	0.0007647
2449.82	0.0008136
2459.47	0.000844
2469.11	0.0008571
2478.75	0.0008724
2488.4	0.0009379
2498.04	0.0011008
2507.69	0.0011773
2517.33	0.0012674
2526.98	0.0011462
2536.62	0.0011286
2546.27	0.0009172
2555.91	0.0007086
2565.56	0.0007155
2575.2	0.00065
2584.85	0.0008362
2594.49	0.0009605
2604.14	0.0009226
2613.78	0.0007803
2623.43	0.0009187
2633.07	0.0007833
2642.72	0.0007507
2652.36	0.0006511
2662.01	0.0007902
2671.65	0.0006138
2681.29	0.0007133
2690.94	0.0007347
2700.58	0.0009058
2710.23	0.0009131
2719.87	0.0009258
2729.52	0.0008813
2739.16	0.0010234
2748.81	0.0010707
2758.45	0.0011976
2768.1	0.0012847
2777.74	0.00161
2787.39	0.00188
2797.03	0.0025
2806.68	0.00377
2816.32	0.00581
2825.97	0.0109
2835.61	0.01879
2845.26	0.01554
2854.9	0.00941
2864.55	0.00789
2874.19	0.00793
2883.84	0.0088
2893.48	0.01039
2903.12	0.01328
2912.77	0.01561
2922.41	0.01662
2932.06	0.02162
2941.7	0.02751
2951.35	0.02444
2960.99	0.01648
2970.64	0.01193
2980.28	0.01202
2989.93	0.01664
2999.57	0.02212
3009.22	0.02012
3018.86	0.02389
3028.51	0.03208
3038.15	0.03081
3047.8	0.02708
3057.44	0.03116
3067.09	0.03755
3076.73	0.02742
3086.38	0.02008
3096.02	0.01327
3105.67	0.00871
3115.31	0.00586
3124.95	0.00368
3134.6	0.00244
3144.24	0.00199
3153.89	0.00166
3163.53	0.0011639
3173.18	0.0009819
3182.82	0.0009
3192.47	0.0008128
3202.11	0.0009809
3211.76	0.0009848
3221.4	0.0010634
3231.05	0.000921
3240.69	0.0007948
3250.34	0.0011236
3259.98	0.0008333
3269.63	0.000689
3279.27	0.0005609
3288.92	0.00033151
3298.56	9.3e-05
3308.21	0.0002488
3317.85	0.000179
3327.49	0.0002597
3337.14	5.1e-05
3346.78	9.8e-05
3356.43	0.00038636
3366.07	0.0006284
3375.72	0.0011704
3385.36	0.00211
3395.01	0.00456
3404.65	0.00606
3414.3	0.0036
3423.94	0.00163
3433.59	0.0011925
3443.23	0.00134
3452.88	0.00151
3462.52	0.00216
3472.17	0.00348
3481.81	0.0053
3491.46	0.00443
3501.1	0.00184
3510.75	0.0008892
3520.39	0.0007506
3530.04	0.0006795
3539.68	0.0003267
3549.32	0.00036608
3558.97	0.0003127
3568.61	7.3e-05
3578.26	0.000173
3587.9	0.000141
3597.55	0.0002623
3607.19	0.0004175
3616.84	0.000126
3626.48	0.0003125
3636.13	0.0002539
3645.77	0.0002932
3655.42	0.0004697
3665.06	0.00043855
3674.71	0.0002849
3684.35	0.00039762
3694	0.0004735
3703.64	0.00036112
3713.29	0.00039676
3722.93	0.0002869
3732.58	0.000138
3742.22	0.000174
3751.86	0.0003143
3761.51	0.000326
3771.15	0.0005327
3780.8	0.00035631
3790.44	0.00012
3800.09	0.00043308
3809.73	0.000238
3819.38	0.000223
3829.02	0.000146
3838.67	0.0003221
3848.31	0.00013
3857.96	0.0002517
3867.6	0.0004826
3877.25	0.00040689
3886.89	0.0005079
3896.54	0.0006588
3906.18	0.0007959
3915.83	0.0005059
3925.47	0.0005975
3935.12	0.0006787
3944.76	0.0004867
3954.41	0.0006444
3964.05	0.0005638
3973.69	0.0005927
3983.34	0.0007444
3992.98	0.0007838
