Infrared Spectrum: 4-Phenyl-m-anisidine
Formula: C 13 H 13 N O
CAS: 56970-24-2
State: gas
Origin: EPA-IR VAPOR PHASE LIBRARY
1/CM	ABSORBANCE
549.8	0.014022
559.445	0.020492
569.09	0.016152
578.734	0.014182
588.379	0.012422
598.024	0.009712
607.669	0.009382
617.313	0.010612
626.958	0.012172
636.603	0.014072
646.248	0.018792
655.893	0.028222
665.537	0.032292
675.182	0.027002
684.827	0.027242
694.472	0.044282
704.116	0.034782
713.761	0.017702
723.406	0.017582
733.051	0.018232
742.695	0.018312
752.34	0.021582
761.985	0.026232
771.63	0.018702
781.275	0.012612
790.919	0.013882
800.564	0.020412
810.209	0.021302
819.854	0.018942
829.498	0.017382
839.143	0.014412
848.788	0.012132
858.433	0.009522
868.078	0.006942
877.722	0.005472
887.367	0.004842
897.012	0.005232
906.657	0.005842
916.301	0.005692
925.946	0.007212
935.591	0.011182
945.236	0.014852
954.88	0.011322
964.525	0.006602
974.17	0.005682
983.815	0.005982
993.46	0.008072
1003.1	0.011932
1012.75	0.016052
1022.39	0.020482
1032.04	0.033532
1041.68	0.035962
1051.33	0.025462
1060.97	0.014502
1070.62	0.012322
1080.26	0.009862
1089.91	0.008582
1099.55	0.009662
1109.2	0.012072
1118.84	0.018712
1128.49	0.035532
1138.13	0.031522
1147.78	0.015012
1157.42	0.018582
1167.07	0.034492
1176.71	0.036262
1186.36	0.032652
1196	0.046632
1205.64	0.054612
1215.29	0.032272
1224.93	0.018672
1234.58	0.017282
1244.22	0.018662
1253.87	0.016802
1263.51	0.014482
1273.16	0.017122
1282.8	0.025862
1292.45	0.040062
1302.09	0.053222
1311.74	0.047032
1321.38	0.019342
1331.03	0.008582
1340.67	0.005342
1350.32	0.004272
1359.96	0.003832
1369.61	0.003992
1379.25	0.004392
1388.9	0.005532
1398.54	0.008842
1408.18	0.017152
1417.83	0.027752
1427.47	0.026212
1437.12	0.018182
1446.76	0.018392
1456.41	0.027652
1466.05	0.034092
1475.7	0.043772
1485.34	0.067542
1494.99	0.036392
1504.63	0.027972
1514.28	0.037092
1523.92	0.023032
1533.57	0.014192
1543.21	0.013732
1552.86	0.016512
1562.5	0.021522
1572.15	0.029852
1581.79	0.035462
1591.44	0.036442
1601.08	0.047672
1610.73	0.069032
1620.37	0.106302
1630.01	0.105742
1639.66	0.046522
1649.3	0.019512
1658.95	0.011722
1668.59	0.008352
1678.24	0.006222
1687.88	0.005102
1697.53	0.004412
1707.17	0.003892
1716.82	0.003692
1726.46	0.003662
1736.11	0.003722
1745.75	0.003432
1755.4	0.002832
1765.04	0.002272
1774.69	0.002332
1784.33	0.002482
1793.98	0.003162
1803.62	0.002592
1813.27	0.002182
1822.91	0.001802
1832.55	0.001582
1842.2	0.001882
1851.84	0.002602
1861.49	0.003922
1871.13	0.004242
1880.78	0.003442
1890.42	0.002452
1900.07	0.001952
1909.71	0.001892
1919.36	0.002112
1929	0.002852
1938.65	0.003462
1948.29	0.003432
1957.94	0.002692
1967.58	0.001992
1977.23	0.001832
1986.87	0.001572
1996.52	0.001422
2006.16	0.001302
2015.81	0.001312
2025.45	0.001442
2035.1	0.001512
2044.74	0.001592
2054.38	0.001722
2064.03	0.001802
2073.67	0.001852
2083.32	0.001782
2092.96	0.001382
2102.61	0.001232
2112.25	0.001105
2121.9	0.001162
2131.54	0.001122
2141.19	0.001202
2150.83	0.001322
2160.48	0.001322
2170.12	0.001172
2179.77	0.001172
2189.41	0.0010876
2199.06	0.0009982
2208.7	0.0010328
2218.35	0.0010473
2227.99	0.0009811
2237.64	0.0010931
2247.28	0.001252
2256.92	0.001192
2266.57	0.001026
2276.21	0.0009427
2285.86	0.0008895
2295.5	0.0009219
2305.15	0.0010109
2314.79	0.0010296
2324.44	0.0008099
2334.08	0.0010187
2343.73	0.001182
2353.37	0.0009323
2363.02	0.001142
2372.66	0.0008589
2382.31	0.0008119
2391.95	0.0008659
2401.6	0.0009458
2411.24	0.0009075
2420.89	0.0008777
2430.53	0.000707
2440.18	0.000676
2449.82	0.0007071
2459.47	0.0008463
2469.11	0.0009424
2478.75	0.000907
2488.4	0.0010544
2498.04	0.000969
2507.69	0.0011093
2517.33	0.0009398
2526.98	0.0008692
2536.62	0.0007554
2546.27	0.0008297
2555.91	0.0008578
2565.56	0.0010622
2575.2	0.0010841
2584.85	0.001103
2594.49	0.001162
2604.14	0.0010632
2613.78	0.0011019
2623.43	0.0007985
2633.07	0.0008388
2642.72	0.0007451
2652.36	0.0005108
2662.01	0.0008051
2671.65	0.0006634
2681.29	0.0007047
2690.94	0.0007669
2700.58	0.0007826
2710.23	0.0008024
2719.87	0.0009268
2729.52	0.0008487
2739.16	0.0008707
2748.81	0.0008812
2758.45	0.0009406
2768.1	0.0009657
2777.74	0.001172
2787.39	0.001372
2797.03	0.001592
2806.68	0.002332
2816.32	0.003692
2825.97	0.006682
2835.61	0.011152
2845.26	0.011832
2854.9	0.008652
2864.55	0.007112
2874.19	0.006992
2883.84	0.007522
2893.48	0.008292
2903.12	0.008702
2912.77	0.010202
2922.41	0.011692
2932.06	0.015762
2941.7	0.021982
2951.35	0.020432
2960.99	0.014852
2970.64	0.010202
2980.28	0.008722
2989.93	0.011102
2999.57	0.015962
3009.22	0.016942
3018.86	0.017882
3028.51	0.027492
3038.15	0.030272
3047.8	0.022532
3057.44	0.027982
3067.09	0.035042
3076.73	0.024342
3086.38	0.016572
3096.02	0.010402
3105.67	0.006652
3115.31	0.004562
3124.95	0.003282
3134.6	0.002222
3144.24	0.002142
3153.89	0.001572
3163.53	0.0011071
3173.18	0.0008414
3182.82	0.0007902
3192.47	0.0009459
3202.11	0.0009464
3211.76	0.001312
3221.4	0.001412
3231.05	0.001252
3240.69	0.0008195
3250.34	0.0006859
3259.98	0.0005659
3269.63	0.0002275
3279.27	0.000282
3288.92	0.0002684
3298.56	5.98e-05
3308.21	0.0002421
3317.85	0.0002371
3327.49	0.0003205
3337.14	0.0002853
3346.78	0.0004562
3356.43	0.0005408
3366.07	0.0006844
3375.72	0.000953
3385.36	0.001822
3395.01	0.004322
3404.65	0.007732
3414.3	0.008912
3423.94	0.004852
3433.59	0.001722
3443.23	0.0010934
3452.88	0.0010674
3462.52	0.001572
3472.17	0.002312
3481.81	0.003622
3491.46	0.004592
3501.1	0.004532
3510.75	0.002742
3520.39	0.001222
3530.04	0.0008056
3539.68	0.0005713
3549.32	0.0004325
3558.97	0.0003147
3568.61	0.0004525
3578.26	6.38e-05
3587.9	0.0003577
3597.55	0.0004279
3607.19	0.00017807
3616.84	0.0004232
3626.48	0.0005229
3636.13	0.0002549
3645.77	0.0002896
3655.42	0.0003952
3665.06	0.0003075
3674.71	0.00015215
3684.35	0.0002458
3694	0.0004486
3703.64	0.0003159
3713.29	0.000372
3722.93	0.000269
3732.58	0.0002419
3742.22	0.0002789
3751.86	0.000387
3761.51	0.0005968
3771.15	0.0005691
3780.8	0.0004486
3790.44	0.0004637
3800.09	0.0004453
3809.73	0.000438
3819.38	0.00031
3829.02	0.0002527
3838.67	0.000587
3848.31	0.000519
3857.96	0.0008014
3867.6	0.0006375
3877.25	0.0007011
3886.89	0.0005902
3896.54	0.0005236
3906.18	0.0005637
3915.83	0.0004588
3925.47	0.0005928
3935.12	0.0004762
3944.76	0.000461
3954.41	0.0007516
3964.05	0.0008515
3973.69	0.0008347
3983.34	0.0007274
3992.98	0.0006771
