Infrared Spectrum: 5-Quinolinesulfonic acid, 8-hydroxy-7-(6-sulfo-2-naphthylazo)-
Formula: C19 H13 N3 O7 S2
CAS: 56990-57-9
State: SOLID (SPLIT MULL), FLUOROLUBE FOR 3800-1330 CM^-^1, NUJOL FOR 1330-400 CM^-^1
Class: COBLENTZ III
Instrument: BECKMAN IR-9 (GRATING)
Instrument parameters: ORDER CHANGES: 670, 1200, 2000 CM^-^1
Sampling: TRANSMISSION
Resolution: 2
Origin: DOW CHEMICAL COMPANY
1/CM	TRANSMITTANCE
404	0.4465
413	0.4562
422	0.4969
431	0.5107
440	0.5428
449	0.5802
458	0.5936
467	0.5818
476	0.5666
485	0.5159
494	0.5866
503	0.5549
512	0.5966
521	0.5706
530	0.5075
539	0.4993
548	0.5509
557	0.47
566	0.5851
575	0.6103
584	0.5212
593	0.5116
602	0.3433
611	0.1361
620	0.4439
629	0.3098
638	0.6158
647	0.6187
656	0.3399
665	0.3775
674	0.5137
683	0.5607
692	0.4623
701	0.2404
710	0.2692
719	0.4059
728	0.6399
737	0.6325
746	0.7855
755	0.8411
764	0.8015
773	0.7072
782	0.8719
791	0.8746
800	0.8435
809	0.7315
818	0.6434
827	0.6425
836	0.8484
845	0.8933
854	0.8859
863	0.8514
872	0.8505
881	0.7944
890	0.7329
899	0.6636
908	0.5341
917	0.6003
926	0.6619
935	0.5904
944	0.5759
953	0.35
962	0.5265
971	0.5867
980	0.5625
989	0.5104
998	0.4202
1007	0.2923
1016	0.1786
1025	0.124
1034	0.0497
1043	0.0447
1052	0.1654
1061	0.3006
1070	0.384
1079	0.5535
1088	0.3181
1097	0.1834
1106	0.3367
1115	0.117
1124	0.3043
1133	0.4951
1142	0.3419
1151	0.2531
1160	0.1776
1169	0.1367
1178	0.0659
1187	0.0658
1196	0.084
1205	0.0832
1214	0.0797
1223	0.0716
1232	0.0663
1241	0.1239
1250	0.2172
1259	0.4988
1268	0.6463
1277	0.6453
1286	0.2635
1295	0.3951
1304	0.6477
1313	0.685
1322	0.6561
1331	0.4913
1340	0.5943
1349	0.4397
1358	0.3163
1367	0.3407
1376	0.3117
1385	0.4375
1394	0.5227
1403	0.4295
1412	0.385
1421	0.4047
1430	0.5812
1439	0.5684
1448	0.5886
1457	0.5196
1466	0.5458
1475	0.6419
1484	0.6204
1493	0.4401
1502	0.2849
1511	0.2558
1520	0.3871
1529	0.5617
1538	0.5588
1547	0.3696
1556	0.3005
1565	0.4414
1574	0.4982
1583	0.5258
1592	0.5744
1601	0.5777
1610	0.6057
1619	0.5543
1628	0.544
1637	0.5692
1646	0.5944
1655	0.6182
1664	0.6545
1673	0.7047
1682	0.7403
1691	0.7777
1700	0.8041
1709	0.8232
1718	0.8302
1727	0.8316
1736	0.8301
1745	0.8257
1754	0.8202
1763	0.8137
1772	0.8069
1781	0.8001
1790	0.7941
1799	0.7899
1808	0.7869
1817	0.7837
1826	0.78
1835	0.7774
1844	0.7742
1853	0.7689
1862	0.7618
1871	0.754
1880	0.7472
1889	0.7407
1898	0.7347
1907	0.7297
1916	0.7247
1925	0.7205
1934	0.7165
1943	0.7133
1952	0.71
1961	0.7058
1970	0.7008
1979	0.6956
1988	0.6899
1997	0.6857
2006	0.6983
2015	0.699
2024	0.695
2033	0.6885
2042	0.6817
2051	0.6747
2060	0.6671
2069	0.6595
2078	0.6524
2087	0.646
2096	0.6402
2105	0.6344
2114	0.6287
2123	0.6229
2132	0.6173
2141	0.6115
2150	0.6055
2159	0.5993
2168	0.593
2177	0.5867
2186	0.5805
2195	0.5735
2204	0.5662
2213	0.5585
2222	0.5502
2231	0.5417
2240	0.5349
2249	0.5285
2258	0.524
2267	0.5199
2276	0.5159
2285	0.5123
2294	0.5093
2303	0.5065
2312	0.5052
2321	0.5042
2330	0.5039
2339	0.5037
2348	0.504
2357	0.5043
2366	0.5047
2375	0.5035
2384	0.4957
2393	0.482
2402	0.4746
2411	0.4717
2420	0.4689
2429	0.4664
2438	0.4643
2447	0.4622
2456	0.4601
2465	0.458
2474	0.4559
2483	0.4538
2492	0.451
2501	0.4482
2510	0.4454
2519	0.4425
2528	0.4397
2537	0.4369
2546	0.434
2555	0.4311
2564	0.4282
2573	0.4253
2582	0.4224
2591	0.4194
2600	0.4164
2609	0.4132
2618	0.4101
2627	0.4069
2636	0.4039
2645	0.4007
2654	0.3972
2663	0.3935
2672	0.3899
2681	0.3862
2690	0.3826
2699	0.3787
2708	0.3747
2717	0.3707
2726	0.3668
2735	0.3628
2744	0.3589
2753	0.3548
2762	0.3509
2771	0.3468
2780	0.3428
2789	0.3387
2798	0.3347
2807	0.3304
2816	0.3263
2825	0.322
2834	0.3179
2843	0.3136
2852	0.3094
2861	0.3051
2870	0.3009
2879	0.2963
2888	0.2914
2897	0.2864
2906	0.2814
2915	0.2751
2924	0.2682
2933	0.2647
2942	0.2631
2951	0.262
2960	0.262
2969	0.2619
2978	0.2607
2987	0.2568
2996	0.2508
3005	0.2448
3014	0.2423
3023	0.2403
3032	0.2382
3041	0.236
3050	0.2339
3059	0.2319
3068	0.2284
3077	0.2242
3086	0.2207
3095	0.2181
3104	0.2162
3113	0.2149
3122	0.2136
3131	0.2104
3140	0.2051
3149	0.1998
3158	0.195
3167	0.1905
3176	0.186
3185	0.1816
3194	0.1773
3203	0.173
3212	0.1689
3221	0.165
3230	0.1612
3239	0.1573
3248	0.1537
3257	0.1505
3266	0.1473
3275	0.1441
3284	0.1406
3293	0.1363
3302	0.1321
3311	0.1278
3320	0.1236
3329	0.1201
3338	0.1168
3347	0.1135
3356	0.1102
3365	0.1068
3374	0.1034
3383	0.1
3392	0.097
3401	0.0954
3410	0.0954
3419	0.0954
3428	0.0957
3437	0.0963
3446	0.0971
3455	0.0985
3464	0.1001
3473	0.1019
3482	0.1044
3491	0.107
3500	0.1115
3509	0.1161
3518	0.1205
3527	0.125
3536	0.1298
3545	0.1346
3554	0.1397
3563	0.1451
3572	0.1505
3581	0.1559
3590	0.1606
3599	0.1653
3608	0.17
3617	0.1747
3626	0.1793
3635	0.1839
3644	0.1886
3653	0.193
3662	0.1972
3671	0.2012
3680	0.202
3689	0.2021
3698	0.2003
3707	0.1985
3716	0.1967
3725	0.1949
3734	0.1929
3743	0.1907
3752	0.1885
3761	0.186
3770	0.1835
3779	0.1809
3788	0.1782
3797	0.1754
