Infrared Spectrum: (Alpha-METHYLGUANIDO)ACETIC ACID MONOHYDRATE
Formula: C4 H9 N3 O2
CAS: 57-00-1
State: SOLID (MINERAL OIL MULL)
Class: COBLENTZ
Instrument: Not specified, most likely a prism, grating, or hybrid spectrometer.
Sampling: TRANSMISSION
Resolution: 4
Origin: WYANDOTTE CHEMICALS CORP., WYANDOTTE, MICHIGAN, USA
MICROMETERS	TRANSMITTANCE
1.993	0.736
2.03398	0.739
2.07495	0.753
2.11593	0.76
2.15691	0.76
2.19788	0.758
2.23886	0.765
2.27984	0.773
2.32081	0.799
2.36179	0.804
2.40277	0.827
2.44374	0.832
2.48472	0.84
2.5257	0.856
2.56667	0.869
2.60765	0.876
2.64863	0.883
2.6896	0.859
2.73058	0.801
2.77156	0.681
2.81253	0.53
2.85351	0.414
2.89449	0.296
2.93546	0.205
2.97644	0.188
3.01742	0.169
3.05839	0.167
3.09937	0.214
3.14035	0.184
3.18132	0.145
3.2223	0.111
3.26328	0.106
3.30425	0.106
3.34523	0.044
3.38621	0.029
3.42718	0.032
3.46816	0.046
3.50914	0.106
3.55011	0.368
3.59109	0.378
3.63207	0.438
3.67304	0.503
3.71402	0.563
3.75499	0.599
3.79597	0.628
3.83695	0.652
3.87792	0.688
3.9189	0.708
3.95988	0.712
4.00085	0.724
4.04183	0.748
4.08281	0.753
4.12378	0.741
4.16476	0.753
4.20574	0.77
4.24671	0.767
4.28769	0.785
4.32867	0.801
4.36964	0.813
4.41062	0.816
4.4516	0.816
4.49257	0.823
4.53355	0.82
4.57453	0.827
4.6155	0.84
4.65648	0.859
4.69746	0.864
4.73843	0.885
4.77941	0.904
4.82039	0.916
4.86136	0.926
4.90234	0.929
4.94332	0.934
4.98429	0.938
5.02527	0.936
5.06625	0.938
5.10722	0.943
5.1482	0.943
5.18918	0.934
5.23015	0.938
5.27113	0.941
5.31211	0.933
5.35308	0.919
5.39406	0.912
5.43504	0.892
5.47601	0.866
5.51699	0.839
5.55797	0.811
5.59894	0.768
5.63992	0.719
5.6809	0.66
5.72187	0.565
5.76285	0.448
5.80383	0.308
5.8448	0.176
5.88578	0.159
5.92676	0.261
5.96773	0.261
6.00871	0.217
6.04969	0.239
6.09066	0.118
6.13164	0.075
6.17262	0.071
6.21359	0.075
6.25457	0.125
6.29555	0.203
6.33652	0.277
6.3775	0.349
6.41848	0.393
6.45945	0.433
6.50043	0.457
6.54141	0.472
6.58238	0.491
6.62336	0.511
6.66434	0.5
6.70531	0.453
6.74629	0.311
6.78727	0.138
6.82824	0.143
6.86922	0.198
6.9102	0.272
6.95117	0.328
6.99215	0.265
7.03312	0.258
7.0741	0.114
7.11508	0.09
7.15605	0.094
7.19703	0.135
7.23801	0.135
7.27898	0.234
7.31996	0.325
7.36094	0.395
7.40191	0.419
7.44289	0.433
7.48387	0.476
7.52484	0.52
7.56582	0.474
7.6068	0.25
7.64777	0.275
7.68875	0.397
7.72973	0.455
7.7707	0.491
7.81168	0.508
7.85266	0.508
7.89363	0.513
7.93461	0.542
7.97559	0.558
8.01656	0.571
8.05754	0.582
8.09852	0.59
8.13949	0.595
8.18047	0.599
8.22145	0.599
8.26242	0.601
8.3034	0.606
8.34438	0.609
8.38535	0.609
8.42633	0.587
8.46731	0.515
8.50828	0.474
8.54926	0.549
8.59024	0.575
8.63121	0.571
8.67219	0.578
8.71317	0.577
8.75414	0.561
8.79512	0.539
8.8361	0.505
8.87707	0.45
8.91805	0.33
8.95903	0.241
9	0.265
9.04098	0.368
9.08196	0.44
9.12293	0.488
9.16391	0.518
9.20489	0.546
9.24586	0.568
9.28684	0.583
9.32782	0.592
9.36879	0.602
9.40977	0.587
9.45075	0.52
9.49172	0.446
9.5327	0.488
9.57368	0.534
9.61465	0.575
9.65563	0.597
9.69661	0.609
9.73758	0.619
9.77856	0.63
9.81954	0.647
9.86051	0.654
9.90149	0.667
9.94247	0.671
9.98344	0.679
10.0244	0.676
10.0654	0.666
10.1064	0.571
10.1473	0.347
10.1883	0.525
10.2293	0.621
10.2703	0.657
10.3113	0.672
10.3522	0.684
10.3932	0.696
10.4342	0.71
10.4752	0.72
10.5161	0.729
10.5571	0.727
10.5981	0.731
10.6391	0.734
10.68	0.734
10.721	0.732
10.762	0.731
10.803	0.727
10.844	0.696
10.8849	0.607
10.9259	0.481
10.9669	0.585
11.0079	0.655
11.0488	0.695
11.0898	0.717
11.1308	0.729
11.1718	0.726
11.2127	0.727
11.2537	0.729
11.2947	0.731
11.3357	0.731
11.3766	0.734
11.4176	0.729
11.4586	0.729
11.4996	0.722
11.5406	0.724
11.5815	0.715
11.6225	0.71
11.6635	0.703
11.7045	0.7
11.7454	0.69
11.7864	0.683
11.8274	0.671
11.8684	0.662
11.9093	0.655
11.9503	0.638
11.9913	0.604
12.0323	0.517
12.0732	0.486
12.1142	0.503
12.1552	0.503
12.1962	0.494
12.2372	0.476
12.2781	0.462
12.3191	0.452
12.3601	0.441
12.4011	0.436
12.442	0.443
12.483	0.458
12.524	0.47
12.565	0.493
12.6059	0.506
12.6469	0.517
12.6879	0.532
12.7289	0.539
12.7699	0.544
12.8108	0.549
12.8518	0.553
12.8928	0.549
12.9338	0.549
12.9747	0.547
13.0157	0.544
13.0567	0.541
13.0977	0.534
13.1386	0.532
13.1796	0.525
13.2206	0.523
13.2616	0.511
13.3025	0.508
13.3435	0.501
13.3845	0.493
13.4255	0.494
13.4665	0.494
13.5074	0.488
13.5484	0.481
13.5894	0.453
13.6304	0.441
13.6713	0.419
13.7123	0.4
13.7533	0.364
13.7943	0.354
13.8352	0.335
13.8762	0.32
13.9172	0.308
13.9582	0.301
13.9992	0.291
14.0401	0.279
14.0811	0.267
14.1221	0.261
14.1631	0.26
14.204	0.261
14.245	0.268
14.286	0.28
14.327	0.291
14.3679	0.299
14.4089	0.313
14.4499	0.321
14.4909	0.323
14.5318	0.335
14.5728	0.332
14.6138	0.342
14.6548	0.347
14.6958	0.351
14.7367	0.351
14.7777	0.352
14.8187	0.356
14.8597	0.357
14.9006	0.359
14.9416	0.364
14.9826	0.369
15.0236	0.373
15.0645	0.383
15.1055	0.375
15.1465	0.361
15.1875	0.361
15.2285	0.359
15.2694	0.359
15.3104	0.359
15.3514	0.359
15.3924	0.363
15.4333	0.363
15.4743	0.363
15.5153	0.371
15.5563	0.373
15.5972	0.373
15.6382	0.381
15.6792	0.392
15.7202	0.397
15.7611	0.4
15.8021	0.407
15.8431	0.414
15.8841	0.422
15.9251	0.431
