Infrared Spectrum: MORPHINE
Formula: C17 H19 N O3
CAS: 57-27-2
State: SOLID (1.2 mg / 250 mg KBr DISC)
Melting point: 254 C DECOMP.
Class: COBLENTZ III
Instrument: PERKIN-ELMER 21 (GRATING)
Instrument parameters: FILTER AT ABOUT 10 MICRONS
Sampling: TRANSMISSION
Resolution: 2
Origin: BUREAU OF CUSTOMS
1/CM	TRANSMITTANCE
4000	0.9475
3991	0.9484
3982	0.9498
3973	0.9516
3964	0.9521
3955	0.9513
3946	0.9504
3937	0.9495
3928	0.9488
3919	0.9481
3910	0.9474
3901	0.9466
3892	0.946
3883	0.946
3874	0.9462
3865	0.9463
3856	0.9465
3847	0.9467
3838	0.9468
3829	0.9471
3820	0.9475
3811	0.9477
3802	0.9481
3793	0.9482
3784	0.9474
3775	0.9466
3766	0.9458
3757	0.9449
3748	0.9437
3739	0.9427
3730	0.9415
3721	0.9397
3712	0.9378
3703	0.9358
3694	0.9339
3685	0.9288
3676	0.9204
3667	0.9046
3658	0.886
3649	0.8664
3640	0.8436
3631	0.8206
3622	0.7974
3613	0.7742
3604	0.7508
3595	0.7274
3586	0.7038
3577	0.6801
3568	0.6564
3559	0.6324
3550	0.6084
3541	0.5843
3532	0.5694
3523	0.5571
3514	0.5434
3505	0.5293
3496	0.5143
3487	0.4983
3478	0.4808
3469	0.4479
3460	0.4324
3451	0.429
3442	0.4256
3433	0.4215
3424	0.416
3415	0.4101
3406	0.4025
3397	0.3922
3388	0.3768
3379	0.3484
3370	0.3399
3361	0.3364
3352	0.3349
3343	0.3345
3334	0.3364
3325	0.3398
3316	0.3429
3307	0.3438
3298	0.344
3289	0.3387
3280	0.3297
3271	0.3183
3262	0.3063
3253	0.2959
3244	0.2874
3235	0.2811
3226	0.2757
3217	0.2727
3208	0.272
3199	0.272
3190	0.273
3181	0.2783
3172	0.2883
3163	0.3038
3154	0.3237
3145	0.3407
3136	0.3577
3127	0.3748
3118	0.392
3109	0.4093
3100	0.4268
3091	0.4443
3082	0.462
3073	0.4797
3064	0.4975
3055	0.5008
3046	0.5032
3037	0.5167
3028	0.531
3019	0.5455
3010	0.56
3001	0.5745
2992	0.5792
2983	0.5782
2974	0.5486
2965	0.4783
2956	0.4075
2947	0.3526
2938	0.3564
2929	0.3829
2920	0.419
2911	0.4487
2902	0.4696
2893	0.4851
2884	0.503
2875	0.5016
2866	0.4734
2857	0.4662
2848	0.4909
2839	0.4944
2830	0.4792
2821	0.4797
2812	0.504
2803	0.5285
2794	0.5531
2785	0.5779
2776	0.6028
2767	0.6279
2758	0.6471
2749	0.6475
2740	0.6468
2731	0.6453
2722	0.6455
2713	0.6468
2704	0.6511
2695	0.6554
2686	0.6595
2677	0.6636
2668	0.6654
2659	0.6669
2650	0.6669
2641	0.6669
2632	0.6646
2623	0.6608
2614	0.6568
2605	0.6517
2596	0.6465
2587	0.6412
2578	0.6359
2569	0.6304
2560	0.6249
2551	0.6206
2542	0.6167
2533	0.6127
2524	0.6098
2515	0.6077
2506	0.6059
2497	0.6044
2488	0.6029
2479	0.6016
2470	0.6003
2461	0.598
2452	0.5945
2443	0.5909
2434	0.5883
2425	0.5883
2416	0.5915
2407	0.5944
2398	0.5949
2389	0.5932
2380	0.5917
2371	0.5935
2362	0.5992
2353	0.6087
2344	0.6207
2335	0.6303
2326	0.6394
2317	0.6486
2308	0.6575
2299	0.6651
2290	0.6728
2281	0.6806
2272	0.6883
2263	0.6944
2254	0.7004
2245	0.7065
2236	0.7125
2227	0.719
2218	0.7254
2209	0.7318
2200	0.7383
2191	0.743
2182	0.7478
2173	0.7515
2164	0.7546
2155	0.7575
2146	0.7606
2137	0.7633
2128	0.7657
2119	0.7681
2110	0.7703
2101	0.7724
2092	0.7745
2083	0.7764
2074	0.7776
2065	0.7782
2056	0.7786
2047	0.779
2038	0.779
2029	0.7772
2020	0.7755
2011	0.7734
2002	0.7706
1993	0.7678
1984	0.7642
1975	0.76
1966	0.7558
1957	0.7511
1948	0.746
1939	0.7408
1930	0.7354
1921	0.7303
1912	0.7251
1903	0.7207
1894	0.7164
1885	0.7121
1876	0.7083
1867	0.7048
1858	0.7022
1849	0.7017
1840	0.7043
1831	0.7084
1822	0.7115
1813	0.7118
1804	0.715
1795	0.7172
1786	0.7187
1777	0.72
1768	0.72
1759	0.7184
1750	0.7175
1741	0.7175
1732	0.7188
1723	0.7193
1714	0.7184
1705	0.7135
1696	0.6945
1687	0.6554
1678	0.6097
1669	0.5683
1660	0.5309
1651	0.5032
1642	0.5027
1633	0.5309
1624	0.4958
1615	0.4097
1606	0.4894
1597	0.6183
1588	0.6672
1579	0.7011
1570	0.7082
1561	0.7251
1552	0.7369
1543	0.7392
1534	0.7108
1525	0.654
1516	0.5068
1507	0.467
1498	0.3907
1489	0.302
1480	0.2139
1471	0.2218
1462	0.2278
1453	0.2039
1444	0.2981
1435	0.4627
1426	0.5095
1417	0.5281
1408	0.5014
1399	0.4864
1390	0.4953
1381	0.4404
1372	0.4005
1363	0.4191
1354	0.4726
1345	0.419
1336	0.3387
1327	0.4068
1318	0.3575
1309	0.3747
1300	0.5222
1291	0.421
1282	0.3518
1273	0.333
1264	0.2509
1255	0.2264
1246	0.2161
1237	0.332
1228	0.4517
1219	0.467
1210	0.4598
1201	0.3168
1192	0.452
1183	0.4832
1174	0.4468
1165	0.4643
1156	0.3714
1147	0.3318
1138	0.3812
1129	0.3057
1120	0.2012
1111	0.4559
1102	0.388
1093	0.2811
1084	0.3953
1075	0.3748
1066	0.4524
1057	0.5256
1048	0.4202
1039	0.4027
1030	0.3546
1021	0.571
1012	0.6522
1003	0.6983
994	0.7174
985	0.3498
976	0.3792
967	0.4565
958	0.3948
949	0.3918
940	0.3853
931	0.5877
922	0.574
913	0.6482
904	0.6847
895	0.6837
886	0.4676
877	0.5548
868	0.6387
859	0.6684
850	0.6381
841	0.4807
832	0.337
823	0.5442
814	0.5048
805	0.2115
796	0.3695
787	0.341
778	0.5717
769	0.3998
760	0.2753
751	0.5037
742	0.5938
733	0.6226
724	0.6081
715	0.5729
706	0.4739
697	0.5633
688	0.5612
679	0.5334
670	0.4842
661	0.5229
652	0.4144
