Infrared Spectrum: BARBITURIC ACID, 5-ETHYL-5-ISOAMYL-
Formula: C11 H18 N2 O3
CAS: 57-43-2
State: SOLID (KBr DISC)
Melting point: 156-158 C
Class: COBLENTZ III
Instrument: PERKIN-ELMER 21 (GRATING)
Instrument parameters: FILTER AT ABOUT 10 MICRONS
Sampling: TRANSMISSION
Resolution: 2
1/CM	TRANSMITTANCE
4000	0.6245
3991	0.6248
3982	0.6251
3973	0.6255
3964	0.6258
3955	0.6262
3946	0.6265
3937	0.6269
3928	0.6272
3919	0.6278
3910	0.6284
3901	0.6289
3892	0.6295
3883	0.63
3874	0.6306
3865	0.6312
3856	0.6318
3847	0.6323
3838	0.6328
3829	0.6334
3820	0.6339
3811	0.6344
3802	0.635
3793	0.6356
3784	0.6362
3775	0.6365
3766	0.6364
3757	0.6362
3748	0.636
3739	0.6359
3730	0.6358
3721	0.6357
3712	0.6355
3703	0.6353
3694	0.6352
3685	0.635
3676	0.6349
3667	0.6348
3658	0.6346
3649	0.6344
3640	0.6343
3631	0.6341
3622	0.634
3613	0.6339
3604	0.6336
3595	0.6333
3586	0.6331
3577	0.6329
3568	0.6326
3559	0.6324
3550	0.6315
3541	0.6299
3532	0.6284
3523	0.6248
3514	0.621
3505	0.6171
3496	0.6127
3487	0.6084
3478	0.6039
3469	0.5995
3460	0.5958
3451	0.5933
3442	0.591
3433	0.5901
3424	0.5893
3415	0.5885
3406	0.5877
3397	0.5867
3388	0.5856
3379	0.581
3370	0.5764
3361	0.5688
3352	0.5597
3343	0.5432
3334	0.5194
3325	0.5036
3316	0.4888
3307	0.4691
3298	0.4508
3289	0.4262
3280	0.4079
3271	0.395
3262	0.3834
3253	0.3605
3244	0.3524
3235	0.3492
3226	0.3482
3217	0.3493
3208	0.3588
3199	0.3746
3190	0.3854
3181	0.3926
3172	0.3989
3163	0.404
3154	0.4064
3145	0.407
3136	0.4029
3127	0.3914
3118	0.3708
3109	0.3666
3100	0.3662
3091	0.3695
3082	0.3934
3073	0.414
3064	0.4345
3055	0.4551
3046	0.4759
3037	0.4967
3028	0.5177
3019	0.5275
3010	0.5303
3001	0.5298
2992	0.5226
2983	0.4674
2974	0.4546
2965	0.4474
2956	0.4447
2947	0.4456
2938	0.4518
2929	0.4592
2920	0.4666
2911	0.4715
2902	0.4747
2893	0.4757
2884	0.4784
2875	0.4829
2866	0.497
2857	0.5265
2848	0.5607
2839	0.581
2830	0.5962
2821	0.6083
2812	0.6193
2803	0.6295
2794	0.6388
2785	0.6464
2776	0.6526
2767	0.6588
2758	0.6649
2749	0.6705
2740	0.6761
2731	0.6817
2722	0.6867
2713	0.6906
2704	0.6926
2695	0.6947
2686	0.6964
2677	0.6975
2668	0.6986
2659	0.699
2650	0.6994
2641	0.6996
2632	0.6996
2623	0.7
2614	0.7007
2605	0.7021
2596	0.7039
2587	0.7055
2578	0.7065
2569	0.7078
2560	0.7087
2551	0.7093
2542	0.7097
2533	0.7101
2524	0.7097
2515	0.7086
2506	0.7068
2497	0.7042
2488	0.7025
2479	0.7019
2470	0.7021
2461	0.7031
2452	0.7067
2443	0.7134
2434	0.7178
2425	0.7187
2416	0.7181
2407	0.7176
2398	0.7172
2389	0.7168
2380	0.7151
2371	0.7125
2362	0.711
2353	0.7106
2344	0.7106
2335	0.7111
2326	0.7138
2317	0.7165
2308	0.7198
2299	0.7225
2290	0.7246
2281	0.7255
2272	0.7261
2263	0.7265
2254	0.7272
2245	0.7275
2236	0.7275
2227	0.7275
2218	0.7278
2209	0.7282
2200	0.7281
2191	0.7267
2182	0.7251
2173	0.7239
2164	0.7226
2155	0.7215
2146	0.7208
2137	0.72
2128	0.7191
2119	0.7183
2110	0.7175
2101	0.716
2092	0.7158
2083	0.7169
2074	0.7186
2065	0.7201
2056	0.7215
2047	0.7226
2038	0.7226
2029	0.7162
2020	0.7164
2011	0.7164
2002	0.7165
1993	0.7151
1984	0.7122
1975	0.7095
1966	0.7056
1957	0.6993
1948	0.6901
1939	0.6867
1930	0.6856
1921	0.6849
1912	0.6818
1903	0.6801
1894	0.6784
1885	0.6735
1876	0.6683
1867	0.6624
1858	0.6515
1849	0.6386
1840	0.6253
1831	0.6101
1822	0.5944
1813	0.5786
1804	0.5615
1795	0.5402
1786	0.5039
1777	0.4504
1768	0.3932
1759	0.244
1750	0.3064
1741	0.2519
1732	0.1364
1723	0.1486
1714	0.1521
1705	0.1128
1696	0.1869
1687	0.3095
1678	0.398
1669	0.4487
1660	0.4976
1651	0.5529
1642	0.5945
1633	0.6212
1624	0.645
1615	0.6638
1606	0.6808
1597	0.6949
1588	0.7041
1579	0.7071
1570	0.7061
1561	0.6932
1552	0.68
1543	0.6824
1534	0.7004
1525	0.7015
1516	0.6965
1507	0.6933
1498	0.6821
1489	0.6567
1480	0.616
1471	0.4779
1462	0.3849
1453	0.3727
1444	0.3484
1435	0.245
1426	0.2984
1417	0.3996
1408	0.4565
1399	0.5024
1390	0.5209
1381	0.3944
1372	0.4623
1363	0.4796
1354	0.3808
1345	0.4572
1336	0.4222
1327	0.4353
1318	0.3071
1309	0.4301
1300	0.5646
1291	0.6045
1282	0.6397
1273	0.6601
1264	0.5904
1255	0.6394
1246	0.5888
1237	0.4676
1228	0.6383
1219	0.6387
1210	0.5088
1201	0.6191
1192	0.6846
1183	0.7005
1174	0.7007
1165	0.6701
1156	0.6804
1147	0.713
1138	0.7375
1129	0.7461
1120	0.7451
1111	0.7421
1102	0.7426
1093	0.7461
1084	0.7355
1075	0.7247
1066	0.7394
1057	0.7361
1048	0.6943
1039	0.7304
1030	0.7524
1021	0.7628
1012	0.7675
1003	0.7458
994	0.7521
985	0.769
976	0.7748
967	0.7758
958	0.766
949	0.7797
940	0.7836
931	0.7776
922	0.7688
913	0.7682
904	0.7572
895	0.7493
886	0.7394
877	0.7114
868	0.6496
859	0.57
850	0.5602
841	0.5998
832	0.6108
823	0.6018
814	0.5853
805	0.621
796	0.6671
787	0.7125
778	0.7169
769	0.7435
760	0.711
751	0.7741
742	0.7192
733	0.7941
724	0.8253
715	0.8417
706	0.8511
697	0.8573
688	0.8639
679	0.8611
670	0.7637
