Infrared Spectrum: Barbital
Formula: C 8 H 12 N 2 O 3
CAS: 57-44-3
State: gas
Instrument: HP-GC/MS/IRD
Origin: NIST Mass Spectrometry Data Center
1/CM	ABSORBANCE
550	0.000108
562	3.36e-05
574	3.36e-05
586	0.0002184
598	0.0004608
610	0.0006792
622	0.0007872
634	0.0009456
646	0.0018
658	0.0036288
670	0.0032904
682	0.001344
694	0.000612
706	0.0004944
718	0.0007944
730	0.0013536
742	0.0019368
754	0.0027408
766	0.0022008
778	0.0010488
790	0.0007656
802	0.0006528
814	0.0004968
826	0.0002832
838	0.0002592
850	0.0002808
862	0.0003024
874	0.0002784
886	0.0002808
898	0.000288
910	0.0002184
922	0.0002856
934	0.0003504
946	0.0004464
958	0.0003456
970	0.0002808
982	0.000324
994	0.0004728
1006	0.0007104
1018	0.0004536
1030	0.0004248
1042	0.0004392
1054	0.0003864
1066	0.0002952
1078	0.0003384
1090	0.0003648
1102	0.0003504
1114	0.0003432
1126	0.000456
1138	0.0008544
1150	0.001428
1162	0.0014304
1174	0.0009624
1186	0.0010728
1198	0.0019248
1210	0.002244
1222	0.0014904
1234	0.0011808
1246	0.0013944
1258	0.002052
1270	0.0035016
1282	0.0051432
1294	0.006888
1306	0.0052488
1318	0.0034848
1330	0.0035064
1342	0.0036624
1354	0.0035664
1366	0.0035976
1378	0.0044112
1390	0.0060144
1402	0.0055848
1414	0.0056304
1426	0.0044208
1438	0.0022728
1450	0.0022824
1462	0.0020448
1474	0.001296
1486	0.000876
1498	0.0008352
1510	0.0007032
1522	0.0005424
1534	0.0005088
1546	0.0005088
1558	0.0004008
1570	0.0003312
1582	0.0003456
1594	0.0004536
1606	0.0005088
1618	0.000432
1630	0.0003864
1642	0.000456
1654	0.0004968
1666	0.0006816
1678	0.0010368
1690	0.0017112
1702	0.0027816
1714	0.007068
1726	0.0167184
1738	0.0139752
1750	0.0135456
1762	0.0192192
1774	0.024
1786	0.0136608
1798	0.0037872
1810	0.0021936
1822	0.0014976
1834	0.0009144
1846	0.000648
1858	0.0005544
1870	0.0004944
1882	0.0004584
1894	0.0004824
1906	0.0004512
1918	0.000312
1930	0.0002088
1942	0.0001656
1954	0.0001512
1966	0.0001584
1978	0.0001704
1990	0.0001608
2002	0.000228
2014	0.0002136
2026	0.0001704
2038	0.0001104
2050	0.0001176
2062	8.16e-05
2074	6.72e-05
2086	8.88e-05
2098	6.96e-05
2110	5.52e-05
2122	5.52e-05
2134	6.24e-05
2146	5.52e-05
2158	2.88e-05
2170	2.4e-05
2182	1.44e-05
2194	2.64e-05
2206	1.68e-05
2218	1.2e-05
2230	1.44e-05
2242	2.4e-05
2254	3.12e-05
2266	2.4e-05
2278	2.4e-05
2290	4.08e-05
2302	4.08e-05
2314	6.96e-05
2326	6.96e-05
2338	9.12e-05
2350	9.12e-05
2362	0.0001176
2374	0.000144
2386	0.000108
2398	7.44e-05
2410	8.4e-05
2422	9.12e-05
2434	7.92e-05
2446	7.92e-05
2458	6e-05
2470	6e-05
2482	8.88e-05
2494	0.0001056
2506	7.92e-05
2518	8.64e-05
2530	6.72e-05
2542	8.88e-05
2554	9.6e-05
2566	9.84e-05
2578	6.96e-05
2590	6.48e-05
2602	7.92e-05
2614	8.64e-05
2626	8.16e-05
2638	8.4e-05
2650	7.44e-05
2662	8.4e-05
2674	9.12e-05
2686	0.000108
2698	9.36e-05
2710	0.0001248
2722	0.0001344
2734	0.0001344
2746	0.0001728
2758	0.0002256
2770	0.0002064
2782	0.0001776
2794	0.00018
2806	0.0001632
2818	0.0001752
2830	0.0001704
2842	0.0002088
2854	0.0002736
2866	0.0003888
2878	0.0006264
2890	0.0009432
2902	0.0008088
2914	0.000636
2926	0.0007992
2938	0.00126
2950	0.0019032
2962	0.0014424
2974	0.0023688
2986	0.002736
2998	0.0011088
3010	0.000444
3022	0.0002688
3034	0.0002112
3046	0.0002016
3058	0.0002064
3070	0.0002136
3082	0.0002112
3094	0.0002184
3106	0.0001896
3118	0.0001872
3130	0.0002064
3142	0.000204
3154	0.0002136
3166	0.0001872
3178	0.0001848
3190	0.0001464
3202	0.0001128
3214	6.72e-05
3226	7.92e-05
3238	8.64e-05
3250	0.0001152
3262	8.4e-05
3274	5.04e-05
3286	6.72e-05
3298	6.24e-05
3310	8.64e-05
3322	8.64e-05
3334	6.72e-05
3346	5.76e-05
3358	8.88e-05
3370	0.0001176
3382	0.0001584
3394	0.0002592
3406	0.0007224
3418	0.0031104
3430	0.0060576
3442	0.002736
3454	0.0005808
3466	0.0004008
3478	0.0002952
3490	0.0001776
3502	0.0001488
3514	0.0001944
3526	0.0002112
3538	0.0002592
3550	0.0001968
3562	0.000144
3574	8.64e-05
3586	5.28e-05
3598	5.52e-05
3610	4.32e-05
3622	3.12e-05
3634	4.08e-05
3646	2.16e-05
3658	3.84e-05
3670	9.6e-06
3682	2.88e-05
3694	3.36e-05
3706	2.64e-05
3718	0
3730	4.32e-05
3742	0
3754	9.6e-06
3766	0
3778	4.8e-06
3790	6.24e-05
3802	3.36e-05
3814	2.4e-06
3826	1.68e-05
3838	9.6e-06
