Infrared Spectrum: PHYSOSTIGMINE
Formula: C15 H21 N3 O2
CAS: 57-47-6
State: SOLUTION (7.5% CHCl3)
Class: COBLENTZ
Instrument: Not specified, most likely a grating spectrometer.
Sampling: TRANSMISSION
Path length: 0.055 CM CELL
Resolution: 4
Origin: ABBOTT LABORATORIES
MICROMETERS	TRANSMITTANCE
2.046	0.954
2.08187	0.954
2.11775	0.957
2.15362	0.963
2.1895	0.961
2.22537	0.964
2.26125	0.963
2.29712	0.954
2.33299	0.961
2.36887	0.966
2.40474	0.966
2.44062	0.961
2.47649	0.963
2.51236	0.961
2.54824	0.963
2.58411	0.964
2.61999	0.964
2.65586	0.964
2.69174	0.966
2.72761	0.966
2.76348	0.97
2.79936	0.957
2.83523	0.936
2.87111	0.896
2.90698	0.732
2.94285	0.866
2.97873	0.876
3.0146	0.889
3.05048	0.894
3.08635	0.898
3.12223	0.899
3.1581	0.901
3.19397	0.903
3.22985	0.903
3.26572	0.901
3.3016	0.903
3.33747	0.885
3.37335	0.713
3.40922	0.592
3.44509	0.585
3.48097	0.588
3.51684	0.636
3.55272	0.688
3.58859	0.701
3.62446	0.84
3.66034	0.898
3.69621	0.922
3.73209	0.931
3.76796	0.938
3.80384	0.943
3.83971	0.945
3.87558	0.947
3.91146	0.947
3.94733	0.947
3.98321	0.94
4.01908	0.938
4.05496	0.933
4.09083	0.931
4.1267	0.931
4.16258	0.936
4.19845	0.942
4.23433	0.945
4.2702	0.947
4.30607	0.95
4.34195	0.954
4.37782	0.959
4.4137	0.963
4.44957	0.963
4.48545	0.963
4.52132	0.963
4.55719	0.963
4.59307	0.963
4.62894	0.963
4.66482	0.963
4.70069	0.963
4.73656	0.963
4.77244	0.963
4.80831	0.964
4.84419	0.968
4.88006	0.968
4.91594	0.968
4.95181	0.966
4.98768	0.968
5.02356	0.971
5.05943	0.971
5.09531	0.966
5.13118	0.97
5.16706	0.97
5.20293	0.97
5.2388	0.966
5.27468	0.966
5.31055	0.966
5.34643	0.963
5.3823	0.959
5.41817	0.957
5.45405	0.95
5.48992	0.945
5.5258	0.938
5.56167	0.938
5.59755	0.936
5.63342	0.922
5.66929	0.894
5.70517	0.695
5.74104	0.332
5.77692	0.17
5.81279	0.177
5.84867	0.448
5.88454	0.732
5.92041	0.834
5.95629	0.868
5.99216	0.889
6.02804	0.898
6.06391	0.896
6.09978	0.896
6.13566	0.885
6.17153	0.845
6.20741	0.734
6.24328	0.768
6.27916	0.818
6.31503	0.857
6.3509	0.869
6.38678	0.866
6.42265	0.857
6.45853	0.831
6.4944	0.808
6.53027	0.785
6.56615	0.748
6.60202	0.731
6.6379	0.699
6.67377	0.595
6.70965	0.289
6.74552	0.182
6.78139	0.202
6.81727	0.277
6.85314	0.493
6.88902	0.537
6.92489	0.537
6.96077	0.541
6.99664	0.558
7.03251	0.543
7.06839	0.544
7.10426	0.595
7.14014	0.745
7.17601	0.81
7.21188	0.833
7.24776	0.843
7.28363	0.804
7.31951	0.794
7.35538	0.808
7.39126	0.753
7.42713	0.644
7.463	0.567
7.49888	0.625
7.53475	0.697
7.57063	0.748
7.6065	0.801
7.64237	0.826
7.67825	0.847
7.71412	0.838
7.75	0.806
7.78587	0.794
7.82175	0.766
7.85762	0.717
7.89349	0.644
7.92937	0.586
7.96524	0.578
8.00112	0.572
8.03699	0.564
8.07287	0.558
8.10874	0.557
8.14461	0.558
8.18049	0.56
8.21636	0.56
8.25224	0.558
8.28811	0.56
8.32398	0.564
8.35986	0.567
8.39573	0.565
8.43161	0.565
8.46748	0.555
8.50336	0.541
8.53923	0.527
8.5751	0.521
8.61098	0.495
8.64685	0.497
8.68273	0.565
8.7186	0.634
8.75448	0.667
8.79035	0.659
8.82622	0.636
8.8621	0.608
8.89797	0.532
8.93385	0.34
8.96972	0.321
9.00559	0.381
9.04147	0.493
9.07734	0.532
9.11322	0.585
9.14909	0.641
9.18497	0.694
9.22084	0.729
9.25671	0.759
9.29259	0.731
9.32846	0.729
9.36434	0.738
9.40021	0.76
9.43608	0.773
9.47196	0.773
9.50783	0.768
9.54371	0.76
9.57958	0.76
9.61546	0.766
9.65133	0.766
9.6872	0.75
9.72308	0.718
9.75895	0.695
9.79483	0.702
9.8307	0.717
9.86658	0.72
9.90245	0.732
9.93832	0.79
9.9742	0.806
10.0101	0.826
10.0459	0.84
10.0818	0.85
10.1177	0.852
10.1536	0.848
10.1894	0.843
10.2253	0.838
10.2612	0.831
10.2971	0.811
10.3329	0.787
10.3688	0.717
10.4047	0.666
10.4406	0.63
10.4764	0.618
10.5123	0.604
10.5482	0.576
10.5841	0.553
10.6199	0.592
10.6558	0.652
10.6917	0.692
10.7276	0.715
10.7634	0.725
10.7993	0.727
10.8352	0.732
10.8711	0.739
10.9069	0.75
10.9428	0.76
10.9787	0.776
11.0145	0.803
11.0504	0.813
11.0863	0.811
11.1222	0.808
11.158	0.806
11.1939	0.804
11.2298	0.813
11.2657	0.824
11.3015	0.829
11.3374	0.827
11.3733	0.818
11.4092	0.808
11.445	0.811
11.4809	0.813
11.5168	0.81
11.5527	0.804
11.5885	0.813
11.6244	0.833
11.6603	0.855
11.6962	0.866
11.732	0.873
11.7679	0.884
11.8038	0.889
11.8397	0.892
11.8755	0.896
11.9114	0.898
11.9473	0.898
11.9832	0.898
12.019	0.894
12.0549	0.896
12.0908	0.896
12.1266	0.898
12.1625	0.898
12.1984	0.894
12.2343	0.889
12.2701	0.887
12.306	0.887
12.3419	0.887
12.3778	0.887
12.4136	0.887
12.4495	0.889
12.4854	0.889
12.5213	0.891
12.5571	0.891
12.593	0.892
12.6289	0.894
12.6648	0.899
12.7006	0.901
12.7365	0.905
12.7724	0.906
12.8083	0.908
12.8441	0.906
12.88	0.906
12.9159	0.905
12.9518	0.905
12.9876	0.905
13.0235	0.906
13.0594	0.905
13.0953	0.905
13.1311	0.901
13.167	0.898
13.2029	0.898
13.2387	0.894
13.2746	0.891
13.3105	0.889
13.3464	0.892
13.3822	0.896
13.4181	0.894
13.454	0.891
13.4899	0.889
13.5257	0.891
13.5616	0.891
13.5975	0.891
13.6334	0.891
13.6692	0.889
13.7051	0.889
13.741	0.889
13.7769	0.885
13.8127	0.887
13.8486	0.891
13.8845	0.891
13.9204	0.887
13.9562	0.892
13.9921	0.898
14.028	0.898
14.0639	0.899
14.0997	0.901
14.1356	0.901
14.1715	0.901
14.2074	0.903
14.2432	0.899
14.2791	0.898
14.315	0.899
14.3509	0.898
14.3867	0.898
14.4226	0.899
14.4585	0.903
14.4943	0.905
14.5302	0.905
14.5661	0.905
14.602	0.905
14.6378	0.905
14.6737	0.905
14.7096	0.905
14.7455	0.905
14.7813	0.906
14.8172	0.908
14.8531	0.908
14.889	0.906
14.9248	0.905
14.9607	0.903
14.9966	0.901
15.0325	0.899
15.0683	0.898
15.1042	0.896
15.1401	0.891
15.176	0.887
15.2118	0.884
15.2477	0.882
15.2836	0.88
15.3195	0.88
15.3553	0.88
15.3912	0.884
15.4271	0.887
15.463	0.891
