Infrared Spectrum: LEVULOSE
Formula: C6 H12 O6
CAS: 57-48-7
State: SOLID (MINERAL OIL MULL)
Class: COBLENTZ
Instrument: Not specified, most likely a prism, grating, or hybrid spectrometer.
Sampling: TRANSMISSION
Resolution: 4
Origin: DOW CHEMICAL COMPANY
MICROMETERS	TRANSMITTANCE
2.014	0.64
2.05514	0.642
2.09627	0.648
2.13741	0.666
2.17854	0.676
2.21968	0.678
2.26081	0.678
2.30195	0.686
2.34308	0.693
2.38422	0.705
2.42536	0.717
2.46649	0.722
2.50763	0.748
2.54876	0.773
2.5899	0.791
2.63103	0.808
2.67217	0.821
2.7133	0.825
2.75444	0.732
2.79558	0.515
2.83671	0.046
2.87785	0.071
2.91898	0.022
2.96012	0.029
3.00125	0.039
3.04239	0.058
3.08352	0.068
3.12466	0.075
3.1658	0.106
3.20693	0.169
3.24807	0.215
3.2892	0.277
3.33034	0.229
3.37147	0.056
3.41261	0.023
3.45375	0.077
3.49488	0.179
3.53602	0.486
3.57715	0.559
3.61829	0.594
3.65942	0.582
3.70056	0.589
3.74169	0.583
3.78283	0.597
3.82397	0.623
3.8651	0.645
3.90624	0.662
3.94737	0.678
3.98851	0.691
4.02964	0.703
4.07078	0.722
4.11191	0.741
4.15305	0.755
4.19419	0.758
4.23532	0.765
4.27646	0.773
4.31759	0.782
4.35873	0.782
4.39986	0.794
4.441	0.801
4.48213	0.801
4.52327	0.806
4.56441	0.811
4.60554	0.799
4.64668	0.806
4.68781	0.816
4.72895	0.818
4.77008	0.811
4.81122	0.83
4.85235	0.832
4.89349	0.827
4.93463	0.837
4.97576	0.84
5.0169	0.847
5.05803	0.847
5.09917	0.84
5.1403	0.844
5.18144	0.854
5.22257	0.849
5.26371	0.839
5.30485	0.845
5.34598	0.849
5.38712	0.854
5.42825	0.859
5.46939	0.868
5.51052	0.868
5.55166	0.868
5.59279	0.866
5.63393	0.866
5.67507	0.868
5.7162	0.864
5.75734	0.863
5.79847	0.864
5.83961	0.866
5.88074	0.863
5.92188	0.859
5.96302	0.854
6.00415	0.847
6.04529	0.837
6.08642	0.839
6.12756	0.84
6.16869	0.839
6.20983	0.833
6.25096	0.833
6.2921	0.832
6.33324	0.823
6.37437	0.821
6.41551	0.811
6.45664	0.796
6.49778	0.78
6.53891	0.768
6.58005	0.748
6.62118	0.726
6.66232	0.69
6.70346	0.633
6.74459	0.522
6.78573	0.263
6.82686	0.198
6.868	0.183
6.90913	0.248
6.95027	0.2
6.9914	0.179
7.03254	0.265
7.07368	0.28
7.11481	0.186
7.15595	0.174
7.19708	0.261
7.23822	0.258
7.27935	0.268
7.32049	0.363
7.36162	0.231
7.40276	0.094
7.4439	0.049
7.48503	0.082
7.52617	0.279
7.5673	0.404
7.60844	0.452
7.64957	0.452
7.69071	0.445
7.73184	0.486
7.77298	0.498
7.81412	0.41
7.85525	0.32
7.89639	0.241
7.93752	0.383
7.97866	0.361
8.01979	0.417
8.06093	0.46
8.10206	0.457
8.1432	0.53
8.18434	0.582
8.22547	0.606
8.26661	0.614
8.30774	0.601
8.34888	0.549
8.39001	0.458
8.43115	0.311
8.47228	0.16
8.51342	0.181
8.55456	0.231
8.59569	0.183
8.63683	0.085
8.67796	0.032
8.7191	0.034
8.76023	0.097
8.80137	0.109
8.84251	0.125
8.88364	0.205
8.92478	0.273
8.96591	0.303
9.00705	0.296
9.04818	0.239
9.08932	0.119
9.13045	0.034
9.17159	0.015
9.21273	0.02
9.25386	0.013
9.295	0.003
9.33613	0.011
9.37727	0.018
9.4184	0.015
9.45954	0.006
9.50067	0.005
9.54181	0.008
9.58295	0.041
9.62408	0.107
9.66522	0.138
9.70635	0.15
9.74749	0.196
9.78862	0.282
9.82976	0.369
9.87089	0.445
9.91203	0.498
9.95317	0.539
9.9943	0.563
10.0354	0.578
10.0766	0.565
10.1177	0.479
10.1588	0.27
10.2	0.075
10.2411	0.02
10.2823	0.106
10.3234	0.256
10.3645	0.368
10.4057	0.457
10.4468	0.505
10.4879	0.544
10.5291	0.57
10.5702	0.585
10.6113	0.597
10.6525	0.599
10.6936	0.59
10.7347	0.554
10.7759	0.457
10.817	0.315
10.8581	0.39
10.8993	0.554
10.9404	0.614
10.9816	0.635
11.0227	0.643
11.0638	0.652
11.105	0.65
11.1461	0.636
11.1872	0.628
11.2284	0.609
11.2695	0.575
11.3106	0.523
11.3518	0.429
11.3929	0.308
11.434	0.232
11.4752	0.296
11.5163	0.332
11.5575	0.366
11.5986	0.46
11.6397	0.522
11.6809	0.556
11.722	0.571
11.7631	0.577
11.8043	0.577
11.8454	0.568
11.8865	0.549
11.9277	0.529
11.9688	0.496
12.0099	0.445
12.0511	0.402
12.0922	0.347
12.1334	0.291
12.1745	0.208
12.2156	0.164
12.2568	0.184
12.2979	0.263
12.339	0.33
12.3802	0.357
12.4213	0.361
12.4624	0.357
12.5036	0.335
12.5447	0.294
12.5858	0.234
12.627	0.171
12.6681	0.102
12.7092	0.051
12.7504	0.018
12.7915	0.035
12.8327	0.099
12.8738	0.193
12.9149	0.289
12.9561	0.354
12.9972	0.398
13.0383	0.433
13.0795	0.441
13.1206	0.446
13.1617	0.452
13.2029	0.457
13.244	0.457
13.2851	0.452
13.3263	0.445
13.3674	0.441
13.4086	0.436
13.4497	0.429
13.4908	0.424
13.532	0.417
13.5731	0.41
13.6142	0.405
13.6554	0.4
13.6965	0.386
13.7376	0.373
13.7788	0.366
13.8199	0.351
13.861	0.344
13.9022	0.335
13.9433	0.328
13.9845	0.323
14.0256	0.309
14.0667	0.301
14.1079	0.289
14.149	0.279
14.1901	0.265
14.2313	0.255
14.2724	0.248
14.3135	0.238
14.3547	0.231
14.3958	0.222
14.4369	0.215
14.4781	0.208
14.5192	0.205
14.5603	0.202
14.6015	0.202
14.6426	0.202
14.6838	0.2
14.7249	0.196
14.766	0.19
14.8072	0.196
14.8483	0.198
14.8894	0.198
14.9306	0.198
14.9717	0.202
15.0128	0.205
15.054	0.203
15.0951	0.202
15.1362	0.2
15.1774	0.2
15.2185	0.2
15.2597	0.2
15.3008	0.2
15.3419	0.198
15.3831	0.198
15.4242	0.196
15.4653	0.196
15.5065	0.195
15.5476	0.191
15.5887	0.186
15.6299	0.181
15.671	0.174
15.7121	0.167
15.7533	0.155
15.7944	0.154
15.8356	0.147
15.8767	0.14
