Infrared Spectrum: 1,3-PROPANEDIOL, 2-METHYL-2-PROPYL-, DICARBAMATE
Formula: C9 H18 N2 O4
CAS: 57-53-4
State: SOLID (KBr DISC)
Melting point: 104-106 C
Class: COBLENTZ III
Instrument: PERKIN-ELMER 21 (GRATING)
Instrument parameters: FILTER AT ABOUT 10 MICRONS
Sampling: TRANSMISSION
Resolution: 2
1/CM	TRANSMITTANCE
4000	0.8633
3991	0.8641
3982	0.8649
3973	0.8658
3964	0.8666
3955	0.8668
3946	0.8671
3937	0.8675
3928	0.8675
3919	0.8674
3910	0.867
3901	0.8666
3892	0.866
3883	0.8652
3874	0.8645
3865	0.8642
3856	0.8647
3847	0.8651
3838	0.8656
3829	0.8661
3820	0.8666
3811	0.8671
3802	0.8677
3793	0.8682
3784	0.8682
3775	0.8678
3766	0.8673
3757	0.8668
3748	0.8668
3739	0.867
3730	0.8675
3721	0.8684
3712	0.869
3703	0.8686
3694	0.8683
3685	0.8678
3676	0.867
3667	0.8659
3658	0.8649
3649	0.8638
3640	0.8624
3631	0.8606
3622	0.8588
3613	0.857
3604	0.8552
3595	0.8534
3586	0.85
3577	0.845
3568	0.84
3559	0.834
3550	0.8265
3541	0.815
3532	0.7945
3523	0.7511
3514	0.6869
3505	0.615
3496	0.542
3487	0.4686
3478	0.3947
3469	0.3205
3460	0.2459
3451	0.1709
3442	0.1205
3433	0.126
3424	0.1901
3415	0.2721
3406	0.3546
3397	0.4374
3388	0.4815
3379	0.4819
3370	0.4562
3361	0.3775
3352	0.2968
3343	0.2399
3334	0.2379
3325	0.2619
3316	0.3081
3307	0.3544
3298	0.4009
3289	0.4212
3280	0.4232
3271	0.4254
3262	0.4784
3253	0.5548
3244	0.6316
3235	0.6925
3226	0.6981
3217	0.6991
3208	0.696
3199	0.6895
3190	0.6857
3181	0.6875
3172	0.7078
3163	0.7504
3154	0.7934
3145	0.8357
3136	0.8482
3127	0.8582
3118	0.867
3109	0.8721
3100	0.8762
3091	0.879
3082	0.88
3073	0.8806
3064	0.8798
3055	0.8777
3046	0.8753
3037	0.8721
3028	0.8677
3019	0.8596
3010	0.8024
3001	0.7339
2992	0.6651
2983	0.5959
2974	0.526
2965	0.456
2956	0.4125
2947	0.4171
2938	0.4857
2929	0.5376
2920	0.5484
2911	0.5595
2902	0.5917
2893	0.6153
2884	0.6295
2875	0.6417
2866	0.6543
2857	0.6734
2848	0.7256
2839	0.7869
2830	0.8306
2821	0.85
2812	0.8684
2803	0.8755
2794	0.8798
2785	0.8832
2776	0.8885
2767	0.8946
2758	0.8973
2749	0.8978
2740	0.8978
2731	0.8981
2722	0.8988
2713	0.8999
2704	0.901
2695	0.9021
2686	0.9046
2677	0.9068
2668	0.9097
2659	0.9128
2650	0.9162
2641	0.9212
2632	0.9258
2623	0.928
2614	0.9286
2605	0.9306
2596	0.9337
2587	0.9378
2578	0.9404
2569	0.9418
2560	0.9425
2551	0.9434
2542	0.9421
2533	0.9398
2524	0.9377
2515	0.9365
2506	0.9355
2497	0.9348
2488	0.9359
2479	0.937
2470	0.9383
2461	0.94
2452	0.9416
2443	0.9425
2434	0.9433
2425	0.9438
2416	0.9445
2407	0.9438
2398	0.943
2389	0.9421
2380	0.9404
2371	0.9385
2362	0.9371
2353	0.936
2344	0.9349
2335	0.934
2326	0.9333
2317	0.9327
2308	0.9341
2299	0.9377
2290	0.9405
2281	0.9406
2272	0.9404
2263	0.939
2254	0.9375
2245	0.9361
2236	0.9347
2227	0.9334
2218	0.9336
2209	0.9345
2200	0.9353
2191	0.9359
2182	0.9354
2173	0.9346
2164	0.9324
2155	0.9306
2146	0.9302
2137	0.9297
2128	0.9296
2119	0.93
2110	0.9316
2101	0.9306
2092	0.9285
2083	0.9268
2074	0.9244
2065	0.9218
2056	0.9194
2047	0.9167
2038	0.9121
2029	0.9065
2020	0.9005
2011	0.8945
2002	0.8878
1993	0.8849
1984	0.889
1975	0.8991
1966	0.9033
1957	0.9052
1948	0.9051
1939	0.903
1930	0.8992
1921	0.8951
1912	0.8902
1903	0.8845
1894	0.8824
1885	0.8771
1876	0.8694
1867	0.8578
1858	0.8457
1849	0.8336
1840	0.8225
1831	0.8115
1822	0.8004
1813	0.7885
1804	0.7743
1795	0.7497
1786	0.7139
1777	0.6761
1768	0.6352
1759	0.5373
1750	0.4538
1741	0.3962
1732	0.2125
1723	0.1195
1714	0.0448
1705	0.0365
1696	0.0315
1687	0.1132
1678	0.2403
1669	0.3593
1660	0.5019
1651	0.6081
1642	0.6464
1633	0.6547
1624	0.6141
1615	0.4756
1606	0.333
1597	0.2726
1588	0.4975
1579	0.626
1570	0.7206
1561	0.8026
1552	0.8421
1543	0.8483
1534	0.8483
1525	0.8414
1516	0.8239
1507	0.7928
1498	0.7449
1489	0.5753
1480	0.385
1471	0.4885
1462	0.4597
1453	0.4567
1444	0.4756
1435	0.3232
1426	0.1457
1417	0.0983
1408	0.0842
1399	0.1818
1390	0.3659
1381	0.1804
1372	0.5018
1363	0.2204
1354	0.1899
1345	0.0714
1336	0.117
1327	0.31
1318	0.2948
1309	0.4438
1300	0.5822
1291	0.6774
1282	0.6508
1273	0.7464
1264	0.7322
1255	0.6938
1246	0.7567
1237	0.7201
1228	0.7668
1219	0.7793
1210	0.7664
1201	0.7461
1192	0.7222
1183	0.6861
1174	0.65
1165	0.6047
1156	0.5618
1147	0.5349
1138	0.5253
1129	0.5305
1120	0.5512
1111	0.5424
1102	0.441
1093	0.2031
1084	0.1005
1075	0.08
1066	0.1854
1057	0.4374
1048	0.5937
1039	0.669
1030	0.7475
1021	0.7905
1012	0.8135
1003	0.819
994	0.8503
985	0.855
976	0.7834
967	0.8563
958	0.8712
949	0.7914
940	0.7501
931	0.7049
922	0.7949
913	0.8727
904	0.9233
895	0.941
886	0.9093
877	0.9496
868	0.955
859	0.9637
850	0.973
841	0.9743
832	0.9753
823	0.9765
814	0.9625
805	0.9301
796	0.8902
787	0.5087
778	0.8458
769	0.932
760	0.9448
751	0.9446
742	0.8993
733	0.9439
724	0.9485
715	0.9395
706	0.9284
697	0.913
688	0.884
679	0.8682
670	0.8241
661	0.8484
652	0.798
