Infrared Spectrum: ACETIC ACID, [3,5-DIIODO-4-(3-IODO-4-METHOXYPHNOXY) PHENYL]-, 2-DIETHYLAMINOETHYL ESTER, HYDROCHLORIDE
Formula: C21 H25 Cl I3 N O4
CAS: 57-65-8
State: SOLID (KBr DISC)
Class: COBLENTZ III
Instrument: PERKIN-ELMER 21 (GRATING)
Instrument parameters: NaCl PRISM
Sampling: TRANSMISSION
Resolution: 2
Origin: SMITH KLINE & FRENCH LABS.
1/CM	TRANSMITTANCE
665	0.628
674	0.6036
683	0.6583
692	0.6471
701	0.5489
710	0.6229
719	0.7122
728	0.7986
737	0.8008
746	0.7888
755	0.6453
764	0.4696
773	0.7721
782	0.7734
791	0.6467
800	0.4659
809	0.3764
818	0.683
827	0.6943
836	0.6007
845	0.6527
854	0.3716
863	0.4542
872	0.594
881	0.5209
890	0.423
899	0.4918
908	0.5976
917	0.6412
926	0.621
935	0.6711
944	0.6723
953	0.6043
962	0.5154
971	0.6876
980	0.6968
989	0.6542
998	0.5211
1007	0.2748
1016	0.2923
1025	0.3463
1034	0.2428
1043	0.1581
1052	0.4311
1061	0.4854
1070	0.549
1079	0.6267
1088	0.675
1097	0.6775
1106	0.6412
1115	0.5659
1124	0.4081
1133	0.3498
1142	0.3004
1151	0.2506
1160	0.2283
1169	0.1424
1178	0.0965
1187	0.2274
1196	0.3861
1205	0.311
1214	0.1608
1223	0.0922
1232	0.0849
1241	0.1222
1250	0.1081
1259	0.08
1268	0.1201
1277	0.2327
1286	0.2951
1295	0.4574
1304	0.4629
1313	0.5588
1322	0.5755
1331	0.5592
1340	0.5568
1349	0.5053
1358	0.4384
1367	0.5117
1376	0.4594
1385	0.267
1394	0.2675
1403	0.3745
1412	0.3326
1421	0.1971
1430	0.0832
1439	0.122
1448	0.2617
1457	0.2297
1466	0.1967
1475	0.1191
1484	0.0918
1493	0.4101
1502	0.5613
1511	0.6323
1520	0.6251
1529	0.5132
1538	0.4135
1547	0.6173
1556	0.6322
1565	0.5462
1574	0.3775
1583	0.5654
1592	0.5238
1601	0.5879
1610	0.6259
1619	0.6178
1628	0.6119
1637	0.617
1646	0.6211
1655	0.6343
1664	0.6241
1673	0.6122
1682	0.5656
1691	0.524
1700	0.4542
1709	0.333
1718	0.1016
1727	0.0826
1736	0.1435
1745	0.3051
1754	0.4947
1763	0.6138
1772	0.6584
1781	0.6865
1790	0.696
1799	0.6998
1808	0.7024
1817	0.7027
1826	0.7037
1835	0.6957
1844	0.684
1853	0.6776
1862	0.6876
1871	0.6905
1880	0.6929
1889	0.6935
1898	0.69
1907	0.6836
1916	0.682
1925	0.6782
1934	0.672
1943	0.6704
1952	0.6685
1961	0.6662
1970	0.6637
1979	0.661
1988	0.6577
1997	0.6533
2006	0.6367
2015	0.6261
2024	0.6265
2033	0.6192
2042	0.6154
2051	0.6169
2060	0.6176
2069	0.6148
2078	0.6141
2087	0.6135
2096	0.6107
2105	0.6055
2114	0.5982
2123	0.591
2132	0.584
2141	0.5783
2150	0.575
2159	0.5604
2168	0.5479
2177	0.5344
2186	0.5202
2195	0.5058
2204	0.4909
2213	0.4746
2222	0.4583
2231	0.4416
2240	0.4237
2249	0.4052
2258	0.3864
2267	0.3654
2276	0.3403
2285	0.3029
2294	0.2789
2303	0.258
2312	0.2372
2321	0.2203
2330	0.2017
2339	0.1763
2348	0.1608
2357	0.1561
2366	0.1509
2375	0.1418
2384	0.1383
2393	0.1363
2402	0.144
2411	0.1824
2420	0.2122
2429	0.2166
2438	0.219
2447	0.2225
2456	0.241
2465	0.2833
2474	0.3
2483	0.3152
2492	0.3225
2501	0.3303
2510	0.3307
2519	0.3231
2528	0.3086
2537	0.2978
2546	0.302
2555	0.3105
2564	0.3173
2573	0.3285
2582	0.3328
2591	0.3347
2600	0.34
2609	0.3495
2618	0.362
2627	0.3712
2636	0.3929
2645	0.4173
2654	0.4295
2663	0.4414
2672	0.4529
2681	0.4597
2690	0.4643
2699	0.466
2708	0.4637
2717	0.4617
2726	0.462
2735	0.4688
2744	0.4706
2753	0.4707
2762	0.4719
2771	0.4756
2780	0.4781
2789	0.4764
2798	0.4599
2807	0.4424
2816	0.4276
2825	0.4355
2834	0.4407
2843	0.4237
2852	0.4049
2861	0.3863
2870	0.3678
2879	0.3566
2888	0.3475
2897	0.3355
2906	0.3252
2915	0.3217
2924	0.3212
2933	0.3226
2942	0.3282
2951	0.3394
2960	0.3599
2969	0.3805
2978	0.4009
2987	0.4213
2996	0.4415
3005	0.4721
3014	0.4776
3023	0.4798
3032	0.4844
3041	0.4904
3050	0.4964
3059	0.5021
3068	0.5073
3077	0.5102
3086	0.5115
3095	0.512
3104	0.5119
3113	0.5108
3122	0.5094
3131	0.5078
3140	0.5059
3149	0.5021
3158	0.4979
3167	0.4934
3176	0.4886
3185	0.4837
3194	0.4786
3203	0.4735
3212	0.4675
3221	0.4617
3230	0.4551
3239	0.4485
3248	0.4424
3257	0.4365
3266	0.4289
3275	0.4206
3284	0.4137
3293	0.407
3302	0.4002
3311	0.3932
3320	0.3862
3329	0.3799
3338	0.3738
3347	0.3677
3356	0.3614
3365	0.3548
3374	0.3482
3383	0.342
3392	0.3392
3401	0.3366
3410	0.3323
3419	0.3321
3428	0.3341
3437	0.3369
3446	0.3401
3455	0.3433
3464	0.3466
3473	0.3498
3482	0.3531
3491	0.3584
3500	0.3655
3509	0.3756
3518	0.3848
3527	0.3906
3536	0.3955
3545	0.4031
3554	0.4101
3563	0.4166
3572	0.422
3581	0.4273
3590	0.4333
3599	0.4433
3608	0.4554
3617	0.4568
3626	0.4582
3635	0.4594
3644	0.4607
3653	0.462
3662	0.4633
3671	0.4643
3680	0.4649
3689	0.4653
3698	0.4649
3707	0.4641
3716	0.4629
3725	0.4616
3734	0.4603
3743	0.4589
3752	0.4575
3761	0.4561
3770	0.4549
3779	0.4537
3788	0.4524
3797	0.4512
3806	0.4499
3815	0.4487
3824	0.4474
3833	0.4461
3842	0.4448
3851	0.4434
3860	0.4417
3869	0.4399
3878	0.4382
3887	0.4365
3896	0.4349
3905	0.4332
3914	0.4316
3923	0.43
3932	0.4285
3941	0.4269
3950	0.4254
3959	0.4238
3968	0.4223
3977	0.4207
3986	0.4189
3995	0.4172
