Infrared Spectrum: p-(DIPROPYLSULFAMOYL) BENZOIC ACID
Formula: C13 H19 N O4 S
CAS: 57-66-9
State: SOLID (NUJOL MULL)
Melting point: 194-196 C
Class: COBLENTZ III
Instrument: PERKIN-ELMER 521 (GRATING)
Instrument parameters: GRATING CHANGE AT 1996 CM^-^1
Sampling: TRANSMISSION
Resolution: 4
Origin: MERCK SHARPE & DOHME RESEARCH LABORATORIES, Nelson Trenner
1/CM	TRANSMITTANCE
600.756	0.608
609.827	0.659
618.899	0.685
627.97	0.735
637.041	0.755
646.112	0.765
655.184	0.761
664.255	0.739
673.326	0.531
682.397	0.712
691.469	0.574
700.54	0.421
709.611	0.481
718.683	0.4201
727.754	0.352
736.825	0.612
745.896	0.56
754.968	0.475
764.039	0.407
773.11	0.7739
782.181	0.717
791.253	0.826
800.324	0.835
809.395	0.817
818.467	0.834
827.538	0.781
836.609	0.77
845.68	0.678
854.752	0.389
863.823	0.763
872.894	0.752
881.965	0.657
891.037	0.593
900.108	0.546
909.179	0.52
918.251	0.525
927.322	0.557
936.393	0.642
945.464	0.701
954.536	0.672
963.607	0.555
972.678	0.47
981.75	0.333
990.821	0.372
999.892	0.5191
1008.96	0.646
1018.03	0.669
1027.11	0.614
1036.18	0.724
1045.25	0.715
1054.32	0.69
1063.39	0.6
1072.46	0.366
1081.53	0.477
1090.6	0.52
1099.68	0.466
1108.75	0.504
1117.82	0.4469
1126.89	0.589
1135.96	0.4221
1145.03	0.138
1154.1	0.2639
1163.17	0.416
1172.25	0.3419
1181.32	0.458
1190.39	0.694
1199.46	0.71
1208.53	0.728
1217.6	0.707
1226.67	0.673
1235.75	0.59
1244.82	0.537
1253.89	0.491
1262.96	0.361
1272.03	0.2521
1281.1	0.164
1290.17	0.266
1299.24	0.202
1308.32	0.33
1317.39	0.418
1326.46	0.348
1335.53	0.17
1344.6	0.226
1353.67	0.403
1362.74	0.305
1371.81	0.191
1380.89	0.405
1389.96	0.376
1399.03	0.458
1408.1	0.3511
1417.17	0.241
1426.24	0.302
1435.31	0.293
1444.38	0.177
1453.46	0.129
1462.53	0.149
1471.6	0.527
1480.67	0.633
1489.74	0.6919
1498.81	0.768
1507.88	0.77
1516.95	0.768
1526.03	0.752
1535.1	0.705
1544.17	0.684
1553.24	0.593
1562.31	0.529
1571.38	0.5249
1580.45	0.675
1589.52	0.608
1598.6	0.513
1607.67	0.64
1616.74	0.623
1625.81	0.581
1634.88	0.559
1643.95	0.512
1653.02	0.447
1662.1	0.337
1671.17	0.238
1680.24	0.123
1689.31	0.128
1698.38	0.183
1707.45	0.406
1716.52	0.674
1725.59	0.785
1734.67	0.843
1743.74	0.861
1752.81	0.868
1761.88	0.878
1770.95	0.879
1780.02	0.881
1789.09	0.882
1798.16	0.88
1807.24	0.88
1816.31	0.867
1825.38	0.858
1834.45	0.883
1843.52	0.885
1852.59	0.884
1861.66	0.881
1870.73	0.88
1879.81	0.882
1888.88	0.882
1897.95	0.881
1907.02	0.874
1916.09	0.869
1925.16	0.871
1934.23	0.868
1943.3	0.842
1952.38	0.84
1961.45	0.866
1970.52	0.867
1979.59	0.865
1988.66	0.847
1997.73	0.853
2006.8	0.8749
2015.87	0.8703
2024.95	0.8649
2034.02	0.8601
2043.09	0.858
2052.16	0.856
2061.23	0.8487
2070.3	0.844
2079.37	0.8377
2088.44	0.8336
2097.52	0.8328
2106.59	0.832
2115.66	0.83
2124.73	0.8275
2133.8	0.8235
2142.87	0.814
2151.94	0.7982
2161.02	0.796
2170.09	0.7937
2179.16	0.7919
2188.23	0.79
2197.3	0.789
2206.37	0.7877
2215.44	0.7809
2224.51	0.7781
2233.59	0.7694
2242.66	0.7586
2251.73	0.757
2260.8	0.759
2269.87	0.7546
2278.94	0.7451
2288.01	0.7362
2297.08	0.7191
2306.16	0.7075
2315.23	0.693
2324.3	0.6795
2333.37	0.673
2342.44	0.669
2351.51	0.6639
2360.58	0.6607
2369.65	0.66
2378.73	0.6602
2387.8	0.6582
2396.87	0.6463
2405.94	0.6389
2415.01	0.6361
2424.08	0.6244
2433.15	0.6076
2442.22	0.606
2451.3	0.602
2460.37	0.596
2469.44	0.5808
2478.51	0.5659
2487.58	0.5521
2496.65	0.532
2505.72	0.516
2514.79	0.5029
2523.87	0.4799
2532.94	0.463
2542.01	0.4514
2551.08	0.4562
2560.15	0.4733
2569.22	0.4887
2578.29	0.488
2587.37	0.4876
2596.44	0.486
2605.51	0.4772
2614.58	0.4657
2623.65	0.4586
2632.72	0.4556
2641.79	0.4433
2650.86	0.4278
2659.94	0.4205
2669.01	0.422
2678.08	0.428
2687.15	0.443
2696.22	0.4585
2705.29	0.4607
2714.36	0.4549
2723.43	0.449
2732.51	0.45
2741.58	0.456
2750.65	0.4569
2759.72	0.4533
2768.79	0.4452
2777.86	0.4288
2786.93	0.4037
2796	0.3864
2805.08	0.3357
2814.15	0.3184
2823.22	0.2787
2832.29	0.2395
2841.36	0.1096
2850.43	0.0608
2859.5	0.047
2868.57	0.059
2877.65	0.0665
2886.72	0.0675
2895.79	0.0548
2904.86	0.0359
2913.93	0.0282
2923	0.0286
2932.07	0.033
2941.14	0.0341
2950.22	0.0369
2959.29	0.0435
2968.36	0.0548
2977.43	0.0824
2986.5	0.1533
2995.57	0.2218
3004.64	0.2714
3013.71	0.3028
3022.79	0.3168
3031.86	0.3346
3040.93	0.342
3050	0.3462
3059.07	0.353
3068.14	0.3761
3077.21	0.386
3086.29	0.3831
3095.36	0.3742
3104.43	0.4188
3113.5	0.4389
3122.57	0.4527
3131.64	0.4652
3140.71	0.4739
3149.78	0.4793
3158.86	0.486
3167.93	0.4912
3177	0.4968
3186.07	0.5071
3195.14	0.5183
3204.21	0.5294
3213.28	0.5379
3222.35	0.545
3231.43	0.548
3240.5	0.5513
3249.57	0.556
3258.64	0.557
3267.71	0.557
3276.78	0.559
3285.85	0.562
3294.92	0.564
3304	0.565
3313.07	0.563
3322.14	0.5629
3331.21	0.561
3340.28	0.561
3349.35	0.56
3358.42	0.5632
3367.49	0.565
3376.57	0.565
3385.64	0.5655
3394.71	0.568
3403.78	0.57
3412.85	0.573
3421.92	0.575
3430.99	0.5753
3440.06	0.576
3449.14	0.577
3458.21	0.577
3467.28	0.5773
3476.35	0.5861
3485.42	0.5888
3494.49	0.589
3503.56	0.59
3512.63	0.591
3521.71	0.5929
3530.78	0.593
3539.85	0.593
3548.92	0.593
3557.99	0.592
3567.06	0.5903
3576.13	0.5885
3585.21	0.5868
3594.28	0.585
3603.35	0.5858
3612.42	0.587
3621.49	0.587
3630.56	0.587
3639.63	0.587
3648.7	0.587
3657.78	0.587
3666.85	0.585
3675.92	0.5821
3684.99	0.582
3694.06	0.5806
3703.13	0.58
3712.2	0.579
3721.27	0.5773
3730.35	0.5762
3739.42	0.574
3748.49	0.5711
3757.56	0.569
3766.63	0.568
3775.7	0.568
3784.77	0.566
3793.84	0.5612
3802.92	0.559
3811.99	0.558
3821.06	0.558
3830.13	0.5572
3839.2	0.5549
3848.27	0.55
3857.34	0.55
3866.41	0.551
3875.49	0.55
3884.56	0.548
3893.63	0.5457
3902.7	0.541
3911.77	0.538
3920.84	0.537
3929.91	0.535
3938.98	0.535
3948.06	0.5333
3957.13	0.532
3966.2	0.5307
3975.27	0.529
3984.34	0.528
3993.41	0.526
