Infrared Spectrum: Chlordane
Formula: C 10 H 6 Cl 8
CAS: 57-74-9
State: gas
Instrument: HP-GC/MS/IRD
Origin: NIST Mass Spectrometry Data Center
1/CM	ABSORBANCE
550	0.0004784
562	0.0002613
574	0.0005811
586	0.0034463
598	0.0047671
610	0.0023816
622	0.000936
634	0.0034294
646	0.0008346
658	0.000169
670	0.000104
682	0.0009789
694	0.0022178
706	0.0020839
718	0.0035035
730	0.0012896
742	0.0021502
754	0.0045474
766	0.003965
778	0.0024622
790	0.0087451
802	0.0126048
814	0.0073203
826	0.0020865
838	0.0013598
850	0.001066
862	0.0011999
874	0.001807
886	0.0037063
898	0.004849
910	0.0030511
922	0.0066352
934	0.0062426
946	0.0044213
958	0.005161
970	0.0019136
982	0.0015587
994	0.0035152
1006	0.0017914
1018	0.0012324
1030	0.0011583
1042	0.0014053
1054	0.0020189
1066	0.0030329
1078	0.0031356
1090	0.0012272
1102	0.00091
1114	0.0006461
1126	0.0007527
1138	0.000767
1150	0.001287
1162	0.0028093
1174	0.0059657
1186	0.003536
1198	0.0024895
1210	0.0023283
1222	0.0054977
1234	0.0042055
1246	0.002535
1258	0.0030654
1270	0.002899
1282	0.0038051
1294	0.0047879
1306	0.0025701
1318	0.0013
1330	0.0012428
1342	0.0006266
1354	0.0005408
1366	0.0003861
1378	0.0003562
1390	0.0002743
1402	0.0002509
1414	0.0002548
1426	0.0003211
1438	0.0004134
1450	0.0009789
1462	0.001833
1474	0.001105
1486	0.0006617
1498	0.0004693
1510	6.37e-05
1522	0.0001976
1534	0.0003185
1546	0.0002756
1558	0.000325
1570	0.0008528
1582	0.001612
1594	0.0049231
1606	0.0095238
1618	0.0025857
1630	0.0007475
1642	0.0003705
1654	0.0002028
1666	0.0002548
1678	0.0001794
1690	0.0002119
1702	5.46e-05
1714	6.89e-05
1726	0.0002119
1738	0.0004459
1750	0.0008086
1762	0.0005681
1774	0.0002795
1786	0.0002015
1798	0.0001729
1810	0.0002249
1822	0.0002314
1834	0.0002379
1846	0.0002067
1858	0.0002834
1870	0.0002405
1882	0.0002873
1894	0.0002782
1906	0.0002301
1918	0.0002145
1930	0.0002405
1942	0.0001807
1954	0.0002236
1966	0.0002275
1978	0.0002509
1990	0.0002405
2002	0.0002301
2014	0.0002353
2026	0.0002379
2038	0.0001937
2050	0.0002223
2062	0.0002106
2074	0.0002184
2086	0.0002691
2098	0.0002288
2110	0.000234
2122	0.0002158
2134	0.0002132
2146	0.0002574
2158	0.0002145
2170	0.0002392
2182	0.0002405
2194	0.0002574
2206	0.0002548
2218	0.0002301
2230	0.000195
2242	0.0001924
2254	0.0002054
2266	0.0001261
2278	0.0001625
2290	0.0001209
2302	5.72e-05
2314	1.82e-05
2326	1.43e-05
2338	7.8e-05
2350	8.32e-05
2362	1.43e-05
2374	4.55e-05
2386	0.0001365
2398	0.0001833
2410	0.0002184
2422	0.0001807
2434	0.0001677
2446	0.0001976
2458	0.0001469
2470	0.0001989
2482	0.0001651
2494	0.0002093
2506	0.0002067
2518	0.0001859
2530	0.0001768
2542	0.0001612
2554	0.0001573
2566	0.0001456
2578	0.0001898
2590	0.0001651
2602	0.0001638
2614	0.0001534
2626	0.0001677
2638	0.0001521
2650	0.0001846
2662	0.0001417
2674	0.0001456
2686	0.0001248
2698	0.0001248
2710	0.0001859
2722	0.0001365
2734	0.0001599
2746	0.0001911
2758	0.0001755
2770	0.0001352
2782	0.0001443
2794	0.0001638
2806	0.0001469
2818	0.0001768
2830	0.0001911
2842	0.0001703
2854	0.0002002
2866	0.0001729
2878	0.000325
2890	0.0003653
2902	0.000741
2914	0.0005811
2926	0.0004719
2938	0.0005876
2950	0.0007202
2962	0.0008697
2974	0.0015353
2986	0.0017186
2998	0.0031837
3010	0.0026585
3022	0.0006435
3034	0.0003289
3046	0.0002132
3058	0.0001989
3070	0.000169
3082	0.0001664
3094	0.0001573
3106	0.0001651
3118	0.0001495
3130	0.0001183
3142	0.0001742
3154	0.0001794
3166	0.0001859
3178	0.0001417
3190	0.0001625
3202	0.0001937
3214	0.0001768
3226	0.0001768
3238	0.0001833
3250	0.0001339
3262	0.0001547
3274	0.0001521
3286	0.0001859
3298	0.0001898
3310	0.0001651
3322	0.000195
3334	0.0002028
3346	0.0002275
3358	0.0001521
3370	0.0001859
3382	0.0001898
3394	0.0001833
3406	0.0001833
3418	0.0002522
3430	0.0002561
3442	0.0001612
3454	0.0001885
3466	0.0002873
3478	0.0002171
3490	0.0002223
3502	0.0002353
3514	0.0002678
3526	0.0002353
3538	0.0002509
3550	0.0001248
3562	0.0001599
3574	0.0002249
3586	6.76e-05
3598	0.0001781
3610	4.68e-05
3622	0.0002561
3634	0.0001911
3646	0.0001651
3658	0.0001963
3670	0.0001859
3682	0.000273
3694	0.0001885
3706	0.000221
3718	0.000156
3730	0.0001339
3742	3.38e-05
3754	0.0002106
3766	0.0002951
3778	0.0003822
3790	0.0003224
3802	0.0002886
3814	0.0002353
3826	0.0002626
3838	0.0002067
