Infrared Spectrum: CHOLEST-5-EN-3B-OL
Formula: C27 H46 O
CAS: 57-88-5
State: SOLUTION 1% (CS2 FOR 2-15 microns, AND C2Cl4 FOR 5.5-7.2 microns)
Melting point: 148.5 C
Boiling point: 360 C AT 760 mmHg
Class: COBLENTZ III
Instrument: PERKIN-ELMER 21 (GRATING)
Instrument parameters: FILTER AT ABOUT 10 MICRONS
Sampling: TRANSMISSION
Resolution: 2
1/CM	TRANSMITTANCE
4000	0.9848
3991	0.9854
3982	0.9862
3973	0.9873
3964	0.9885
3955	0.9896
3946	0.9908
3937	0.992
3928	0.9931
3919	0.9943
3910	0.9952
3901	0.9958
3892	0.9965
3883	0.997
3874	0.9973
3865	0.9975
3856	0.9977
3847	0.9975
3838	0.9973
3829	0.9971
3820	0.9967
3811	0.9964
3802	0.9961
3793	0.9961
3784	0.9961
3775	0.9961
3766	0.9961
3757	0.9963
3748	0.9966
3739	0.9968
3730	0.9971
3721	0.9974
3712	0.9977
3703	0.9981
3694	0.9984
3685	0.9987
3676	0.9987
3667	0.9987
3658	0.9984
3649	0.9977
3640	0.9958
3631	0.9758
3622	0.9315
3613	0.887
3604	0.8423
3595	0.8248
3586	0.8249
3577	0.8455
3568	0.8816
3559	0.9178
3550	0.9523
3541	0.9649
3532	0.9698
3523	0.9737
3514	0.9771
3505	0.9795
3496	0.9812
3487	0.9816
3478	0.9821
3469	0.9821
3460	0.982
3451	0.9821
3442	0.9825
3433	0.9833
3424	0.9852
3415	0.9874
3406	0.9902
3397	0.9933
3388	0.9957
3379	0.9965
3370	0.9974
3361	0.998
3352	0.9978
3343	0.9978
3334	0.9977
3325	0.9975
3316	0.9975
3307	0.9978
3298	0.9991
3289	1.0024
3280	1.0057
3271	1.0082
3262	1.0099
3253	1.0109
3244	1.0112
3235	1.008
3226	1.0028
3217	1
3208	0.9977
3199	0.9961
3190	0.9944
3181	0.9933
3172	0.9924
3163	0.9915
3154	0.9908
3145	0.99
3136	0.9892
3127	0.9886
3118	0.9885
3109	0.9884
3100	0.9878
3091	0.9868
3082	0.985
3073	0.9807
3064	0.9713
3055	0.9506
3046	0.9309
3037	0.9151
3028	0.8885
3019	0.8735
3010	0.8153
3001	0.6875
2992	0.5588
2983	0.4294
2974	0.2992
2965	0.1844
2956	0.1417
2947	0.0992
2938	0.0825
2929	0.079
2920	0.0778
2911	0.0777
2902	0.0811
2893	0.0907
2884	0.12
2875	0.128
2866	0.1329
2857	0.146
2848	0.1961
2839	0.2788
2830	0.3621
2821	0.446
2812	0.5303
2803	0.6153
2794	0.6934
2785	0.7925
2776	0.8208
2767	0.8615
2758	0.8831
2749	0.9014
2740	0.9163
2731	0.9258
2722	0.9286
2713	0.9306
2704	0.9333
2695	0.9368
2686	0.9415
2677	0.948
2668	0.9504
2659	0.9505
2650	0.9502
2641	0.9503
2632	0.9503
2623	0.9527
2614	0.9605
2605	0.9621
2596	0.9635
2587	0.9689
2578	0.9708
2569	0.9731
2560	0.9757
2551	0.9786
2542	0.9817
2533	0.9843
2524	0.9868
2515	0.9898
2506	0.9947
2497	1.002
2488	1.0101
2479	1.0137
2470	1.0135
2461	1.011
2452	1.0075
2443	1.006
2434	1.0071
2425	1.0105
2416	1.0127
2407	1.0141
2398	1.0155
2389	1.0162
2380	1.0168
2371	1.0173
2362	1.0178
2353	1.0182
2344	1.0185
2335	1.0188
2326	1.019
2317	1.0192
2308	1.0191
2299	1.019
2290	1.0189
2281	1.019
2272	1.019
2263	1.0189
2254	1.0187
2245	1.0185
2236	1.0184
2227	1.0184
2218	1.0185
2209	1.0185
2200	1.0185
2191	1.0186
2182	1.0186
2173	1.0186
2164	1.0187
2155	1.0184
2146	1.0181
2137	1.0178
2128	1.0174
2119	1.0175
2110	1.0175
2101	1.0177
2092	1.018
2083	1.0185
2074	1.0191
2065	1.0196
2056	1.0197
2047	1.0195
2038	1.0194
2029	1.0193
2020	1.0192
2011	1.0186
2002	1.0182
1993	1.0186
1984	1.0189
1975	1.0192
1966	1.0194
1957	1.0194
1948	1.0191
1939	1.0188
1930	1.0185
1921	1.0186
1912	1.0185
1903	1.0183
1894	1.0183
1885	1.0183
1876	1.0182
1867	1.0182
1858	1.0185
1849	1.0188
1840	1.0191
1831	1.0196
1822	1.0193
1813	1.019
1804	1.0187
1795	1.0183
1786	1.0153
1777	1.0155
1768	1.0173
1759	1.0155
1750	1.0092
1741	1.0067
1732	1.0048
1723	1.0043
1714	0.998
1705	0.9925
1696	0.9915
1687	0.9891
1678	0.9797
1669	0.9633
1660	0.9554
1651	0.9571
1642	0.9588
1633	0.9595
1624	0.9586
1615	0.9575
1606	0.9563
1597	0.9548
1588	0.9532
1579	0.9511
1570	0.9497
1561	0.9558
1552	0.9571
1543	0.9542
1534	0.9508
1525	0.9518
1516	0.9491
1507	0.9352
1498	0.9137
1489	0.8801
1480	0.7376
1471	0.4266
1462	0.4004
1453	0.5243
1444	0.6062
1435	0.5966
1426	0.8011
1417	0.8654
1408	0.865
1399	0.8287
1390	0.7318
1381	0.4797
1372	0.4629
1363	0.5341
1354	0.6661
1345	0.7306
1336	0.7543
1327	0.7486
1318	0.8157
1309	0.8293
1300	0.8197
1291	0.8296
1282	0.8128
1273	0.7941
1264	0.7796
1255	0.8119
1246	0.8377
1237	0.8532
1228	0.8414
1219	0.8254
1210	0.8158
1201	0.8236
1192	0.8138
1183	0.8072
1174	0.8316
1165	0.8007
1156	0.8304
1147	0.8239
1138	0.8141
1129	0.7984
1120	0.8498
1111	0.8601
1102	0.8268
1093	0.8325
1084	0.8224
1075	0.8195
1066	0.7611
1057	0.5299
1048	0.2603
1039	0.4645
1030	0.6565
1021	0.5562
1012	0.7675
1003	0.7474
994	0.864
985	0.8076
976	0.8621
967	0.8732
958	0.7191
949	0.7442
940	0.9071
931	0.8888
922	0.8713
913	0.9199
904	0.9284
895	0.9539
886	0.9425
877	0.928
868	0.9367
859	0.945
850	0.9414
841	0.8637
832	0.8248
823	0.8835
814	0.9164
805	0.8473
796	0.8056
787	0.9614
778	0.9651
769	0.9759
760	0.9768
751	0.9639
742	0.9306
733	0.8914
724	0.9436
715	0.9566
706	0.9663
697	0.9558
688	0.9812
679	0.9841
