Infrared Spectrum: ANDROSTENE-17(Beta)-PROPIONATE-3-ONE,DELTA^8-
Formula: C22 H32 O3
CAS: 57-85-2
State: SOLUTION 1% (CS2 FOR 2-15 microns, AND C2Cl4 FOR 6.1-7.2 microns)
Melting point: 118-122 C
Class: COBLENTZ III
Instrument: PERKIN-ELMER 21 (GRATING)
Instrument parameters: FILTER AT ABOUT 10 MICRONS
Sampling: TRANSMISSION
Resolution: 2
1/CM	TRANSMITTANCE
4000	0.9791
3991	0.9803
3982	0.981
3973	0.9814
3964	0.9818
3955	0.9821
3946	0.9825
3937	0.9828
3928	0.9831
3919	0.9834
3910	0.9836
3901	0.9839
3892	0.9842
3883	0.9845
3874	0.9848
3865	0.9851
3856	0.9855
3847	0.9859
3838	0.9864
3829	0.9868
3820	0.9873
3811	0.9877
3802	0.9882
3793	0.9887
3784	0.9898
3775	0.9917
3766	0.9938
3757	0.9956
3748	0.996
3739	0.996
3730	0.996
3721	0.996
3712	0.996
3703	0.996
3694	0.9961
3685	0.9963
3676	0.9965
3667	0.9966
3658	0.9968
3649	0.997
3640	0.9971
3631	0.9974
3622	0.9977
3613	0.9983
3604	1.0001
3595	1.0036
3586	1.0088
3577	1.0131
3568	1.0145
3559	1.0143
3550	1.0132
3541	1.0111
3532	1.009
3523	1.0067
3514	1.0044
3505	1.002
3496	0.9995
3487	0.997
3478	0.9945
3469	0.992
3460	0.9894
3451	0.9871
3442	0.9868
3433	0.9873
3424	0.9878
3415	0.9883
3406	0.9885
3397	0.9888
3388	0.9882
3379	0.9875
3370	0.9859
3361	0.9841
3352	0.983
3343	0.982
3334	0.9814
3325	0.9812
3316	0.9815
3307	0.9837
3298	0.9867
3289	0.9905
3280	0.9941
3271	0.9959
3262	0.9963
3253	0.9958
3244	0.9952
3235	0.9944
3226	0.9931
3217	0.9914
3208	0.9896
3199	0.9874
3190	0.9854
3181	0.9839
3172	0.9831
3163	0.9827
3154	0.9824
3145	0.9821
3136	0.9817
3127	0.9815
3118	0.9811
3109	0.9806
3100	0.98
3091	0.9775
3082	0.9735
3073	0.9678
3064	0.9611
3055	0.9524
3046	0.9437
3037	0.9351
3028	0.9256
3019	0.9087
3010	0.8421
3001	0.6878
2992	0.5432
2983	0.3992
2974	0.3216
2965	0.2596
2956	0.2333
2947	0.2084
2938	0.1958
2929	0.1974
2920	0.2128
2911	0.2855
2902	0.3616
2893	0.4166
2884	0.4205
2875	0.4282
2866	0.443
2857	0.4555
2848	0.4908
2839	0.5643
2830	0.6376
2821	0.7115
2812	0.7721
2803	0.8203
2794	0.8539
2785	0.8818
2776	0.9023
2767	0.9191
2758	0.9301
2749	0.937
2740	0.9421
2731	0.946
2722	0.9489
2713	0.9512
2704	0.9535
2695	0.9557
2686	0.9578
2677	0.9602
2668	0.9616
2659	0.9625
2650	0.9635
2641	0.9643
2632	0.9653
2623	0.9671
2614	0.9688
2605	0.9707
2596	0.9743
2587	0.978
2578	0.9785
2569	0.9775
2560	0.9783
2551	0.9791
2542	0.9803
2533	0.9817
2524	0.9831
2515	0.9848
2506	0.9866
2497	0.9899
2488	0.9937
2479	0.9949
2470	0.9959
2461	0.9961
2452	0.996
2443	0.996
2434	0.9957
2425	0.9955
2416	0.9952
2407	0.9949
2398	0.9948
2389	0.995
2380	0.9952
2371	0.9954
2362	0.9955
2353	0.9957
2344	0.9961
2335	0.9965
2326	0.9971
2317	0.9978
2308	1.0014
2299	1.008
2290	1.0134
2281	1.0159
2272	1.0167
2263	1.017
2254	1.016
2245	1.0113
2236	1.0064
2227	1.0056
2218	1.0074
2209	1.0096
2200	1.0111
2191	1.0124
2182	1.0135
2173	1.0143
2164	1.0151
2155	1.0165
2146	1.018
2137	1.0196
2128	1.0212
2119	1.0221
2110	1.0228
2101	1.021
2092	1.0171
2083	1.0078
2074	1.0025
2065	0.9996
2056	0.9998
2047	1.0008
2038	1.0009
2029	1.0011
2020	1.0015
2011	1.0021
2002	1.0028
1993	1.0037
1984	1.0044
1975	1.005
1966	1.0057
1957	1.0059
1948	1.0064
1939	1.0071
1930	1.008
1921	1.0093
1912	1.0059
1903	0.9999
1894	0.9984
1885	0.9921
1876	0.9933
1867	0.9935
1858	0.9917
1849	0.9892
1840	0.9854
1831	0.9799
1822	0.9724
1813	0.9614
1804	0.9468
1795	0.9253
1786	0.8952
1777	0.857
1768	0.7742
1759	0.5604
1750	0.2999
1741	0.0634
1732	0.1734
1723	0.4584
1714	0.6538
1705	0.5846
1696	0.3558
1687	0.1245
1678	0.0494
1669	0.2185
1660	0.3909
1651	0.5651
1642	0.7412
1633	0.7614
1624	0.5108
1615	0.6398
1606	0.8356
1597	0.9104
1588	0.9244
1579	0.9318
1570	0.937
1561	0.9395
1552	0.941
1543	0.9468
1534	0.9503
1525	0.9513
1516	0.9504
1507	0.9418
1498	0.9244
1489	0.8912
1480	0.6936
1471	0.6173
1462	0.4812
1453	0.4512
1444	0.6373
1435	0.551
1426	0.5962
1417	0.724
1408	0.8321
1399	0.7844
1390	0.6978
1381	0.5788
1372	0.5392
1363	0.6195
1354	0.4804
1345	0.403
1336	0.4987
1327	0.4414
1318	0.6264
1309	0.7682
1300	0.8018
1291	0.7535
1282	0.6722
1273	0.4419
1264	0.378
1255	0.5923
1246	0.5829
1237	0.5157
1228	0.2617
1219	0.3882
1210	0.3514
1201	0.3382
1192	0.1589
1183	0.0509
1174	0.1156
1165	0.4871
1156	0.6515
1147	0.7189
1138	0.728
1129	0.6754
1120	0.7101
1111	0.6635
1102	0.7661
1093	0.7547
1084	0.4976
1075	0.4891
1066	0.475
1057	0.6796
1048	0.6288
1039	0.4648
1030	0.6001
1021	0.5738
1012	0.5554
1003	0.7883
994	0.7405
985	0.8315
976	0.7643
967	0.8071
958	0.7299
949	0.79
940	0.622
931	0.871
922	0.8941
913	0.8515
904	0.8753
895	0.8988
886	0.819
877	0.8352
868	0.7112
859	0.6508
850	0.8623
841	0.9177
832	0.8624
823	0.8797
814	0.9025
805	0.8051
796	0.8824
787	0.936
778	0.8371
769	0.9271
760	0.9489
751	0.931
742	0.9381
733	0.9408
724	0.9505
715	0.9561
706	0.9604
697	0.9612
688	0.9228
679	0.8782
670	0.9471
