Infrared Spectrum: PREGNENE, 3,20-DIONE-DELTA^4-
Formula: C21 H30 O2
CAS: 57-83-0
State: SOLUTION 1% (CS2 FOR 2-6.2 AND 7.2-15 microns, AND C2Cl4 FOR 6.2-7.2 microns)
Melting point: 121-131 C
Class: COBLENTZ III
Instrument: PERKIN-ELMER 21 (GRATING)
Instrument parameters: FILTER AT ABOUT 10 MICRONS
Sampling: TRANSMISSION
Path length: 0.1 CM
Resolution: 2
1/CM	TRANSMITTANCE
4000	0.9589
3991	0.9611
3982	0.9632
3973	0.9641
3964	0.964
3955	0.9635
3946	0.963
3937	0.963
3928	0.963
3919	0.963
3910	0.9628
3901	0.9633
3892	0.9638
3883	0.9643
3874	0.9647
3865	0.9653
3856	0.9659
3847	0.9664
3838	0.9665
3829	0.9661
3820	0.9658
3811	0.9656
3802	0.9653
3793	0.9655
3784	0.9663
3775	0.9673
3766	0.9693
3757	0.9715
3748	0.9737
3739	0.9754
3730	0.9765
3721	0.9773
3712	0.9775
3703	0.978
3694	0.9783
3685	0.9785
3676	0.9788
3667	0.9778
3658	0.9761
3649	0.9754
3640	0.9751
3631	0.9761
3622	0.9778
3613	0.9793
3604	0.9806
3595	0.9818
3586	0.9823
3577	0.9825
3568	0.9801
3559	0.9777
3550	0.9746
3541	0.9717
3532	0.9697
3523	0.9687
3514	0.9683
3505	0.9678
3496	0.9673
3487	0.9668
3478	0.9659
3469	0.9651
3460	0.9643
3451	0.9634
3442	0.9621
3433	0.961
3424	0.9598
3415	0.9585
3406	0.9577
3397	0.9568
3388	0.956
3379	0.9554
3370	0.9548
3361	0.9545
3352	0.9549
3343	0.9554
3334	0.9561
3325	0.9573
3316	0.9584
3307	0.96
3298	0.9618
3289	0.9636
3280	0.9651
3271	0.9663
3262	0.9675
3253	0.9681
3244	0.9683
3235	0.9685
3226	0.9687
3217	0.9685
3208	0.9685
3199	0.9684
3190	0.9683
3181	0.9681
3172	0.9677
3163	0.9674
3154	0.967
3145	0.9667
3136	0.9659
3127	0.9647
3118	0.9603
3109	0.9573
3100	0.9561
3091	0.9559
3082	0.9551
3073	0.9507
3064	0.9399
3055	0.9224
3046	0.902
3037	0.8821
3028	0.8608
3019	0.835
3010	0.7993
3001	0.7265
2992	0.6287
2983	0.5302
2974	0.431
2965	0.3314
2956	0.2311
2947	0.1538
2938	0.1552
2929	0.2044
2920	0.2551
2911	0.3063
2902	0.3506
2893	0.356
2884	0.3646
2875	0.3957
2866	0.4139
2857	0.4181
2848	0.4731
2839	0.5816
2830	0.6908
2821	0.7708
2812	0.8026
2803	0.837
2794	0.8809
2785	0.8998
2776	0.9168
2767	0.9292
2758	0.9364
2749	0.9382
2740	0.9382
2731	0.9378
2722	0.9381
2713	0.9394
2704	0.9418
2695	0.9443
2686	0.9454
2677	0.9444
2668	0.943
2659	0.9423
2650	0.9418
2641	0.9425
2632	0.9441
2623	0.9455
2614	0.948
2605	0.9506
2596	0.9532
2587	0.9555
2578	0.9578
2569	0.9599
2560	0.9618
2551	0.9632
2542	0.9628
2533	0.9625
2524	0.9625
2515	0.9627
2506	0.9635
2497	0.9644
2488	0.9653
2479	0.9661
2470	0.9671
2461	0.9683
2452	0.9694
2443	0.9705
2434	0.971
2425	0.9712
2416	0.9711
2407	0.9706
2398	0.9701
2389	0.9701
2380	0.9713
2371	0.9742
2362	0.9778
2353	0.9809
2344	0.9814
2335	0.9813
2326	0.9844
2317	0.9867
2308	0.9871
2299	0.9837
2290	0.9821
2281	0.984
2272	0.9897
2263	0.9921
2254	0.9855
2245	0.9846
2236	0.9931
2227	1.0028
2218	1.0051
2209	1.0052
2200	1.0024
2191	0.9904
2182	0.9839
2173	0.9795
2164	0.9762
2155	0.9735
2146	0.9712
2137	0.9688
2128	0.9675
2119	0.9668
2110	0.9709
2101	0.9789
2092	0.9849
2083	0.9867
2074	0.9855
2065	0.9835
2056	0.9824
2047	0.9845
2038	0.9853
2029	0.9843
2020	0.9825
2011	0.981
2002	0.9795
1993	0.9793
1984	0.9799
1975	0.9832
1966	0.9866
1957	0.9851
1948	0.9801
1939	0.9818
1930	0.9837
1921	0.984
1912	0.9827
1903	0.9796
1894	0.9777
1885	0.9764
1876	0.9761
1867	0.9758
1858	0.9751
1849	0.9741
1840	0.9714
1831	0.9685
1822	0.9678
1813	0.9653
1804	0.9621
1795	0.9524
1786	0.9391
1777	0.9309
1768	0.9273
1759	0.9051
1750	0.8764
1741	0.8151
1732	0.7203
1723	0.572
1714	0.3452
1705	0.1623
1696	0.2571
1687	0.0896
1678	0.0795
1669	0.2757
1660	0.4971
1651	0.6551
1642	0.7393
1633	0.7501
1624	0.7174
1615	0.7475
1606	0.8616
1597	0.9147
1588	0.938
1579	0.9485
1570	0.9538
1561	0.9563
1552	0.9577
1543	0.9582
1534	0.9532
1525	0.9455
1516	0.9439
1507	0.9332
1498	0.9293
1489	0.9056
1480	0.8292
1471	0.6781
1462	0.681
1453	0.432
1444	0.6234
1435	0.4996
1426	0.6006
1417	0.6668
1408	0.8072
1399	0.8098
1390	0.5083
1381	0.5733
1372	0.5973
1363	0.4962
1354	0.3153
1345	0.5334
1336	0.6091
1327	0.5988
1318	0.7869
1309	0.8365
1300	0.8473
1291	0.7894
1282	0.7787
1273	0.6587
1264	0.533
1255	0.7305
1246	0.5994
1237	0.5725
1228	0.3654
1219	0.5756
1210	0.5034
1201	0.5612
1192	0.5634
1183	0.445
1174	0.6262
1165	0.577
1156	0.587
1147	0.6449
1138	0.721
1129	0.7088
1120	0.6986
1111	0.6428
1102	0.776
1093	0.8171
1084	0.8384
1075	0.835
1066	0.835
1057	0.8787
1048	0.8648
1039	0.8616
1030	0.8597
1021	0.8594
1012	0.8611
1003	0.8637
994	0.8846
985	0.8949
976	0.8543
967	0.8421
958	0.7984
949	0.6528
940	0.8212
931	0.8573
922	0.8243
913	0.8211
904	0.9238
895	0.8821
886	0.943
877	0.9325
868	0.7512
859	0.709
850	0.9047
841	0.9423
832	0.9258
823	0.932
814	0.9393
805	0.9514
796	0.9527
787	0.9532
778	0.8154
769	0.9533
760	0.967
751	0.9668
742	0.9615
733	0.9773
724	0.985
715	0.9718
706	0.9653
697	0.9843
688	0.9175
679	0.9168
670	0.9736
