Infrared Spectrum: 17.-alpha.-Estradiol
Formula: C 18 H 24 O 2
CAS: 57-91-0
State: gas
Origin: EPA-IR VAPOR PHASE LIBRARY
1/CM	ABSORBANCE
501.5	0.0004502
513.074	0.000656
524.648	0.0006398
536.222	0.000674
547.796	0.0004887
559.37	0.0008341
570.944	0.00108
582.518	0.0005244
594.092	0.0003047
605.666	0.000275
617.24	0.0005805
628.814	0.0006798
640.388	0.0007158
651.962	0.0005067
663.536	0.0003819
675.11	0.0004492
686.684	0.0003624
698.258	0.0003799
709.832	0.0004929
721.406	0.0005356
732.98	0.0007946
744.554	0.0004529
756.128	0.0007009
767.702	0.0011
779.276	0.00198
790.85	0.00192
802.423	0.00136
813.997	0.00153
825.571	0.00139
837.145	0.00197
848.719	0.00204
860.293	0.00185
871.867	0.00185
883.441	0.00143
895.015	0.00107
906.589	0.00226
918.163	0.00441
929.737	0.00263
941.311	0.00251
952.885	0.00167
964.459	0.00188
976.033	0.00202
987.607	0.00183
999.181	0.0019
1010.76	0.00236
1022.33	0.0022
1033.9	0.00286
1045.48	0.00335
1057.05	0.00328
1068.63	0.00336
1080.2	0.00282
1091.77	0.00299
1103.35	0.00294
1114.92	0.00307
1126.49	0.00315
1138.07	0.0051
1149.64	0.00648
1161.22	0.00611
1172.79	0.01062
1184.36	0.0131
1195.94	0.01206
1207.51	0.00727
1219.09	0.00526
1230.66	0.00545
1242.23	0.00624
1253.81	0.00755
1265.38	0.00633
1276.96	0.00681
1288.53	0.00593
1300.1	0.00299
1311.68	0.00233
1323.25	0.00225
1334.83	0.00293
1346.4	0.00275
1357.97	0.00226
1369.55	0.00212
1381.12	0.00331
1392.7	0.00205
1404.27	0.00131
1415.84	0.0015
1427.42	0.00278
1438.99	0.00474
1450.57	0.00372
1462.14	0.00309
1473.71	0.00292
1485.29	0.00535
1496.86	0.01098
1508.44	0.00728
1520.01	0.00189
1531.58	0.00104
1543.16	0.0009265
1554.73	0.00109
1566.31	0.00157
1577.88	0.00279
1589.45	0.00346
1601.03	0.00361
1612.6	0.00551
1624.18	0.00367
1635.75	0.00144
1647.32	0.0009008
1658.9	0.0006452
1670.47	0.0004476
1682.05	0.0003916
1693.62	0.0003599
1705.19	0.000331
1716.77	0.0003474
1728.34	0.0004306
1739.92	0.0003956
1751.49	0.0004959
1763.06	0.000452
1774.64	0.0003246
1786.21	0.0002917
1797.79	0.0002398
1809.36	0.0002078
1820.93	0.0002542
1832.51	0.0002396
1844.08	0.0003129
1855.66	0.0003204
1867.23	0.0003439
1878.8	0.0003343
1890.38	0.0002293
1901.95	0.00022
1913.53	0.0001939
1925.1	0.0001995
1936.67	0.0001971
1948.25	0.0001878
1959.82	0.0001775
1971.4	0.0001992
1982.97	0.0002239
1994.54	0.0002001
2006.12	0.0002178
2017.69	0.0002044
2029.27	0.0001914
2040.84	0.000196
2052.41	0.0001994
2063.99	0.0001998
2075.56	0.0001928
2087.14	0.0001901
2098.71	0.0001858
2110.28	0.0001978
2121.86	0.0001885
2133.43	0.0001977
2145.01	0.0001874
2156.58	0.000218
2168.15	0.0002333
2179.73	0.0002478
2191.3	0.0001982
2202.88	0.000224
2214.45	0.0002293
2226.02	0.0002033
2237.6	0.0002065
2249.17	0.0002153
2260.74	0.0002314
2272.32	0.0002283
2283.89	0.000258
2295.47	0.0002659
2307.04	0.0002725
2318.61	0.0002985
2330.19	0.0002631
2341.76	0.0002798
2353.34	0.0002765
2364.91	0.0002847
2376.48	0.0003012
2388.06	0.0003395
2399.63	0.0003042
2411.21	0.0003168
2422.78	0.0003259
2434.35	0.0003488
2445.93	0.0003512
2457.5	0.0003484
2469.08	0.0003158
2480.65	0.0003206
2492.22	0.0003082
2503.8	0.0002956
2515.37	0.0003145
2526.95	0.0003426
2538.52	0.0003207
2550.09	0.0002863
2561.67	0.0002846
2573.24	0.0003184
2584.82	0.000337
2596.39	0.0003283
2607.96	0.0003887
2619.54	0.0003949
2631.11	0.000445
2642.69	0.0004559
2654.26	0.0004362
2665.83	0.0004873
2677.41	0.0004607
2688.98	0.0004767
2700.56	0.0004971
2712.13	0.0004614
2723.7	0.0005384
2735.28	0.0005579
2746.85	0.0005665
2758.43	0.0005502
2770	0.0006237
2781.57	0.0006561
2793.15	0.0007568
2804.72	0.0008752
2816.3	0.00123
2827.87	0.00239
2839.44	0.00352
2851.02	0.00476
2862.59	0.00846
2874.17	0.01028
2885.74	0.01037
2897.31	0.01071
2908.89	0.01202
2920.46	0.01601
2932.04	0.01854
2943.61	0.02185
2955.18	0.01528
2966.76	0.01181
2978.33	0.00629
2989.91	0.00456
3001.48	0.00296
3013.05	0.00306
3024.63	0.00246
3036.2	0.00221
3047.78	0.00161
3059.35	0.00147
3070.92	0.00157
3082.5	0.00116
3094.07	0.0007791
3105.65	0.0006688
3117.22	0.0005949
3128.79	0.0004726
3140.37	0.0003636
3151.94	0.000221
3163.52	0.0003029
3175.09	0.0002814
3186.66	0.0002813
3198.24	0.0001496
3209.81	0.000241
3221.39	0.0001811
3232.96	0.0001559
3244.53	0.0001687
3256.11	0.0001755
3267.68	0.0001437
3279.26	0.0002616
3290.83	0.0001721
3302.4	0.000248
3313.98	0.0001612
3325.55	0.0001761
3337.13	0.0001991
3348.7	0.0002389
3360.27	0.0002607
3371.85	0.0002683
3383.42	0.0002639
3395	0.0003219
3406.57	0.0002544
3418.14	0.0002377
3429.72	0.0002899
3441.29	0.0002681
3452.86	0.0002646
3464.44	0.000281
3476.01	0.0002353
3487.59	0.0002413
3499.16	0.0002872
3510.73	0.0002211
3522.31	0.0002592
3533.88	0.000216
3545.46	0.000223
3557.03	0.0002525
3568.6	0.0003193
3580.18	0.0002267
3591.75	0.0003046
3603.33	0.0003899
3614.9	0.0004659
3626.47	0.0007878
3638.05	0.00236
3649.62	0.01074
3661.2	0.00479
3672.77	0.0009606
3684.34	0.0004814
3695.92	0.0004709
3707.49	0.0003086
3719.07	0.0002959
3730.64	0.0001931
3742.21	0.0002684
3753.79	0.0002717
3765.36	0.0002915
3776.94	0.0002766
3788.51	0.0002896
3800.08	0.0002658
3811.66	0.0003404
3823.23	0.0001976
3834.81	0.0002439
3846.38	0.0003132
3857.95	0.0003006
3869.53	0.0003147
3881.1	0.0003042
3892.68	0.0003074
3904.25	0.0002868
3915.82	0.0003085
3927.4	0.0003585
3938.97	0.0003156
3950.55	0.0002993
3962.12	0.0003416
3973.69	0.0002811
3985.27	0.0002858
3996.84	0.0001592
