Infrared Spectrum: 4,5-IMIDAZOLE DICARBOXYLIC ACID
Formula: C5 H4 N2 O4
CAS: 570-22-9
State: SOLID (SPLIT MULL)
Class: COBLENTZ II
Instrument: BECKMAN IR-9 (GRATING)
Instrument parameters: ORDER CHANGES: 670, 1200, 2000 CM^-^1
Sampling: TRANSMISSION
Resolution: 2
Origin: DOW CHEMICAL COMPANY
1/CM	TRANSMITTANCE
3802	0.8151
3793	0.8191
3784	0.8232
3775	0.8266
3766	0.8296
3757	0.8324
3748	0.8347
3739	0.8351
3730	0.8355
3721	0.8359
3712	0.8362
3703	0.8364
3694	0.8367
3685	0.8364
3676	0.8361
3667	0.8349
3658	0.8325
3649	0.8293
3640	0.8263
3631	0.8193
3622	0.8161
3613	0.8146
3604	0.8124
3595	0.8097
3586	0.8078
3577	0.806
3568	0.8043
3559	0.8028
3550	0.8018
3541	0.8005
3532	0.7994
3523	0.7981
3514	0.7969
3505	0.7957
3496	0.7946
3487	0.7937
3478	0.7928
3469	0.7908
3460	0.785
3451	0.7815
3442	0.7814
3433	0.7819
3424	0.784
3415	0.7865
3406	0.7875
3397	0.7884
3388	0.789
3379	0.7872
3370	0.7831
3361	0.7808
3352	0.7798
3343	0.7788
3334	0.7778
3325	0.7778
3316	0.7776
3307	0.7775
3298	0.7771
3289	0.7765
3280	0.7761
3271	0.7746
3262	0.7726
3253	0.7685
3244	0.7641
3235	0.7593
3226	0.7543
3217	0.7487
3208	0.7421
3199	0.7315
3190	0.716
3181	0.6167
3172	0.2909
3163	0.4479
3154	0.6156
3145	0.6201
3136	0.6157
3127	0.6038
3118	0.5897
3109	0.5732
3100	0.5548
3091	0.5404
3082	0.5289
3073	0.5232
3064	0.5164
3055	0.5
3046	0.4842
3037	0.4687
3028	0.4534
3019	0.4379
3010	0.4221
3001	0.4062
2992	0.3896
2983	0.3808
2974	0.3759
2965	0.3749
2956	0.3759
2947	0.3792
2938	0.3825
2929	0.3853
2920	0.3873
2911	0.3879
2902	0.3846
2893	0.3755
2884	0.3614
2875	0.3491
2866	0.3398
2857	0.331
2848	0.3227
2839	0.315
2830	0.3098
2821	0.3092
2812	0.3106
2803	0.3134
2794	0.315
2785	0.3153
2776	0.3167
2767	0.319
2758	0.3259
2749	0.3294
2740	0.3276
2731	0.3259
2722	0.3256
2713	0.326
2704	0.3288
2695	0.3318
2686	0.3384
2677	0.3455
2668	0.3454
2659	0.3395
2650	0.3394
2641	0.341
2632	0.3466
2623	0.353
2614	0.3621
2605	0.3718
2596	0.3871
2587	0.4025
2578	0.4182
2569	0.4298
2560	0.4414
2551	0.4514
2542	0.4598
2533	0.4681
2524	0.4766
2515	0.4851
2506	0.4934
2497	0.501
2488	0.5088
2479	0.518
2470	0.5277
2461	0.5348
2452	0.5402
2443	0.5456
2434	0.5547
2425	0.5644
2416	0.5748
2407	0.584
2398	0.5927
2389	0.5988
2380	0.6072
2371	0.6234
2362	0.6461
2353	0.6548
2344	0.6615
2335	0.6683
2326	0.675
2317	0.6815
2308	0.6887
2299	0.6957
2290	0.703
2281	0.7101
2272	0.7175
2263	0.7248
2254	0.7321
2245	0.7396
2236	0.7504
2227	0.761
2218	0.7708
2209	0.7793
2200	0.7868
2191	0.7934
2182	0.7988
2173	0.8036
2164	0.8072
2155	0.8097
2146	0.8118
2137	0.8138
2128	0.8157
2119	0.8174
2110	0.819
2101	0.8208
2092	0.823
2083	0.8243
2074	0.8252
2065	0.8234
2056	0.8201
2047	0.8175
2038	0.8143
2029	0.8117
2020	0.8092
2011	0.8101
2002	0.814
1993	0.8115
1984	0.8065
1975	0.8049
1966	0.8033
1957	0.8004
1948	0.7947
1939	0.7875
1930	0.781
1921	0.7765
1912	0.7739
1903	0.771
1894	0.7705
1885	0.7741
1876	0.7828
1867	0.7915
1858	0.7971
1849	0.8025
1840	0.8082
1831	0.8128
1822	0.8158
1813	0.8175
1804	0.8205
1795	0.8247
1786	0.8321
1777	0.8451
1768	0.8585
1759	0.8746
1750	0.8812
1741	0.882
1732	0.8692
1723	0.8406
1714	0.7771
1705	0.7303
1696	0.6701
1687	0.5904
1678	0.5423
1669	0.518
1660	0.4796
1651	0.461
1642	0.4451
1633	0.4191
1624	0.3789
1615	0.319
1606	0.251
1597	0.1556
1588	0.0784
1579	0.1307
1570	0.2002
1561	0.2068
1552	0.1812
1543	0.152
1534	0.189
1525	0.3523
1516	0.3714
1507	0.3626
1498	0.2476
1489	0.0732
1480	0.0358
1471	0.0286
1462	0.0376
1453	0.1241
1444	0.1604
1435	0.1791
1426	0.243
1417	0.3524
1408	0.3757
1399	0.0826
1390	0.0593
1381	0.165
1372	0.2892
1363	0.4191
1354	0.5258
1345	0.5794
1336	0.6273
1327	0.6636
1318	0.6786
1309	0.6871
1300	0.6875
1291	0.6772
1282	0.6444
1273	0.5834
1264	0.4177
1255	0.2704
1246	0.4476
1237	0.612
1228	0.6645
1219	0.6678
1210	0.6225
1201	0.4985
1192	0.4171
1183	0.4469
1174	0.4865
1165	0.5174
1156	0.5409
1147	0.5492
1138	0.5456
1129	0.5356
1120	0.5199
1111	0.4989
1102	0.4768
1093	0.4595
1084	0.4347
1075	0.327
1066	0.446
1057	0.4491
1048	0.4268
1039	0.3996
1030	0.354
1021	0.3115
1012	0.2797
1003	0.2503
994	0.2287
985	0.2308
976	0.2565
967	0.2953
958	0.3697
949	0.4768
940	0.5742
931	0.4671
922	0.23
913	0.1282
904	0.1602
895	0.1618
886	0.1352
877	0.1426
868	0.2231
859	0.2892
850	0.3364
841	0.4137
832	0.4975
823	0.606
814	0.5629
805	0.7044
796	0.7607
787	0.7741
778	0.6922
769	0.3108
760	0.7897
751	0.8495
742	0.8327
733	0.8165
724	0.804
715	0.8281
706	0.836
697	0.8374
688	0.8278
679	0.8007
670	0.7692
661	0.7314
652	0.6891
643	0.616
634	0.2304
625	0.4857
616	0.4049
607	0.378
598	0.3456
589	0.3183
580	0.2947
571	0.2919
562	0.2921
553	0.3051
544	0.3575
535	0.4057
526	0.46
517	0.4978
508	0.5247
499	0.5452
490	0.5624
481	0.5776
472	0.5888
463	0.5942
454	0.592
445	0.5848
436	0.5031
427	0.4006
418	0.5062
409	0.5102
400	0.4981
