Infrared Spectrum: ESTRA-1,3,5(10)-TRIENE-3,15Alpha,17Beta-TRIOL
Formula: C18 H24 O3
CAS: 570-30-9
State: SOLID (KBr DISC)
Class: COBLENTZ III
Instrument: BECKMAN IR-7
Sampling: TRANSMISSION
Resolution: 4
Origin: THE WORCESTER FOUNDATION FOR EXPERIMENTAL BIOLOGY, Neal L. McNiven
1/CM	TRANSMITTANCE
599.27	0.622
608.025	0.578
616.779	0.568
625.534	0.598
634.288	0.691
643.043	0.719
651.797	0.732
660.552	0.769
669.306	0.791
678.061	0.789
686.816	0.802
695.57	0.818
704.325	0.848
713.079	0.865
721.834	0.864
730.588	0.812
739.343	0.852
748.097	0.815
756.852	0.794
765.607	0.852
774.361	0.881
783.116	0.5481
791.87	0.924
800.625	0.978
809.379	0.9121
818.134	0.572
826.888	0.965
835.643	0.971
844.398	0.849
853.152	0.89
861.907	0.82
870.661	0.7619
879.416	0.961
888.17	0.7011
896.925	0.7568
905.679	0.938
914.434	0.8571
923.189	0.707
931.943	0.6007
940.698	0.957
949.452	0.907
958.207	0.6081
966.961	0.846
975.716	0.888
984.47	0.7991
993.225	0.756
1001.98	0.783
1010.73	0.5561
1019.49	0.539
1028.24	0.3101
1037	0.306
1045.75	0.295
1054.51	0.276
1063.26	0.625
1072.02	0.791
1080.77	0.835
1089.53	0.842
1098.28	0.754
1107.03	0.6489
1115.79	0.7119
1124.54	0.716
1133.3	0.553
1142.05	0.728
1150.81	0.4211
1159.56	0.725
1168.32	0.698
1177.07	0.692
1185.83	0.777
1194.58	0.733
1203.33	0.6591
1212.09	0.611
1220.84	0.517
1229.6	0.386
1238.35	0.299
1247.11	0.129
1255.86	0.424
1264.62	0.411
1273.37	0.398
1282.13	0.1951
1290.88	0.417
1299.63	0.519
1308.39	0.337
1317.14	0.264
1325.9	0.4219
1334.65	0.538
1343.41	0.258
1352.16	0.303
1360.92	0.6139
1369.67	0.647
1378.43	0.6329
1387.18	0.723
1395.93	0.729
1404.69	0.693
1413.44	0.746
1422.2	0.6671
1430.95	0.58
1439.71	0.493
1448.46	0.415
1457.22	0.4589
1465.97	0.703
1474.73	0.741
1483.48	0.627
1492.23	0.432
1500.99	0.395
1509.74	0.88
1518.5	0.906
1527.25	0.927
1536.01	0.923
1544.76	0.909
1553.52	0.891
1562.27	0.81
1571.03	0.5251
1579.78	0.5337
1588.53	0.812
1597.29	0.81
1606.04	0.716
1614.8	0.636
1623.55	0.84
1632.31	0.894
1641.06	0.908
1649.82	0.918
1658.57	0.913
1667.33	0.928
1676.08	0.942
1684.83	0.935
1693.59	0.933
1702.34	0.919
1711.1	0.908
1719.85	0.899
1728.61	0.911
1737.36	0.921
1746.12	0.957
1754.87	0.969
1763.63	0.973
1772.38	0.978
1781.14	0.981
1789.89	0.984
1798.64	0.984
1807.4	0.982
1816.15	0.98
1824.91	0.979
1833.66	0.977
1842.42	0.974
1851.17	0.924
1859.93	0.965
1868.68	0.971
1877.44	0.969
1886.19	0.967
1894.94	0.967
1903.7	0.964
1912.45	0.961
1921.21	0.958
1929.96	0.956
1938.72	0.953
1947.47	0.95
1956.23	0.949
1964.98	0.947
1973.74	0.945
1982.49	0.943
1991.24	0.941
2000	0.938
2008.75	0.936
2017.51	0.936
2026.26	0.934
2035.02	0.9339
2043.77	0.932
2052.53	0.931
2061.28	0.9299
2070.04	0.9278
2078.79	0.9258
2087.54	0.9238
2096.3	0.9218
2105.05	0.9198
2113.81	0.918
2122.56	0.9157
2131.32	0.9137
2140.07	0.912
2148.83	0.91
2157.58	0.9076
2166.34	0.9042
2175.09	0.9012
2183.84	0.8982
2192.6	0.8951
2201.35	0.8921
2210.11	0.8895
2218.86	0.8865
2227.62	0.8835
2236.37	0.8805
2245.13	0.8764
2253.88	0.8734
2262.64	0.872
2271.39	0.8688
2280.14	0.862
2288.9	0.8603
2297.65	0.8573
2306.41	0.857
2315.16	0.8614
2323.92	0.8687
2332.67	0.8692
2341.43	0.8672
2350.18	0.8642
2358.94	0.8603
2367.69	0.8515
2376.44	0.8405
2385.2	0.8293
2393.95	0.8203
2402.71	0.8161
2411.46	0.8101
2420.22	0.807
2428.97	0.803
2437.73	0.8
2446.48	0.7979
2455.24	0.794
2463.99	0.7908
2472.74	0.7828
2481.5	0.7778
2490.25	0.7739
2499.01	0.7718
2507.76	0.7678
2516.52	0.7628
2525.27	0.7586
2534.03	0.7538
2542.78	0.7498
2551.54	0.746
2560.29	0.7414
2569.05	0.7377
2577.8	0.7357
2586.55	0.7336
2595.31	0.7293
2604.06	0.7266
2612.82	0.7246
2621.57	0.7211
2630.33	0.7165
2639.08	0.7145
2647.84	0.7125
2656.59	0.7105
2665.35	0.7059
2674.1	0.7019
2682.85	0.699
2691.61	0.697
2700.36	0.6944
2709.12	0.693
2717.87	0.6897
2726.63	0.6863
2735.38	0.6843
2744.14	0.6803
2752.89	0.668
2761.65	0.6587
2770.4	0.6504
2779.15	0.6424
2787.91	0.6324
2796.66	0.5973
2805.42	0.5605
2814.17	0.4903
2822.93	0.4388
2831.68	0.399
2840.44	0.4249
2849.19	0.3771
2857.95	0.329
2866.7	0.343
2875.45	0.2656
2884.21	0.2587
2892.96	0.3069
2901.72	0.2761
2910.47	0.2518
2919.23	0.3176
2927.98	0.3339
2936.74	0.379
2945.49	0.445
2954.25	0.4039
2963	0.4033
2971.75	0.4617
2980.51	0.5021
2989.26	0.5205
2998.02	0.5264
3006.77	0.4705
3015.53	0.419
3024.28	0.4755
3033.04	0.5127
3041.79	0.4949
3050.55	0.465
3059.3	0.4535
3068.05	0.4485
3076.81	0.435
3085.56	0.4189
3094.32	0.4039
3103.07	0.3892
3111.83	0.3725
3120.58	0.3539
3129.34	0.3304
3138.09	0.3081
3146.85	0.298
3155.6	0.289
3164.35	0.2833
3173.11	0.2827
3181.86	0.284
3190.62	0.2848
3199.37	0.2858
3208.13	0.286
3216.88	0.285
3225.64	0.284
3234.39	0.284
3243.15	0.283
3251.9	0.2811
3260.66	0.2781
3269.41	0.2761
3278.16	0.2651
3286.92	0.259
3295.67	0.25
3304.43	0.2339
3313.18	0.2187
3321.94	0.1966
3330.69	0.1784
3339.45	0.1554
3348.2	0.1502
3356.96	0.1671
3365.71	0.1892
3374.46	0.2061
3383.22	0.221
3391.97	0.2339
3400.73	0.245
3409.48	0.2384
3418.24	0.2045
3426.99	0.1713
3435.75	0.1562
3444.5	0.1914
3453.26	0.2413
3462.01	0.3012
3470.76	0.3468
3479.52	0.3661
3488.27	0.4237
3497.03	0.473
3505.78	0.5279
3514.54	0.5616
3523.29	0.5908
3532.05	0.6164
3540.8	0.6396
3549.56	0.6607
3558.31	0.6816
3567.06	0.7035
3575.82	0.7186
3584.57	0.728
3593.33	0.7381
3602.08	0.7503
3610.84	0.7585
3619.59	0.762
3628.35	0.7666
3637.1	0.7698
3645.86	0.7718
3654.61	0.7738
3663.36	0.775
3672.12	0.775
3680.87	0.775
3689.63	0.7731
3698.38	0.773
3707.14	0.772
3715.89	0.77
3724.65	0.77
3733.4	0.77
3742.16	0.768
3750.91	0.767
3759.66	0.7659
3768.42	0.7638
3777.17	0.7579
3785.93	0.7559
3794.68	0.754
3803.44	0.7518
3812.19	0.751
3820.95	0.75
3829.7	0.749
3838.46	0.7477
3847.21	0.746
3855.96	0.746
3864.72	0.745
3873.47	0.744
3882.23	0.7406
3890.98	0.7376
3899.74	0.7374
3908.49	0.7394
3917.25	0.741
3926	0.7415
3934.76	0.743
3943.51	0.743
3952.26	0.743
3961.02	0.7431
3969.77	0.744
3978.53	0.744
3987.28	0.744
3996.04	0.744
4004.79	0.744
