Infrared Spectrum: Acetanilide, p-maleimido-
Formula: C12 H10 N2 O3
CAS: 5702-75-0
State: SOLID (SPLIT MULL), FLUOROLUBE FOR 3800-1330 CM^-^1, NUJOL FOR 1330-400 CM^-^1
Class: COBLENTZ III
Instrument: DOW KBr FOREPRISM-GRATING
Instrument parameters: BLAZED AT 3.5, 12.0, 20.0 MICRON AND CHANGED AT 5.0, 7.5, 14.9 MICRON
Sampling: TRANSMISSION
Resolution: 2
Origin: DOW CHEMICAL COMPANY
1/CM	TRANSMITTANCE
385	0.789
394	0.7858
403	0.7837
412	0.7769
421	0.7693
430	0.7614
439	0.7528
448	0.7411
457	0.7249
466	0.6992
475	0.6962
484	0.6919
493	0.6786
502	0.6518
511	0.505
520	0.502
529	0.6435
538	0.6444
547	0.6352
556	0.6222
565	0.5883
574	0.5879
583	0.5775
592	0.5459
601	0.5852
610	0.6393
619	0.6207
628	0.6441
637	0.6247
646	0.5615
655	0.6193
664	0.6205
673	0.564
682	0.2813
691	0.5576
700	0.5328
709	0.3959
718	0.4295
727	0.4112
736	0.4798
745	0.5031
754	0.5191
763	0.5484
772	0.5805
781	0.594
790	0.6067
799	0.6205
808	0.5843
817	0.5525
826	0.4426
835	0.267
844	0.5628
853	0.5637
862	0.591
871	0.6338
880	0.6316
889	0.617
898	0.6324
907	0.6281
916	0.6227
925	0.6142
934	0.5998
943	0.5759
952	0.553
961	0.5745
970	0.5625
979	0.599
988	0.5792
997	0.5367
1006	0.5052
1015	0.5435
1024	0.5492
1033	0.5289
1042	0.5739
1051	0.5744
1060	0.5551
1069	0.5422
1078	0.5466
1087	0.5518
1096	0.5512
1105	0.5286
1114	0.5397
1123	0.5242
1132	0.4849
1141	0.4545
1150	0.3862
1159	0.28
1168	0.4523
1177	0.4536
1186	0.4977
1195	0.4809
1204	0.4353
1213	0.43
1222	0.445
1231	0.4312
1240	0.4195
1249	0.3027
1258	0.4028
1267	0.4348
1276	0.441
1285	0.4277
1294	0.3654
1303	0.2907
1312	0.1833
1321	0.2424
1330	0.4144
1339	0.3909
1348	0.3946
1357	0.3257
1366	0.2133
1375	0.3282
1384	0.3491
1393	0.2413
1402	0.1508
1411	0.2805
1420	0.471
1429	0.545
1438	0.5452
1447	0.5102
1456	0.4879
1465	0.4756
1474	0.4485
1483	0.3986
1492	0.3132
1501	0.1968
1510	0.0982
1519	0.1373
1528	0.1791
1537	0.2213
1546	0.3035
1555	0.2904
1564	0.2003
1573	0.1704
1582	0.2974
1591	0.4339
1600	0.4436
1609	0.4466
1618	0.4747
1627	0.4557
1636	0.357
1645	0.3397
1654	0.2036
1663	0.0643
1672	0.2565
1681	0.4087
1690	0.343
1699	0.062
1708	0.053
1717	0.3224
1726	0.6543
1735	0.7531
1744	0.8117
1753	0.8334
1762	0.8471
1771	0.8457
1780	0.8661
1789	0.8675
1798	0.8668
1807	0.8645
1816	0.8621
1825	0.8599
1834	0.8568
1843	0.8521
1852	0.8462
1861	0.8389
1870	0.8312
1879	0.8231
1888	0.8151
1897	0.8125
1906	0.8213
1915	0.8247
1924	0.8225
1933	0.8215
1942	0.8214
1951	0.8231
1960	0.8149
1969	0.8058
1978	0.7995
1987	0.7933
1996	0.7801
2005	0.7843
2014	0.7815
2023	0.7784
2032	0.7739
2041	0.7695
2050	0.7656
2059	0.7617
2068	0.758
2077	0.7541
2086	0.7501
2095	0.7461
2104	0.7411
2113	0.7365
2122	0.7325
2131	0.7284
2140	0.7243
2149	0.7195
2158	0.7147
2167	0.7095
2176	0.704
2185	0.6993
2194	0.6956
2203	0.6925
2212	0.6891
2221	0.6838
2230	0.6776
2239	0.671
2248	0.6639
2257	0.6584
2266	0.6532
2275	0.6493
2284	0.6461
2293	0.6428
2302	0.6404
2311	0.6382
2320	0.6362
2329	0.6354
2338	0.6357
2347	0.6358
2356	0.6374
2365	0.6374
2374	0.6366
2383	0.6357
2392	0.6348
2401	0.6339
2410	0.6331
2419	0.6324
2428	0.6316
2437	0.6305
2446	0.6294
2455	0.6282
2464	0.6271
2473	0.626
2482	0.6249
2491	0.6238
2500	0.6228
2509	0.6217
2518	0.6207
2527	0.6196
2536	0.6186
2545	0.6175
2554	0.6164
2563	0.6152
2572	0.614
2581	0.6128
2590	0.6114
2599	0.6097
2608	0.608
2617	0.6062
2626	0.6045
2635	0.6019
2644	0.5993
2653	0.5967
2662	0.5941
2671	0.5908
2680	0.5874
2689	0.5833
2698	0.5786
2707	0.5738
2716	0.569
2725	0.5653
2734	0.5617
2743	0.5581
2752	0.5553
2761	0.5516
2770	0.5492
2779	0.5499
2788	0.5514
2797	0.5523
2806	0.5481
2815	0.5414
2824	0.5322
2833	0.5222
2842	0.5124
2851	0.511
2860	0.5121
2869	0.5127
2878	0.5105
2887	0.5027
2896	0.4936
2905	0.4836
2914	0.4734
2923	0.4686
2932	0.475
2941	0.4758
2950	0.474
2959	0.47
2968	0.4657
2977	0.4612
2986	0.4568
2995	0.4525
3004	0.4483
3013	0.4443
3022	0.4394
3031	0.4295
3040	0.4184
3049	0.4027
3058	0.3798
3067	0.3647
3076	0.3593
3085	0.3539
3094	0.4132
3103	0.423
3112	0.4176
3121	0.4104
3130	0.4018
3139	0.3892
3148	0.369
3157	0.3438
3166	0.3605
3175	0.3709
3184	0.3682
3193	0.362
3202	0.3512
3211	0.3379
3220	0.3238
3229	0.3084
3238	0.2906
3247	0.2676
3256	0.2392
3265	0.2224
3274	0.2087
3283	0.1911
3292	0.1913
3301	0.229
3310	0.3009
3319	0.3353
3328	0.384
3337	0.4087
3346	0.4234
3355	0.4327
3364	0.4406
3373	0.4479
3382	0.4551
3391	0.4612
3400	0.4655
3409	0.468
3418	0.4689
3427	0.4681
3436	0.4634
3445	0.4557
3454	0.4495
3463	0.4488
3472	0.4385
3481	0.4295
3490	0.4288
3499	0.4321
3508	0.4403
3517	0.4592
3526	0.475
3535	0.4844
3544	0.4909
3553	0.4957
3562	0.5
3571	0.5025
3580	0.504
3589	0.5051
3598	0.5058
3607	0.506
3616	0.5056
3625	0.5051
3634	0.5046
3643	0.504
3652	0.5028
3661	0.5015
3670	0.5001
3679	0.4982
3688	0.4962
3697	0.494
3706	0.4915
3715	0.489
3724	0.4864
3733	0.4837
3742	0.481
3751	0.4786
3760	0.4764
3769	0.4743
3778	0.4722
