Infrared Spectrum: Imidazol-5-yl,1-methyl-4-nitro-p-acetamidophenyl,sulfone
Formula: C12 H12 N4 O5 S
CAS: 5702-78-3
State: SOLID (0.8 mg / 650 mg KBr DISC)
Melting point: 125 C
Class: COBLENTZ III
Instrument: PERKIN-ELMER 21 (GRATING)
Instrument parameters: FILTER AT 1070 CM^-^1
Sampling: TRANSMISSION
Resolution: 2
Origin: SOUTHERN RESEARCH INSTITUTE, W.C. Coburn, Jr.
1/CM	TRANSMITTANCE
618.514	0.7324
627.547	0.7907
636.579	0.7683
645.612	0.7159
654.645	0.6722
663.678	0.9515
672.71	0.9491
681.743	0.9329
690.776	0.8961
699.809	0.8312
708.841	0.7233
717.874	0.5274
726.907	0.8126
735.939	0.928
744.972	0.9191
754.005	0.8985
763.038	0.9214
772.07	0.9102
781.103	0.8835
790.136	0.8478
799.168	0.8197
808.201	0.785
817.234	0.7184
826.267	0.6078
835.299	0.4506
844.332	0.6711
853.365	0.7111
862.398	0.7571
871.43	0.7792
880.463	0.8148
889.496	0.8887
898.528	0.9006
907.561	0.9046
916.594	0.9014
925.627	0.8991
934.659	0.8873
943.692	0.8553
952.725	0.8476
961.758	0.8597
970.79	0.8565
979.823	0.8431
988.856	0.8234
997.888	0.7864
1006.92	0.7397
1015.95	0.7555
1024.99	0.7872
1034.02	0.7967
1043.05	0.8031
1052.08	0.7981
1061.12	0.7782
1070.15	0.6975
1079.18	0.6468
1088.22	0.5877
1097.25	0.7523
1106.28	0.721
1115.31	0.5998
1124.35	0.4364
1133.38	0.4447
1142.41	0.6899
1151.44	0.5531
1160.48	0.2879
1169.51	0.1584
1178.54	0.7039
1187.58	0.6376
1196.61	0.7726
1205.64	0.7688
1214.67	0.7262
1223.71	0.5566
1232.74	0.7069
1241.77	0.7163
1250.8	0.6933
1259.84	0.6267
1268.87	0.5301
1277.9	0.5608
1286.94	0.6833
1295.97	0.5197
1305	0.4752
1314.03	0.3908
1323.07	0.3415
1332.1	0.3903
1341.13	0.2941
1350.16	0.4854
1359.2	0.5851
1368.23	0.4265
1377.26	0.3385
1386.3	0.5957
1395.33	0.6495
1404.36	0.4916
1413.39	0.6913
1422.43	0.6885
1431.46	0.7536
1440.49	0.741
1449.52	0.7049
1458.56	0.6507
1467.59	0.607
1476.62	0.6093
1485.66	0.4943
1494.69	0.4493
1503.72	0.3957
1512.75	0.4576
1521.79	0.3932
1530.82	0.2959
1539.85	0.2047
1548.88	0.2097
1557.92	0.6694
1566.95	0.7194
1575.98	0.6565
1585.02	0.4445
1594.05	0.2351
1603.08	0.5372
1612.11	0.54
1621.15	0.6411
1630.18	0.6582
1639.21	0.6521
1648.24	0.6355
1657.28	0.5983
1666.31	0.4551
1675.34	0.4533
1684.38	0.6001
1693.41	0.6803
1702.44	0.7465
1711.47	0.8416
1720.51	0.8833
1729.54	0.9111
1738.57	0.9227
1747.6	0.9316
1756.64	0.9352
1765.67	0.9383
1774.7	0.9428
1783.74	0.949
1792.77	0.9514
1801.8	0.9578
1810.83	0.9619
1819.87	0.9617
1828.9	0.9596
1837.93	0.9578
1846.96	0.9556
1856	0.9535
1865.03	0.9519
1874.06	0.9496
1883.1	0.947
1892.13	0.9432
1901.16	0.9371
1910.19	0.9336
1919.23	0.9417
1928.26	0.9518
1937.29	0.9517
1946.32	0.9494
1955.36	0.9462
1964.39	0.9442
1973.42	0.9427
1982.46	0.9417
1991.49	0.9407
2000.52	0.9396
2009.55	0.9381
2018.59	0.937
2027.62	0.9333
2036.65	0.9318
2045.68	0.9304
2054.72	0.929
2063.75	0.9276
2072.78	0.9262
2081.82	0.925
2090.85	0.922
2099.88	0.9187
2108.91	0.9171
2117.95	0.9158
2126.98	0.9144
2136.01	0.913
2145.04	0.9114
2154.08	0.9095
2163.11	0.9076
2172.14	0.9067
2181.18	0.9064
2190.21	0.9064
2199.24	0.9072
2208.27	0.9081
2217.31	0.909
2226.34	0.9101
2235.37	0.9107
2244.4	0.9109
2253.44	0.9104
2262.47	0.9073
2271.5	0.9045
2280.54	0.9025
2289.57	0.9009
2298.6	0.9006
2307.63	0.9004
2316.67	0.9003
2325.7	0.9001
2334.73	0.8996
2343.76	0.8988
2352.8	0.8977
2361.83	0.8968
2370.86	0.8962
2379.9	0.8952
2388.93	0.8933
2397.96	0.8918
2406.99	0.8905
2416.03	0.8891
2425.06	0.8876
2434.09	0.8858
2443.12	0.884
2452.16	0.8823
2461.19	0.8811
2470.22	0.8799
2479.26	0.8787
2488.29	0.8775
2497.32	0.8763
2506.35	0.875
2515.39	0.8738
2524.42	0.8725
2533.45	0.8703
2542.48	0.8679
2551.52	0.8643
2560.55	0.8639
2569.58	0.8637
2578.62	0.8613
2587.65	0.8579
2596.68	0.8538
2605.71	0.8499
2614.75	0.8471
2623.78	0.8468
2632.81	0.8494
2641.84	0.8526
2650.88	0.8541
2659.91	0.8532
2668.94	0.851
2677.98	0.8498
2687.01	0.8485
2696.04	0.8469
2705.07	0.845
2714.11	0.8439
2723.14	0.8431
2732.17	0.8425
2741.2	0.8364
2750.24	0.8265
2759.27	0.8197
2768.3	0.8122
2777.34	0.8025
2786.37	0.7909
2795.4	0.7849
2804.43	0.7834
2813.47	0.7834
2822.5	0.7831
2831.53	0.7794
2840.56	0.774
2849.6	0.7692
2858.63	0.7652
2867.66	0.7625
2876.69	0.7616
2885.73	0.7615
2894.76	0.7535
2903.79	0.7451
2912.83	0.733
2921.86	0.7265
2930.89	0.7218
2939.92	0.7187
2948.96	0.7178
2957.99	0.7103
2967.02	0.6962
2976.05	0.6818
2985.09	0.6732
2994.12	0.6638
3003.15	0.6507
3012.19	0.6396
3021.22	0.6317
3030.25	0.6246
3039.28	0.619
3048.32	0.617
3057.35	0.6187
3066.38	0.6276
3075.41	0.6405
3084.45	0.6509
3093.48	0.6493
3102.51	0.6392
3111.55	0.6326
3120.58	0.6415
3129.61	0.6639
3138.64	0.6635
3147.68	0.6569
3156.71	0.6463
3165.74	0.6376
3174.77	0.6375
3183.81	0.6422
3192.84	0.6519
3201.87	0.6532
3210.91	0.6443
3219.94	0.6329
3228.97	0.6201
3238	0.6191
3247.04	0.6198
3256.07	0.6234
3265.1	0.622
3274.13	0.6177
3283.17	0.6121
3292.2	0.6047
3301.23	0.5995
3310.27	0.5968
3319.3	0.5941
3328.33	0.5864
3337.36	0.5664
3346.4	0.5486
3355.43	0.531
3364.46	0.511
3373.49	0.4893
3382.53	0.4625
3391.56	0.4335
3400.59	0.417
3409.63	0.4102
3418.66	0.4053
3427.69	0.4013
3436.72	0.3995
3445.76	0.3963
3454.79	0.3901
3463.82	0.3813
3472.85	0.3727
3481.89	0.3726
3490.92	0.3812
3499.95	0.3929
3508.99	0.4155
3518.02	0.436
3527.05	0.4474
3536.08	0.4676
3545.12	0.4914
3554.15	0.5254
3563.18	0.5445
3572.21	0.5718
3581.25	0.5917
3590.28	0.6151
3599.31	0.6442
3608.35	0.6791
3617.38	0.7023
3626.41	0.7255
3635.44	0.7583
3644.48	0.7831
3653.51	0.8003
3662.54	0.8106
3671.57	0.819
3680.61	0.8269
3689.64	0.8293
3698.67	0.8297
3707.71	0.831
3716.74	0.8398
3725.77	0.8428
3734.8	0.8434
3743.84	0.8426
3752.87	0.8413
3761.9	0.8407
3770.93	0.8407
3779.97	0.8411
3789	0.8403
3798.03	0.8393
3807.07	0.8382
3816.1	0.8364
3825.13	0.8352
3834.16	0.834
3843.2	0.8337
3852.23	0.8337
3861.26	0.8349
3870.29	0.8365
3879.33	0.8368
3888.36	0.8338
3897.39	0.8303
3906.43	0.8279
3915.46	0.8281
3924.49	0.8285
3933.52	0.8276
3942.56	0.8253
3951.59	0.8238
3960.62	0.8234
3969.65	0.822
3978.69	0.821
3987.72	0.8204
3996.75	0.8214
4005.79	0.8237
4014.82	0.824
4023.85	0.8234
4032.88	0.8198
4041.92	0.8074
4050.95	0.7977
4059.98	0.7881
