Infrared Spectrum: PYRUVYL CHLORIDE or 2-OXO-PROPIONYL CHLORIDE
Formula: C3 H3 Cl O2
CAS: 5704-66-5
State: SOLUTION (10% CCl4 FOR 5000-1330, 10% CS2 FOR 1330-625 CM^-^1)
Class: COBLENTZ
Instrument: Not specified, most likely a prism, grating, or hybrid spectrometer.
Sampling: TRANSMISSION
Path length: 0.0124 CM, 0.0124 CM
Resolution: 4
Origin: DOW CHEMICAL COMPANY
MICROMETERS	TRANSMITTANCE
2.048	0.903
2.08904	0.903
2.13007	0.903
2.17111	0.901
2.21214	0.901
2.25318	0.898
2.29421	0.903
2.33525	0.904
2.37629	0.904
2.41732	0.904
2.45836	0.906
2.49939	0.911
2.54043	0.915
2.58147	0.915
2.6225	0.908
2.66354	0.915
2.70457	0.906
2.74561	0.899
2.78664	0.881
2.82768	0.872
2.86872	0.874
2.90975	0.887
2.95079	0.889
2.99182	0.889
3.03286	0.879
3.0739	0.877
3.11493	0.872
3.15597	0.87
3.197	0.869
3.23804	0.864
3.27907	0.847
3.32011	0.843
3.36115	0.833
3.40218	0.85
3.44322	0.87
3.48425	0.87
3.52529	0.881
3.56633	0.887
3.60736	0.891
3.6484	0.896
3.68943	0.899
3.73047	0.898
3.7715	0.903
3.81254	0.899
3.85358	0.904
3.89461	0.903
3.93565	0.908
3.97668	0.903
4.01772	0.876
4.05876	0.898
4.09979	0.904
4.14083	0.908
4.18186	0.915
4.2229	0.899
4.26393	0.887
4.30497	0.881
4.34601	0.891
4.38704	0.899
4.42808	0.899
4.46911	0.899
4.51015	0.91
4.55119	0.908
4.59222	0.908
4.63326	0.908
4.67429	0.908
4.71533	0.91
4.75636	0.91
4.7974	0.903
4.83844	0.898
4.87947	0.899
4.92051	0.906
4.96154	0.899
5.00258	0.898
5.04361	0.906
5.08465	0.903
5.12569	0.908
5.16672	0.903
5.20776	0.887
5.24879	0.881
5.28983	0.869
5.33087	0.853
5.3719	0.837
5.41294	0.786
5.45397	0.612
5.49501	0.373
5.53604	0.314
5.57708	0.198
5.61812	0.157
5.65915	0.371
5.70019	0.471
5.74122	0.587
5.78226	0.633
5.8233	0.75
5.86433	0.828
5.90537	0.865
5.9464	0.879
5.98744	0.882
6.02847	0.882
6.06951	0.881
6.11055	0.87
6.15158	0.825
6.19262	0.779
6.23365	0.684
6.27469	0.631
6.31573	0.601
6.35676	0.561
6.3978	0.49
6.43883	0.48
6.47987	0.56
6.5209	0.609
6.56194	0.648
6.60298	0.721
6.64401	0.784
6.68505	0.84
6.72608	0.848
6.76712	0.848
6.80816	0.843
6.84919	0.828
6.89023	0.811
6.93126	0.753
6.9723	0.691
7.01333	0.691
7.05437	0.755
7.09541	0.794
7.13644	0.823
7.17748	0.816
7.21851	0.792
7.25955	0.719
7.30059	0.56
7.34162	0.697
7.38266	0.73
7.42369	0.813
7.46473	0.848
7.50576	0.864
7.5468	0.87
7.58784	0.869
7.62887	0.853
7.66991	0.82
7.71094	0.801
7.75198	0.799
7.79301	0.794
7.83405	0.752
7.87509	0.724
7.91612	0.604
7.95716	0.431
7.99819	0.162
8.03923	0.032
8.08027	0.047
8.1213	0.161
8.16234	0.483
8.20337	0.633
8.24441	0.674
8.28544	0.67
8.32648	0.687
8.36752	0.719
8.40855	0.745
8.44959	0.762
8.49062	0.789
8.53166	0.823
8.5727	0.838
8.61373	0.845
8.65477	0.85
8.6958	0.85
8.73684	0.848
8.77787	0.843
8.81891	0.831
8.85995	0.813
8.90098	0.801
8.94202	0.789
8.98305	0.753
9.02409	0.68
9.06513	0.575
9.10616	0.561
9.1472	0.697
9.18823	0.774
9.22927	0.809
9.2703	0.828
9.31134	0.831
9.35238	0.838
9.39341	0.838
9.43445	0.837
9.47548	0.821
9.51652	0.814
9.55756	0.806
9.59859	0.801
9.63963	0.797
9.68066	0.787
9.7217	0.77
9.76273	0.758
9.80377	0.741
9.84481	0.718
9.88584	0.687
9.92688	0.636
9.96791	0.604
10.0089	0.64
10.05	0.713
10.091	0.765
10.1321	0.789
10.1731	0.809
10.2141	0.818
10.2552	0.814
10.2962	0.809
10.3372	0.789
10.3783	0.753
10.4193	0.714
10.4603	0.689
10.5014	0.728
10.5424	0.777
10.5835	0.806
10.6245	0.82
10.6655	0.821
10.7066	0.82
10.7476	0.809
10.7886	0.803
10.8297	0.797
10.8707	0.791
10.9117	0.782
10.9528	0.772
10.9938	0.764
11.0348	0.75
11.0759	0.738
11.1169	0.709
11.158	0.684
11.199	0.646
11.24	0.599
11.2811	0.538
11.3221	0.444
11.3631	0.325
11.4042	0.198
11.4452	0.1
11.4862	0.108
11.5273	0.176
11.5683	0.307
11.6093	0.397
11.6504	0.475
11.6914	0.528
11.7325	0.585
11.7735	0.658
11.8145	0.714
11.8556	0.758
11.8966	0.78
11.9376	0.809
11.9787	0.821
12.0197	0.831
12.0607	0.838
12.1018	0.842
12.1428	0.847
12.1838	0.848
12.2249	0.85
12.2659	0.848
12.307	0.847
12.348	0.847
12.389	0.848
12.4301	0.848
12.4711	0.848
12.5121	0.843
12.5532	0.837
12.5942	0.831
12.6352	0.826
12.6763	0.823
12.7173	0.82
12.7583	0.823
12.7994	0.826
12.8404	0.828
12.8815	0.826
12.9225	0.821
12.9635	0.818
13.0046	0.813
13.0456	0.809
13.0866	0.809
13.1277	0.808
13.1687	0.808
13.2097	0.808
13.2508	0.809
13.2918	0.808
13.3329	0.801
13.3739	0.799
13.4149	0.796
13.456	0.787
13.497	0.779
13.538	0.77
13.5791	0.753
13.6201	0.726
13.6611	0.694
13.7022	0.685
13.7432	0.711
13.7842	0.73
13.8253	0.736
13.8663	0.738
13.9074	0.736
13.9484	0.731
13.9894	0.726
14.0305	0.723
14.0715	0.718
14.1125	0.714
14.1536	0.707
14.1946	0.699
14.2356	0.687
14.2767	0.674
14.3177	0.66
14.3587	0.648
14.3998	0.645
14.4408	0.641
14.4819	0.64
14.5229	0.634
14.5639	0.626
14.605	0.617
14.646	0.602
14.687	0.59
14.7281	0.577
14.7691	0.57
14.8101	0.565
14.8512	0.558
14.8922	0.551
14.9332	0.55
14.9743	0.536
15.0153	0.528
15.0564	0.514
15.0974	0.5
15.1384	0.488
15.1795	0.475
15.2205	0.465
15.2615	0.456
15.3026	0.448
15.3436	0.443
15.3846	0.436
15.4257	0.429
15.4667	0.424
15.5077	0.419
15.5488	0.414
15.5898	0.409
15.6309	0.402
15.6719	0.398
15.7129	0.392
15.754	0.382
15.795	0.38
