Infrared Spectrum: 1-BENZYL-1-PHENYLHYDRAZINE HYDROCHLORIDE
Formula: C13 H15 Cl N2
CAS: 5705-15-7
State: SOLID (MINERAL OIL MULL)
Class: COBLENTZ
Instrument: Not specified, most likely a prism, grating, or hybrid spectrometer.
Sampling: TRANSMISSION
Resolution: 4
Origin: WYANDOTTE CHEMICALS CORP., WYANDOTTE, MICHIGAN, USA
MICROMETERS	TRANSMITTANCE
2.027	0.6
2.06794	0.603
2.10887	0.613
2.14981	0.613
2.19075	0.605
2.23169	0.593
2.27262	0.608
2.31356	0.617
2.3545	0.62
2.39544	0.625
2.43637	0.656
2.47731	0.661
2.51825	0.671
2.55919	0.695
2.60012	0.692
2.64106	0.726
2.682	0.732
2.72294	0.712
2.76387	0.671
2.80481	0.67
2.84575	0.671
2.88669	0.692
2.92762	0.712
2.96856	0.727
3.0095	0.75
3.05044	0.734
3.09137	0.593
3.13231	0.562
3.17325	0.6
3.21419	0.5
3.25512	0.324
3.29606	0.205
3.337	0.051
3.37794	0.028
3.41887	0.028
3.45981	0.028
3.50075	0.03
3.54169	0.086
3.58262	0.124
3.62356	0.151
3.6645	0.132
3.70544	0.13
3.74637	0.122
3.78731	0.171
3.82825	0.219
3.86919	0.258
3.91012	0.294
3.95106	0.36
3.992	0.404
4.03294	0.471
4.07387	0.496
4.11481	0.53
4.15575	0.554
4.19669	0.581
4.23762	0.603
4.27856	0.596
4.3195	0.641
4.36044	0.693
4.40137	0.714
4.44231	0.712
4.48325	0.732
4.52419	0.743
4.56512	0.751
4.60606	0.768
4.647	0.775
4.68794	0.767
4.72887	0.797
4.76981	0.789
4.81075	0.75
4.85169	0.673
4.89262	0.518
4.93356	0.505
4.9745	0.607
5.01544	0.692
5.05637	0.736
5.09731	0.763
5.13825	0.761
5.17919	0.724
5.22012	0.785
5.26106	0.814
5.302	0.811
5.34294	0.777
5.38387	0.811
5.42481	0.802
5.46575	0.826
5.50669	0.828
5.54762	0.811
5.58856	0.824
5.6295	0.845
5.67044	0.833
5.71137	0.785
5.75231	0.828
5.79325	0.833
5.83419	0.85
5.87512	0.852
5.91606	0.829
5.957	0.823
5.99794	0.811
6.03887	0.799
6.07981	0.784
6.12075	0.755
6.16169	0.539
6.20262	0.284
6.24356	0.241
6.2845	0.428
6.32544	0.562
6.36637	0.605
6.40731	0.596
6.44825	0.386
6.48919	0.484
6.53012	0.578
6.57106	0.653
6.612	0.488
6.65294	0.234
6.69387	0.45
6.73481	0.382
6.77575	0.149
6.81669	0.107
6.85762	0.129
6.89856	0.321
6.9395	0.545
6.98044	0.697
7.02137	0.753
7.06231	0.763
7.10325	0.76
7.14419	0.715
7.18512	0.5
7.22606	0.268
7.267	0.44
7.30794	0.556
7.34887	0.692
7.38981	0.709
7.43075	0.717
7.47169	0.688
7.51262	0.738
7.55356	0.768
7.5945	0.76
7.63544	0.753
7.67637	0.727
7.71731	0.681
7.75825	0.748
7.79919	0.772
7.84012	0.746
7.88106	0.751
7.922	0.789
7.96294	0.763
8.00387	0.714
8.04481	0.663
8.08575	0.734
8.12669	0.775
8.16762	0.799
8.20856	0.78
8.2495	0.756
8.29044	0.755
8.33137	0.765
8.37231	0.763
8.41325	0.676
8.45419	0.596
8.49512	0.54
8.53606	0.569
8.577	0.69
8.61794	0.705
8.65887	0.707
8.69981	0.775
8.74075	0.814
8.78169	0.823
8.82262	0.826
8.86356	0.828
8.9045	0.828
8.94544	0.819
8.98637	0.801
9.02731	0.804
9.06825	0.821
9.10919	0.818
9.15012	0.816
9.19106	0.729
9.232	0.656
9.27294	0.569
9.31387	0.705
9.35481	0.794
9.39575	0.799
9.43669	0.746
9.47762	0.67
9.51856	0.603
9.5595	0.658
9.60044	0.75
9.64137	0.763
9.68231	0.571
9.72325	0.406
9.76419	0.687
9.80512	0.778
9.84606	0.819
9.887	0.799
9.92794	0.743
9.96887	0.821
10.0098	0.76
10.0507	0.636
10.0917	0.661
10.1326	0.727
10.1736	0.787
10.2145	0.824
10.2554	0.836
10.2964	0.826
10.3373	0.826
10.3782	0.857
10.4192	0.869
10.4601	0.869
10.5011	0.869
10.542	0.869
10.5829	0.869
10.6239	0.841
10.6648	0.811
10.7057	0.738
10.7467	0.666
10.7876	0.663
10.8286	0.726
10.8695	0.741
10.9104	0.731
10.9514	0.768
10.9923	0.666
11.0332	0.741
11.0742	0.79
11.1151	0.773
11.1561	0.719
11.197	0.666
11.2379	0.721
11.2789	0.811
11.3198	0.874
11.3607	0.894
11.4017	0.901
11.4426	0.897
11.4836	0.875
11.5245	0.838
11.5654	0.789
11.6064	0.748
11.6473	0.727
11.6882	0.741
11.7292	0.773
11.7701	0.77
11.8111	0.812
11.852	0.824
11.8929	0.852
11.9339	0.872
11.9748	0.879
12.0157	0.897
12.0567	0.903
12.0976	0.911
12.1386	0.926
12.1795	0.937
12.2204	0.938
12.2614	0.938
12.3023	0.938
12.3432	0.931
12.3842	0.926
12.4251	0.926
12.4661	0.928
12.507	0.925
12.5479	0.93
12.5889	0.918
12.6298	0.901
12.6707	0.863
12.7117	0.814
12.7526	0.663
12.7936	0.476
12.8345	0.416
12.8754	0.386
12.9164	0.481
12.9573	0.549
12.9982	0.535
13.0392	0.443
13.0801	0.307
13.1211	0.207
13.162	0.25
13.2029	0.377
13.2439	0.498
13.2848	0.571
13.3257	0.622
13.3667	0.646
13.4076	0.651
13.4486	0.646
13.4895	0.639
13.5304	0.619
13.5714	0.569
13.6123	0.445
13.6532	0.324
13.6942	0.215
13.7351	0.219
13.7761	0.377
13.817	0.511
13.8579	0.595
13.8989	0.663
13.9398	0.729
13.9807	0.767
14.0217	0.795
14.0626	0.816
14.1036	0.816
14.1445	0.806
14.1854	0.775
14.2264	0.692
14.2673	0.586
14.3082	0.425
14.3492	0.292
14.3901	0.209
14.4311	0.176
14.472	0.161
14.5129	0.18
14.5539	0.251
14.5948	0.369
14.6357	0.472
14.6767	0.566
14.7176	0.605
14.7586	0.644
14.7995	0.659
14.8404	0.671
14.8814	0.683
14.9223	0.702
14.9632	0.7
15.0042	0.675
15.0451	0.607
15.0861	0.552
15.127	0.566
15.1679	0.617
15.2089	0.666
15.2498	0.7
15.2907	0.705
15.3317	0.709
15.3726	0.71
15.4136	0.709
15.4545	0.697
15.4954	0.692
15.5364	0.688
15.5773	0.69
15.6182	0.68
15.6592	0.671
15.7001	0.654
15.7411	0.641
15.782	0.63
15.8229	0.62
15.8639	0.613
15.9048	0.603
15.9457	0.595
15.9867	0.574
