Infrared Spectrum: cis-4-Decen-1-ol
Formula: C 10 H 20 O
CAS: 57074-37-0
State: gas
Origin: EPA-IR VAPOR PHASE LIBRARY
1/CM	ABSORBANCE
549.8	0.00315
559.445	0.00327
569.09	0.00373
578.734	0.00448
588.379	0.00545
598.024	0.00562
607.669	0.00477
617.313	0.00412
626.958	0.00382
636.603	0.0045
646.248	0.00495
655.893	0.00604
665.537	0.00783
675.182	0.01061
684.827	0.01347
694.472	0.01714
704.116	0.02013
713.761	0.02079
723.406	0.01873
733.051	0.01569
742.695	0.01173
752.34	0.00913
761.985	0.00834
771.63	0.00744
781.275	0.00622
790.919	0.00495
800.564	0.00409
810.209	0.00335
819.854	0.00404
829.498	0.00432
839.143	0.00592
848.788	0.00663
858.433	0.00655
868.078	0.00606
877.722	0.00601
887.367	0.00705
897.012	0.00831
906.657	0.00932
916.301	0.01025
925.946	0.01053
935.591	0.01157
945.236	0.01231
954.88	0.01294
964.525	0.01394
974.17	0.01508
983.815	0.01664
993.46	0.01989
1003.1	0.02629
1012.75	0.03685
1022.39	0.04802
1032.04	0.05557
1041.68	0.06022
1051.33	0.06591
1060.97	0.06397
1070.62	0.04918
1080.26	0.03215
1089.91	0.02063
1099.55	0.01522
1109.2	0.01397
1118.84	0.0115
1128.49	0.00975
1138.13	0.00997
1147.78	0.00872
1157.42	0.00958
1167.07	0.00921
1176.71	0.00908
1186.36	0.01022
1196	0.01097
1205.64	0.01154
1215.29	0.01094
1224.93	0.01186
1234.58	0.01279
1244.22	0.01261
1253.87	0.01352
1263.51	0.01404
1273.16	0.01471
1282.8	0.01442
1292.45	0.01395
1302.09	0.01412
1311.74	0.01533
1321.38	0.01519
1331.03	0.01446
1340.67	0.01577
1350.32	0.01669
1359.96	0.01579
1369.61	0.01699
1379.25	0.02103
1388.9	0.02248
1398.54	0.02146
1408.18	0.01856
1417.83	0.01309
1427.47	0.01394
1437.12	0.0193
1446.76	0.02454
1456.41	0.02745
1466.05	0.0261
1475.7	0.01999
1485.34	0.01226
1494.99	0.00734
1504.63	0.00482
1514.28	0.00361
1523.92	0.00302
1533.57	0.00257
1543.21	0.00227
1552.86	0.00186
1562.5	0.00179
1572.15	0.00174
1581.79	0.00177
1591.44	0.00176
1601.08	0.00186
1610.73	0.002
1620.37	0.0021
1630.01	0.00264
1639.66	0.00351
1649.3	0.00461
1658.95	0.00412
1668.59	0.00342
1678.24	0.00318
1687.88	0.00279
1697.53	0.00238
1707.17	0.00206
1716.82	0.00155
1726.46	0.00126
1736.11	0.0013
1745.75	0.00115
1755.4	0.00108
1765.04	0.00109
1774.69	0.0009099
1784.33	0.0009105
1793.98	0.00106
1803.62	0.00102
1813.27	0.00108
1822.91	0.00117
1832.55	0.00105
1842.2	0.0009767
1851.84	0.0009427
1861.49	0.0009379
1871.13	0.0008932
1880.78	0.0007793
1890.42	0.0009299
1900.07	0.0008825
1909.71	0.0009328
1919.36	0.0009739
1929	0.00103
1938.65	0.00108
1948.29	0.0009448
1957.94	0.0009035
1967.58	0.00111
1977.23	0.00103
1986.87	0.0009248
1996.52	0.00102
2006.16	0.00106
2015.81	0.00115
2025.45	0.00131
2035.1	0.00147
2044.74	0.0015
2054.38	0.00152
2064.03	0.00141
2073.67	0.00136
2083.32	0.00131
2092.96	0.00102
2102.61	0.00115
2112.25	0.0008105
2121.9	0.0009009
2131.54	0.0008929
2141.19	0.0009698
2150.83	0.00078
2160.48	0.0007527
2170.12	0.0009743
2179.77	0.0007997
2189.41	0.0009879
2199.06	0.000825
2208.7	0.000849
2218.35	0.00109
2227.99	0.0009696
2237.64	0.0009163
2247.28	0.0009782
2256.92	0.0008983
2266.57	0.0009617
2276.21	0.0009408
2285.86	0.0009829
2295.5	0.00106
2305.15	0.0011
2314.79	0.00115
2324.44	0.0012
2334.08	0.00118
2343.73	0.00104
2353.37	0.0012
2363.02	0.00115
2372.66	0.00111
2382.31	0.00124
2391.95	0.00131
2401.6	0.00128
2411.24	0.00118
2420.89	0.00135
2430.53	0.00127
2440.18	0.00121
2449.82	0.00115
2459.47	0.00126
2469.11	0.00137
2478.75	0.00128
2488.4	0.00122
2498.04	0.00146
2507.69	0.00138
2517.33	0.00141
2526.98	0.00157
2536.62	0.00173
2546.27	0.00163
2555.91	0.00169
2565.56	0.00189
2575.2	0.00183
2584.85	0.00192
2594.49	0.00207
2604.14	0.00222
2613.78	0.00242
2623.43	0.00255
2633.07	0.00282
2642.72	0.00315
2652.36	0.00336
2662.01	0.00393
2671.65	0.00413
2681.29	0.00439
2690.94	0.00435
2700.58	0.00438
2710.23	0.00457
2719.87	0.00546
2729.52	0.00626
2739.16	0.00679
2748.81	0.00724
2758.45	0.00756
2768.1	0.00806
2777.74	0.00882
2787.39	0.01025
2797.03	0.01185
2806.68	0.01382
2816.32	0.01702
2825.97	0.02251
2835.61	0.03257
2845.26	0.05136
2854.9	0.08365
2864.55	0.11515
2874.19	0.12606
2883.84	0.12209
2893.48	0.11179
2903.12	0.12153
2912.77	0.15842
2922.41	0.22297
2932.06	0.27434
2941.7	0.25889
2951.35	0.20011
2960.99	0.17705
2970.64	0.15338
2980.28	0.0879
2989.93	0.05175
2999.57	0.04953
3009.22	0.06655
3018.86	0.06086
3028.51	0.03232
3038.15	0.01573
3047.8	0.0103
3057.44	0.00861
3067.09	0.00768
3076.73	0.00655
3086.38	0.00521
3096.02	0.00434
3105.67	0.00377
3115.31	0.00312
3124.95	0.00314
3134.6	0.00247
3144.24	0.00248
3153.89	0.00218
3163.53	0.00202
3173.18	0.00186
3182.82	0.00175
3192.47	0.00191
3202.11	0.00166
3211.76	0.00135
3221.4	0.00125
3231.05	0.00154
3240.69	0.00132
3250.34	0.00102
3259.98	0.000737
3269.63	0.0008234
3279.27	0.0007885
3288.92	0.0009506
3298.56	0.0008813
3308.21	0.0007543
3317.85	0.0005504
3327.49	0.0006742
3337.14	0.0007445
3346.78	0.0005208
3356.43	0.0007324
3366.07	0.000811
3375.72	0.00116
3385.36	0.0009011
3395.01	0.00108
3404.65	0.0008902
3414.3	0.00104
3423.94	0.00112
3433.59	0.00106
3443.23	0.00108
3452.88	0.00106
3462.52	0.00104
3472.17	0.00141
3481.81	0.00131
3491.46	0.00102
3501.1	0.00151
3510.75	0.00123
3520.39	0.00121
3530.04	0.00127
3539.68	0.00118
3549.32	0.0009018
3558.97	0.00117
3568.61	0.00141
3578.26	0.0015
3587.9	0.00195
3597.55	0.00241
3607.19	0.00321
3616.84	0.00431
3626.48	0.00546
3636.13	0.00642
3645.77	0.00849
3655.42	0.01395
3665.06	0.01771
3674.71	0.01586
3684.35	0.00961
3694	0.00518
3703.64	0.00342
3713.29	0.00277
3722.93	0.00232
3732.58	0.0017
3742.22	0.00187
3751.86	0.00149
3761.51	0.00143
3771.15	0.00147
3780.8	0.00142
3790.44	0.00127
3800.09	0.00187
3809.73	0.00171
3819.38	0.00144
3829.02	0.00143
3838.67	0.00146
3848.31	0.00152
3857.96	0.00175
3867.6	0.00163
3877.25	0.00176
3886.89	0.00152
3896.54	0.00136
3906.18	0.00129
3915.83	0.00101
3925.47	0.00115
3935.12	0.00113
3944.76	0.00158
3954.41	0.00153
3964.05	0.00145
3973.69	0.00157
3983.34	0.00135
3992.98	0.00124
