Infrared Spectrum: 5Alpha-ANDROST-1-ENE-3,17-DIONE
Formula: C19 H26 O2
CAS: 571-40-4
State: SOLID (KBr DISC)
Class: COBLENTZ III
Instrument: BECKMAN IR-7
Sampling: TRANSMISSION
Resolution: 4
Origin: THE WORCESTER FOUNDATION FOR EXPERIMENTAL BIOLOGY, Neal L. McNiven
1/CM	TRANSMITTANCE
600	0.708
608.755	0.704
617.509	0.712
626.264	0.789
635.018	0.842
643.773	0.892
652.527	0.934
661.282	0.952
670.037	0.937
678.791	0.973
687.546	0.97
696.3	0.938
705.055	0.979
713.809	0.941
722.564	0.967
731.319	0.984
740.073	0.976
748.828	0.928
757.582	0.965
766.337	0.952
775.091	0.906
783.846	0.518
792.6	0.888
801.355	0.962
810.11	0.905
818.864	0.758
827.619	0.861
836.373	0.879
845.128	0.96
853.882	0.983
862.637	0.954
871.392	0.968
880.146	0.965
888.901	0.965
897.655	0.844
906.41	0.87
915.164	0.9
923.919	0.942
932.674	0.882
941.428	0.86
950.183	0.797
958.937	0.889
967.692	0.858
976.446	0.918
985.201	0.884
993.956	0.784
1002.71	0.742
1011.46	0.589
1020.22	0.741
1028.97	0.831
1037.73	0.813
1046.48	0.654
1055.24	0.619
1063.99	0.8
1072.75	0.839
1081.5	0.803
1090.26	0.832
1099.01	0.739
1107.76	0.711
1116.52	0.769
1125.27	0.836
1134.03	0.763
1142.78	0.863
1151.54	0.821
1160.29	0.6421
1169.05	0.829
1177.8	0.879
1186.56	0.805
1195.31	0.712
1204.07	0.809
1212.82	0.742
1221.57	0.805
1230.33	0.75
1239.08	0.622
1247.84	0.685
1256.59	0.5491
1265.35	0.766
1274.1	0.653
1282.86	0.866
1291.61	0.9
1300.37	0.871
1309.12	0.893
1317.87	0.914
1326.63	0.89
1335.38	0.81
1344.14	0.786
1352.89	0.855
1361.65	0.832
1370.4	0.812
1379.16	0.511
1387.91	0.683
1396.67	0.695
1405.42	0.692
1414.17	0.691
1422.93	0.812
1431.68	0.853
1440.44	0.769
1449.19	0.635
1457.95	0.731
1466.7	0.648
1475.46	0.7821
1484.21	0.906
1492.97	0.921
1501.72	0.925
1510.48	0.93
1519.23	0.931
1527.98	0.932
1536.74	0.93
1545.49	0.926
1554.25	0.921
1563	0.912
1571.76	0.909
1580.51	0.898
1589.27	0.873
1598.02	0.832
1606.78	0.803
1615.53	0.807
1624.28	0.776
1633.04	0.737
1641.79	0.698
1650.55	0.637
1659.3	0.418
1668.06	0.136
1676.81	0.144
1685.57	0.254
1694.32	0.5031
1703.08	0.633
1711.83	0.7
1720.58	0.675
1729.34	0.422
1738.09	0.047
1746.85	0.3841
1755.6	0.661
1764.36	0.81
1773.11	0.869
1781.87	0.904
1790.62	0.912
1799.38	0.928
1808.13	0.944
1816.88	0.947
1825.64	0.948
1834.39	0.951
1843.15	0.952
1851.9	0.952
1860.66	0.953
1869.41	0.955
1878.17	0.955
1886.92	0.958
1895.68	0.958
1904.43	0.959
1913.19	0.959
1921.94	0.958
1930.69	0.958
1939.45	0.956
1948.2	0.954
1956.96	0.951
1965.71	0.95
1974.47	0.951
1983.22	0.952
1991.98	0.955
2000.73	0.955
2009.49	0.955
2018.24	0.955
2026.99	0.9546
2035.75	0.954
2044.5	0.953
2053.26	0.9525
2062.01	0.952
2070.77	0.952
2079.52	0.951
2088.28	0.95
2097.03	0.95
2105.79	0.95
2114.54	0.949
2123.29	0.948
2132.05	0.9471
2140.8	0.947
2149.56	0.947
2158.31	0.946
2167.07	0.945
2175.82	0.9449
2184.58	0.9439
2193.33	0.942
2202.09	0.9418
2210.84	0.94
2219.6	0.939
2228.35	0.938
2237.1	0.937
2245.86	0.936
2254.61	0.9345
2263.37	0.934
2272.12	0.9324
2280.88	0.931
2289.63	0.9304
2298.39	0.929
2307.14	0.928
2315.9	0.9262
2324.65	0.926
2333.4	0.924
2342.16	0.922
2350.91	0.9201
2359.67	0.919
2368.42	0.918
2377.18	0.918
2385.93	0.918
2394.69	0.918
2403.44	0.918
2412.2	0.917
2420.95	0.918
2429.7	0.918
2438.46	0.9176
2447.21	0.916
2455.97	0.916
2464.72	0.9145
2473.48	0.913
2482.23	0.913
2490.99	0.9124
2499.74	0.912
2508.5	0.911
2517.25	0.9103
2526	0.91
2534.76	0.91
2543.51	0.909
2552.27	0.908
2561.02	0.9061
2569.78	0.904
2578.53	0.902
2587.29	0.8989
2596.04	0.8969
2604.8	0.8948
2613.55	0.892
2622.31	0.8898
2631.06	0.888
2639.81	0.8867
2648.57	0.884
2657.32	0.884
2666.08	0.8825
2674.83	0.881
2683.59	0.881
2692.34	0.8794
2701.1	0.879
2709.85	0.8773
2718.61	0.876
2727.36	0.876
2736.11	0.8742
2744.87	0.874
2753.62	0.873
2762.38	0.872
2771.13	0.871
2779.89	0.868
2788.64	0.8649
2797.4	0.8523
2806.15	0.8279
2814.91	0.8041
2823.66	0.7926
2832.41	0.7637
2841.17	0.6628
2849.92	0.367
2858.68	0.467
2867.43	0.5427
2876.19	0.5081
2884.94	0.418
2893.7	0.4464
2902.45	0.3934
2911.21	0.3297
2919.96	0.2033
2928.72	0.2447
2937.47	0.3166
2946.22	0.3638
2954.98	0.552
2963.73	0.4565
2972.49	0.492
2981.24	0.5842
2990	0.6375
2998.75	0.7238
3007.51	0.8029
3016.26	0.8213
3025.02	0.824
3033.77	0.8238
3042.52	0.7812
3051.28	0.8243
3060.03	0.8264
3068.79	0.8284
3077.54	0.8314
3086.3	0.835
3095.05	0.8365
3103.81	0.836
3112.56	0.8334
3121.32	0.832
3130.07	0.831
3138.82	0.8293
3147.58	0.829
3156.33	0.829
3165.09	0.83
3173.84	0.829
3182.6	0.829
3191.35	0.829
3200.11	0.829
3208.86	0.829
3217.62	0.83
3226.37	0.83
3235.13	0.829
3243.88	0.829
3252.63	0.8277
3261.39	0.826
3270.14	0.826
3278.9	0.825
3287.65	0.8226
3296.41	0.8185
3305.16	0.8139
3313.92	0.8104
3322.67	0.8064
3331.43	0.8033
3340.18	0.802
3348.93	0.802
3357.69	0.801
3366.44	0.8
3375.2	0.7981
3383.95	0.7961
3392.71	0.794
3401.46	0.792
3410.22	0.7899
3418.97	0.7869
3427.73	0.7754
3436.48	0.7605
3445.23	0.7593
3453.99	0.7798
3462.74	0.7912
3471.5	0.7993
3480.25	0.8024
3489.01	0.8063
3497.76	0.8119
3506.52	0.8135
3515.27	0.8171
3524.03	0.8206
3532.78	0.824
3541.53	0.826
3550.29	0.8277
3559.04	0.829
3567.8	0.83
3576.55	0.832
3585.31	0.8368
3594.06	0.8399
3602.82	0.845
3611.57	0.847
3620.33	0.849
3629.08	0.8491
3637.84	0.8501
3646.59	0.8522
3655.34	0.8532
3664.1	0.8543
3672.85	0.855
3681.61	0.854
3690.36	0.854
3699.12	0.854
3707.87	0.8535
3716.63	0.853
3725.38	0.853
3734.14	0.853
3742.89	0.853
3751.64	0.853
3760.4	0.852
3769.15	0.852
3777.91	0.852
3786.66	0.852
3795.42	0.8501
3804.17	0.85
3812.93	0.848
3821.68	0.847
3830.44	0.8459
3839.19	0.845
3847.94	0.845
3856.7	0.845
3865.45	0.845
3874.21	0.844
3882.96	0.8437
3891.72	0.8426
3900.47	0.842
3909.23	0.842
3917.98	0.842
3926.74	0.843
3935.49	0.8436
