Infrared Spectrum: 5Beta-Androstan-17-one, 3Beta-hydroxy-
Formula: C19 H30 O2
CAS: 571-31-3
State: SOLID (SPLIT MULL), FLUOROLUBE FOR 3800-1330 CM^-^1, NUJOL FOR 1330-400 CM^-^1
Class: COBLENTZ III
Instrument: DOW KBr FOREPRISM-GRATING
Instrument parameters: BLAZED AT 3.5, 12.0, 20.0 MICRON AND CHANGED AT 5.0, 7.5, 14.9 MICRON
Sampling: TRANSMISSION
Resolution: 2
Origin: DOW CHEMICAL COMPANY
1/CM	TRANSMITTANCE
383	0.8459
392	0.8462
401	0.8456
410	0.8456
419	0.8443
428	0.8438
437	0.8424
446	0.8394
455	0.8317
464	0.8302
473	0.8268
482	0.807
491	0.7716
500	0.8079
509	0.8034
518	0.7729
527	0.7882
536	0.7756
545	0.7676
554	0.725
563	0.7105
572	0.7245
581	0.573
590	0.77
599	0.7393
608	0.6056
617	0.8226
626	0.8448
635	0.8543
644	0.8564
653	0.841
662	0.85
671	0.8534
680	0.8513
689	0.8466
698	0.8355
707	0.8007
716	0.6779
725	0.7265
734	0.7436
743	0.7963
752	0.8046
761	0.8053
770	0.8045
779	0.8092
788	0.8143
797	0.7703
806	0.785
815	0.7942
824	0.7703
833	0.7178
842	0.7612
851	0.7779
860	0.7838
869	0.7831
878	0.7694
887	0.7456
896	0.6197
905	0.7557
914	0.7282
923	0.7147
932	0.6017
941	0.7251
950	0.6149
959	0.6843
968	0.6507
977	0.5949
986	0.6508
995	0.6638
1004	0.4631
1013	0.5659
1022	0.4999
1031	0.5453
1040	0.2862
1049	0.3233
1058	0.445
1067	0.6
1076	0.3803
1085	0.6277
1094	0.5723
1103	0.6685
1112	0.6994
1121	0.6003
1130	0.4773
1139	0.3989
1148	0.6572
1157	0.696
1166	0.6857
1175	0.5486
1184	0.712
1193	0.6499
1202	0.6648
1211	0.7035
1220	0.7029
1229	0.5721
1238	0.6694
1247	0.5524
1256	0.5546
1265	0.6277
1274	0.604
1283	0.6126
1292	0.4302
1301	0.2449
1310	0.5374
1319	0.5624
1328	0.4934
1337	0.4789
1346	0.5926
1355	0.5838
1364	0.6168
1373	0.3822
1382	0.6577
1391	0.7561
1400	0.7553
1409	0.5722
1418	0.6992
1427	0.6278
1436	0.649
1445	0.5017
1454	0.6667
1463	0.6943
1472	0.6578
1481	0.8396
1490	0.8402
1499	0.8388
1508	0.8366
1517	0.8345
1526	0.8373
1535	0.839
1544	0.8398
1553	0.8403
1562	0.8394
1571	0.8371
1580	0.8318
1589	0.8274
1598	0.8246
1607	0.8224
1616	0.8189
1625	0.814
1634	0.8081
1643	0.8015
1652	0.7919
1661	0.779
1670	0.76
1679	0.7166
1688	0.7157
1697	0.6598
1706	0.5506
1715	0.2934
1724	0.0417
1733	0.2287
1742	0.7068
1751	0.8328
1760	0.9063
1769	0.8962
1778	0.8924
1787	0.8866
1796	0.884
1805	0.8804
1814	0.8801
1823	0.8813
1832	0.874
1841	0.8718
1850	0.8687
1859	0.8671
1868	0.8656
1877	0.8641
1886	0.8626
1895	0.8608
1904	0.8596
1913	0.8593
1922	0.8587
1931	0.8553
1940	0.8516
1949	0.849
1958	0.847
1967	0.8452
1976	0.8436
1985	0.8417
1994	0.8393
2003	0.8366
2012	0.8351
2021	0.8328
2030	0.8304
2039	0.828
2048	0.8251
2057	0.8222
2066	0.8192
2075	0.8163
2084	0.8142
2093	0.8122
2102	0.8102
2111	0.8079
2120	0.8049
2129	0.8019
2138	0.7989
2147	0.7956
2156	0.7917
2165	0.787
2174	0.7816
2183	0.7755
2192	0.7729
2201	0.7713
2210	0.7685
2219	0.7647
2228	0.7603
2237	0.756
2246	0.7525
2255	0.7485
2264	0.7409
2273	0.7382
2282	0.7379
2291	0.7378
2300	0.738
2309	0.7422
2318	0.749
2327	0.7497
2336	0.7483
2345	0.7408
2354	0.7336
2363	0.7322
2372	0.7305
2381	0.7287
2390	0.728
2399	0.7274
2408	0.7267
2417	0.7259
2426	0.7252
2435	0.7244
2444	0.7237
2453	0.7229
2462	0.7225
2471	0.722
2480	0.7216
2489	0.7209
2498	0.7197
2507	0.7184
2516	0.7167
2525	0.7139
2534	0.7111
2543	0.7083
2552	0.7048
2561	0.701
2570	0.6972
2579	0.6936
2588	0.6901
2597	0.6866
2606	0.6831
2615	0.6796
2624	0.6761
2633	0.6727
2642	0.6691
2651	0.6631
2660	0.6575
2669	0.6581
2678	0.6576
2687	0.6518
2696	0.6442
2705	0.6369
2714	0.6335
2723	0.6296
2732	0.6252
2741	0.6194
2750	0.6111
2759	0.5984
2768	0.5811
2777	0.5598
2786	0.5287
2795	0.4685
2804	0.4057
2813	0.381
2822	0.4154
2831	0.2999
2840	0.3425
2849	0.3068
2858	0.2572
2867	0.3792
2876	0.3329
2885	0.2908
2894	0.3235
2903	0.208
2912	0.1944
2921	0.1554
2930	0.2088
2939	0.2552
2948	0.4835
2957	0.4609
2966	0.4353
2975	0.6348
2984	0.7509
2993	0.7505
3002	0.7475
3011	0.7416
3020	0.7362
3029	0.7303
3038	0.7239
3047	0.7179
3056	0.712
3065	0.7062
3074	0.7005
3083	0.6952
3092	0.6904
3101	0.6859
3110	0.683
3119	0.6799
3128	0.6765
3137	0.673
3146	0.6699
3155	0.6669
3164	0.6639
3173	0.6608
3182	0.6565
3191	0.6521
3200	0.6478
3209	0.643
3218	0.638
3227	0.6329
3236	0.6278
3245	0.6223
3254	0.6168
3263	0.6113
3272	0.6061
3281	0.601
3290	0.5955
3299	0.5897
3308	0.5839
3317	0.5776
3326	0.5706
3335	0.5636
3344	0.5554
3353	0.5439
3362	0.53
3371	0.5132
3380	0.492
3389	0.4709
3398	0.455
3407	0.4419
3416	0.4286
3425	0.4032
3434	0.3724
3443	0.3309
3452	0.207
3461	0.1047
3470	0.0929
3479	0.4557
3488	0.5448
3497	0.579
3506	0.6153
3515	0.6286
3524	0.635
3533	0.6392
3542	0.6425
3551	0.6436
3560	0.6405
3569	0.6334
3578	0.6279
3587	0.6236
3596	0.6204
3605	0.6172
3614	0.6141
3623	0.611
3632	0.6081
3641	0.6052
3650	0.6024
3659	0.5996
3668	0.5969
3677	0.5942
3686	0.5912
3695	0.5881
3704	0.5851
3713	0.5821
3722	0.5799
3731	0.5779
3740	0.5759
3749	0.5736
3758	0.5714
3767	0.5691
3776	0.5664
3785	0.5631
3794	0.558
