Infrared Spectrum: n-BUTYL-O-BENZOYL BENZOATE
Formula: C18 H18 O3
CAS: 571-98-2
State: LIQUID
Boiling point: 222-224 C AT 9 mmHg
Class: COBLENTZ
Instrument: Not specified, most likely a prism, grating, or hybrid spectrometer.
Sampling: TRANSMISSION
Path length: 0.003 CM
Resolution: 4
Origin: WYANDOTTE CHEMICALS CORP., WYANDOTTE, MICHIGAN, USA
MICROMETERS	TRANSMITTANCE
2.007	0.91
2.04681	0.907
2.08662	0.917
2.12643	0.917
2.16623	0.9
2.20604	0.895
2.24585	0.89
2.28566	0.882
2.32547	0.887
2.36528	0.867
2.40509	0.887
2.4449	0.91
2.4847	0.913
2.52451	0.917
2.56432	0.915
2.60413	0.922
2.64394	0.913
2.68375	0.9
2.72356	0.887
2.76336	0.873
2.80317	0.854
2.84298	0.878
2.88279	0.87
2.9226	0.84
2.96241	0.845
3.00222	0.835
3.04202	0.854
3.08183	0.859
3.12164	0.84
3.16145	0.819
3.20126	0.8
3.24107	0.552
3.28088	0.53
3.32069	0.484
3.36049	0.074
3.4003	0.192
3.44011	0.33
3.47992	0.28
3.51973	0.661
3.55954	0.804
3.59935	0.837
3.63915	0.817
3.67896	0.842
3.71877	0.868
3.75858	0.868
3.79839	0.872
3.8382	0.865
3.87801	0.865
3.91782	0.87
3.95762	0.878
3.99743	0.885
4.03724	0.898
4.07705	0.905
4.11686	0.9
4.15667	0.868
4.19648	0.872
4.23628	0.882
4.27609	0.887
4.3159	0.882
4.35571	0.872
4.39552	0.882
4.43533	0.89
4.47514	0.905
4.51494	0.903
4.55475	0.907
4.59456	0.907
4.63437	0.908
4.67418	0.908
4.71399	0.91
4.7538	0.908
4.79361	0.905
4.83341	0.903
4.87322	0.905
4.91303	0.908
4.95284	0.907
4.99265	0.903
5.03246	0.877
5.07227	0.829
5.11207	0.804
5.15188	0.799
5.19169	0.834
5.2315	0.832
5.27131	0.819
5.31112	0.834
5.35093	0.842
5.39073	0.825
5.43054	0.812
5.47035	0.782
5.51016	0.754
5.54997	0.701
5.58978	0.532
5.62959	0.135
5.6694	0.197
5.7092	0.401
5.74901	0.217
5.78882	0.054
5.82863	0.071
5.86844	0.132
5.90825	0.192
5.94806	0.077
5.98786	0.076
6.02767	0.323
6.06748	0.515
6.10729	0.597
6.1471	0.582
6.18691	0.439
6.22672	0.104
6.26653	0.273
6.30633	0.331
6.34614	0.577
6.38595	0.669
6.42576	0.709
6.46557	0.726
6.50538	0.723
6.54519	0.731
6.58499	0.728
6.6248	0.709
6.66461	0.577
6.70442	0.461
6.74423	0.441
6.78404	0.194
6.82385	0.238
6.86365	0.101
6.90346	0.295
6.94327	0.464
6.98308	0.587
7.02289	0.65
7.0627	0.65
7.10251	0.615
7.14232	0.547
7.18212	0.356
7.22193	0.295
7.26174	0.429
7.30155	0.52
7.34136	0.51
7.38117	0.489
7.42098	0.49
7.46078	0.394
7.50059	0.339
7.5404	0.2
7.58021	0.071
7.62002	0.064
7.65983	0.064
7.69964	0.059
7.73945	0.058
7.77925	0.058
7.81906	0.058
7.85887	0.058
7.89868	0.061
7.93849	0.058
7.9783	0.061
8.01811	0.074
8.05791	0.109
8.09772	0.16
8.13753	0.266
8.17734	0.351
8.21715	0.419
8.25696	0.48
8.29677	0.47
8.33657	0.459
8.37638	0.49
8.41619	0.533
8.456	0.388
8.49581	0.354
8.53562	0.436
8.57543	0.341
8.61524	0.238
8.65504	0.159
8.69485	0.127
8.73466	0.122
8.77447	0.091
8.81428	0.071
8.85409	0.069
8.8939	0.071
8.9337	0.109
8.97351	0.252
9.01332	0.285
9.05313	0.212
9.09294	0.175
9.13275	0.145
9.17256	0.086
9.21236	0.066
9.25217	0.071
9.29198	0.127
9.33179	0.238
9.3716	0.336
9.41141	0.407
9.45122	0.437
9.49103	0.519
9.53083	0.578
9.57064	0.467
9.61045	0.412
9.65026	0.502
9.69007	0.54
9.72988	0.479
9.76969	0.49
9.80949	0.52
9.8493	0.507
9.88911	0.525
9.92892	0.572
9.96873	0.49
10.0085	0.429
10.0483	0.494
10.0882	0.48
10.128	0.522
10.1678	0.58
10.2076	0.592
10.2474	0.578
10.2872	0.547
10.327	0.495
10.3668	0.407
10.4066	0.353
10.4464	0.346
10.4862	0.373
10.5261	0.396
10.5659	0.389
10.6057	0.346
10.6455	0.235
10.6853	0.137
10.7251	0.082
10.7649	0.066
10.8047	0.072
10.8445	0.124
10.8843	0.281
10.9241	0.388
10.9639	0.426
11.0038	0.409
11.0436	0.419
11.0834	0.462
11.1232	0.499
11.163	0.52
11.2028	0.519
11.2426	0.492
11.2824	0.464
11.3222	0.456
11.362	0.489
11.4018	0.555
11.4416	0.621
11.4815	0.64
11.5213	0.648
11.5611	0.653
11.6009	0.668
11.6407	0.683
11.6805	0.683
11.7203	0.656
11.7601	0.621
11.7999	0.588
11.8397	0.55
11.8795	0.537
11.9194	0.54
11.9592	0.565
11.999	0.62
12.0388	0.661
12.0786	0.679
12.1184	0.686
12.1582	0.673
12.198	0.666
12.2378	0.671
12.2776	0.688
12.3174	0.691
12.3572	0.673
12.3971	0.61
12.4369	0.515
12.4767	0.421
12.5165	0.361
12.5563	0.348
12.5961	0.368
12.6359	0.407
12.6757	0.462
12.7155	0.49
12.7553	0.499
12.7951	0.49
12.835	0.427
12.8748	0.311
12.9146	0.202
12.9544	0.132
12.9942	0.107
13.034	0.101
13.0738	0.114
13.1136	0.17
13.1534	0.25
13.1932	0.296
13.233	0.328
13.2728	0.351
13.3127	0.386
13.3525	0.431
13.3923	0.456
13.4321	0.452
13.4719	0.426
13.5117	0.394
13.5515	0.356
13.5913	0.328
13.6311	0.293
13.6709	0.253
13.7107	0.217
13.7506	0.177
13.7904	0.154
13.8302	0.15
13.87	0.144
13.9098	0.139
13.9496	0.137
13.9894	0.129
14.0292	0.126
14.069	0.129
14.1088	0.134
14.1486	0.139
14.1884	0.15
14.2283	0.15
14.2681	0.149
14.3079	0.159
14.3477	0.162
14.3875	0.182
14.4273	0.21
14.4671	0.266
14.5069	0.326
14.5467	0.358
14.5865	0.391
14.6263	0.406
14.6661	0.432
14.706	0.482
14.7458	0.558
14.7856	0.6
14.8254	0.618
14.8652	0.625
14.905	0.598
14.9448	0.565
14.9846	0.529
15.0244	0.515
15.0642	0.512
15.104	0.507
15.1439	0.497
15.1837	0.55
15.2235	0.611
15.2633	0.655
15.3031	0.673
15.3429	0.686
15.3827	0.689
15.4225	0.701
15.4623	0.703
15.5021	0.704
15.5419	0.703
15.5817	0.698
15.6216	0.669
15.6614	0.625
15.7012	0.585
15.741	0.56
15.7808	0.557
15.8206	0.565
15.8604	0.595
15.9002	0.645
15.94	0.671
