Infrared Spectrum: 3Beta-HYDROXYANDROST-4-EN-17-ONE
Formula: C19 H28 O2
CAS: 571-44-8
State: SOLID (KBr DISC)
Class: COBLENTZ III
Instrument: BECKMAN IR-7
Sampling: TRANSMISSION
Resolution: 4
Origin: THE WORCESTER FOUNDATION FOR EXPERIMENTAL BIOLOGY, Neal L. McNiven
1/CM	TRANSMITTANCE
602.911	0.538
611.643	0.58
620.375	0.64
629.106	0.711
637.838	0.752
646.57	0.793
655.302	0.818
664.034	0.825
672.765	0.738
681.497	0.833
690.229	0.86
698.961	0.868
707.693	0.862
716.424	0.809
725.156	0.864
733.888	0.872
742.62	0.872
751.352	0.871
760.083	0.878
768.815	0.879
777.547	0.878
786.279	0.873
795.011	0.866
803.742	0.84
812.474	0.806
821.206	0.804
829.938	0.814
838.67	0.776
847.401	0.775
856.133	0.613
864.865	0.735
873.597	0.849
882.329	0.865
891.06	0.849
899.792	0.783
908.524	0.862
917.256	0.838
925.988	0.761
934.719	0.71
943.451	0.832
952.183	0.812
960.915	0.759
969.647	0.781
978.378	0.688
987.11	0.609
995.842	0.691
1004.57	0.636
1013.31	0.536
1022.04	0.546
1030.77	0.465
1039.5	0.472
1048.23	0.542
1056.96	0.41
1065.7	0.585
1074.43	0.641
1083.16	0.616
1091.89	0.646
1100.62	0.65
1109.36	0.558
1118.09	0.647
1126.82	0.661
1135.55	0.685
1144.28	0.735
1153.01	0.753
1161.75	0.69
1170.48	0.76
1179.21	0.759
1187.94	0.765
1196.67	0.658
1205.41	0.732
1214.14	0.797
1222.87	0.784
1231.6	0.769
1240.33	0.693
1249.06	0.698
1257.8	0.544
1266.53	0.455
1275.26	0.711
1283.99	0.701
1292.72	0.753
1301.46	0.765
1310.19	0.789
1318.92	0.773
1327.65	0.784
1336.38	0.774
1345.11	0.745
1353.85	0.579
1362.58	0.678
1371.31	0.531
1380.04	0.6849
1388.77	0.764
1397.5	0.74
1406.24	0.666
1414.97	0.695
1423.7	0.685
1432.43	0.632
1441.16	0.552
1449.9	0.549
1458.63	0.619
1467.36	0.693
1476.09	0.836
1484.82	0.863
1493.55	0.883
1502.29	0.886
1511.02	0.889
1519.75	0.892
1528.48	0.893
1537.21	0.893
1545.95	0.895
1554.68	0.894
1563.41	0.891
1572.14	0.891
1580.87	0.881
1589.6	0.87
1598.34	0.863
1607.07	0.849
1615.8	0.84
1624.53	0.834
1633.26	0.828
1642	0.8
1650.73	0.719
1659.46	0.748
1668.19	0.791
1676.92	0.774
1685.65	0.764
1694.39	0.745
1703.12	0.647
1711.85	0.4201
1720.58	0.159
1729.31	0.278
1738.05	0.46
1746.78	0.708
1755.51	0.815
1764.24	0.867
1772.97	0.901
1781.7	0.908
1790.44	0.915
1799.17	0.932
1807.9	0.936
1816.63	0.936
1825.36	0.938
1834.09	0.939
1842.83	0.941
1851.56	0.943
1860.29	0.944
1869.02	0.946
1877.75	0.947
1886.49	0.948
1895.22	0.949
1903.95	0.949
1912.68	0.949
1921.41	0.949
1930.14	0.948
1938.88	0.947
1947.61	0.947
1956.34	0.949
1965.07	0.949
1973.8	0.948
1982.54	0.949
1991.27	0.95
2000	0.949
2008.73	0.948
2017.46	0.948
2026.19	0.948
2034.93	0.948
2043.66	0.948
2052.39	0.948
2061.12	0.948
2069.85	0.948
2078.59	0.948
2087.32	0.947
2096.05	0.947
2104.78	0.947
2113.51	0.947
2122.24	0.947
2130.98	0.9466
2139.71	0.945
2148.44	0.944
2157.17	0.942
2165.9	0.941
2174.64	0.9394
2183.37	0.9384
2192.1	0.937
2200.83	0.936
2209.56	0.9343
2218.29	0.933
2227.03	0.9323
2235.76	0.931
2244.49	0.931
2253.22	0.931
2261.95	0.931
2270.69	0.9291
2279.42	0.928
2288.15	0.927
2296.88	0.925
2305.61	0.92
2314.34	0.918
2323.08	0.9159
2331.81	0.9139
2340.54	0.913
2349.27	0.9128
2358	0.912
2366.73	0.912
2375.47	0.912
2384.2	0.912
2392.93	0.911
2401.66	0.91
2410.39	0.91
2419.13	0.909
2427.86	0.908
2436.59	0.907
2445.32	0.9045
2454.05	0.9035
2462.78	0.9015
2471.52	0.899
2480.25	0.8984
2488.98	0.8954
2497.71	0.8897
2506.44	0.888
2515.18	0.887
2523.91	0.886
2532.64	0.885
2541.37	0.8832
2550.1	0.883
2558.83	0.881
2567.57	0.8781
2576.3	0.8732
2585.03	0.8672
2593.76	0.8601
2602.49	0.8511
2611.23	0.841
2619.96	0.838
2628.69	0.835
2637.42	0.835
2646.15	0.834
2654.88	0.833
2663.62	0.833
2672.35	0.833
2681.08	0.833
2689.81	0.832
2698.54	0.832
2707.28	0.831
2716.01	0.831
2724.74	0.83
2733.47	0.83
2742.2	0.829
2750.93	0.8196
2759.67	0.8
2768.4	0.7697
2777.13	0.7249
2785.86	0.653
2794.59	0.5768
2803.32	0.5249
2812.06	0.4595
2820.79	0.4389
2829.52	0.4252
2838.25	0.41
2846.98	0.4188
2855.72	0.458
2864.45	0.4614
2873.18	0.4282
2881.91	0.3605
2890.64	0.3057
2899.37	0.2331
2908.11	0.2788
2916.84	0.3322
2925.57	0.3695
2934.3	0.3954
2943.03	0.4568
2951.77	0.5595
2960.5	0.646
2969.23	0.7087
2977.96	0.7302
2986.69	0.7323
2995.42	0.7371
3004.16	0.7572
3012.89	0.7694
3021.62	0.7805
3030.35	0.7892
3039.08	0.7974
3047.82	0.798
3056.55	0.798
3065.28	0.797
3074.01	0.7955
3082.74	0.7913
3091.47	0.7848
3100.21	0.7814
3108.94	0.7793
3117.67	0.7756
3126.4	0.772
3135.13	0.7695
3143.87	0.7672
3152.6	0.764
3161.33	0.7573
3170.06	0.753
3178.79	0.7492
3187.52	0.7451
3196.26	0.7401
3204.99	0.7331
3213.72	0.727
3222.45	0.724
3231.18	0.722
3239.92	0.7158
3248.65	0.7109
3257.38	0.7079
3266.11	0.7013
3274.84	0.6914
3283.57	0.6835
3292.31	0.6765
3301.04	0.6681
3309.77	0.6567
3318.5	0.6389
3327.23	0.6119
3335.96	0.5925
3344.7	0.573
3353.43	0.5528
3362.16	0.5355
3370.89	0.527
3379.62	0.5194
3388.36	0.5071
3397.09	0.4758
3405.82	0.4298
3414.55	0.3876
3423.28	0.3125
3432.01	0.2994
3440.75	0.3541
3449.48	0.3926
3458.21	0.4594
3466.94	0.5217
3475.67	0.5607
3484.41	0.5903
3493.14	0.6124
3501.87	0.6376
3510.6	0.6659
3519.33	0.6931
3528.06	0.7132
3536.8	0.7211
3545.53	0.7367
3554.26	0.7546
3562.99	0.7676
3571.72	0.7776
3580.46	0.7856
3589.19	0.7927
3597.92	0.7995
3606.65	0.8082
3615.38	0.817
3624.11	0.8184
3632.85	0.8204
3641.58	0.822
3650.31	0.8244
3659.04	0.8265
3667.77	0.828
3676.51	0.8305
3685.24	0.833
3693.97	0.833
3702.7	0.833
3711.43	0.833
3720.16	0.832
3728.9	0.8313
3737.63	0.831
3746.36	0.83
3755.09	0.83
3763.82	0.8292
3772.55	0.828
3781.29	0.8271
3790.02	0.826
3798.75	0.826
3807.48	0.827
3816.21	0.827
3824.95	0.825
3833.68	0.824
3842.41	0.822
3851.14	0.822
3859.87	0.822
3868.6	0.822
3877.34	0.82
3886.07	0.8188
3894.8	0.8178
3903.53	0.817
3912.26	0.817
3921	0.8167
3929.73	0.816
3938.46	0.816
3947.19	0.816
3955.92	0.816
3964.65	0.8145
3973.39	0.8135
3982.12	0.813
3990.85	0.812
3999.58	0.812
