Infrared Spectrum: 2-AMINO-2-METHYL-1,3-PROPANEDITHIOL HYDROCHLORIDE
Formula: C4 H11 N S2  * H Cl
CAS: 5711-39-7
State: SOLID(MINERAL OIL MULL)
Melting point: 177-179 C
Class: COBLENTZ
Instrument: Not specified, most likely a prism, grating, or hybrid spectrometer.
Sampling: TRANSMISSION
Resolution: 4
Origin: ARTHUR D. LITTLE, INC.
1/CM	TRANSMITTANCE
653.125	0.643
660	0.665
666.875	0.672
673.75	0.674
680.625	0.665
687.5	0.635
694.375	0.723
701.25	0.745
708.125	0.737
715	0.726
721.875	0.712
728.75	0.709
735.625	0.759
742.5	0.788
749.375	0.78
756.25	0.777
763.125	0.78
770	0.806
776.875	0.834
783.75	0.889
790.625	0.904
797.5	0.918
804.375	0.932
811.25	0.939
818.125	0.946
825	0.951
831.875	0.957
838.75	0.959
845.625	0.962
852.5	0.965
859.375	0.965
866.25	0.964
873.125	0.961
880	0.957
886.875	0.948
893.75	0.93
900.625	0.932
907.5	0.926
914.375	0.881
921.25	0.792
928.126	0.781
935.001	0.886
941.876	0.906
948.751	0.888
955.626	0.854
962.501	0.85
969.376	0.854
976.251	0.928
983.126	0.953
990.001	0.955
996.876	0.955
1003.75	0.955
1010.63	0.955
1017.5	0.954
1024.38	0.951
1031.25	0.946
1038.13	0.933
1045	0.907
1051.88	0.854
1058.75	0.821
1065.63	0.892
1072.5	0.886
1079.38	0.82
1086.25	0.733
1093.13	0.732
1100	0.83
1106.88	0.889
1113.75	0.885
1120.63	0.872
1127.5	0.841
1134.38	0.77
1141.25	0.65
1148.13	0.613
1155	0.676
1161.88	0.795
1168.75	0.824
1175.63	0.79
1182.5	0.756
1189.38	0.825
1196.25	0.86
1203.13	0.871
1210	0.866
1216.88	0.852
1223.75	0.817
1230.63	0.767
1237.5	0.751
1244.38	0.747
1251.25	0.773
1258.13	0.784
1265	0.756
1271.88	0.685
1278.75	0.563
1285.63	0.465
1292.5	0.477
1299.38	0.624
1306.25	0.708
1313.13	0.762
1320	0.77
1326.88	0.755
1333.75	0.738
1340.63	0.707
1347.5	0.656
1354.38	0.573
1361.25	0.502
1368.13	0.483
1375	0.57
1381.88	0.636
1388.75	0.577
1395.63	0.53
1402.5	0.56
1409.38	0.658
1416.25	0.682
1423.13	0.672
1430	0.653
1436.88	0.486
1443.75	0.411
1450.63	0.368
1457.5	0.392
1464.38	0.511
1471.25	0.645
1478.13	0.662
1485	0.651
1491.88	0.603
1498.75	0.484
1505.63	0.392
1512.5	0.419
1519.38	0.643
1526.25	0.68
1533.13	0.632
1540	0.549
1546.88	0.515
1553.75	0.414
1560.63	0.354
1567.5	0.305
1574.38	0.28
1581.25	0.252
1588.13	0.352
1595	0.662
1601.88	0.838
1608.75	0.883
1615.63	0.908
1622.5	0.915
1629.38	0.918
1636.25	0.921
1643.13	0.921
1650	0.921
1656.88	0.921
1663.75	0.922
1670.63	0.922
1677.5	0.922
1684.38	0.922
1691.25	0.921
1698.13	0.917
1705	0.914
1711.88	0.912
1718.75	0.911
1725.63	0.907
1732.5	0.904
1739.38	0.901
1746.25	0.9
1753.13	0.899
1760	0.897
1766.88	0.897
1773.75	0.896
1780.63	0.896
1787.5	0.895
1794.38	0.89
1801.25	0.886
1808.13	0.883
1815	0.878
1821.88	0.875
1828.75	0.867
1835.63	0.853
1842.5	0.848
1849.38	0.838
1856.25	0.832
1863.13	0.828
1870	0.828
1876.88	0.825
1883.75	0.825
1890.63	0.825
1897.5	0.827
1904.38	0.83
1911.25	0.83
1918.13	0.83
1925	0.83
1931.88	0.83
1938.75	0.828
1945.63	0.825
1952.5	0.825
1959.38	0.825
1966.25	0.825
1973.13	0.827
1980	0.828
1986.88	0.83
1993.75	0.831
2000.63	0.838
2007.5	0.846
2014.38	0.848
2021.25	0.848
2028.13	0.848
2035	0.848
2041.88	0.848
2048.75	0.848
2055.63	0.846
2062.5	0.846
2069.38	0.843
2076.25	0.843
2083.13	0.842
2090	0.842
2096.88	0.841
2103.75	0.837
2110.63	0.832
2117.5	0.824
2124.38	0.816
2131.25	0.814
2138.13	0.814
2145	0.814
2151.88	0.814
2158.75	0.813
2165.63	0.812
2172.5	0.812
2179.38	0.81
2186.25	0.808
2193.13	0.805
2200	0.803
2206.88	0.803
2213.75	0.803
2220.63	0.801
2227.5	0.799
2234.38	0.798
2241.25	0.798
2248.13	0.798
2255	0.798
2261.88	0.796
2268.75	0.796
2275.63	0.796
2282.5	0.796
2289.38	0.796
2296.25	0.796
2303.13	0.796
2310	0.796
2316.88	0.796
2323.75	0.796
2330.63	0.796
2337.5	0.796
2344.38	0.795
2351.25	0.794
2358.13	0.792
2365	0.792
2371.88	0.794
2378.75	0.795
2385.63	0.792
2392.5	0.783
2399.38	0.767
2406.25	0.752
2413.13	0.73
2420	0.7
2426.88	0.642
2433.75	0.596
2440.63	0.527
2447.5	0.446
2454.38	0.374
2461.25	0.327
2468.13	0.317
2475	0.338
2481.88	0.406
2488.75	0.498
2495.63	0.588
2502.5	0.635
2509.38	0.632
2516.25	0.624
2523.13	0.621
2530	0.621
2536.88	0.616
2543.75	0.588
2550.63	0.544
2557.5	0.508
2564.38	0.5
2571.25	0.506
2578.13	0.592
2585	0.656
2591.88	0.656
2598.75	0.627
2605.63	0.606
2612.5	0.602
2619.38	0.599
2626.25	0.589
2633.13	0.573
2640	0.559
2646.88	0.548
2653.75	0.545
2660.63	0.548
2667.5	0.549
2674.38	0.552
2681.25	0.553
2688.13	0.545
2695	0.52
2701.88	0.488
2708.75	0.475
2715.63	0.465
2722.5	0.45
2729.38	0.433
2736.25	0.411
2743.13	0.386
2750	0.36
2756.88	0.342
2763.75	0.313
2770.63	0.292
2777.5	0.254
2784.38	0.229
2791.25	0.204
2798.13	0.187
2805	0.171
2811.88	0.167
2818.75	0.158
2825.63	0.133
2832.5	0.104
2839.38	0.077
2846.25	0.064
2853.13	0.063
2860	0.063
2866.88	0.064
2873.75	0.064
2880.63	0.066
2887.5	0.066
2894.38	0.066
2901.25	0.066
2908.13	0.067
2915	0.069
2921.88	0.07
2928.75	0.075
2935.63	0.08
2942.5	0.084
2949.38	0.089
2956.25	0.098
2963.13	0.118
2970	0.133
2976.88	0.154
2983.75	0.172
2990.63	0.187
2997.5	0.203
3004.38	0.211
3011.25	0.218
3018.13	0.222
3025	0.227
3031.88	0.236
3038.75	0.243
3045.63	0.251
3052.5	0.255
3059.38	0.258
3066.25	0.263
3073.13	0.267
3080	0.274
3086.88	0.29
3093.75	0.296
3100.63	0.302
3107.5	0.309
3114.38	0.316
3121.25	0.321
3128.13	0.337
3135	0.363
3141.88	0.389
3148.75	0.43
3155.63	0.459
3162.5	0.497
3169.38	0.533
3176.25	0.567
3183.13	0.603
3190	0.647
3196.88	0.682
3203.75	0.747
3210.63	0.799
3217.5	0.832
3224.38	0.861
3231.25	0.886
3238.13	0.904
3245	0.924
3251.88	0.932
3258.75	0.937
3265.63	0.94
3272.5	0.941
3279.38	0.941
3286.25	0.941
3293.13	0.941
3300	0.94
3306.88	0.94
3313.75	0.94
3320.63	0.939
3327.5	0.939
3334.38	0.939
3341.25	0.937
3348.13	0.936
