Infrared Spectrum: Acrylic acid, 3-(p-methoxybenzoyl)-
Formula: C11 H10 O4
CAS: 5711-41-1
State: SOLID (SPLIT MULL), FLUOROLUBE FOR 3800-1330 CM^-^1, NUJOL FOR 1330-450 CM^-^1
Class: COBLENTZ III
Instrument: DOW KBr FOREPRISM-GRATING
Instrument parameters: BLAZED AT 3.5, 12.0, 20.0 MICRON AND CHANGED AT 5.0, 7.5, 14.9 MICRON
Sampling: TRANSMISSION
Resolution: 2
Origin: DOW CHEMICAL COMPANY
1/CM	TRANSMITTANCE
3800	0.7221
3791	0.7242
3782	0.7285
3773	0.7265
3764	0.729
3755	0.7314
3746	0.7328
3737	0.7325
3728	0.7383
3719	0.7399
3710	0.7391
3701	0.7383
3692	0.743
3683	0.7424
3674	0.7405
3665	0.7414
3656	0.7449
3647	0.7425
3638	0.7458
3629	0.7436
3620	0.7415
3611	0.7443
3602	0.7437
3593	0.7408
3584	0.7393
3575	0.7219
3566	0.7254
3557	0.7339
3548	0.7325
3539	0.7318
3530	0.7321
3521	0.7314
3512	0.7291
3503	0.7282
3494	0.7275
3485	0.7274
3476	0.7284
3467	0.7298
3458	0.7311
3449	0.7319
3440	0.7324
3431	0.7328
3422	0.7332
3413	0.7335
3404	0.7338
3395	0.7335
3386	0.7332
3377	0.7328
3368	0.7317
3359	0.7304
3350	0.7289
3341	0.7269
3332	0.7239
3323	0.72
3314	0.7165
3305	0.7131
3296	0.7099
3287	0.7061
3278	0.7017
3269	0.6972
3260	0.6918
3251	0.6861
3242	0.6803
3233	0.6744
3224	0.6686
3215	0.6622
3206	0.6558
3197	0.6491
3188	0.6417
3179	0.6335
3170	0.6253
3161	0.6176
3152	0.6099
3143	0.6018
3134	0.5937
3125	0.5833
3116	0.5717
3107	0.5595
3098	0.5568
3089	0.5514
3080	0.5386
3071	0.5165
3062	0.5051
3053	0.5232
3044	0.5222
3035	0.5178
3026	0.5101
3017	0.5115
3008	0.5174
2999	0.519
2990	0.5159
2981	0.5106
2972	0.506
2963	0.516
2954	0.5196
2945	0.5152
2936	0.5258
2927	0.5346
2918	0.5362
2909	0.5377
2900	0.541
2891	0.5464
2882	0.5538
2873	0.5646
2864	0.5687
2855	0.566
2846	0.5303
2837	0.5469
2828	0.5656
2819	0.5806
2810	0.596
2801	0.611
2792	0.6246
2783	0.6367
2774	0.6464
2765	0.6578
2756	0.6688
2747	0.6721
2738	0.6796
2729	0.6841
2720	0.6775
2711	0.665
2702	0.6469
2693	0.6421
2684	0.6461
2675	0.6507
2666	0.6568
2657	0.6625
2648	0.6684
2639	0.6751
2630	0.6822
2621	0.6961
2612	0.7104
2603	0.6856
2594	0.6769
2585	0.6693
2576	0.6689
2567	0.6764
2558	0.6833
2549	0.6895
2540	0.699
2531	0.7108
2522	0.7222
2513	0.7321
2504	0.7398
2495	0.7445
2486	0.7488
2477	0.7545
2468	0.7643
2459	0.7712
2450	0.7775
2441	0.7828
2432	0.7861
2423	0.7903
2414	0.7958
2405	0.8017
2396	0.8078
2387	0.8137
2378	0.8161
2369	0.8143
2360	0.8115
2351	0.8092
2342	0.8074
2333	0.806
2324	0.811
2315	0.8194
2306	0.8283
2297	0.8353
2288	0.8416
2279	0.8441
2270	0.847
2261	0.8499
2252	0.8537
2243	0.8568
2234	0.8602
2225	0.8634
2216	0.8661
2207	0.8689
2198	0.8724
2189	0.8765
2180	0.8803
2171	0.8836
2162	0.8868
2153	0.89
2144	0.8934
2135	0.896
2126	0.8975
2117	0.8986
2108	0.8974
2099	0.8959
2090	0.8959
2081	0.8989
2072	0.9015
2063	0.9018
2054	0.8994
2045	0.9018
2036	0.9008
2027	0.9023
2018	0.9081
2009	0.9125
2000	0.9125
1991	0.9089
1982	0.9044
1973	0.9001
1964	0.8981
1955	0.8998
1946	0.8965
1937	0.8995
1928	0.899
1919	0.8974
1910	0.8961
1901	0.896
1892	0.8955
1883	0.8956
1874	0.8927
1865	0.8932
1856	0.8953
1847	0.9
1838	0.9032
1829	0.906
1820	0.9032
1811	0.8996
1802	0.8965
1793	0.8913
1784	0.8881
1775	0.8855
1766	0.885
1757	0.8753
1748	0.8555
1739	0.8094
1730	0.7288
1721	0.5693
1712	0.2448
1703	0.0888
1694	0.3668
1685	0.5929
1676	0.4641
1667	0.1951
1658	0.3529
1649	0.3612
1640	0.3296
1631	0.5474
1622	0.55
1613	0.3989
1604	0.2477
1595	0.0867
1586	0.37
1577	0.4571
1568	0.6312
1559	0.7626
1550	0.8011
1541	0.8216
1532	0.8364
1523	0.8225
1514	0.431
1505	0.7661
1496	0.8211
1487	0.8216
1478	0.8156
1469	0.7521
1460	0.7199
1451	0.7495
1442	0.6522
1433	0.5897
1424	0.2263
1415	0.5447
1406	0.6732
1397	0.7667
1388	0.8001
1379	0.827
1370	0.8165
1361	0.7848
1352	0.7175
1343	0.4845
1334	0.2331
1325	0.3734
1316	0.3073
1307	0.0955
1298	0.231
1289	0.3303
1280	0.4294
1271	0.2958
1262	0.2483
1253	0.2182
1244	0.5098
1235	0.6591
1226	0.7338
1217	0.6695
1208	0.5312
1199	0.666
1190	0.2469
1181	0.4016
1172	0.1996
1163	0.5894
1154	0.7238
1145	0.7699
1136	0.8131
1127	0.8061
1118	0.75
1109	0.8197
1100	0.8541
1091	0.8655
1082	0.867
1073	0.8586
1064	0.8745
1055	0.8791
1046	0.8628
1037	0.7318
1028	0.5437
1019	0.4584
1010	0.6625
1001	0.5923
992	0.7965
983	0.7619
974	0.566
965	0.576
956	0.7901
947	0.7607
938	0.7508
929	0.678
920	0.6456
911	0.7162
902	0.783
893	0.7805
884	0.8075
875	0.8233
866	0.8221
857	0.8327
848	0.649
839	0.3886
830	0.6888
821	0.7911
812	0.8371
803	0.8183
794	0.8627
785	0.8428
776	0.8235
767	0.4268
758	0.831
749	0.8839
740	0.8814
731	0.8673
722	0.84
713	0.8259
704	0.8961
695	0.9149
686	0.9206
677	0.9038
668	0.7618
659	0.8386
650	0.8085
641	0.8668
632	0.7895
623	0.8283
614	0.8084
605	0.607
596	0.5142
587	0.7857
578	0.7711
569	0.7643
560	0.8138
551	0.8094
542	0.8366
533	0.8374
524	0.8294
515	0.7582
506	0.7488
497	0.7878
488	0.8232
479	0.8286
470	0.8197
461	0.8011
