Infrared Spectrum: 2-Chloro-5-nitrophenyl isothiocyanate
Formula: C 7 H 3 Cl N 2 O 2 S
CAS: 57135-68-9
State: gas
Origin: EPA-IR VAPOR PHASE LIBRARY
1/CM	ABSORBANCE
549.8	0.00512
559.445	0.00672
569.09	0.01102
578.734	0.01538
588.379	0.01852
598.024	0.01672
607.669	0.00974
617.313	0.00624
626.958	0.00458
636.603	0.00418
646.248	0.00472
655.893	0.00529
665.537	0.00578
675.182	0.00764
684.827	0.00524
694.472	0.003
704.116	0.00242
713.761	0.00305
723.406	0.00745
733.051	0.02204
742.695	0.0259
752.34	0.02594
761.985	0.02561
771.63	0.01047
781.275	0.00389
790.919	0.00246
800.564	0.00136
810.209	0.00232
819.854	0.00887
829.498	0.01268
839.143	0.00851
848.788	0.01812
858.433	0.01775
868.078	0.007
877.722	0.00627
887.367	0.01262
897.012	0.01887
906.657	0.00875
916.301	0.00293
925.946	0.00197
935.591	0.00171
945.236	0.001255
954.88	0.00139
964.525	0.0018
974.17	0.00398
983.815	0.01052
993.46	0.01153
1003.1	0.0042
1012.75	0.00226
1022.39	0.00245
1032.04	0.00332
1041.68	0.00603
1051.33	0.01669
1060.97	0.03553
1070.62	0.03114
1080.26	0.01059
1089.91	0.00461
1099.55	0.00444
1109.2	0.00333
1118.84	0.00216
1128.49	0.00374
1138.13	0.00355
1147.78	0.0011206
1157.42	0.0010629
1167.07	0.0012103
1176.71	0.00182
1186.36	0.00156
1196	0.00214
1205.64	0.00161
1215.29	0.00212
1224.93	0.00203
1234.58	0.00405
1244.22	0.00783
1253.87	0.00858
1263.51	0.00934
1273.16	0.00805
1282.8	0.00734
1292.45	0.00633
1302.09	0.00596
1311.74	0.00738
1321.38	0.01306
1331.03	0.03052
1340.67	0.08501
1350.32	0.11875
1359.96	0.05565
1369.61	0.02847
1379.25	0.01383
1388.9	0.00939
1398.54	0.01185
1408.18	0.02129
1417.83	0.01692
1427.47	0.00971
1437.12	0.00956
1446.76	0.01003
1456.41	0.01769
1466.05	0.03816
1475.7	0.03497
1485.34	0.01597
1494.99	0.01284
1504.63	0.0159
1514.28	0.02604
1523.92	0.04229
1533.57	0.06495
1543.21	0.12282
1552.86	0.1211
1562.5	0.0567
1572.15	0.05236
1581.79	0.03537
1591.44	0.01925
1601.08	0.0137
1610.73	0.00889
1620.37	0.00601
1630.01	0.00569
1639.66	0.0056
1649.3	0.00533
1658.95	0.00422
1668.59	0.00256
1678.24	0.00209
1687.88	0.0022
1697.53	0.00208
1707.17	0.00194
1716.82	0.00195
1726.46	0.00203
1736.11	0.00215
1745.75	0.00223
1755.4	0.00236
1765.04	0.00288
1774.69	0.00363
1784.33	0.00358
1793.98	0.0032
1803.62	0.0028
1813.27	0.00267
1822.91	0.00293
1832.55	0.00361
1842.2	0.00452
1851.84	0.00419
1861.49	0.00383
1871.13	0.00434
1880.78	0.00566
1890.42	0.0079
1900.07	0.01102
1909.71	0.0138
1919.36	0.01747
1929	0.02402
1938.65	0.03344
1948.29	0.04709
1957.94	0.06648
1967.58	0.09023
1977.23	0.11538
1986.87	0.13897
1996.52	0.16746
2006.16	0.20433
2015.81	0.2698
2025.45	0.37924
2035.1	0.38532
2044.74	0.27009
2054.38	0.19621
2064.03	0.18237
2073.67	0.17642
2083.32	0.15142
2092.96	0.13405
2102.61	0.12634
2112.25	0.12023
2121.9	0.10073
2131.54	0.06752
2141.19	0.04196
2150.83	0.02859
2160.48	0.02228
2170.12	0.0178
2179.77	0.01348
2189.41	0.01
2199.06	0.00776
2208.7	0.00654
2218.35	0.00603
2227.99	0.00622
2237.64	0.00647
2247.28	0.00654
2256.92	0.00606
2266.57	0.00503
2276.21	0.00407
2285.86	0.00289
2295.5	0.00247
2305.15	0.00254
2314.79	0.0029
2324.44	0.00302
2334.08	0.00274
2343.73	0.00257
2353.37	0.00242
2363.02	0.00237
2372.66	0.00248
2382.31	0.00252
2391.95	0.00245
2401.6	0.00221
2411.24	0.00205
2420.89	0.00187
2430.53	0.00211
2440.18	0.00247
2449.82	0.00274
2459.47	0.00289
2469.11	0.00284
2478.75	0.00284
2488.4	0.00279
2498.04	0.00308
2507.69	0.00364
2517.33	0.00412
2526.98	0.00467
2536.62	0.00558
2546.27	0.00597
2555.91	0.00589
2565.56	0.00547
2575.2	0.00514
2584.85	0.00463
2594.49	0.00353
2604.14	0.00268
2613.78	0.00204
2623.43	0.00175
2633.07	0.00172
2642.72	0.0019
2652.36	0.0021
2662.01	0.0022
2671.65	0.00239
2681.29	0.00235
2690.94	0.00254
2700.58	0.00283
2710.23	0.0028
2719.87	0.00243
2729.52	0.00213
2739.16	0.00209
2748.81	0.00209
2758.45	0.00217
2768.1	0.00242
2777.74	0.00275
2787.39	0.00303
2797.03	0.00279
2806.68	0.00229
2816.32	0.00189
2825.97	0.00169
2835.61	0.00196
2845.26	0.00223
2854.9	0.00238
2864.55	0.00253
2874.19	0.00262
2883.84	0.0029
2893.48	0.00265
2903.12	0.00249
2912.77	0.00238
2922.41	0.0023
2932.06	0.00225
2941.7	0.00191
2951.35	0.00151
2960.99	0.00138
2970.64	0.0012932
2980.28	0.0012751
2989.93	0.00132
2999.57	0.0011837
3009.22	0.00132
3018.86	0.00142
3028.51	0.00153
3038.15	0.0012172
3047.8	0.0007933
3057.44	0.0010622
3067.09	0.0012135
3076.73	0.00218
3086.38	0.00466
3096.02	0.0054
3105.67	0.00305
3115.31	0.00156
3124.95	0.0007523
3134.6	0.0006162
3144.24	0.000638
3153.89	0.000320184
3163.53	0.0004806
3173.18	0.00021
3182.82	0.0004941
3192.47	0.0004453
3202.11	0.00038494
3211.76	0.000183
3221.4	0.0003096
3231.05	0.0002803
3240.69	0.000219
3250.34	0.00012
3259.98	0.00027
3269.63	0.000164
3279.27	0.000106
3288.92	0.000134
3298.56	0.0002639
3308.21	0.0003793
3317.85	0.000195
3327.49	1.7e-05
3337.14	5.1e-05
3346.78	0.0004635
3356.43	0.0002617
3366.07	0.00031321
3375.72	0.0002882
3385.36	0.00031274
3395.01	0.000211
3404.65	0.000165
3414.3	0.000275
3423.94	0.0002266
3433.59	0.00031326
3443.23	0.0004139
3452.88	0.00038091
3462.52	0.0002632
3472.17	0.0004308
3481.81	0.0004741
3491.46	0.0002934
3501.1	0.000453
3510.75	0.0004574
3520.39	0.0004827
3530.04	0.0004663
3539.68	0.0003149
3549.32	0.000231
3558.97	0.000161
3568.61	0.0005013
3578.26	0.0004729
3587.9	0.00034782
3597.55	0.0002601
3607.19	0.0003069
3616.84	0.000321405
3626.48	0.00041876
3636.13	0.000271
3645.77	0.0002581
3655.42	0.0004379
3665.06	0.0003653
3674.71	0.0004533
3684.35	0.0004765
3694	0.000218
3703.64	0.000566
3713.29	0.00035546
3722.93	0.00035513
3732.58	0.0002521
3742.22	0.00036906
3751.86	0.0002911
3761.51	0.000432
3771.15	0.0006019
3780.8	0.0006686
3790.44	0.0005082
3800.09	0.0004364
3809.73	0.00040836
3819.38	0.0005719
3829.02	0.0004654
3838.67	0.0004063
3848.31	0.0005641
3857.96	0.0006612
3867.6	0.0006842
3877.25	0.0006716
3886.89	0.0007571
3896.54	0.000755
3906.18	0.0008457
3915.83	0.0008679
3925.47	0.0011462
3935.12	0.0010592
3944.76	0.0011698
3954.41	0.0010787
3964.05	0.00132
3973.69	0.00138
3983.34	0.001314
3992.98	0.00141
