Infrared Spectrum: 3,4-Dimethyl cyclohexanol
Formula: C 8 H 16 O
CAS: 5715-23-1
State: gas
Instrument: HP-GC/MS/IRD
Origin: NIST Mass Spectrometry Data Center
1/CM	ABSORBANCE
550	0.0001281
562	0.0002247
574	0.0003864
586	0.0005607
598	0.0005859
610	0.0002709
622	0.0002247
634	9.87e-05
646	0.0002772
658	0.0001365
670	0.0001113
682	5.88e-05
694	6.93e-05
706	0.0001134
718	0.000147
730	0.0001176
742	8.4e-05
754	0.000126
766	6.93e-05
778	0.0001323
790	9.24e-05
802	0.000147
814	0.0002142
826	0.0001659
838	0.000294
850	0.0004305
862	0.0004242
874	0.0003297
886	0.0003822
898	0.0004116
910	0.0006447
922	0.0007917
934	0.0007203
946	0.0009114
958	0.0009324
970	0.0010647
982	0.0012579
994	0.0017766
1006	0.0029253
1018	0.0054138
1030	0.0082887
1042	0.0067746
1054	0.0035364
1066	0.0023877
1078	0.0027216
1090	0.004032
1102	0.0040362
1114	0.0023121
1126	0.0012726
1138	0.0010458
1150	0.000861
1162	0.0008694
1174	0.0008652
1186	0.0008967
1198	0.0010878
1210	0.0014973
1222	0.0018039
1234	0.0017262
1246	0.0016527
1258	0.0016716
1270	0.0016212
1282	0.001512
1294	0.0013734
1306	0.0011004
1318	0.0009387
1330	0.0010143
1342	0.0012579
1354	0.0019887
1366	0.0031332
1378	0.0034965
1390	0.0025158
1402	0.0013167
1414	0.0008526
1426	0.0008757
1438	0.0017409
1450	0.0030723
1462	0.0032487
1474	0.0018417
1486	0.0007728
1498	0.0003759
1510	0.0002037
1522	0.0001428
1534	0.0001428
1546	0.0001197
1558	8.82e-05
1570	0.0001134
1582	0.000126
1594	0.000126
1606	0.0001428
1618	0.0001344
1630	7.98e-05
1642	0.0001113
1654	0.0001197
1666	8.61e-05
1678	7.35e-05
1690	6.93e-05
1702	5.88e-05
1714	6.09e-05
1726	3.36e-05
1738	8.4e-05
1750	1.89e-05
1762	4.41e-05
1774	8.4e-06
1786	2.73e-05
1798	5.88e-05
1810	2.73e-05
1822	6.3e-06
1834	2.94e-05
1846	2.31e-05
1858	3.57e-05
1870	1.26e-05
1882	2.31e-05
1894	2.73e-05
1906	2.1e-06
1918	3.36e-05
1930	2.31e-05
1942	2.52e-05
1954	2.73e-05
1966	2.1e-05
1978	2.1e-05
1990	1.89e-05
2002	3.57e-05
2014	4.62e-05
2026	4.41e-05
2038	6.3e-05
2050	6.72e-05
2062	6.72e-05
2074	5.67e-05
2086	6.3e-05
2098	1.89e-05
2110	2.52e-05
2122	3.78e-05
2134	3.57e-05
2146	3.36e-05
2158	2.1e-05
2170	3.15e-05
2182	5.88e-05
2194	3.99e-05
2206	1.89e-05
2218	2.1e-05
2230	4.41e-05
2242	2.52e-05
2254	4.62e-05
2266	3.15e-05
2278	4.41e-05
2290	3.57e-05
2302	3.99e-05
2314	3.78e-05
2326	3.78e-05
2338	5.88e-05
2350	4.62e-05
2362	6.09e-05
2374	6.51e-05
2386	4.83e-05
2398	6.51e-05
2410	0.000105
2422	0.000105
2434	9.45e-05
2446	9.24e-05
2458	6.51e-05
2470	8.61e-05
2482	8.19e-05
2494	6.51e-05
2506	6.93e-05
2518	9.87e-05
2530	7.98e-05
2542	4.41e-05
2554	9.66e-05
2566	0.0001008
2578	0.000168
2590	0.0001575
2602	0.0002331
2614	0.0002457
2626	0.0002772
2638	0.0002814
2650	0.0002436
2662	0.0002331
2674	0.0003003
2686	0.0002688
2698	0.0002793
2710	0.0003066
2722	0.0003318
2734	0.0004116
2746	0.0004725
2758	0.0004641
2770	0.000462
2782	0.0005166
2794	0.0005943
2806	0.0007434
2818	0.0009702
2830	0.0015351
2842	0.0033768
2854	0.0072618
2866	0.0112392
2878	0.0115059
2890	0.0093618
2902	0.0092904
2914	0.0135555
2926	0.0198366
2938	0.0201054
2950	0.0145026
2962	0.0118881
2974	0.0102438
2986	0.0060837
2998	0.0018291
3010	0.000672
3022	0.0004977
3034	0.0004137
3046	0.0003948
3058	0.0003696
3070	0.0003402
3082	0.0003549
3094	0.0003255
3106	0.0003423
3118	0.0002772
3130	0.0002436
3142	0.0002772
3154	0.0002268
3166	0.0002331
3178	0.0002142
3190	0.0001071
3202	7.77e-05
3214	8.19e-05
3226	5.67e-05
3238	7.14e-05
3250	7.77e-05
3262	4.41e-05
3274	8.82e-05
3286	8.82e-05
3298	5.67e-05
3310	6.72e-05
3322	2.73e-05
3334	2.31e-05
3346	4.83e-05
3358	6.72e-05
3370	4.2e-05
3382	4.41e-05
3394	0.0001176
3406	3.57e-05
3418	5.88e-05
3430	0.0001134
3442	0.0001449
3454	9.03e-05
3466	9.87e-05
3478	9.24e-05
3490	8.19e-05
3502	4.62e-05
3514	5.88e-05
3526	7.98e-05
3538	8.82e-05
3550	6.51e-05
3562	5.04e-05
3574	5.25e-05
3586	9.87e-05
3598	0.0001428
3610	0.0001743
3622	0.0002667
3634	0.0007266
3646	0.0015393
3658	0.0012894
3670	0.0004116
3682	0.0001827
3694	0.0001176
3706	8.4e-05
3718	9.45e-05
3730	5.88e-05
3742	2.31e-05
3754	7.98e-05
3766	8.61e-05
3778	6.51e-05
3790	0.0001029
3802	9.66e-05
3814	0.0001554
3826	0.0001407
3838	0.0001239
