Infrared Spectrum: (Carbethoxyethylidine)triphenyl phosphora
Formula: C 23 H 23 O 2 P
CAS: 5717-37-3
State: gas
Instrument: HP-GC/MS/IRD
Origin: NIST Mass Spectrometry Data Center
1/CM	ABSORBANCE
550	0.0319748
562	0.0047558
574	0.0027305
586	0.0016985
598	0.0011137
610	0.0008342
622	0.0010234
634	0.0008815
646	0.0012986
658	0.0020468
670	0.004343
682	0.0088064
694	0.0205583
706	0.0191651
718	0.043
730	0.0134848
742	0.007439
754	0.0037023
766	0.0020038
778	0.001505
790	0.0011911
802	0.0009503
814	0.0006106
826	0.0004601
838	0.0004945
850	0.0003999
862	0.0003139
874	0.0003311
886	0.0001892
898	0.0002666
910	0.000172
922	0.0001376
934	0.0001548
946	8.6e-06
958	9.46e-05
970	0.0002107
982	0.0003956
994	0.0012599
1006	0.0008428
1018	0.0006278
1030	0.0019737
1042	0.000516
1054	0.0008041
1066	0.0017716
1078	0.0018662
1090	0.0036808
1102	0.010406
1114	0.0329896
1126	0.0139621
1138	0.0041882
1150	0.0026574
1162	0.0028165
1174	0.003526
1186	0.006364
1198	0.0050353
1210	0.013373
1222	0.0317727
1234	0.0069488
1246	0.0033626
1258	0.0033454
1270	0.0031949
1282	0.0023693
1294	0.0023048
1306	0.0023994
1318	0.0018017
1330	0.0017372
1342	0.0013889
1354	0.0012513
1366	0.0013932
1378	0.0015179
1390	0.0012642
1402	0.0012298
1414	0.001677
1426	0.0042226
1438	0.0099029
1450	0.0032551
1462	0.0011696
1474	0.001204
1486	0.0022145
1498	0.0007267
1510	0.0003182
1522	0.0003182
1534	0.0004214
1546	0.0004472
1558	0.000559
1570	0.0008772
1582	0.0011481
1594	0.0012771
1606	0.000731
1618	0.0005934
1630	0.0005117
1642	0.0006192
1654	0.0007912
1666	0.0011309
1678	0.0009159
1690	0.0005977
1702	0.0005676
1714	0.0005805
1726	0.0005547
1738	0.0005719
1750	0.0006579
1762	0.0008557
1774	0.0010105
1786	0.0007826
1798	0.0009933
1810	0.0018748
1822	0.001548
1834	0.0009976
1846	0.0007138
1858	0.000645
1870	0.0007224
1882	0.0011008
1894	0.0014104
1906	0.0013029
1918	0.0006923
1930	0.000516
1942	0.0007095
1954	0.0013072
1966	0.0013717
1978	0.000774
1990	0.0004128
2002	0.0003053
2014	0.0003397
2026	0.0002967
2038	0.0002709
2050	0.0002537
2062	0.0002838
2074	0.0002666
2086	0.0001849
2098	0.000258
2110	0.000215
2122	0.0002494
2134	0.0002494
2146	0.0002537
2158	0.0002666
2170	0.0002107
2182	0.000258
2194	0.0002666
2206	0.0003483
2218	0.0003483
2230	0.0002752
2242	0.0002365
2254	0.0002537
2266	0.0002494
2278	0.0002709
2290	0.0002451
2302	0.000301
2314	0.000516
2326	0.0003784
2338	0.0003225
2350	0.0003268
2362	0.0002494
2374	0.0002709
2386	0.0002537
2398	0.0002322
2410	0.0002365
2422	0.0002021
2434	0.0002709
2446	0.0001978
2458	0.0002451
2470	0.0001849
2482	0.0001763
2494	0.000172
2506	0.0001462
2518	0.0001505
2530	0.0001376
2542	0.0001247
2554	0.0002107
2566	0.000258
2578	0.0002752
2590	0.0002967
2602	0.0002623
2614	0.0002881
2626	0.0002451
2638	0.0001634
2650	0.0001849
2662	0.000172
2674	0.0002021
2686	0.0003225
2698	0.0002924
2710	0.0002193
2722	0.000172
2734	9.46e-05
2746	3.44e-05
2758	3.44e-05
2770	5.59e-05
2782	0.0001161
2794	1.29e-05
2806	4.3e-06
2818	7.74e-05
2830	0.0001419
2842	0.0001892
2854	0.0001548
2866	0.0001935
2878	0.0001806
2890	0.0001677
2902	9.89e-05
2914	0.0001935
2926	8.17e-05
2938	0.0001505
2950	0.0002365
2962	0.0003698
2974	0.0003612
2986	0.0006063
2998	0.0011266
3010	0.0021328
3022	0.0028294
3034	0.0029111
3046	0.0037668
3058	0.0109306
3070	0.0157251
3082	0.0095847
3094	0.00516
3106	0.0017372
3118	0.0008686
3130	0.000688
3142	0.0009675
3154	0.0006493
3166	0.0002666
3178	0.0001548
3190	0.0001161
3202	0.0001118
3214	0.0001376
3226	0.0001763
3238	8.6e-06
3250	0.0001548
3262	8.6e-05
3274	0.0001247
3286	8.17e-05
3298	7.31e-05
3310	5.59e-05
3322	0.0001935
3334	0.0001935
3346	0.0002107
3358	0.0001849
3370	0.0002322
3382	0.0001161
3394	0.0001935
3406	0.0002752
3418	0.0002193
3430	0.0002451
3442	0.0003182
3454	0.0002537
3466	0.0002709
3478	0.0003096
3490	0.0001634
3502	0.000344
3514	0.0003268
3526	0.0002322
3538	0.0002666
3550	0.0001376
3562	0.0003311
3574	0.000258
3586	0.0003741
3598	0.0004085
3610	0.0003956
3622	0.0002279
3634	0.0002709
3646	0.00043
3658	0.0002752
3670	0.0003182
3682	0.0002451
3694	0.0003483
3706	0.0003569
3718	0.0002236
3730	0.0002322
3742	0.0003139
3754	0.0003483
3766	0.0002838
3778	0.0003096
3790	0.0001978
3802	0.0002279
3814	0.0003182
3826	0.000344
3838	7.74e-05
