Infrared Spectrum: 2,4-THIAZOLIDINEDIONE, 5-(2-FURFURYLIDENE)-
Formula: C8 H5 N O3 S
CAS: 5718-88-7
State: SOLID (KBr PELLET)
Melting point: 231-233 C
Class: COBLENTZ
Instrument: Not specified, most likely a prism, grating, or hybrid spectrometer.
Sampling: TRANSMISSION
Resolution: 4
Origin: TENNESSEE EASTMAN COMPANY, RESEARCH LABORATORIES
MICROMETERS	TRANSMITTANCE
2.014	0.827
2.05507	0.825
2.09615	0.829
2.13722	0.831
2.17829	0.831
2.21937	0.837
2.26044	0.839
2.30151	0.841
2.34259	0.846
2.38366	0.849
2.42474	0.851
2.46581	0.853
2.50688	0.853
2.54796	0.854
2.58903	0.854
2.6301	0.856
2.67118	0.856
2.71225	0.856
2.75332	0.848
2.7944	0.822
2.83547	0.812
2.87654	0.798
2.91762	0.779
2.95869	0.784
2.99977	0.81
3.04084	0.819
3.08191	0.778
3.12299	0.704
3.16406	0.491
3.20513	0.517
3.24621	0.6
3.28728	0.412
3.32835	0.58
3.36943	0.697
3.4105	0.733
3.45157	0.733
3.49265	0.706
3.53372	0.614
3.5748	0.703
3.61587	0.802
3.65694	0.837
3.69802	0.86
3.73909	0.875
3.78016	0.897
3.82124	0.902
3.86231	0.911
3.90338	0.919
3.94446	0.921
3.98553	0.924
4.0266	0.924
4.06768	0.926
4.10875	0.928
4.14982	0.928
4.1909	0.933
4.23197	0.941
4.27305	0.941
4.31412	0.941
4.35519	0.941
4.39627	0.948
4.43734	0.948
4.47841	0.948
4.51949	0.95
4.56056	0.95
4.60163	0.952
4.64271	0.952
4.68378	0.953
4.72485	0.955
4.76593	0.953
4.807	0.96
4.84808	0.96
4.88915	0.959
4.93022	0.959
4.9713	0.96
5.01237	0.967
5.05344	0.967
5.09452	0.967
5.13559	0.967
5.17666	0.967
5.21774	0.964
5.25881	0.96
5.29988	0.962
5.34096	0.962
5.38203	0.96
5.42311	0.957
5.46418	0.948
5.50525	0.943
5.54633	0.938
5.5874	0.866
5.62847	0.829
5.66955	0.822
5.71062	0.559
5.75169	0.226
5.79277	0.278
5.83384	0.351
5.87491	0.192
5.91599	0.063
5.95706	0.313
5.99813	0.663
6.03921	0.767
6.08028	0.771
6.12136	0.708
6.16243	0.435
6.2035	0.255
6.24458	0.726
6.28565	0.796
6.32672	0.815
6.3678	0.849
6.40887	0.759
6.44994	0.61
6.49102	0.836
6.53209	0.849
6.57316	0.848
6.61424	0.87
6.65531	0.882
6.69639	0.885
6.73746	0.817
6.77853	0.786
6.81961	0.856
6.86068	0.914
6.90175	0.923
6.94283	0.923
6.9839	0.923
7.02497	0.899
7.06605	0.894
7.10712	0.894
7.14819	0.887
7.18927	0.8
7.23034	0.854
7.27142	0.89
7.31249	0.901
7.35356	0.843
7.39464	0.674
7.43571	0.187
7.47678	0.242
7.51786	0.481
7.55893	0.61
7.6	0.725
7.64108	0.747
7.68215	0.723
7.72322	0.682
7.7643	0.532
7.80537	0.786
7.84644	0.815
7.88752	0.686
7.92859	0.827
7.96967	0.86
8.01074	0.865
8.05181	0.865
8.09289	0.865
8.13396	0.822
8.17503	0.621
8.21611	0.822
8.25718	0.837
8.29825	0.841
8.33933	0.841
8.3804	0.836
8.42147	0.769
8.46255	0.737
8.50362	0.619
8.5447	0.546
8.58577	0.716
8.62684	0.694
8.66792	0.595
8.70899	0.805
8.75006	0.839
8.79114	0.848
8.83221	0.849
8.87328	0.851
8.91436	0.858
8.95543	0.865
8.9965	0.868
9.03758	0.868
9.07865	0.868
9.11973	0.868
9.1608	0.868
9.20187	0.868
9.24295	0.87
9.28402	0.868
9.32509	0.868
9.36617	0.868
9.40724	0.87
9.44831	0.872
9.48939	0.872
9.53046	0.872
9.57153	0.866
9.61261	0.846
9.65368	0.815
9.69475	0.667
9.73583	0.5
9.7769	0.616
9.81798	0.754
9.85905	0.808
9.90012	0.839
9.9412	0.851
9.98227	0.86
10.0233	0.866
10.0644	0.868
10.1055	0.868
10.1466	0.87
10.1876	0.87
10.2287	0.872
10.2698	0.872
10.3109	0.873
10.3519	0.873
10.393	0.875
10.4341	0.877
10.4752	0.878
10.5162	0.877
10.5573	0.877
10.5984	0.873
10.6394	0.872
10.6805	0.856
10.7216	0.793
10.7627	0.735
10.8037	0.836
10.8448	0.863
10.8859	0.87
10.927	0.873
10.968	0.875
11.0091	0.875
11.0502	0.873
11.0913	0.865
11.1323	0.825
11.1734	0.75
11.2145	0.732
11.2555	0.658
11.2966	0.752
11.3377	0.8
11.3788	0.834
11.4198	0.853
11.4609	0.865
11.502	0.868
11.5431	0.872
11.5841	0.87
11.6252	0.872
11.6663	0.87
11.7074	0.866
11.7484	0.858
11.7895	0.851
11.8306	0.839
11.8717	0.82
11.9127	0.798
11.9538	0.762
11.9949	0.711
12.0359	0.663
12.077	0.629
12.1181	0.687
12.1592	0.726
12.2002	0.73
12.2413	0.732
12.2824	0.733
12.3235	0.737
12.3645	0.744
12.4056	0.747
12.4467	0.749
12.4878	0.767
12.5288	0.796
12.5699	0.807
12.611	0.813
12.6521	0.822
12.6931	0.827
12.7342	0.829
12.7753	0.829
12.8163	0.831
12.8574	0.831
12.8985	0.829
12.9396	0.803
12.9806	0.769
13.0217	0.686
13.0628	0.552
13.1039	0.37
13.1449	0.329
13.186	0.416
13.2271	0.558
13.2682	0.66
13.3092	0.723
13.3503	0.754
13.3914	0.769
13.4324	0.773
13.4735	0.776
13.5146	0.776
13.5557	0.786
13.5967	0.837
13.6378	0.868
13.6789	0.877
13.72	0.88
13.761	0.88
13.8021	0.88
13.8432	0.88
13.8843	0.88
13.9253	0.88
13.9664	0.88
14.0075	0.897
14.0486	0.904
14.0896	0.912
14.1307	0.914
14.1718	0.914
14.2128	0.916
14.2539	0.912
14.295	0.89
14.3361	0.853
14.3771	0.786
14.4182	0.691
14.4593	0.588
14.5004	0.505
14.5414	0.474
14.5825	0.484
14.6236	0.556
14.6647	0.614
14.7057	0.708
14.7468	0.762
14.7879	0.81
14.8289	0.849
14.87	0.87
14.9111	0.877
14.9522	0.878
14.9932	0.873
15.0343	0.875
15.0754	0.875
15.1165	0.875
15.1575	0.878
15.1986	0.877
15.2397	0.877
15.2808	0.877
15.3218	0.877
15.3629	0.877
15.404	0.87
15.4451	0.861
15.4861	0.858
15.5272	0.851
15.5683	0.844
15.6093	0.829
15.6504	0.819
15.6915	0.807
15.7326	0.791
15.7736	0.778
15.8147	0.761
15.8558	0.747
15.8969	0.74
15.9379	0.728
15.979	0.721
