Infrared Spectrum: 2,4,6-Triisopropylbenzoyl chloride
Formula: C 16 H 23 Cl O
CAS: 57199-00-5
State: gas
Origin: EPA-IR VAPOR PHASE LIBRARY
1/CM	ABSORBANCE
549.8	0.001744
559.445	0.002474
569.09	0.002964
578.735	0.003264
588.38	0.004994
598.025	0.010374
607.67	0.028534
617.315	0.038584
626.96	0.017314
636.605	0.007394
646.251	0.006514
655.896	0.012014
665.541	0.006684
675.186	0.003424
684.831	0.003024
694.476	0.005104
704.121	0.007354
713.766	0.005424
723.411	0.005734
733.056	0.007424
742.701	0.010474
752.346	0.017534
761.991	0.030434
771.636	0.015644
781.281	0.005644
790.926	0.012124
800.571	0.041694
810.216	0.057044
819.861	0.024444
829.507	0.010244
839.152	0.012894
848.797	0.036704
858.442	0.049164
868.087	0.032094
877.732	0.036584
887.377	0.019344
897.022	0.008614
906.667	0.005724
916.312	0.005534
925.957	0.009884
935.602	0.019654
945.247	0.018464
954.892	0.007214
964.537	0.003004
974.182	0.001954
983.827	0.001524
993.472	0.0013529
1003.12	0.0010472
1012.76	0.0009299
1022.41	0.0008959
1032.05	0.0010251
1041.7	0.001744
1051.34	0.005364
1060.99	0.007494
1070.63	0.006454
1080.28	0.005744
1089.92	0.008564
1099.57	0.011344
1109.21	0.008254
1118.86	0.005854
1128.5	0.005264
1138.15	0.005224
1147.79	0.006554
1157.44	0.008094
1167.08	0.013684
1176.73	0.011324
1186.37	0.007434
1196.02	0.016654
1205.66	0.020994
1215.31	0.008544
1224.95	0.005074
1234.6	0.005934
1244.24	0.007264
1253.89	0.005804
1263.53	0.006604
1273.18	0.005924
1282.82	0.004454
1292.47	0.003974
1302.11	0.005114
1311.76	0.006604
1321.4	0.005834
1331.05	0.004594
1340.69	0.004034
1350.34	0.005064
1359.98	0.010444
1369.63	0.021734
1379.27	0.009984
1388.92	0.014824
1398.56	0.008644
1408.21	0.007474
1417.85	0.011044
1427.5	0.014374
1437.14	0.010444
1446.79	0.010424
1456.43	0.016074
1466.08	0.025104
1475.73	0.016064
1485.37	0.006074
1495.02	0.003944
1504.66	0.003254
1514.31	0.002894
1523.95	0.002874
1533.6	0.003374
1543.24	0.004364
1552.89	0.005264
1562.53	0.008524
1572.18	0.011334
1581.82	0.008184
1591.47	0.014324
1601.11	0.027704
1610.76	0.013624
1620.4	0.004364
1630.05	0.002644
1639.69	0.002114
1649.34	0.001914
1658.98	0.002054
1668.63	0.001924
1678.27	0.001694
1687.92	0.001784
1697.56	0.001974
1707.21	0.002174
1716.85	0.002494
1726.5	0.002894
1736.14	0.004294
1745.79	0.006974
1755.43	0.010544
1765.08	0.010994
1774.72	0.011354
1784.37	0.024474
1794.01	0.101024
1803.66	0.134874
1813.3	0.033994
1822.95	0.010384
1832.59	0.008274
1842.24	0.008104
1851.88	0.005464
1861.53	0.002914
1871.17	0.001934
1880.82	0.001584
1890.46	0.0012197
1900.11	0.0009834
1909.75	0.0009463
1919.4	0.0008824
1929.04	0.0009287
1938.69	0.0010591
1948.33	0.0009625
1957.98	0.0008025
1967.62	0.0006988
1977.27	0.0006787
1986.91	0.0006313
1996.56	0.00050455
2006.2	0.00052283
2015.85	0.0005962
2025.49	0.00047723
2035.14	0.00046162
2044.78	0.0003662
2054.43	0.00046047
2064.07	0.000425637
2073.72	0.0003456
2083.36	0.000236
2093.01	0.000228
2102.65	0.000243
2112.3	0.000218
2121.94	0.000233
2131.59	0.000291
2141.23	0.000201
2150.88	0.00029
2160.52	0.0003383
2170.17	0.000352
2179.81	0.0003577
2189.46	0.0004012
2199.1	0.00043477
2208.75	0.00049592
2218.39	0.0005278
2228.04	0.0005752
2237.68	0.0006278
2247.33	0.000633
2256.97	0.000545
2266.62	0.00051959
2276.26	0.00046978
2285.91	0.00045815
2295.55	0.00044866
2305.2	0.00048608
2314.84	0.0005493
2324.49	0.0003721
2334.13	0.0004988
2343.78	0.0005425
2353.42	0.0006025
2363.07	0.00049846
2372.72	0.0005904
2382.36	0.0006069
2392.01	0.000598
2401.65	0.0005762
2411.3	0.0005451
2420.94	0.00045345
2430.59	0.00047414
2440.23	0.000517
2449.88	0.0004006
2459.52	0.0006212
2469.17	0.0006647
2478.81	0.0006202
2488.46	0.0006294
2498.1	0.00051187
2507.75	0.00044798
2517.39	0.00043614
2527.04	0.00049387
2536.68	0.0006225
2546.33	0.0006106
2555.97	0.0006923
2565.62	0.0007647
2575.26	0.0008878
2584.91	0.0010064
2594.55	0.0009465
2604.2	0.0009162
2613.84	0.0009302
2623.49	0.0009576
2633.13	0.0008604
2642.78	0.000877
2652.42	0.0009786
2662.07	0.0009663
2671.71	0.0009054
2681.36	0.0007945
2691	0.0008021
2700.65	0.0009546
2710.29	0.0011515
2719.94	0.001634
2729.58	0.002214
2739.23	0.002154
2748.87	0.001804
2758.52	0.001954
2768.16	0.002304
2777.81	0.002284
2787.45	0.002274
2797.1	0.002684
2806.74	0.003044
2816.39	0.003514
2826.03	0.003934
2835.68	0.004584
2845.32	0.005874
2854.97	0.009004
2864.61	0.014804
2874.26	0.030834
2883.9	0.041624
2893.55	0.031834
2903.19	0.032134
2912.84	0.035304
2922.48	0.037794
2932.13	0.052394
2941.77	0.061524
2951.42	0.048414
2961.06	0.092564
2970.71	0.195134
2980.35	0.097474
2990	0.031264
2999.64	0.016194
3009.29	0.010784
3018.93	0.008044
3028.58	0.006364
3038.22	0.005734
3047.87	0.006214
3057.51	0.007044
3067.16	0.006404
3076.8	0.004994
3086.45	0.003674
3096.09	0.003214
3105.74	0.002934
3115.38	0.002364
3125.03	0.002134
3134.67	0.001764
3144.32	0.001774
3153.96	0.001724
3163.61	0.001864
3173.25	0.001964
3182.9	0.001784
3192.54	0.001894
3202.19	0.001804
3211.83	0.001644
3221.48	0.001514
3231.12	0.0011121
3240.77	0.0008723
3250.41	0.0006045
3260.06	0.000431524
3269.7	0.00049062
3279.35	0.00051236
3289	0.000232
3298.64	0.0003957
3308.29	0.0003667
3317.93	0.0003428
3327.58	0.0005264
3337.22	0.0003479
3346.87	0.0003424
3356.51	0.0003641
3366.16	0.000311
3375.8	0.000135
3385.45	0.000301
3395.09	0.0004135
3404.74	0.000289
3414.38	0.00045996
3424.03	0.00028
3433.67	0.000217
3443.32	0.000239
3452.96	0.0003843
3462.61	0.0004124
3472.25	0.000288
3481.9	0.000303
3491.54	0.000282
3501.19	0.000308
3510.83	0.00038
3520.48	0.0003986
3530.12	0.00049973
3539.77	0.00048302
3549.41	0.0005331
3559.06	0.000825
3568.7	0.001484
3578.35	0.001854
3587.99	0.0011521
3597.64	0.0007054
3607.28	0.0006042
3616.93	0.0003761
3626.57	0.000247
3636.22	0.00041691
3645.86	0.000317
3655.51	0.000181
3665.15	0.0003314
3674.8	0.00017
3684.44	0.00027
3694.09	0.000236
3703.73	0.0003572
3713.38	0.000262
3723.02	0.000183
3732.67	0.00013
3742.31	0.00021
3751.96	0.000242
3761.6	0.000276
3771.25	0.000117
3780.89	0.000286
3790.54	0.000267
3800.18	0.0003699
3809.83	0.0003971
3819.47	0.00045314
3829.12	0.0005962
3838.76	0.0005534
3848.41	0.00045932
3858.05	0.0003451
3867.7	0.0006344
3877.34	0.0003477
3886.99	0.0005516
3896.63	0.0003709
3906.28	0.00045029
3915.92	0.000442
3925.57	0.0003419
3935.21	0.0003576
3944.86	0.000289
3954.5	0.0003252
3964.15	0.0003581
3973.79	0.000277
3983.44	0.00045979
3993.08	0.00049374
