Infrared Spectrum: BENZONITRILE, 2,3-DIMETHYL-
Formula: C9 H9 N
CAS: 5724-56-1
State: SOLUTION (10% CCl4 FOR 3800-1330, 10% CS2 FOR 1330-400 CM^-^1)
Class: COBLENTZ III
Instrument: DOW KBr FOREPRISM-GRATING
Instrument parameters: BLAZED AT 3.5, 12.0, 20.0 MICRON AND CHANGED AT 5.0, 7.5, 14.9 MICRON
Sampling: TRANSMISSION
Path length: 0.011 CM, 0.011 CM
Resolution: 2
Origin: DOW CHEMICAL COMPANY
1/CM	TRANSMITTANCE
3798	0.8721
3789	0.8732
3780	0.8728
3771	0.8734
3762	0.8739
3753	0.8741
3744	0.8744
3735	0.8757
3726	0.8758
3717	0.8758
3708	0.8768
3699	0.8732
3690	0.8656
3681	0.8659
3672	0.8676
3663	0.8689
3654	0.8702
3645	0.8706
3636	0.8708
3627	0.8714
3618	0.8704
3609	0.8689
3600	0.8666
3591	0.8587
3582	0.8501
3573	0.8536
3564	0.8523
3555	0.8527
3546	0.8524
3537	0.8518
3528	0.8506
3519	0.8501
3510	0.8492
3501	0.8482
3492	0.847
3483	0.8455
3474	0.8395
3465	0.8269
3456	0.8218
3447	0.8279
3438	0.8323
3429	0.8346
3420	0.8368
3411	0.8389
3402	0.8401
3393	0.841
3384	0.8422
3375	0.8433
3366	0.8439
3357	0.8443
3348	0.8449
3339	0.8453
3330	0.8459
3321	0.8463
3312	0.848
3303	0.8461
3294	0.8425
3285	0.8392
3276	0.8396
3267	0.8404
3258	0.8401
3249	0.8397
3240	0.8393
3231	0.839
3222	0.8389
3213	0.8386
3204	0.8352
3195	0.8316
3186	0.8244
3177	0.815
3168	0.8094
3159	0.8053
3150	0.8
3141	0.7937
3132	0.7931
3123	0.791
3114	0.7859
3105	0.7783
3096	0.7664
3087	0.6867
3078	0.6593
3069	0.665
3060	0.6902
3051	0.6977
3042	0.7033
3033	0.6972
3024	0.6701
3015	0.6629
3006	0.6715
2997	0.6026
2988	0.5563
2979	0.5768
2970	0.5805
2961	0.501
2952	0.4698
2943	0.5213
2934	0.5176
2925	0.4912
2916	0.6032
2907	0.6675
2898	0.6816
2889	0.6821
2880	0.6815
2871	0.658
2862	0.6754
2853	0.6994
2844	0.741
2835	0.7647
2826	0.7757
2817	0.7805
2808	0.7873
2799	0.7938
2790	0.7994
2781	0.8034
2772	0.8053
2763	0.8056
2754	0.8056
2745	0.7853
2736	0.8
2727	0.8133
2718	0.8203
2709	0.8244
2700	0.8275
2691	0.8285
2682	0.8247
2673	0.8217
2664	0.8243
2655	0.8275
2646	0.8251
2637	0.8221
2628	0.8234
2619	0.8264
2610	0.8314
2601	0.8356
2592	0.8367
2583	0.8341
2574	0.8341
2565	0.8375
2556	0.8404
2547	0.8428
2538	0.8449
2529	0.8468
2520	0.8479
2511	0.8488
2502	0.8495
2493	0.8501
2484	0.8504
2475	0.8516
2466	0.8513
2457	0.8497
2448	0.8539
2439	0.8572
2430	0.8573
2421	0.8569
2412	0.8576
2403	0.8599
2394	0.8628
2385	0.8679
2376	0.874
2367	0.8739
2358	0.8754
2349	0.8708
2340	0.8634
2331	0.866
2322	0.8709
2313	0.8636
2304	0.8471
2295	0.8548
2286	0.8601
2277	0.8596
2268	0.8523
2259	0.8165
2250	0.7497
2241	0.2612
2232	0.4066
2223	0.8239
2214	0.8584
2205	0.8731
2196	0.878
2187	0.871
2178	0.8772
2169	0.8837
2160	0.8866
2151	0.8889
2142	0.891
2133	0.8919
2124	0.8929
2115	0.8937
2106	0.8944
2097	0.8934
2088	0.8951
2079	0.8954
2070	0.8957
2061	0.8954
2052	0.8922
2043	0.8842
2034	0.8896
2025	0.8922
2016	0.8926
2007	0.8869
1998	0.8864
1989	0.9062
1980	0.908
1971	0.9085
1962	0.9253
1953	0.8996
1944	0.8558
1935	0.8598
1926	0.8958
1917	0.909
1908	0.9111
1899	0.9123
1890	0.9034
1881	0.8655
1872	0.8816
1863	0.9064
1854	0.91
1845	0.9116
1836	0.9115
1827	0.9027
1818	0.8704
1809	0.8819
1800	0.902
1791	0.9113
1782	0.914
1773	0.9116
1764	0.909
1755	0.9066
1746	0.9068
1737	0.9095
1728	0.9112
1719	0.9097
1710	0.8967
1701	0.8782
1692	0.8461
1683	0.8748
1674	0.9005
1665	0.9123
1656	0.912
1647	0.9075
1638	0.9013
1629	0.8907
1620	0.8624
1611	0.8231
1602	0.6634
1593	0.6217
1584	0.7387
1575	0.7677
1566	0.7021
1557	0.7104
1548	0.7846
1539	0.8466
1530	0.829
1521	0.8251
1512	0.8162
1503	0.8029
1494	0.7696
1485	0.6241
1476	0.1887
1467	0.279
1458	0.3758
1449	0.5752
1440	0.6816
1431	0.7007
1422	0.8058
1413	0.8249
1404	0.8136
1395	0.5045
1386	0.7048
1377	0.7926
1368	0.8584
1359	0.8835
1350	0.8891
1341	0.8871
1332	0.8894
1323	0.8939
1314	0.8938
1305	0.8785
1296	0.6219
1287	0.7833
1278	0.8633
1269	0.8836
1260	0.8894
1251	0.8907
1242	0.7373
1233	0.8082
1224	0.868
1215	0.8746
1206	0.893
1197	0.8433
1188	0.8804
1179	0.8813
1170	0.8283
1161	0.861
1152	0.8853
1143	0.8951
1134	0.9146
1125	0.918
1116	0.9176
1107	0.9108
1098	0.8211
1089	0.7456
1080	0.8492
1071	0.853
1062	0.6855
1053	0.8186
1044	0.8424
1035	0.8425
1026	0.7759
1017	0.6704
1008	0.8199
999	0.7433
990	0.7682
981	0.79
972	0.827
963	0.8627
954	0.889
945	0.9025
936	0.9074
927	0.9077
918	0.8967
909	0.8156
900	0.8704
891	0.8818
882	0.8623
873	0.8489
864	0.86
855	0.8828
846	0.9238
837	0.9044
828	0.8989
819	0.8612
810	0.8512
801	0.7915
792	0.4925
783	0.1189
774	0.8011
765	0.8733
756	0.9091
747	0.926
738	0.9292
729	0.9221
720	0.8903
711	0.0621
702	0.8535
693	0.9405
684	0.9581
675	0.9773
666	0.9268
657	0.8376
648	0.8701
639	0.9046
630	0.9054
621	0.9196
612	0.9273
603	0.9277
594	0.9289
585	0.9083
576	0.8515
567	0.8808
558	0.9183
549	0.9187
540	0.9165
531	0.9114
522	0.8488
513	0.9179
504	0.9283
495	0.9358
486	0.9422
477	0.946
468	0.9413
459	0.9401
450	0.9195
441	0.9152
432	0.8919
423	0.8396
414	0.6285
405	0.3451
396	0.207
387	0.1683
