Infrared Spectrum: 2-Chloro-6-methylbenzylamine
Formula: C 8 H 10 Cl N
CAS: 57264-46-7
State: gas
Origin: EPA-IR VAPOR PHASE LIBRARY
1/CM	ABSORBANCE
549.8	0.004119
559.445	0.004339
569.09	0.003649
578.734	0.003929
588.379	0.004349
598.024	0.003499
607.669	0.005519
617.313	0.009019
626.958	0.011559
636.603	0.008039
646.248	0.006119
655.893	0.004479
665.537	0.005479
675.182	0.005389
684.827	0.006439
694.472	0.007409
704.116	0.009479
713.761	0.013359
723.406	0.019149
733.051	0.023229
742.695	0.018749
752.34	0.021079
761.985	0.035329
771.63	0.058509
781.275	0.037449
790.919	0.020629
800.564	0.018379
810.209	0.021809
819.854	0.025239
829.498	0.025449
839.143	0.026719
848.788	0.023769
858.433	0.017109
868.078	0.011509
877.722	0.009189
887.367	0.008439
897.012	0.010439
906.657	0.009749
916.301	0.007669
925.946	0.005399
935.591	0.005419
945.236	0.005299
954.88	0.004959
964.525	0.005049
974.17	0.005389
983.815	0.005889
993.46	0.006469
1003.1	0.006899
1012.75	0.008429
1022.39	0.008509
1032.04	0.007469
1041.68	0.006169
1051.33	0.006769
1060.97	0.004949
1070.62	0.004969
1080.26	0.007389
1089.91	0.010209
1099.55	0.011259
1109.2	0.012979
1118.84	0.013539
1128.49	0.013329
1138.13	0.008769
1147.78	0.008309
1157.42	0.007349
1167.07	0.008989
1176.71	0.010129
1186.36	0.006879
1196	0.004409
1205.64	0.004079
1215.29	0.003639
1224.93	0.003989
1234.58	0.003979
1244.22	0.003759
1253.87	0.003339
1263.51	0.004059
1273.16	0.004179
1282.8	0.003539
1292.45	0.003449
1302.09	0.003149
1311.74	0.003019
1321.38	0.003289
1331.03	0.003979
1340.67	0.004559
1350.32	0.005249
1359.96	0.005569
1369.61	0.006369
1379.25	0.007359
1388.9	0.007179
1398.54	0.005889
1408.18	0.004889
1417.83	0.005919
1427.47	0.009059
1437.12	0.015319
1446.76	0.025079
1456.41	0.027029
1466.05	0.019669
1475.7	0.013439
1485.34	0.010529
1494.99	0.007329
1504.63	0.005349
1514.28	0.004799
1523.92	0.004729
1533.57	0.005709
1543.21	0.007209
1552.86	0.009589
1562.5	0.013579
1572.15	0.015569
1581.79	0.013949
1591.44	0.011759
1601.08	0.009239
1610.73	0.008429
1620.37	0.009339
1630.01	0.008899
1639.66	0.006439
1649.3	0.004709
1658.95	0.004189
1668.59	0.002929
1678.24	0.002219
1687.88	0.002059
1697.53	0.001739
1707.17	0.001939
1716.82	0.001879
1726.46	0.002049
1736.11	0.002009
1745.75	0.001929
1755.4	0.001809
1765.04	0.002279
1774.69	0.002779
1784.33	0.002299
1793.98	0.001919
1803.62	0.001729
1813.27	0.001629
1822.91	0.001499
1832.55	0.001989
1842.2	0.002249
1851.84	0.002369
1861.49	0.001729
1871.13	0.001379
1880.78	0.0010067
1890.42	0.0013078
1900.07	0.0013341
1909.71	0.002059
1919.36	0.002719
1929	0.002329
1938.65	0.0013357
1948.29	0.000962
1957.94	0.0009694
1967.58	0.0012096
1977.23	0.0009655
1986.87	0.0009393
1996.52	0.0007142
2006.16	0.0009522
2015.81	0.0011229
2025.45	0.0005239
2035.1	0.0007617
2044.74	0.0007907
2054.38	0.0009201
2064.03	0.0007758
2073.67	0.00072
2083.32	0.0006248
2092.96	0.0008838
2102.61	0.0008589
2112.25	0.000549
2121.9	0.0006618
2131.54	0.000613
2141.19	0.0006446
2150.83	0.000669
2160.48	0.0008808
2170.12	0.0008898
2179.77	0.0006154
2189.41	0.0006169
2199.06	0.0008253
2208.7	0.000749
2218.35	0.0009451
2227.99	0.0007773
2237.64	0.0009624
2247.28	0.0008118
2256.92	0.0008203
2266.57	0.000737
2276.21	0.000706
2285.86	0.000526
2295.5	0.0007453
2305.15	0.0005419
2314.79	0.0007216
2324.44	0.0006651
2334.08	0.0008416
2343.73	0.0006761
2353.37	0.0006615
2363.02	0.0005287
2372.66	0.0008743
2382.31	0.0006275
2391.95	0.0007793
2401.6	0.0007258
2411.24	0.0008875
2420.89	0.0010406
2430.53	0.0011385
2440.18	0.0006383
2449.82	0.00043183
2459.47	0.0005662
2469.11	0.0005687
2478.75	0.0005453
2488.4	0.0009693
2498.04	0.0006829
2507.69	0.0004937
2517.33	0.0009151
2526.98	0.0006379
2536.62	0.0013144
2546.27	0.0005757
2555.91	0.0008885
2565.56	0.0007801
2575.2	0.0009289
2584.85	0.0009038
2594.49	0.0006482
2604.14	0.0008328
2613.78	0.0008211
2623.43	0.000717
2633.07	0.0009195
2642.72	0.0009262
2652.36	0.001489
2662.01	0.000733
2671.65	0.001389
2681.29	0.0010038
2690.94	0.0009267
2700.58	0.0010147
2710.23	0.0012173
2719.87	0.0011592
2729.52	0.0013404
2739.16	0.001529
2748.81	0.001839
2758.45	0.001709
2768.1	0.001479
2777.74	0.0011455
2787.39	0.001399
2797.03	0.001479
2806.68	0.001599
2816.32	0.001579
2825.97	0.002469
2835.61	0.003019
2845.26	0.003589
2854.9	0.005419
2864.55	0.007129
2874.19	0.010369
2883.84	0.011239
2893.48	0.012319
2903.12	0.012949
2912.77	0.012509
2922.41	0.013259
2932.06	0.016769
2941.7	0.017249
2951.35	0.016919
2960.99	0.018069
2970.64	0.018919
2980.28	0.016279
2989.93	0.011809
2999.57	0.008259
3009.22	0.007579
3018.86	0.008469
3028.51	0.007179
3038.15	0.006279
3047.8	0.007179
3057.44	0.011689
3067.09	0.016039
3076.73	0.013049
3086.38	0.006109
3096.02	0.003139
3105.67	0.001879
3115.31	0.001459
3124.95	0.001839
3134.6	0.001699
3144.24	0.001549
3153.89	0.0011221
3163.53	0.0008515
3173.18	0.0007799
3182.82	0.0011975
3192.47	0.001399
3202.11	0.0011306
3211.76	0.0013397
3221.4	0.0008961
3231.05	0.0011451
3240.69	0.0004844
3250.34	0.0011925
3259.98	0.0008192
3269.63	0.0007301
3279.27	0.0004494
3288.92	0.0008067
3298.56	0.0008151
3308.21	0.0010825
3317.85	0.0008571
3327.49	0.001248
3337.14	0.0013475
3346.78	0.001349
3356.43	0.001469
3366.07	0.0008162
3375.72	0.0010806
3385.36	0.0008821
3395.01	0.0013117
3404.65	0.001409
3414.3	0.0010968
3423.94	0.001649
3433.59	0.0009572
3443.23	0.0011508
3452.88	0.0012505
3462.52	0.000965
3472.17	0.0013145
3481.81	0.0008408
3491.46	0.001589
3501.1	0.0009004
3510.75	0.0005665
3520.39	0.0010929
3530.04	0.0008464
3539.68	0.001569
3549.32	0.001348
3558.97	0.0010263
3568.61	0.0007176
3578.26	0.0004808
3587.9	0.0002668
3597.55	0.0007516
3607.19	0.001399
3616.84	0.0013171
3626.48	0.0007726
3636.13	8.8e-05
3645.77	0.0004556
3655.42	0.0009693
3665.06	0.0010749
3674.71	0.0006301
3684.35	0.001539
3694	0.0010386
3703.64	0.0005787
3713.29	0.0005558
3722.93	0.00038187
3732.58	0.0006284
3742.22	0.001349
3751.86	0.0008245
3761.51	0.0010281
3771.15	0.0013425
3780.8	0.0008869
3790.44	0.0010377
3800.09	0.0010216
3809.73	0.001192
3819.38	0.0002935
3829.02	0.0009384
3838.67	0.0012564
3848.31	0.0012746
3857.96	0.001469
3867.6	0.0010971
3877.25	0.000927
3886.89	0.0010821
3896.54	0.0009074
3906.18	0.0009198
3915.83	0.0009834
3925.47	0.0007171
3935.12	0.0006209
3944.76	0.000931
3954.41	0.001379
3964.05	0.0008778
3973.69	0.0007795
3983.34	0.0013192
3992.98	0.0013396
