Infrared Spectrum: N-t-Butoxycarbonylpiperazine
Formula: C 9 H 18 N 2 O 2
CAS: 57260-71-6
State: gas
Origin: EPA-IR VAPOR PHASE LIBRARY
1/CM	ABSORBANCE
549.8	0.018279
559.445	0.017909
569.09	0.007149
578.735	0.004579
588.38	0.003619
598.025	0.003149
607.67	0.003109
617.315	0.003749
626.96	0.004289
636.605	0.006389
646.251	0.007339
655.896	0.005229
665.541	0.004619
675.186	0.004519
684.831	0.005559
694.476	0.006929
704.121	0.008969
713.766	0.012059
723.411	0.016319
733.056	0.022079
742.701	0.032029
752.346	0.040289
761.991	0.032809
771.636	0.024369
781.281	0.016039
790.926	0.010529
800.571	0.008419
810.216	0.008279
819.861	0.010719
829.507	0.010849
839.152	0.009969
848.797	0.011979
858.442	0.013639
868.087	0.012069
877.732	0.016989
887.377	0.017319
897.022	0.007579
906.667	0.004989
916.312	0.007109
925.957	0.006829
935.602	0.003999
945.247	0.002959
954.892	0.003069
964.537	0.003279
974.182	0.003979
983.827	0.005919
993.472	0.008899
1003.12	0.011129
1012.76	0.013399
1022.41	0.013149
1032.05	0.013369
1041.7	0.021679
1051.34	0.027179
1060.99	0.022659
1070.63	0.027719
1080.28	0.037689
1089.92	0.030459
1099.57	0.026489
1109.21	0.039169
1118.86	0.072039
1128.5	0.089739
1138.15	0.078779
1147.79	0.082249
1157.44	0.099959
1167.08	0.150799
1176.73	0.195039
1186.37	0.147469
1196.02	0.072789
1205.66	0.047779
1215.31	0.048889
1224.95	0.076369
1234.6	0.152699
1244.24	0.168179
1253.89	0.092609
1263.53	0.063489
1273.18	0.066359
1282.82	0.070409
1292.47	0.039499
1302.11	0.022099
1311.76	0.023889
1321.4	0.025099
1331.05	0.021619
1340.69	0.021979
1350.34	0.025649
1359.98	0.044459
1369.63	0.071619
1379.27	0.068439
1388.92	0.095089
1398.56	0.148299
1408.21	0.146059
1417.85	0.094699
1427.5	0.054019
1437.14	0.042199
1446.79	0.039359
1456.43	0.039929
1466.08	0.037419
1475.73	0.033959
1485.37	0.028589
1495.02	0.019959
1504.66	0.012439
1514.31	0.008589
1523.95	0.007389
1533.6	0.007079
1543.24	0.006749
1552.89	0.006249
1562.53	0.005499
1572.18	0.004739
1581.82	0.004369
1591.47	0.004399
1601.11	0.004649
1610.76	0.004899
1620.4	0.005249
1630.05	0.006009
1639.69	0.007289
1649.34	0.008159
1658.98	0.009149
1668.63	0.012179
1678.27	0.016359
1687.92	0.024869
1697.56	0.056389
1707.21	0.166329
1716.85	0.293999
1726.5	0.183269
1736.14	0.046959
1745.79	0.016519
1755.43	0.009309
1765.08	0.006579
1774.72	0.005279
1784.37	0.004739
1794.01	0.004129
1803.66	0.003449
1813.3	0.003129
1822.95	0.002949
1832.59	0.002889
1842.24	0.002769
1851.88	0.002349
1861.53	0.002009
1871.17	0.001829
1880.82	0.001779
1890.46	0.001899
1900.11	0.001909
1909.75	0.001829
1919.4	0.001799
1929.04	0.002009
1938.69	0.002059
1948.33	0.001869
1957.98	0.001649
1967.62	0.001619
1977.27	0.0015518
1986.91	0.0016053
1996.56	0.0015141
2006.2	0.001465
2015.85	0.0014942
2025.49	0.0014674
2035.14	0.001456
2044.78	0.001605
2054.43	0.001739
2064.07	0.001619
2073.72	0.00132
2083.36	0.001169
2093.01	0.0012032
2102.65	0.0012458
2112.3	0.001228
2121.94	0.001205
2131.59	0.0011724
2141.23	0.001086
2150.88	0.0010578
2160.52	0.0010326
2170.17	0.0009362
2179.81	0.0009707
2189.46	0.0009087
2199.1	0.0010002
2208.75	0.0011229
2218.39	0.0011956
2228.04	0.001223
2237.68	0.0010726
2247.33	0.0010051
2256.97	0.00099
2266.62	0.0011728
2276.26	0.0014435
2285.91	0.001909
2295.55	0.002519
2305.2	0.003369
2314.84	0.004379
2324.49	0.005019
2334.13	0.004529
2343.78	0.004259
2353.42	0.004779
2363.07	0.006149
2372.72	0.005099
2382.36	0.002429
2392.01	0.0010708
2401.65	0.0009094
2411.3	0.0007295
2420.94	0.00066016
2430.59	0.0007125
2440.23	0.0007992
2449.88	0.0009019
2459.52	0.0009055
2469.17	0.0008837
2478.81	0.0008692
2488.46	0.0009254
2498.1	0.0008687
2507.75	0.0009121
2517.39	0.0009415
2527.04	0.0010825
2536.68	0.00122
2546.33	0.0010904
2555.97	0.0009534
2565.62	0.0009201
2575.26	0.0009822
2584.91	0.0009839
2594.55	0.0010788
2604.2	0.0013174
2613.84	0.0015304
2623.49	0.001979
2633.13	0.002289
2642.78	0.002189
2652.42	0.002209
2662.07	0.002539
2671.71	0.002849
2681.36	0.003199
2691	0.003209
2700.65	0.002929
2710.29	0.003189
2719.94	0.004269
2729.58	0.006329
2739.23	0.008339
2748.87	0.007499
2758.52	0.005669
2768.16	0.005669
2777.81	0.006929
2787.45	0.009589
2797.1	0.014589
2806.74	0.019189
2816.39	0.026119
2826.03	0.035649
2835.68	0.033699
2845.32	0.032049
2854.97	0.033609
2864.61	0.036309
2874.26	0.035049
2883.9	0.032179
2893.55	0.033959
2903.19	0.038549
2912.84	0.045259
2922.48	0.053109
2932.13	0.054349
2941.77	0.063419
2951.42	0.090089
2961.06	0.070369
2970.71	0.052729
2980.35	0.071699
2990	0.052499
2999.64	0.024309
3009.29	0.023059
3018.93	0.015299
3028.58	0.006059
3038.22	0.003029
3047.87	0.002049
3057.51	0.001869
3067.16	0.001597
3076.8	0.0014411
3086.45	0.0014338
3096.09	0.0015109
3105.74	0.001739
3115.38	0.001779
3125.03	0.0015822
3134.67	0.0012361
3144.32	0.0010531
3153.96	0.0008798
3163.61	0.0009673
3173.25	0.0008882
3182.9	0.0008977
3192.54	0.0008103
3202.19	0.0009612
3211.83	0.0008427
3221.48	0.00065708
3231.12	0.0007252
3240.77	0.000511
3250.41	0.0005561
3260.06	0.000169
3269.7	0.000223
3279.35	6.9e-05
3289	0.000222
3298.64	0.000257
3308.29	0.000246
3317.93	0.000354
3327.58	0.000388
3337.22	0.000347
3346.87	0.000296
3356.51	0.000385
3366.16	0.0005652
3375.8	0.000581
3385.45	0.0006047
3395.09	0.0008454
3404.74	0.001137
3414.38	0.0016058
3424.03	0.0014616
3433.67	0.0008489
3443.32	0.000409
3452.96	0.000502
3462.61	0.00014
3472.25	0.000185
3481.9	0.000198
3491.54	0.000115
3501.19	0.000195
3510.83	0.000106
3520.48	0.000189
3530.12	0.000236
3539.77	0.000159
3549.41	0.000133
3559.06	0.000309
3568.7	0.000308
3578.35	0.000178
3587.99	0.000254
3597.64	0.000277
3607.28	9.1e-05
3616.93	0.000182
3626.57	0.000382
3636.22	0.000185
3645.86	0.000108
3655.51	0.000237
3665.15	0.000274
3674.8	0.000181
3684.44	0.000323
3694.09	0.000227
3703.73	0.000474
3713.38	0.000276
3723.02	0.000253
3732.67	0.000249
3742.31	0.000405
3751.96	0.000294
3761.6	0.000307
3771.25	0.000115
3780.89	0.000285
3790.54	0.000226
3800.18	0.000201
3809.83	0.000318
3819.47	0.000381
3829.12	0.000352
3838.76	0.000283
3848.41	0.000327
3858.05	0.000416
3867.7	0.000355
3877.34	0.000381
3886.99	0.000482
3896.63	0.0005374
3906.28	0.000444
3915.92	0.000598
3925.57	0.0005657
3935.21	0.0005437
3944.86	0.0005217
3954.5	0.0005343
3964.15	0.0005755
3973.79	0.0005856
3983.44	0.0005817
3993.08	0.000467
