Infrared Spectrum: N-(3,4-Dichlorophenyl)piperazine
Formula: C 10 H 12 Cl 2 N 2
CAS: 57260-67-0
State: gas
Origin: EPA-IR VAPOR PHASE LIBRARY
1/CM	ABSORBANCE
549.9	0.01618
559.547	0.01618
569.193	0.01778
578.84	0.01585
588.486	0.01684
598.133	0.01798
607.779	0.01318
617.426	0.01228
627.072	0.01142
636.719	0.013
646.365	0.01734
656.012	0.03256
665.658	0.05164
675.305	0.0403
684.951	0.04397
694.598	0.02937
704.245	0.02446
713.891	0.02657
723.538	0.03243
733.184	0.04267
742.831	0.05964
752.477	0.08534
762.124	0.08244
771.77	0.0476
781.417	0.03349
791.063	0.04786
800.71	0.07226
810.356	0.04884
820.003	0.02397
829.649	0.02021
839.296	0.02895
848.943	0.03351
858.589	0.02424
868.236	0.01937
877.882	0.02311
887.529	0.0208
897.175	0.01369
906.822	0.01268
916.468	0.01482
926.115	0.02098
935.761	0.03591
945.408	0.0911
955.054	0.11693
964.701	0.03671
974.347	0.01564
983.994	0.01086
993.64	0.00992
1003.29	0.01395
1012.93	0.03038
1022.58	0.0384
1032.23	0.02667
1041.87	0.02663
1051.52	0.03325
1061.17	0.02546
1070.81	0.01484
1080.46	0.01238
1090.11	0.01486
1099.75	0.02487
1109.4	0.04003
1119.05	0.0615
1128.69	0.11373
1138.34	0.14427
1147.99	0.09667
1157.63	0.06816
1167.28	0.04153
1176.92	0.02868
1186.57	0.02653
1196.22	0.03214
1205.86	0.05127
1215.51	0.10555
1225.16	0.1985
1234.8	0.1763
1244.45	0.10268
1254.1	0.07689
1263.74	0.05912
1273.39	0.03715
1283.04	0.03588
1292.68	0.02656
1302.33	0.02156
1311.98	0.02723
1321.62	0.04355
1331.27	0.06049
1340.92	0.0582
1350.56	0.03988
1360.21	0.03784
1369.86	0.05968
1379.5	0.0736
1389.15	0.04438
1398.79	0.03015
1408.44	0.02313
1418.09	0.02334
1427.73	0.03521
1437.38	0.06569
1447.03	0.11142
1456.67	0.16357
1466.32	0.16017
1475.97	0.30481
1485.61	0.30033
1495.26	0.10374
1504.91	0.04238
1514.55	0.0298
1524.2	0.02957
1533.85	0.03153
1543.49	0.04118
1553.14	0.0532
1562.79	0.04818
1572.43	0.05609
1582.08	0.10208
1591.73	0.17787
1601.37	0.13538
1611.02	0.04999
1620.67	0.02681
1630.31	0.01866
1639.96	0.01353
1649.6	0.00995
1659.25	0.00759
1668.9	0.00667
1678.54	0.00624
1688.19	0.00617
1697.84	0.00609
1707.48	0.00582
1717.13	0.00563
1726.78	0.00554
1736.42	0.00526
1746.07	0.00465
1755.72	0.0040327
1765.36	0.0036501
1775.01	0.0037377
1784.66	0.0038651
1794.3	0.0038337
1803.95	0.0039097
1813.6	0.00436
1823.24	0.00469
1832.89	0.0040217
1842.54	0.0043
1852.18	0.00507
1861.83	0.00552
1871.47	0.00506
1881.12	0.00431
1890.77	0.0040229
1900.41	0.0039438
1910.06	0.003865
1919.71	0.0035616
1929.35	0.00323496
1939	0.003065
1948.65	0.003035
1958.29	0.003059
1967.94	0.003157
1977.59	0.003079
1987.23	0.00324542
1996.88	0.0035696
2006.53	0.0035255
2016.17	0.0034284
2025.82	0.0035111
2035.47	0.00325166
2045.11	0.002822
2054.76	0.00268
2064.41	0.002697
2074.05	0.002654
2083.7	0.002526
2093.35	0.002372
2102.99	0.002319
2112.64	0.002226
2122.28	0.002242
2131.93	0.002377
2141.58	0.002502
2151.22	0.002455
2160.87	0.002616
2170.52	0.002569
2180.16	0.002386
2189.81	0.002298
2199.46	0.002224
2209.1	0.00218
2218.75	0.00214
2228.4	0.00216
2238.04	0.002269
2247.69	0.002513
2257.34	0.0027
2266.98	0.002929
2276.63	0.003098
2286.28	0.003128
2295.92	0.002856
2305.57	0.002599
2315.22	0.002574
2324.86	0.002607
2334.51	0.002455
2344.16	0.002369
2353.8	0.002473
2363.45	0.002698
2373.09	0.002746
2382.74	0.002617
2392.39	0.002546
2402.03	0.002461
2411.68	0.002362
2421.33	0.002345
2430.97	0.002587
2440.62	0.002798
2450.27	0.0031975
2459.91	0.0036412
2469.56	0.0038854
2479.21	0.0036405
2488.85	0.0034147
2498.5	0.0034382
2508.15	0.003463
2517.79	0.0034549
2527.44	0.0037895
2537.09	0.0040937
2546.73	0.0041794
2556.38	0.0041561
2566.03	0.0041789
2575.67	0.0041719
2585.32	0.0041139
2594.96	0.0041938
2604.61	0.00445
2614.26	0.00456
2623.9	0.00481
2633.55	0.00543
2643.2	0.00634
2652.84	0.00745
2662.49	0.009
2672.14	0.011
2681.78	0.01182
2691.43	0.01146
2701.08	0.0115
2710.72	0.01139
2720.37	0.01207
2730.02	0.01491
2739.66	0.01947
2749.31	0.023
2758.96	0.02214
2768.6	0.02167
2778.25	0.02727
2787.9	0.03928
2797.54	0.05944
2807.19	0.08634
2816.84	0.09271
2826.48	0.10533
2836.13	0.12403
2845.77	0.09655
2855.42	0.06334
2865.07	0.04868
2874.71	0.04174
2884.36	0.04163
2894.01	0.04428
2903.65	0.04717
2913.3	0.05437
2922.95	0.06394
2932.59	0.06204
2942.24	0.08107
2951.89	0.16239
2961.53	0.1212
2971.18	0.05715
2980.83	0.03796
2990.47	0.02462
3000.12	0.01322
3009.77	0.00716
3019.41	0.00495
3029.06	0.00447
3038.71	0.00493
3048.35	0.00551
3058	0.00495
3067.64	0.00592
3077.29	0.00932
3086.94	0.01017
3096.58	0.00782
3106.23	0.00532
3115.88	0.002633
3125.52	0.00153
3135.17	0.00099
3144.82	0.00064
3154.46	0.00051
3164.11	0.00043
3173.76	0.00062
3183.4	0.00059
3193.05	0.0005
3202.7	0.00049
3212.34	0.00043
3221.99	0.00043
3231.64	0.00029
3241.28	0.00021
3250.93	0.00027
3260.58	0.00011
3270.22	0.00024
3279.87	0.0002
3289.52	0.00029
3299.16	0.00027
3308.81	0.00029
3318.45	0.00038
3328.1	0.001
3337.75	0.00086
3347.39	0.00062
3357.04	0.00063
3366.69	0.00082
3376.33	0.00078
3385.98	0.00076
3395.63	0.00047
3405.27	0.00078
3414.92	0.0007
3424.57	0.00107
3434.21	0.00101
3443.86	0.00077
3453.51	0.00075
3463.15	0.00086
3472.8	0.0009
3482.45	0.00086
3492.09	0.00088
3501.74	0.00099
3511.39	0.00088
3521.03	0.0011
3530.68	0.00099
3540.33	0.00095
3549.97	0.0009
3559.62	0.00092
3569.26	0.00102
3578.91	0.00103
3588.56	0.00106
3598.2	0.00117
3607.85	0.00115
3617.5	0.00115
3627.14	0.0014
3636.79	0.0013
3646.44	0.00136
3656.08	0.00141
3665.73	0.00132
3675.38	0.0014
3685.02	0.0014
3694.67	0.00137
3704.32	0.00145
3713.96	0.00148
3723.61	0.00156
3733.26	0.00163
3742.9	0.00154
3752.55	0.00167
3762.2	0.00187
3771.84	0.0018
3781.49	0.00173
3791.13	0.00171
3800.78	0.00173
3810.43	0.00169
3820.07	0.00165
3829.72	0.00164
3839.37	0.00172
3849.01	0.00174
3858.66	0.0018
3868.31	0.00171
3877.95	0.00166
3887.6	0.00187
3897.25	0.00178
3906.89	0.00167
3916.54	0.00179
3926.19	0.00179
3935.83	0.00204
3945.48	0.00199
3955.13	0.00202
3964.77	0.00216
3974.42	0.002214
3984.07	0.002232
3993.71	0.002212
