Infrared Spectrum: Benzylamine, N-(o-nitrophenyl)-
Formula: C13 H12 N2 O2
CAS: 5729-06-6
State: SOLID (SPLIT MULL), FLUOROLUBE FOR 3800-1330 CM^-^1, NUJOL FOR 1330-460 CM^-^1
Class: COBLENTZ III
Instrument: DOW KBr FOREPRISM-GRATING
Instrument parameters: BLAZED AT 3.5, 12.0, 20.0 MICRON AND CHANGED AT 5.0, 7.5, 14.9 MICRON
Sampling: TRANSMISSION
Resolution: 2
Origin: DOW CHEMICAL COMPANY
1/CM	TRANSMITTANCE
453	0.7798
462	0.7788
471	0.7627
480	0.702
489	0.7798
498	0.7839
507	0.7761
516	0.7519
525	0.6469
534	0.7723
543	0.7569
552	0.7576
561	0.7368
570	0.6486
579	0.588
588	0.6462
597	0.758
606	0.7941
615	0.7782
624	0.8047
633	0.7694
642	0.779
651	0.8147
660	0.7741
669	0.7927
678	0.8134
687	0.7881
696	0.4349
705	0.7683
714	0.7357
723	0.6935
732	0.5957
741	0.279
750	0.7192
759	0.7992
768	0.8018
777	0.8021
786	0.8138
795	0.8145
804	0.8146
813	0.8143
822	0.8078
831	0.7956
840	0.7911
849	0.7747
858	0.7266
867	0.8057
876	0.811
885	0.8052
894	0.7996
903	0.7945
912	0.7976
921	0.7909
930	0.7895
939	0.7783
948	0.7755
957	0.7695
966	0.7121
975	0.7583
984	0.7636
993	0.773
1002	0.7676
1011	0.7443
1020	0.6942
1029	0.6665
1038	0.4591
1047	0.6085
1056	0.7189
1065	0.7358
1074	0.6599
1083	0.7081
1092	0.6817
1101	0.7234
1110	0.6673
1119	0.6616
1128	0.6284
1137	0.5671
1146	0.3779
1155	0.4693
1164	0.6563
1173	0.6894
1182	0.7066
1191	0.6112
1200	0.6519
1209	0.5597
1218	0.363
1227	0.3472
1236	0.2007
1245	0.4591
1254	0.5743
1263	0.3412
1272	0.3285
1281	0.4809
1290	0.5943
1299	0.5907
1308	0.4644
1317	0.5725
1326	0.3402
1335	0.5445
1344	0.3992
1353	0.6396
1362	0.595
1371	0.7348
1380	0.7325
1389	0.7207
1398	0.6796
1407	0.5461
1416	0.4001
1425	0.7024
1434	0.6089
1443	0.7143
1452	0.5838
1461	0.7613
1470	0.7332
1479	0.7002
1488	0.5788
1497	0.4549
1506	0.1611
1515	0.2733
1524	0.7577
1533	0.8312
1542	0.8207
1551	0.7693
1560	0.6842
1569	0.3506
1578	0.7012
1587	0.7816
1596	0.6756
1605	0.5707
1614	0.2348
1623	0.7115
1632	0.8543
1641	0.8729
1650	0.876
1659	0.8797
1668	0.8739
1677	0.8638
1686	0.8606
1695	0.8636
1704	0.8584
1713	0.8512
1722	0.8455
1731	0.8392
1740	0.8348
1749	0.834
1758	0.8361
1767	0.8351
1776	0.8268
1785	0.8264
1794	0.8277
1803	0.8222
1812	0.8186
1821	0.82
1830	0.8214
1839	0.8246
1848	0.8227
1857	0.8177
1866	0.8123
1875	0.8072
1884	0.8059
1893	0.8027
1902	0.8096
1911	0.8044
1920	0.8078
1929	0.8048
1938	0.7987
1947	0.8004
1956	0.7979
1965	0.8025
1974	0.7993
1983	0.7995
1992	0.7973
2001	0.7921
2010	0.7913
2019	0.7898
2028	0.7877
2037	0.785
2046	0.7814
2055	0.778
2064	0.775
2073	0.7724
2082	0.7697
2091	0.7667
2100	0.7637
2109	0.7607
2118	0.7576
2127	0.7545
2136	0.7513
2145	0.7481
2154	0.745
2163	0.7418
2172	0.738
2181	0.7342
2190	0.7297
2199	0.7245
2208	0.7195
2217	0.7147
2226	0.7104
2235	0.7064
2244	0.7025
2253	0.6985
2262	0.6945
2271	0.6901
2280	0.6857
2289	0.682
2298	0.681
2307	0.682
2316	0.6824
2325	0.6828
2334	0.6828
2343	0.6825
2352	0.6814
2361	0.6803
2370	0.6792
2379	0.6782
2388	0.6774
2397	0.677
2406	0.6763
2415	0.675
2424	0.674
2433	0.673
2442	0.6713
2451	0.669
2460	0.6667
2469	0.6641
2478	0.6619
2487	0.6598
2496	0.658
2505	0.6561
2514	0.6541
2523	0.652
2532	0.65
2541	0.6478
2550	0.6456
2559	0.6436
2568	0.642
2577	0.6401
2586	0.6381
2595	0.6367
2604	0.6363
2613	0.6372
2622	0.6381
2631	0.64
2640	0.6388
2649	0.6345
2658	0.6326
2667	0.6339
2676	0.6349
2685	0.6352
2694	0.6344
2703	0.6335
2712	0.6325
2721	0.6308
2730	0.6289
2739	0.6269
2748	0.6244
2757	0.6219
2766	0.6193
2775	0.6165
2784	0.6137
2793	0.6113
2802	0.609
2811	0.6063
2820	0.6028
2829	0.5992
2838	0.5942
2847	0.5903
2856	0.5903
2865	0.5921
2874	0.5941
2883	0.5911
2892	0.5842
2901	0.5754
2910	0.5661
2919	0.5635
2928	0.5712
2937	0.5818
2946	0.5884
2955	0.5941
2964	0.5989
2973	0.5996
2982	0.5987
2991	0.5945
3000	0.5888
3009	0.5807
3018	0.5716
3027	0.5798
3036	0.5776
3045	0.5701
3054	0.5751
3063	0.583
3072	0.5801
3081	0.585
3090	0.5884
3099	0.5891
3108	0.5893
3117	0.5888
3126	0.5881
3135	0.587
3144	0.5857
3153	0.584
3162	0.5822
3171	0.5806
3180	0.5794
3189	0.5781
3198	0.576
3207	0.5731
3216	0.5702
3225	0.5676
3234	0.5652
3243	0.5627
3252	0.5601
3261	0.5573
3270	0.5545
3279	0.5514
3288	0.5484
3297	0.5453
3306	0.5413
3315	0.5371
3324	0.531
3333	0.5238
3342	0.5149
3351	0.5044
3360	0.4848
3369	0.4489
3378	0.3798
3387	0.2488
3396	0.4228
3405	0.5812
3414	0.5801
3423	0.5746
3432	0.5691
3441	0.5654
3450	0.562
3459	0.5597
3468	0.5574
3477	0.5551
3486	0.553
3495	0.5508
3504	0.5489
3513	0.5469
3522	0.5449
3531	0.5431
3540	0.5414
3549	0.5396
3558	0.538
3567	0.5366
3576	0.5353
3585	0.5339
3594	0.5323
3603	0.5305
3612	0.5289
3621	0.5272
3630	0.5257
3639	0.5241
3648	0.5227
3657	0.5211
3666	0.5198
3675	0.5186
3684	0.5175
3693	0.5163
3702	0.5151
3711	0.5139
3720	0.5126
3729	0.5113
3738	0.51
3747	0.5086
3756	0.5072
3765	0.5057
3774	0.5042
3783	0.5026
3792	0.5011
