Infrared Spectrum: 1,2-Dimethylnaphthalene
Formula: C 12 H 12
CAS: 573-98-8
State: gas
Instrument: HP-GC/MS/IRD
Origin: NIST Mass Spectrometry Data Center
1/CM	ABSORBANCE
550	0.0002366
562	0.0004368
574	0.0002938
586	8.84e-05
598	8.84e-05
610	0.0002678
622	0.0005356
634	0.001183
646	0.0007488
658	0.0002262
670	0.0004186
682	0.000689
694	0.0003484
706	0.000884
718	0.0044954
730	0.012324
742	0.0085046
754	0.0045448
766	0.0079898
778	0.0063388
790	0.0115414
802	0.026
814	0.0110292
826	0.0019708
838	0.001352
850	0.002613
862	0.002418
874	0.0009958
886	0.0006942
898	0.0006812
910	0.0005096
922	0.0006812
934	0.0008554
946	0.0013026
958	0.0011804
970	0.001365
982	0.001989
994	0.0019916
1006	0.0017238
1018	0.0029224
1030	0.0025194
1042	0.0007826
1054	0.0007384
1066	0.0011102
1078	0.0011544
1090	0.0007254
1102	0.0004654
1114	0.0002938
1126	0.0004238
1138	0.0011154
1150	0.001131
1162	0.0007254
1174	0.0014716
1186	0.0012376
1198	0.0005928
1210	0.0006786
1222	0.0007228
1234	0.0007956
1246	0.0005564
1258	0.0008398
1270	0.0007774
1282	0.0004394
1294	0.000442
1306	0.0004758
1318	0.0006708
1330	0.001001
1342	0.0013052
1354	0.0019188
1366	0.0034216
1378	0.0068926
1390	0.0069576
1402	0.0031772
1414	0.0019994
1426	0.0022698
1438	0.0028288
1450	0.0031018
1462	0.0030966
1474	0.0030706
1486	0.0027196
1498	0.0043576
1510	0.0071864
1522	0.0043862
1534	0.002691
1546	0.0021242
1558	0.0018304
1570	0.0023244
1582	0.0029328
1594	0.0038922
1606	0.0032084
1618	0.0023556
1630	0.0022958
1642	0.00117
1654	0.0009698
1666	0.0010608
1678	0.0013052
1690	0.0010816
1702	0.000702
1714	0.0007254
1726	0.0008736
1738	0.0016666
1750	0.0011336
1762	0.0005434
1774	0.0005616
1786	0.000689
1798	0.0009334
1810	0.0010322
1822	0.0010504
1834	0.0005564
1846	0.000247
1858	0.0002106
1870	0.0004368
1882	0.0010634
1894	0.0015132
1906	0.0013234
1918	0.0010166
1930	0.0011986
1942	0.0010504
1954	0.0002652
1966	0.0001014
1978	9.1e-05
1990	5.72e-05
2002	4.42e-05
2014	5.72e-05
2026	6.5e-05
2038	8.32e-05
2050	0.0001066
2062	0.0001248
2074	0.000104
2086	0.0001092
2098	9.62e-05
2110	8.32e-05
2122	4.42e-05
2134	5.98e-05
2146	8.06e-05
2158	2.34e-05
2170	3.12e-05
2182	1.56e-05
2194	5.2e-05
2206	5.46e-05
2218	4.42e-05
2230	6.24e-05
2242	9.88e-05
2254	8.84e-05
2266	7.02e-05
2278	9.36e-05
2290	0.000182
2302	0.000169
2314	0.0002106
2326	0.0002366
2338	0.0002288
2350	0.000221
2362	0.000182
2374	0.0001404
2386	0.0001222
2398	0.0001664
2410	0.0001768
2422	0.0001716
2434	0.0002314
2446	0.0002522
2458	0.0002444
2470	0.0002054
2482	0.0002132
2494	0.0002236
2506	0.0002262
2518	0.0002106
2530	0.0001924
2542	0.000169
2554	0.0001716
2566	0.0001456
2578	0.0001326
2590	0.0001716
2602	0.000208
2614	0.0002236
2626	0.0001924
2638	0.0001404
2650	0.0001326
2662	0.0001612
2674	0.0001716
2686	0.0002236
2698	0.0002782
2710	0.0003692
2722	0.0004628
2734	0.0007358
2746	0.0009178
2758	0.0007852
2770	0.0006136
2782	0.0006266
2794	0.0006812
2806	0.0008892
2818	0.001092
2830	0.0015106
2842	0.0022308
2854	0.0037778
2866	0.0067782
2878	0.0094562
2890	0.0090246
2902	0.0085826
2914	0.01001
2926	0.014612
2938	0.017394
2950	0.0137332
2962	0.0104572
2974	0.009113
2986	0.0081068
2998	0.0077662
3010	0.00923
3022	0.0101088
3034	0.0121394
3046	0.019578
3058	0.0246662
3070	0.0205972
3082	0.0147654
3094	0.007813
3106	0.0036816
3118	0.0019682
3130	0.0011466
3142	0.0008242
3154	0.0006708
3166	0.0005564
3178	0.0005096
3190	0.0004264
3202	0.0003978
3214	0.0003874
3226	0.0003484
3238	0.0002652
3250	0.0001898
3262	0.0002366
3274	0.0001716
3286	0.0001534
3298	0.0001222
3310	0.0001222
3322	0.000156
3334	0.0001456
3346	0.0001404
3358	0.0001248
3370	0.0001274
3382	0.0001404
3394	0.0001144
3406	0.0001586
3418	0.0001248
3430	0.0001274
3442	0.000156
3454	0.0001534
3466	0.0001482
3478	0.0001248
3490	0.000104
3502	0.0001014
3514	0.0001456
3526	8.32e-05
3538	0.0001118
3550	0.0001118
3562	8.58e-05
3574	0.000117
3586	0.0001638
3598	0.00013
3610	6.24e-05
3622	0.0001118
3634	8.58e-05
3646	0.000117
3658	0.0001144
3670	6.5e-05
3682	0.00013
3694	0.0001508
3706	0.000169
3718	0.0001586
3730	0.0002444
3742	0.0002314
3754	0.0002288
3766	0.0002366
3778	0.0001898
3790	0.0002366
3802	0.0002678
3814	0.0002184
3826	0.0001872
3838	0.000182
