Infrared Spectrum: 2,3,4-Trimethoxybenzoic acid
Formula: C 10 H 12 O 5
CAS: 573-11-5
State: gas
Origin: EPA-IR VAPOR PHASE LIBRARY
1/CM	ABSORBANCE
549.8	0.002857
559.445	0.003747
569.09	0.004487
578.735	0.004797
588.38	0.004787
598.025	0.004467
607.67	0.003637
617.315	0.003417
626.96	0.003597
636.605	0.003247
646.251	0.003177
655.896	0.003317
665.541	0.004047
675.186	0.004977
684.831	0.005247
694.476	0.004427
704.121	0.003757
713.766	0.003477
723.411	0.003687
733.056	0.003987
742.701	0.005027
752.346	0.005237
761.991	0.003317
771.636	0.002147
781.281	0.002187
790.926	0.003447
800.571	0.003497
810.216	0.002397
819.861	0.002437
829.507	0.002287
839.152	0.001607
848.797	0.0012585
858.442	0.0011355
868.087	0.001717
877.732	0.003177
887.377	0.003047
897.022	0.001807
906.667	0.001457
916.312	0.001807
925.957	0.002677
935.602	0.002457
945.247	0.001937
954.892	0.001657
964.537	0.001807
974.182	0.002147
983.827	0.003037
993.472	0.005547
1003.12	0.011007
1012.76	0.017737
1022.41	0.023667
1032.05	0.020147
1041.7	0.010447
1051.34	0.007507
1060.99	0.009987
1070.63	0.014777
1080.28	0.019347
1089.92	0.024627
1099.57	0.028137
1109.21	0.030637
1118.86	0.031107
1128.5	0.020897
1138.15	0.010557
1147.79	0.007237
1157.44	0.008327
1167.08	0.011797
1176.73	0.012797
1186.37	0.013087
1196.02	0.015977
1205.66	0.017127
1215.31	0.015127
1224.95	0.015147
1234.6	0.016797
1244.24	0.016127
1253.89	0.014277
1263.53	0.014327
1273.18	0.018427
1282.82	0.030147
1292.47	0.035747
1302.11	0.024487
1311.76	0.015637
1321.4	0.014447
1331.05	0.015747
1340.69	0.016737
1350.34	0.017237
1359.98	0.018067
1369.63	0.018197
1379.27	0.015727
1388.92	0.013017
1398.56	0.015157
1408.21	0.024937
1417.85	0.025197
1427.5	0.013177
1437.14	0.010007
1446.79	0.010317
1456.43	0.014947
1466.08	0.020347
1475.73	0.015547
1485.37	0.015467
1495.02	0.016337
1504.66	0.007517
1514.31	0.003947
1523.95	0.003117
1533.6	0.002747
1543.24	0.002777
1552.89	0.003217
1562.53	0.004697
1572.18	0.007477
1581.82	0.013827
1591.47	0.022147
1601.11	0.016847
1610.76	0.007607
1620.4	0.004157
1630.05	0.002647
1639.69	0.001987
1649.34	0.001647
1658.98	0.001507
1668.63	0.001617
1678.27	0.001597
1687.92	0.001837
1697.56	0.002327
1707.21	0.003157
1716.85	0.004577
1726.5	0.006817
1736.14	0.013307
1745.79	0.022287
1755.43	0.028117
1765.08	0.039107
1774.72	0.041107
1784.37	0.018427
1794.01	0.006607
1803.66	0.003547
1813.3	0.002357
1822.95	0.001897
1832.59	0.001617
1842.24	0.0012686
1851.88	0.0010361
1861.53	0.000941
1871.17	0.0009248
1880.82	0.0009669
1890.46	0.0011389
1900.11	0.0011605
1909.75	0.0010899
1919.4	0.0009335
1929.04	0.0008841
1938.69	0.000848
1948.33	0.0008774
1957.98	0.0009326
1967.62	0.0008535
1977.27	0.0008291
1986.91	0.0007715
1996.56	0.0007955
2006.2	0.0008343
2015.85	0.0008225
2025.49	0.0007329
2035.14	0.0007352
2044.78	0.0007724
2054.43	0.0007138
2064.07	0.0006583
2073.72	0.0005772
2083.36	0.0006055
2093.01	0.0006958
2102.65	0.0007049
2112.3	0.0006994
2121.94	0.0006563
2131.59	0.0006592
2141.23	0.0006255
2150.88	0.00055
2160.52	0.0005639
2170.17	0.0005831
2179.81	0.00051618
2189.46	0.00053513
2199.1	0.0005735
2208.75	0.000576
2218.39	0.0006439
2228.04	0.0005616
2237.68	0.00044395
2247.33	0.0003946
2256.97	0.0004107
2266.62	0.0003879
2276.26	0.0003873
2285.91	0.0003945
2295.55	0.0003889
2305.2	0.000342
2314.84	0.000346
2324.49	0.0003703
2334.13	0.00051936
2343.78	0.00044124
2353.42	0.000456894
2363.07	0.000446024
2372.72	0.00051067
2382.36	0.00051952
2392.01	0.00046795
2401.65	0.00047865
2411.3	0.00051558
2420.94	0.0005012
2430.59	0.0004276
2440.23	0.0004262
2449.88	0.00052255
2459.52	0.0005822
2469.17	0.0005453
2478.81	0.00050391
2488.46	0.00051158
2498.1	0.0005513
2507.75	0.0005693
2517.39	0.0005568
2527.04	0.000582
2536.68	0.0005423
2546.33	0.0006132
2555.97	0.000627
2565.62	0.0006845
2575.26	0.0007973
2584.91	0.0006227
2594.55	0.00053473
2604.2	0.00054523
2613.84	0.000574
2623.49	0.00053495
2633.13	0.00048861
2642.78	0.0004311
2652.42	0.0004999
2662.07	0.00043915
2671.71	0.00039
2681.36	0.0004018
2691	0.00045722
2700.65	0.00052507
2710.29	0.00048114
2719.94	0.00049672
2729.58	0.000455888
2739.23	0.00046885
2748.87	0.00051782
2758.52	0.00053894
2768.16	0.0006313
2777.81	0.0007551
2787.45	0.0006829
2797.1	0.000849
2806.74	0.0012334
2816.39	0.001887
2826.03	0.002977
2835.68	0.005117
2845.32	0.006517
2854.97	0.005587
2864.61	0.004127
2874.26	0.004047
2883.9	0.004257
2893.55	0.004457
2903.19	0.004897
2912.84	0.005457
2922.48	0.006067
2932.13	0.008107
2941.77	0.013467
2951.42	0.015977
2961.06	0.010967
2970.71	0.008207
2980.35	0.006847
2990	0.006487
2999.64	0.007397
3009.29	0.008007
3018.93	0.005617
3028.58	0.003377
3038.22	0.002627
3047.87	0.002167
3057.51	0.002017
3067.16	0.001877
3076.8	0.001857
3086.45	0.002037
3096.09	0.001797
3105.74	0.0013634
3115.38	0.000931
3125.03	0.0008524
3134.67	0.0008485
3144.32	0.0007624
3153.96	0.00050447
3163.61	0.000554
3173.25	0.00045786
3182.9	0.0004137
3192.54	0.0005753
3202.19	0.0004209
3211.83	0.0004083
3221.48	0.0003873
3231.12	0.0003985
3240.77	0.000331
3250.41	0.000332
3260.06	0.0004053
3269.7	0.000342
3279.35	0.0003883
3289	0.0005598
3298.64	0.000676
3308.29	0.0010636
3317.93	0.001248
3327.58	0.0012905
3337.22	0.002007
3346.87	0.002787
3356.51	0.004017
3366.16	0.005197
3375.8	0.005787
3385.45	0.005907
3395.09	0.005497
3404.74	0.004577
3414.38	0.003887
3424.03	0.003287
3433.67	0.002587
3443.32	0.002157
3452.96	0.001887
3462.61	0.001517
3472.25	0.0011873
3481.9	0.0009838
3491.54	0.0009037
3501.19	0.000842
3510.83	0.0007339
3520.48	0.0007687
3530.12	0.0006998
3539.77	0.0007137
3549.41	0.0008058
3559.06	0.002987
3568.7	0.007407
3578.35	0.006427
3587.99	0.002847
3597.64	0.0006913
3607.28	0.000257
3616.93	0.0004855
3626.57	0.000279
3636.22	0.00025
3645.86	0.000289
3655.51	0.000343
3665.15	0.000229
3674.8	0.000104
3684.44	0.000176
3694.09	0.000157
3703.73	0.000115
3713.38	0.000129
3723.02	0.00017
3732.67	0.000133
3742.31	0.000268
3751.96	0.000132
3761.6	0.000203
3771.25	0.00031
3780.89	0.0003759
3790.54	4.5e-05
3800.18	0.000103
3809.83	0.0003693
3819.47	0.000313
3829.12	0.000279
3838.76	0.000171
3848.41	0.000326
3858.05	0.000221
3867.7	0.000265
3877.34	0.00028
3886.99	0.00027
3896.63	0.000277
3906.28	0.000248
3915.92	0.000342
3925.57	0.000299
3935.21	5.3e-05
3944.86	0.000346
3954.5	0.000323
3964.15	0.000336
3973.79	0.000301
3983.44	0.00028
3993.08	0.0003985
