Infrared Spectrum: 9-Bromophenanthrene
Formula: C 14 H 9 Br
CAS: 573-17-1
State: gas
Instrument: HP-GC/MS/IRD
Origin: NIST Mass Spectrometry Data Center
1/CM	ABSORBANCE
550	0.0003464
562	0.000164
574	0.0002704
586	0.000772
598	0.000616
610	0.0005704
622	0.000836
634	0.0003992
646	0.0002592
658	0.0003216
670	0.000396
682	0.0004288
694	0.0005376
706	0.0010224
718	0.0038096
730	0.0032632
742	0.008
754	0.0067064
766	0.0014664
778	0.0006048
790	0.0004584
802	0.0005144
814	0.000656
826	0.0005712
838	0.00092
850	0.0020096
862	0.0010608
874	0.0018408
886	0.0016672
898	0.0008912
910	0.0031776
922	0.0025896
934	0.0009096
946	0.0008768
958	0.0006944
970	0.000572
982	0.000556
994	0.0006984
1006	0.000636
1018	0.000556
1030	0.0005632
1042	0.0008184
1054	0.0005032
1066	0.0003656
1078	0.0002808
1090	0.0003608
1102	0.0003256
1114	0.0003296
1126	0.0002376
1138	0.0004688
1150	0.0008392
1162	0.0004096
1174	0.0002152
1186	0.0004992
1198	0.0004248
1210	0.0004616
1222	3.2e-05
1234	0.0001032
1246	0.0001888
1258	0.0003024
1270	0.0010232
1282	0.0009136
1294	0.0004832
1306	0.0001856
1318	0.0001968
1330	0.000244
1342	0.0003032
1354	0.000476
1366	0.00148
1378	0.001212
1390	0.0005984
1402	0.0005032
1414	0.000608
1426	0.0008176
1438	0.0010592
1450	0.0020352
1462	0.0007336
1474	0.0006608
1486	0.001592
1498	0.001432
1510	0.0005088
1522	0.0005552
1534	0.00046
1546	0.0003992
1558	0.0006856
1570	0.001244
1582	0.001224
1594	0.0014024
1606	0.0008688
1618	0.0008448
1630	0.0003832
1642	0.0003048
1654	0.0002336
1666	0.0002984
1678	0.000344
1690	0.0004856
1702	0.0003872
1714	0.000268
1726	0.0003264
1738	0.0002384
1750	0.0003496
1762	0.0003648
1774	0.0001808
1786	0.0002848
1798	0.0002456
1810	0.0003496
1822	0.0003064
1834	0.0002944
1846	0.0001696
1858	0.0001352
1870	0.0001536
1882	0.0002544
1894	0.0002744
1906	0.0002768
1918	0.000408
1930	0.0002752
1942	0.0005336
1954	0.000316
1966	9.52e-05
1978	0.0001112
1990	9.36e-05
2002	7.36e-05
2014	6.72e-05
2026	8.72e-05
2038	5.52e-05
2050	6.64e-05
2062	6.48e-05
2074	4.56e-05
2086	8.4e-05
2098	8.4e-05
2110	5.2e-05
2122	2.72e-05
2134	3.04e-05
2146	3.76e-05
2158	3.52e-05
2170	6.08e-05
2182	4.96e-05
2194	2.96e-05
2206	3.36e-05
2218	1.44e-05
2230	4.16e-05
2242	6.08e-05
2254	3.68e-05
2266	3.52e-05
2278	3.2e-05
2290	4.64e-05
2302	7.84e-05
2314	5.36e-05
2326	6.88e-05
2338	5.84e-05
2350	6e-05
2362	5.52e-05
2374	6.56e-05
2386	6.16e-05
2398	5.28e-05
2410	2.8e-05
2422	4.24e-05
2434	6.96e-05
2446	0.0001144
2458	5.2e-05
2470	7.28e-05
2482	8.4e-05
2494	7.36e-05
2506	6.08e-05
2518	4.4e-05
2530	5.36e-05
2542	0.0001192
2554	0.0001016
2566	0.0001312
2578	0.000124
2590	0.0001048
2602	0.0001432
2614	0.0001224
2626	9.2e-05
2638	0.0001296
2650	0.0001056
2662	5.76e-05
2674	0.0001136
2686	0.0001288
2698	0.0001584
2710	0.0001328
2722	0.0001168
2734	0.0001456
2746	0.0001824
2758	0.00014
2770	0.0001696
2782	0.000168
2794	0.00016
2806	0.0001608
2818	0.0001712
2830	0.0001864
2842	0.0001952
2854	0.0001904
2866	0.0001888
2878	0.0001752
2890	0.000132
2902	0.0001952
2914	0.0002272
2926	0.0002736
2938	0.0002952
2950	0.0002872
2962	0.0002656
2974	0.0002016
2986	0.0002768
2998	0.00034
3010	0.0004384
3022	0.0008024
3034	0.001148
3046	0.0012232
3058	0.0024064
3070	0.0032632
3082	0.0033976
3094	0.0022264
3106	0.0012016
3118	0.000556
3130	0.00032
3142	0.000244
3154	0.0002104
3166	0.0002296
3178	0.0001648
3190	0.000124
3202	0.0002016
3214	0.0001712
3226	0.0002048
3238	0.0001408
3250	0.0001056
3262	9.44e-05
3274	0.0001112
3286	0.0001936
3298	0.0002208
3310	0.0001272
3322	0.0001736
3334	0.000176
3346	0.0001112
3358	9.12e-05
3370	0.0001648
3382	0.0001704
3394	5.6e-05
3406	0.0001008
3418	7.68e-05
3430	0.0001424
3442	0.0001312
3454	9.12e-05
3466	9.52e-05
3478	6.88e-05
3490	0.0001456
3502	0.0001664
3514	5.36e-05
3526	0.0001168
3538	0.000104
3550	6.48e-05
3562	0.0001088
3574	0.0001104
3586	0.0001088
3598	0.000132
3610	6.48e-05
3622	0.0001072
3634	0.0001488
3646	0.0001512
3658	0.0001232
3670	0.0001512
3682	0.0001784
3694	0.0001504
3706	4.72e-05
3718	0.00016
3730	0.0001576
3742	6.56e-05
3754	0.0001152
3766	0.0001264
3778	0.0001896
3790	7.04e-05
3802	0.0001984
3814	0.0001896
3826	0.0001128
3838	0.0002008
