Infrared Spectrum: 1-KETO-1,2,3,4-TETRA-HYDROPHENANTHRENE
Formula: C14 H12 O
CAS: 573-22-8
State: SOLID (1.0% IN KBr PELLET)
Class: COBLENTZ
Instrument: Not specified, most likely a prism, grating, or hybrid spectrometer.
Sampling: TRANSMISSION
Path length: 0.0355 CM THICK
Resolution: 4
Origin: ANDERSON PHYSICAL LABORATORY
1/CM	TRANSMITTANCE
665	0.859
673.438	0.853
681.875	0.7581
690.313	0.6339
698.75	0.8579
707.188	0.8211
715.625	0.501
724.063	0.873
732.5	0.839
740.938	0.667
749.375	0.135
757.813	0.3118
766.25	0.8919
774.688	0.944
783.125	0.799
791.563	0.894
800	0.895
808.438	0.783
816.875	0.522
825.313	0.105
833.75	0.657
842.188	0.8301
850.625	0.7821
859.063	0.8078
867.5	0.924
875.938	0.7053
884.375	0.8328
892.813	0.808
901.25	0.641
909.688	0.924
918.125	0.916
926.563	0.888
935	0.907
943.438	0.903
951.875	0.851
960.313	0.865
968.75	0.879
977.188	0.823
985.625	0.796
994.063	0.815
1002.5	0.826
1010.94	0.675
1019.38	0.771
1027.81	0.6581
1036.25	0.7189
1044.69	0.811
1053.13	0.664
1061.56	0.788
1070	0.744
1078.44	0.746
1086.88	0.741
1095.31	0.6761
1103.75	0.5011
1112.19	0.3539
1120.63	0.714
1129.06	0.743
1137.5	0.5581
1145.94	0.6699
1154.38	0.741
1162.81	0.676
1171.25	0.638
1179.69	0.495
1188.13	0.4591
1196.56	0.4449
1205	0.714
1213.44	0.741
1221.88	0.735
1230.31	0.673
1238.75	0.619
1247.19	0.45
1255.63	0.637
1264.06	0.5249
1272.5	0.5331
1280.94	0.4126
1289.38	0.711
1297.81	0.75
1306.25	0.682
1314.69	0.483
1323.13	0.569
1331.56	0.271
1340	0.4131
1348.44	0.6492
1356.88	0.4132
1365.31	0.5629
1373.75	0.586
1382.19	0.391
1390.63	0.5189
1399.06	0.675
1407.5	0.678
1415.94	0.554
1424.38	0.498
1432.81	0.3741
1441.25	0.4475
1449.69	0.697
1458.13	0.5151
1466.56	0.413
1475	0.734
1483.44	0.779
1491.88	0.755
1500.31	0.703
1508.75	0.641
1517.19	0.678
1525.63	0.722
1534.06	0.708
1542.5	0.681
1550.94	0.666
1559.38	0.601
1567.81	0.534
1576.25	0.534
1584.69	0.546
1593.13	0.391
1601.56	0.4619
1610	0.487
1618.44	0.3681
1626.88	0.436
1635.31	0.421
1643.75	0.365
1652.19	0.225
1660.63	0.105
1669.06	0.027
1677.5	0.03
1685.94	0.2789
1694.38	0.4569
1702.81	0.706
1711.25	0.836
1719.69	0.895
1728.13	0.88
1736.56	0.867
1745	0.856
1753.44	0.847
1761.88	0.835
1770.31	0.817
1778.75	0.803
1787.19	0.803
1795.63	0.797
1804.06	0.793
1812.5	0.793
1820.94	0.773
1829.38	0.765
1837.81	0.764
1846.25	0.759
1854.69	0.756
1863.13	0.753
1871.56	0.75
1880	0.747
1888.44	0.741
1896.88	0.731
1905.31	0.72
1913.75	0.717
1922.19	0.711
1930.63	0.7
1939.06	0.696
1947.5	0.69
1955.94	0.687
1964.38	0.687
1972.81	0.684
1981.25	0.682
1989.69	0.685
1998.13	0.693
2006.56	0.691
2015	0.688
2023.44	0.685
2031.88	0.684
2040.31	0.682
2048.75	0.679
2057.19	0.6722
2065.63	0.6651
2074.06	0.663
2082.5	0.6582
2090.94	0.6566
2099.38	0.6537
2107.81	0.6483
2116.25	0.6432
2124.69	0.6395
2133.13	0.635
2141.56	0.6344
2150	0.6311
2158.44	0.6277
2166.88	0.6242
2175.31	0.6208
2183.75	0.6173
2192.19	0.6139
2200.63	0.6106
2209.06	0.6074
2217.5	0.6042
2225.94	0.6008
2234.38	0.5973
2242.81	0.5938
2251.25	0.5904
2259.69	0.5869
2268.13	0.5837
2276.56	0.5804
2285	0.5772
2293.44	0.5699
2301.88	0.5621
2310.31	0.5534
2318.75	0.5494
2327.19	0.549
2335.63	0.549
2344.06	0.55
2352.5	0.5518
2360.94	0.554
2369.38	0.555
2377.81	0.5545
2386.25	0.552
2394.69	0.548
2403.13	0.5446
2411.56	0.5411
2420	0.539
2428.44	0.5371
2436.88	0.5354
2445.31	0.5321
2453.75	0.5259
2462.19	0.5191
2470.63	0.516
2479.06	0.515
2487.5	0.5137
2495.94	0.5102
2504.38	0.5057
2512.81	0.5036
2521.25	0.5017
2529.69	0.501
2538.13	0.501
2546.56	0.4999
2555	0.4954
2563.44	0.495
2571.88	0.4929
2580.31	0.492
2588.75	0.49
2597.19	0.4865
2605.63	0.4828
2614.06	0.477
2622.5	0.4714
2630.94	0.4682
2639.38	0.466
2647.81	0.466
2656.25	0.465
2664.69	0.4622
2673.13	0.46
2681.56	0.457
2690	0.456
2698.44	0.454
2706.88	0.453
2715.31	0.4507
2723.75	0.448
2732.19	0.4447
2740.63	0.441
2749.06	0.4373
2757.5	0.43
2765.94	0.4218
2774.38	0.4131
2782.81	0.4049
2791.25	0.3942
2799.69	0.3836
2808.13	0.382
2816.56	0.3798
2825	0.3751
2833.44	0.3679
2841.88	0.3563
2850.31	0.3347
2858.75	0.333
2867.19	0.3364
2875.63	0.338
2884.06	0.3377
2892.5	0.3288
2900.94	0.3129
2909.38	0.2723
2917.81	0.25
2926.25	0.235
2934.69	0.2523
2943.13	0.3004
2951.56	0.3748
2960	0.3914
2968.44	0.3898
2976.88	0.3825
2985.31	0.3725
2993.75	0.364
3002.19	0.3599
3010.63	0.3566
3019.06	0.3558
3027.5	0.3491
3035.94	0.3429
3044.38	0.342
3052.81	0.3452
3061.25	0.3544
3069.69	0.3646
3078.13	0.3731
3086.56	0.382
3095	0.385
3103.44	0.385
3111.88	0.385
3120.31	0.383
3128.75	0.382
3137.19	0.38
3145.63	0.379
3154.06	0.377
3162.5	0.3756
3170.94	0.3726
3179.38	0.3686
3187.81	0.3671
3196.25	0.3648
3204.69	0.3616
3213.13	0.3596
3221.56	0.3581
3230	0.358
3238.44	0.356
3246.88	0.356
3255.31	0.3533
3263.75	0.3497
3272.19	0.3438
3280.63	0.3371
3289.06	0.3303
3297.5	0.3286
3305.94	0.3236
3314.38	0.3191
3322.81	0.3171
3331.25	0.317
3339.69	0.317
3348.13	0.317
3356.56	0.3153
3365	0.3119
3373.44	0.3103
3381.88	0.308
3390.31	0.306
3398.75	0.305
3407.19	0.305
3415.63	0.305
3424.06	0.303
3432.5	0.303
3440.94	0.3
3449.38	0.298
3457.81	0.297
3466.25	0.299
3474.69	0.3
3483.13	0.302
3491.56	0.302
3500	0.303
3508.44	0.3045
3516.88	0.304
3525.31	0.305
3533.75	0.306
3542.19	0.3082
3550.63	0.309
3559.06	0.309
3567.5	0.309
3575.94	0.309
3584.38	0.309
3592.81	0.309
3601.25	0.309
3609.69	0.309
3618.13	0.309
3626.56	0.309
3635	0.309
3643.44	0.3089
3651.88	0.308
3660.31	0.3067
3668.75	0.3051
3677.19	0.3048
3685.63	0.3026
3694.06	0.2994
3702.5	0.297
3710.94	0.294
3719.38	0.293
3727.81	0.293
3736.25	0.293
3744.69	0.291
3753.13	0.291
3761.56	0.291
3770	0.291
3778.44	0.29
3786.88	0.29
3795.31	0.288
3803.75	0.287
3812.19	0.2849
3820.63	0.2827
3829.06	0.282
3837.5	0.282
3845.94	0.283
3854.38	0.285
3862.81	0.285
3871.25	0.285
3879.69	0.287
3888.13	0.285
3896.56	0.284
3905	0.2823
3913.44	0.2801
3921.88	0.2768
3930.31	0.276
3938.75	0.276
3947.19	0.276
3955.63	0.274
3964.06	0.2717
3972.5	0.2686
3980.94	0.2671
