Infrared Spectrum: N-Methyl-o-acetotoluidide
Formula: C10 H13 N O
CAS: 573-26-2
State: SOLUTION (10% CCl4 FOR 3800-1330, 10% CS2 FOR 1330-400)
Class: COBLENTZ III
Instrument: DOW KBr FOREPRISM-GRATING
Instrument parameters: BLAZED AT 3.5, 12.0, 20.0 MICRON AND CHANGED AT 5.0, 7.5, 14.9 MICRON
Sampling: TRANSMISSION
Path length: 0.0109 CM, 0.0111 CM
Resolution: 2
Origin: DOW CHEMICAL COMPANY
1/CM	TRANSMITTANCE
3812	0.9218
3803	0.9271
3794	0.9303
3785	0.9306
3776	0.931
3767	0.9298
3758	0.9284
3749	0.9275
3740	0.9268
3731	0.9292
3722	0.93
3713	0.9274
3704	0.9251
3695	0.9197
3686	0.9163
3677	0.9177
3668	0.9193
3659	0.9203
3650	0.92
3641	0.9196
3632	0.9204
3623	0.9206
3614	0.9216
3605	0.9216
3596	0.9199
3587	0.9172
3578	0.9177
3569	0.9166
3560	0.9163
3551	0.9174
3542	0.9168
3533	0.9151
3524	0.9117
3515	0.9106
3506	0.91
3497	0.9092
3488	0.9094
3479	0.9095
3470	0.9108
3461	0.9123
3452	0.914
3443	0.9154
3434	0.9163
3425	0.9157
3416	0.9179
3407	0.9193
3398	0.9192
3389	0.9198
3380	0.9188
3371	0.9167
3362	0.9145
3353	0.906
3344	0.8971
3335	0.8807
3326	0.8641
3317	0.8621
3308	0.8782
3299	0.8867
3290	0.894
3281	0.8993
3272	0.9048
3263	0.9067
3254	0.9085
3245	0.9088
3236	0.9105
3227	0.9095
3218	0.9083
3209	0.9065
3200	0.9037
3191	0.9039
3182	0.8989
3173	0.8955
3164	0.8929
3155	0.8885
3146	0.8849
3137	0.8837
3128	0.8804
3119	0.8709
3110	0.8409
3101	0.8336
3092	0.8086
3083	0.6922
3074	0.659
3065	0.6758
3056	0.6811
3047	0.66
3038	0.5855
3029	0.5605
3020	0.6282
3011	0.657
3002	0.668
2993	0.6542
2984	0.6105
2975	0.5869
2966	0.5502
2957	0.5055
2948	0.4987
2939	0.4775
2930	0.4682
2921	0.5161
2912	0.6079
2903	0.6478
2894	0.6587
2885	0.6721
2876	0.7014
2867	0.7275
2858	0.7701
2849	0.8063
2840	0.8258
2831	0.8382
2822	0.8518
2813	0.8645
2804	0.8772
2795	0.8864
2786	0.8933
2777	0.9009
2768	0.9034
2759	0.9053
2750	0.906
2741	0.9052
2732	0.9011
2723	0.9037
2714	0.9068
2705	0.9104
2696	0.9138
2687	0.9152
2678	0.9166
2669	0.9179
2660	0.9191
2651	0.9155
2642	0.9133
2633	0.9169
2624	0.9201
2615	0.9223
2606	0.9227
2597	0.9217
2588	0.9179
2579	0.9133
2570	0.9154
2561	0.9221
2552	0.9254
2543	0.9281
2534	0.9288
2525	0.9291
2516	0.9295
2507	0.9296
2498	0.9297
2489	0.9298
2480	0.9316
2471	0.9317
2462	0.9318
2453	0.9312
2444	0.9316
2435	0.9314
2426	0.9308
2417	0.9298
2408	0.9297
2399	0.9292
2390	0.929
2381	0.946
2372	0.9625
2363	0.952
2354	0.954
2345	0.9522
2336	0.9422
2327	0.9379
2318	0.939
2309	0.9436
2300	0.9392
2291	0.9371
2282	0.9331
2273	0.9365
2264	0.9396
2255	0.9405
2246	0.9383
2237	0.9337
2228	0.9304
2219	0.9352
2210	0.9378
2201	0.9369
2192	0.9343
2183	0.935
2174	0.9377
2165	0.9391
2156	0.941
2147	0.9413
2138	0.9419
2129	0.9423
2120	0.9426
2111	0.9428
2102	0.9428
2093	0.9398
2084	0.9353
2075	0.9305
2066	0.9305
2057	0.9304
2048	0.9247
2039	0.9298
2030	0.9373
2021	0.9398
2012	0.9375
2003	0.93
1994	0.9201
1985	0.9253
1976	0.9256
1967	0.9244
1958	0.9107
1949	0.887
1940	0.9094
1931	0.9168
1922	0.8946
1913	0.8647
1904	0.9168
1895	0.9182
1886	0.9169
1877	0.9228
1868	0.9302
1859	0.931
1850	0.9258
1841	0.9107
1832	0.9107
1823	0.9214
1814	0.9231
1805	0.9058
1796	0.8677
1787	0.916
1778	0.913
1769	0.8894
1760	0.8733
1751	0.8752
1742	0.8641
1733	0.8493
1724	0.8466
1715	0.8181
1706	0.7772
1697	0.7234
1688	0.6085
1679	0.1746
1670	0.0021
1661	0.0012
1652	0.0036
1643	0.1982
1634	0.333
1625	0.4833
1616	0.5645
1607	0.6332
1598	0.3605
1589	0.5755
1580	0.4387
1571	0.697
1562	0.7503
1553	0.7203
1544	0.7263
1535	0.7726
1526	0.7446
1517	0.6894
1508	0.526
1499	0.1737
1490	0.1026
1481	0.484
1472	0.4656
1463	0.2834
1454	0.2795
1445	0.3032
1436	0.2515
1427	0.2004
1418	0.1729
1409	0.3582
1400	0.4206
1391	0.2141
1382	0.058
1373	0.0148
1364	0.2324
1355	0.2443
1346	0.1356
1337	0.3655
1328	0.5466
1319	0.5249
1310	0.5753
1301	0.2443
1292	0.3163
1283	0.5128
1274	0.5439
1265	0.7231
1256	0.7984
1247	0.818
1238	0.8497
1229	0.8733
1220	0.8765
1211	0.8714
1202	0.8349
1193	0.8288
1184	0.8453
1175	0.8363
1166	0.7925
1157	0.6566
1148	0.506
1139	0.3523
1130	0.6075
1121	0.5387
1112	0.6322
1103	0.8038
1094	0.7818
1085	0.5967
1076	0.3254
1067	0.6751
1058	0.8314
1049	0.7993
1040	0.5998
1031	0.5631
1022	0.8158
1013	0.8762
1004	0.8853
995	0.8648
986	0.8316
977	0.6692
968	0.5344
959	0.8086
950	0.8812
941	0.8987
932	0.9192
923	0.8987
914	0.9114
905	0.951
896	0.9625
887	0.9589
878	0.9417
869	0.9326
860	0.9338
851	0.9658
842	0.9645
833	0.962
824	0.9678
815	0.9617
806	0.9586
797	0.89
788	0.923
779	0.8146
770	0.06
761	0.6703
752	0.887
743	0.9006
734	0.5593
725	0.1724
716	0.8791
707	0.9272
698	0.9426
689	0.9408
680	0.968
671	0.9733
662	0.9596
653	0.9152
644	0.9044
635	0.9191
626	0.5888
617	0.869
608	0.871
599	0.6239
590	0.8806
581	0.9047
572	0.827
563	0.5498
554	0.7904
545	0.9276
536	0.9429
527	0.9391
518	0.9321
509	0.932
500	0.9172
491	0.8912
482	0.8383
473	0.6312
464	0.5503
455	0.7867
446	0.7498
437	0.7472
428	0.7554
419	0.6872
410	0.4759
401	0.1632
392	0.1059
