Infrared Spectrum: 4-(4-Ethylphenyl)benzoic acid
Formula: C 15 H 14 O 2
CAS: 5731-13-5
State: gas
Origin: EPA-IR VAPOR PHASE LIBRARY
1/CM	ABSORBANCE
549.8	0.006093
559.445	0.006703
569.09	0.007633
578.734	0.007403
588.379	0.006953
598.024	0.004323
607.669	0.002933
617.313	0.002493
626.958	0.002123
636.603	0.002543
646.248	0.002023
655.893	0.002983
665.537	0.009753
675.182	0.010033
684.827	0.004133
694.472	0.004773
704.116	0.006833
713.761	0.006383
723.406	0.003973
733.051	0.004103
742.695	0.004453
752.34	0.006203
761.985	0.013243
771.63	0.011603
781.275	0.008503
790.919	0.005333
800.564	0.004373
810.209	0.004773
819.854	0.006623
829.498	0.009273
839.143	0.006743
848.788	0.004293
858.433	0.003433
868.078	0.002393
877.722	0.001453
887.367	0.001793
897.012	0.0012616
906.657	0.0013715
916.301	0.001773
925.946	0.001533
935.591	0.0012828
945.236	0.0011238
954.88	0.001473
964.525	0.001473
974.17	0.002043
983.815	0.001653
993.46	0.002323
1003.1	0.007253
1012.75	0.007253
1022.39	0.006553
1032.04	0.004683
1041.68	0.004283
1051.33	0.005323
1060.97	0.010133
1070.62	0.026923
1080.26	0.052143
1089.91	0.021303
1099.55	0.009353
1109.2	0.007583
1118.84	0.007313
1128.49	0.007103
1138.13	0.007053
1147.78	0.006453
1157.42	0.011393
1167.07	0.030943
1176.71	0.041443
1186.36	0.023453
1196	0.013373
1205.64	0.007633
1215.29	0.005453
1224.93	0.006513
1234.58	0.006133
1244.22	0.006033
1253.87	0.006223
1263.51	0.008063
1273.16	0.010013
1282.8	0.009883
1292.45	0.008273
1302.09	0.007373
1311.74	0.008403
1321.38	0.010343
1331.03	0.012933
1340.67	0.013603
1350.32	0.011873
1359.96	0.017163
1369.61	0.015813
1379.25	0.007023
1388.9	0.005753
1398.54	0.006573
1408.18	0.005273
1417.83	0.004443
1427.47	0.003283
1437.12	0.002463
1446.76	0.002523
1456.41	0.002663
1466.05	0.003123
1475.7	0.003053
1485.34	0.004243
1494.99	0.007073
1504.63	0.005553
1514.28	0.002813
1523.92	0.003203
1533.57	0.002593
1543.21	0.002093
1552.86	0.002463
1562.5	0.002673
1572.15	0.002713
1581.79	0.002943
1591.44	0.004613
1601.08	0.010723
1610.73	0.018443
1620.37	0.007053
1630.01	0.002713
1639.66	0.001993
1649.3	0.001763
1658.95	0.001823
1668.59	0.001893
1678.24	0.002073
1687.88	0.002523
1697.53	0.003143
1707.17	0.004063
1716.82	0.005073
1726.46	0.005793
1736.11	0.010083
1745.75	0.027643
1755.4	0.097923
1765.04	0.065533
1774.69	0.018653
1784.33	0.009373
1793.98	0.005823
1803.62	0.004573
1813.27	0.003613
1822.91	0.002733
1832.55	0.002003
1842.2	0.001473
1851.84	0.0012541
1861.49	0.0010621
1871.13	0.0010713
1880.78	0.0010645
1890.42	0.001443
1900.07	0.001583
1909.71	0.001483
1919.36	0.001443
1929	0.001603
1938.65	0.001423
1948.29	0.0011344
1957.94	0.0011005
1967.58	0.0007872
1977.23	0.0007684
1986.87	0.0007973
1996.52	0.0007116
2006.16	0.0007371
2015.81	0.0007767
2025.45	0.0007124
2035.1	0.0007009
2044.74	0.0006081
2054.38	0.0007382
2064.03	0.0006086
2073.67	0.0006297
2083.32	0.0006419
2092.96	0.0006191
2102.61	0.0007381
2112.25	0.0005626
2121.9	0.0005765
2131.54	0.0006571
2141.19	0.0007494
2150.83	0.0007709
2160.48	0.0007865
2170.12	0.0006889
2179.77	0.0006657
2189.41	0.0005084
2199.06	0.00046422
2208.7	0.0005486
2218.35	0.0006403
2227.99	0.0005521
2237.64	0.0005119
2247.28	0.0005543
2256.92	0.00044911
2266.57	0.0005038
2276.21	0.0006734
2285.86	0.0005737
2295.5	0.0006327
2305.15	0.0006422
2314.79	0.0005958
2324.44	0.0005824
2334.08	0.0008037
2343.73	0.0005631
2353.37	0.0006536
2363.02	0.0007239
2372.66	0.0005884
2382.31	0.0005096
2391.95	0.0008112
2401.6	0.0005198
2411.24	0.0007064
2420.89	0.0006972
2430.53	0.00047203
2440.18	0.0005839
2449.82	0.000535
2459.47	0.000561
2469.11	0.00046906
2478.75	0.00046007
2488.4	0.0008243
2498.04	0.00043039
2507.69	0.00044716
2517.33	0.0005691
2526.98	0.0005128
2536.62	0.0003211
2546.27	0.0005785
2555.91	0.0005994
2565.56	0.00049132
2575.2	0.0005139
2584.85	0.0006558
2594.49	0.000412151
2604.14	0.0003619
2613.78	0.00042535
2623.43	0.0005938
2633.07	0.000676
2642.72	0.0005924
2652.36	0.0004787
2662.01	0.00039934
2671.65	0.0003693
2681.29	0.000575
2690.94	0.000248
2700.58	0.0005142
2710.23	0.00049143
2719.87	0.000666
2729.52	0.0005444
2739.16	0.0006524
2748.81	0.0005224
2758.45	0.0006142
2768.1	0.0005408
2777.74	0.0006497
2787.39	0.0006463
2797.03	0.0009019
2806.68	0.0008361
2816.32	0.0008594
2825.97	0.0009595
2835.61	0.0011703
2845.26	0.0013612
2854.9	0.001883
2864.55	0.003303
2874.19	0.004063
2883.84	0.004763
2893.48	0.004733
2903.12	0.004463
2912.77	0.004543
2922.41	0.004713
2932.06	0.006283
2941.7	0.008403
2951.35	0.007423
2960.99	0.006973
2970.64	0.014073
2980.28	0.012013
2989.93	0.005133
2999.57	0.003983
3009.22	0.003723
3018.86	0.004463
3028.51	0.008563
3038.15	0.005593
3047.8	0.004833
3057.44	0.004963
3067.09	0.004403
3076.73	0.003973
3086.38	0.003753
3096.02	0.003053
3105.67	0.002093
3115.31	0.001703
3124.95	0.0013416
3134.6	0.0012416
3144.24	0.0011343
3153.89	0.0006842
3163.53	0.00048696
3173.18	0.0008533
3182.82	0.0007642
3192.47	0.00044716
3202.11	0.0005265
3211.76	0.0005814
3221.4	0.0006327
3231.05	0.00042953
3240.69	0.00047165
3250.34	0.00046553
3259.98	0.00050212
3269.63	0.000749
3279.27	0.00044482
3288.92	0.00043702
3298.56	0.000711
3308.21	0.0006313
3317.85	0.0005556
3327.49	0.0003567
3337.14	0.0005043
3346.78	0.00048735
3356.43	0.00047607
3366.07	0.00045689
3375.72	0.0007346
3385.36	0.00039801
3395.01	0.0005175
3404.65	0.0006411
3414.3	0.000254
3423.94	0.00049335
3433.59	0.00046115
3443.23	0.0003293
3452.88	0.0003921
3462.52	0.0007414
3472.17	0.00047267
3481.81	0.0006278
3491.46	0.0008257
3501.1	0.0011561
3510.75	0.0011923
3520.39	0.0005894
3530.04	0.0005906
3539.68	0.0008263
3549.32	0.0013538
3558.97	0.001823
3568.61	0.004403
3578.26	0.022843
3587.9	0.026773
3597.55	0.002673
3607.19	0.0012653
3616.84	0.0009078
3626.48	0.0008134
3636.13	0.0008015
3645.77	0.0003315
3655.42	0.0005216
3665.06	0.0006169
3674.71	0.0003096
3684.35	0.0006694
3694	0.0008636
3703.64	0.0008406
3713.29	0.00048287
3722.93	0.0005414
3732.58	0.0006139
3742.22	0.0005509
3751.86	0.000265
3761.51	0.00047182
3771.15	0.00047144
3780.8	0.0006677
3790.44	0.00047929
3800.09	0.000219
3809.73	0.0007909
3819.38	0.0005415
3829.02	0.000253
3838.67	0.0005172
3848.31	0.000115
3857.96	0.00046491
3867.6	0.0005642
3877.25	0.0006353
3886.89	0.0006654
3896.54	0.000701
3906.18	0.0006984
3915.83	0.000267
3925.47	0.0003138
3935.12	0.0005669
3944.76	0.0006816
3954.41	0.000477
3964.05	0.0005598
3973.69	0.0005258
3983.34	0.00049312
3992.98	0.0005033
