Infrared Spectrum: 1-Cyclopentenylacetonitrile
Formula: C 7 H 9 N
CAS: 5732-88-7
State: gas
Origin: EPA-IR VAPOR PHASE LIBRARY
1/CM	ABSORBANCE
549.9	0.000706
559.547	0.000795
569.193	0.00064
578.84	0.000683
588.486	0.000841
598.133	0.000949
607.779	0.001151
617.426	0.0016
627.072	0.001525
636.719	0.0015933
646.365	0.00165203
656.012	0.0019356
665.658	0.002135
675.305	0.00269
684.951	0.00314
694.598	0.00315
704.245	0.00281
713.891	0.0023428
723.538	0.0019684
733.184	0.0018187
742.831	0.0020031
752.477	0.0021806
762.124	0.0026405
771.77	0.00333
781.417	0.00466
791.063	0.00621
800.71	0.00746
810.356	0.00787
820.003	0.00735
829.649	0.00568
839.296	0.00407
848.943	0.00319
858.589	0.00281
868.236	0.0025882
877.882	0.00288
887.529	0.00343
897.175	0.00368
906.822	0.00356
916.468	0.00343
926.115	0.00353
935.761	0.00388
945.408	0.0037
955.054	0.00432
964.701	0.00422
974.347	0.00367
983.994	0.0026254
993.64	0.0021153
1003.29	0.002196
1012.93	0.0029
1022.58	0.00374
1032.23	0.00492
1041.87	0.00537
1051.52	0.00397
1061.17	0.00282
1070.81	0.0018863
1080.46	0.0015539
1090.11	0.001514
1099.75	0.0015813
1109.4	0.0015828
1119.05	0.0017902
1128.69	0.00170797
1138.34	0.0019363
1147.99	0.0019801
1157.63	0.0019461
1167.28	0.0018339
1176.92	0.0017699
1186.57	0.0017975
1196.22	0.0021672
1205.86	0.0024724
1215.51	0.00281
1225.16	0.00294
1234.8	0.00272
1244.45	0.00301
1254.1	0.00341
1263.74	0.0038
1273.39	0.00418
1283.04	0.00431
1292.68	0.00461
1302.33	0.0043
1311.98	0.0035
1321.62	0.0029
1331.27	0.00342
1340.92	0.00407
1350.56	0.00407
1360.21	0.00289
1369.86	0.0021907
1379.5	0.0019649
1389.15	0.0021769
1398.79	0.00304
1408.44	0.00481
1418.09	0.00765
1427.73	0.00836
1437.38	0.00786
1447.03	0.00585
1456.67	0.00469
1466.32	0.00369
1475.97	0.00308
1485.61	0.0023333
1495.26	0.0017964
1504.91	0.00167958
1514.55	0.001457
1524.2	0.0016026
1533.85	0.0016343
1543.49	0.00164929
1553.14	0.0016119
1562.79	0.0016378
1572.43	0.0015816
1582.08	0.0016148
1591.73	0.0015994
1601.37	0.00172233
1611.02	0.0018213
1620.67	0.0018494
1630.31	0.0019063
1639.96	0.002163
1649.6	0.0022344
1659.25	0.002311
1668.9	0.0019205
1678.54	0.00170114
1688.19	0.0015687
1697.84	0.001528
1707.48	0.001514
1717.13	0.00167477
1726.78	0.0016376
1736.42	0.00168529
1746.07	0.0016041
1755.72	0.0016148
1765.36	0.001545
1775.01	0.001515
1784.66	0.001448
1794.3	0.001455
1803.95	0.001456
1813.6	0.001526
1823.24	0.001546
1832.89	0.0016492
1842.54	0.00166628
1852.18	0.00171702
1861.83	0.00164443
1871.47	0.0016376
1881.12	0.0015594
1890.77	0.001486
1900.41	0.001516
1910.06	0.00149
1919.71	0.001459
1929.35	0.001541
1939	0.001458
1948.65	0.001493
1958.29	0.001434
1967.94	0.00145
1977.59	0.001382
1987.23	0.001384
1996.88	0.001361
2006.53	0.001396
2016.17	0.001357
2025.82	0.001381
2035.47	0.001493
2045.11	0.00141
2054.76	0.001501
2064.41	0.001503
2074.05	0.001482
2083.7	0.0015927
2093.35	0.0015767
2102.99	0.0015925
2112.64	0.0015887
2122.28	0.0016254
2131.93	0.00170161
2141.58	0.001629
2151.22	0.00169962
2160.87	0.00168411
2170.52	0.00171325
2180.16	0.00167505
2189.81	0.00168262
2199.46	0.0016097
2209.1	0.0016192
2218.75	0.00164936
2228.4	0.0018969
2238.04	0.0023211
2247.69	0.0031
2257.34	0.00322
2266.98	0.00266
2276.63	0.0020099
2286.28	0.0019256
2295.92	0.0017999
2305.57	0.0018108
2315.22	0.0018072
2324.86	0.0018567
2334.51	0.0018824
2344.16	0.0018991
2353.8	0.0019355
2363.45	0.0018164
2373.09	0.00172769
2382.74	0.0016416
2392.39	0.0016251
2402.03	0.0015798
2411.68	0.0016258
2421.33	0.00167363
2430.97	0.00168638
2440.62	0.00168566
2450.27	0.0016361
2459.91	0.0015867
2469.56	0.00168948
2479.21	0.00164699
2488.85	0.00173125
2498.5	0.00166683
2508.15	0.0016047
2517.79	0.0017602
2527.44	0.0016294
2537.09	0.0018037
2546.73	0.0018449
2556.38	0.0017883
2566.03	0.0020699
2575.67	0.0020546
2585.32	0.0021054
2594.96	0.0021288
2604.61	0.0020076
2614.26	0.0019682
2623.9	0.0018956
2633.55	0.0019494
2643.2	0.0017991
2652.84	0.0018829
2662.49	0.0018571
2672.14	0.001813
2681.78	0.0020209
2691.43	0.0019694
2701.08	0.0022429
2710.72	0.0021325
2720.37	0.0022984
2730.02	0.0024636
2739.66	0.0025196
2749.31	0.0025249
2758.96	0.00269
2768.6	0.0027
2778.25	0.00298
2787.9	0.00328
2797.54	0.00355
2807.19	0.00441
2816.84	0.00573
2826.48	0.00805
2836.13	0.01237
2845.77	0.0205
2855.42	0.03099
2865.07	0.03464
2874.71	0.03091
2884.36	0.02593
2894.01	0.02817
2903.65	0.03537
2913.3	0.04246
2922.95	0.04464
2932.59	0.04287
2942.24	0.04256
2951.89	0.04645
2961.53	0.04972
2971.18	0.04422
2980.83	0.02705
2990.47	0.01461
3000.12	0.0086
3009.77	0.00644
3019.41	0.00559
3029.06	0.00548
3038.71	0.00663
3048.35	0.00896
3058	0.00951
3067.64	0.00804
3077.29	0.00476
3086.94	0.00285
3096.58	0.0019502
3106.23	0.0020767
3115.88	0.00165377
3125.52	0.0016918
3135.17	0.001446
3144.82	0.00164794
3154.46	0.0016271
3164.11	0.00164663
3173.76	0.001517
3183.4	0.001263
3193.05	0.001297
3202.7	0.001008
3212.34	0.000734
3221.99	0.000903
3231.64	0.000666
3241.28	0.000949
3250.93	0.00046
3260.58	0.00063
3270.22	0.00058
3279.87	0.00051
3289.52	0.000705
3299.16	0.00043
3308.81	0.000679
3318.45	0.00047
3328.1	0.000669
3337.75	0.00049
3347.39	0.00046
3357.04	0.00048
3366.69	0.00057
3376.33	0.00056
3385.98	0.00044
3395.63	1e-05
3405.27	0.00025
3414.92	0.00015
3424.57	0.00019
3434.21	0.00017
3443.86	0.00015
3453.51	0.00023
3463.15	0.00041
3472.8	0.00018
3482.45	0.0002
3492.09	0.00034
3501.74	0.00023
3511.39	0.00034
3521.03	0.00033
3530.68	0.00029
3540.33	0.00038
3549.97	0.00043
3559.62	0.00031
3569.26	0.0003
3578.91	0.00029
3588.56	0.0006
3598.2	0.000768
3607.85	0.00052
3617.5	0.00061
3627.14	0.00056
3636.79	0.0005
3646.44	0.00049
3656.08	0.00059
3665.73	0.00045
3675.38	0.00035
3685.02	0.00062
3694.67	0.00062
3704.32	0.00061
3713.96	0.000772
3723.61	0.00062
3733.26	0.000775
3742.9	0.000742
3752.55	0.000875
3762.2	0.000865
3771.84	0.000771
3781.49	0.000802
3791.13	0.000933
3800.78	0.000937
3810.43	0.000958
3820.07	0.001112
3829.72	0.000954
3839.37	0.000945
3849.01	0.000981
3858.66	0.001028
3868.31	0.001043
3877.95	0.000919
3887.6	0.000965
3897.25	0.001024
3906.89	0.001206
3916.54	0.001057
3926.19	0.001071
3935.83	0.000952
3945.48	0.001066
3955.13	0.001258
3964.77	0.001134
3974.42	0.0011
3984.07	0.000888
3993.71	0.001063
