Infrared Spectrum: 3-(4-ANILINO-1-NAPHTHYLAZO)-2,7-NAPHTHALENE DISULFONIC ACID
Formula: C26 H19 N3 O6 S2
CAS: 57322-42-6
State: SOLID (MULL)
Class: COBLENTZ
Instrument: Not specified, most likely a prism, grating, or hybrid spectrometer.
Sampling: TRANSMISSION
Resolution: 4
Origin: WYANDOTTE CHEMICALS CORP., WYANDOTTE, MICHIGAN, USA
MICROMETERS	TRANSMITTANCE
2.021	0.339
2.06095	0.347
2.10089	0.359
2.14084	0.379
2.18079	0.407
2.22074	0.425
2.26068	0.44
2.30063	0.459
2.34058	0.482
2.38053	0.495
2.42047	0.52
2.46042	0.547
2.50037	0.555
2.54032	0.569
2.58026	0.607
2.62021	0.615
2.66016	0.63
2.70011	0.632
2.74005	0.618
2.78	0.547
2.81995	0.459
2.8599	0.381
2.89984	0.326
2.93979	0.282
2.97974	0.252
3.01969	0.234
3.05963	0.209
3.09958	0.168
3.13953	0.131
3.17948	0.133
3.21942	0.136
3.25937	0.129
3.29932	0.129
3.33927	0.104
3.37921	0.076
3.41916	0.078
3.45911	0.128
3.49906	0.173
3.539	0.326
3.57895	0.435
3.6189	0.487
3.65885	0.512
3.69879	0.542
3.73874	0.559
3.77869	0.584
3.81864	0.607
3.85858	0.642
3.89853	0.663
3.93848	0.677
3.97843	0.69
4.01837	0.712
4.05832	0.732
4.09827	0.745
4.13822	0.752
4.17816	0.757
4.21811	0.763
4.25806	0.757
4.29801	0.762
4.33795	0.773
4.3779	0.815
4.41785	0.826
4.4578	0.828
4.49774	0.833
4.53769	0.845
4.57764	0.851
4.61759	0.865
4.65753	0.876
4.69748	0.895
4.73743	0.903
4.77738	0.916
4.81732	0.928
4.85727	0.94
4.89722	0.948
4.93717	0.963
4.97711	0.973
5.01706	0.986
5.05701	0.988
5.09696	0.981
5.1369	0.981
5.17685	0.986
5.2168	0.981
5.25675	0.971
5.29669	0.971
5.33664	0.975
5.37659	0.968
5.41654	0.956
5.45648	0.945
5.49643	0.923
5.53638	0.896
5.57633	0.875
5.61627	0.86
5.65622	0.828
5.69617	0.805
5.73612	0.79
5.77606	0.78
5.81601	0.77
5.85596	0.768
5.8959	0.787
5.93585	0.793
5.9758	0.8
6.01575	0.785
6.05569	0.8
6.09564	0.73
6.13559	0.524
6.17554	0.277
6.21548	0.384
6.25543	0.304
6.29538	0.183
6.33533	0.188
6.37527	0.191
6.41522	0.116
6.45517	0.124
6.49512	0.234
6.53506	0.321
6.57501	0.535
6.61496	0.658
6.65491	0.525
6.69485	0.322
6.7348	0.188
6.77475	0.239
6.8147	0.276
6.85464	0.272
6.89459	0.371
6.93454	0.499
6.97449	0.424
7.01443	0.189
7.05438	0.054
7.09433	0.046
7.13428	0.083
7.17422	0.106
7.21417	0.206
7.25412	0.251
7.29407	0.297
7.33401	0.369
7.37396	0.317
7.41391	0.103
7.45386	0.093
7.4938	0.269
7.53375	0.222
7.5737	0.114
7.61365	0.113
7.65359	0.091
7.69354	0.261
7.73349	0.282
7.77344	0.139
7.81338	0.053
7.85333	0.051
7.89328	0.091
7.93323	0.083
7.97317	0.041
8.01312	0.064
8.05307	0.099
8.09302	0.123
8.13296	0.129
8.17291	0.131
8.21286	0.133
8.25281	0.101
8.29275	0.064
8.3327	0.048
8.37265	0.051
8.4126	0.058
8.45254	0.073
8.49249	0.086
8.53244	0.066
8.57239	0.081
8.61233	0.108
8.65228	0.116
8.69223	0.104
8.73218	0.109
8.77212	0.163
8.81207	0.237
8.85202	0.299
8.89197	0.361
8.93191	0.412
8.97186	0.424
9.01181	0.332
9.05176	0.183
9.0917	0.119
9.13165	0.153
9.1716	0.251
9.21155	0.321
9.25149	0.331
9.29144	0.262
9.33139	0.183
9.37134	0.279
9.41128	0.302
9.45123	0.179
9.49118	0.229
9.53113	0.282
9.57107	0.294
9.61102	0.249
9.65097	0.164
9.69091	0.089
9.73086	0.071
9.77081	0.039
9.81076	0.039
9.8507	0.051
9.89065	0.101
9.9306	0.164
9.97055	0.249
10.0105	0.316
10.0504	0.372
10.0904	0.44
10.1303	0.512
10.1703	0.544
10.2102	0.572
10.2502	0.605
10.2901	0.622
10.3301	0.643
10.37	0.65
10.41	0.657
10.4499	0.678
10.4899	0.722
10.5298	0.753
10.5698	0.775
10.6097	0.753
10.6497	0.74
10.6896	0.77
10.7295	0.792
10.7695	0.801
10.8094	0.801
10.8494	0.803
10.8893	0.797
10.9293	0.717
10.9692	0.613
11.0092	0.698
11.0491	0.865
11.0891	0.91
11.129	0.905
11.169	0.84
11.2089	0.692
11.2489	0.529
11.2888	0.382
11.3288	0.352
11.3687	0.44
11.4087	0.584
11.4486	0.678
11.4886	0.745
11.5285	0.801
11.5684	0.838
11.6084	0.871
11.6483	0.891
11.6883	0.898
11.7282	0.866
11.7682	0.833
11.8081	0.823
11.8481	0.855
11.888	0.881
11.928	0.908
11.9679	0.926
12.0079	0.93
12.0478	0.921
12.0878	0.891
12.1277	0.868
12.1677	0.848
12.2076	0.805
12.2476	0.755
12.2875	0.718
12.3274	0.708
12.3674	0.735
12.4073	0.78
12.4473	0.81
12.4872	0.825
12.5272	0.835
12.5671	0.833
12.6071	0.826
12.647	0.81
12.687	0.75
12.7269	0.655
12.7669	0.662
12.8068	0.777
12.8468	0.813
12.8867	0.782
12.9267	0.738
12.9666	0.687
13.0066	0.633
13.0465	0.595
13.0865	0.525
13.1264	0.475
13.1663	0.405
13.2063	0.334
13.2462	0.306
13.2862	0.369
13.3261	0.537
13.3661	0.647
13.406	0.712
13.446	0.74
13.4859	0.738
13.5259	0.688
13.5658	0.615
13.6058	0.525
13.6457	0.449
13.6857	0.409
13.7256	0.386
13.7656	0.397
13.8055	0.454
13.8455	0.569
13.8854	0.635
13.9253	0.715
13.9653	0.743
14.0052	0.765
14.0452	0.787
14.0851	0.793
14.1251	0.785
14.165	0.762
14.205	0.728
14.2449	0.658
14.2849	0.574
14.3248	0.499
14.3648	0.415
14.4047	0.387
14.4447	0.364
14.4846	0.347
14.5246	0.317
14.5645	0.307
14.6045	0.351
14.6444	0.435
14.6843	0.547
14.7243	0.607
14.7642	0.65
14.8042	0.667
14.8441	0.66
14.8841	0.638
14.924	0.605
14.964	0.584
15.0039	0.552
15.0439	0.519
15.0838	0.492
15.1238	0.432
15.1637	0.392
15.2037	0.376
15.2436	0.377
15.2836	0.417
15.3235	0.487
15.3635	0.55
15.4034	0.59
15.4434	0.632
15.4833	0.655
15.5232	0.67
15.5632	0.682
15.6031	0.683
15.6431	0.683
15.683	0.677
15.723	0.672
15.7629	0.66
15.8029	0.65
15.8428	0.645
15.8828	0.64
15.9227	0.633
15.9627	0.635
