Infrared Spectrum: Diethylamine, 2,2'-bis(2-methoxyethoxy)-,
Formula: C10 H23 N O4
CAS: 5732-47-8
State: LIQUID (NEAT)
Boiling point: 161-163 C AT 20 mmHg
Class: COBLENTZ III
Instrument: BAIRD (GRATING)
Instrument parameters: NaCl PRISM
Path length: 0.003 CM
Resolution: 2
Origin: WYANDOTTE CHEMICALS CORP.
1/CM	TRANSMITTANCE
626	0.6133
635	0.6262
644	0.6387
653	0.6535
662	0.6455
671	0.659
680	0.6468
689	0.6338
698	0.6094
707	0.5773
716	0.5325
725	0.4904
734	0.4492
743	0.4106
752	0.3789
761	0.3521
770	0.3367
779	0.3455
788	0.3782
797	0.4171
806	0.4328
815	0.4318
824	0.384
833	0.3089
842	0.2195
851	0.1985
860	0.412
869	0.4637
878	0.4461
887	0.4533
896	0.4795
905	0.4847
914	0.4353
923	0.37
932	0.3312
941	0.3125
950	0.3206
959	0.3296
968	0.3429
977	0.3749
986	0.3434
995	0.3972
1004	0.4385
1013	0.365
1022	0.236
1031	0.1548
1040	0.2022
1049	0.2202
1058	0.1918
1067	0.1508
1076	0.0944
1085	0.0424
1094	0.0207
1103	0.017
1112	0.0188
1121	0.0177
1130	0.0229
1139	0.0203
1148	0.0219
1157	0.0465
1166	0.1207
1175	0.2919
1184	0.3509
1193	0.2203
1202	0.0701
1211	0.2577
1220	0.3804
1229	0.4278
1238	0.3547
1247	0.2176
1256	0.2294
1265	0.3256
1274	0.3779
1283	0.3395
1292	0.2981
1301	0.2907
1310	0.3296
1319	0.4247
1328	0.4424
1337	0.3716
1346	0.38
1355	0.2378
1364	0.2549
1373	0.3533
1382	0.4521
1391	0.4663
1400	0.5243
1409	0.5829
1418	0.6023
1427	0.5878
1436	0.5361
1445	0.3494
1454	0.1737
1463	0.0813
1472	0.0917
1481	0.1157
1490	0.2399
1499	0.3996
1508	0.5794
1517	0.6597
1526	0.683
1535	0.6881
1544	0.6974
1553	0.7137
1562	0.7273
1571	0.7361
1580	0.7475
1589	0.7604
1598	0.7711
1607	0.7767
1616	0.7796
1625	0.7813
1634	0.7826
1643	0.7821
1652	0.7789
1661	0.7722
1670	0.7656
1679	0.709
1688	0.6832
1697	0.7222
1706	0.7655
1715	0.7827
1724	0.7925
1733	0.7993
1742	0.8096
1751	0.8128
1760	0.8105
1769	0.808
1778	0.812
1787	0.8149
1796	0.8173
1805	0.8187
1814	0.8193
1823	0.8193
1832	0.8185
1841	0.8169
1850	0.8147
1859	0.8119
1868	0.8069
1877	0.8002
1886	0.7928
1895	0.7852
1904	0.7764
1913	0.7682
1922	0.7622
1931	0.7569
1940	0.7563
1949	0.7574
1958	0.7596
1967	0.7633
1976	0.7676
1985	0.7731
1994	0.7809
2003	0.7822
2012	0.7823
2021	0.7825
2030	0.7828
2039	0.783
2048	0.7835
2057	0.7839
2066	0.7844
2075	0.785
2084	0.7862
2093	0.7876
2102	0.7892
2111	0.7919
2120	0.7957
2129	0.7994
2138	0.805
2147	0.8109
2156	0.8128
2165	0.8139
2174	0.8127
2183	0.8105
2192	0.808
2201	0.8074
2210	0.8073
2219	0.8084
2228	0.8094
2237	0.8106
2246	0.8122
2255	0.8146
2264	0.8169
2273	0.8212
2282	0.8292
2291	0.8407
2300	0.8436
2309	0.8422
2318	0.8397
2327	0.8372
2336	0.8347
2345	0.8305
2354	0.824
2363	0.8169
2372	0.8167
2381	0.8187
2390	0.8209
2399	0.8232
2408	0.8249
2417	0.8254
2426	0.8256
2435	0.8254
2444	0.825
2453	0.8246
2462	0.8241
2471	0.8236
2480	0.8228
2489	0.822
2498	0.8213
2507	0.8203
2516	0.8194
2525	0.8184
2534	0.8153
2543	0.8104
2552	0.8028
2561	0.7938
2570	0.7831
2579	0.7739
2588	0.7686
2597	0.7666
2606	0.7653
2615	0.7644
2624	0.7637
2633	0.7623
2642	0.7553
2651	0.7425
2660	0.7261
2669	0.7098
2678	0.6861
2687	0.643
2696	0.6002
2705	0.5547
2714	0.5294
2723	0.5081
2732	0.4863
2741	0.4653
2750	0.4368
2759	0.4028
2768	0.3499
2777	0.2105
2786	0.158
2795	0.1182
2804	0.084
2813	0.0521
2822	0.0402
2831	0.0391
2840	0.0377
2849	0.0328
2858	0.0283
2867	0.0271
2876	0.027
2885	0.0281
2894	0.0299
2903	0.0302
2912	0.029
2921	0.0287
2930	0.0296
2939	0.0309
2948	0.0407
2957	0.0868
2966	0.1182
2975	0.1311
2984	0.1373
2993	0.1844
3002	0.2894
3011	0.3949
3020	0.4997
3029	0.6038
3038	0.6693
3047	0.6944
3056	0.7253
3065	0.7477
3074	0.7576
3083	0.7651
3092	0.7711
3101	0.7769
3110	0.7832
3119	0.7897
3128	0.7979
3137	0.8066
3146	0.8135
3155	0.8149
3164	0.8133
3173	0.8123
3182	0.8125
3191	0.8135
3200	0.815
3209	0.8166
3218	0.8176
3227	0.8166
3236	0.8133
3245	0.8064
3254	0.8
3263	0.7965
3272	0.7947
3281	0.7935
3290	0.7764
3299	0.7405
3308	0.7048
3317	0.6725
3326	0.6708
3335	0.7022
3344	0.7402
3353	0.7783
3362	0.8006
3371	0.8112
3380	0.8199
3389	0.826
3398	0.8315
3407	0.836
3416	0.8405
3425	0.845
3434	0.849
3443	0.8517
3452	0.8542
3461	0.8558
3470	0.8574
3479	0.8587
3488	0.8599
3497	0.8611
3506	0.862
3515	0.8627
3524	0.8633
3533	0.864
3542	0.8646
3551	0.8652
3560	0.866
3569	0.8667
3578	0.8671
3587	0.8677
3596	0.8681
3605	0.8686
3614	0.8692
3623	0.8698
3632	0.8705
3641	0.8723
3650	0.8759
3659	0.88
3668	0.8815
3677	0.8807
3686	0.8797
3695	0.8787
3704	0.8777
3713	0.8769
3722	0.8764
3731	0.8759
3740	0.8757
3749	0.8757
3758	0.8759
3767	0.8763
3776	0.8769
3785	0.8774
3794	0.8778
3803	0.8779
3812	0.8765
3821	0.8743
3830	0.8722
3839	0.8701
3848	0.8682
3857	0.8672
3866	0.8669
3875	0.8678
3884	0.8697
3893	0.8726
3902	0.8751
3911	0.8765
3920	0.8768
3929	0.8766
3938	0.8761
3947	0.8751
3956	0.8736
3965	0.8713
3974	0.8687
3983	0.8656
3992	0.8624
