Infrared Spectrum: CYCLOPENTANECARBOXYLIC ACID, 3Alpha-HYDROXY-, Gamma-LACTONE
Formula: C6 H8 O2
CAS: 5732-97-8
State: LIQUID (NEAT)
Class: COBLENTZ III
Instrument: PERKIN-ELMER 21 (GRATING)
Instrument parameters: FILTER CHANGE AT ABOUT 1020 CM^-^1.
Sampling: TRANSMISSION
Path length: CAPILLARY
Resolution: 2
Origin: SOUTHERN RESEARCH INSTITUTE
1/CM	TRANSMITTANCE
608.031	0.544
617.323	0.546
626.615	0.5509
635.907	0.5588
645.199	0.5673
654.491	0.5824
663.783	0.5877
673.075	0.5886
682.367	0.588
691.659	0.5475
700.951	0.3173
710.243	0.6187
719.535	0.666
728.828	0.6597
738.12	0.6259
747.412	0.4519
756.704	0.67
765.996	0.736
775.288	0.742
784.58	0.74
793.872	0.717
803.164	0.5275
812.456	0.3858
821.748	0.4993
831.04	0.6282
840.332	0.6313
849.624	0.3483
858.916	0.3133
868.208	0.3248
877.5	0.574
886.792	0.4307
896.084	0.5841
905.376	0.5201
914.668	0.2746
923.96	0.018
933.252	0.0687
942.544	0.2737
951.837	0.1246
961.129	0.083
970.421	0.2962
979.713	0.5949
989.005	0.6755
998.297	0.6853
1007.59	0.6654
1016.88	0.6268
1026.17	0.2929
1035.46	0.063
1044.76	0.254
1054.05	0.597
1063.34	0.5392
1072.63	0.3823
1081.93	0.0895
1091.22	0.0431
1100.51	0.4725
1109.8	0.6006
1119.09	0.6128
1128.39	0.6045
1137.68	0.3836
1146.97	0.2682
1156.26	0.4988
1165.55	0.2259
1174.85	0.0451
1184.14	0.0295
1193.43	0.1556
1202.72	0.4438
1212.01	0.6111
1221.31	0.6332
1230.6	0.5503
1239.89	0.6137
1249.18	0.729
1258.47	0.7134
1267.77	0.691
1277.06	0.6401
1286.35	0.3799
1295.64	0.403
1304.93	0.3309
1314.23	0.4319
1323.52	0.345
1332.81	0.1188
1342.1	0.1206
1351.39	0.2932
1360.69	0.5794
1369.98	0.6986
1379.27	0.7507
1388.56	0.774
1397.85	0.7659
1407.15	0.758
1416.44	0.751
1425.73	0.7481
1435.02	0.7136
1444.31	0.5144
1453.61	0.3593
1462.9	0.4662
1472.19	0.5412
1481.48	0.5668
1490.77	0.6953
1500.07	0.7033
1509.36	0.7444
1518.65	0.7961
1527.94	0.8236
1537.24	0.822
1546.53	0.8016
1555.82	0.7619
1565.11	0.8231
1574.4	0.831
1583.7	0.835
1592.99	0.8332
1602.28	0.8156
1611.57	0.7749
1620.86	0.755
1630.16	0.7803
1639.45	0.7972
1648.74	0.7748
1658.03	0.745
1667.32	0.7539
1676.62	0.763
1685.91	0.727
1695.2	0.6438
1704.49	0.535
1713.78	0.535
1723.08	0.4784
1732.37	0.3301
1741.66	0.2135
1750.95	0.1063
1760.24	0.018
1769.54	0.014
1778.83	0.014
1788.12	0.0147
1797.41	0.0226
1806.7	0.0766
1816	0.2437
1825.29	0.3058
1834.58	0.347
1843.87	0.5041
1853.16	0.6078
1862.46	0.6104
1871.75	0.6
1881.04	0.602
1890.33	0.636
1899.62	0.744
1908.92	0.7589
1918.21	0.7728
1927.5	0.8078
1936.79	0.813
1946.08	0.8103
1955.38	0.8
1964.67	0.811
1973.96	0.8235
1983.25	0.8195
1992.55	0.8051
2001.84	0.7996
2011.13	0.7847
2020.42	0.7694
2029.71	0.7954
2039.01	0.7956
2048.3	0.8027
2057.59	0.8274
2066.88	0.8364
2076.17	0.839
2085.47	0.8356
2094.76	0.8089
2104.05	0.7986
2113.34	0.795
2122.63	0.799
2131.93	0.806
2141.22	0.8141
2150.51	0.8234
2159.8	0.828
2169.09	0.828
2178.39	0.827
2187.68	0.827
2196.97	0.8269
2206.26	0.8206
2215.55	0.8154
2224.85	0.821
2234.14	0.8236
2243.43	0.8089
2252.72	0.7872
2262.01	0.7841
2271.31	0.8035
2280.6	0.8274
2289.89	0.8324
2299.18	0.8378
2308.47	0.836
2317.77	0.8364
2327.06	0.8378
2336.35	0.84
2345.64	0.8382
2354.93	0.839
2364.23	0.843
2373.52	0.846
2382.81	0.8446
2392.1	0.843
2401.4	0.841
2410.69	0.8356
2419.98	0.8338
2429.27	0.837
2438.56	0.839
2447.86	0.8366
2457.15	0.8269
2466.44	0.8106
2475.73	0.8104
2485.02	0.8164
2494.32	0.8258
2503.61	0.832
2512.9	0.8378
2522.19	0.843
2531.48	0.8434
2540.78	0.844
2550.07	0.844
2559.36	0.844
2568.65	0.844
2577.94	0.845
2587.24	0.846
2596.53	0.846
2605.82	0.8446
2615.11	0.843
2624.4	0.843
2633.7	0.84
2642.99	0.8406
2652.28	0.8454
2661.57	0.8456
2670.86	0.845
2680.16	0.844
2689.45	0.843
2698.74	0.843
2708.03	0.841
2717.32	0.84
2726.62	0.839
2735.91	0.839
2745.2	0.839
2754.49	0.839
2763.78	0.839
2773.08	0.839
2782.37	0.839
2791.66	0.837
2800.95	0.833
2810.24	0.8268
2819.54	0.8089
2828.83	0.7912
2838.12	0.7736
2847.41	0.7519
2856.71	0.6642
2866	0.58
2875.29	0.4773
2884.58	0.4404
2893.87	0.4655
2903.17	0.482
2912.46	0.4761
2921.75	0.4461
2931.04	0.3946
2940.33	0.3107
2949.63	0.1867
2958.92	0.16
2968.21	0.1708
2977.5	0.1979
2986.79	0.2271
2996.09	0.2492
3005.38	0.2908
3014.67	0.3255
3023.96	0.3535
3033.25	0.4199
3042.55	0.5059
3051.84	0.6044
3061.13	0.6799
3070.42	0.7179
3079.71	0.7391
3089.01	0.7551
3098.3	0.7798
3107.59	0.79
3116.88	0.7944
3126.17	0.802
3135.47	0.8141
3144.76	0.819
3154.05	0.817
3163.34	0.8194
3172.63	0.823
3181.93	0.821
3191.22	0.821
3200.51	0.823
3209.8	0.823
3219.09	0.823
3228.39	0.823
3237.68	0.823
3246.97	0.827
3256.26	0.827
3265.55	0.827
3274.85	0.8286
3284.14	0.832
3293.43	0.832
3302.72	0.831
3312.02	0.831
3321.31	0.832
3330.6	0.831
3339.89	0.832
3349.18	0.832
3358.48	0.831
3367.77	0.829
3377.06	0.829
3386.35	0.8242
3395.64	0.8166
3404.94	0.8142
3414.23	0.812
3423.52	0.811
3432.81	0.808
3442.1	0.807
3451.4	0.803
3460.69	0.8012
3469.98	0.7972
3479.27	0.792
3488.56	0.7906
3497.86	0.7876
3507.15	0.7742
3516.44	0.761
3525.73	0.7576
3535.02	0.7429
3544.32	0.7309
3553.61	0.718
3562.9	0.717
3572.19	0.7204
3581.48	0.7284
3590.78	0.7428
3600.07	0.7558
3609.36	0.7758
3618.65	0.783
3627.94	0.788
3637.24	0.792
3646.53	0.7954
3655.82	0.802
3665.11	0.8048
3674.4	0.808
3683.7	0.811
3692.99	0.81
3702.28	0.811
3711.57	0.813
3720.86	0.8204
3730.16	0.8284
3739.45	0.829
3748.74	0.829
3758.03	0.829
3767.33	0.831
3776.62	0.831
3785.91	0.831
3795.2	0.831
3804.49	0.833
3813.79	0.8338
3823.08	0.8262
3832.37	0.82
3841.66	0.815
3850.95	0.813
3860.25	0.813
3869.54	0.8138
3878.83	0.813
3888.12	0.813
3897.41	0.815
3906.71	0.815
3916	0.815
3925.29	0.812
3934.58	0.811
3943.87	0.81
3953.17	0.8108
3962.46	0.8106
3971.75	0.806
3981.04	0.806
3990.33	0.804
3999.63	0.8012
4008.92	0.7956
4018.21	0.7938
