Infrared Spectrum: 4-Octyn-2-ol
Formula: C 8 H 14 O
CAS: 57355-72-3
State: gas
Instrument: HP-GC/MS/IRD
Origin: NIST Mass Spectrometry Data Center
1/CM	ABSORBANCE
550	0.0006402
562	0.0003036
574	0.000308
586	0.0002618
598	0.0002684
610	0.000264
622	0.0001408
634	0.00011
646	0.0001716
658	4.62e-05
670	8.58e-05
682	6.82e-05
694	5.5e-05
706	0.00011
718	0.0002134
730	0.0002728
742	0.0002574
754	0.0002376
766	0.0001694
778	0.0001782
790	0.0003036
802	0.0004334
814	0.000759
826	0.001045
838	0.0008624
850	0.000616
862	0.0005016
874	0.0006622
886	0.0008558
898	0.0008294
910	0.0010406
922	0.0022704
934	0.0044132
946	0.0033946
958	0.0014322
970	0.0007546
982	0.000726
994	0.0009834
1006	0.00165
1018	0.0027148
1030	0.0039798
1042	0.0048972
1054	0.0052822
1066	0.0051832
1078	0.0063096
1090	0.0082126
1102	0.0082764
1114	0.0062788
1126	0.0042482
1138	0.0031108
1150	0.0020746
1162	0.001386
1174	0.001243
1186	0.00154
1198	0.0023584
1210	0.0030206
1222	0.0030602
1234	0.0030536
1246	0.0036542
1258	0.0044484
1270	0.0045914
1282	0.0044968
1294	0.002904
1306	0.0023276
1318	0.0027258
1330	0.004268
1342	0.0049896
1354	0.0042416
1366	0.004444
1378	0.0057948
1390	0.0060456
1402	0.004631
1414	0.0031856
1426	0.0033088
1438	0.0037334
1450	0.0035816
1462	0.0032318
1474	0.002244
1486	0.0012782
1498	0.0007216
1510	0.000473
1522	0.0003344
1534	0.0002926
1546	0.0002112
1558	0.000187
1570	0.0001474
1582	0.0001606
1594	0.0001474
1606	0.0001298
1618	0.0001606
1630	0.0001166
1642	0.00011
1654	9.24e-05
1666	9.9e-05
1678	8.58e-05
1690	6.82e-05
1702	7.26e-05
1714	3.08e-05
1726	2.64e-05
1738	5.5e-05
1750	4.18e-05
1762	3.74e-05
1774	4.18e-05
1786	3.74e-05
1798	0
1810	4.4e-06
1822	2.2e-05
1834	3.3e-05
1846	2.42e-05
1858	3.74e-05
1870	1.76e-05
1882	2.42e-05
1894	2.64e-05
1906	5.5e-05
1918	1.1e-05
1930	3.08e-05
1942	4.84e-05
1954	8.36e-05
1966	6.82e-05
1978	6.16e-05
1990	6.16e-05
2002	5.72e-05
2014	5.72e-05
2026	6.38e-05
2038	9.24e-05
2050	4.4e-05
2062	5.5e-05
2074	6.38e-05
2086	6.82e-05
2098	6.38e-05
2110	4.62e-05
2122	8.36e-05
2134	7.92e-05
2146	5.94e-05
2158	8.8e-05
2170	0.0001232
2182	0.0001012
2194	0.00011
2206	0.0001034
2218	0.0001188
2230	0.0001122
2242	0.0001034
2254	9.68e-05
2266	7.26e-05
2278	7.92e-05
2290	8.36e-05
2302	6.82e-05
2314	3.52e-05
2326	5.06e-05
2338	6.6e-05
2350	5.72e-05
2362	9.68e-05
2374	9.02e-05
2386	9.46e-05
2398	7.48e-05
2410	9.9e-05
2422	0.0001056
2434	0.0001144
2446	8.36e-05
2458	0.0001188
2470	9.68e-05
2482	7.92e-05
2494	9.24e-05
2506	0.0001034
2518	0.0001056
2530	0.0001166
2542	0.000176
2554	0.0002046
2566	0.000198
2578	0.0001936
2590	0.000176
2602	0.0001848
2614	0.0002244
2626	0.0002662
2638	0.0002706
2650	0.0003564
2662	0.0003696
2674	0.0003916
2686	0.000385
2698	0.0003608
2710	0.0003652
2722	0.0003828
2734	0.0004048
2746	0.0004994
2758	0.0005764
2770	0.0005808
2782	0.0007018
2794	0.0008338
2806	0.0010626
2818	0.0014586
2830	0.0021714
2842	0.0033616
2854	0.0045914
2866	0.0058916
2878	0.0092378
2890	0.0107536
2902	0.0117612
2914	0.016071
2926	0.0187066
2938	0.022
2950	0.0189904
2962	0.0170786
2974	0.0212784
2986	0.0168168
2998	0.0075262
3010	0.0030294
3022	0.0017028
3034	0.0012474
3046	0.0009372
3058	0.0007216
3070	0.000605
3082	0.000539
3094	0.0004994
3106	0.0004752
3118	0.0004246
3130	0.000385
3142	0.000286
3154	0.0002706
3166	0.0002552
3178	0.000275
3190	0.0002948
3202	0.0002376
3214	0.000242
3226	0.0001518
3238	0.0001386
3250	0.000132
3262	0.00011
3274	0.000143
3286	0.0001144
3298	0.0001452
3310	8.14e-05
3322	0.0001276
3334	0.0001518
3346	9.68e-05
3358	8.36e-05
3370	6.38e-05
3382	7.7e-05
3394	4.84e-05
3406	0.0001034
3418	0.0001386
3430	0.0001496
3442	0.000154
3454	0.0001056
3466	0.0001232
3478	6.16e-05
3490	0.0001012
3502	9.9e-05
3514	9.24e-05
3526	0.0001342
3538	0.0002442
3550	0.0003234
3562	0.0003014
3574	0.0003806
3586	0.0008844
3598	0.0022572
3610	0.0031724
3622	0.0015554
3634	0.0010846
3646	0.0014058
3658	0.001562
3670	0.00088
3682	0.000385
3694	0.0002376
3706	0.0001386
3718	7.26e-05
3730	5.06e-05
3742	7.48e-05
3754	5.72e-05
3766	8.58e-05
3778	8.36e-05
3790	0.000121
3802	6.16e-05
3814	9.02e-05
3826	5.28e-05
3838	1.32e-05
