Infrared Spectrum: p-Butoxyacetophenone
Formula: C 12 H 16 O 2
CAS: 5736-89-0
State: gas
Origin: EPA-IR VAPOR PHASE LIBRARY
1/CM	ABSORBANCE
549.8	0.00928
559.445	0.01584
569.09	0.02832
578.734	0.05411
588.379	0.06449
598.024	0.03075
607.669	0.01242
617.313	0.00661
626.958	0.00504
636.603	0.00478
646.248	0.00275
655.893	0.00202
665.537	0.00181
675.182	0.00165
684.827	0.00167
694.472	0.00175
704.116	0.00136
713.761	0.00137
723.406	0.00221
733.051	0.0029
742.695	0.00428
752.34	0.00516
761.985	0.00426
771.63	0.00414
781.275	0.00533
790.919	0.00933
800.564	0.01531
810.209	0.01903
819.854	0.03185
829.498	0.05603
839.143	0.05571
848.788	0.03108
858.433	0.01644
868.078	0.01403
877.722	0.01424
887.367	0.01053
897.012	0.00764
906.657	0.00748
916.301	0.00696
925.946	0.00875
935.591	0.01688
945.236	0.04571
954.88	0.0613
964.525	0.03906
974.17	0.03426
983.815	0.02858
993.46	0.02921
1003.1	0.04122
1012.75	0.0546
1022.39	0.06138
1032.04	0.05309
1041.68	0.0341
1051.33	0.02539
1060.97	0.03452
1070.62	0.03714
1080.26	0.02647
1089.91	0.01806
1099.55	0.01962
1109.2	0.02393
1118.84	0.02416
1128.49	0.02046
1138.13	0.02022
1147.78	0.02526
1157.42	0.05147
1167.07	0.21096
1176.71	0.17156
1186.36	0.04709
1196	0.03563
1205.64	0.05065
1215.29	0.09881
1224.93	0.17877
1234.58	0.2747
1244.22	0.43781
1253.87	0.45992
1263.51	0.28524
1273.16	0.13457
1282.8	0.08771
1292.45	0.09106
1302.09	0.08857
1311.74	0.07104
1321.38	0.04092
1331.03	0.03062
1340.67	0.03428
1350.32	0.06039
1359.96	0.10841
1369.61	0.06245
1379.25	0.03765
1388.9	0.03938
1398.54	0.03193
1408.18	0.03951
1417.83	0.04516
1427.47	0.02995
1437.12	0.02658
1446.76	0.02423
1456.41	0.02659
1466.05	0.03876
1475.7	0.04944
1485.34	0.03309
1494.99	0.04914
1504.63	0.11776
1514.28	0.06812
1523.92	0.02518
1533.57	0.01927
1543.21	0.01845
1552.86	0.02174
1562.5	0.03497
1572.15	0.07013
1581.79	0.09509
1591.44	0.16836
1601.08	0.27888
1610.73	0.16289
1620.37	0.05191
1630.01	0.02542
1639.66	0.0186
1649.3	0.01749
1658.95	0.01953
1668.59	0.02409
1678.24	0.04352
1687.88	0.11594
1697.53	0.26474
1707.17	0.14899
1716.82	0.04649
1726.46	0.02155
1736.11	0.01401
1745.75	0.01138
1755.4	0.00992
1765.04	0.00807
1774.69	0.00574
1784.33	0.00382
1793.98	0.00334
1803.62	0.00338
1813.27	0.00309
1822.91	0.00282
1832.55	0.00284
1842.2	0.0029
1851.84	0.00329
1861.49	0.0035
1871.13	0.00355
1880.78	0.00396
1890.42	0.0046
1900.07	0.00474
1909.71	0.00428
1919.36	0.00401
1929	0.00447
1938.65	0.0047
1948.29	0.00439
1957.94	0.00388
1967.58	0.00357
1977.23	0.00353
1986.87	0.00355
1996.52	0.00355
2006.16	0.00372
2015.81	0.00411
2025.45	0.00416
2035.1	0.00419
2044.74	0.00426
2054.38	0.00404
2064.03	0.00348
2073.67	0.00321
2083.32	0.00271
2092.96	0.0023
2102.61	0.0021
2112.25	0.00184
2121.9	0.00174
2131.54	0.00155
2141.19	0.00137
2150.83	0.00129
2160.48	0.00133
2170.12	0.00154
2179.77	0.00166
2189.41	0.00161
2199.06	0.00161
2208.7	0.00149
2218.35	0.00133
2227.99	0.00115
2237.64	0.00113
2247.28	0.00122
2256.92	0.00116
2266.57	0.00135
2276.21	0.00137
2285.86	0.00163
2295.5	0.00183
2305.15	0.00186
2314.79	0.00196
2324.44	0.00194
2334.08	0.00191
2343.73	0.00183
2353.37	0.00156
2363.02	0.00164
2372.66	0.00187
2382.31	0.00219
2391.95	0.00241
2401.6	0.00269
2411.24	0.00288
2420.89	0.0029
2430.53	0.00263
2440.18	0.0024
2449.82	0.00216
2459.47	0.00243
2469.11	0.0028
2478.75	0.00302
2488.4	0.00309
2498.04	0.0031
2507.69	0.0032
2517.33	0.0037
2526.98	0.00416
2536.62	0.00471
2546.27	0.00506
2555.91	0.00503
2565.56	0.00487
2575.2	0.00449
2584.85	0.00415
2594.49	0.00359
2604.14	0.00317
2613.78	0.00265
2623.43	0.00235
2633.07	0.00204
2642.72	0.00195
2652.36	0.00197
2662.01	0.00187
2671.65	0.00207
2681.29	0.0021
2690.94	0.00206
2700.58	0.00224
2710.23	0.00256
2719.87	0.00275
2729.52	0.00314
2739.16	0.00377
2748.81	0.00464
2758.45	0.00488
2768.1	0.00485
2777.74	0.00444
2787.39	0.0044
2797.03	0.00482
2806.68	0.00552
2816.32	0.00658
2825.97	0.00798
2835.61	0.01043
2845.26	0.01499
2854.9	0.02182
2864.55	0.03023
2874.19	0.04567
2883.84	0.05971
2893.48	0.05376
2903.12	0.05072
2912.77	0.05966
2922.41	0.06992
2932.06	0.08346
2941.7	0.10445
2951.35	0.10473
2960.99	0.1106
2970.64	0.12269
2980.28	0.07937
2989.93	0.04041
2999.57	0.02629
3009.22	0.02428
3018.86	0.02037
3028.51	0.01478
3038.15	0.01591
3047.8	0.02011
3057.44	0.01653
3067.09	0.0152
3076.73	0.0171
3086.38	0.01496
3096.02	0.01403
3105.67	0.01153
3115.31	0.00826
3124.95	0.00555
3134.6	0.00407
3144.24	0.00361
3153.89	0.00302
3163.53	0.00247
3173.18	0.00202
3182.82	0.00214
3192.47	0.00208
3202.11	0.00184
3211.76	0.00146
3221.4	0.00127
3231.05	0.00112
3240.69	0.0008521
3250.34	0.0007025
3259.98	0.0007465
3269.63	0.0007794
3279.27	0.0007636
3288.92	0.0005896
3298.56	0.0005927
3308.21	0.0007282
3317.85	0.0005915
3327.49	0.0005908
3337.14	0.0008341
3346.78	0.0009908
3356.43	0.00135
3366.07	0.00276
3375.72	0.00464
3385.36	0.00432
3395.01	0.00245
3404.65	0.00137
3414.3	0.0007182
3423.94	0.0007369
3433.59	0.0006827
3443.23	0.0003679
3452.88	0.0004595
3462.52	0.0003227
3472.17	0.0003378
3481.81	0.0003755
3491.46	0.0004026
3501.1	0.0003311
3510.75	0.0004306
3520.39	0.0004847
3530.04	0.0001957
3539.68	0.0001613
3549.32	0.0002774
3558.97	0.0004503
3568.61	0.000394
3578.26	0.0001981
3587.9	0.0003977
3597.55	0.000485
3607.19	0.0004241
3616.84	0.0004495
3626.48	0.0003673
3636.13	0.0003436
3645.77	0.0004646
3655.42	0.0004086
3665.06	0.0005352
3674.71	0.0005646
3684.35	0.0005908
3694	0.0004734
3703.64	0.0005508
3713.29	0.0006667
3722.93	0.0005931
3732.58	0.0005373
3742.22	0.0005
3751.86	0.0004004
3761.51	0.0006311
3771.15	0.0005606
3780.8	0.0006674
3790.44	0.0004243
3800.09	0.0003931
3809.73	0.0005634
3819.38	0.0004752
3829.02	0.0004639
3838.67	0.000566
3848.31	0.0005083
3857.96	0.0008586
3867.6	0.0006376
3877.25	0.0008985
3886.89	0.0009181
3896.54	0.0007211
3906.18	0.0007546
3915.83	0.0008157
3925.47	0.0007831
3935.12	0.0008721
3944.76	0.0008768
3954.41	0.0008517
3964.05	0.0009039
3973.69	0.0007986
3983.34	0.0008168
3992.98	0.00103
