Infrared Spectrum: p-Hexyloxybenzaldehyde
Formula: C 13 H 18 O 2
CAS: 5736-94-7
State: gas
Origin: EPA-IR VAPOR PHASE LIBRARY
1/CM	ABSORBANCE
549.8	0.0009038
559.445	0.0009872
569.09	0.0010994
578.734	0.001316
588.379	0.003016
598.024	0.004936
607.669	0.007516
617.313	0.009516
626.958	0.004136
636.603	0.003576
646.248	0.005556
655.893	0.003776
665.537	0.001676
675.182	0.0009202
684.827	0.0008715
694.472	0.000957
704.116	0.001326
713.761	0.001396
723.406	0.001806
733.051	0.002146
742.695	0.002486
752.34	0.002626
761.985	0.002766
771.63	0.002936
781.275	0.003006
790.919	0.003686
800.564	0.005856
810.209	0.009646
819.854	0.016346
829.498	0.021216
839.143	0.018866
848.788	0.017926
858.433	0.013746
868.078	0.006576
877.722	0.003376
887.367	0.002496
897.012	0.002356
906.657	0.002336
916.301	0.002656
925.946	0.003936
935.591	0.004906
945.236	0.004856
954.88	0.004136
964.525	0.003936
974.17	0.004046
983.815	0.004516
993.46	0.006736
1003.1	0.011576
1012.75	0.016766
1022.39	0.018076
1032.04	0.014946
1041.68	0.012116
1051.33	0.010876
1060.97	0.008116
1070.62	0.006136
1080.26	0.005426
1089.91	0.004226
1099.55	0.004896
1109.2	0.005696
1118.84	0.005216
1128.49	0.005346
1138.13	0.006736
1147.78	0.017616
1157.42	0.081246
1167.07	0.041366
1176.71	0.009816
1186.36	0.009386
1196	0.018726
1205.64	0.035366
1215.29	0.038866
1224.93	0.048046
1234.58	0.060306
1244.22	0.086056
1253.87	0.088426
1263.51	0.051416
1273.16	0.025806
1282.8	0.019486
1292.45	0.025736
1302.09	0.035446
1311.74	0.024066
1321.38	0.013276
1331.03	0.008586
1340.67	0.006706
1350.32	0.005916
1359.96	0.004946
1369.61	0.005296
1379.25	0.008846
1388.9	0.014236
1398.54	0.008376
1408.18	0.005636
1417.83	0.006526
1427.47	0.007926
1437.12	0.005636
1446.76	0.006156
1456.41	0.007966
1466.05	0.011986
1475.7	0.015466
1485.34	0.009016
1494.99	0.013966
1504.63	0.038936
1514.28	0.025766
1523.92	0.007396
1533.57	0.004706
1543.21	0.004356
1552.86	0.005156
1562.5	0.008866
1572.15	0.021746
1581.79	0.038806
1591.44	0.056626
1601.08	0.095796
1610.73	0.053576
1620.37	0.017476
1630.01	0.007696
1639.66	0.005056
1649.3	0.004376
1658.95	0.004546
1668.59	0.005786
1678.24	0.008376
1687.88	0.011436
1697.53	0.020506
1707.17	0.051676
1716.82	0.121676
1726.46	0.049986
1736.11	0.011816
1745.75	0.004826
1755.4	0.002896
1765.04	0.002386
1774.69	0.001936
1784.33	0.001536
1793.98	0.001386
1803.62	0.001296
1813.27	0.0011207
1822.91	0.0010292
1832.55	0.0009241
1842.2	0.0009422
1851.84	0.0009563
1861.49	0.0010223
1871.13	0.0010469
1880.78	0.001216
1890.42	0.001556
1900.07	0.001566
1909.71	0.001256
1919.36	0.0010335
1929	0.0009949
1938.65	0.0010189
1948.29	0.0009826
1957.94	0.0011096
1967.58	0.001206
1977.23	0.001336
1986.87	0.001356
1996.52	0.001566
2006.16	0.001816
2015.81	0.001956
2025.45	0.001576
2035.1	0.001376
2044.74	0.001316
2054.38	0.001286
2064.03	0.001117
2073.67	0.0010315
2083.32	0.0010064
2092.96	0.0008861
2102.61	0.0008413
2112.25	0.0007149
2121.9	0.0006309
2131.54	0.000618
2141.19	0.000525
2150.83	0.0004744
2160.48	0.0004888
2170.12	0.0004075
2179.77	0.0003936
2189.41	0.0003603
2199.06	0.0003694
2208.7	0.0004649
2218.35	0.0003922
2227.99	0.0004182
2237.64	0.0004435
2247.28	0.0005076
2256.92	0.000609
2266.57	0.0005928
2276.21	0.0006692
2285.86	0.0006367
2295.5	0.0005583
2305.15	0.0006262
2314.79	0.0006812
2324.44	0.0006112
2334.08	0.0004573
2343.73	0.0004705
2353.37	0.0005988
2363.02	0.0005317
2372.66	0.0004921
2382.31	0.0005842
2391.95	0.000753
2401.6	0.0008244
2411.24	0.0009675
2420.89	0.0009652
2430.53	0.0009622
2440.18	0.0008816
2449.82	0.0011308
2459.47	0.0011421
2469.11	0.0010464
2478.75	0.0010314
2488.4	0.0010471
2498.04	0.0011355
2507.69	0.001226
2517.33	0.001216
2526.98	0.0011663
2536.62	0.001446
2546.27	0.001606
2555.91	0.001806
2565.56	0.001736
2575.2	0.001786
2584.85	0.001646
2594.49	0.001526
2604.14	0.001556
2613.78	0.001306
2623.43	0.001296
2633.07	0.0011917
2642.72	0.001256
2652.36	0.001426
2662.01	0.001736
2671.65	0.002446
2681.29	0.003816
2690.94	0.005036
2700.58	0.007056
2710.23	0.011286
2719.87	0.016966
2729.52	0.017096
2739.16	0.010656
2748.81	0.006716
2758.45	0.005376
2768.1	0.005336
2777.74	0.006756
2787.39	0.009906
2797.03	0.011806
2806.68	0.012366
2816.32	0.013466
2825.97	0.011316
2835.61	0.008596
2845.26	0.009326
2854.9	0.013636
2864.55	0.019776
2874.19	0.022566
2883.84	0.022636
2893.48	0.020026
2903.12	0.021086
2912.77	0.026966
2922.41	0.036306
2932.06	0.048566
2941.7	0.053246
2951.35	0.045416
2960.99	0.040936
2970.64	0.038116
2980.28	0.021096
2989.93	0.011016
2999.57	0.007326
3009.22	0.005516
3018.86	0.004906
3028.51	0.005146
3038.15	0.005476
3047.8	0.003696
3057.44	0.002996
3067.09	0.003476
3076.73	0.004476
3086.38	0.003526
3096.02	0.003296
3105.67	0.002926
3115.31	0.001896
3124.95	0.001516
3134.6	0.0010703
3144.24	0.000869
3153.89	0.0008576
3163.53	0.0009135
3173.18	0.0007934
3182.82	0.0007236
3192.47	0.0005625
3202.11	0.000533
3211.76	0.00049
3221.4	0.0004129
3231.05	0.00029465
3240.69	0.0004013
3250.34	0.0003458
3259.98	0.00025643
3269.63	0.00025233
3279.27	0.0001938
3288.92	0.00028475
3298.56	0.00027483
3308.21	0.0004213
3317.85	0.00020702
3327.49	0.0003226
3337.14	2.7e-05
3346.78	0.000401
3356.43	0.0004859
3366.07	0.0004404
3375.72	0.0005276
3385.36	0.0006313
3395.01	0.0009643
3404.65	0.001236
3414.3	0.001616
3423.94	0.001376
3433.59	0.0007078
3443.23	0.0005119
3452.88	0.00027596
3462.52	0.00027316
3472.17	0.00030477
3481.81	0.0003211
3491.46	0.00029855
3501.1	0.0001518
3510.75	0.0001688
3520.39	0.0001854
3530.04	6.8e-05
3539.68	0.0003871
3549.32	0.00024606
3558.97	0.00029001
3568.61	0.00029019
3578.26	0.0002194
3587.9	2.5e-05
3597.55	0.00022094
3607.19	9.9e-05
3616.84	0.000208493
3626.48	0.0003152
3636.13	0.0003414
3645.77	0.00019873
3655.42	0.00029807
3665.06	0.0003582
3674.71	0.0005661
3684.35	0.0003766
3694	0.00047
3703.64	0.0003481
3713.29	0.0003376
3722.93	0.0003857
3732.58	0.00029362
3742.22	0.0003273
3751.86	0.00024619
3761.51	0.0003965
3771.15	0.0003812
3780.8	0.0004195
3790.44	0.00029299
3800.09	0.0003169
3809.73	0.0003766
3819.38	0.0004811
3829.02	0.0004365
3838.67	0.0004551
3848.31	0.00023037
3857.96	0.0003264
3867.6	0.0003686
3877.25	0.00025493
3886.89	0.000377
3896.54	0.00026192
3906.18	0.0003235
3915.83	0.000662
3925.47	0.0003563
3935.12	0.0003486
3944.76	0.0004595
3954.41	0.0004956
3964.05	0.0005898
3973.69	0.0001861
3983.34	0.0005374
3992.98	0.0007245
