Infrared Spectrum: p-Propoxybenzaldehyde
Formula: C 10 H 12 O 2
CAS: 5736-85-6
State: gas
Origin: EPA-IR VAPOR PHASE LIBRARY
1/CM	ABSORBANCE
549.8	0.00164
559.445	0.00122
569.09	0.0012
578.734	0.00231
588.379	0.00428
598.024	0.00782
607.669	0.01207
617.313	0.01288
626.958	0.00613
636.603	0.00494
646.248	0.0073
655.893	0.00525
665.537	0.00168
675.182	0.0009472
684.827	0.00106
694.472	0.0009861
704.116	0.0008131
713.761	0.0009847
723.406	0.00114
733.051	0.00121
742.695	0.00199
752.34	0.00201
761.985	0.00268
771.63	0.00361
781.275	0.00474
790.919	0.00724
800.564	0.01113
810.209	0.01481
819.854	0.02297
829.498	0.02912
839.143	0.028
848.788	0.02989
858.433	0.02087
868.078	0.00737
877.722	0.00446
887.367	0.00364
897.012	0.00347
906.657	0.0038
916.301	0.00363
925.946	0.00313
935.591	0.00305
945.236	0.00376
954.88	0.00577
964.525	0.0122
974.17	0.02481
983.815	0.02436
993.46	0.01442
1003.1	0.01385
1012.75	0.01553
1022.39	0.01276
1032.04	0.01124
1041.68	0.01529
1051.33	0.01698
1060.97	0.01713
1070.62	0.01256
1080.26	0.00682
1089.91	0.00633
1099.55	0.008
1109.2	0.00951
1118.84	0.00881
1128.49	0.00862
1138.13	0.01064
1147.78	0.02786
1157.42	0.10757
1167.07	0.07256
1176.71	0.01361
1186.36	0.01301
1196	0.026
1205.64	0.0462
1215.29	0.05671
1224.93	0.07678
1234.58	0.09221
1244.22	0.11369
1253.87	0.12499
1263.51	0.0816
1273.16	0.04033
1282.8	0.03143
1292.45	0.03745
1302.09	0.0477
1311.74	0.03401
1321.38	0.01919
1331.03	0.01167
1340.67	0.00878
1350.32	0.00752
1359.96	0.00609
1369.61	0.00655
1379.25	0.01114
1388.9	0.01948
1398.54	0.01505
1408.18	0.0082
1417.83	0.00902
1427.47	0.01034
1437.12	0.00671
1446.76	0.00669
1456.41	0.00917
1466.05	0.01429
1475.7	0.01909
1485.34	0.01382
1494.99	0.02125
1504.63	0.05272
1514.28	0.03721
1523.92	0.01109
1533.57	0.00722
1543.21	0.00668
1552.86	0.00757
1562.5	0.01279
1572.15	0.0326
1581.79	0.05612
1591.44	0.08435
1601.08	0.1319
1610.73	0.08422
1620.37	0.02833
1630.01	0.01183
1639.66	0.00738
1649.3	0.00641
1658.95	0.00651
1668.59	0.00806
1678.24	0.01139
1687.88	0.0165
1697.53	0.03148
1707.17	0.08134
1716.82	0.16795
1726.46	0.08945
1736.11	0.01796
1745.75	0.00671
1755.4	0.00408
1765.04	0.00324
1774.69	0.00256
1784.33	0.00188
1793.98	0.0019
1803.62	0.0018
1813.27	0.00153
1822.91	0.00133
1832.55	0.00124
1842.2	0.00121
1851.84	0.00131
1861.49	0.00143
1871.13	0.00143
1880.78	0.00163
1890.42	0.00216
1900.07	0.00217
1909.71	0.00173
1919.36	0.0015
1929	0.00143
1938.65	0.0015
1948.29	0.00161
1957.94	0.00165
1967.58	0.00159
1977.23	0.0016
1986.87	0.00177
1996.52	0.00205
2006.16	0.00247
2015.81	0.0025
2025.45	0.00188
2035.1	0.00162
2044.74	0.00162
2054.38	0.00148
2064.03	0.00141
2073.67	0.00122
2083.32	0.00117
2092.96	0.00107
2102.61	0.0008891
2112.25	0.0008139
2121.9	0.0005473
2131.54	0.0005854
2141.19	0.0004659
2150.83	0.0004235
2160.48	0.0004546
2170.12	0.0003568
2179.77	0.0003655
2189.41	0.0003439
2199.06	0.0003567
2208.7	0.0004173
2218.35	0.0004651
2227.99	0.0003804
2237.64	0.0004337
2247.28	0.000496
2256.92	0.0006043
2266.57	0.0007069
2276.21	0.0006316
2285.86	0.0006578
2295.5	0.0005463
2305.15	0.0005534
2314.79	0.0007353
2324.44	0.0006703
2334.08	0.0005051
2343.73	0.0003871
2353.37	0.0005247
2363.02	0.0005281
2372.66	0.0004372
2382.31	0.0005624
2391.95	0.0007951
2401.6	0.00106
2411.24	0.00119
2420.89	0.00117
2430.53	0.00114
2440.18	0.00124
2449.82	0.00141
2459.47	0.00125
2469.11	0.00132
2478.75	0.00104
2488.4	0.00125
2498.04	0.0014
2507.69	0.00165
2517.33	0.00149
2526.98	0.00147
2536.62	0.00168
2546.27	0.00207
2555.91	0.00221
2565.56	0.00218
2575.2	0.00211
2584.85	0.00211
2594.49	0.00202
2604.14	0.00171
2613.78	0.00172
2623.43	0.00139
2633.07	0.00132
2642.72	0.00136
2652.36	0.00147
2662.01	0.00196
2671.65	0.00315
2681.29	0.00491
2690.94	0.00688
2700.58	0.01003
2710.23	0.0166
2719.87	0.02479
2729.52	0.02462
2739.16	0.016
2748.81	0.00956
2758.45	0.0073
2768.1	0.00734
2777.74	0.0095
2787.39	0.0138
2797.03	0.01667
2806.68	0.0172
2816.32	0.0178
2825.97	0.01432
2835.61	0.00922
2845.26	0.00723
2854.9	0.00755
2864.55	0.00954
2874.19	0.0126
2883.84	0.01727
2893.48	0.01929
2903.12	0.01757
2912.77	0.01774
2922.41	0.01958
2932.06	0.02279
2941.7	0.02644
2951.35	0.02859
2960.99	0.02924
2970.64	0.03483
2980.28	0.03528
2989.93	0.02303
2999.57	0.0114
3009.22	0.00757
3018.86	0.00635
3028.51	0.00681
3038.15	0.00737
3047.8	0.005
3057.44	0.00398
3067.09	0.00483
3076.73	0.00634
3086.38	0.00526
3096.02	0.00473
3105.67	0.00434
3115.31	0.00301
3124.95	0.00213
3134.6	0.00116
3144.24	0.00113
3153.89	0.00117
3163.53	0.0009944
3173.18	0.0008412
3182.82	0.0009242
3192.47	0.0006179
3202.11	0.0007835
3211.76	0.0005195
3221.4	0.0004088
3231.05	0.0004734
3240.69	0.0003891
3250.34	0.0002059
3259.98	0.0002788
3269.63	0.0002439
3279.27	0.0001003
3288.92	0.0001684
3298.56	0.0001205
3308.21	0.0003743
3317.85	0.0003003
3327.49	0.0002435
3337.14	0.000267
3346.78	0.0003651
3356.43	0.0004537
3366.07	0.0005129
3375.72	0.0005401
3385.36	0.0009406
3395.01	0.00124
3404.65	0.00194
3414.3	0.00219
3423.94	0.00172
3433.59	0.00109
3443.23	0.0007119
3452.88	0.0004097
3462.52	0.0001418
3472.17	0.0004268
3481.81	2.777e-05
3491.46	0.0004769
3501.1	0.0003491
3510.75	0.0003819
3520.39	0.0003299
3530.04	0.0003999
3539.68	0.0003069
3549.32	0.000305
3558.97	0.0002246
3568.61	0.0001253
3578.26	0.0004174
3587.9	0.0004352
3597.55	9.942e-05
3607.19	4.895e-05
3616.84	9.135e-05
3626.48	0.0002659
3636.13	0.0003355
3645.77	0.0002472
3655.42	0.0002283
3665.06	0.0002482
3674.71	0.0001593
3684.35	0.0005615
3694	0.0003584
3703.64	0.0003789
3713.29	0.0003572
3722.93	0.0003491
3732.58	0.000372
3742.22	0.000176
3751.86	0.0004567
3761.51	0.0003588
3771.15	0.000276
3780.8	0.0003448
3790.44	0.0002853
3800.09	0.0005385
3809.73	0.00029
3819.38	0.0001624
3829.02	0.0004215
3838.67	0.0005243
3848.31	0.0005332
3857.96	0.0006107
3867.6	0.0004264
3877.25	0.0005525
3886.89	0.0005339
3896.54	0.0004114
3906.18	0.0002766
3915.83	0.0004233
3925.47	0.0002616
3935.12	0.0003309
3944.76	0.0004214
3954.41	0.0001957
3964.05	0.0003478
3973.69	0.0005283
3983.34	0.0003142
3992.98	0.000281
