Infrared Spectrum: Benzoin acetate
Formula: C 16 H 14 O 3
CAS: 574-06-1
State: gas
Instrument: HP-GC/MS/IRD
Origin: NIST Mass Spectrometry Data Center
1/CM	ABSORBANCE
550	0.0034553
562	0.0008242
574	0.0070057
586	0.0127434
598	0.0097002
610	0.0124898
622	0.0103976
634	0.0082737
646	0.0077348
658	0.0099855
670	0.0194321
682	0.0392763
694	0.078616
706	0.0404492
718	0.021873
730	0.0173082
742	0.0230142
754	0.0261208
766	0.0176252
778	0.007608
790	0.0037089
802	0.0020922
814	0.0032334
826	0.0074812
838	0.008559
850	0.0109682
862	0.0097953
874	0.0059279
886	0.00634
898	0.0098587
910	0.0150258
922	0.0199393
934	0.0197491
946	0.0170863
958	0.0274839
970	0.0416538
982	0.0245358
994	0.0218413
1006	0.0315732
1018	0.0303052
1030	0.0353455
1042	0.0380717
1054	0.0476768
1066	0.0384521
1078	0.03487
1090	0.0233312
1102	0.0162621
1114	0.0102391
1126	0.0066253
1138	0.0064351
1150	0.0088443
1162	0.0147088
1174	0.034553
1186	0.0588035
1198	0.0707227
1210	0.161924
1222	0.306761
1234	0.22843
1246	0.0886649
1258	0.0547142
1270	0.0379449
1282	0.024726
1294	0.018386
1306	0.0139797
1318	0.0128068
1330	0.0135676
1342	0.0154696
1354	0.019337
1366	0.043429
1378	0.0566479
1390	0.0200661
1402	0.0080201
1414	0.005706
1426	0.0070057
1438	0.0113803
1450	0.0200978
1462	0.0090979
1474	0.005706
1486	0.0080518
1498	0.0129019
1510	0.0056743
1522	0.0040576
1534	0.0040259
1546	0.0035504
1558	0.0035821
1570	0.005706
1582	0.0097953
1594	0.0130604
1606	0.0108731
1618	0.0052939
1630	0.0040259
1642	0.0043429
1654	0.0054207
1666	0.0077031
1678	0.0128068
1690	0.0252966
1702	0.0507517
1714	0.106861
1726	0.0627343
1738	0.0395299
1750	0.064985
1762	0.140082
1774	0.0916447
1786	0.034553
1798	0.0195906
1810	0.0130604
1822	0.0089394
1834	0.0068789
1846	0.0040893
1858	0.002853
1870	0.0028213
1882	0.0032334
1894	0.0033919
1906	0.0027579
1918	0.0018703
1930	0.0018386
1942	0.0031066
1954	0.0038674
1966	0.0033602
1978	0.0016484
1990	0.0011095
2002	0.0009193
2014	0.0007925
2026	0.0006023
2038	0.0004755
2050	0.0005389
2062	0.0005389
2074	0.0005072
2086	0.0004438
2098	0.0004438
2110	0.0005706
2122	0.0008559
2134	0.000951
2146	0.0010144
2158	0.0009193
2170	0.0007608
2182	0.0005706
2194	0.0004755
2206	0.0004121
2218	0.0003487
2230	0.0003487
2242	0.0002853
2254	0.0002853
2266	0.0002853
2278	0.0003804
2290	0.0004121
2302	0.0003487
2314	0.0008242
2326	0.0006657
2338	0.0007291
2350	0.0006657
2362	0.0004121
2374	0.0004438
2386	0.0004438
2398	0.0005072
2410	0.0006657
2422	0.0007291
2434	0.0008242
2446	0.0007925
2458	0.0006023
2470	0.0004121
2482	0.0003487
2494	0.000317
2506	0.000317
2518	0.0003487
2530	0.0003804
2542	0.0004121
2554	0.0004121
2566	0.0005389
2578	0.000634
2590	0.0007608
2602	0.0007608
2614	0.000634
2626	0.0005706
2638	0.0005389
2650	0.0004755
2662	0.0005072
2674	0.0005389
2686	0.0005072
2698	0.0005389
2710	0.0005706
2722	0.0005706
2734	0.0005706
2746	0.0005706
2758	0.0006023
2770	0.000634
2782	0.0007291
2794	0.0007925
2806	0.0008559
2818	0.0009193
2830	0.0008876
2842	0.0009827
2854	0.0013314
2866	0.0014582
2878	0.0014582
2890	0.001585
2902	0.0020288
2914	0.0027262
2926	0.0036772
2938	0.0052305
2950	0.007608
2962	0.0059596
2974	0.0045648
2986	0.0043429
2998	0.0044063
3010	0.0057694
3022	0.0100172
3034	0.0208586
3046	0.0211756
3058	0.0215243
3070	0.0411783
3082	0.0287836
3094	0.0195906
3106	0.0112852
3118	0.005706
3130	0.002536
3142	0.0017118
3154	0.0016484
3166	0.0014899
3178	0.0010144
3190	0.0006974
3202	0.0005389
3214	0.0004438
3226	0.0004121
3238	0.0003487
3250	0.0003804
3262	0.0003804
3274	0.0003487
3286	0.0003487
3298	0.0003804
3310	0.0003804
3322	0.0003804
3334	0.0004438
3346	0.0004121
3358	0.0004438
3370	0.0007291
3382	0.0008559
3394	0.0012363
3406	0.0015216
3418	0.0015216
3430	0.0011095
3442	0.0008876
3454	0.0006974
3466	0.0007608
3478	0.0008876
3490	0.0012363
3502	0.001585
3514	0.0015216
3526	0.0012997
3538	0.0009827
3550	0.0007925
3562	0.0005389
3574	0.000634
3586	0.0005389
3598	0.0004438
3610	0.0004755
3622	0.0004755
3634	0.0005072
3646	0.0006657
3658	0.0007925
3670	0.000634
3682	0.0006023
3694	0.0006023
3706	0.0006974
3718	0.0007608
3730	0.000634
3742	0.0005706
3754	0.0005389
3766	0.0005389
3778	0.0005389
3790	0.0004755
3802	0.0004755
3814	0.0005389
3826	0.0005389
3838	0.0005072
