Infrared Spectrum: DIPHENYL-METHYL-DIAZO-BENZENE
Formula: C19 H16 N2
CAS: 574-61-8
State: SOLID (1.0% IN KBr PELLET)
Class: COBLENTZ
Instrument: Not specified, most likely a prism, grating, or hybrid spectrometer.
Sampling: TRANSMISSION
Path length: 0.0355 CM
Resolution: 4
Origin: ANDERSON PHYSICAL LABORATORY
1/CM	TRANSMITTANCE
667.394	0.676
675.81	0.664
684.227	0.5891
692.643	0.193
701.06	0.224
709.476	0.7879
717.893	0.913
726.309	0.881
734.726	0.791
743.142	0.767
751.559	0.537
759.975	0.2687
768.392	0.583
776.808	0.455
785.225	0.6036
793.641	0.959
802.058	0.962
810.474	0.958
818.891	0.95
827.307	0.917
835.723	0.922
844.14	0.8901
852.556	0.901
860.973	0.94
869.389	0.92
877.806	0.881
886.222	0.805
894.639	0.845
903.055	0.899
911.472	0.866
919.888	0.845
928.305	0.88
936.721	0.884
945.138	0.877
953.554	0.851
961.971	0.785
970.387	0.738
978.803	0.778
987.22	0.823
995.636	0.766
1004.05	0.73
1012.47	0.8
1020.89	0.7581
1029.3	0.64
1037.72	0.803
1046.14	0.8
1054.55	0.752
1062.97	0.652
1071.38	0.378
1079.8	0.594
1088.22	0.754
1096.63	0.6811
1105.05	0.5251
1113.47	0.399
1121.88	0.2941
1130.3	0.4159
1138.72	0.785
1147.13	0.803
1155.55	0.73
1163.97	0.758
1172.38	0.64
1180.8	0.6249
1189.22	0.688
1197.63	0.679
1206.05	0.767
1214.46	0.75
1222.88	0.715
1231.3	0.597
1239.71	0.432
1248.13	0.182
1256.55	0.178
1264.96	0.6037
1273.38	0.778
1281.8	0.788
1290.21	0.7171
1298.63	0.628
1307.05	0.687
1315.46	0.522
1323.88	0.681
1332.3	0.705
1340.71	0.6401
1349.13	0.841
1357.54	0.862
1365.96	0.851
1374.38	0.829
1382.79	0.796
1391.21	0.773
1399.63	0.757
1408.04	0.755
1416.46	0.744
1424.88	0.652
1433.29	0.5441
1441.71	0.452
1450.13	0.327
1458.54	0.703
1466.96	0.609
1475.38	0.483
1483.79	0.299
1492.21	0.169
1500.62	0.167
1509.04	0.2321
1517.46	0.6189
1525.87	0.755
1534.29	0.763
1542.71	0.645
1551.12	0.535
1559.54	0.447
1567.96	0.491
1576.37	0.432
1584.79	0.353
1593.21	0.342
1601.62	0.137
1610.04	0.3296
1618.46	0.8139
1626.87	0.934
1635.29	0.964
1643.7	0.958
1652.12	0.94
1660.54	0.938
1668.95	0.944
1677.37	0.944
1685.79	0.934
1694.2	0.926
1702.62	0.919
1711.04	0.917
1719.45	0.923
1727.87	0.929
1736.29	0.931
1744.7	0.934
1753.12	0.929
1761.54	0.925
1769.95	0.931
1778.37	0.931
1786.78	0.928
1795.2	0.926
1803.62	0.919
1812.03	0.907
1820.45	0.917
1828.87	0.923
1837.28	0.923
1845.7	0.925
1854.12	0.934
1862.53	0.937
1870.95	0.935
1879.37	0.922
1887.78	0.92
1896.2	0.92
1904.62	0.92
1913.03	0.928
1921.45	0.931
1929.86	0.925
1938.28	0.904
1946.7	0.898
1955.11	0.89
1963.53	0.874
1971.95	0.901
1980.36	0.905
1988.78	0.905
1997.2	0.922
2005.61	0.92
2014.03	0.9162
2022.45	0.913
2030.86	0.9095
2039.28	0.9059
2047.7	0.9042
2056.11	0.9039
2064.53	0.8987
2072.94	0.896
2081.36	0.895
2089.78	0.8928
2098.19	0.89
2106.61	0.889
2115.03	0.8873
2123.44	0.886
2131.86	0.882
2140.28	0.8744
2148.69	0.8723
2157.11	0.871
2165.53	0.868
2173.94	0.8668
2182.36	0.866
2190.78	0.8625
2199.19	0.8552
2207.61	0.8517
2216.02	0.851
2224.44	0.851
2232.86	0.8506
2241.27	0.848
2249.69	0.8422
2258.11	0.835
2266.52	0.835
2274.94	0.833
2283.36	0.8274
2291.77	0.8225
2300.19	0.8147
2308.61	0.8113
2317.02	0.809
2325.44	0.808
2333.86	0.806
2342.27	0.8053
2350.69	0.805
2359.1	0.808
2367.52	0.808
2375.94	0.8037
2384.35	0.802
2392.77	0.8
2401.19	0.7995
2409.6	0.797
2418.02	0.7939
2426.44	0.788
2434.85	0.7859
2443.27	0.784
2451.69	0.781
2460.1	0.7787
2468.52	0.776
2476.94	0.776
2485.35	0.776
2493.77	0.774
2502.19	0.7678
2510.6	0.7643
2519.02	0.763
2527.43	0.761
2535.85	0.757
2544.27	0.7523
2552.68	0.7509
2561.1	0.7504
2569.52	0.7529
2577.93	0.754
2586.35	0.755
2594.77	0.7546
2603.18	0.751
2611.6	0.7482
2620.02	0.7418
2628.43	0.7402
2636.85	0.738
2645.27	0.7361
2653.68	0.735
2662.1	0.735
2670.51	0.735
2678.93	0.735
2687.35	0.733
2695.76	0.7306
2704.18	0.726
2712.6	0.724
2721.01	0.723
2729.43	0.723
2737.85	0.7237
2746.26	0.724
2754.68	0.7238
2763.1	0.722
2771.51	0.7185
2779.93	0.718
2788.35	0.718
2796.76	0.7175
2805.18	0.715
2813.59	0.7089
2822.01	0.7011
2830.43	0.6948
2838.84	0.686
2847.26	0.6788
2855.68	0.6741
2864.09	0.672
2872.51	0.6692
2880.93	0.6669
2889.34	0.6653
2897.76	0.6618
2906.18	0.661
2914.59	0.661
2923.01	0.66
2931.43	0.6539
2939.84	0.6484
2948.26	0.6421
2956.67	0.6284
2965.09	0.6182
2973.51	0.6039
2981.92	0.5906
2990.34	0.5766
2998.76	0.5641
3007.17	0.5523
3015.59	0.5463
3024.01	0.5421
3032.42	0.54
3040.84	0.538
3049.26	0.5422
3057.67	0.5772
3066.09	0.607
3074.51	0.6188
3082.92	0.6227
3091.34	0.628
3099.75	0.628
3108.17	0.628
3116.59	0.627
3125	0.623
3133.42	0.6182
3141.84	0.615
3150.25	0.6127
3158.67	0.61
3167.09	0.6067
3175.5	0.6009
3183.92	0.5977
3192.34	0.5959
3200.75	0.5924
3209.17	0.5878
3217.59	0.5821
3226	0.5773
3234.42	0.5715
3242.83	0.5586
3251.25	0.5504
3259.67	0.5315
3268.08	0.5233
3276.5	0.513
3284.92	0.4876
3293.33	0.4568
3301.75	0.4577
3310.17	0.4861
3318.58	0.5061
3327	0.5301
3335.42	0.537
3343.83	0.535
3352.25	0.5332
3360.67	0.5291
3369.08	0.5233
3377.5	0.5138
3385.91	0.511
3394.33	0.5103
3402.75	0.51
3411.16	0.507
3419.58	0.505
3428	0.505
3436.41	0.504
3444.83	0.504
3453.25	0.505
3461.66	0.508
3470.08	0.508
3478.5	0.5102
3486.91	0.511
3495.33	0.513
3503.75	0.516
3512.16	0.5175
3520.58	0.519
3528.99	0.5223
3537.41	0.5261
3545.83	0.5313
3554.24	0.5356
3562.66	0.5423
3571.08	0.544
3579.49	0.544
3587.91	0.544
3596.33	0.546
3604.74	0.5471
3613.16	0.549
3621.58	0.549
3629.99	0.549
3638.41	0.5488
3646.83	0.5467
3655.24	0.546
3663.66	0.544
3672.07	0.5428
3680.49	0.5393
3688.91	0.5374
3697.32	0.5353
3705.74	0.5349
3714.16	0.5332
3722.57	0.532
3730.99	0.532
3739.41	0.5307
3747.82	0.529
3756.24	0.5267
3764.66	0.525
3773.07	0.52
3781.49	0.5181
3789.91	0.5163
3798.32	0.5141
3806.74	0.513
3815.15	0.513
3823.57	0.511
3831.99	0.511
3840.4	0.513
3848.82	0.514
3857.24	0.514
3865.65	0.514
3874.07	0.513
3882.49	0.511
3890.9	0.5078
3899.32	0.505
3907.74	0.504
3916.15	0.504
3924.57	0.504
3932.99	0.502
3941.4	0.501
3949.82	0.5
3958.23	0.498
3966.65	0.497
3975.07	0.495
3983.48	0.495
