Infrared Spectrum: 9H-PURINE-6-THIOL, 9-Beta-D-RIBOFURANOSYL- (KETO FORM)
Formula: C10 H12 N4 O4 S
CAS: 574-25-4
State: SOLID (0.7 mg / 650 mg KBr DISC)
Melting point: 200 C DECOMPOSES
Class: COBLENTZ III
Instrument: PERKIN-ELMER 21 (GRATING)
Instrument parameters: FILTER CHANGE AT ABOUT 1070 CM^-^1
Sampling: TRANSMISSION
Resolution: 2
Origin: SOUTHERN RESEARCH INSTITUTE
1/CM	TRANSMITTANCE
608.677	0.81
617.753	0.8061
626.829	0.7991
635.906	0.7746
644.982	0.7125
654.058	0.7676
663.134	0.795
672.21	0.8056
681.286	0.816
690.363	0.8045
699.439	0.8
708.515	0.799
717.591	0.796
726.667	0.7847
735.744	0.7798
744.82	0.777
753.896	0.773
762.972	0.7638
772.048	0.7692
781.125	0.8
790.201	0.7756
799.277	0.7352
808.353	0.6557
817.429	0.6386
826.505	0.6741
835.582	0.6757
844.658	0.6664
853.734	0.6481
862.81	0.6287
871.886	0.6283
880.963	0.6158
890.039	0.6485
899.115	0.6672
908.191	0.6933
917.267	0.7072
926.343	0.712
935.42	0.709
944.496	0.6889
953.572	0.6111
962.648	0.5021
971.724	0.5454
980.801	0.5834
989.877	0.6331
998.953	0.6283
1008.03	0.5509
1017.11	0.4825
1026.18	0.407
1035.26	0.3533
1044.33	0.344
1053.41	0.3504
1062.49	0.3593
1071.56	0.366
1080.64	0.3809
1089.71	0.3834
1098.79	0.3627
1107.87	0.357
1116.94	0.3701
1126.02	0.4183
1135.1	0.526
1144.17	0.5867
1153.25	0.6169
1162.32	0.6781
1171.4	0.6404
1180.48	0.5185
1189.55	0.3891
1198.63	0.343
1207.71	0.363
1216.78	0.4506
1225.86	0.5564
1234.93	0.6287
1244.01	0.666
1253.09	0.6758
1262.16	0.6802
1271.24	0.7135
1280.31	0.7169
1289.39	0.704
1298.47	0.67
1307.54	0.6246
1316.62	0.5843
1325.7	0.5248
1334.77	0.4173
1343.85	0.5578
1352.92	0.6373
1362	0.659
1371.08	0.6517
1380.15	0.6153
1389.23	0.5633
1398.31	0.4991
1407.38	0.392
1416.46	0.3492
1425.53	0.4603
1434.61	0.5965
1443.69	0.6901
1452.76	0.7125
1461.84	0.7155
1470.91	0.6916
1479.99	0.6757
1489.07	0.7481
1498.14	0.7758
1507.22	0.7392
1516.3	0.6878
1525.37	0.5069
1534.45	0.457
1543.52	0.457
1552.6	0.453
1561.68	0.4351
1570.75	0.4093
1579.83	0.3729
1588.9	0.2487
1597.98	0.2093
1607.06	0.2656
1616.13	0.5289
1625.21	0.6612
1634.29	0.708
1643.36	0.7558
1652.44	0.7906
1661.51	0.8168
1670.59	0.8399
1679.67	0.8487
1688.74	0.851
1697.82	0.8528
1706.9	0.856
1715.97	0.8595
1725.05	0.86
1734.12	0.862
1743.2	0.8627
1752.28	0.865
1761.35	0.8696
1770.43	0.873
1779.5	0.8704
1788.58	0.866
1797.66	0.863
1806.73	0.855
1815.81	0.849
1824.89	0.844
1833.96	0.8371
1843.04	0.836
1852.11	0.836
1861.19	0.8403
1870.27	0.844
1879.34	0.844
1888.42	0.843
1897.5	0.8398
1906.57	0.8358
1915.65	0.834
1924.72	0.834
1933.8	0.8319
1942.88	0.83
1951.95	0.83
1961.03	0.826
1970.1	0.823
1979.18	0.817
1988.26	0.813
1997.33	0.812
2006.41	0.813
2015.49	0.817
2024.56	0.8219
2033.64	0.8319
2042.71	0.8339
2051.79	0.834
2060.87	0.832
2069.94	0.834
2079.02	0.834
2088.1	0.835
2097.17	0.838
2106.25	0.8351
2115.32	0.834
2124.4	0.834
2133.48	0.832
2142.55	0.831
2151.63	0.83
2160.7	0.8261
2169.78	0.825
2178.86	0.823
2187.93	0.819
2197.01	0.818
2206.09	0.817
2215.16	0.814
2224.24	0.8129
2233.31	0.8041
2242.39	0.801
2251.47	0.8
2260.54	0.796
2269.62	0.7921
2278.7	0.7881
2287.77	0.7811
2296.85	0.7731
2305.92	0.7522
2315	0.7441
2324.08	0.739
2333.15	0.739
2342.23	0.7351
2351.3	0.73
2360.38	0.724
2369.46	0.724
2378.53	0.7181
2387.61	0.713
2396.69	0.7052
2405.76	0.702
2414.84	0.6891
2423.91	0.6801
2432.99	0.6692
2442.07	0.664
2451.14	0.6581
2460.22	0.65
2469.29	0.6471
2478.37	0.6431
2487.45	0.6361
2496.52	0.6202
2505.6	0.6072
2514.68	0.6021
2523.75	0.5981
2532.83	0.593
2541.9	0.5851
2550.98	0.58
2560.06	0.573
2569.13	0.5621
2578.21	0.5591
2587.29	0.5531
2596.36	0.5461
2605.44	0.538
2614.51	0.5281
2623.59	0.5241
2632.67	0.5191
2641.74	0.515
2650.82	0.512
2659.89	0.511
2668.97	0.511
2678.05	0.511
2687.12	0.5071
2696.2	0.503
2705.28	0.502
2714.35	0.506
2723.43	0.5099
2732.5	0.5139
2741.58	0.516
2750.66	0.518
2759.73	0.518
2768.81	0.516
2777.89	0.505
2786.96	0.501
2796.04	0.498
2805.11	0.5
2814.19	0.501
2823.27	0.498
2832.34	0.4931
2841.42	0.4929
2850.49	0.494
2859.57	0.498
2868.65	0.498
2877.72	0.497
2886.8	0.492
2895.88	0.487
2904.95	0.481
2914.03	0.479
2923.1	0.4868
2932.18	0.4959
2941.26	0.5069
2950.33	0.5148
2959.41	0.527
2968.49	0.528
2977.56	0.534
2986.64	0.534
2995.71	0.5369
3004.79	0.538
3013.87	0.537
3022.94	0.5312
3032.02	0.529
3041.09	0.529
3050.17	0.529
3059.25	0.5281
3068.32	0.524
3077.4	0.5141
3086.48	0.5
3095.55	0.4812
3104.63	0.4751
3113.7	0.468
3122.78	0.4551
3131.86	0.4461
3140.93	0.439
3150.01	0.4301
3159.08	0.422
3168.16	0.4111
3177.24	0.4021
3186.31	0.3931
3195.39	0.3841
3204.47	0.3751
3213.54	0.3651
3222.62	0.3561
3231.69	0.3491
3240.77	0.3411
3249.85	0.335
3258.92	0.3271
3268	0.323
3277.08	0.319
3286.15	0.314
3295.23	0.3091
3304.3	0.306
3313.38	0.301
3322.46	0.294
3331.53	0.286
3340.61	0.286
3349.68	0.284
3358.76	0.284
3367.84	0.286
3376.91	0.286
3385.99	0.288
3395.07	0.291
3404.14	0.296
3413.22	0.301
3422.29	0.3168
3431.37	0.3298
3440.45	0.3489
3449.52	0.3648
3458.6	0.3879
3467.68	0.4089
3476.75	0.4268
3485.83	0.4478
3494.9	0.4759
3503.98	0.5029
3513.06	0.5327
3522.13	0.5599
3531.21	0.5797
3540.28	0.6008
3549.36	0.6288
3558.44	0.6599
3567.51	0.6819
3576.59	0.7046
3585.67	0.7248
3594.74	0.742
3603.82	0.7529
3612.89	0.7676
3621.97	0.7749
3631.05	0.7839
3640.12	0.79
3649.2	0.7911
3658.28	0.7861
3667.35	0.783
3676.43	0.782
3685.5	0.782
3694.58	0.786
3703.66	0.787
3712.73	0.7869
3721.81	0.786
3730.88	0.783
3739.96	0.783
3749.04	0.784
3758.11	0.786
3767.19	0.786
3776.27	0.779
3785.34	0.7781
3794.42	0.777
3803.49	0.773
3812.57	0.7681
3821.65	0.768
3830.72	0.768
3839.8	0.768
3848.88	0.768
3857.95	0.7651
3867.03	0.765
3876.1	0.766
3885.18	0.765
3894.26	0.761
3903.33	0.757
3912.41	0.755
3921.48	0.752
3930.56	0.752
3939.64	0.751
3948.71	0.75
3957.79	0.748
3966.87	0.748
3975.94	0.748
3985.02	0.748
3994.09	0.75
4003.17	0.751
