Infrared Spectrum: N-(2-Bromoethyl)phthalimide
Formula: C 10 H 8 Br N O 2
CAS: 574-98-1
State: gas
Origin: EPA-IR VAPOR PHASE LIBRARY
1/CM	ABSORBANCE
551.7	0.0021389
563.274	0.0014789
574.848	0.0025189
586.421	0.0029389
597.995	0.0052989
609.569	0.0040589
621.143	0.000754
632.717	0.000549
644.291	0.0006669
655.864	0.0009457
667.438	0.0009666
679.012	0.0019789
690.586	0.0037589
702.16	0.0117889
713.734	0.0418889
725.307	0.0253289
736.881	0.0082589
748.455	0.0036389
760.029	0.0025389
771.603	0.0020689
783.177	0.0035489
794.75	0.0023589
806.324	0.0010289
817.898	0.0011389
829.472	0.0019189
841.046	0.0036289
852.619	0.0037089
864.193	0.0051089
875.767	0.0032289
887.341	0.0023689
898.915	0.0021389
910.489	0.0031589
922.062	0.0056489
933.636	0.0045389
945.21	0.0049589
956.784	0.0093089
968.358	0.0154089
979.932	0.0106689
991.505	0.0044889
1003.08	0.0051189
1014.65	0.0043989
1026.23	0.0049889
1037.8	0.0045389
1049.37	0.0067989
1060.95	0.0160089
1072.52	0.0259389
1084.1	0.0230589
1095.67	0.0088289
1107.24	0.0040389
1118.82	0.0032789
1130.39	0.0023689
1141.97	0.0018989
1153.54	0.0033689
1165.11	0.0046589
1176.69	0.0066989
1188.26	0.0083689
1199.83	0.0071689
1211.41	0.0078589
1222.98	0.0145889
1234.56	0.0117389
1246.13	0.0074489
1257.7	0.0060289
1269.28	0.0050089
1280.85	0.0062389
1292.42	0.0081989
1304	0.0137889
1315.57	0.0289589
1327.15	0.0282089
1338.72	0.0324889
1350.29	0.0613989
1361.87	0.0592989
1373.44	0.0567889
1385.02	0.102399
1396.59	0.0725789
1408.16	0.0282289
1419.74	0.0169989
1431.31	0.0217689
1442.88	0.0232689
1454.46	0.0112589
1466.03	0.0094389
1477.61	0.0062089
1489.18	0.0032289
1500.75	0.0026289
1512.33	0.0024189
1523.9	0.0025389
1535.48	0.0021589
1547.05	0.0018889
1558.62	0.0020889
1570.2	0.0022589
1581.77	0.0027489
1593.34	0.0035589
1604.92	0.0045689
1616.49	0.0046489
1628.07	0.0026689
1639.64	0.0018689
1651.21	0.0021489
1662.79	0.0030889
1674.36	0.0048289
1685.93	0.0067989
1697.51	0.0114489
1709.08	0.0209789
1720.66	0.0565289
1732.23	0.206869
1743.8	0.206519
1755.38	0.0417789
1766.95	0.0210189
1778.53	0.0280089
1790.1	0.0355989
1801.67	0.0113789
1813.25	0.0047589
1824.82	0.0044489
1836.39	0.0040589
1847.97	0.0026989
1859.54	0.0018189
1871.12	0.0021089
1882.69	0.0018089
1894.26	0.0015289
1905.84	0.0016889
1917.41	0.0016189
1928.99	0.0015789
1940.56	0.0018689
1952.13	0.0012189
1963.71	0.0011589
1975.28	0.0012989
1986.85	0.0006717
1998.43	0.0005394
2010	0.0006042
2021.58	0.0006793
2033.15	0.0006113
2044.72	0.0005213
2056.3	0.0004751
2067.87	0.0004894
2079.44	0.0005077
2091.02	0.0004634
2102.59	0.0004338
2114.17	0.000383
2125.74	0.0003283
2137.31	0.0003783
2148.89	0.0004958
2160.46	0.0005034
2172.04	0.0004182
2183.61	0.0003569
2195.18	0.0003565
2206.76	0.000272
2218.33	0.000292
2229.9	0.0002821
2241.48	0.0003985
2253.05	0.0005091
2264.63	0.0005352
2276.2	0.0005537
2287.77	0.0006208
2299.35	0.0006364
2310.92	0.000622
2322.5	0.0008149
2334.07	0.0006972
2345.64	0.0007003
2357.22	0.0005998
2368.79	0.0005195
2380.36	0.0004341
2391.94	0.0004484
2403.51	0.0004112
2415.09	0.000466
2426.66	0.0004227
2438.23	0.0006729
2449.81	0.0007505
2461.38	0.0007214
2472.96	0.0005929
2484.53	0.0004117
2496.1	0.0002821
2507.68	0.0001638
2519.25	0.0001628
2530.82	0.0001573
2542.4	0.0002219
2553.97	0.0001509
2565.55	0.0001946
2577.12	0.0001347
2588.69	0.0002234
2600.27	0.000193
2611.84	0.0002633
2623.41	0.00035
2634.99	0.0004182
2646.56	0.0003343
2658.14	0.0003179
2669.71	0.0004206
2681.28	0.000418
2692.86	0.0004443
2704.43	0.0004214
2716.01	0.0002523
2727.58	0.0002353
2739.15	0.0001732
2750.73	0.0001576
2762.3	0.000214
2773.87	0.000308
2785.45	0.00043
2797.02	0.000379
2808.6	0.0003755
2820.17	0.0003305
2831.74	0.0003201
2843.32	0.0003994
2854.89	0.0006218
2866.47	0.0008063
2878.04	0.0008196
2889.61	0.0007583
2901.19	0.0009621
2912.76	0.0019689
2924.33	0.0045989
2935.91	0.0026789
2947.48	0.0018089
2959.06	0.0024589
2970.63	0.0034189
2982.2	0.0055989
2993.78	0.0020889
3005.35	0.0009575
3016.92	0.0007202
3028.5	0.0010167
3040.07	0.0014489
3051.65	0.0022189
3063.22	0.0039089
3074.79	0.0038889
3086.37	0.0060589
3097.94	0.0032389
3109.52	0.0008329
3121.09	0.000241
3132.66	0.0001264
3144.24	0.0002041
3155.81	8.879e-05
3167.38	0.0001521
3178.96	0.0002085
3190.53	0.000214
3202.11	0.0002537
3213.68	0.0002847
3225.25	0.0002601
3236.83	0.0002152
3248.4	4.081e-05
3259.98	3.341e-05
3271.55	2.0595e-05
3283.12	0.0001408
3294.7	7.291e-05
3306.27	7.786e-05
3317.84	9.8e-06
3329.42	0.00011557
3340.99	6.881e-05
3352.57	0.0001309
3364.14	0.0001738
3375.71	0.00011073
3387.29	0.00010567
3398.86	0.0001703
3410.43	9.455e-05
3422.01	0.00011183
3433.58	0.0002322
3445.16	0.0004751
3456.73	0.0006843
3468.3	0.0010589
3479.88	0.0010389
3491.45	0.0015889
3503.03	0.0024189
3514.6	0.0022589
3526.17	0.0010989
3537.75	0.000617
3549.32	0.0003951
3560.89	0.0003964
3572.47	0.0003831
3584.04	0.0004246
3595.62	0.0003184
3607.19	0.000249
3618.76	0.0002035
3630.34	0.0002756
3641.91	0.0002232
3653.49	0.0001229
3665.06	0.0001841
3676.63	0.0001515
3688.21	0.0002313
3699.78	0.0002078
3711.35	0.0001967
3722.93	0.00010154
3734.5	0.0002128
3746.08	0.0003149
3757.65	0.0002473
3769.22	0.0002543
3780.8	0.0001663
3792.37	0.0001834
3803.94	0.0001309
3815.52	0.0002122
3827.09	0.0001828
3838.67	0.0001834
3850.24	0.0001517
3861.81	0.0001797
3873.39	0.0002405
3884.96	0.0002216
3896.54	0.0001515
3908.11	0.0002212
3919.68	0.0001593
3931.26	0.0002957
3942.83	0.000244
3954.4	0.0002721
3965.98	0.0002364
3977.55	0.0001222
3989.13	0.000127
4000.7	0.0001725
