Infrared Spectrum: 1,2-Dihydroxynaphthalene
Formula: C 10 H 8 O 2
CAS: 574-00-5
State: gas
Instrument: HP-GC/MS/IRD
Origin: NIST Mass Spectrometry Data Center
1/CM	ABSORBANCE
550	0.000663
562	0.000537
574	3.6e-05
586	0.000178
598	0.000494
610	0.000279
622	9.1e-05
634	6e-06
646	0.000266
658	0.0004
670	0.000314
682	0.00026
694	0.001163
706	0.000848
718	0.000548
730	0.001529
742	0.001711
754	0.001026
766	0.000964
778	0.001646
790	0.003842
802	0.003477
814	0.001197
826	0.000346
838	0.000442
850	0.00055
862	0.000448
874	0.000344
886	0.000213
898	0.000212
910	0.000291
922	0.000718
934	0.002748
946	0.004613
958	0.002136
970	0.001062
982	0.000595
994	0.000327
1006	0.00017
1018	0.000249
1030	0.000277
1042	0.00027
1054	0.00064
1066	0.001673
1078	0.002394
1090	0.001368
1102	0.000497
1114	0.000534
1126	0.00082
1138	0.001725
1150	0.003628
1162	0.004993
1174	0.003391
1186	0.002696
1198	0.002693
1210	0.003465
1222	0.00479
1234	0.007534
1246	0.007878
1258	0.006079
1270	0.007423
1282	0.01
1294	0.005629
1306	0.001993
1318	0.001207
1330	0.001065
1342	0.001537
1354	0.002065
1366	0.002116
1378	0.003546
1390	0.004707
1402	0.003189
1414	0.001146
1426	0.000436
1438	0.000455
1450	0.000797
1462	0.001382
1474	0.003287
1486	0.002829
1498	0.000999
1510	0.001245
1522	0.001291
1534	0.000581
1546	0.000377
1558	0.000533
1570	0.000867
1582	0.001397
1594	0.002404
1606	0.003212
1618	0.002302
1630	0.002532
1642	0.002995
1654	0.002103
1666	0.001662
1678	0.002094
1690	0.002828
1702	0.002244
1714	0.001092
1726	0.000523
1738	0.000223
1750	0.000152
1762	0.00017
1774	0.000166
1786	0.000132
1798	0.000146
1810	0.000151
1822	0.000144
1834	0.000157
1846	0.000126
1858	0.000111
1870	0.000164
1882	0.000128
1894	9.9e-05
1906	0.000124
1918	0.000184
1930	0.000191
1942	0.000184
1954	0.000101
1966	6.6e-05
1978	7.3e-05
1990	3.9e-05
2002	5.8e-05
2014	2.8e-05
2026	8e-06
2038	7e-06
2050	4.6e-05
2062	2e-05
2074	5.7e-05
2086	4.3e-05
2098	2e-06
2110	4.8e-05
2122	3.6e-05
2134	4.7e-05
2146	6.6e-05
2158	4.1e-05
2170	5.5e-05
2182	8e-05
2194	6.9e-05
2206	7.6e-05
2218	0.000109
2230	8.9e-05
2242	7.4e-05
2254	4.8e-05
2266	1.3e-05
2278	8.8e-05
2290	8.5e-05
2302	7.9e-05
2314	6.7e-05
2326	4.4e-05
2338	6.6e-05
2350	8.7e-05
2362	5.3e-05
2374	1.3e-05
2386	8.3e-05
2398	9e-05
2410	0.000103
2422	5.4e-05
2434	7.7e-05
2446	8.8e-05
2458	8.1e-05
2470	5.1e-05
2482	7.4e-05
2494	9.1e-05
2506	7.4e-05
2518	8e-05
2530	0.000103
2542	0.00011
2554	8.2e-05
2566	9.7e-05
2578	7.8e-05
2590	3.2e-05
2602	5.6e-05
2614	7.4e-05
2626	6.4e-05
2638	8.2e-05
2650	4.2e-05
2662	8.9e-05
2674	7.7e-05
2686	5.6e-05
2698	4.5e-05
2710	4.9e-05
2722	7.7e-05
2734	3.6e-05
2746	1.6e-05
2758	1.5e-05
2770	6.2e-05
2782	3.1e-05
2794	3.7e-05
2806	6.1e-05
2818	2.3e-05
2830	5.7e-05
2842	8.9e-05
2854	2.3e-05
2866	3.1e-05
2878	7.5e-05
2890	5.6e-05
2902	6.7e-05
2914	6.5e-05
2926	0.000132
2938	9e-05
2950	0.00013
2962	0.000169
2974	0.000225
2986	0.000247
2998	0.000303
3010	0.000434
3022	0.000734
3034	0.000987
3046	0.001601
3058	0.002542
3070	0.002968
3082	0.001903
3094	0.000939
3106	0.000418
3118	0.000156
3130	0.000127
3142	7.2e-05
3154	1.8e-05
3166	0.00011
3178	9.1e-05
3190	8.8e-05
3202	1.4e-05
3214	7.4e-05
3226	7.1e-05
3238	5.7e-05
3250	5e-05
3262	7.7e-05
3274	7.8e-05
3286	0.000137
3298	0.000118
3310	6.3e-05
3322	6e-06
3334	5e-05
3346	0.00011
3358	0.000111
3370	0.000115
3382	9.8e-05
3394	0.000107
3406	0.000117
3418	9.2e-05
3430	9.4e-05
3442	0.000117
3454	0.000165
3466	0.00016
3478	0.000212
3490	0.000277
3502	0.000247
3514	0.000194
3526	0.000134
3538	0.000141
3550	0.000256
3562	0.000362
3574	0.000977
3586	0.003926
3598	0.006539
3610	0.002921
3622	0.001072
3634	0.001176
3646	0.001651
3658	0.002057
3670	0.001835
3682	0.000651
3694	0.000199
3706	0.000171
3718	0.000114
3730	0.000112
3742	0.000136
3754	0.00019
3766	0.000116
3778	0.000113
3790	0.000116
3802	0.000148
3814	9.7e-05
3826	6.5e-05
3838	7.8e-05
