Infrared Spectrum: CALCIUM LACTATE
Formula: C6 H10 Ca O6
CAS: 5743-47-5
State: SOLID (MINERAL OIL MULL)
Class: COBLENTZ
Instrument: Not specified, most likely a prism, grating, or hybrid spectrometer.
Sampling: TRANSMISSION
Resolution: 4
Origin: DOW CHEMICAL COMPANY
MICROMETERS	TRANSMITTANCE
2.034	0.774
2.07318	0.779
2.11235	0.782
2.15153	0.782
2.1907	0.782
2.22988	0.779
2.26905	0.77
2.30823	0.761
2.3474	0.777
2.38658	0.779
2.42576	0.782
2.46493	0.788
2.50411	0.796
2.54328	0.796
2.58246	0.791
2.62163	0.8
2.66081	0.791
2.69999	0.788
2.73916	0.748
2.77834	0.677
2.81751	0.598
2.85669	0.533
2.89586	0.479
2.93504	0.429
2.97421	0.406
3.01339	0.396
3.05257	0.38
3.09174	0.367
3.13092	0.35
3.17009	0.332
3.20927	0.382
3.24844	0.429
3.28762	0.416
3.32679	0.403
3.36597	0.172
3.40515	0.037
3.44432	0.095
3.4835	0.14
3.52267	0.395
3.56185	0.62
3.60102	0.67
3.6402	0.688
3.67937	0.709
3.71855	0.724
3.75773	0.741
3.7969	0.758
3.83608	0.785
3.87525	0.803
3.91443	0.811
3.9536	0.819
3.99278	0.837
4.03196	0.848
4.07113	0.85
4.11031	0.859
4.14948	0.854
4.18866	0.854
4.22783	0.859
4.26701	0.864
4.30618	0.874
4.34536	0.872
4.38454	0.877
4.42371	0.88
4.46289	0.879
4.50206	0.879
4.54124	0.883
4.58041	0.88
4.61959	0.883
4.65876	0.888
4.69794	0.89
4.73712	0.888
4.77629	0.885
4.81547	0.888
4.85464	0.891
4.89382	0.888
4.93299	0.891
4.97217	0.891
5.01134	0.896
5.05052	0.898
5.0897	0.901
5.12887	0.903
5.16805	0.898
5.20722	0.903
5.2464	0.898
5.28557	0.904
5.32475	0.896
5.36393	0.9
5.4031	0.891
5.44228	0.891
5.48145	0.89
5.52063	0.88
5.5598	0.874
5.59898	0.862
5.63815	0.861
5.67733	0.85
5.71651	0.848
5.75568	0.84
5.79486	0.819
5.83403	0.801
5.87321	0.787
5.91238	0.751
5.95156	0.712
5.99073	0.666
6.02991	0.603
6.06909	0.517
6.10826	0.427
6.14744	0.35
6.18661	0.254
6.22579	0.196
6.26496	0.151
6.30414	0.148
6.34331	0.188
6.38249	0.298
6.42167	0.498
6.46084	0.553
6.50002	0.679
6.53919	0.698
6.57837	0.712
6.61754	0.682
6.65672	0.611
6.6959	0.538
6.73507	0.487
6.77425	0.367
6.81342	0.274
6.8526	0.329
6.89177	0.398
6.93095	0.427
6.97012	0.454
7.0093	0.454
7.04848	0.401
7.08765	0.398
7.12683	0.466
7.166	0.485
7.20518	0.404
7.24435	0.379
7.28353	0.451
7.3227	0.529
7.36188	0.64
7.40106	0.682
7.44023	0.704
7.47941	0.69
7.51858	0.646
7.55776	0.622
7.59693	0.666
7.63611	0.717
7.67528	0.745
7.71446	0.737
7.75364	0.706
7.79281	0.662
7.83199	0.63
7.87116	0.624
7.91034	0.637
7.94951	0.667
7.98869	0.696
8.02787	0.737
8.06704	0.766
8.10622	0.796
8.14539	0.816
8.18457	0.825
8.22374	0.84
8.26292	0.853
8.30209	0.848
8.34127	0.879
8.38045	0.869
8.41962	0.874
8.4588	0.869
8.49797	0.866
8.53715	0.859
8.57632	0.859
8.6155	0.846
8.65467	0.829
8.69385	0.788
8.73303	0.706
8.7722	0.614
8.81138	0.529
8.85055	0.477
8.88973	0.475
8.9289	0.545
8.96808	0.677
9.00725	0.743
9.04643	0.756
9.08561	0.754
9.12478	0.738
9.16396	0.738
9.20313	0.767
9.24231	0.812
9.28148	0.84
9.32066	0.854
9.35984	0.856
9.39901	0.843
9.43819	0.804
9.47736	0.762
9.51654	0.735
9.55571	0.748
9.59489	0.796
9.63406	0.856
9.67324	0.879
9.71242	0.895
9.75159	0.906
9.79077	0.925
9.82994	0.927
9.86912	0.933
9.90829	0.941
9.94747	0.946
9.98664	0.948
10.0258	0.95
10.065	0.951
10.1042	0.956
10.1433	0.961
10.1825	0.961
10.2217	0.959
10.2609	0.948
10.3	0.958
10.3392	0.95
10.3784	0.951
10.4176	0.953
10.4568	0.95
10.4959	0.943
10.5351	0.932
10.5743	0.922
10.6135	0.893
10.6526	0.874
10.6918	0.864
10.731	0.87
10.7702	0.885
10.8093	0.898
10.8485	0.904
10.8877	0.908
10.9269	0.914
10.966	0.916
11.0052	0.909
11.0444	0.906
11.0836	0.898
11.1227	0.895
11.1619	0.888
11.2011	0.887
11.2403	0.88
11.2794	0.88
11.3186	0.867
11.3578	0.848
11.397	0.819
11.4361	0.795
11.4753	0.761
11.5145	0.735
11.5537	0.722
11.5928	0.719
11.632	0.727
11.6712	0.748
11.7104	0.777
11.7495	0.796
11.7887	0.804
11.8279	0.806
11.8671	0.806
11.9062	0.808
11.9454	0.806
11.9846	0.806
12.0238	0.806
12.063	0.804
12.1021	0.803
12.1413	0.803
12.1805	0.803
12.2197	0.798
12.2588	0.8
12.298	0.798
12.3372	0.796
12.3764	0.793
12.4155	0.788
12.4547	0.782
12.4939	0.777
12.5331	0.77
12.5722	0.762
12.6114	0.754
12.6506	0.746
12.6898	0.735
12.7289	0.72
12.7681	0.709
12.8073	0.696
12.8465	0.688
12.8856	0.687
12.9248	0.698
12.964	0.714
13.0032	0.733
13.0423	0.741
13.0815	0.75
13.1207	0.751
13.1599	0.754
13.199	0.756
13.2382	0.754
13.2774	0.75
13.3166	0.748
13.3557	0.746
13.3949	0.743
13.4341	0.738
13.4733	0.733
13.5124	0.73
13.5516	0.727
13.5908	0.724
13.63	0.717
13.6691	0.714
13.7083	0.706
13.7475	0.696
13.7867	0.691
13.8259	0.687
13.865	0.688
13.9042	0.696
13.9434	0.698
13.9826	0.698
14.0217	0.698
14.0609	0.696
14.1001	0.693
14.1393	0.687
14.1784	0.682
14.2176	0.674
14.2568	0.669
14.296	0.662
14.3351	0.656
14.3743	0.65
14.4135	0.646
14.4527	0.638
14.4918	0.632
14.531	0.627
14.5702	0.619
14.6094	0.614
14.6485	0.609
14.6877	0.604
14.7269	0.601
14.7661	0.595
14.8052	0.59
14.8444	0.582
14.8836	0.564
14.9228	0.558
14.9619	0.558
15.0011	0.564
15.0403	0.559
15.0795	0.548
15.1186	0.546
15.1578	0.545
15.197	0.54
15.2362	0.538
15.2753	0.535
15.3145	0.533
15.3537	0.527
15.3929	0.522
15.4321	0.519
15.4712	0.516
15.5104	0.512
15.5496	0.508
15.5888	0.504
15.6279	0.501
15.6671	0.496
15.7063	0.493
15.7455	0.49
15.7846	0.483
15.8238	0.477
15.863	0.479
