Infrared Spectrum: Imidazole-5(4)-carboxamide, N-methyl-4(5)-nitro-,
Formula: C5 H6 N4 O3
CAS: 57445-42-8
State: SOLID (0.8 mg / 650 mg KBr DISC)
Class: COBLENTZ III
Instrument: PERKIN-ELMER 21 (GRATING)
Instrument parameters: FILTER CHANGE ABOUT 1020 CM^-^1
Resolution: 2
Origin: SOUTHERN RESEARCH INSTITUTE
1/CM	TRANSMITTANCE
596.56	0.697
605.599	0.6968
614.639	0.6889
623.678	0.6699
632.717	0.6459
641.757	0.5646
650.796	0.4392
659.835	0.5208
668.875	0.6907
677.914	0.7204
686.953	0.7355
695.993	0.7489
705.032	0.7582
714.071	0.7627
723.111	0.7641
732.15	0.7614
741.189	0.7525
750.229	0.7153
759.268	0.7633
768.307	0.7614
777.347	0.73
786.386	0.6926
795.425	0.5155
804.465	0.7942
813.504	0.7968
822.543	0.7869
831.583	0.7702
840.622	0.7217
849.661	0.5758
858.701	0.7079
867.74	0.6795
876.779	0.5926
885.819	0.4581
894.858	0.5523
903.897	0.7309
912.937	0.7221
921.976	0.6447
931.015	0.5584
940.055	0.4895
949.094	0.3663
958.133	0.5596
967.173	0.8123
976.212	0.818
985.251	0.811
994.291	0.7927
1003.33	0.7457
1012.37	0.7115
1021.41	0.8364
1030.45	0.7856
1039.49	0.7785
1048.53	0.7739
1057.57	0.7661
1066.61	0.7521
1075.64	0.7341
1084.68	0.7058
1093.72	0.6053
1102.76	0.7274
1111.8	0.74
1120.84	0.7316
1129.88	0.7185
1138.92	0.7061
1147.96	0.7024
1157	0.6861
1166.04	0.659
1175.08	0.6475
1184.12	0.6303
1193.16	0.608
1202.2	0.5856
1211.23	0.5447
1220.27	0.5453
1229.31	0.5836
1238.35	0.5362
1247.39	0.4237
1256.43	0.2005
1265.47	0.6929
1274.51	0.6539
1283.55	0.5458
1292.59	0.4145
1301.63	0.3465
1310.67	0.4433
1319.71	0.244
1328.75	0.1686
1337.79	0.6002
1346.82	0.5819
1355.86	0.4254
1364.9	0.197
1373.94	0.2652
1382.98	0.6347
1392.02	0.6664
1401.06	0.5802
1410.1	0.4437
1419.14	0.3192
1428.18	0.4142
1437.22	0.2091
1446.26	0.4744
1455.3	0.55
1464.34	0.4427
1473.38	0.2673
1482.41	0.3171
1491.45	0.4051
1500.49	0.1708
1509.53	0.0828
1518.57	0.1031
1527.61	0.2428
1536.65	0.2469
1545.69	0.4411
1554.73	0.6021
1563.77	0.6773
1572.81	0.5617
1581.85	0.5256
1590.89	0.6675
1599.93	0.7613
1608.97	0.7648
1618	0.7162
1627.04	0.6457
1636.08	0.6084
1645.12	0.5673
1654.16	0.3749
1663.2	0.0963
1672.24	0.1123
1681.28	0.2966
1690.32	0.6628
1699.36	0.7841
1708.4	0.8092
1717.44	0.8397
1726.48	0.8373
1735.52	0.8194
1744.56	0.7894
1753.59	0.8286
1762.63	0.8322
1771.67	0.8191
1780.71	0.8132
1789.75	0.8115
1798.79	0.8006
1807.83	0.7888
1816.87	0.7908
1825.91	0.7941
1834.95	0.7886
1843.99	0.7829
1853.03	0.7823
1862.07	0.7859
1871.11	0.7901
1880.15	0.7926
1889.18	0.7951
1898.22	0.7968
1907.26	0.8003
1916.3	0.8039
1925.34	0.8063
1934.38	0.8078
1943.42	0.8092
1952.46	0.8159
1961.5	0.824
1970.54	0.8311
1979.58	0.8343
1988.62	0.8365
1997.66	0.8404
2006.7	0.8405
2015.74	0.8406
2024.77	0.8401
2033.81	0.8391
2042.85	0.8381
2051.89	0.8371
2060.93	0.8361
2069.97	0.835
2079.01	0.8338
2088.05	0.8316
2097.09	0.8294
2106.13	0.8277
2115.17	0.8259
2124.21	0.8249
2133.25	0.824
2142.29	0.8218
2151.33	0.8194
2160.36	0.817
2169.4	0.8144
2178.44	0.8113
2187.48	0.8081
2196.52	0.805
2205.56	0.8019
2214.6	0.7986
2223.64	0.7952
2232.68	0.7917
2241.72	0.7883
2250.76	0.7841
2259.8	0.7794
2268.84	0.7743
2277.88	0.7686
2286.92	0.7602
2295.95	0.7511
2304.99	0.7417
2314.03	0.7326
2323.07	0.7284
2332.11	0.7246
2341.15	0.7209
2350.19	0.7174
2359.23	0.7146
2368.27	0.7118
2377.31	0.7061
2386.35	0.695
2395.39	0.6835
2404.43	0.6727
2413.47	0.6632
2422.51	0.6544
2431.54	0.6461
2440.58	0.6381
2449.62	0.6306
2458.66	0.6231
2467.7	0.6163
2476.74	0.6095
2485.78	0.6022
2494.82	0.5925
2503.86	0.58
2512.9	0.5695
2521.94	0.5639
2530.98	0.547
2540.02	0.5238
2549.06	0.5023
2558.1	0.4912
2567.13	0.4913
2576.17	0.4959
2585.21	0.4917
2594.25	0.4809
2603.29	0.4713
2612.33	0.4627
2621.37	0.4585
2630.41	0.464
2639.45	0.4789
2648.49	0.4834
2657.53	0.4771
2666.57	0.4656
2675.61	0.4511
2684.65	0.434
2693.69	0.4149
2702.72	0.4071
2711.76	0.4065
2720.8	0.4066
2729.84	0.3979
2738.88	0.383
2747.92	0.3775
2756.96	0.3649
2766	0.356
2775.04	0.3547
2784.08	0.3542
2793.12	0.3535
2802.16	0.3516
2811.2	0.3593
2820.24	0.3987
2829.28	0.4461
2838.31	0.4725
2847.35	0.471
2856.39	0.4499
2865.43	0.3926
2874.47	0.3609
2883.51	0.3611
2892.55	0.3636
2901.59	0.3665
2910.63	0.383
2919.67	0.4041
2928.71	0.4315
2937.75	0.455
2946.79	0.4569
2955.83	0.4514
2964.87	0.4413
2973.9	0.4389
2982.94	0.4431
2991.98	0.4551
3001.02	0.4593
3010.06	0.4589
3019.1	0.4592
3028.14	0.4795
3037.18	0.5045
3046.22	0.5348
3055.26	0.5491
3064.3	0.5632
3073.34	0.5775
3082.38	0.5932
3091.42	0.605
3100.46	0.6129
3109.49	0.6202
3118.53	0.6271
3127.57	0.6297
3136.61	0.628
3145.65	0.6246
3154.69	0.6183
3163.73	0.6184
3172.77	0.6437
3181.81	0.6886
3190.85	0.7044
3199.89	0.7061
3208.93	0.7049
3217.97	0.7056
3227.01	0.7066
3236.05	0.7046
3245.08	0.6983
3254.12	0.6916
3263.16	0.6846
3272.2	0.6778
3281.24	0.6706
3290.28	0.6632
3299.32	0.6552
3308.36	0.6455
3317.4	0.6249
3326.44	0.6051
3335.48	0.5839
3344.52	0.556
3353.56	0.5292
3362.6	0.4969
3371.64	0.4543
3380.67	0.3689
3389.71	0.32
3398.75	0.3142
3407.79	0.4003
3416.83	0.4815
3425.87	0.5815
3434.91	0.6076
3443.95	0.6188
3452.99	0.6265
3462.03	0.631
3471.07	0.6334
3480.11	0.6354
3489.15	0.6369
3498.19	0.6372
3507.23	0.6373
3516.26	0.6383
3525.3	0.6446
3534.34	0.6514
3543.38	0.6562
3552.42	0.6613
3561.46	0.6661
3570.5	0.6717
3579.54	0.6793
3588.58	0.6876
3597.62	0.6948
3606.66	0.7016
3615.7	0.7069
3624.74	0.7113
3633.78	0.7156
3642.82	0.7201
3651.85	0.7247
3660.89	0.7267
3669.93	0.7291
3678.97	0.7305
3688.01	0.7316
3697.05	0.7321
3706.09	0.7325
3715.13	0.7322
3724.17	0.7319
3733.21	0.7307
3742.25	0.73
3751.29	0.7299
3760.33	0.7294
3769.37	0.7281
3778.41	0.7286
3787.44	0.731
3796.48	0.7306
3805.52	0.7298
3814.56	0.73
3823.6	0.7297
3832.64	0.7284
3841.68	0.7266
3850.72	0.7223
3859.76	0.7208
3868.8	0.7198
3877.84	0.717
3886.88	0.7139
3895.92	0.7121
3904.96	0.7127
3914	0.7133
