Infrared Spectrum: DL-Nornicotine
Formula: C 9 H 12 N 2
CAS: 5746-86-1
State: gas
Origin: EPA-IR VAPOR PHASE LIBRARY
1/CM	ABSORBANCE
549.8	0.00526
559.445	0.0051
569.09	0.00322
578.734	0.00452
588.379	0.00305
598.024	0.00375
607.669	0.00457
617.313	0.0035
626.958	0.00441
636.603	0.00417
646.248	0.00394
655.893	0.00454
665.537	0.00367
675.182	0.00347
684.827	0.00564
694.472	0.00731
704.116	0.01225
713.761	0.01459
723.406	0.01183
733.051	0.00918
742.695	0.00751
752.34	0.00643
761.985	0.00662
771.63	0.00749
781.275	0.00843
790.919	0.00993
800.564	0.00995
810.209	0.00865
819.854	0.00561
829.498	0.00604
839.143	0.00412
848.788	0.00444
858.433	0.00366
868.078	0.00315
877.722	0.00437
887.367	0.00418
897.012	0.00462
906.657	0.00511
916.301	0.00531
925.946	0.0049
935.591	0.00403
945.236	0.00387
954.88	0.00348
964.525	0.00241
974.17	0.0020096
983.815	0.00259
993.46	0.0027
1003.1	0.00367
1012.75	0.00641
1022.39	0.00823
1032.04	0.00721
1041.68	0.00376
1051.33	0.00455
1060.97	0.00421
1070.62	0.00711
1080.26	0.00851
1089.91	0.01001
1099.55	0.00946
1109.2	0.01065
1118.84	0.00596
1128.49	0.00326
1138.13	0.00536
1147.78	0.00385
1157.42	0.00393
1167.07	0.00536
1176.71	0.00412
1186.36	0.00385
1196	0.00271
1205.64	0.00368
1215.29	0.00317
1224.93	0.00463
1234.58	0.00302
1244.22	0.00511
1253.87	0.00473
1263.51	0.00452
1273.16	0.0051
1282.8	0.00532
1292.45	0.00624
1302.09	0.00731
1311.74	0.00817
1321.38	0.00742
1331.03	0.00649
1340.67	0.00588
1350.32	0.00496
1359.96	0.00503
1369.61	0.00444
1379.25	0.00456
1388.9	0.00593
1398.54	0.0073
1408.18	0.01023
1417.83	0.01482
1427.47	0.01437
1437.12	0.00851
1446.76	0.00536
1456.41	0.0055
1466.05	0.00724
1475.7	0.00903
1485.34	0.00649
1494.99	0.00308
1504.63	0.00271
1514.28	0.0023413
1523.92	0.0020875
1533.57	0.0022858
1543.21	0.00248
1552.86	0.00345
1562.5	0.00496
1572.15	0.00654
1581.79	0.00683
1591.44	0.00409
1601.08	0.00322
1610.73	0.00261
1620.37	0.00255
1630.01	0.00243
1639.66	0.0022108
1649.3	0.0021807
1658.95	0.0022871
1668.59	0.0018573
1678.24	0.0018398
1687.88	0.0019516
1697.53	0.0018628
1707.17	0.0017273
1716.82	0.0019646
1726.46	0.0020881
1736.11	0.0019717
1745.75	0.0020396
1755.4	0.0020171
1765.04	0.0019205
1774.69	0.0015971
1784.33	0.0015854
1793.98	0.00152
1803.62	0.0016913
1813.27	0.0015321
1822.91	0.0018013
1832.55	0.001773
1842.2	0.0015807
1851.84	0.0018778
1861.49	0.0019235
1871.13	0.0019328
1880.78	0.0020729
1890.42	0.00262
1900.07	0.00272
1909.71	0.00237
1919.36	0.0021041
1929	0.0016992
1938.65	0.0020974
1948.29	0.001814
1957.94	0.0018756
1967.58	0.001886
1977.23	0.0016212
1986.87	0.0018148
1996.52	0.0016688
2006.16	0.0015103
2015.81	0.0017639
2025.45	0.0015985
2035.1	0.0017778
2044.74	0.0014873
2054.38	0.001653
2064.03	0.0015737
2073.67	0.0017418
2083.32	0.0017609
2092.96	0.0014915
2102.61	0.001565
2112.25	0.0015933
2121.9	0.0016836
2131.54	0.0015211
2141.19	0.0015956
2150.83	0.0018059
2160.48	0.0013474
2170.12	0.001148
2179.77	0.00140832
2189.41	0.0017388
2199.06	0.0017401
2208.7	0.0015256
2218.35	0.0017157
2227.99	0.0016899
2237.64	0.001754
2247.28	0.0020166
2256.92	0.0018423
2266.57	0.0016038
2276.21	0.0017732
2285.86	0.00145128
2295.5	0.0017532
2305.15	0.0016488
2314.79	0.0015621
2324.44	0.0017911
2334.08	0.001211
2343.73	0.0018221
2353.37	0.0015106
2363.02	0.0016054
2372.66	0.0015719
2382.31	0.0016231
2391.95	0.0016479
2401.6	0.0017046
2411.24	0.0017261
2420.89	0.0018024
2430.53	0.0020855
2440.18	0.0018391
2449.82	0.00135735
2459.47	0.0017162
2469.11	0.0016616
2478.75	0.0017267
2488.4	0.0017693
2498.04	0.0016613
2507.69	0.0016941
2517.33	0.0015352
2526.98	0.0018395
2536.62	0.0018502
2546.27	0.0013236
2555.91	0.0017659
2565.56	0.0018152
2575.2	0.0016725
2584.85	0.0021338
2594.49	0.0019806
2604.14	0.0020199
2613.78	0.0020892
2623.43	0.0023399
2633.07	0.00279
2642.72	0.00246
2652.36	0.00272
2662.01	0.0025
2671.65	0.0023522
2681.29	0.0019628
2690.94	0.0021572
2700.58	0.0022022
2710.23	0.00264
2719.87	0.00243
2729.52	0.00255
2739.16	0.00326
2748.81	0.00308
2758.45	0.00362
2768.1	0.00361
2777.74	0.00494
2787.39	0.00513
2797.03	0.00582
2806.68	0.00728
2816.32	0.0099
2825.97	0.01263
2835.61	0.01376
2845.26	0.01402
2854.9	0.01287
2864.55	0.01373
2874.19	0.01603
2883.84	0.01864
2893.48	0.01788
2903.12	0.01566
2912.77	0.01566
2922.41	0.01604
2932.06	0.01661
2941.7	0.01883
2951.35	0.02368
2960.99	0.03003
2970.64	0.03408
2980.28	0.02915
2989.93	0.01855
2999.57	0.01245
3009.22	0.01063
3018.86	0.00968
3028.51	0.01109
3038.15	0.0125
3047.8	0.01321
3057.44	0.01223
3067.09	0.00798
3076.73	0.00749
3086.38	0.00654
3096.02	0.00445
3105.67	0.00274
3115.31	0.0022514
3124.95	0.0017966
3134.6	0.0017867
3144.24	0.0019192
3153.89	0.0020988
3163.53	0.0015929
3173.18	0.0015191
3182.82	0.001432
3192.47	0.0015625
3202.11	0.0015169
3211.76	0.0012946
3221.4	0.000894
3231.05	0.000766
3240.69	0.001224
3250.34	0.0018578
3259.98	0.000982
3269.63	0.00143171
3279.27	0.0018842
3288.92	0.0012855
3298.56	0.001954
3308.21	0.0013032
3317.85	0.0015212
3327.49	0.0012946
3337.14	0.001177
3346.78	0.001236
3356.43	0.00138516
3366.07	0.0012905
3375.72	0.00142162
3385.36	0.0022002
3395.01	0.001058
3404.65	0.00139202
3414.3	0.0016586
3423.94	0.001545
3433.59	0.0015293
3443.23	0.001123
3452.88	0.0008
3462.52	0.000638
3472.17	0.000816
3481.81	0.0021285
3491.46	0.00093
3501.1	0.0020464
3510.75	0.001092
3520.39	0.0014689
3530.04	0.00142859
3539.68	0.000964
3549.32	0.001178
3558.97	0.0015007
3568.61	0.001179
3578.26	0.000968
3587.9	0.001254
3597.55	0.001147
3607.19	0.0020137
3616.84	0.0016744
3626.48	0.0013108
3636.13	0.001128
3645.77	0.0019465
3655.42	0.0018275
3665.06	0.0014874
3674.71	0.001255
3684.35	0.001221
3694	0.001208
3703.64	0.00114
3713.29	0.001253
3722.93	0.000592
3732.58	0.00135704
3742.22	0.0015586
3751.86	0.001231
3761.51	0.0017884
3771.15	0.0016753
3780.8	0.0017437
3790.44	0.001042
3800.09	0.0014996
3809.73	0.001203
3819.38	0.001034
3829.02	0.001205
3838.67	0.000784
3848.31	0.000882
3857.96	0.0013046
3867.6	0.0013035
3877.25	0.002068
3886.89	0.000856
3896.54	0.0013186
3906.18	0.00136918
3915.83	0.0018999
3925.47	0.0018214
3935.12	0.000409
3944.76	0.0014999
3954.41	0.0018867
3964.05	0.0015448
3973.69	0.000755
3983.34	0.001781
3992.98	0.0014721
