Infrared Spectrum: 3-METHYL-Delta^2-PENTEN-1,5-DIOIC ACID
Formula: C6 H8 O4
CAS: 5746-90-7
State: SOLID (NUJOL MULL)
Class: COBLENTZ
Instrument: PERKIN-ELMER
Sampling: TRANSMISSION
Resolution: 4
Origin: ABBOTT LABORATORIES - WASHBURN
MICROMETERS	TRANSMITTANCE
2.044	0.816
2.08368	0.8299
2.12337	0.83
2.16305	0.846
2.20274	0.8561
2.24242	0.863
2.2821	0.87
2.32179	0.8748
2.36147	0.8549
2.40116	0.8583
2.44084	0.8666
2.48052	0.873
2.52021	0.873
2.55989	0.885
2.59958	0.893
2.63926	0.8931
2.67894	0.8931
2.71863	0.9
2.75831	0.9
2.798	0.8959
2.83768	0.893
2.87736	0.8809
2.91705	0.875
2.95673	0.8646
2.99642	0.8511
3.0361	0.8128
3.07578	0.758
3.11547	0.6855
3.15515	0.6048
3.19484	0.5355
3.23452	0.4694
3.2742	0.4028
3.31389	0.3654
3.35357	0.3255
3.39326	0.2795
3.43294	0.1234
3.47262	0.0481
3.51231	0.0561
3.55199	0.09
3.59168	0.2107
3.63136	0.3968
3.67104	0.4633
3.71073	0.4749
3.75041	0.4709
3.79009	0.4682
3.82978	0.473
3.86946	0.4707
3.90915	0.458
3.94883	0.4947
3.98851	0.518
4.0282	0.5352
4.06788	0.5861
4.10757	0.6204
4.14725	0.6552
4.18693	0.6713
4.22662	0.7001
4.2663	0.7314
4.30599	0.745
4.34567	0.7462
4.38535	0.75
4.42504	0.756
4.46472	0.76
4.50441	0.755
4.54409	0.751
4.58377	0.7631
4.62346	0.761
4.66314	0.7611
4.70283	0.765
4.74251	0.7609
4.78219	0.763
4.82188	0.768
4.86156	0.7678
4.90125	0.766
4.94093	0.765
4.98061	0.763
5.0203	0.758
5.05998	0.758
5.09967	0.7536
5.13935	0.7487
5.17903	0.7405
5.21872	0.7274
5.2584	0.725
5.29809	0.723
5.33777	0.725
5.37745	0.726
5.41714	0.721
5.45682	0.7117
5.49651	0.7047
5.53619	0.68
5.57587	0.6658
5.61556	0.6395
5.65524	0.618
5.69493	0.597
5.73461	0.564
5.77429	0.4962
5.81398	0.2973
5.85366	0.1045
5.89335	0.0972
5.93303	0.1062
5.97271	0.1078
6.0124	0.2794
6.05208	0.2711
6.09177	0.1379
6.13145	0.117
6.17113	0.3055
6.21082	0.4444
6.2505	0.5425
6.29019	0.5996
6.32987	0.6374
6.36955	0.6657
6.40924	0.6848
6.44892	0.6954
6.48861	0.7004
6.52829	0.71
6.56797	0.7131
6.60766	0.721
6.64734	0.7235
6.68703	0.716
6.72671	0.691
6.76639	0.6537
6.80608	0.5858
6.84576	0.3808
6.88545	0.28
6.92513	0.2342
6.96481	0.2238
7.0045	0.3176
7.04418	0.3289
7.08386	0.2388
7.12355	0.1921
7.16323	0.2942
7.20292	0.4393
7.2426	0.5356
7.28228	0.4719
7.32197	0.4719
7.36165	0.5457
7.40134	0.5654
7.44102	0.5507
7.4807	0.5986
7.52039	0.5909
7.56007	0.5206
7.59976	0.3395
7.63944	0.2739
7.67912	0.3848
7.71881	0.424
7.75849	0.441
7.79818	0.3805
7.83786	0.2512
7.87754	0.2827
7.91723	0.4347
7.95691	0.5034
7.9966	0.5429
8.03628	0.5633
8.07596	0.52
8.11565	0.4525
8.15533	0.278
8.19502	0.1237
8.2347	0.088
8.27438	0.1708
8.31407	0.3116
8.35375	0.4352
8.39344	0.5208
8.43312	0.5771
8.4728	0.6128
8.51249	0.626
8.55217	0.635
8.59186	0.6372
8.63154	0.653
8.67122	0.6152
8.71091	0.461
8.75059	0.5706
8.79028	0.6476
8.82996	0.6742
8.86964	0.693
8.90933	0.7069
8.94901	0.713
8.9887	0.716
9.02838	0.7221
9.06806	0.73
9.10775	0.733
9.14743	0.731
9.18712	0.731
9.2268	0.728
9.26648	0.726
9.30617	0.7235
9.34585	0.725
9.38554	0.721
9.42522	0.725
9.4649	0.725
9.50459	0.6974
9.54427	0.6243
9.58396	0.5974
9.62364	0.6749
9.66332	0.6926
9.70301	0.65
9.74269	0.6854
9.78238	0.7057
9.82206	0.711
9.86174	0.711
9.90143	0.7106
9.94111	0.71
9.9808	0.703
10.0205	0.7029
10.0602	0.6982
10.0998	0.6889
10.1395	0.6753
10.1792	0.6594
10.2189	0.6369
10.2586	0.6146
10.2983	0.5917
10.338	0.5561
10.3776	0.5194
10.4173	0.4835
10.457	0.4447
10.4967	0.3855
10.5364	0.3343
10.5761	0.3296
10.6157	0.3003
10.6554	0.2729
10.6951	0.256
10.7348	0.246
10.7745	0.2573
10.8142	0.2844
10.8538	0.3227
10.8935	0.3637
10.9332	0.4163
10.9729	0.446
11.0126	0.446
11.0523	0.454
11.0919	0.5037
11.1316	0.538
11.1713	0.5715
11.211	0.6006
11.2507	0.611
11.2904	0.611
11.3301	0.5919
11.3697	0.5219
11.4094	0.3646
11.4491	0.3019
11.4888	0.4566
11.5285	0.5785
11.5682	0.6389
11.6078	0.6698
11.6475	0.678
11.6872	0.6803
11.7269	0.663
11.7666	0.6804
11.8063	0.7036
11.8459	0.7085
11.8856	0.7153
11.9253	0.7249
11.965	0.7328
12.0047	0.7375
12.0444	0.7421
12.084	0.7489
12.1237	0.748
12.1634	0.7496
12.2031	0.7509
12.2428	0.7528
12.2825	0.758
12.3221	0.761
12.3618	0.7589
12.4015	0.7556
12.4412	0.7591
12.4809	0.7665
12.5206	0.766
12.5603	0.7562
12.5999	0.763
12.6396	0.7566
12.6793	0.758
12.719	0.758
12.7587	0.7553
12.7984	0.7576
12.838	0.753
12.8777	0.7578
12.9174	0.758
12.9571	0.753
12.9968	0.758
13.0365	0.7587
13.0761	0.761
13.1158	0.76
13.1555	0.7599
13.1952	0.756
13.2349	0.7516
13.2746	0.752
13.3142	0.748
13.3539	0.741
13.3936	0.7244
13.4333	0.7046
13.473	0.6511
13.5127	0.6134
13.5524	0.6437
13.592	0.6792
13.6317	0.692
13.6714	0.6957
13.7111	0.69
13.7508	0.6777
13.7905	0.6562
13.8301	0.6226
13.8698	0.5606
13.9095	0.4366
13.9492	0.3071
13.9889	0.3033
14.0286	0.4159
14.0682	0.5243
14.1079	0.5777
14.1476	0.6339
14.1873	0.6539
14.227	0.6672
14.2667	0.675
14.3063	0.6807
14.346	0.6835
14.3857	0.6809
14.4254	0.6701
14.4651	0.6601
14.5048	0.6371
14.5445	0.6227
14.5841	0.5874
14.6238	0.5489
14.6635	0.528
14.7032	0.528
14.7429	0.5407
14.7826	0.551
14.8222	0.5745
14.8619	0.5983
14.9016	0.606
14.9413	0.606
14.981	0.6135
15.0207	0.6261
15.0603	0.6201
15.1	0.615
15.1397	0.6144
15.1794	0.611
15.2191	0.606
15.2588	0.605
15.2984	0.601
15.3381	0.596
15.3778	0.588
15.4175	0.583
