Infrared Spectrum: 4-Chloro-o-anisic acid
Formula: C 8 H 7 Cl O 3
CAS: 57479-70-6
State: gas
Instrument: HP-GC/MS/IRD
Origin: NIST Mass Spectrometry Data Center
1/CM	ABSORBANCE
550	0.0031046
562	0.0046655
574	0.0046999
586	0.0042054
598	0.0032035
610	0.0026617
622	0.0020167
634	0.0017845
646	0.0017458
658	0.0014749
670	0.0020554
682	0.0013115
694	0.0013373
706	0.0017028
718	0.001419
730	0.0013588
742	0.0020296
754	0.0018963
766	0.0035647
778	0.0039087
790	0.0016254
802	0.0008643
814	0.0009073
826	0.0023736
838	0.0038313
850	0.0029627
862	0.0041495
874	0.0127409
886	0.0095374
898	0.0015351
910	0.00043
922	0.0001247
934	3.87e-05
946	0.0001548
958	0.0002623
970	0.0003741
982	0.0007869
994	0.0017544
1006	0.004386
1018	0.0091375
1030	0.0118293
1042	0.0116788
1054	0.0129043
1066	0.0085699
1078	0.0067983
1090	0.0101093
1102	0.0139965
1114	0.0112144
1126	0.0106296
1138	0.0063984
1150	0.0044376
1162	0.0067811
1174	0.0126291
1186	0.0126893
1198	0.0072584
1210	0.0065833
1222	0.0095718
1234	0.0140825
1246	0.0158627
1258	0.0162497
1270	0.0121733
1282	0.0083162
1294	0.0072799
1306	0.0064027
1318	0.0070262
1330	0.008342
1342	0.0091461
1354	0.0105952
1366	0.0120529
1378	0.0118379
1390	0.0161336
1402	0.0225879
1414	0.0164346
1426	0.0084409
1438	0.005461
1450	0.0059985
1462	0.0086301
1474	0.0107887
1486	0.0108102
1498	0.0060458
1510	0.0018963
1522	0.0011696
1534	0.0014061
1546	0.0027864
1558	0.0071509
1570	0.0123367
1582	0.0149984
1594	0.0250346
1606	0.0163873
1618	0.0045236
1630	0.0018103
1642	0.0009976
1654	0.0007396
1666	0.0008299
1678	0.0008772
1690	0.0011438
1702	0.0019221
1714	0.0032895
1726	0.0060802
1738	0.0136998
1750	0.0234608
1762	0.0329466
1774	0.0428452
1786	0.0215
1798	0.006966
1810	0.0028509
1822	0.0013975
1834	0.0007869
1846	0.000559
1858	0.000387
1870	0.0002623
1882	0.0002709
1894	0.0003483
1906	0.0003612
1918	0.0003225
1930	0.0002666
1942	0.0001376
1954	7.31e-05
1966	6.45e-05
1978	5.16e-05
1990	5.59e-05
2002	7.74e-05
2014	5.59e-05
2026	5.16e-05
2038	8.17e-05
2050	0.0001161
2062	0.0001376
2074	0.0001204
2086	0.0001118
2098	0.0001419
2110	0.0001806
2122	0.000172
2134	0.0001462
2146	0.0001462
2158	7.31e-05
2170	3.87e-05
2182	0
2194	2.15e-05
2206	0
2218	4.73e-05
2230	6.88e-05
2242	9.89e-05
2254	8.17e-05
2266	8.17e-05
2278	0.0001118
2290	0.0001075
2302	9.03e-05
2314	0.0001204
2326	0.0001548
2338	0.0001505
2350	0.0001376
2362	0.0001419
2374	0.0001204
2386	0.0001118
2398	5.16e-05
2410	0.000129
2422	0.0001419
2434	0.0001204
2446	0.0001247
2458	0.0001376
2470	0.0001935
2482	0.000172
2494	0.0002107
2506	0.0002236
2518	0.0002881
2530	0.0002494
2542	0.0002236
2554	0.0002365
2566	0.0001935
2578	0.0002064
2590	0.0001935
2602	0.0001806
2614	0.0001978
2626	0.0002322
2638	0.0002623
2650	0.0002709
2662	0.0003225
2674	0.0003354
2686	0.0003225
2698	0.0003526
2710	0.0003096
2722	0.0003612
2734	0.0003096
2746	0.0003139
2758	0.0003225
2770	0.0002967
2782	0.0002924
2794	0.0003784
2806	0.0004687
2818	0.0006665
2830	0.0009976
2842	0.0015652
2854	0.0019995
2866	0.0020468
2878	0.0015953
2890	0.0013158
2902	0.0013545
2914	0.0016297
2926	0.0020468
2938	0.0027305
2950	0.0040592
2962	0.0038915
2974	0.0028982
2986	0.0022575
2998	0.0018834
3010	0.0025112
3022	0.0026359
3034	0.0013803
3046	0.000903
3058	0.0007224
3070	0.0005848
3082	0.0007482
3094	0.0008256
3106	0.0006278
3118	0.0004902
3130	0.000473
3142	0.00043
3154	0.0004128
3166	0.0003655
3178	0.0003569
3190	0.0003096
3202	0.0003139
3214	0.0003225
3226	0.0003225
3238	0.0004343
3250	0.0003913
3262	0.0003096
3274	0.0003612
3286	0.0003526
3298	0.0004085
3310	0.0003569
3322	0.0004601
3334	0.0005246
3346	0.0006063
3358	0.0007138
3370	0.0009632
3382	0.0012728
3394	0.0018103
3406	0.002494
3418	0.0031476
3430	0.0039646
3442	0.0047644
3454	0.0049579
3466	0.0043774
3478	0.003526
3490	0.0027907
3502	0.0020124
3514	0.0014964
3526	0.0012943
3538	0.0011954
3550	0.0013029
3562	0.0057405
3574	0.0095632
3586	0.0042914
3598	0.0008084
3610	0.0003956
3622	0.0003311
3634	0.0002709
3646	0.0002236
3658	0.000129
3670	9.03e-05
3682	0.0001204
3694	8.6e-05
3706	0.0001204
3718	4.3e-05
3730	0.0001032
3742	6.45e-05
3754	4.73e-05
3766	0.0001204
3778	3.44e-05
3790	0.0001032
3802	3.44e-05
3814	7.74e-05
3826	7.31e-05
3838	5.16e-05
