Infrared Spectrum: 1,7-Dimethylnaphthalene
Formula: C 12 H 12
CAS: 575-37-1
State: gas
Instrument: HP-GC/MS/IRD
Origin: NIST Mass Spectrometry Data Center
1/CM	ABSORBANCE
550	0.001029
562	0.000574
574	0.0003185
586	0.0002905
598	7e-05
610	7.35e-05
622	0.001022
634	0.001708
646	0.000847
658	0.0002765
670	0.0002135
682	7.35e-05
694	0.0005705
706	0.0010255
718	0.0014525
730	0.0035
742	0.0098245
754	0.0067165
766	0.001792
778	0.001001
790	0.0017885
802	0.0070735
814	0.0237335
826	0.0223895
838	0.0060655
850	0.002198
862	0.0031885
874	0.00252
886	0.001603
898	0.001582
910	0.000847
922	0.000784
934	0.000546
946	0.0007665
958	0.001092
970	0.000966
982	0.0007455
994	0.000798
1006	0.000924
1018	0.000623
1030	0.001071
1042	0.0013965
1054	0.00126
1066	0.002198
1078	0.002261
1090	0.001022
1102	0.0005985
1114	0.000581
1126	0.000637
1138	0.001596
1150	0.002373
1162	0.0023275
1174	0.00147
1186	0.001344
1198	0.001533
1210	0.0008995
1222	0.000602
1234	0.0007035
1246	0.0009835
1258	0.0013965
1270	0.0012005
1282	0.000749
1294	0.000595
1306	0.000665
1318	0.00105
1330	0.001442
1342	0.0015575
1354	0.002289
1366	0.0033145
1378	0.004732
1390	0.004179
1402	0.0024115
1414	0.002422
1426	0.0041335
1438	0.007483
1450	0.0070105
1462	0.0038605
1474	0.0027615
1486	0.002933
1498	0.005677
1510	0.007322
1522	0.003787
1534	0.002184
1546	0.001757
1558	0.002107
1570	0.0028805
1582	0.004368
1594	0.005887
1606	0.0053935
1618	0.004312
1630	0.0059255
1642	0.003612
1654	0.001295
1666	0.0008645
1678	0.0008645
1690	0.00098
1702	0.0017955
1714	0.0020055
1726	0.001491
1738	0.001036
1750	0.000833
1762	0.0011935
1774	0.0015225
1786	0.001113
1798	0.0004865
1810	0.000469
1822	0.0005355
1834	0.000812
1846	0.001232
1858	0.0008575
1870	0.000448
1882	0.0005005
1894	0.001204
1906	0.0021315
1918	0.0019285
1930	0.0009275
1942	0.000259
1954	0.00014
1966	0.000119
1978	0.000161
1990	0.000112
2002	0.000161
2014	9.1e-05
2026	8.05e-05
2038	0.000133
2050	0.0001715
2062	0.000147
2074	0.0001505
2086	0.0001365
2098	0.000126
2110	9.8e-05
2122	5.25e-05
2134	4.9e-05
2146	5.6e-05
2158	8.4e-05
2170	6.65e-05
2182	1.05e-05
2194	2.45e-05
2206	5.6e-05
2218	2.8e-05
2230	9.1e-05
2242	8.4e-05
2254	6.3e-05
2266	8.05e-05
2278	0.000119
2290	0.0002275
2302	0.0002275
2314	0.000252
2326	0.0002975
2338	0.000252
2350	0.0001645
2362	0.0001855
2374	0.000126
2386	0.00014
2398	0.0002135
2410	0.000217
2422	0.00028
2434	0.000287
2446	0.0002345
2458	0.000238
2470	0.000238
2482	0.000224
2494	0.000231
2506	0.0001715
2518	0.0002415
2530	0.000217
2542	0.000217
2554	0.0002065
2566	0.0002065
2578	0.000238
2590	0.000182
2602	0.000182
2614	0.000196
2626	0.000175
2638	0.000203
2650	0.0001925
2662	0.0002135
2674	0.0002065
2686	0.000238
2698	0.0002695
2710	0.0003465
2722	0.0004235
2734	0.000966
2746	0.001106
2758	0.000707
2770	0.000574
2782	0.0005915
2794	0.0007525
2806	0.000931
2818	0.0012915
2830	0.001771
2842	0.002527
2854	0.004417
2866	0.0084875
2878	0.010528
2890	0.008883
2902	0.008939
2914	0.0125405
2926	0.0194075
2938	0.0188685
2950	0.014728
2962	0.012593
2974	0.013426
2986	0.0122255
2998	0.0088725
3010	0.0106435
3022	0.0143675
3034	0.015372
3046	0.022841
3058	0.02793
3070	0.019439
3082	0.009219
3094	0.0050785
3106	0.0030205
3118	0.0018865
3130	0.001218
3142	0.000889
3154	0.0006965
3166	0.0006125
3178	0.0005355
3190	0.0004865
3202	0.0003815
3214	0.000371
3226	0.0002835
3238	0.0002625
3250	0.000224
3262	0.000168
3274	0.0001855
3286	5.95e-05
3298	6.3e-05
3310	0.0001015
3322	0.0001085
3334	0.0001575
3346	0.000133
3358	8.05e-05
3370	6.65e-05
3382	0
3394	7.35e-05
3406	7e-05
3418	7.35e-05
3430	0.000105
3442	0.0001785
3454	0.000175
3466	0.0001645
3478	0.000126
3490	7.35e-05
3502	0.00014
3514	0.000112
3526	9.1e-05
3538	0.000161
3550	0.0001575
3562	0.00014
3574	0.0001015
3586	0.0001155
3598	7.35e-05
3610	7.7e-05
3622	7.35e-05
3634	0.0001225
3646	0.0001645
3658	9.45e-05
3670	0.00014
3682	0.0001015
3694	7.35e-05
3706	0.0001365
3718	0.0002695
3730	0.000231
3742	0.000245
3754	0.0002275
3766	0.000196
3778	0.0002345
3790	0.0001645
3802	0.0002345
3814	0.0002065
3826	0.000231
3838	0.0001995
