Infrared Spectrum: Benzalphthalide
Formula: C 15 H 10 O 2
CAS: 575-61-1
State: gas
Instrument: HP-GC/MS/IRD
Origin: NIST Mass Spectrometry Data Center
1/CM	ABSORBANCE
550	0.000699
562	0.0001398
574	0.0008854
586	0.0029824
598	0.0002796
610	0.0027494
622	0.0023766
634	0.0152382
646	0.0047532
658	0.005359
670	0.0166362
682	0.0557336
694	0.0484174
706	0.0162634
718	0.0117432
730	0.0081084
742	0.0231136
754	0.0696204
766	0.0688282
778	0.0140266
790	0.007223
802	0.0045668
814	0.0038212
826	0.0091802
838	0.0132344
850	0.0091802
862	0.0143062
874	0.0147722
886	0.012116
898	0.0108112
910	0.0115568
922	0.01165
934	0.0119296
946	0.0227874
958	0.0628168
970	0.233419
982	0.236914
994	0.0663584
1006	0.0323404
1018	0.0140266
1030	0.009087
1042	0.0080618
1054	0.0116966
1066	0.035649
1078	0.090171
1090	0.0419866
1102	0.0142596
1114	0.0043804
1126	0.0029824
1138	0.0033086
1150	0.0068036
1162	0.0110442
1174	0.027727
1186	0.0250242
1198	0.0185468
1210	0.0153314
1222	0.0064774
1234	0.0073628
1246	0.011883
1258	0.0282862
1270	0.0377926
1282	0.0193856
1294	0.018873
1306	0.0113704
1318	0.0106714
1330	0.013048
1342	0.030756
1354	0.0267484
1366	0.0121626
1378	0.005825
1390	0.0038212
1402	0.00233
1414	0.0021902
1426	0.0036814
1438	0.0057784
1450	0.0142596
1462	0.0226942
1474	0.0459476
1486	0.0192458
1498	0.0195254
1510	0.0070366
1522	0.0031688
1534	0.0022368
1546	0.0035416
1558	0.0054056
1570	0.0048464
1582	0.0067104
1594	0.0141664
1606	0.0325734
1618	0.0238126
1630	0.0097394
1642	0.0114636
1654	0.0230204
1666	0.022834
1678	0.0131878
1690	0.0052658
1702	0.0035416
1714	0.0040542
1726	0.0047532
1738	0.0070832
1750	0.0095064
1762	0.018873
1774	0.0304298
1786	0.0436642
1798	0.124608
1810	0.428953
1822	0.282629
1834	0.0760978
1846	0.0483242
1858	0.0245582
1870	0.0139334
1882	0.0097394
1894	0.0096462
1906	0.0066638
1918	0.0059648
1930	0.009087
1942	0.0105782
1954	0.0101122
1966	0.0064774
1978	0.001864
1990	0.0010252
2002	0.000932
2014	0.0012582
2026	0.0017708
2038	0.0031222
2050	0.0038678
2062	0.0024698
2074	0.000932
2086	0.0003262
2098	9.32e-05
2110	0.0001398
2122	0.0004194
2134	0.0006524
2146	0.0004194
2158	0.0004194
2170	0.000466
2182	0.000466
2194	9.32e-05
2206	0.0001398
2218	0.0003728
2230	0.0009786
2242	0.0014446
2254	0.0010718
2266	0.000699
2278	0.0006524
2290	0.0008388
2302	0.0010718
2314	0.0022834
2326	0.0018174
2338	0.000932
2350	0.000699
2362	0.0003262
2374	0.000466
2386	0.0002796
2398	4.66e-05
2410	0
2422	9.32e-05
2434	0.0002796
2446	0.0003262
2458	0.0001398
2470	9.32e-05
2482	4.66e-05
2494	0
2506	9.32e-05
2518	0.0001864
2530	0.0002796
2542	0.0003728
2554	0.0004194
2566	0.000466
2578	0.0003262
2590	0.0004194
2602	0.0003728
2614	0.0003262
2626	0.0003728
2638	0.0003728
2650	0.000233
2662	0.000233
2674	0.0002796
2686	0.0002796
2698	0.0001864
2710	9.32e-05
2722	9.32e-05
2734	4.66e-05
2746	0.0001398
2758	0.0002796
2770	0.0005126
2782	0.0008854
2794	0.0007456
2806	0.0005592
2818	0.0005126
2830	0.0003728
2842	0.0004194
2854	0.0006524
2866	0.0007456
2878	0.0008854
2890	0.0010252
2902	0.0011184
2914	0.0012116
2926	0.001398
2938	0.0015378
2950	0.0013514
2962	0.0014446
2974	0.0019572
2986	0.0024698
2998	0.0031688
3010	0.004893
3022	0.0120694
3034	0.0225078
3046	0.0251174
3058	0.0293114
3070	0.0445962
3082	0.0361616
3094	0.0239058
3106	0.0101122
3118	0.0043804
3130	0.002097
3142	0.0016776
3154	0.0014912
3166	0.0007456
3178	0.0006058
3190	0.0007456
3202	0.0005592
3214	0.0003728
3226	0.000233
3238	0.000233
3250	0.0002796
3262	0.0002796
3274	0.0002796
3286	0.0004194
3298	0.0005126
3310	0.0006058
3322	0.0005592
3334	0.0003728
3346	0.0001864
3358	0.0001398
3370	4.66e-05
3382	0.0001398
3394	0.0001398
3406	0.0001864
3418	0.0002796
3430	0.0001864
3442	0.0001864
3454	0.0003728
3466	0.0006058
3478	0.0007456
3490	0.0005126
3502	0.0003262
3514	0.0003262
3526	0.000233
3538	0.0004194
3550	0.000466
3562	0.000699
3574	0.001165
3586	0.0019572
3598	0.0034484
3610	0.0053124
3622	0.0035882
3634	0.0018174
3646	0.001398
3658	0.000932
3670	0.000699
3682	0.0006524
3694	0.0005592
3706	0.0005126
3718	0.0005126
3730	0.0004194
3742	0.0003262
3754	0.0002796
3766	0.0003262
3778	0.0003728
3790	0.0002796
3802	0.000233
3814	0.000233
3826	0.0002796
3838	0.000233
