Infrared Spectrum: sec-Butylcyclopropane
Formula: C 7 H 14
CAS: 5750-02-7
State: gas
Instrument: HP-GC/MS/IRD
Origin: NIST Mass Spectrometry Data Center
1/CM	ABSORBANCE
550	0.000312
562	0.0002574
574	6.76e-05
586	0.0002327
598	3.12e-05
610	0.0002145
622	0.0001664
634	0.0001456
646	0.0001781
658	0.0001079
670	0.000195
682	0.0001261
694	0.0001105
706	0.0001183
718	0.00026
730	0.0002613
742	0.0002574
754	0.0002613
766	0.0003198
778	0.0003211
790	0.000312
802	0.0006305
814	0.001092
826	0.0009815
838	0.000689
850	0.0005694
862	0.0003146
874	0.0003796
886	0.0004394
898	0.0006448
910	0.0007644
922	0.0010244
934	0.0010218
946	0.0007527
958	0.0005252
970	0.0004589
982	0.0005889
994	0.0010088
1006	0.0017628
1018	0.0021762
1030	0.0015405
1042	0.000663
1054	0.0004381
1066	0.0002886
1078	0.0002678
1090	0.000312
1102	0.0003276
1114	0.0002483
1126	0.0002613
1138	0.0003588
1150	0.0003731
1162	0.0003952
1174	0.0003224
1186	0.0003094
1198	0.0002951
1210	0.0002782
1222	0.000208
1234	0.0002223
1246	0.0002678
1258	0.0002925
1270	0.0004459
1282	0.0005018
1294	0.0005109
1306	0.0004485
1318	0.0004394
1330	0.0003419
1342	0.0003601
1354	0.0004758
1366	0.0008892
1378	0.0012818
1390	0.0012688
1402	0.0006825
1414	0.0004238
1426	0.000585
1438	0.0009412
1450	0.0016185
1462	0.0020748
1474	0.0016198
1486	0.0008528
1498	0.000338
1510	0.0002483
1522	0.0001534
1534	0.0001339
1546	0.0001313
1558	0.0001482
1570	0.0001404
1582	0.0001209
1594	0.0001105
1606	5.85e-05
1618	0.0001209
1630	9.1e-05
1642	9.36e-05
1654	5.2e-05
1666	0.0001144
1678	0.0001027
1690	6.24e-05
1702	5.85e-05
1714	7.41e-05
1726	0.000104
1738	6.11e-05
1750	9.62e-05
1762	9.23e-05
1774	5.85e-05
1786	4.94e-05
1798	7.8e-05
1810	0.00013
1822	7.15e-05
1834	8.58e-05
1846	0.0001014
1858	0.0001365
1870	0.0001053
1882	8.71e-05
1894	9.23e-05
1906	0.0001222
1918	0.0001482
1930	0.0001677
1942	0.0001287
1954	0.0001196
1966	9.36e-05
1978	2.47e-05
1990	7.54e-05
2002	8.71e-05
2014	3.38e-05
2026	5.59e-05
2038	0.0001534
2050	0.0001573
2062	0.0001586
2074	8.97e-05
2086	8.97e-05
2098	8.32e-05
2110	7.28e-05
2122	4.16e-05
2134	5.59e-05
2146	4.29e-05
2158	1.69e-05
2170	9.1e-06
2182	3.9e-05
2194	1.17e-05
2206	5.07e-05
2218	2.99e-05
2230	2.6e-05
2242	3.12e-05
2254	2.99e-05
2266	3.25e-05
2278	4.81e-05
2290	2.21e-05
2302	3.51e-05
2314	1.3e-06
2326	5.46e-05
2338	2.21e-05
2350	4.55e-05
2362	5.98e-05
2374	4.81e-05
2386	8.19e-05
2398	8.06e-05
2410	6.5e-05
2422	6.89e-05
2434	1.3e-06
2446	4.94e-05
2458	4.42e-05
2470	6.5e-05
2482	9.23e-05
2494	6.11e-05
2506	6.37e-05
2518	1.17e-05
2530	5.98e-05
2542	4.42e-05
2554	0.0001144
2566	7.41e-05
2578	0.0001131
2590	0.0001144
2602	6.89e-05
2614	9.62e-05
2626	9.75e-05
2638	0.0001183
2650	0.0001391
2662	0.0001352
2674	0.0001196
2686	0.0001079
2698	0.0001131
2710	0.0001456
2722	0.0001859
2734	0.000221
2746	0.0002691
2758	0.0002613
2770	0.0002483
2782	0.0002743
2794	0.0003354
2806	0.0004537
2818	0.00052
2830	0.0007189
2842	0.001222
2854	0.0024414
2866	0.0043615
2878	0.0062114
2890	0.0061113
2902	0.005564
2914	0.0063752
2926	0.0077077
2938	0.0079391
2950	0.0086255
2962	0.0123773
2974	0.0121537
2986	0.0081432
2998	0.0057187
3010	0.0049881
3022	0.003575
3034	0.00169
3046	0.0010686
3058	0.0013273
3070	0.0026572
3082	0.0039273
3094	0.002509
3106	0.0009594
3118	0.000377
3130	0.0002743
3142	0.0002795
3154	0.0002873
3166	0.0003055
3178	0.0002639
3190	0.0002444
3202	0.0001846
3214	9.23e-05
3226	0.0001079
3238	8.71e-05
3250	6.63e-05
3262	8.58e-05
3274	5.85e-05
3286	0.0001144
3298	7.67e-05
3310	4.94e-05
3322	0.0001079
3334	0.0001014
3346	7.8e-06
3358	8.06e-05
3370	8.19e-05
3382	9.75e-05
3394	6.11e-05
3406	0.0001326
3418	0.0001053
3430	7.67e-05
3442	0.0001001
3454	0.0001339
3466	7.67e-05
3478	0.0001014
3490	0.0001287
3502	5.2e-05
3514	8.58e-05
3526	0.0001547
3538	9.23e-05
3550	7.28e-05
3562	7.54e-05
3574	4.68e-05
3586	3.12e-05
3598	2.47e-05
3610	3.77e-05
3622	0.0001287
3634	0.0001495
3646	0.0002067
3658	0.0001391
3670	5.2e-05
3682	0.0001313
3694	7.93e-05
3706	4.03e-05
3718	0.0001209
3730	9.88e-05
3742	0.0001079
3754	0.0001677
3766	0.0001053
3778	8.71e-05
3790	0.0001066
3802	0.0001508
3814	0.0001131
3826	0.0001456
3838	5.33e-05
