Infrared Spectrum: Ethyl 5-chlorothiophene-2-carboxylate
Formula: C 7 H 7 Cl O 2 S
CAS: 5751-82-6
State: gas
Origin: EPA-IR VAPOR PHASE LIBRARY
1/CM	ABSORBANCE
549.8	0.0009004
559.445	0.0008867
569.09	0.0002511
578.734	0.0005238
588.379	0.000246
598.024	0.0006761
607.669	0.0006823
617.313	0.00033089
626.958	0.0008291
636.603	0.0009041
646.248	0.001534
655.893	0.004444
665.537	0.007204
675.182	0.005194
684.827	0.003154
694.472	0.002414
704.116	0.002754
713.761	0.004444
723.406	0.009784
733.051	0.023484
742.695	0.047114
752.34	0.051824
761.985	0.031384
771.63	0.015674
781.275	0.011434
790.919	0.015884
800.564	0.031274
810.209	0.042874
819.854	0.024054
829.498	0.010334
839.143	0.006884
848.788	0.007064
858.433	0.009804
868.078	0.009814
877.722	0.006344
887.367	0.003494
897.012	0.002914
906.657	0.002684
916.301	0.002384
925.946	0.002924
935.591	0.004044
945.236	0.005264
954.88	0.006604
964.525	0.008794
974.17	0.014214
983.815	0.023784
993.46	0.038724
1003.1	0.040604
1012.75	0.023504
1022.39	0.016874
1032.04	0.016724
1041.68	0.026574
1051.33	0.075374
1060.97	0.145494
1070.62	0.111164
1080.26	0.226784
1089.91	0.339684
1099.55	0.219074
1109.2	0.078934
1118.84	0.033954
1128.49	0.024104
1138.13	0.018674
1147.78	0.017584
1157.42	0.018264
1167.07	0.020494
1176.71	0.022164
1186.36	0.021464
1196	0.026244
1205.64	0.039374
1215.29	0.064204
1224.93	0.089594
1234.58	0.185744
1244.22	0.377304
1253.87	0.380574
1263.51	0.242624
1273.16	0.268354
1282.8	0.176244
1292.45	0.081384
1302.09	0.062464
1311.74	0.052094
1321.38	0.075584
1331.03	0.108884
1340.67	0.045364
1350.32	0.019984
1359.96	0.023054
1369.61	0.035834
1379.25	0.025754
1388.9	0.020314
1398.54	0.027474
1408.18	0.058604
1417.83	0.180974
1427.47	0.329584
1437.12	0.136534
1446.76	0.046134
1456.41	0.030264
1466.05	0.030104
1475.7	0.028854
1485.34	0.018754
1494.99	0.012604
1504.63	0.010374
1514.28	0.012164
1523.92	0.021504
1533.57	0.039264
1543.21	0.030314
1552.86	0.018254
1562.5	0.013514
1572.15	0.008584
1581.79	0.005964
1591.44	0.005374
1601.08	0.006404
1610.73	0.007854
1620.37	0.007584
1630.01	0.006654
1639.66	0.006674
1649.3	0.006624
1658.95	0.007134
1668.59	0.008284
1678.24	0.010234
1687.88	0.013944
1697.53	0.020574
1707.17	0.037884
1716.82	0.095104
1726.46	0.238624
1736.11	0.382404
1745.75	0.266774
1755.4	0.078004
1765.04	0.023424
1774.69	0.013874
1784.33	0.013004
1793.98	0.011674
1803.62	0.009874
1813.27	0.008914
1822.91	0.008054
1832.55	0.006604
1842.2	0.005114
1851.84	0.003784
1861.49	0.003034
1871.13	0.002784
1880.78	0.002524
1890.42	0.002354
1900.07	0.002174
1909.71	0.002314
1919.36	0.002584
1929	0.002564
1938.65	0.002854
1948.29	0.003284
1957.94	0.003114
1967.58	0.002364
1977.23	0.001874
1986.87	0.001844
1996.52	0.001924
2006.16	0.002194
2015.81	0.002264
2025.45	0.002394
2035.1	0.002414
2044.74	0.002384
2054.38	0.002224
2064.03	0.002384
2073.67	0.002314
2083.32	0.002374
2092.96	0.002274
2102.61	0.002164
2112.25	0.002044
2121.9	0.002134
2131.54	0.001954
2141.19	0.001674
2150.83	0.001394
2160.48	0.0011339
2170.12	0.0011297
2179.77	0.0009555
2189.41	0.0010247
2199.06	0.0011362
2208.7	0.0012605
2218.35	0.0012173
2227.99	0.0012933
2237.64	0.001394
2247.28	0.001308
2256.92	0.0011145
2266.57	0.0012193
2276.21	0.0012108
2285.86	0.0011774
2295.5	0.0012983
2305.15	0.001334
2314.79	0.001574
2324.44	0.001434
2334.08	0.001374
2343.73	0.001344
2353.37	0.0011789
2363.02	0.0011894
2372.66	0.0013094
2382.31	0.0012362
2391.95	0.0012792
2401.6	0.001554
2411.24	0.001814
2420.89	0.001824
2430.53	0.001474
2440.18	0.0011552
2449.82	0.0009843
2459.47	0.0011161
2469.11	0.001324
2478.75	0.001604
2488.4	0.001904
2498.04	0.0012315
2507.69	0.0010258
2517.33	0.0008585
2526.98	0.0010073
2536.62	0.0011304
2546.27	0.0011638
2555.91	0.0010499
2565.56	0.0010884
2575.2	0.0010731
2584.85	0.0011101
2594.49	0.0011349
2604.14	0.0009338
2613.78	0.0010715
2623.43	0.0010497
2633.07	0.0010798
2642.72	0.0010979
2652.36	0.0011334
2662.01	0.001534
2671.65	0.001924
2681.29	0.001964
2690.94	0.001644
2700.58	0.001684
2710.23	0.001424
2719.87	0.001374
2729.52	0.001774
2739.16	0.001694
2748.81	0.001714
2758.45	0.001754
2768.1	0.001874
2777.74	0.002044
2787.39	0.002074
2797.03	0.002164
2806.68	0.002244
2816.32	0.002584
2825.97	0.002914
2835.61	0.003474
2845.26	0.003424
2854.9	0.003664
2864.55	0.004314
2874.19	0.006204
2883.84	0.009904
2893.48	0.010604
2903.12	0.011454
2912.77	0.014124
2922.41	0.014434
2932.06	0.016854
2941.7	0.026604
2951.35	0.027224
2960.99	0.023424
2970.64	0.030154
2980.28	0.048374
2989.93	0.057054
2999.57	0.035864
3009.22	0.023324
3018.86	0.013964
3028.51	0.008414
3038.15	0.005464
3047.8	0.004244
3057.44	0.003384
3067.09	0.002934
3076.73	0.002614
3086.38	0.002604
3096.02	0.002904
3105.67	0.002944
3115.31	0.002534
3124.95	0.001734
3134.6	0.001444
3144.24	0.001644
3153.89	0.001724
3163.53	0.002034
3173.18	0.001774
3182.82	0.0012336
3192.47	0.0010411
3202.11	0.0009983
3211.76	0.0007452
3221.4	0.00079
3231.05	0.0008897
3240.69	0.0005063
3250.34	0.0004969
3259.98	0.000561
3269.63	0.0007258
3279.27	0.0005622
3288.92	0.0004539
3298.56	0.0004414
3308.21	0.0002696
3317.85	0.0004721
3327.49	0.0004932
3337.14	0.0002471
3346.78	0.00038983
3356.43	0.00031104
3366.07	0.0006238
3375.72	0.0005963
3385.36	0.0004398
3395.01	0.0005863
3404.65	0.0006205
3414.3	0.0006451
3423.94	0.0011065
3433.59	0.001954
3443.23	0.002514
3452.88	0.003344
3462.52	0.002564
3472.17	0.001564
3481.81	0.00092
3491.46	0.0007961
3501.1	0.000455
3510.75	0.00039758
3520.39	0.0004381
3530.04	0.00032968
3539.68	0.0005812
3549.32	0.0004804
3558.97	0.00040541
3568.61	0.000263
3578.26	0.0002715
3587.9	0.000318142
3597.55	0.0002339
3607.19	0.0002825
3616.84	0.000321837
3626.48	0.000115
3636.13	0
3645.77	0.0002292
3655.42	0.00013
3665.06	0.0002214
3674.71	0.00038767
3684.35	0.00033316
3694	0.00031282
3703.64	0.00032574
3713.29	0.00037411
3722.93	0.0005435
3732.58	0.000202
3742.22	0.0002907
3751.86	0.00033979
3761.51	0.0005573
3771.15	0.0005829
3780.8	0.0002842
3790.44	0.0006269
3800.09	0.0005586
3809.73	0.0005271
3819.38	0.000848
3829.02	0.0010828
3838.67	0.0006684
3848.31	0.0011163
3857.96	0.000678
3867.6	0.0003635
3877.25	0.00034993
3886.89	0.0002465
3896.54	0.000158
3906.18	0.000279
3915.83	0.0002201
3925.47	0.0004294
3935.12	0.000314887
3944.76	0.0002984
3954.41	0.00035967
3964.05	0.000655
3973.69	0.0002575
3983.34	0.00039672
3992.98	0.0008576
