Infrared Spectrum: DL-2-Methylbutrylchloride
Formula: C 5 H 9 Cl O
CAS: 57526-28-0
State: gas
Origin: EPA-IR VAPOR PHASE LIBRARY
1/CM	ABSORBANCE
549.8	0.00386
559.445	0.00438
569.09	0.0049
578.734	0.00562
588.379	0.0065
598.024	0.00666
607.669	0.00684
617.313	0.00788
626.958	0.00921
636.603	0.01011
646.248	0.01181
655.893	0.01235
665.537	0.01059
675.182	0.00799
684.827	0.00567
694.472	0.00373
704.116	0.00266
713.761	0.00215
723.406	0.00226
733.051	0.00198
742.695	0.00186
752.34	0.00151
761.985	0.00125
771.63	0.00124
781.275	0.00104
790.919	0.00123
800.564	0.00133
810.209	0.00121
819.854	0.001
829.498	0.0006786
839.143	0.0007045
848.788	0.0004787
858.433	0.0004993
868.078	0.0004007
877.722	0.0005217
887.367	0.0007144
897.012	0.0006425
906.657	0.0007452
916.301	0.0008248
925.946	0.00135
935.591	0.00186
945.236	0.00257
954.88	0.00271
964.525	0.00191
974.17	0.00123
983.815	0.00133
993.46	0.00158
1003.1	0.00219
1012.75	0.0042
1022.39	0.00876
1032.04	0.01545
1041.68	0.01925
1051.33	0.01575
1060.97	0.00923
1070.62	0.00572
1080.26	0.0054
1089.91	0.00596
1099.55	0.00736
1109.2	0.00884
1118.84	0.01093
1128.49	0.01299
1138.13	0.01282
1147.78	0.01146
1157.42	0.0108
1167.07	0.01074
1176.71	0.0101
1186.36	0.00869
1196	0.00668
1205.64	0.00551
1215.29	0.00547
1224.93	0.00736
1234.58	0.00857
1244.22	0.0083
1253.87	0.00813
1263.51	0.01045
1273.16	0.01402
1282.8	0.01541
1292.45	0.01374
1302.09	0.01187
1311.74	0.01188
1321.38	0.01471
1331.03	0.02166
1340.67	0.03132
1350.32	0.03764
1359.96	0.038
1369.61	0.03317
1379.25	0.02524
1388.9	0.01695
1398.54	0.01126
1408.18	0.00761
1417.83	0.00533
1427.47	0.00422
1437.12	0.00356
1446.76	0.00354
1456.41	0.00426
1466.05	0.00505
1475.7	0.00436
1485.34	0.00285
1494.99	0.00163
1504.63	0.0011
1514.28	0.0008218
1523.92	0.0007044
1533.57	0.0005627
1543.21	0.000478
1552.86	0.0004481
1562.5	0.0004755
1572.15	0.0004545
1581.79	0.0004715
1591.44	0.0004349
1601.08	0.0004825
1610.73	0.000503
1620.37	0.0005755
1630.01	0.000651
1639.66	0.0006952
1649.3	0.0008856
1658.95	0.00105
1668.59	0.00143
1678.24	0.00215
1687.88	0.00334
1697.53	0.00612
1707.17	0.01239
1716.82	0.0206
1726.46	0.02417
1736.11	0.02122
1745.75	0.01842
1755.4	0.01754
1765.04	0.01757
1774.69	0.02037
1784.33	0.03086
1793.98	0.04252
1803.62	0.03811
1813.27	0.01783
1822.91	0.00608
1832.55	0.00305
1842.2	0.00219
1851.84	0.00193
1861.49	0.00158
1871.13	0.00117
1880.78	0.000752
1890.42	0.0004871
1900.07	0.0003801
1909.71	0.0003124
1919.36	0.0002506
1929	0.000215
1938.65	0.0002074
1948.29	0.0001433
1957.94	0.0001216
1967.58	0.0001375
1977.23	0.0001193
1986.87	0.0001362
1996.52	0.0001006
2006.16	0.0001378
2015.81	9.877e-05
2025.45	0.0001388
2035.1	0.0001385
2044.74	0.0001381
2054.38	0.0001139
2064.03	0.0001317
2073.67	8.23e-05
2083.32	0.000135
2092.96	0.0001109
2102.61	9.67e-05
2112.25	0.000116
2121.9	0.0001271
2131.54	0.0001073
2141.19	6.412e-05
2150.83	7.445e-05
2160.48	0.0001185
2170.12	6.3e-05
2179.77	9.346e-05
2189.41	6.902e-05
2199.06	8.611e-05
2208.7	0.000111
2218.35	6.785e-05
2227.99	9.504e-05
2237.64	3.137e-05
2247.28	4.222e-05
2256.92	6.914e-05
2266.57	0.0001067
2276.21	0.0001067
2285.86	0.0001069
2295.5	0.0001902
2305.15	0.0002346
2314.79	0.0002085
2324.44	0.0002815
2334.08	0.000225
2343.73	0.0002384
2353.37	0.0002617
2363.02	0.0003013
2372.66	0.0003344
2382.31	0.0003032
2391.95	0.0002395
2401.6	0.0003266
2411.24	0.0002966
2420.89	0.0003116
2430.53	0.0002929
2440.18	0.0002901
2449.82	0.0002351
2459.47	0.0002426
2469.11	0.0002745
2478.75	0.0002797
2488.4	0.0002877
2498.04	0.0003064
2507.69	0.0002865
2517.33	0.0002527
2526.98	0.0002742
2536.62	0.000242
2546.27	0.000189
2555.91	0.0001482
2565.56	0.0001847
2575.2	8.558e-05
2584.85	0.0001274
2594.49	0.0001376
2604.14	0.0001054
2613.78	0.0001531
2623.43	0.0001069
2633.07	0.0001473
2642.72	0.0001668
2652.36	0.0001847
2662.01	0.0001259
2671.65	0.0001147
2681.29	7.185e-05
2690.94	0.0001759
2700.58	0.0002146
2710.23	0.000186
2719.87	0.0002834
2729.52	0.0003305
2739.16	0.0004445
2748.81	0.0004767
2758.45	0.0004856
2768.1	0.0004464
2777.74	0.0004634
2787.39	0.0005074
2797.03	0.000528
2806.68	0.0006149
2816.32	0.0008293
2825.97	0.0009937
2835.61	0.00109
2845.26	0.00142
2854.9	0.00182
2864.55	0.00284
2874.19	0.00548
2883.84	0.00762
2893.48	0.00786
2903.12	0.00719
2912.77	0.00758
2922.41	0.00859
2932.06	0.01049
2941.7	0.01187
2951.35	0.01344
2960.99	0.01993
2970.64	0.02708
2980.28	0.02144
2989.93	0.00956
2999.57	0.00381
3009.22	0.00204
3018.86	0.00135
3028.51	0.0008966
3038.15	0.0006639
3047.8	0.0005903
3057.44	0.0005712
3067.09	0.0005915
3076.73	0.0006371
3086.38	0.0006775
3096.02	0.00057
3105.67	0.0005765
3115.31	0.0004837
3124.95	0.0005436
3134.6	0.0005104
3144.24	0.0004496
3153.89	0.0004015
3163.53	0.0003844
3173.18	0.0003212
3182.82	0.0005168
3192.47	0.0005644
3202.11	0.0003937
3211.76	0.000502
3221.4	0.0003226
3231.05	0.0001812
3240.69	0.0002595
3250.34	0.0002545
3259.98	0.0002098
3269.63	0.0002419
3279.27	0.0002358
3288.92	0.0002355
3298.56	0.0001924
3308.21	0.0002374
3317.85	0.0002442
3327.49	0.000237
3337.14	0.0002698
3346.78	0.0002215
3356.43	0.0004337
3366.07	0.0003815
3375.72	0.0003452
3385.36	0.000543
3395.01	0.0007098
3404.65	0.0009223
3414.3	0.00123
3423.94	0.00219
3433.59	0.00408
3443.23	0.00736
3452.88	0.01062
3462.52	0.01186
3472.17	0.00995
3481.81	0.00728
3491.46	0.00492
3501.1	0.00323
3510.75	0.00229
3520.39	0.00165
3530.04	0.00143
3539.68	0.00167
3549.32	0.00315
3558.97	0.00596
3568.61	0.00664
3578.26	0.004
3587.9	0.00178
3597.55	0.0009318
3607.19	0.0005635
3616.84	0.0004894
3626.48	0.0004215
3636.13	0.0003051
3645.77	0.0002418
3655.42	0.0002767
3665.06	0.0002941
3674.71	0.0001317
3684.35	0.0001877
3694	0.0001472
3703.64	0.000175
3713.29	0.0002389
3722.93	0.0001831
3732.58	0.000234
3742.22	0.0001596
3751.86	0.0001596
3761.51	0.0002968
3771.15	0.0001026
3780.8	0.000254
3790.44	9.575e-05
3800.09	0.0003008
3809.73	0.000253
3819.38	0.0003162
3829.02	0.0002314
3838.67	0.0003679
3848.31	0.0002277
3857.96	0.000324
3867.6	0.0002415
3877.25	0.0002924
3886.89	0.0003411
3896.54	0.0002028
3906.18	0.0002573
3915.83	0.0001446
3925.47	0.0001462
3935.12	0.0001082
3944.76	0.0001975
3954.41	0.0002575
3964.05	0.0001328
3973.69	0.0001083
3983.34	8.039e-05
3992.98	0.000128
