Infrared Spectrum: 3-(2-Furyl)-2-phenylpropenal
Formula: C 13 H 10 O 2
CAS: 57568-60-2
State: gas
Origin: EPA-IR VAPOR PHASE LIBRARY
1/CM	ABSORBANCE
549.9	0.01283
559.547	0.0188
569.193	0.00966
578.84	0.00716
588.486	0.01346
598.133	0.01173
607.779	0.00637
617.426	0.00731
627.072	0.00785
636.719	0.00642
646.365	0.00665
656.012	0.00708
665.658	0.00849
675.305	0.0117
684.951	0.01886
694.598	0.04733
704.245	0.07988
713.891	0.05876
723.538	0.02496
733.184	0.04791
742.831	0.09938
752.477	0.03409
762.124	0.01537
771.77	0.01242
781.417	0.00894
791.063	0.00841
800.71	0.00834
810.356	0.00977
820.003	0.0074
829.649	0.00519
839.296	0.00711
848.943	0.0091
858.589	0.00829
868.236	0.00878
877.882	0.01587
887.529	0.02665
897.175	0.01396
906.822	0.00964
916.468	0.00857
926.115	0.01013
935.761	0.01953
945.408	0.02032
955.054	0.01259
964.701	0.00804
974.347	0.00735
983.994	0.00875
993.64	0.01198
1003.29	0.01968
1012.93	0.05412
1022.58	0.06019
1032.23	0.02829
1041.87	0.01835
1051.52	0.01775
1061.17	0.0308
1070.81	0.04536
1080.46	0.04437
1090.11	0.04514
1099.75	0.01833
1109.4	0.00454
1119.05	0.00135
1128.69	0.00048
1138.34	0.0028731
1147.99	0.01229
1157.63	0.01212
1167.28	0.01232
1176.92	0.02191
1186.57	0.01851
1196.22	0.01682
1205.86	0.03293
1215.51	0.04285
1225.16	0.02381
1234.8	0.01239
1244.45	0.02734
1254.1	0.02436
1263.74	0.01096
1273.39	0.01083
1283.04	0.00754
1292.68	0.00416
1302.33	0.00393
1311.98	0.00407
1321.62	0.00443
1331.27	0.00544
1340.92	0.00722
1350.56	0.01289
1360.21	0.0246
1369.86	0.01674
1379.5	0.01111
1389.15	0.01517
1398.79	0.01566
1408.44	0.013
1418.09	0.00805
1427.73	0.00618
1437.38	0.00899
1447.03	0.01123
1456.67	0.01221
1466.32	0.02221
1475.97	0.04532
1485.61	0.04799
1495.26	0.02842
1504.91	0.01499
1514.55	0.00697
1524.2	0.00652
1533.85	0.00833
1543.49	0.01395
1553.14	0.01886
1562.79	0.01743
1572.43	0.01481
1582.08	0.0191
1591.73	0.03494
1601.37	0.05085
1611.02	0.06842
1620.67	0.07719
1630.31	0.04993
1639.96	0.02083
1649.6	0.01316
1659.25	0.01128
1668.9	0.01397
1678.54	0.01755
1688.19	0.0292
1697.84	0.11474
1707.48	0.27631
1717.13	0.11635
1726.78	0.02353
1736.42	0.01272
1746.07	0.00881
1755.72	0.00735
1765.36	0.007
1775.01	0.00735
1784.66	0.00677
1794.3	0.00635
1803.95	0.0055
1813.6	0.00442
1823.24	0.00424
1832.89	0.00446
1842.54	0.00456
1852.18	0.00404
1861.83	0.00422
1871.47	0.00475
1881.12	0.00446
1890.77	0.00409
1900.41	0.0032299
1910.06	0.00277627
1919.71	0.0029756
1929.35	0.0036438
1939	0.00457
1948.65	0.00433
1958.29	0.00405
1967.94	0.0031539
1977.59	0.00265
1987.23	0.002579
1996.88	0.002342
2006.53	0.002209
2016.17	0.002158
2025.82	0.002154
2035.47	0.002274
2045.11	0.002302
2054.76	0.002336
2064.41	0.002395
2074.05	0.002459
2083.7	0.002615
2093.35	0.00282505
2102.99	0.0030191
2112.64	0.00282156
2122.28	0.0024
2131.93	0.002313
2141.58	0.002329
2151.22	0.002435
2160.87	0.002355
2170.52	0.002385
2180.16	0.002401
2189.81	0.002208
2199.46	0.002136
2209.1	0.00217
2218.75	0.002253
2228.4	0.002588
2238.04	0.0028915
2247.69	0.002639
2257.34	0.002472
2266.98	0.002305
2276.63	0.002222
2286.28	0.002191
2295.92	0.002174
2305.57	0.002242
2315.22	0.002531
2324.86	0.002445
2334.51	0.002351
2344.16	0.002308
2353.8	0.002138
2363.45	0.002245
2373.09	0.002198
2382.74	0.002121
2392.39	0.002147
2402.03	0.002156
2411.68	0.002115
2421.33	0.002074
2430.97	0.002057
2440.62	0.002024
2450.27	0.002026
2459.91	0.002004
2469.56	0.002014
2479.21	0.00198
2488.85	0.001946
2498.5	0.002046
2508.15	0.002082
2517.79	0.002027
2527.44	0.002046
2537.09	0.002242
2546.73	0.002514
2556.38	0.00295
2566.03	0.0032454
2575.67	0.0027267
2585.32	0.002346
2594.96	0.002309
2604.61	0.002529
2614.26	0.0028868
2623.9	0.0034447
2633.55	0.00381
2643.2	0.00416
2652.84	0.00399
2662.49	0.00378
2672.14	0.0047
2681.78	0.00875
2691.43	0.02429
2701.08	0.03673
2710.72	0.02372
2720.37	0.01571
2730.02	0.01239
2739.66	0.01081
2749.31	0.01112
2758.96	0.01387
2768.6	0.01505
2778.25	0.01364
2787.9	0.01554
2797.54	0.02639
2807.19	0.0292
2816.84	0.02725
2826.48	0.0249
2836.13	0.011
2845.77	0.00451
2855.42	0.002207
2865.07	0.00095
2874.71	0.00027
2884.36	0.00019
2894.01	0.00024
2903.65	0.00046
2913.3	0.00052
2922.95	0.00046
2932.59	0.00054
2942.24	0.00034
2951.89	6e-05
2961.53	6e-05
2971.18	0.00016
2980.83	0.00027
2990.47	0.00094
3000.12	0.0029753
3009.77	0.00517
3019.41	0.00843
3029.06	0.01319
3038.71	0.01442
3048.35	0.01361
3058	0.01991
3067.64	0.02835
3077.29	0.0229
3086.94	0.01856
3096.58	0.01111
3106.23	0.00732
3115.88	0.00549
3125.52	0.00507
3135.17	0.0032195
3144.82	0.001975
3154.46	0.002004
3164.11	0.00142
3173.76	0.00065
3183.4	0.00063
3193.05	0.00066
3202.7	0.00044
3212.34	0.00047
3221.99	0.00048
3231.64	0.00043
3241.28	0.00036
3250.93	0.00053
3260.58	0.00053
3270.22	0.00046
3279.87	0.00043
3289.52	0.00046
3299.16	0.00048
3308.81	0.00057
3318.45	0.00058
3328.1	0.00083
3337.75	0.00059
3347.39	0.00074
3357.04	0.00087
3366.69	0.00102
3376.33	0.0016
3385.98	0.00392
3395.63	0.00575
3405.27	0.0034932
3414.92	0.00153
3424.57	0.00101
3434.21	0.00077
3443.86	0.00073
3453.51	0.00076
3463.15	0.00065
3472.8	0.00074
3482.45	0.00076
3492.09	0.00075
3501.74	0.00077
3511.39	0.00088
3521.03	0.00084
3530.68	0.00082
3540.33	0.00086
3549.97	0.00084
3559.62	0.00083
3569.26	0.00097
3578.91	0.00096
3588.56	0.00108
3598.2	0.001
3607.85	0.00098
3617.5	0.00102
3627.14	0.00092
3636.79	0.00099
3646.44	0.00104
3656.08	0.00117
3665.73	0.00113
3675.38	0.00106
3685.02	0.00107
3694.67	0.00119
3704.32	0.00124
3713.96	0.0011
3723.61	0.00127
3733.26	0.00117
3742.9	0.00102
3752.55	0.00106
3762.2	0.00113
3771.84	0.00114
3781.49	0.00118
3791.13	0.00125
3800.78	0.00126
3810.43	0.0012
3820.07	0.00108
3829.72	0.00111
3839.37	0.00102
3849.01	0.00096
3858.66	0.00115
3868.31	0.00104
3877.95	0.00118
3887.6	0.00118
3897.25	0.0012
3906.89	0.00124
3916.54	0.00124
3926.19	0.00119
3935.83	0.00104
3945.48	0.00107
3955.13	0.0011
3964.77	0.00113
3974.42	0.00117
3984.07	0.00121
3993.71	0.00137
