Infrared Spectrum: Isopulegol acetate
Formula: C 12 H 20 O 2
CAS: 57576-09-7
State: gas
Instrument: HP-GC/MS/IRD
Origin: NIST Mass Spectrometry Data Center
1/CM	ABSORBANCE
550	0.0006345
562	7.83e-05
574	5.4e-05
586	0.0001782
598	0.0006426
610	0.000864
622	0.0006885
634	0.0005589
646	0.0002268
658	0.0003294
670	0.0003375
682	0.000162
694	0.0001674
706	0.0002376
718	0.0001836
730	6.21e-05
742	3.24e-05
754	0.0001107
766	0.0001782
778	0.0001701
790	0.0001836
802	0.0003564
814	0.0004725
826	0.0005265
838	0.0004401
850	0.0003888
862	0.0005265
874	0.0008208
886	0.0029349
898	0.0032724
910	0.0013878
922	0.0011502
934	0.001647
946	0.0014661
958	0.0026865
970	0.0028215
982	0.0018333
994	0.0022545
1006	0.0033048
1018	0.0049167
1030	0.0042552
1042	0.0026892
1054	0.0022572
1066	0.0021627
1078	0.002241
1090	0.0019224
1102	0.001512
1114	0.0020952
1126	0.0015822
1138	0.0011421
1150	0.0009315
1162	0.0011313
1174	0.0028053
1186	0.0041958
1198	0.00351
1210	0.0072279
1222	0.0163593
1234	0.027
1246	0.0177525
1258	0.0065826
1270	0.0031671
1282	0.0020088
1294	0.0012663
1306	0.0009693
1318	0.0008964
1330	0.0008019
1342	0.0012285
1354	0.0026136
1366	0.005076
1378	0.0060696
1390	0.0030645
1402	0.0012879
1414	0.0010503
1426	0.0012123
1438	0.0019062
1450	0.0028485
1462	0.0025893
1474	0.0013122
1486	0.000729
1498	0.0005616
1510	0.0005157
1522	0.000513
1534	0.0004887
1546	0.0004617
1558	0.0005022
1570	0.000432
1582	0.0003834
1594	0.0004698
1606	0.0004725
1618	0.0005859
1630	0.0009585
1642	0.0015768
1654	0.0012393
1666	0.0006399
1678	0.0005967
1690	0.0007101
1702	0.0009558
1714	0.0014526
1726	0.001809
1738	0.0041553
1750	0.0170154
1762	0.0145503
1774	0.0027756
1786	0.0015984
1798	0.0013095
1810	0.0008424
1822	0.0006858
1834	0.0004509
1846	0.0004023
1858	0.0003348
1870	0.0003078
1882	0.0002457
1894	0.0002052
1906	0.0001701
1918	0.0001647
1930	0.0001674
1942	0.0001323
1954	9.99e-05
1966	0.0001215
1978	0.0001215
1990	0.0001161
2002	0.0001026
2014	8.37e-05
2026	8.37e-05
2038	8.64e-05
2050	0.0001296
2062	0.0001026
2074	7.83e-05
2086	7.83e-05
2098	0.000108
2110	7.29e-05
2122	7.29e-05
2134	0.000108
2146	0.0001269
2158	8.37e-05
2170	9.18e-05
2182	6.75e-05
2194	7.29e-05
2206	8.1e-05
2218	6.48e-05
2230	6.21e-05
2242	6.75e-05
2254	5.13e-05
2266	5.94e-05
2278	7.29e-05
2290	5.94e-05
2302	4.86e-05
2314	3.24e-05
2326	0
2338	0
2350	0
2362	0
2374	0
2386	4.32e-05
2398	5.67e-05
2410	3.78e-05
2422	5.94e-05
2434	7.83e-05
2446	7.83e-05
2458	6.75e-05
2470	6.48e-05
2482	5.4e-05
2494	5.13e-05
2506	1.35e-05
2518	1.89e-05
2530	5.13e-05
2542	1.89e-05
2554	2.97e-05
2566	4.86e-05
2578	8.64e-05
2590	6.75e-05
2602	7.83e-05
2614	0.0001134
2626	0.000135
2638	9.72e-05
2650	9.72e-05
2662	0.0001107
2674	0.0001566
2686	0.000162
2698	0.0001566
2710	0.0001593
2722	0.0002403
2734	0.0002754
2746	0.0002376
2758	0.0002322
2770	0.0002241
2782	0.000297
2794	0.0002862
2806	0.0003996
2818	0.0005643
2830	0.0007695
2842	0.0017307
2854	0.0037962
2866	0.0037746
2878	0.0044037
2890	0.0036774
2902	0.0043308
2914	0.0066582
2926	0.0087534
2938	0.0113292
2950	0.0102033
2962	0.0093312
2974	0.004995
2986	0.0025839
2998	0.0016524
3010	0.0011691
3022	0.0008208
3034	0.0007722
3046	0.0006858
3058	0.0007263
3070	0.0010152
3082	0.0013635
3094	0.0013041
3106	0.0005805
3118	0.0003375
3130	0.0002322
3142	0.0002484
3154	0.0001728
3166	0.0002025
3178	0.0001215
3190	0.0001134
3202	0.000135
3214	8.91e-05
3226	9.99e-05
3238	7.29e-05
3250	9.99e-05
3262	0.0001026
3274	9.99e-05
3286	9.72e-05
3298	7.83e-05
3310	0.0001107
3322	5.94e-05
3334	8.1e-05
3346	4.86e-05
3358	4.32e-05
3370	6.48e-05
3382	7.29e-05
3394	2.97e-05
3406	2.97e-05
3418	4.32e-05
3430	7.83e-05
3442	8.1e-05
3454	4.05e-05
3466	0.0001296
3478	7.29e-05
3490	0.000216
3502	0.0001755
3514	9.18e-05
3526	4.59e-05
3538	3.78e-05
3550	5.4e-05
3562	6.21e-05
3574	4.86e-05
3586	8.91e-05
3598	5.94e-05
3610	4.59e-05
3622	8.1e-05
3634	5.94e-05
3646	1.89e-05
3658	4.86e-05
3670	9.99e-05
3682	9.18e-05
3694	0
3706	2.16e-05
3718	7.02e-05
3730	6.48e-05
3742	9.45e-05
3754	0.0001134
3766	4.59e-05
3778	9.99e-05
3790	4.86e-05
3802	8.1e-05
3814	5.94e-05
3826	0.0001269
3838	9.72e-05
