Infrared Spectrum: 2-(2'-Methoxyphenyl)-4,4-dimethyl-2-oxazoline
Formula: C 12 H 15 N O 2
CAS: 57598-33-1
State: gas
Origin: EPA-IR VAPOR PHASE LIBRARY
1/CM	ABSORBANCE
549.8	0.00176
559.445	0.00294
569.09	0.00229
578.734	0.00277
588.379	0.003
598.024	0.00185
607.669	0.00468
617.313	0.004849
626.958	0.0036
636.603	0.0022
646.248	0.00356
655.893	0.0054752
665.537	0.00642
675.182	0.004968
684.827	0.0060462
694.472	0.00787
704.116	0.00799
713.761	0.0055273
723.406	0.004859
733.051	0.00708
742.695	0.01071
752.34	0.0174
761.985	0.01522
771.63	0.00736
781.275	0.0058342
790.919	0.00672
800.564	0.0053359
810.209	0.004314
819.854	0.00171
829.498	0.00408
839.143	0.00316
848.788	0.00313
858.433	0.00381
868.078	0.00429
877.722	0.004659
887.367	0.00448
897.012	0.00397
906.657	0.0055851
916.301	0.00762
925.946	0.00803
935.591	0.0052546
945.236	0.0055258
954.88	0.00647
964.525	0.00767
974.17	0.00948
983.815	0.0113
993.46	0.01288
1003.1	0.00978
1012.75	0.01339
1022.39	0.02188
1032.04	0.03623
1041.68	0.03871
1051.33	0.02599
1060.97	0.0164
1070.62	0.01278
1080.26	0.0058644
1089.91	0.00671
1099.55	0.0056475
1109.2	0.00937
1118.84	0.01129
1128.49	0.00953
1138.13	0.00786
1147.78	0.00637
1157.42	0.01106
1167.07	0.00935
1176.71	0.01517
1186.36	0.01659
1196	0.01851
1205.64	0.01513
1215.29	0.01972
1224.93	0.01823
1234.58	0.02551
1244.22	0.03097
1253.87	0.03241
1263.51	0.02959
1273.16	0.02704
1282.8	0.02065
1292.45	0.01677
1302.09	0.01831
1311.74	0.01943
1321.38	0.01507
1331.03	0.0106
1340.67	0.01306
1350.32	0.0156
1359.96	0.01001
1369.61	0.00889
1379.25	0.00715
1388.9	0.0063
1398.54	0.0053366
1408.18	0.0054934
1417.83	0.00633
1427.47	0.00954
1437.12	0.01359
1446.76	0.01298
1456.41	0.01461
1466.05	0.01699
1475.7	0.01592
1485.34	0.02048
1494.99	0.02342
1504.63	0.01389
1514.28	0.007
1523.92	0.0053465
1533.57	0.00484
1543.21	0.004752
1552.86	0.00465
1562.5	0.0056545
1572.15	0.00753
1581.79	0.00945
1591.44	0.01166
1601.08	0.01284
1610.73	0.01213
1620.37	0.0121
1630.01	0.0156
1639.66	0.0223
1649.3	0.03413
1658.95	0.03529
1668.59	0.02133
1678.24	0.01418
1687.88	0.01
1697.53	0.00748
1707.17	0.005438
1716.82	0.0055396
1726.46	0.004551
1736.11	0.004486
1745.75	0.004148
1755.4	0.00338
1765.04	0.00375
1774.69	0.00405
1784.33	0.00407
1793.98	0.00403
1803.62	0.00358
1813.27	0.00396
1822.91	0.00363
1832.55	0.00371
1842.2	0.00351
1851.84	0.0034
1861.49	0.00316
1871.13	0.00341
1880.78	0.00336
1890.42	0.00302
1900.07	0.00387
1909.71	0.00393
1919.36	0.00387
1929	0.00348
1938.65	0.00347
1948.29	0.0034
1957.94	0.00346
1967.58	0.00266
1977.23	0.00321
1986.87	0.00325
1996.52	0.00322
2006.16	0.00309
2015.81	0.00314
2025.45	0.0035
2035.1	0.00319
2044.74	0.00397
2054.38	0.0034
2064.03	0.00316
2073.67	0.00304
2083.32	0.00286
2092.96	0.00246
2102.61	0.00263
2112.25	0.00253
2121.9	0.00287
2131.54	0.00246
2141.19	0.00275
2150.83	0.00256
2160.48	0.00283
2170.12	0.00242
2179.77	0.00236
2189.41	0.00293
2199.06	0.00251
2208.7	0.00258
2218.35	0.00263
2227.99	0.0031
2237.64	0.00255
2247.28	0.00266
2256.92	0.00265
2266.57	0.00318
2276.21	0.00268
2285.86	0.00281
2295.5	0.0026
2305.15	0.00271
2314.79	0.00273
2324.44	0.00255
2334.08	0.00238
2343.73	0.00224
2353.37	0.00248
2363.02	0.00272
2372.66	0.00277
2382.31	0.00272
2391.95	0.00257
2401.6	0.00252
2411.24	0.00234
2420.89	0.00242
2430.53	0.00203
2440.18	0.0024
2449.82	0.00231
2459.47	0.00222
2469.11	0.00216
2478.75	0.00202
2488.4	0.00237
2498.04	0.00261
2507.69	0.00207
2517.33	0.00302
2526.98	0.00306
2536.62	0.0025
2546.27	0.00266
2555.91	0.00271
2565.56	0.00275
2575.2	0.00251
2584.85	0.00252
2594.49	0.00234
2604.14	0.00206
2613.78	0.0025
2623.43	0.00274
2633.07	0.00217
2642.72	0.00246
2652.36	0.00251
2662.01	0.00222
2671.65	0.0025
2681.29	0.00247
2690.94	0.00158
2700.58	0.00273
2710.23	0.00191
2719.87	0.00306
2729.52	0.00245
2739.16	0.00292
2748.81	0.00284
2758.45	0.00242
2768.1	0.00269
2777.74	0.00244
2787.39	0.0033
2797.03	0.00287
2806.68	0.00355
2816.32	0.00411
2825.97	0.005371
2835.61	0.00664
2845.26	0.00765
2854.9	0.00766
2864.55	0.00852
2874.19	0.01056
2883.84	0.01333
2893.48	0.01477
2903.12	0.01474
2912.77	0.01429
2922.41	0.01591
2932.06	0.02026
2941.7	0.02171
2951.35	0.0197
2960.99	0.02416
2970.64	0.03265
2980.28	0.0255
2989.93	0.01559
2999.57	0.01058
3009.22	0.0082
3018.86	0.0071
3028.51	0.005014
3038.15	0.00513933
3047.8	0.0058941
3057.44	0.00677
3067.09	0.00792
3076.73	0.00898
3086.38	0.00765
3096.02	0.004942
3105.67	0.00393
3115.31	0.00266
3124.95	0.00273
3134.6	0.0034
3144.24	0.00389
3153.89	0.00281
3163.53	0.00308
3173.18	0.00352
3182.82	0.00213
3192.47	0.00286
3202.11	0.00218
3211.76	0.00215
3221.4	0.00294
3231.05	0.0026
3240.69	0.00194
3250.34	0.00304
3259.98	0.00268
3269.63	0.00226
3279.27	0.00251
3288.92	0.00193
3298.56	0.00181
3308.21	0.0026
3317.85	0.00174
3327.49	0.00147
3337.14	0.00218
3346.78	0.00253
3356.43	0.00228
3366.07	0.0021
3375.72	0.00282
3385.36	0.00216
3395.01	0.00174
3404.65	0.00274
3414.3	0.00272
3423.94	0.00282
3433.59	0.00126
3443.23	0.00202
3452.88	0.00278
3462.52	0.00208
3472.17	0.002
3481.81	0.00209
3491.46	0.00235
3501.1	0.00236
3510.75	0.00222
3520.39	0.00125
3530.04	0.00248
3539.68	0.00265
3549.32	0.00324
3558.97	0.00195
3568.61	0.00193
3578.26	0.00322
3587.9	0.0022
3597.55	0.00128
3607.19	0.00239
3616.84	0.0024
3626.48	0.00223
3636.13	0.00134
3645.77	0.00204
3655.42	0.00221
3665.06	0.00196
3674.71	0.00244
3684.35	0.00187
3694	0.00262
3703.64	0.00253
3713.29	0.00183
3722.93	0.00225
3732.58	0.00351
3742.22	0.00184
3751.86	0.00261
3761.51	0.00245
3771.15	0.00215
3780.8	0.00255
3790.44	0.00235
3800.09	0.00131
3809.73	0.00188
3819.38	0.00184
3829.02	0.00229
3838.67	0.00164
3848.31	0.00237
3857.96	0.00272
3867.6	0.00255
3877.25	0.00201
3886.89	0.00263
3896.54	0.00209
3906.18	0.00176
3915.83	0.00263
3925.47	0.00219
3935.12	0.00142
3944.76	0.00257
3954.41	0.00226
3964.05	0.0019
3973.69	0.00185
3983.34	0.00185
3992.98	0
