Infrared Spectrum: 5-Fluoro-1,2,3-tribromobenzene
Formula: C 6 H 2 Br 3 F
CAS: 576-82-9
State: gas
Origin: EPA-IR VAPOR PHASE LIBRARY
1/CM	ABSORBANCE
549.8	0.0013939
559.445	0.001647
569.09	0.003387
578.735	0.005837
588.38	0.009427
598.025	0.036587
607.67	0.014927
617.315	0.002967
626.96	0.002327
636.605	0.001837
646.251	0.0014715
655.896	0.0011615
665.541	0.002337
675.186	0.007797
684.831	0.005787
694.476	0.001967
704.121	0.001336
713.766	0.003047
723.411	0.009767
733.056	0.013637
742.701	0.023117
752.346	0.063137
761.991	0.020237
771.636	0.002107
781.281	0.0010391
790.926	0.0007827
800.571	0.0007211
810.216	0.001002
819.861	0.001425
829.507	0.002297
839.152	0.002857
848.797	0.014377
858.442	0.055527
868.087	0.027957
877.732	0.004877
887.377	0.002627
897.022	0.005397
906.667	0.031737
916.312	0.039897
925.957	0.004247
935.602	0.0014178
945.247	0.0014955
954.892	0.001857
964.537	0.001927
974.182	0.002007
983.827	0.001527
993.472	0.0011516
1003.12	0.002967
1012.76	0.006307
1022.41	0.006737
1032.05	0.002917
1041.7	0.0009533
1051.34	0.0008123
1060.99	0.0012198
1070.63	0.0013339
1080.28	0.001927
1089.92	0.005627
1099.57	0.025727
1109.21	0.033627
1118.86	0.009867
1128.5	0.005257
1138.15	0.007527
1147.79	0.006057
1157.44	0.016657
1167.08	0.011667
1176.73	0.007727
1186.37	0.003157
1196.02	0.002667
1205.66	0.002467
1215.31	0.004427
1224.95	0.019927
1234.6	0.058777
1244.24	0.054317
1253.89	0.017967
1263.53	0.008257
1273.18	0.002187
1282.82	0.001383
1292.47	0.0009817
1302.11	0.0009828
1311.76	0.0011314
1321.4	0.001767
1331.05	0.003827
1340.69	0.006497
1350.34	0.015417
1359.98	0.024867
1369.63	0.026687
1379.27	0.043027
1388.92	0.023027
1398.56	0.065637
1408.21	0.184077
1417.85	0.090547
1427.5	0.013527
1437.14	0.008387
1446.79	0.006907
1456.43	0.009807
1466.08	0.011777
1475.73	0.004377
1485.37	0.001897
1495.02	0.002017
1504.66	0.002707
1514.31	0.003477
1523.95	0.004217
1533.6	0.007377
1543.24	0.015887
1552.89	0.064387
1562.53	0.145757
1572.18	0.123897
1581.82	0.096607
1591.47	0.034617
1601.11	0.017347
1610.76	0.010467
1620.4	0.003767
1630.05	0.002787
1639.69	0.002117
1649.34	0.001657
1658.98	0.001867
1668.63	0.001937
1678.27	0.0012194
1687.92	0.001697
1697.56	0.003737
1707.21	0.007467
1716.85	0.004917
1726.5	0.001767
1736.14	0.0010538
1745.79	0.0009468
1755.43	0.0009449
1765.08	0.0008215
1774.72	0.0008943
1784.37	0.0008872
1794.01	0.0007533
1803.66	0.00064
1813.3	0.000727
1822.95	0.0009157
1832.59	0.0012904
1842.24	0.0013294
1851.88	0.0009713
1861.53	0.0008136
1871.17	0.00055064
1880.82	0.00060734
1890.46	0.000516021
1900.11	0.0007432
1909.75	0.0009261
1919.4	0.0009555
1929.04	0.0009975
1938.69	0.0009459
1948.33	0.00058487
1957.98	0.00054118
1967.62	0.0004407
1977.27	0.00050984
1986.91	0.00055264
1996.56	0.00060099
2006.2	0.0005047
2015.85	0.0006252
2025.49	0.00054405
2035.14	0.0005017
2044.78	0.0005038
2054.43	0.00055754
2064.07	0.0004312
2073.72	0.0004454
2083.36	0.000526068
2093.01	0.000521821
2102.65	0.00056488
2112.3	0.0006129
2121.94	0.0007304
2131.59	0.0011467
2141.23	0.001617
2150.88	0.001847
2160.52	0.0011405
2170.17	0.00054987
2179.81	0.00055405
2189.46	0.0004321
2199.1	0.0005015
2208.75	0.0004185
2218.39	0.0004741
2228.04	0.0004823
2237.68	0.00053819
2247.33	0.0007322
2256.97	0.0009047
2266.62	0.0008417
2276.26	0.0006239
2285.91	0.00053038
2295.55	0.00054001
2305.2	0.00058073
2314.84	0.0007292
2324.49	0.0008619
2334.13	0.0006519
2343.78	0.00052878
2353.42	0.00053599
2363.07	0.0004754
2372.72	0.0005563
2382.36	0.00056961
2392.01	0.000522284
2401.65	0.0004889
2411.3	0.000362
2420.94	0.0004598
2430.59	0.00052325
2440.23	0.00057287
2449.88	0.0007213
2459.52	0.0011125
2469.17	0.001737
2478.81	0.001837
2488.46	0.0014555
2498.1	0.0009154
2507.75	0.0006976
2517.39	0.00056638
2527.04	0.00054522
2536.68	0.00061225
2546.33	0.0005001
2555.97	0.00054163
2565.62	0.000524508
2575.26	0.000483
2584.91	0.0005041
2594.55	0.00060403
2604.2	0.0007185
2613.84	0.0006938
2623.49	0.0006626
2633.13	0.0008835
2642.78	0.0012555
2652.42	0.0010699
2662.07	0.00055004
2671.71	0.000408
2681.36	0.000405
2691	0.000417
2700.65	0.0004511
2710.29	0.000272
2719.94	0.000333
2729.58	0.000458
2739.23	0.0004533
2748.87	0.00023
2758.52	0.000346
2768.16	0.000396
2777.81	0.00056596
2787.45	0.001041
2797.1	0.0010578
2806.74	0.000681
2816.39	0.000411
2826.03	0.000333
2835.68	0.00021
2845.32	4.8e-05
2854.97	0.000226
2864.61	0.000296
2874.26	6.1e-05
2883.9	0.000207
2893.55	0.000192
2903.19	0.000175
2912.84	0.0003
2922.48	0.000386
2932.13	0.000435
2941.77	0.000389
2951.42	0.0004943
2961.06	0.000247
2970.71	0.0004539
2980.35	0.000273
2990	0.000305
2999.64	0.000227
3009.29	0.000266
3018.93	0.000215
3028.58	0.000266
3038.22	0.000268
3047.87	0.000185
3057.51	0.000364
3067.16	0.00055877
3076.8	0.0010727
3086.45	0.004017
3096.09	0.004087
3105.74	0.0009633
3115.38	0.0008961
3125.03	0.0009292
3134.67	0.0010276
3144.32	0.0010304
3153.96	0.0006806
3163.61	0.00057702
3173.25	0.000479
3182.9	0.000331
3192.54	0.00033
3202.19	0.0004197
3211.83	0.000358
3221.48	0.000293
3231.12	0.000506
3240.77	0.000276
3250.41	0.0004357
3260.06	0.000622
3269.7	0.0004372
3279.35	0.00039
3289	0.0007055
3298.64	0.00041
3308.29	0.000375
3317.93	0.00055034
3327.58	0.00061223
3337.22	0.00037
3346.87	0.000309
3356.51	0.00053957
3366.16	0.0006296
3375.8	0.0004872
3385.45	0.000398
3395.09	0.000519552
3404.74	0.00060595
3414.38	0.0006271
3424.03	0.0007395
3433.67	0.0006257
3443.32	0.00051336
3452.96	0.000396
3462.61	0.00058747
3472.25	0.0005019
3481.9	0.0006707
3491.54	0.0006713
3501.19	0.0006545
3510.83	0.0006209
3520.48	0.0007307
3530.12	0.0006517
3539.77	0.0008332
3549.41	0.0006773
3559.06	0.0006536
3568.7	0.0006297
3578.35	0.0007895
3587.99	0.000735
3597.64	0.0007192
3607.28	0.000728
3616.93	0.00069
3626.57	0.00059591
3636.22	0.0007542
3645.86	0.00060086
3655.51	0.0006522
3665.15	0.0008155
3674.8	0.0007479
3684.44	0.0007959
3694.09	0.0009456
3703.73	0.0006433
3713.38	0.0005044
3723.02	0.00058746
3732.67	0.0006996
3742.31	0.0008264
3751.96	0.00057627
3761.6	0.0004739
3771.25	0.0008533
3780.89	0.0007885
3790.54	0.0007425
3800.18	0.0008546
3809.83	0.0007969
3819.47	0.0007121
3829.12	0.0008958
3838.76	0.0010369
3848.41	0.0010842
3858.05	0.0008013
3867.7	0.00081
3877.34	0.00061229
3886.99	0.00059885
3896.63	0.0006818
3906.28	0.0006935
3915.92	0.0004974
3925.57	0.0007058
3935.21	0.0008735
3944.86	0.00059549
3954.5	0.00051106
3964.15	0.0004916
3973.79	0.0006729
3983.44	0.0006401
3993.08	0.0007572
