Infrared Spectrum: 1-Bromo-2,6-dimethylbenzene
Formula: C 8 H 9 Br
CAS: 576-22-7
State: gas
Instrument: HP-GC/MS/IRD
Origin: NIST Mass Spectrometry Data Center
1/CM	ABSORBANCE
550	0.002421
562	0.010854
574	0.006579
586	0.00054
598	0.000918
610	0.001089
622	0.000108
634	2.7e-05
646	0.000108
658	0.000342
670	0.00045
682	0.001008
694	0.004122
706	0.007209
718	0.003888
730	0.003978
742	0.012744
754	0.054108
766	0.09
778	0.033129
790	0.006237
802	0.00261
814	0.001269
826	0.000693
838	0.000756
850	0.000711
862	0.000801
874	0.000693
886	0.000756
898	0.001467
910	0.002646
922	0.0027
934	0.00207
946	0.001809
958	0.002079
970	0.003816
982	0.00864
994	0.020529
1006	0.033966
1018	0.041211
1030	0.068508
1042	0.044631
1054	0.009486
1066	0.004311
1078	0.002457
1090	0.002079
1102	0.002088
1114	0.002151
1126	0.001737
1138	0.001323
1150	0.001629
1162	0.002691
1174	0.002322
1186	0.001503
1198	0.001458
1210	0.001323
1222	0.001161
1234	0.001431
1246	0.001899
1258	0.0018
1270	0.001341
1282	0.001269
1294	0.001314
1306	0.001413
1318	0.001593
1330	0.001629
1342	0.001746
1354	0.002295
1366	0.003924
1378	0.010539
1390	0.016614
1402	0.019485
1414	0.020178
1426	0.017568
1438	0.026118
1450	0.040113
1462	0.050508
1474	0.042183
1486	0.023931
1498	0.011358
1510	0.007101
1522	0.006606
1534	0.006417
1546	0.005625
1558	0.006156
1570	0.009459
1582	0.013338
1594	0.012321
1606	0.006588
1618	0.002916
1630	0.002529
1642	0.00333
1654	0.003051
1666	0.001908
1678	0.001251
1690	0.001008
1702	0.001125
1714	0.001152
1726	0.001179
1738	0.000873
1750	0.00117
1762	0.002187
1774	0.001557
1786	0.000675
1798	0.000846
1810	0.000927
1822	0.001026
1834	0.001953
1846	0.002331
1858	0.001089
1870	0.000324
1882	0.000342
1894	0.000675
1906	0.001854
1918	0.003735
1930	0.003078
1942	0.0009
1954	0.000396
1966	0.000279
1978	0.000234
1990	0.000171
2002	0.000189
2014	0.000207
2026	0.000234
2038	0.000243
2050	0.000207
2062	0.000225
2074	0.000252
2086	0.000117
2098	4.5e-05
2110	4.5e-05
2122	9e-05
2134	0.000243
2146	0.000315
2158	0.000189
2170	0.000108
2182	1.8e-05
2194	1.8e-05
2206	0
2218	3.6e-05
2230	3.6e-05
2242	3.6e-05
2254	7.2e-05
2266	0.00018
2278	0.000279
2290	0.000477
2302	0.000432
2314	0.00027
2326	0.000513
2338	0.000693
2350	0.000612
2362	0.000567
2374	0.000405
2386	0.000297
2398	0.000387
2410	0.000594
2422	0.000639
2434	0.000522
2446	0.000378
2458	0.000378
2470	0.000414
2482	0.000504
2494	0.000612
2506	0.000711
2518	0.00063
2530	0.000621
2542	0.000585
2554	0.000486
2566	0.000405
2578	0.000423
2590	0.00054
2602	0.000612
2614	0.000729
2626	0.000792
2638	0.000765
2650	0.000459
2662	0.000324
2674	0.000252
2686	0.000288
2698	0.000387
2710	0.000495
2722	0.000603
2734	0.001224
2746	0.00225
2758	0.001854
2770	0.000765
2782	0.000702
2794	0.000945
2806	0.001539
2818	0.002502
2830	0.003906
2842	0.005805
2854	0.008829
2866	0.012591
2878	0.012654
2890	0.010926
2902	0.013239
2914	0.019998
2926	0.033633
2938	0.042237
2950	0.033048
2962	0.030447
2974	0.032526
2986	0.035586
2998	0.025884
3010	0.01845
3022	0.017874
3034	0.018936
3046	0.029124
3058	0.041391
3070	0.034524
3082	0.020295
3094	0.008379
3106	0.004383
3118	0.003123
3130	0.002322
3142	0.001944
3154	0.001566
3166	0.001422
3178	0.001071
3190	0.000702
3202	0.000486
3214	0.00036
3226	0.000261
3238	0.00018
3250	0.000189
3262	0.000126
3274	0.000135
3286	0.000162
3298	0.000144
3310	0.000135
3322	0.000108
3334	0.000126
3346	9.9e-05
3358	8.1e-05
3370	9e-05
3382	8.1e-05
3394	9.9e-05
3406	5.4e-05
3418	0.000135
3430	0.000144
3442	0.000126
3454	0.000171
3466	0.000144
3478	0.000135
3490	9e-05
3502	0.000135
3514	5.4e-05
3526	0.000144
3538	9.9e-05
3550	0.000153
3562	0.000108
3574	0.000171
3586	0.000261
3598	0.000144
3610	0.000108
3622	4.5e-05
3634	7.2e-05
3646	9.9e-05
3658	3.6e-05
3670	4.5e-05
3682	4.5e-05
3694	1.8e-05
3706	9.9e-05
3718	0
3730	0.000117
3742	0.000162
3754	0.000252
3766	0.000351
3778	0.000423
3790	0.00027
3802	0.000333
3814	0.000486
3826	0.000513
3838	0.000594
