Infrared Spectrum: N-Acetylindole
Formula: C 10 H 9 N O
CAS: 576-15-8
State: gas
Origin: EPA-IR VAPOR PHASE LIBRARY
1/CM	ABSORBANCE
549.8	0.00308
559.445	0.00366
569.09	0.00319
578.734	0.00508
588.379	0.00431
598.024	0.00983
607.669	0.01491
617.313	0.00893
626.958	0.0032
636.603	0.00252
646.248	0.00318
655.893	0.00406
665.537	0.01098
675.182	0.01594
684.827	0.01044
694.472	0.00985
704.116	0.01654
713.761	0.01317
723.406	0.01225
733.051	0.02559
742.695	0.0445
752.34	0.03658
761.985	0.02644
771.63	0.01337
781.275	0.0047
790.919	0.00264
800.564	0.0020206
810.209	0.0020417
819.854	0.0017315
829.498	0.00214
839.143	0.00266
848.788	0.0025
858.433	0.00269
868.078	0.003
877.722	0.00591
887.367	0.00521
897.012	0.00241
906.657	0.00357
916.301	0.01021
925.946	0.02563
935.591	0.02349
945.236	0.00675
954.88	0.00349
964.525	0.00457
974.17	0.00475
983.815	0.00318
993.46	0.00362
1003.1	0.00535
1012.75	0.00948
1022.39	0.0102
1032.04	0.00837
1041.68	0.0058
1051.33	0.00381
1060.97	0.00298
1070.62	0.00553
1080.26	0.01096
1089.91	0.01068
1099.55	0.00592
1109.2	0.00887
1118.84	0.01081
1128.49	0.00935
1138.13	0.01026
1147.78	0.00969
1157.42	0.0109
1167.07	0.00862
1176.71	0.00917
1186.36	0.01199
1196	0.02435
1205.64	0.05258
1215.29	0.05457
1224.93	0.03741
1234.58	0.04636
1244.22	0.02692
1253.87	0.00964
1263.51	0.00901
1273.16	0.01057
1282.8	0.0151
1292.45	0.02895
1302.09	0.06104
1311.74	0.12329
1321.38	0.18081
1331.03	0.13522
1340.67	0.04069
1350.32	0.02047
1359.96	0.03091
1369.61	0.05272
1379.25	0.06891
1388.9	0.05242
1398.54	0.02361
1408.18	0.01416
1417.83	0.01321
1427.47	0.02083
1437.12	0.03648
1446.76	0.07539
1456.41	0.07229
1466.05	0.02724
1475.7	0.01674
1485.34	0.00905
1494.99	0.00511
1504.63	0.00458
1514.28	0.00613
1523.92	0.01202
1533.57	0.02158
1543.21	0.02122
1552.86	0.01455
1562.5	0.01177
1572.15	0.00799
1581.79	0.00667
1591.44	0.00707
1601.08	0.00743
1610.73	0.00739
1620.37	0.006
1630.01	0.00449
1639.66	0.00471
1649.3	0.00503
1658.95	0.00499
1668.59	0.00584
1678.24	0.00668
1687.88	0.00791
1697.53	0.01055
1707.17	0.02097
1716.82	0.06054
1726.46	0.13289
1736.11	0.12475
1745.75	0.04191
1755.4	0.0105
1765.04	0.00597
1774.69	0.00562
1784.33	0.00627
1793.98	0.00704
1803.62	0.00531
1813.27	0.00396
1822.91	0.00352
1832.55	0.00306
1842.2	0.0023
1851.84	0.00226
1861.49	0.00255
1871.13	0.00306
1880.78	0.00314
1890.42	0.00305
1900.07	0.00323
1909.71	0.00306
1919.36	0.00239
1929	0.00274
1938.65	0.00228
1948.29	0.00172
1957.94	0.0012636
1967.58	0.0014101
1977.23	0.0017388
1986.87	0.0019748
1996.52	0.0019912
2006.16	0.0017675
2015.81	0.0014668
2025.45	0.00115003
2035.1	0.001502
2044.74	0.0014708
2054.38	0.0016693
2064.03	0.0014262
2073.67	0.0013538
2083.32	0.0015246
2092.96	0.00119381
2102.61	0.0011804
2112.25	0.000968
2121.9	0.0010859
2131.54	0.0010235
2141.19	0.000721
2150.83	0.000998
2160.48	0.00109716
2170.12	0.00113354
2179.77	0.00086
2189.41	0.000991
2199.06	0.00117368
2208.7	0.000999
2218.35	0.0013497
2227.99	0.000948
2237.64	0.00111806
2247.28	0.00103
2256.92	0.0010585
2266.57	0.000953
2276.21	0.00112916
2285.86	0.00115086
2295.5	0.0012668
2305.15	0.0012419
2314.79	0.0013682
2324.44	0.0011718
2334.08	0.0010386
2343.73	0.0012163
2353.37	0.00118688
2363.02	0.00092
2372.66	0.000792
2382.31	0.0011658
2391.95	0.00119098
2401.6	0.0010422
2411.24	0.0014203
2420.89	0.00110811
2430.53	0.00115494
2440.18	0.0010447
2449.82	0.00092
2459.47	0.00116471
2469.11	0.0016198
2478.75	0.00115199
2488.4	0.0013213
2498.04	0.0010127
2507.69	0.001144
2517.33	0.0012872
2526.98	0.0013858
2536.62	0.001447
2546.27	0.0012884
2555.91	0.0016294
2565.56	0.00110038
2575.2	0.000908
2584.85	0.0010343
2594.49	0.0012631
2604.14	0.0010816
2613.78	0.0014367
2623.43	0.0012721
2633.07	0.000951
2642.72	0.0012652
2652.36	0.000942
2662.01	0.00119466
2671.65	0.000979
2681.29	0.0013577
2690.94	0.0010213
2700.58	0.0012799
2710.23	0.000998
2719.87	0.000826
2729.52	0.000671
2739.16	0.00116565
2748.81	0.001069
2758.45	0.000606
2768.1	0.000772
2777.74	0.000755
2787.39	0.000672
2797.03	0.00074
2806.68	0.000884
2816.32	0.0010368
2825.97	0.000947
2835.61	0.0010059
2845.26	0.000737
2854.9	0.0012449
2864.55	0.000945
2874.19	0.0010194
2883.84	0.000922
2893.48	0.00112106
2903.12	0.0010349
2912.77	0.0014837
2922.41	0.000971
2932.06	0.0019149
2941.7	0.00269
2951.35	0.0020963
2960.99	0.0019101
2970.64	0.0015071
2980.28	0.0019985
2989.93	0.0028
2999.57	0.0021
3009.22	0.00249
3018.86	0.00415
3028.51	0.00595
3038.15	0.00704
3047.8	0.00881
3057.44	0.01188
3067.09	0.01573
3076.73	0.01472
3086.38	0.00829
3096.02	0.00368
3105.67	0.00327
3115.31	0.00433
3124.95	0.00387
3134.6	0.00231
3144.24	0.0014458
3153.89	0.0016696
3163.53	0.0015369
3173.18	0.0012619
3182.82	0.000773
3192.47	0.0010507
3202.11	0.0010659
3211.76	0.000675
3221.4	0.0010026
3231.05	0.000611
3240.69	0.000791
3250.34	0.000873
3259.98	0.000591
3269.63	0.000375
3279.27	0.000758
3288.92	0.000987
3298.56	0.000914
3308.21	0.000572
3317.85	0.000838
3327.49	0.000292
3337.14	0.0010184
3346.78	0.000579
3356.43	0.000299
3366.07	0.0010305
3375.72	0.000174
3385.36	0.00105
3395.01	0.000885
3404.65	0.00109956
3414.3	0.0010288
3423.94	0.0013678
3433.59	0.0019206
3443.23	0.00241
3452.88	0.0018391
3462.52	0.00115552
3472.17	0.0010246
3481.81	0.000843
3491.46	0.000947
3501.1	0.00125
3510.75	0.0014059
3520.39	0.00114782
3530.04	0.000569
3539.68	0.0013577
3549.32	0.000325
3558.97	0.000949
3568.61	0.000322
3578.26	0.000785
3587.9	0.0010887
3597.55	0.00114778
3607.19	0.0013086
3616.84	0.0014253
3626.48	0.00116707
3636.13	0.0012886
3645.77	0.000835
3655.42	0.0010832
3665.06	0.00114598
3674.71	0.000731
3684.35	0.000211
3694	0.000955
3703.64	0.00082
3713.29	0.00111619
3722.93	0.0012235
3732.58	0.000881
3742.22	0.0013857
3751.86	0.0010503
3761.51	0.000204
3771.15	0.0010641
3780.8	0.00110598
3790.44	0.0013971
3800.09	0.000722
3809.73	0.0010055
3819.38	0.00119497
3829.02	0.000674
3838.67	0.0015807
3848.31	0.000674
3857.96	0.000845
3867.6	0.000906
3877.25	0.000532
3886.89	0.000592
3896.54	4e-05
3906.18	0.000501
3915.83	0.0013462
3925.47	0.00059
3935.12	0.001077
3944.76	0.000883
3954.41	0.000803
3964.05	0.000974
3973.69	0.000619
3983.34	0.00115075
3992.98	0.00113924
