Infrared Spectrum: P-NITRO ETHANE SULFOANILIDE
Formula: C8 H10 N2 O4 S
CAS: 57616-17-8
State: SOLID (MINERAL OIL MULL)
Class: COBLENTZ
Instrument: Not specified, most likely a prism, grating, or hybrid spectrometer.
Sampling: TRANSMISSION
Resolution: 4
Origin: DOW CHEMICAL COMPANY
MICROMETERS	TRANSMITTANCE
2.04	0.306
2.08004	0.318
2.12008	0.325
2.16012	0.334
2.20015	0.341
2.24019	0.344
2.28023	0.348
2.32027	0.354
2.36031	0.363
2.40035	0.378
2.44039	0.394
2.48042	0.402
2.52046	0.421
2.5605	0.427
2.60054	0.434
2.64058	0.449
2.68062	0.454
2.72066	0.466
2.76069	0.47
2.80073	0.48
2.84077	0.49
2.88081	0.499
2.92085	0.515
2.96089	0.53
3.00092	0.533
3.04096	0.514
3.081	0.386
3.12104	0.091
3.16108	0.266
3.20112	0.305
3.24116	0.331
3.28119	0.361
3.32123	0.381
3.36127	0.242
3.40131	0.044
3.44135	0.039
3.48139	0.099
3.52143	0.247
3.56146	0.495
3.6015	0.538
3.64154	0.55
3.68158	0.55
3.72162	0.56
3.76166	0.573
3.8017	0.578
3.84173	0.59
3.88177	0.601
3.92181	0.61
3.96185	0.613
4.00189	0.621
4.04193	0.635
4.08197	0.626
4.122	0.645
4.16204	0.651
4.20208	0.665
4.24212	0.669
4.28216	0.673
4.3222	0.678
4.36224	0.691
4.40227	0.693
4.44231	0.698
4.48235	0.708
4.52239	0.706
4.56243	0.708
4.60247	0.716
4.64251	0.719
4.68254	0.724
4.72258	0.731
4.76262	0.733
4.80266	0.739
4.8427	0.752
4.88274	0.761
4.92277	0.762
4.96281	0.762
5.00285	0.771
5.04289	0.779
5.08293	0.781
5.12297	0.786
5.16301	0.792
5.20304	0.776
5.24308	0.774
5.28312	0.805
5.32316	0.81
5.3632	0.817
5.40324	0.824
5.44328	0.824
5.48331	0.825
5.52335	0.829
5.56339	0.83
5.60343	0.825
5.64347	0.82
5.68351	0.849
5.72355	0.854
5.76358	0.854
5.80362	0.865
5.84366	0.872
5.8837	0.872
5.92374	0.864
5.96378	0.852
6.00382	0.837
6.04385	0.835
6.08389	0.82
6.12393	0.777
6.16397	0.754
6.20401	0.519
6.24405	0.179
6.28409	0.363
6.32412	0.645
6.36416	0.718
6.4042	0.724
6.44424	0.723
6.48428	0.66
6.52432	0.402
6.56435	0.139
6.60439	0.222
6.64443	0.402
6.68447	0.26
6.72451	0.162
6.76455	0.147
6.80459	0.273
6.84462	0.253
6.88466	0.283
6.9247	0.472
6.96474	0.674
7.00478	0.706
7.04482	0.601
7.08486	0.396
7.12489	0.356
7.16493	0.6
7.20497	0.582
7.24501	0.407
7.28505	0.379
7.32509	0.414
7.36513	0.27
7.40516	0.059
7.4452	0.026
7.48524	0.058
7.52528	0.056
7.56532	0.169
7.60536	0.237
7.6454	0.306
7.68543	0.359
7.72547	0.257
7.76551	0.169
7.80555	0.353
7.84559	0.499
7.88563	0.58
7.92567	0.618
7.9657	0.641
8.00574	0.52
8.04578	0.295
8.08582	0.203
8.12586	0.159
8.1659	0.334
8.20594	0.454
8.24597	0.542
8.28601	0.601
8.32605	0.631
8.36609	0.64
8.40613	0.597
8.44617	0.63
8.4862	0.66
8.52624	0.658
8.56628	0.615
8.60632	0.515
8.64636	0.341
8.6864	0.121
8.72644	0.036
8.76647	0.076
8.80651	0.117
8.84655	0.107
8.88659	0.177
8.92663	0.205
8.96667	0.258
9.00671	0.182
9.04674	0.185
9.08678	0.369
9.12682	0.457
9.16686	0.51
9.2069	0.555
9.24694	0.595
9.28698	0.613
9.32701	0.63
9.36705	0.64
9.40709	0.601
9.44713	0.507
9.48717	0.605
9.52721	0.621
9.56725	0.597
9.60728	0.635
9.64732	0.698
9.68736	0.719
9.7274	0.731
9.76744	0.747
9.80748	0.752
9.84752	0.757
9.88755	0.751
9.92759	0.751
9.96763	0.766
10.0077	0.762
10.0477	0.749
10.0877	0.721
10.1278	0.688
10.1678	0.661
10.2079	0.608
10.2479	0.522
10.2879	0.55
10.328	0.678
10.368	0.711
10.4081	0.737
10.4481	0.737
10.4881	0.733
10.5282	0.741
10.5682	0.742
10.6082	0.731
10.6483	0.718
10.6883	0.678
10.7284	0.601
10.7684	0.482
10.8084	0.257
10.8485	0.077
10.8885	0.038
10.9286	0.064
10.9686	0.16
11.0086	0.276
11.0487	0.369
11.0887	0.447
11.1287	0.533
11.1688	0.592
11.2088	0.628
11.2489	0.651
11.2889	0.676
11.3289	0.691
11.369	0.699
11.409	0.706
11.4491	0.713
11.4891	0.714
11.5291	0.709
11.5692	0.635
11.6092	0.578
11.6492	0.608
11.6893	0.623
11.7293	0.543
11.7694	0.368
11.8094	0.238
11.8494	0.494
11.8895	0.698
11.9295	0.761
11.9696	0.786
12.0096	0.787
12.0496	0.752
12.0897	0.658
12.1297	0.52
12.1698	0.479
12.2098	0.507
12.2498	0.52
12.2899	0.505
12.3299	0.54
12.3699	0.62
12.41	0.671
12.45	0.706
12.4901	0.709
12.5301	0.711
12.5701	0.699
12.6102	0.643
12.6502	0.552
12.6903	0.421
12.7303	0.31
12.7703	0.353
12.8104	0.524
12.8504	0.597
12.8904	0.648
12.9305	0.669
12.9705	0.688
13.0106	0.699
13.0506	0.699
13.0906	0.699
13.1307	0.698
13.1707	0.684
13.2108	0.665
13.2508	0.62
13.2908	0.505
13.3309	0.388
13.3709	0.348
13.4109	0.522
13.451	0.598
13.491	0.611
13.5311	0.608
13.5711	0.598
13.6111	0.565
13.6512	0.537
13.6912	0.494
13.7313	0.429
13.7713	0.364
13.8113	0.3
13.8514	0.25
13.8914	0.238
13.9314	0.263
13.9715	0.341
14.0115	0.434
14.0516	0.525
14.0916	0.587
14.1316	0.628
14.1717	0.656
14.2117	0.666
14.2518	0.669
14.2918	0.668
14.3318	0.656
14.3719	0.638
14.4119	0.593
14.4519	0.538
14.492	0.489
14.532	0.447
14.5721	0.451
14.6121	0.499
14.6521	0.56
14.6922	0.58
14.7322	0.582
14.7723	0.577
14.8123	0.572
14.8523	0.565
14.8924	0.557
14.9324	0.555
14.9724	0.555
15.0125	0.555
15.0525	0.557
15.0926	0.55
15.1326	0.54
15.1726	0.53
15.2127	0.52
15.2527	0.507
15.2928	0.497
15.3328	0.477
15.3728	0.469
15.4129	0.457
15.4529	0.437
15.4929	0.429
15.533	0.419
15.573	0.412
15.6131	0.406
15.6531	0.394
15.6931	0.394
15.7332	0.391
15.7732	0.386
15.8133	0.386
15.8533	0.383
15.8933	0.378
