Infrared Spectrum: 1,3-CYCLOPENTANEDICARBOXIMIDE
Formula: C7 H9 N O2
CAS: 5763-45-1
State: SOLID (0.8 mg / 650 mg KBr DISC)
Class: COBLENTZ III
Instrument: PERKIN-ELMER 21 (GRATING)
Instrument parameters: FILTER CHANGE AT ABOUT 1020 CM^-^1
Sampling: TRANSMISSION
Resolution: 2
Origin: SOUTHERN RESEARCH INSTITUTE
1/CM	TRANSMITTANCE
604.651	0.643
613.846	0.6431
623.042	0.64
632.237	0.6325
641.433	0.6173
650.628	0.6084
659.823	0.5909
669.019	0.5526
678.214	0.5949
687.41	0.5917
696.605	0.656
705.8	0.692
714.996	0.687
724.191	0.682
733.387	0.6674
742.582	0.653
751.777	0.653
760.973	0.6401
770.168	0.6185
779.364	0.5961
788.559	0.5631
797.754	0.542
806.95	0.5588
816.145	0.5743
825.341	0.5257
834.536	0.494
843.731	0.4702
852.927	0.4047
862.122	0.2923
871.318	0.2597
880.513	0.2789
889.708	0.42
898.904	0.5345
908.099	0.5873
917.295	0.6
926.49	0.601
935.685	0.5853
944.881	0.5441
954.076	0.6269
963.272	0.6301
972.467	0.6212
981.662	0.6255
990.858	0.6198
1000.05	0.6125
1009.25	0.6125
1018.44	0.608
1027.64	0.5947
1036.83	0.5317
1046.03	0.371
1055.23	0.3643
1064.42	0.607
1073.62	0.584
1082.81	0.5192
1092.01	0.4515
1101.2	0.3634
1110.4	0.3081
1119.59	0.1246
1128.79	0.4495
1137.98	0.628
1147.18	0.5931
1156.38	0.4145
1165.57	0.2859
1174.77	0.71
1183.96	0.7092
1193.16	0.5293
1202.35	0.5128
1211.55	0.4099
1220.74	0.2796
1229.94	0.4986
1239.13	0.5028
1248.33	0.4097
1257.52	0.2563
1266.72	0.1
1275.92	0.3626
1285.11	0.6827
1294.31	0.696
1303.5	0.439
1312.7	0.5226
1321.89	0.4408
1331.09	0.3613
1340.28	0.2114
1349.48	0.3331
1358.67	0.3483
1367.87	0.224
1377.06	0.4426
1386.26	0.431
1395.46	0.6233
1404.65	0.688
1413.85	0.6537
1423.04	0.6012
1432.24	0.4954
1441.43	0.6427
1450.63	0.5282
1459.82	0.566
1469.02	0.5627
1478.21	0.6146
1487.41	0.6714
1496.61	0.6868
1505.8	0.6728
1515	0.6579
1524.19	0.6083
1533.39	0.5868
1542.58	0.57
1551.78	0.5693
1560.97	0.5541
1570.17	0.5266
1579.36	0.4823
1588.56	0.44
1597.75	0.4025
1606.95	0.3591
1616.15	0.3429
1625.34	0.3185
1634.54	0.2721
1643.73	0.2032
1652.93	0.1578
1662.12	0.112
1671.32	0.0937
1680.51	0.0703
1689.71	0.041
1698.9	0.0691
1708.1	0.0957
1717.29	0.099
1726.49	0.097
1735.69	0.1566
1744.88	0.246
1754.08	0.3154
1763.27	0.3669
1772.47	0.4191
1781.66	0.4448
1790.86	0.4935
1800.05	0.5411
1809.25	0.548
1818.44	0.5478
1827.64	0.6072
1836.83	0.6618
1846.03	0.6887
1855.23	0.7142
1864.42	0.7528
1873.62	0.778
1882.81	0.7828
1892.01	0.784
1901.2	0.7943
1910.4	0.8141
1919.59	0.825
1928.79	0.839
1937.98	0.854
1947.18	0.8653
1956.38	0.8702
1965.57	0.8751
1974.77	0.879
1983.96	0.879
1993.16	0.8848
2002.35	0.8956
2011.55	0.898
2020.74	0.901
2029.94	0.901
2039.13	0.898
2048.33	0.9
2057.52	0.9
2066.72	0.904
2075.92	0.904
2085.11	0.904
2094.31	0.904
2103.5	0.9048
2112.7	0.904
2121.89	0.902
2131.09	0.904
2140.28	0.904
2149.48	0.902
2158.67	0.902
2167.87	0.902
2177.06	0.901
2186.26	0.9
2195.46	0.8944
2204.65	0.888
2213.85	0.8882
2223.04	0.8764
2232.24	0.872
2241.43	0.872
2250.63	0.866
2259.82	0.865
2269.02	0.861
2278.21	0.8536
2287.41	0.848
2296.61	0.844
2305.8	0.8398
2315	0.837
2324.19	0.837
2333.39	0.837
2342.58	0.836
2351.78	0.8358
2360.97	0.841
2370.17	0.8458
2379.36	0.846
2388.56	0.845
2397.75	0.84
2406.95	0.835
2416.15	0.8358
2425.34	0.837
2434.54	0.837
2443.73	0.837
2452.93	0.833
2462.12	0.8244
2471.32	0.8172
2480.51	0.818
2489.71	0.822
2498.9	0.823
2508.1	0.823
2517.29	0.823
2526.49	0.823
2535.69	0.822
2544.88	0.819
2554.08	0.817
2563.27	0.8114
2572.47	0.808
2581.66	0.802
2590.86	0.8
2600.05	0.795
2609.25	0.791
2618.44	0.785
2627.64	0.785
2636.83	0.782
2646.03	0.7742
2655.23	0.7674
2664.42	0.758
2673.62	0.7482
2682.81	0.7364
2692.01	0.731
2701.2	0.7272
2710.4	0.723
2719.59	0.7182
2728.79	0.7142
2737.98	0.71
2747.18	0.708
2756.38	0.6936
2765.57	0.6798
2774.77	0.6546
2783.96	0.6287
2793.16	0.6098
2802.35	0.5757
2811.55	0.5221
2820.74	0.4921
2829.94	0.4682
2839.13	0.466
2848.33	0.4756
2857.52	0.4932
2866.72	0.4884
2875.92	0.483
2885.11	0.486
2894.31	0.49
2903.5	0.4854
2912.7	0.4706
2921.89	0.4428
2931.09	0.4204
2940.28	0.3944
2949.48	0.39
2958.67	0.396
2967.87	0.4194
2977.06	0.4396
2986.26	0.443
2995.46	0.4372
3004.65	0.4216
3013.85	0.4058
3023.04	0.3861
3032.24	0.3646
3041.43	0.3544
3050.63	0.3298
3059.82	0.3024
3069.02	0.2591
3078.21	0.245
3087.41	0.2498
3096.6	0.2776
3105.8	0.3005
3115	0.309
3124.19	0.3006
3133.39	0.2816
3142.58	0.2618
3151.78	0.2462
3160.97	0.242
3170.17	0.2428
3179.36	0.2574
3188.56	0.2726
3197.75	0.2939
3206.95	0.3184
3216.15	0.3364
3225.34	0.3629
3234.54	0.3932
3243.73	0.4401
3252.93	0.4771
3262.12	0.5207
3271.32	0.5589
3280.51	0.5909
3289.71	0.6259
3298.9	0.6504
3308.1	0.6724
3317.29	0.688
3326.49	0.6994
3335.69	0.702
3344.88	0.701
3354.08	0.693
3363.27	0.684
3372.47	0.6756
3381.66	0.67
3390.86	0.6692
3400.05	0.667
3409.25	0.669
3418.44	0.669
3427.64	0.667
3436.83	0.6726
3446.03	0.6766
3455.23	0.682
3464.42	0.6894
3473.62	0.6986
3482.81	0.7076
3492.01	0.714
3501.2	0.7218
3510.4	0.7268
3519.59	0.7336
3528.79	0.739
3537.98	0.7438
3547.18	0.7516
3556.38	0.754
3565.57	0.7628
3574.77	0.774
3583.96	0.7838
3593.16	0.7944
3602.35	0.8036
3611.55	0.8098
3620.74	0.8166
3629.94	0.8256
3639.13	0.8308
3648.33	0.833
3657.52	0.833
3666.72	0.835
3675.92	0.836
3685.11	0.8374
3694.31	0.836
3703.5	0.8352
3712.7	0.837
3721.89	0.84
3731.09	0.84
3740.28	0.84
3749.48	0.84
3758.67	0.841
3767.87	0.8362
3777.06	0.8358
3786.26	0.8408
3795.46	0.845
3804.65	0.845
3813.85	0.845
