Infrared Spectrum: P-PHENOXY-Beta-METHOXY PHENETOLE
Formula: C15 H16 O3
CAS: 57650-84-7
State: SOLUTION (10% CCl4 FOR 2.5-7.5, 10% CS2 FOR 7.5-16 MICRON)
Class: COBLENTZ
Instrument: Not specified, most likely a prism, grating, or hybrid spectrometer.
Sampling: TRANSMISSION
Path length: 0.01 CM, 0.01 CM
Resolution: 4
Origin: DOW CHEMICAL COMPANY
MICROMETERS	TRANSMITTANCE
2.007	0.803
2.04818	0.82
2.08935	0.815
2.13053	0.819
2.17171	0.822
2.21289	0.822
2.25406	0.812
2.29524	0.813
2.33642	0.82
2.3776	0.825
2.41877	0.824
2.45995	0.82
2.50113	0.834
2.5423	0.841
2.58348	0.848
2.62466	0.849
2.66584	0.849
2.70701	0.848
2.74819	0.843
2.78937	0.841
2.83055	0.829
2.87172	0.822
2.9129	0.815
2.95408	0.815
2.99525	0.82
3.03643	0.82
3.07761	0.813
3.11879	0.812
3.15996	0.802
3.20114	0.757
3.24232	0.674
3.2835	0.629
3.32467	0.658
3.36585	0.546
3.40703	0.361
3.4482	0.397
3.48938	0.5
3.53056	0.568
3.57174	0.737
3.61291	0.79
3.65409	0.793
3.69527	0.817
3.73644	0.831
3.77762	0.832
3.8188	0.832
3.85998	0.832
3.90115	0.832
3.94233	0.841
3.98351	0.841
4.02469	0.827
4.06586	0.813
4.10704	0.817
4.14822	0.822
4.18939	0.812
4.23057	0.813
4.27175	0.82
4.31293	0.834
4.3541	0.839
4.39528	0.846
4.43646	0.856
4.47764	0.863
4.51881	0.868
4.55999	0.87
4.60117	0.868
4.64234	0.87
4.68352	0.872
4.7247	0.866
4.76588	0.856
4.80705	0.844
4.84823	0.832
4.88941	0.832
4.93059	0.824
4.97176	0.827
5.01294	0.834
5.05412	0.841
5.09529	0.848
5.13647	0.844
5.17765	0.841
5.21883	0.87
5.26	0.861
5.30118	0.836
5.34236	0.82
5.38354	0.817
5.42471	0.843
5.46589	0.86
5.50707	0.866
5.54824	0.865
5.58942	0.853
5.6306	0.848
5.67178	0.854
5.71295	0.841
5.75413	0.841
5.79531	0.825
5.83649	0.813
5.87766	0.813
5.91884	0.825
5.96002	0.831
6.00119	0.817
6.04237	0.795
6.08355	0.779
6.12473	0.737
6.1659	0.633
6.20708	0.459
6.24826	0.278
6.28944	0.259
6.33061	0.479
6.37179	0.498
6.41297	0.448
6.45414	0.431
6.49532	0.477
6.5365	0.489
6.57768	0.375
6.61885	0.165
6.66003	0.029
6.70121	0.049
6.74239	0.112
6.78356	0.312
6.82474	0.389
6.86592	0.332
6.90709	0.646
6.94827	0.699
6.98945	0.737
7.03063	0.764
7.0718	0.783
7.11298	0.781
7.15416	0.788
7.19533	0.791
7.23651	0.766
7.27769	0.633
7.31887	0.701
7.36004	0.802
7.40122	0.781
7.4424	0.706
7.48358	0.674
7.52475	0.706
7.56593	0.672
7.60711	0.626
7.64828	0.552
7.68946	0.479
7.73064	0.459
7.77182	0.452
7.81299	0.505
7.85417	0.539
7.89535	0.481
7.93653	0.361
7.9777	0.242
8.01888	0.129
8.06006	0.054
8.10123	0.018
8.14241	0.011
8.18359	0.011
8.22477	0.017
8.26594	0.076
8.30712	0.134
8.3483	0.104
8.38948	0.266
8.43065	0.5
8.47183	0.561
8.51301	0.569
8.55418	0.476
8.59536	0.383
8.63654	0.399
8.67772	0.447
8.71889	0.441
8.76007	0.32
8.80125	0.175
8.84243	0.081
8.8836	0.119
8.92478	0.288
8.96596	0.418
9.00713	0.479
9.04831	0.39
9.08949	0.32
9.13067	0.401
9.17184	0.491
9.21302	0.556
9.2542	0.569
9.29538	0.481
9.33655	0.3
9.37773	0.242
9.41891	0.327
9.46008	0.423
9.50126	0.455
9.54244	0.472
9.58362	0.501
9.62479	0.472
9.66597	0.448
9.70715	0.477
9.74833	0.477
9.7895	0.477
9.83068	0.656
9.87186	0.672
9.91303	0.604
9.95421	0.674
9.99539	0.709
10.0366	0.704
10.0777	0.694
10.1189	0.694
10.1601	0.703
10.2013	0.703
10.2425	0.694
10.2836	0.663
10.3248	0.653
10.366	0.667
10.4072	0.694
10.4483	0.715
10.4895	0.733
10.5307	0.742
10.5719	0.737
10.613	0.718
10.6542	0.692
10.6954	0.648
10.7366	0.556
10.7778	0.474
10.8189	0.498
10.8601	0.566
10.9013	0.607
10.9425	0.629
10.9836	0.631
11.0248	0.651
11.066	0.665
11.1072	0.674
11.1484	0.68
11.1895	0.672
11.2307	0.638
11.2719	0.619
11.3131	0.622
11.3542	0.593
11.3954	0.462
11.4366	0.302
11.4778	0.218
11.5189	0.286
11.5601	0.38
11.6013	0.392
11.6425	0.389
11.6837	0.389
11.7248	0.382
11.766	0.344
11.8072	0.284
11.8484	0.238
11.8895	0.218
11.9307	0.218
11.9719	0.249
12.0131	0.298
12.0543	0.353
12.0954	0.409
12.1366	0.469
12.1778	0.515
12.219	0.561
12.2601	0.568
12.3013	0.573
12.3425	0.593
12.3837	0.595
12.4248	0.588
12.466	0.597
12.5072	0.604
12.5484	0.612
12.5896	0.627
12.6307	0.65
12.6719	0.655
12.7131	0.643
12.7543	0.61
12.7954	0.571
12.8366	0.537
12.8778	0.511
12.919	0.479
12.9602	0.465
13.0013	0.452
13.0425	0.441
13.0837	0.424
13.1249	0.404
13.166	0.395
13.2072	0.383
13.2484	0.366
13.2896	0.351
13.3307	0.337
13.3719	0.329
13.4131	0.331
13.4543	0.358
13.4955	0.402
13.5366	0.457
13.5778	0.508
13.619	0.558
13.6602	0.604
13.7013	0.638
13.7425	0.653
13.7837	0.663
13.8249	0.674
13.8661	0.675
13.9072	0.67
13.9484	0.66
13.9896	0.643
14.0308	0.622
14.0719	0.612
14.1131	0.604
14.1543	0.597
14.1955	0.59
14.2366	0.573
14.2778	0.544
14.319	0.493
14.3602	0.419
14.4014	0.322
14.4425	0.237
14.4837	0.204
14.5249	0.237
14.5661	0.336
14.6072	0.44
14.6484	0.493
14.6896	0.523
14.7308	0.53
14.772	0.534
14.8131	0.53
14.8543	0.53
14.8955	0.529
14.9367	0.523
14.9778	0.518
15.019	0.494
15.0602	0.489
15.1014	0.472
15.1425	0.464
15.1837	0.459
15.2249	0.452
15.2661	0.441
15.3073	0.433
15.3484	0.426
15.3896	0.424
15.4308	0.421
15.472	0.419
15.5131	0.412
15.5543	0.406
15.5955	0.402
15.6367	0.397
15.6779	0.39
15.719	0.387
15.7602	0.383
15.8014	0.382
15.8426	0.378
15.8837	0.377
