Infrared Spectrum: 6-Hexadecanone
Formula: C 16 H 32 O
CAS: 57661-23-1
State: gas
Origin: EPA-IR VAPOR PHASE LIBRARY
1/CM	ABSORBANCE
549.9	0.001119
559.547	0.000754
569.193	0.00043
578.84	0.00042
588.486	0.00052
598.133	0.00044
607.779	0.00079
617.426	0.000852
627.072	0.001095
636.719	0.000921
646.365	0.000821
656.012	0.000704
665.658	0.00072
675.305	0.000659
684.951	0.000823
694.598	0.0015356
704.245	0.00261
713.891	0.00391
723.538	0.00467
733.184	0.00455
742.831	0.00395
752.477	0.00327
762.124	0.0027
771.77	0.0024159
781.417	0.0019298
791.063	0.0017378
800.71	0.00157327
810.356	0.00135
820.003	0.001351
829.649	0.0014553
839.296	0.00158604
848.943	0.001731
858.589	0.0016289
868.236	0.00164293
877.882	0.001735
887.529	0.0018816
897.175	0.0021128
906.822	0.0022562
916.468	0.0024626
926.115	0.00261
935.761	0.00283
945.408	0.00301
955.054	0.00336
964.701	0.00378
974.347	0.0039
983.994	0.00385
993.64	0.00408
1003.29	0.00445
1012.93	0.00519
1022.58	0.00602
1032.23	0.00697
1041.87	0.00849
1051.52	0.00874
1061.17	0.00855
1070.81	0.00898
1080.46	0.0087
1090.11	0.00738
1099.75	0.00653
1109.4	0.00701
1119.05	0.00918
1128.69	0.01116
1138.34	0.01095
1147.99	0.00935
1157.63	0.00804
1167.28	0.0075
1176.92	0.0073
1186.57	0.00706
1196.22	0.00741
1205.86	0.00794
1215.51	0.008
1225.16	0.00762
1234.8	0.00738
1244.45	0.00713
1254.1	0.00679
1263.74	0.00731
1273.39	0.00805
1283.04	0.00889
1292.68	0.00989
1302.33	0.01054
1311.98	0.01048
1321.62	0.01058
1331.27	0.01234
1340.92	0.01606
1350.56	0.01944
1360.21	0.0201
1369.86	0.01612
1379.5	0.01225
1389.15	0.00968
1398.79	0.00808
1408.44	0.00931
1418.09	0.01107
1427.73	0.01138
1437.38	0.01305
1447.03	0.01763
1456.67	0.02338
1466.32	0.0224
1475.97	0.01384
1485.61	0.0074
1495.26	0.00464
1504.91	0.00339
1514.55	0.0027
1524.2	0.0022715
1533.85	0.0019378
1543.49	0.0017717
1553.14	0.00164363
1562.79	0.0015221
1572.43	0.00145
1582.08	0.001392
1591.73	0.001405
1601.37	0.00143
1611.02	0.0014772
1620.67	0.00155302
1630.31	0.00157951
1639.96	0.0018351
1649.6	0.0021908
1659.25	0.00261
1668.9	0.00349
1678.54	0.00488
1688.19	0.00728
1697.84	0.01229
1707.48	0.02498
1717.13	0.05021
1726.78	0.06128
1736.42	0.03215
1746.07	0.01301
1755.72	0.00666
1765.36	0.00425
1775.01	0.00298
1784.66	0.0022897
1794.3	0.0018553
1803.95	0.00158605
1813.6	0.001341
1823.24	0.001219
1832.89	0.001123
1842.54	0.001063
1852.18	0.001018
1861.83	0.000978
1871.47	0.000976
1881.12	0.000899
1890.77	0.000853
1900.41	0.00088
1910.06	0.000853
1919.71	0.000786
1929.35	0.000822
1939	0.000855
1948.65	0.000791
1958.29	0.00081
1967.94	0.000841
1977.59	0.00086
1987.23	0.000844
1996.88	0.000894
2006.53	0.000907
2016.17	0.000974
2025.82	0.00107
2035.47	0.001127
2045.11	0.001076
2054.76	0.001088
2064.41	0.001053
2074.05	0.001008
2083.7	0.000964
2093.35	0.000955
2102.99	0.000995
2112.64	0.001036
2122.28	0.001045
2131.93	0.001063
2141.58	0.00105
2151.22	0.001116
2160.87	0.001143
2170.52	0.001043
2180.16	0.001065
2189.81	0.001051
2199.46	0.00107
2209.1	0.001039
2218.75	0.001084
2228.4	0.001059
2238.04	0.001079
2247.69	0.00107
2257.34	0.001076
2266.98	0.001032
2276.63	0.001045
2286.28	0.001136
2295.92	0.001056
2305.57	0.001102
2315.22	0.001156
2324.86	0.001158
2334.51	0.001256
2344.16	0.001165
2353.8	0.001238
2363.45	0.001203
2373.09	0.001175
2382.74	0.001227
2392.39	0.001146
2402.03	0.001213
2411.68	0.001217
2421.33	0.001175
2430.97	0.001235
2440.62	0.001145
2450.27	0.001106
2459.91	0.001103
2469.56	0.001129
2479.21	0.001117
2488.85	0.001217
2498.5	0.001171
2508.15	0.001184
2517.79	0.001341
2527.44	0.001383
2537.09	0.001434
2546.73	0.001523
2556.38	0.0015075
2566.03	0.00156731
2575.67	0.0016552
2585.32	0.0017185
2594.96	0.0018329
2604.61	0.0018974
2614.26	0.0020152
2623.9	0.0022022
2633.55	0.0023378
2643.2	0.00256
2652.84	0.00268
2662.49	0.00297
2672.14	0.00317
2681.78	0.00332
2691.43	0.00322
2701.08	0.00298
2710.72	0.00298
2720.37	0.00325
2730.02	0.00341
2739.66	0.0039
2749.31	0.00401
2758.96	0.0042
2768.6	0.00448
2778.25	0.00508
2787.9	0.0061
2797.54	0.00752
2807.19	0.00938
2816.84	0.01153
2826.48	0.01465
2836.13	0.02015
2845.77	0.03336
2855.42	0.06586
2865.07	0.09319
2874.71	0.08228
2884.36	0.07443
2894.01	0.07227
2903.65	0.08623
2913.3	0.11885
2922.95	0.18323
2932.59	0.24753
2942.24	0.20979
2951.89	0.14921
2961.53	0.12931
2971.18	0.1093
2980.83	0.05678
2990.47	0.03045
3000.12	0.01908
3009.77	0.01343
3019.41	0.01
3029.06	0.00812
3038.71	0.00654
3048.35	0.00537
3058	0.00452
3067.64	0.00396
3077.29	0.00347
3086.94	0.00329
3096.58	0.00299
3106.23	0.00258
3115.88	0.0023225
3125.52	0.002179
3135.17	0.0020184
3144.82	0.0018205
3154.46	0.0016706
3164.11	0.0017198
3173.76	0.00162933
3183.4	0.0014931
3193.05	0.001328
3202.7	0.001105
3212.34	0.000888
3221.99	0.000823
3231.64	0.00058
3241.28	0.000638
3250.93	0.00044
3260.58	0.00051
3270.22	0.00043
3279.87	0.000679
3289.52	0.00046
3299.16	0.00039
3308.81	0.00038
3318.45	0.00041
3328.1	0.00019
3337.75	0.000658
3347.39	0.00035
3357.04	0.00047
3366.69	0.00044
3376.33	0.000665
3385.98	0.00053
3395.63	0.000723
3405.27	0.000936
3414.92	0.000949
3424.57	0.001236
3434.21	0.001174
3443.86	0.000935
3453.51	0.00055
3463.15	0.00043
3472.8	0.00021
3482.45	0.00021
3492.09	0.00013
3501.74	0.00019
3511.39	0.00022
3521.03	0.00022
3530.68	0.00012
3540.33	0.0002
3549.97	0.0002
3559.62	0.00017
3569.26	0.00016
3578.91	0.00016
3588.56	0.00022
3598.2	0.00026
3607.85	0.00047
3617.5	0.00043
3627.14	0.000734
3636.79	0.000661
3646.44	0.00053
3656.08	0.000551
3665.73	0.00046
3675.38	0.000744
3685.02	0.000625
3694.67	0.000634
3704.32	0.000618
3713.96	0.000742
3723.61	0.0005
3733.26	0.000595
3742.9	0.00061
3752.55	0.000649
3762.2	0.000686
3771.84	0.000554
3781.49	0.000669
3791.13	0.000598
3800.78	0.000677
3810.43	0.000721
3820.07	0.000711
3829.72	0.000572
3839.37	0.000644
3849.01	0.00078
3858.66	0.000794
3868.31	0.000766
3877.95	0.000763
3887.6	0.00071
3897.25	0.000882
3906.89	0.000814
3916.54	0.000799
3926.19	0.000802
3935.83	0.000768
3945.48	0.000872
3955.13	0.000759
3964.77	0.000964
3974.42	0.001024
3984.07	0.001094
3993.71	0.001115
