Infrared Spectrum: 2-Carbomethoxybenzene sulphonamide
Formula: C 8 H 9 N O 4 S
CAS: 57683-71-3
State: gas
Origin: EPA-IR VAPOR PHASE LIBRARY
1/CM	ABSORBANCE
549.9	0.01341
559.547	0.01021
569.193	0.0111
578.84	0.02377
588.486	0.03845
598.133	0.02849
607.779	0.01566
617.426	0.0111
627.072	0.00934
636.719	0.00835
646.365	0.00944
656.012	0.01272
665.658	0.01079
675.305	0.00925
684.951	0.00825
694.598	0.0076
704.245	0.00821
713.891	0.01184
723.538	0.01678
733.184	0.01711
742.831	0.02109
752.477	0.03408
762.124	0.01922
771.77	0.01058
781.417	0.01173
791.063	0.01108
800.71	0.00813
810.356	0.00785
820.003	0.00965
829.649	0.01159
839.296	0.01281
848.943	0.01582
858.589	0.01912
868.236	0.01793
877.882	0.01184
887.529	0.007
897.175	0.00446
906.822	0.00343
916.468	0.00292
926.115	0.00273
935.761	0.00278
945.408	0.00368
955.054	0.00584
964.701	0.00682
974.347	0.00436
983.994	0.00294
993.64	0.00298
1003.29	0.00322
1012.93	0.00344
1022.58	0.0037
1032.23	0.00588
1041.87	0.0077
1051.52	0.01737
1061.17	0.02373
1070.81	0.01372
1080.46	0.00827
1090.11	0.00851
1099.75	0.01265
1109.4	0.02378
1119.05	0.03491
1128.69	0.02903
1138.34	0.02305
1147.99	0.01556
1157.63	0.01446
1167.28	0.03065
1176.92	0.06534
1186.57	0.05998
1196.22	0.0241
1205.86	0.01249
1215.51	0.01052
1225.16	0.01222
1234.8	0.01681
1244.45	0.02442
1254.1	0.03545
1263.74	0.04354
1273.39	0.05267
1283.04	0.07885
1292.68	0.08255
1302.33	0.04413
1311.98	0.02063
1321.62	0.01322
1331.27	0.00941
1340.92	0.00855
1350.56	0.01095
1360.21	0.0192
1369.86	0.04013
1379.5	0.07436
1389.15	0.05924
1398.79	0.01819
1408.44	0.00786
1418.09	0.00679
1427.73	0.01069
1437.38	0.02015
1447.03	0.01345
1456.67	0.00664
1466.32	0.00622
1475.97	0.00576
1485.61	0.00443
1495.26	0.00421
1504.91	0.00502
1514.55	0.00631
1524.2	0.00909
1533.85	0.01272
1543.49	0.01348
1553.14	0.01031
1562.79	0.00732
1572.43	0.00573
1582.08	0.00423
1591.73	0.00356
1601.37	0.00291
1611.02	0.00223
1620.67	0.00235
1630.31	0.00268
1639.96	0.00258
1649.6	0.00248
1659.25	0.00243
1668.9	0.00245
1678.54	0.00254
1688.19	0.00327
1697.84	0.00512
1707.48	0.00655
1717.13	0.00914
1726.78	0.02408
1736.42	0.06118
1746.07	0.04998
1755.72	0.02831
1765.36	0.02612
1775.01	0.01564
1784.66	0.00619
1794.3	0.003
1803.95	0.00222
1813.6	0.0020659
1823.24	0.00211
1832.89	0.0022
1842.54	0.0018707
1852.18	0.0015222
1861.83	0.001535
1871.47	0.0013801
1881.12	0.00115218
1890.77	0.00110596
1900.41	0.00115513
1910.06	0.0012447
1919.71	0.0013667
1929.35	0.0014809
1939	0.0017761
1948.65	0.0015495
1958.29	0.0012483
1967.94	0.0014097
1977.59	0.0011714
1987.23	0.000801
1996.88	0.000806
2006.53	0.000858
2016.17	0.000953
2025.82	0.000896
2035.47	0.000814
2045.11	0.000779
2054.76	0.000786
2064.41	0.00089
2074.05	0.0010176
2083.7	0.00110263
2093.35	0.0010885
2102.99	0.0010755
2112.64	0.0010126
2122.28	0.000885
2131.93	0.000798
2141.58	0.000679
2151.22	0.000606
2160.87	0.000638
2170.52	0.000585
2180.16	0.000593
2189.81	0.00057
2199.46	0.000569
2209.1	0.000596
2218.75	0.000643
2228.4	0.000694
2238.04	0.000785
2247.69	0.000822
2257.34	0.000786
2266.98	0.000669
2276.63	0.000654
2286.28	0.000629
2295.92	0.00066
2305.57	0.000712
2315.22	0.000694
2324.86	0.000786
2334.51	0.000816
2344.16	0.000747
2353.8	0.000798
2363.45	0.000818
2373.09	0.000717
2382.74	0.000692
2392.39	0.000717
2402.03	0.000727
2411.68	0.000732
2421.33	0.000657
2430.97	0.000583
2440.62	0.000598
2450.27	0.000544
2459.91	0.000555
2469.56	0.000599
2479.21	0.000589
2488.85	0.00056
2498.5	0.000542
2508.15	0.000541
2517.79	0.00062
2527.44	0.000681
2537.09	0.00081
2546.73	0.000912
2556.38	0.0010424
2566.03	0.000965
2575.67	0.000759
2585.32	0.000704
2594.96	0.00067
2604.61	0.000687
2614.26	0.000593
2623.9	0.000548
2633.55	0.000562
2643.2	0.000623
2652.84	0.000517
2662.49	0.000448
2672.14	0.00045
2681.78	0.000334
2691.43	0.000402
2701.08	0.000318
2710.72	0.000298
2720.37	0.00025
2730.02	0.000292
2739.66	0.0003
2749.31	0.000315
2758.96	0.00031
2768.6	0.000294
2778.25	0.00031
2787.9	0.000341
2797.54	0.00036
2807.19	0.000492
2816.84	0.000701
2826.48	0.000812
2836.13	0.00113631
2845.77	0.002023
2855.42	0.00226
2865.07	0.0014442
2874.71	0.0013629
2884.36	0.0014995
2894.01	0.0017456
2903.65	0.0020584
2913.3	0.00218
2922.95	0.00224
2932.59	0.0020827
2942.24	0.0027
2951.89	0.0061
2961.53	0.01271
2971.18	0.00856
2980.83	0.00296
2990.47	0.00238
3000.12	0.00276
3009.77	0.00333
3019.41	0.00306
3029.06	0.00288
3038.71	0.00277
3048.35	0.00247
3058	0.00262
3067.64	0.00542
3077.29	0.00754
3086.94	0.004
3096.58	0.0014278
3106.23	0.0010971
3115.88	0.000799
3125.52	0.000623
3135.17	0.000547
3144.82	0.000557
3154.46	0.000327
3164.11	0.000232
3173.76	0.000294
3183.4	0.000249
3193.05	0.000223
3202.7	0
3212.34	0.000155
3221.99	4e-05
3231.64	0.000202
3241.28	0.000325
3250.93	0.00048
3260.58	0.000568
3270.22	0.000339
3279.87	0.000479
3289.52	0.000755
3299.16	0.000957
3308.81	0.0013569
3318.45	0.0026
3328.1	0.00659
3337.75	0.01073
3347.39	0.00856
3357.04	0.00519
3366.69	0.0042
3376.33	0.00283
3385.98	0.0015845
3395.63	0.0012568
3405.27	0.0012223
3414.92	0.0019584
3424.57	0.00318
3434.21	0.00481
3443.86	0.00691
3453.51	0.01409
3463.15	0.02018
3472.8	0.0133
3482.45	0.0056
3492.09	0.00252
3501.74	0.0016804
3511.39	0.001151
3521.03	0.000835
3530.68	0.000731
3540.33	0.000588
3549.97	0.000566
3559.62	0.000463
3569.26	0.000622
3578.91	0.000409
3588.56	0.000408
3598.2	0.000288
3607.85	0.000452
3617.5	0.000472
3627.14	0.000502
3636.79	0.000535
3646.44	0.000542
3656.08	0.000582
3665.73	0.000502
3675.38	0.000575
3685.02	0.000476
3694.67	0.000529
3704.32	0.000497
3713.96	0.000596
3723.61	0.000509
3733.26	0.000562
3742.9	0.000535
3752.55	0.00046
3762.2	0.000467
3771.84	0.000463
3781.49	0.000428
3791.13	0.000535
3800.78	0.000608
3810.43	0.000507
3820.07	0.000454
3829.72	0.000534
3839.37	0.00044
3849.01	0.000368
3858.66	0.000465
3868.31	0.000421
3877.95	0.000417
3887.6	0.000366
3897.25	0.000543
3906.89	0.000417
3916.54	0.000569
3926.19	0.0005
3935.83	0.000499
3945.48	0.000467
3955.13	0.000452
3964.77	0.000556
3974.42	0.000433
3984.07	0.000495
3993.71	0.000457
