Infrared Spectrum: 4-(t-Butoxy)benzaldehyde
Formula: C 11 H 14 O 2
CAS: 57699-45-3
State: gas
Origin: EPA-IR VAPOR PHASE LIBRARY
1/CM	ABSORBANCE
549.8	0.010428
559.445	0.005398
569.09	0.003818
578.734	0.004088
588.379	0.004628
598.024	0.007098
607.669	0.015708
617.313	0.034038
626.958	0.027398
636.603	0.012828
646.248	0.012568
655.893	0.011578
665.537	0.011308
675.182	0.011138
684.827	0.012008
694.472	0.021738
704.116	0.029228
713.761	0.015928
723.406	0.007588
733.051	0.006808
742.695	0.004698
752.34	0.004048
761.985	0.004888
771.63	0.007088
781.275	0.013648
790.919	0.021068
800.564	0.014828
810.209	0.018968
819.854	0.035068
829.498	0.050078
839.143	0.052978
848.788	0.055998
858.433	0.054498
868.078	0.040728
877.722	0.038718
887.367	0.066168
897.012	0.109748
906.657	0.084298
916.301	0.049428
925.946	0.040508
935.591	0.026818
945.236	0.016608
954.88	0.010808
964.525	0.007518
974.17	0.006108
983.815	0.006018
993.46	0.006798
1003.1	0.007038
1012.75	0.008008
1022.39	0.007598
1032.04	0.006768
1041.68	0.005498
1051.33	0.005478
1060.97	0.005768
1070.62	0.008538
1080.26	0.010548
1089.91	0.014238
1099.55	0.018698
1109.2	0.020348
1118.84	0.027588
1128.49	0.041458
1138.13	0.087798
1147.78	0.261688
1157.42	0.388808
1167.07	0.221538
1176.71	0.217628
1186.36	0.179868
1196	0.146708
1205.64	0.138188
1215.29	0.099008
1224.93	0.114848
1234.58	0.189978
1244.22	0.264218
1253.87	0.214028
1263.51	0.102658
1273.16	0.061758
1282.8	0.054198
1292.45	0.064388
1302.09	0.062768
1311.74	0.034138
1321.38	0.018978
1331.03	0.013828
1340.67	0.014538
1350.32	0.022698
1359.96	0.042418
1369.61	0.067408
1379.25	0.068428
1388.9	0.063378
1398.54	0.051088
1408.18	0.024388
1417.83	0.021968
1427.47	0.020018
1437.12	0.015278
1446.76	0.015998
1456.41	0.018348
1466.05	0.021378
1475.7	0.025248
1485.34	0.035018
1494.99	0.084038
1504.63	0.122118
1514.28	0.048148
1523.92	0.026008
1533.57	0.022188
1543.21	0.019848
1552.86	0.023088
1562.5	0.040618
1572.15	0.080238
1581.79	0.119548
1591.44	0.204378
1601.08	0.264238
1610.73	0.132788
1620.37	0.042398
1630.01	0.021918
1639.66	0.017118
1649.3	0.016658
1658.95	0.017868
1668.59	0.022178
1678.24	0.030208
1687.88	0.041038
1697.53	0.067828
1707.17	0.174338
1716.82	0.424398
1726.46	0.225508
1736.11	0.047398
1745.75	0.018218
1755.4	0.010728
1765.04	0.008728
1774.69	0.008698
1784.33	0.008158
1793.98	0.006628
1803.62	0.005218
1813.27	0.004618
1822.91	0.004588
1832.55	0.004618
1842.2	0.004628
1851.84	0.004448
1861.49	0.004098
1871.13	0.004318
1880.78	0.004838
1890.42	0.005688
1900.07	0.006188
1909.71	0.006228
1919.36	0.005578
1929	0.004228
1938.65	0.003798
1948.29	0.003958
1957.94	0.003938
1967.58	0.003908
1977.23	0.004288
1986.87	0.004548
1996.52	0.004538
2006.16	0.004218
2015.81	0.004578
2025.45	0.004338
2035.1	0.004008
2044.74	0.003778
2054.38	0.003168
2064.03	0.002838
2073.67	0.002388
2083.32	0.002838
2092.96	0.003108
2102.61	0.002698
2112.25	0.002588
2121.9	0.002108
2131.54	0.002298
2141.19	0.001968
2150.83	0.002038
2160.48	0.002048
2170.12	0.0015268
2179.77	0.0013412
2189.41	0.0013903
2199.06	0.0017376
2208.7	0.0013625
2218.35	0.0013574
2227.99	0.0012741
2237.64	0.0014422
2247.28	0.0015551
2256.92	0.001848
2266.57	0.002198
2276.21	0.002118
2285.86	0.002588
2295.5	0.002308
2305.15	0.002188
2314.79	0.002058
2324.44	0.0016883
2334.08	0.0013914
2343.73	0.0015586
2353.37	0.0014926
2363.02	0.0017446
2372.66	0.001938
2382.31	0.002818
2391.95	0.003368
2401.6	0.004178
2411.24	0.003678
2420.89	0.003048
2430.53	0.002618
2440.18	0.002788
2449.82	0.003148
2459.47	0.003328
2469.11	0.004218
2478.75	0.004498
2488.4	0.004768
2498.04	0.004738
2507.69	0.004688
2517.33	0.004198
2526.98	0.004098
2536.62	0.004368
2546.27	0.004978
2555.91	0.005398
2565.56	0.004828
2575.2	0.004688
2584.85	0.004378
2594.49	0.004438
2604.14	0.003628
2613.78	0.003588
2623.43	0.003208
2633.07	0.003398
2642.72	0.003328
2652.36	0.003928
2662.01	0.005468
2671.65	0.007818
2681.29	0.010888
2690.94	0.014998
2700.58	0.024928
2710.23	0.043168
2719.87	0.064988
2729.52	0.057308
2739.16	0.032108
2748.81	0.020548
2758.45	0.017568
2768.1	0.018968
2777.74	0.024818
2787.39	0.032068
2797.03	0.037218
2806.68	0.042488
2816.32	0.045328
2825.97	0.034158
2835.61	0.020708
2845.26	0.013668
2854.9	0.010638
2864.55	0.012228
2874.19	0.016618
2883.84	0.018048
2893.48	0.020038
2903.12	0.022268
2912.77	0.026448
2922.41	0.029598
2932.06	0.036228
2941.7	0.043598
2951.35	0.044068
2960.99	0.044688
2970.64	0.069298
2980.28	0.142718
2989.93	0.151108
2999.57	0.072558
3009.22	0.031318
3018.86	0.018958
3028.51	0.017738
3038.15	0.016318
3047.8	0.010478
3057.44	0.009138
3067.09	0.011028
3076.73	0.012758
3086.38	0.011838
3096.02	0.011208
3105.67	0.010058
3115.31	0.008278
3124.95	0.006358
3134.6	0.004978
3144.24	0.004058
3153.89	0.003288
3163.53	0.002788
3173.18	0.002818
3182.82	0.003098
3192.47	0.002708
3202.11	0.002648
3211.76	0.002048
3221.4	0.002478
3231.05	0.002428
3240.69	0.002238
3250.34	0.002088
3259.98	0.0013504
3269.63	0.001978
3279.27	0.0015774
3288.92	0.00085404
3298.56	0.0009516
3308.21	0.00151
3317.85	0.00149
3327.49	0.0011648
3337.14	0.0014417
3346.78	0.0010909
3356.43	0.0017055
3366.07	0.0017435
3375.72	0.001918
3385.36	0.002198
3395.01	0.003428
3404.65	0.005188
3414.3	0.006368
3423.94	0.005078
3433.59	0.003138
3443.23	0.001978
3452.88	0.0016541
3462.52	0.001132
3472.17	0.000218
3481.81	0.0008962
3491.46	0.0009144
3501.1	0.000788426
3510.75	0.000332
3520.39	0.0006885
3530.04	0.000668
3539.68	0.001234
3549.32	0.0007761
3558.97	0.0010993
3568.61	0.0009089
3578.26	0.0010218
3587.9	0.0007082
3597.55	0.0010763
3607.19	0.0010827
3616.84	0.000715
3626.48	0.001021
3636.13	0.0010511
3645.77	0.000484
3655.42	0.0012378
3665.06	0.0014993
3674.71	0.001063
3684.35	0.0009111
3694	0.0009578
3703.64	0.0010764
3713.29	0.0009748
3722.93	0.000582
3732.58	0.00083176
3742.22	0.000458
3751.86	0.000562
3761.51	0.000391
3771.15	0.0009718
3780.8	0.000499
3790.44	0.00088308
3800.09	0.000463
3809.73	0.000492
3819.38	0.000326
3829.02	0.00084281
3838.67	0.0007129
3848.31	0.0010734
3857.96	0.0006917
3867.6	0.000363
3877.25	0.0009677
3886.89	0.0012628
3896.54	0.00084646
3906.18	0.0012239
3915.83	0.0011581
3925.47	0.0010351
3935.12	0.000545
3944.76	0.000565
3954.41	0.000325
3964.05	0.0010287
3973.69	0.0012515
3983.34	0.000496
3992.98	0.000255
