Infrared Spectrum: p-Chlorobenzenesulfonyl isocyanate
Formula: C 7 H 4 Cl N O 3 S
CAS: 5769-15-3
State: gas
Origin: EPA-IR VAPOR PHASE LIBRARY
1/CM	ABSORBANCE
549.8	0.001871
559.445	0.002001
569.09	0.003311
578.734	0.008541
588.379	0.020261
598.024	0.024001
607.669	0.020451
617.313	0.019471
626.958	0.030951
636.603	0.072661
646.248	0.062611
655.893	0.031851
665.537	0.015611
675.182	0.008151
684.827	0.006411
694.472	0.007341
704.116	0.010701
713.761	0.016501
723.406	0.023651
733.051	0.019871
742.695	0.011831
752.34	0.038791
761.985	0.075121
771.63	0.018241
781.275	0.005661
790.919	0.004941
800.564	0.006071
810.209	0.005141
819.854	0.007961
829.498	0.011071
839.143	0.004971
848.788	0.002481
858.433	0.001801
868.078	0.0010541
877.722	0.0007536
887.367	0.0008007
897.012	0.0008183
906.657	0.0006816
916.301	0.0004227
925.946	0.000275423
935.591	0.00036522
945.236	0.0004578
954.88	0.0006918
964.525	0.0004362
974.17	0.0005322
983.815	0.000672
993.46	0.0006981
1003.1	0.001701
1012.75	0.009371
1022.39	0.005911
1032.04	0.0011268
1041.68	0.0009252
1051.33	0.001451
1060.97	0.001801
1070.62	0.006301
1080.26	0.017211
1089.91	0.037161
1099.55	0.025951
1109.2	0.007761
1118.84	0.004291
1128.49	0.002881
1138.13	0.001911
1147.78	0.001631
1157.42	0.003141
1167.07	0.008411
1176.71	0.027671
1186.36	0.061401
1196	0.063441
1205.64	0.019051
1215.29	0.006931
1224.93	0.004061
1234.58	0.002901
1244.22	0.002991
1253.87	0.003251
1263.51	0.003781
1273.16	0.003951
1282.8	0.003241
1292.45	0.003331
1302.09	0.003981
1311.74	0.004631
1321.38	0.005881
1331.03	0.008181
1340.67	0.012581
1350.32	0.019361
1359.96	0.025031
1369.61	0.024031
1379.25	0.025861
1388.9	0.046711
1398.54	0.064421
1408.18	0.034821
1417.83	0.011141
1427.47	0.005401
1437.12	0.003731
1446.76	0.003681
1456.41	0.004781
1466.05	0.006121
1475.7	0.014111
1485.34	0.015001
1494.99	0.003431
1504.63	0.001841
1514.28	0.001321
1523.92	0.001197
1533.57	0.001371
1543.21	0.002321
1552.86	0.003621
1562.5	0.004251
1572.15	0.006431
1581.79	0.011721
1591.44	0.013041
1601.08	0.002801
1610.73	0.0010399
1620.37	0.0007498
1630.01	0.0007304
1639.66	0.001136
1649.3	0.001411
1658.95	0.001057
1668.59	0.0006099
1678.24	0.0006013
1687.88	0.000427
1697.53	0.0004549
1707.17	0.00032285
1716.82	0.0004728
1726.46	0.0004999
1736.11	0.0004601
1745.75	0.0004308
1755.4	0.0004367
1765.04	0.0007171
1774.69	0.0010727
1784.33	0.0011738
1793.98	0.0006791
1803.62	0.0004393
1813.27	0.0004333
1822.91	0.0004113
1832.55	0.0005112
1842.2	0.0007252
1851.84	0.0007699
1861.49	0.0005766
1871.13	0.000427
1880.78	0.0005517
1890.42	0.0006227
1900.07	0.0010638
1909.71	0.001381
1919.36	0.0011608
1929	0.0007187
1938.65	0.0004893
1948.29	0.0004763
1957.94	0.0004852
1967.58	0.0004299
1977.23	0.0005278
1986.87	0.00045
1996.52	0.0005656
2006.16	0.0006459
2015.81	0.0006149
2025.45	0.0005774
2035.1	0.0006693
2044.74	0.0007195
2054.38	0.0008841
2064.03	0.0010001
2073.67	0.0011948
2083.32	0.001216
2092.96	0.001301
2102.61	0.001411
2112.25	0.001461
2121.9	0.001441
2131.54	0.001781
2141.19	0.002431
2150.83	0.003221
2160.48	0.004401
2170.12	0.006551
2179.77	0.010251
2189.41	0.014361
2199.06	0.021901
2208.7	0.037731
2218.35	0.067461
2227.99	0.132341
2237.64	0.272941
2247.28	0.366631
2256.92	0.179721
2266.57	0.063861
2276.21	0.023131
2285.86	0.010421
2295.5	0.006611
2305.15	0.004981
2314.79	0.004171
2324.44	0.003461
2334.08	0.003281
2343.73	0.003911
2353.37	0.005031
2363.02	0.003721
2372.66	0.001821
2382.31	0.001351
2391.95	0.0009994
2401.6	0.0008586
2411.24	0.0006626
2420.89	0.0004946
2430.53	0.0006417
2440.18	0.0004017
2449.82	0.0004867
2459.47	0.0004478
2469.11	0.0004713
2478.75	0.0004974
2488.4	0.0004583
2498.04	0.0004851
2507.69	0.0005719
2517.33	0.0004166
2526.98	0.0005448
2536.62	0.0006753
2546.27	0.0007091
2555.91	0.0006939
2565.56	0.0008148
2575.2	0.000959
2584.85	0.0008864
2594.49	0.0006148
2604.14	0.0004836
2613.78	0.0003738
2623.43	0.00035762
2633.07	0.000374
2642.72	0.0004992
2652.36	0.00036698
2662.01	0.0006147
2671.65	0.0006527
2681.29	0.0008525
2690.94	0.0007853
2700.58	0.0007341
2710.23	0.0006425
2719.87	0.0006122
2729.52	0.0006213
2739.16	0.0006534
2748.81	0.0005775
2758.45	0.0004944
2768.1	0.0004894
2777.74	0.0005958
2787.39	0.0004065
2797.03	0.0004261
2806.68	0.0002082
2816.32	0.0003472
2825.97	0.00034018
2835.61	0.00026955
2845.26	0.0004089
2854.9	0.00030615
2864.55	0.0003934
2874.19	0.0003783
2883.84	0.0005053
2893.48	0.0002107
2903.12	0.0005115
2912.77	0.000383
2922.41	0.0004918
2932.06	0.000651
2941.7	0.0007791
2951.35	0.0010123
2960.99	0.0009771
2970.64	0.0012558
2980.28	0.0011487
2989.93	0.0005159
2999.57	0.000461
3009.22	0.000446
3018.86	0.00035049
3028.51	0.0004399
3038.15	0.0004075
3047.8	0.0002364
3057.44	0.0004895
3067.09	0.0006202
3076.73	0.000887
3086.38	0.0007608
3096.02	0.0004091
3105.67	0.00032277
3115.31	0.00036758
3124.95	0.000381
3134.6	0.0002939
3144.24	0.0004828
3153.89	0.00031278
3163.53	0.000414
3173.18	0.0002576
3182.82	0.0002036
3192.47	0.0003541
3202.11	0.000161
3211.76	0.000168
3221.4	0.0001809
3231.05	0.00029872
3240.69	0.00031303
3250.34	0.0004081
3259.98	0.00034912
3269.63	0.000145
3279.27	0.000280617
3288.92	0.0004022
3298.56	0.0002314
3308.21	0.0004457
3317.85	0.0002401
3327.49	0.00030067
3337.14	0.000166
3346.78	0.000279342
3356.43	0.0003128
3366.07	0.00031731
3375.72	0.00031239
3385.36	0.0005243
3395.01	0.0003827
3404.65	0.00030315
3414.3	0.00026264
3423.94	0.0003917
3433.59	0.0004439
3443.23	0.000497
3452.88	0.0004126
3462.52	0.0004962
3472.17	0.0004584
3481.81	0.00034341
3491.46	0.000568
3501.1	0.0004028
3510.75	0.0007015
3520.39	0.0008217
3530.04	0.0011021
3539.68	0.0012601
3549.32	0.001711
3558.97	0.002151
3568.61	0.002811
3578.26	0.003591
3587.9	0.003361
3597.55	0.002631
3607.19	0.001831
3616.84	0.001311
3626.48	0.000963
3636.13	0.0006509
3645.77	0.00062
3655.42	0.0006708
3665.06	0.000655
3674.71	0.0005909
3684.35	0.0006885
3694	0.0006809
3703.64	0.0006943
3713.29	0.0006419
3722.93	0.0006786
3732.58	0.0005453
3742.22	0.0005261
3751.86	0.0003904
3761.51	0.00033696
3771.15	0.00028489
3780.8	0.00030729
3790.44	0.00031689
3800.09	0.0002526
3809.73	9.9e-05
3819.38	0.000231
3829.02	0.0004693
3838.67	0.0004294
3848.31	0.0004903
3857.96	0.00033701
3867.6	0.0002487
3877.25	0.00031691
3886.89	0.000159
3896.54	0.0002344
3906.18	0.00034639
3915.83	0.00034863
3925.47	0.0005519
3935.12	0.0003792
3944.76	0.00036492
3954.41	0.000109
3964.05	0.0002585
3973.69	0.0004291
3983.34	0.0002012
3992.98	0.0003771
