Infrared Spectrum: o-Nitroacetophenone
Formula: C 8 H 7 N O 3
CAS: 577-59-3
State: gas
Instrument: HP-GC/MS/IRD
Origin: NIST Mass Spectrometry Data Center
1/CM	ABSORBANCE
550	0.0003224
562	0.0003193
574	0.001085
586	0.0038657
598	0.0034844
610	0.0008308
622	0.0002976
634	0.0002108
646	0.0004588
658	0.0010447
670	0.0012183
682	0.0011067
694	0.0023839
706	0.0025947
718	0.0016616
730	0.0029853
742	0.006076
754	0.0060822
766	0.0030411
778	0.0034596
790	0.0020491
802	0.0005394
814	9.3e-05
826	0.0002046
838	0.0010168
850	0.0047709
862	0.0035588
874	0.0004371
886	0.0001519
898	4.34e-05
910	3.41e-05
922	9.92e-05
934	0.0004092
946	0.001147
958	0.0020832
970	0.0019747
982	0.0012245
994	0.0009703
1006	0.0011656
1018	0.0012369
1030	0.0012555
1042	0.0012524
1054	0.0012617
1066	0.0011222
1078	0.0005952
1090	0.000682
1102	0.0009362
1114	0.0006572
1126	0.0003627
1138	0.0003131
1150	0.0004216
1162	0.000465
1174	0.0004991
1186	0.0006076
1198	0.0010137
1210	0.0020398
1222	0.0057939
1234	0.0133858
1246	0.0109399
1258	0.00496
1270	0.0047182
1282	0.0037913
1294	0.0041323
1306	0.0035371
1318	0.0028086
1330	0.0048422
1342	0.0146072
1354	0.0255719
1366	0.0166656
1378	0.005797
1390	0.0028675
1402	0.0022134
1414	0.0020398
1426	0.0022537
1438	0.0025265
1450	0.00217
1462	0.0020305
1474	0.0022537
1486	0.0022041
1498	0.0030163
1510	0.0053692
1522	0.0099603
1534	0.020677
1546	0.031
1558	0.0206553
1570	0.0124217
1582	0.0067115
1594	0.0032891
1606	0.0026877
1618	0.0023033
1630	0.0016058
1642	0.0011904
1654	0.000992
1666	0.0009672
1678	0.0014632
1690	0.0030132
1702	0.0065906
1714	0.0147994
1726	0.0206119
1738	0.0103168
1750	0.0035433
1762	0.001519
1774	0.0008401
1786	0.0005673
1798	0.0004495
1810	0.0005704
1822	0.000744
1834	0.0005084
1846	0.0002914
1858	0.0002325
1870	0.0001116
1882	0.0001116
1894	0.0001488
1906	0.000186
1918	0.0002387
1930	0.000372
1942	0.0003441
1954	0.0002976
1966	0.0003348
1978	0.0001519
1990	6.51e-05
2002	4.34e-05
2014	4.65e-05
2026	3.1e-05
2038	6.51e-05
2050	4.34e-05
2062	2.17e-05
2074	2.79e-05
2086	5.58e-05
2098	3.1e-05
2110	4.34e-05
2122	2.79e-05
2134	1.55e-05
2146	1.55e-05
2158	6.2e-06
2170	3.41e-05
2182	4.96e-05
2194	5.58e-05
2206	4.65e-05
2218	6.2e-05
2230	4.34e-05
2242	3.41e-05
2254	3.1e-05
2266	3.72e-05
2278	6.82e-05
2290	4.65e-05
2302	7.13e-05
2314	0.0001426
2326	0.0001519
2338	0.0001178
2350	3.72e-05
2362	9.92e-05
2374	8.99e-05
2386	0.0001519
2398	0.0001581
2410	0.0001457
2422	0.0001116
2434	9.61e-05
2446	7.44e-05
2458	6.2e-05
2470	6.51e-05
2482	2.48e-05
2494	9.3e-05
2506	5.89e-05
2518	2.17e-05
2530	2.17e-05
2542	6.2e-06
2554	1.24e-05
2566	4.34e-05
2578	0.0001116
2590	5.89e-05
2602	0.0001085
2614	8.37e-05
2626	0.0001023
2638	9.3e-05
2650	6.2e-05
2662	8.06e-05
2674	0.0001085
2686	0.0001612
2698	0.0002077
2710	0.0001395
2722	0.0001426
2734	8.99e-05
2746	9.3e-05
2758	7.44e-05
2770	4.65e-05
2782	8.99e-05
2794	9.3e-05
2806	9.3e-05
2818	0.0001457
2830	0.0002077
2842	0.0002573
2854	0.0003286
2866	0.0004991
2878	0.0006758
2890	0.000744
2902	0.0006231
2914	0.0005549
2926	0.0006293
2938	0.0005952
2950	0.0004402
2962	0.000434
2974	0.0004464
2986	0.0004743
2998	0.0005425
3010	0.000682
3022	0.0007006
3034	0.0006975
3046	0.0006882
3058	0.0009858
3070	0.0020181
3082	0.002418
3094	0.0012369
3106	0.0004278
3118	0.0002542
3130	0.0001767
3142	0.0001984
3154	0.0001612
3166	0.0001333
3178	5.27e-05
3190	0.0001147
3202	3.41e-05
3214	9.3e-05
3226	0.0001054
3238	7.13e-05
3250	5.89e-05
3262	5.89e-05
3274	8.99e-05
3286	2.79e-05
3298	2.79e-05
3310	8.68e-05
3322	9.61e-05
3334	5.89e-05
3346	7.13e-05
3358	9.92e-05
3370	0.0001302
3382	7.44e-05
3394	0.000186
3406	0.0002759
3418	0.0004092
3430	0.0004526
3442	0.0003689
3454	0.0002945
3466	0.0001147
3478	8.99e-05
3490	0.0001674
3502	0.000155
3514	3.41e-05
3526	0.0001147
3538	0.0001116
3550	0.0001116
3562	8.06e-05
3574	4.96e-05
3586	7.44e-05
3598	5.27e-05
3610	3.72e-05
3622	7.44e-05
3634	9.61e-05
3646	6.82e-05
3658	0.0001271
3670	6.2e-05
3682	7.13e-05
3694	5.58e-05
3706	6.2e-05
3718	9.61e-05
3730	9.92e-05
3742	3.41e-05
3754	7.13e-05
3766	0.0001364
3778	5.27e-05
3790	0.000124
3802	9.61e-05
3814	0.0001984
3826	7.44e-05
3838	4.03e-05
