Infrared Spectrum: 2-Methylacetophenone
Formula: C 9 H 10 O
CAS: 577-16-2
State: gas
Instrument: HP-GC/MS/IRD
Origin: NIST Mass Spectrometry Data Center
1/CM	ABSORBANCE
550	0.0009131
562	7.82e-05
574	0.0003795
586	0.0022885
598	0.0053061
610	0.0036616
622	0.0007843
634	0.0003841
646	0.0002392
658	4.83e-05
670	2.53e-05
682	0.0001242
694	0.0003565
706	0.0013777
718	0.0035282
730	0.0034431
742	0.0052877
754	0.0091333
766	0.0042481
778	0.0010373
790	0.0002806
802	0.0002277
814	0.0001702
826	0.0001633
838	0.0001173
850	0.0001886
862	0.0002898
874	0.0002714
886	0.000184
898	0.0002438
910	0.0003864
922	0.0008395
934	0.0019343
946	0.0035305
958	0.003243
970	0.0016261
982	0.0010741
994	0.0010649
1006	0.0011408
1018	0.0012742
1030	0.0015111
1042	0.0020056
1054	0.0017342
1066	0.0017296
1078	0.0014743
1090	0.0008119
1102	0.0005796
1114	0.0006095
1126	0.0008234
1138	0.0008648
1150	0.0007866
1162	0.0009453
1174	0.0010005
1186	0.0010603
1198	0.0013915
1210	0.0018193
1222	0.0036133
1234	0.0108077
1246	0.0174133
1258	0.0106329
1270	0.0041653
1282	0.0049059
1294	0.0037444
1306	0.0012972
1318	0.0010097
1330	0.0015272
1342	0.003197
1354	0.0063112
1366	0.005865
1378	0.0029141
1390	0.0022885
1402	0.001886
1414	0.001978
1426	0.0025461
1438	0.0031257
1450	0.0035328
1462	0.0033971
1474	0.0030015
1486	0.0025369
1498	0.0016284
1510	0.0010396
1522	0.0009269
1534	0.0009476
1546	0.0010787
1558	0.0013524
1570	0.0017043
1582	0.0016537
1594	0.0019182
1606	0.0018791
1618	0.0012397
1630	0.0009315
1642	0.0010534
1654	0.0016905
1666	0.0028106
1678	0.0050071
1690	0.0120773
1702	0.0223491
1714	0.0186001
1726	0.0072933
1738	0.0035535
1750	0.0017365
1762	0.0009315
1774	0.0005612
1786	0.0005451
1798	0.0005497
1810	0.000414
1822	0.0003795
1834	0.000414
1846	0.0003427
1858	0.0002484
1870	0.0002507
1882	0.0002783
1894	0.0003128
1906	0.0004623
1918	0.0004692
1930	0.0003841
1942	0.0004531
1954	0.0004094
1966	0.0002162
1978	0.0001449
1990	0.0001012
2002	9.43e-05
2014	7.13e-05
2026	6.9e-05
2038	7.59e-05
2050	0.0001012
2062	6.21e-05
2074	5.98e-05
2086	3.68e-05
2098	5.52e-05
2110	4.83e-05
2122	2.3e-05
2134	2.99e-05
2146	5.75e-05
2158	4.6e-05
2170	5.06e-05
2182	6.44e-05
2194	7.36e-05
2206	5.52e-05
2218	5.29e-05
2230	4.83e-05
2242	5.52e-05
2254	5.29e-05
2266	6.67e-05
2278	8.74e-05
2290	9.66e-05
2302	0.0001426
2314	0.0001173
2326	8.51e-05
2338	5.52e-05
2350	4.14e-05
2362	5.06e-05
2374	5.29e-05
2386	7.59e-05
2398	7.13e-05
2410	7.82e-05
2422	5.29e-05
2434	4.6e-05
2446	4.14e-05
2458	5.98e-05
2470	2.53e-05
2482	5.98e-05
2494	3.22e-05
2506	2.07e-05
2518	6.67e-05
2530	5.06e-05
2542	7.59e-05
2554	6.67e-05
2566	5.75e-05
2578	5.75e-05
2590	5.52e-05
2602	6.21e-05
2614	4.83e-05
2626	4.6e-05
2638	5.75e-05
2650	5.52e-05
2662	5.98e-05
2674	3.91e-05
2686	4.14e-05
2698	3.22e-05
2710	2.53e-05
2722	6.9e-05
2734	0.0001288
2746	0.000161
2758	0.0001702
2770	0.0001288
2782	0.000115
2794	0.0001426
2806	0.0001955
2818	0.0002369
2830	0.0003818
2842	0.0005359
2854	0.0007015
2866	0.0009798
2878	0.00115
2890	0.0011845
2902	0.0012075
2914	0.0015479
2926	0.0023759
2938	0.0032522
2950	0.0030751
2962	0.0024748
2974	0.0027209
2986	0.0027393
2998	0.0025093
3010	0.0029808
3022	0.0037536
3034	0.0034385
3046	0.0026519
3058	0.0036386
3070	0.0049519
3082	0.003864
3094	0.0021482
3106	0.0014145
3118	0.0008671
3130	0.0005796
3142	0.0004416
3154	0.0003519
3166	0.0002691
3178	0.0002162
3190	0.0001863
3202	0.0001587
3214	0.0001334
3226	8.51e-05
3238	9.66e-05
3250	8.97e-05
3262	7.82e-05
3274	4.6e-05
3286	7.82e-05
3298	8.74e-05
3310	3.68e-05
3322	7.13e-05
3334	0.0001104
3346	9.66e-05
3358	0.000207
3370	0.0002599
3382	0.0003887
3394	0.0004163
3406	0.000299
3418	0.0002323
3430	0.000161
3442	0.0001541
3454	7.13e-05
3466	9.89e-05
3478	3.22e-05
3490	5.29e-05
3502	6.44e-05
3514	1.38e-05
3526	2.3e-05
3538	5.06e-05
3550	3.91e-05
3562	5.98e-05
3574	6.9e-05
3586	5.52e-05
3598	1.15e-05
3610	7.82e-05
3622	5.98e-05
3634	5.52e-05
3646	2.3e-05
3658	4.37e-05
3670	4.83e-05
3682	5.75e-05
3694	3.22e-05
3706	5.98e-05
3718	6.44e-05
3730	3.68e-05
3742	7.13e-05
3754	6.67e-05
3766	6.21e-05
3778	8.28e-05
3790	5.52e-05
3802	7.36e-05
3814	8.97e-05
3826	9.2e-05
3838	9.43e-05
