Infrared Spectrum: 1-BROMO-2-NITRO BENZENE
Formula: C6 H4 Br N O2
CAS: 577-19-5
State: SOLID (MULL)
Boiling point: 41-42 C
Class: COBLENTZ
Instrument: Not specified, most likely a prism, grating, or hybrid spectrometer.
Sampling: TRANSMISSION
Resolution: 4
Origin: WYANDOTTE CHEMICALS CORP., WYANDOTTE, MICHIGAN, USA
MICROMETERS	TRANSMITTANCE
2.035	0.547
2.07492	0.538
2.11484	0.535
2.15476	0.532
2.19469	0.525
2.23461	0.515
2.27453	0.51
2.31445	0.51
2.35437	0.51
2.39429	0.51
2.43422	0.502
2.47414	0.502
2.51406	0.51
2.55398	0.515
2.5939	0.519
2.63382	0.527
2.67375	0.532
2.71367	0.532
2.75359	0.54
2.79351	0.538
2.83343	0.53
2.87335	0.522
2.91328	0.519
2.9532	0.509
2.99312	0.492
3.03304	0.495
3.07296	0.492
3.11288	0.49
3.1528	0.466
3.19273	0.427
3.23265	0.346
3.27257	0.318
3.31249	0.275
3.35241	0.096
3.39233	0.038
3.43226	0.034
3.47218	0.033
3.5121	0.033
3.55202	0.217
3.59194	0.407
3.63186	0.509
3.67179	0.512
3.71171	0.507
3.75163	0.507
3.79155	0.524
3.83147	0.53
3.87139	0.535
3.91132	0.547
3.95124	0.562
3.99116	0.577
4.03108	0.58
4.071	0.577
4.11092	0.585
4.15084	0.587
4.19077	0.585
4.23069	0.583
4.27061	0.577
4.31053	0.582
4.35045	0.597
4.39037	0.605
4.4303	0.615
4.47022	0.623
4.51014	0.628
4.55006	0.633
4.58998	0.643
4.6299	0.645
4.66983	0.633
4.70975	0.641
4.74967	0.651
4.78959	0.655
4.82951	0.66
4.86943	0.663
4.90936	0.676
4.94928	0.678
4.9892	0.673
5.02912	0.678
5.06904	0.679
5.10896	0.643
5.14888	0.66
5.18881	0.648
5.22873	0.651
5.26865	0.663
5.30857	0.678
5.34849	0.701
5.38841	0.704
5.42834	0.696
5.46826	0.699
5.50818	0.698
5.5481	0.661
5.58802	0.698
5.62794	0.723
5.66787	0.736
5.70779	0.741
5.74771	0.747
5.78763	0.736
5.82755	0.754
5.86747	0.754
5.9074	0.777
5.94732	0.786
5.98724	0.796
6.02716	0.802
6.06708	0.789
6.107	0.739
6.14693	0.669
6.18685	0.598
6.22677	0.311
6.26669	0.058
6.30661	0.111
6.34653	0.182
6.38645	0.165
6.42638	0.101
6.4663	0.071
6.50622	0.044
6.54614	0.039
6.58606	0.044
6.62598	0.063
6.66591	0.099
6.70583	0.117
6.74575	0.101
6.78567	0.029
6.82559	0.031
6.86551	0.034
6.90544	0.058
6.94536	0.099
6.98528	0.238
7.0252	0.326
7.06512	0.414
7.10504	0.436
7.14497	0.416
7.18489	0.296
7.22481	0.084
7.26473	0.061
7.30465	0.049
7.34457	0.036
7.38449	0.038
7.42442	0.058
7.46434	0.086
7.50426	0.152
7.54418	0.2
7.5841	0.223
7.62402	0.247
7.66395	0.237
7.70387	0.175
7.74379	0.18
7.78371	0.248
7.82363	0.298
7.86355	0.301
7.90348	0.232
7.9434	0.15
7.98332	0.265
8.02324	0.348
8.06316	0.398
8.10308	0.422
8.14301	0.441
8.18293	0.457
8.22285	0.466
8.26277	0.474
8.30269	0.48
8.34261	0.484
8.38253	0.495
8.42246	0.507
8.46238	0.507
8.5023	0.499
8.54222	0.451
8.58214	0.407
8.62206	0.431
8.66199	0.441
8.70191	0.394
8.74183	0.447
8.78175	0.489
8.82167	0.499
8.86159	0.472
8.90152	0.47
8.94144	0.509
8.98136	0.532
9.02128	0.543
9.0612	0.562
9.10112	0.577
9.14105	0.573
9.18097	0.582
9.22089	0.603
9.26081	0.623
9.30073	0.636
9.34065	0.648
9.38057	0.656
9.4205	0.63
9.46042	0.601
9.50034	0.567
9.54026	0.288
9.58018	0.111
9.6201	0.122
9.66003	0.174
9.69995	0.217
9.73987	0.281
9.77979	0.349
9.81971	0.416
9.85963	0.487
9.89956	0.533
9.93948	0.567
9.9794	0.585
10.0193	0.568
10.0592	0.533
10.0992	0.56
10.1391	0.582
10.179	0.588
10.2189	0.593
10.2589	0.6
10.2988	0.61
10.3387	0.615
10.3786	0.603
10.4185	0.59
10.4585	0.522
10.4984	0.388
10.5383	0.331
10.5782	0.47
10.6181	0.601
10.6581	0.636
10.698	0.655
10.7379	0.666
10.7778	0.676
10.8178	0.689
10.8577	0.699
10.8976	0.701
10.9375	0.734
10.9774	0.747
11.0174	0.764
11.0573	0.774
11.0972	0.782
11.1371	0.781
11.177	0.787
11.217	0.8
11.2569	0.812
11.2968	0.824
11.3367	0.837
11.3767	0.859
11.4166	0.867
11.4565	0.865
11.4964	0.873
11.5363	0.885
11.5763	0.89
11.6162	0.83
11.6561	0.52
11.696	0.276
11.7359	0.149
11.7759	0.199
11.8158	0.356
11.8557	0.452
11.8956	0.53
11.9356	0.563
11.9755	0.588
12.0154	0.616
12.0553	0.628
12.0952	0.636
12.1352	0.65
12.1751	0.653
12.215	0.673
12.2549	0.674
12.2949	0.679
12.3348	0.679
12.3747	0.691
12.4146	0.701
12.4545	0.706
12.4945	0.706
12.5344	0.703
12.5743	0.686
12.6142	0.651
12.6541	0.608
12.6941	0.533
12.734	0.441
12.7739	0.32
12.8138	0.2
12.8538	0.131
12.8937	0.081
12.9336	0.069
12.9735	0.096
13.0134	0.255
13.0534	0.376
13.0933	0.497
13.1332	0.555
13.1731	0.58
13.213	0.583
13.253	0.553
13.2929	0.5
13.3328	0.447
13.3727	0.389
13.4127	0.344
13.4526	0.301
13.4925	0.238
13.5324	0.187
13.5723	0.134
13.6123	0.097
13.6522	0.069
13.6921	0.058
13.732	0.053
13.772	0.059
13.8119	0.069
13.8518	0.096
13.8917	0.135
13.9316	0.195
13.9716	0.24
14.0115	0.278
14.0514	0.293
14.0913	0.283
14.1312	0.247
14.1712	0.213
14.2111	0.199
14.251	0.207
14.2909	0.257
14.3309	0.334
14.3708	0.427
14.4107	0.535
14.4506	0.558
14.4905	0.577
14.5305	0.58
14.5704	0.568
14.6103	0.553
14.6502	0.567
14.6901	0.603
14.7301	0.655
14.77	0.696
14.8099	0.737
14.8498	0.761
14.8898	0.796
14.9297	0.815
14.9696	0.82
15.0095	0.835
15.0494	0.849
15.0894	0.868
15.1293	0.887
15.1692	0.898
15.2091	0.908
15.2491	0.923
15.289	0.933
15.3289	0.941
15.3688	0.948
15.4087	0.932
15.4487	0.902
15.4886	0.854
15.5285	0.781
15.5684	0.694
15.6083	0.611
15.6483	0.601
15.6882	0.606
15.7281	0.635
15.768	0.661
15.808	0.699
15.8479	0.713
15.8878	0.726
15.9277	0.739
15.9676	0.751
