Infrared Spectrum: 2-Acetylbenzoic acid
Formula: C 9 H 8 O 3
CAS: 577-56-0
State: gas
Instrument: HP-GC/MS/IRD
Origin: NIST Mass Spectrometry Data Center
1/CM	ABSORBANCE
550	0.001308
562	0.0017172
574	0.0020628
586	0.00189
598	0.0013488
610	0.0008388
622	0.0013308
634	0.0020856
646	0.001128
658	0.0005772
670	0.0004164
682	0.0010692
694	0.002022
706	0.002268
718	0.0018432
730	0.001182
742	0.0013404
754	0.0031668
766	0.0029364
778	0.0010548
790	0.0005244
802	0.0002856
814	0.0001752
826	0.0001416
838	0.0001308
850	0.0002064
862	0.00018
874	0.0002844
886	0.0005136
898	0.001236
910	0.0024288
922	0.0025044
934	0.0013368
946	0.001584
958	0.0017316
970	0.0009612
982	0.0006924
994	0.0009552
1006	0.0024096
1018	0.0038556
1030	0.002748
1042	0.00246
1054	0.003432
1066	0.0031332
1078	0.0030576
1090	0.004104
1102	0.0045492
1114	0.0036612
1126	0.0034176
1138	0.0032964
1150	0.0032808
1162	0.0041016
1174	0.005064
1186	0.0055188
1198	0.0036888
1210	0.0028404
1222	0.00291
1234	0.0041808
1246	0.00561
1258	0.0044784
1270	0.0040764
1282	0.003678
1294	0.0027828
1306	0.0021096
1318	0.0021336
1330	0.0029856
1342	0.0043908
1354	0.0049344
1366	0.0037416
1378	0.0026616
1390	0.0020388
1402	0.001152
1414	0.0007848
1426	0.0007176
1438	0.0007392
1450	0.0007776
1462	0.0008148
1474	0.0007416
1486	0.0005064
1498	0.0002928
1510	0.0002028
1522	0.000192
1534	0.0002184
1546	0.0002952
1558	0.0004404
1570	0.0006588
1582	0.0006348
1594	0.0006276
1606	0.000564
1618	0.0003096
1630	0.0002712
1642	0.0003516
1654	0.0004224
1666	0.0005424
1678	0.0008952
1690	0.0014988
1702	0.0026784
1714	0.0049416
1726	0.0051276
1738	0.0040236
1750	0.0075408
1762	0.012
1774	0.0071196
1786	0.0051012
1798	0.0092844
1810	0.0111072
1822	0.00471
1834	0.0019224
1846	0.0012324
1858	0.000768
1870	0.0004464
1882	0.0003648
1894	0.0003372
1906	0.0003276
1918	0.0003828
1930	0.0004692
1942	0.0003924
1954	0.0003156
1966	0.0003168
1978	0.0002484
1990	0.00021
2002	0.0002076
2014	0.0002172
2026	0.00024
2038	0.000228
2050	0.0001668
2062	0.0001512
2074	0.0001656
2086	0.0001632
2098	0.000174
2110	0.0001956
2122	0.0001884
2134	0.0001872
2146	0.000168
2158	0.00018
2170	0.0001404
2182	0.0001164
2194	0.0001152
2206	4.2e-05
2218	0
2230	7.2e-05
2242	7.8e-05
2254	0.0001092
2266	0.000138
2278	0.0001464
2290	0.0001632
2302	0.000192
2314	0.000204
2326	0.0002052
2338	0.0002064
2350	0.0002004
2362	0.0001704
2374	0.0001776
2386	0.0001512
2398	0.0001428
2410	0.0001476
2422	0.0001608
2434	0.0001464
2446	0.0001848
2458	0.0001608
2470	0.0001668
2482	0.0001344
2494	0.0001308
2506	0.0001332
2518	0.0001416
2530	0.00012
2542	0.000168
2554	0.0001296
2566	0.0001404
2578	0.0001524
2590	0.0001296
2602	0.0001296
2614	0.0001368
2626	0.0001392
2638	0.000156
2650	0.0001812
2662	0.00015
2674	0.0001572
2686	0.0001644
2698	0.000126
2710	0.0001488
2722	0.000138
2734	0.0001488
2746	0.0001116
2758	0.0001296
2770	0.0001224
2782	0.0001584
2794	0.0001428
2806	0.0001272
2818	0.0001308
2830	0.0001596
2842	0.0001692
2854	0.0001908
2866	0.000186
2878	0.0001632
2890	0.0001548
2902	0.000198
2914	0.0002016
2926	0.0002904
2938	0.0003852
2950	0.0003804
2962	0.0002592
2974	0.0003048
2986	0.0004668
2998	0.00081
3010	0.0007164
3022	0.0004932
3034	0.0004572
3046	0.0006192
3058	0.0008196
3070	0.0011952
3082	0.001278
3094	0.00069
3106	0.0003864
3118	0.000234
3130	0.0001812
3142	0.0002028
3154	0.0001764
3166	0.0001464
3178	0.0001536
3190	0.0001464
3202	0.000156
3214	0.0001428
3226	0.0001944
3238	0.000114
3250	0.0001572
3262	0.000174
3274	0.0001524
3286	0.0001752
3298	0.0001572
3310	0.0001524
3322	0.0001644
3334	0.0001572
3346	0.0001572
3358	0.0001656
3370	0.0001608
3382	0.0002052
3394	0.0002292
3406	0.0002268
3418	0.00027
3430	0.0002664
3442	0.0002676
3454	0.0002736
3466	0.0002424
3478	0.0002856
3490	0.0002916
3502	0.000288
3514	0.0001704
3526	0.0002592
3538	0.0003612
3550	0.000528
3562	0.0013944
3574	0.0039264
3586	0.0030012
3598	0.0009372
3610	0.000636
3622	0.0011052
3634	0.0010008
3646	0.0004428
3658	0.000342
3670	0.0003216
3682	0.0002712
3694	0.0002628
3706	0.0002748
3718	0.00021
3730	0.0002196
3742	0.000234
3754	0.0002352
3766	0.0002052
3778	0.0002112
3790	0.0002148
3802	0.0002052
3814	0.0002364
3826	0.0002088
3838	0.0001608
