Infrared Spectrum: 3-Hydroxyflavone
Formula: C 15 H 10 O 3
CAS: 577-85-5
State: gas
Instrument: HP-GC/MS/IRD
Origin: NIST Mass Spectrometry Data Center
1/CM	ABSORBANCE
550	0.0008253
562	0.0012558
574	0.0016233
586	0.0011214
598	0.0005019
610	0.0002583
622	0.0002751
634	0.0001932
646	0.0005502
658	0.0008673
670	0.0009387
682	0.0016569
694	0.00294
706	0.0027783
718	0.0007665
730	0.0004956
742	0.0014826
754	0.0060165
766	0.0036099
778	0.0006909
790	0.0003024
802	7.56e-05
814	0.0001344
826	9.03e-05
838	0.0002037
850	2.1e-05
862	7.14e-05
874	8.4e-05
886	0.0006867
898	0.0012201
910	0.0005817
922	0.0004095
934	0.0002667
946	0.0002814
958	0.0002961
970	0.0002457
982	0.0005019
994	0.0007623
1006	0.0003549
1018	0.0005964
1030	0.0012873
1042	0.0006909
1054	0.0005628
1066	0.0010038
1078	0.0010689
1090	0.0015918
1102	0.0022848
1114	0.0034251
1126	0.0064554
1138	0.0046704
1150	0.001995
1162	0.001113
1174	0.0012621
1186	0.0035721
1198	0.0071274
1210	0.0050316
1222	0.0027846
1234	0.0029757
1246	0.0023625
1258	0.0012978
1270	0.0015036
1282	0.0029568
1294	0.0061005
1306	0.0063231
1318	0.0047397
1330	0.0090237
1342	0.0086079
1354	0.0039858
1366	0.0019446
1378	0.0015561
1390	0.0019152
1402	0.0037737
1414	0.0071799
1426	0.0037968
1438	0.0012264
1450	0.0016737
1462	0.0046242
1474	0.0082845
1486	0.0056091
1498	0.0029442
1510	0.0010941
1522	0.0006825
1534	0.0005754
1546	0.0005943
1558	0.0008484
1570	0.0017808
1582	0.0019194
1594	0.0017997
1606	0.0044352
1618	0.0090657
1630	0.0188349
1642	0.0166068
1654	0.0092337
1666	0.0058107
1678	0.0025053
1690	0.0010521
1702	0.0006972
1714	0.0004998
1726	0.0003465
1738	0.0003129
1750	0.0002646
1762	0.00021
1774	0.000189
1786	0.0001575
1798	0.0002604
1810	0.0002919
1822	0.000189
1834	0.0002289
1846	0.0001491
1858	9.24e-05
1870	0.0001197
1882	0.00021
1894	0.0002814
1906	0.0003108
1918	0.0002079
1930	0.0002499
1942	0.000231
1954	0.0003045
1966	0.0002268
1978	6.09e-05
1990	3.78e-05
2002	5.46e-05
2014	1.89e-05
2026	2.73e-05
2038	3.15e-05
2050	3.36e-05
2062	4.2e-05
2074	5.04e-05
2086	3.78e-05
2098	6.3e-06
2110	4.83e-05
2122	5.04e-05
2134	6.72e-05
2146	8.82e-05
2158	3.57e-05
2170	4.83e-05
2182	6.09e-05
2194	3.15e-05
2206	4.41e-05
2218	4.83e-05
2230	7.14e-05
2242	3.36e-05
2254	2.94e-05
2266	3.78e-05
2278	3.15e-05
2290	3.99e-05
2302	0.0001092
2314	0.0001008
2326	7.56e-05
2338	6.3e-05
2350	4.2e-05
2362	4.41e-05
2374	3.78e-05
2386	3.36e-05
2398	5.88e-05
2410	5.25e-05
2422	5.67e-05
2434	7.14e-05
2446	9.45e-05
2458	0.0001029
2470	7.56e-05
2482	4.62e-05
2494	5.67e-05
2506	5.46e-05
2518	6.93e-05
2530	4.83e-05
2542	4.2e-05
2554	9.03e-05
2566	6.3e-05
2578	7.56e-05
2590	6.51e-05
2602	6.3e-05
2614	7.56e-05
2626	9.66e-05
2638	7.98e-05
2650	3.57e-05
2662	3.36e-05
2674	4.83e-05
2686	7.98e-05
2698	7.35e-05
2710	9.45e-05
2722	8.61e-05
2734	1.68e-05
2746	5.46e-05
2758	7.56e-05
2770	6.51e-05
2782	6.51e-05
2794	7.35e-05
2806	9.03e-05
2818	0.0001722
2830	0.0001386
2842	5.25e-05
2854	2.52e-05
2866	0.0001428
2878	0.0001197
2890	0.0001533
2902	0.0001176
2914	0.0001365
2926	9.24e-05
2938	4.83e-05
2950	7.56e-05
2962	2.73e-05
2974	8.61e-05
2986	0.0001533
2998	0.0001554
3010	0.0002688
3022	0.0004725
3034	0.0007119
3046	0.0010059
3058	0.0013566
3070	0.0024318
3082	0.0021987
3094	0.0011823
3106	0.000756
3118	0.0003654
3130	0.0001995
3142	0.0001869
3154	0.0001281
3166	0.000105
3178	9.87e-05
3190	9.45e-05
3202	8.19e-05
3214	7.77e-05
3226	0.0001764
3238	0.0001512
3250	0.0001995
3262	0.0002016
3274	0.00021
3286	0.0002121
3298	0.00021
3310	0.0002709
3322	0.0003381
3334	0.0005019
3346	0.0007014
3358	0.0011613
3370	0.0015981
3382	0.0016989
3394	0.0016506
3406	0.0013209
3418	0.0011046
3430	0.0008904
3442	0.0006405
3454	0.0005481
3466	0.0003549
3478	0.0003003
3490	0.0002121
3502	9.03e-05
3514	0.0001197
3526	0.0001092
3538	5.04e-05
3550	2.52e-05
3562	5.67e-05
3574	9.03e-05
3586	7.35e-05
3598	9.87e-05
3610	5.04e-05
3622	6.51e-05
3634	7.56e-05
3646	7.14e-05
3658	6.93e-05
3670	0.000105
3682	0.0001071
3694	8.4e-05
3706	7.56e-05
3718	0.0001407
3730	0.0001176
3742	7.56e-05
3754	5.25e-05
3766	3.57e-05
3778	2.52e-05
3790	6.3e-06
3802	3.36e-05
3814	0
3826	1.47e-05
3838	4.2e-05
