Infrared Spectrum: Ethyl 2-(trifluoromethylbenzoate
Formula: C 10 H 9 F 3 O 2
CAS: 577-62-8
State: gas
Origin: EPA-IR VAPOR PHASE LIBRARY
1/CM	ABSORBANCE
549.8	0.0011745
559.445	0.0012496
569.09	0.00093968
578.735	0.001407
588.38	0.002187
598.025	0.003287
607.67	0.001877
617.315	0.0010513
626.96	0.0009858
636.605	0.002077
646.251	0.004777
655.896	0.002637
665.541	0.0015867
675.186	0.004097
684.831	0.009017
694.476	0.004997
704.121	0.003487
713.766	0.005327
723.411	0.008487
733.056	0.007127
742.701	0.005597
752.346	0.010207
761.991	0.025627
771.636	0.019387
781.281	0.006557
790.926	0.003907
800.571	0.002527
810.216	0.0017452
819.861	0.0017426
829.507	0.0018218
839.152	0.002837
848.797	0.004337
858.442	0.005227
868.087	0.004117
877.732	0.003037
887.377	0.002347
897.022	0.001504
906.667	0.0013307
916.312	0.0011511
925.957	0.0013125
935.602	0.0012922
945.247	0.0018102
954.892	0.002937
964.537	0.002307
974.182	0.002097
983.827	0.002807
993.472	0.003897
1003.12	0.006527
1012.76	0.010107
1022.41	0.013607
1032.05	0.028057
1041.7	0.042167
1051.34	0.060647
1060.99	0.036017
1070.63	0.011337
1080.28	0.010917
1089.92	0.018647
1099.57	0.040217
1109.21	0.062537
1118.86	0.057977
1128.5	0.044577
1138.15	0.046727
1147.79	0.078617
1157.44	0.114687
1167.08	0.124737
1176.73	0.134377
1186.37	0.067557
1196.02	0.025597
1205.66	0.015407
1215.31	0.013877
1224.95	0.015987
1234.6	0.023487
1244.24	0.042967
1253.89	0.083257
1263.53	0.103607
1273.18	0.079817
1282.82	0.086477
1292.47	0.092677
1302.11	0.094457
1311.76	0.145817
1321.4	0.107577
1331.05	0.028187
1340.69	0.011877
1350.34	0.008537
1359.98	0.010287
1369.63	0.015067
1379.27	0.009327
1388.92	0.005757
1398.56	0.005227
1408.21	0.004567
1417.85	0.004157
1427.5	0.004157
1437.14	0.004977
1446.79	0.006797
1456.43	0.006417
1466.08	0.005977
1475.73	0.006077
1485.37	0.004817
1495.02	0.004087
1504.66	0.003097
1514.31	0.002477
1523.95	0.002367
1533.6	0.002217
1543.24	0.002137
1552.89	0.002047
1562.53	0.002417
1572.18	0.003727
1581.82	0.005627
1591.47	0.004357
1601.11	0.003247
1610.76	0.003067
1620.4	0.002167
1630.05	0.002067
1639.69	0.002207
1649.34	0.002427
1658.98	0.002467
1668.63	0.002637
1678.27	0.002867
1687.92	0.003587
1697.56	0.004757
1707.21	0.006967
1716.85	0.010597
1726.5	0.017347
1736.14	0.034457
1745.79	0.064847
1755.43	0.073277
1765.08	0.043827
1774.72	0.017387
1784.37	0.008047
1794.01	0.004517
1803.66	0.003267
1813.3	0.002747
1822.95	0.002527
1832.59	0.002447
1842.24	0.002057
1851.88	0.0017191
1861.53	0.0015355
1871.17	0.0014942
1880.82	0.0013274
1890.46	0.0012435
1900.11	0.0011675
1909.75	0.0013002
1919.4	0.0013273
1929.04	0.0016856
1938.69	0.002117
1948.33	0.001605
1957.98	0.0015924
1967.62	0.0017333
1977.27	0.0013686
1986.91	0.0010039
1996.56	0.0008282
2006.2	0.000691
2015.85	0.000634
2025.49	0.000722
2035.14	0.00063
2044.78	0.000654
2054.43	0.000672
2064.07	0.000722
2073.72	0.00088233
2083.36	0.00092045
2093.01	0.000861722
2102.65	0.00092537
2112.3	0.00090429
2121.94	0.00088681
2131.59	0.0008092
2141.23	0.000699
2150.88	0.000727
2160.52	0.000638
2170.17	0.000654
2179.81	0.000589
2189.46	0.00062
2199.1	0.000673
2208.75	0.000602
2218.39	0.000684
2228.04	0.0008126
2237.68	0.0007641
2247.33	0.0007661
2256.97	0.0008681
2266.62	0.000832
2276.26	0.000866234
2285.91	0.00090834
2295.55	0.0008141
2305.2	0.000825
2314.84	0.0008235
2324.49	0.0008171
2334.13	0.0010151
2343.78	0.00093725
2353.42	0.00084777
2363.07	0.000686
2372.72	0.000722
2382.36	0.000749
2392.01	0.000698
2401.65	0.0007754
2411.3	0.0007777
2420.94	0.000657
2430.59	0.000591
2440.23	0.00054
2449.88	0.000489
2459.52	0.000582
2469.17	0.000571
2478.81	0.000653
2488.46	0.000562
2498.1	0.000544
2507.75	0.000427
2517.39	0.000379
2527.04	0.00036
2536.68	0.000348
2546.33	0.000366
2555.97	0.000372
2565.62	0.000452
2575.26	0.000342
2584.91	0.00037
2594.55	0.000415
2604.2	0.000466
2613.84	0.000367
2623.49	0.00051
2633.13	0.000399
2642.78	0.000224
2652.42	0.000294
2662.07	0.000282
2671.71	0.00029
2681.36	0.000235
2691	0.000286
2700.65	0.000313
2710.29	0.000289
2719.94	0.000325
2729.58	0.000371
2739.23	0.000413
2748.87	0.000334
2758.52	0.000421
2768.16	0.000632
2777.81	0.000528
2787.45	0.000573
2797.1	0.000602
2806.74	0.000718
2816.39	0.000598
2826.03	0.0008335
2835.68	0.0008421
2845.32	0.0009624
2854.97	0.0011429
2864.61	0.0013971
2874.26	0.001997
2883.9	0.002947
2893.55	0.003307
2903.19	0.003587
2912.84	0.004067
2922.48	0.004027
2932.13	0.004797
2941.77	0.007697
2951.42	0.007687
2961.06	0.006367
2970.71	0.008427
2980.35	0.013167
2990	0.015367
2999.64	0.010317
3009.29	0.007037
3018.93	0.004447
3028.58	0.003177
3038.22	0.002787
3047.87	0.002317
3057.51	0.002377
3067.16	0.004027
3076.8	0.006317
3086.45	0.006007
3096.09	0.002757
3105.74	0.0013289
3115.38	0.0010777
3125.03	0.000755
3134.67	0.000479
3144.32	0.000716
3153.96	0.000621
3163.61	0.0007579
3173.25	0.000565
3182.9	0.00049
3192.54	0.000492
3202.19	0.000399
3211.83	0.000453
3221.48	0.000241
3231.12	0.000291
3240.77	0.000118
3250.41	0.000271
3260.06	0.000152
3269.7	0
3279.35	0.000345
3289	0.000168
3298.64	0.000232
3308.29	0.000173
3317.93	0.000371
3327.58	0.000378
3337.22	0.000291
3346.87	0.000374
3356.51	0.000298
3366.16	0.000302
3375.8	0.000293
3385.45	0.000283
3395.09	0.000275
3404.74	0.000266
3414.38	0.000397
3424.03	0.000371
3433.67	0.00058
3443.32	0.000366
3452.96	0.000413
3462.61	0.000651
3472.25	0.000614
3481.9	0.00089698
3491.54	0.00089451
3501.19	0.0008163
3510.83	0.00069
3520.48	0.000435
3530.12	0.000535
3539.77	0.000337
3549.41	0.000299
3559.06	0.000309
3568.7	0.000406
3578.35	0.000268
3587.99	0.000386
3597.64	0.000324
3607.28	0.000337
3616.93	0.000263
3626.57	0.0002
3636.22	0.000329
3645.86	0.000383
3655.51	0.000395
3665.15	0.000359
3674.8	0.000312
3684.44	0.000285
3694.09	0.000567
3703.73	0.000553
3713.38	0.000295
3723.02	0.00047
3732.67	0.000292
3742.31	0.000456
3751.96	0.00041
3761.6	0.000613
3771.25	0.000544
3780.89	0.000507
3790.54	0.000244
3800.18	0.000348
3809.83	0.000322
3819.47	0.00044
3829.12	0.000427
3838.76	0.000486
3848.41	0.000443
3858.05	0.000506
3867.7	0.000207
3877.34	0.00031
3886.99	0.000383
3896.63	0.000606
3906.28	0.000531
3915.92	0.000192
3925.57	0.000299
3935.21	0.000313
3944.86	0.000465
3954.5	0.000308
3964.15	0.000339
3973.79	0.000248
3983.44	0.000515
3993.08	0.000431
