Infrared Spectrum: 6-Tridecanol
Formula: C 13 H 28 O
CAS: 5770-03-6
State: gas
Instrument: HP-GC/MS/IRD
Origin: NIST Mass Spectrometry Data Center
1/CM	ABSORBANCE
550	0.0006
562	0.000225
574	0.000215
586	0.000255
598	6.5e-05
610	7.5e-05
622	7.5e-05
634	9e-05
646	6e-05
658	6.5e-05
670	5.5e-05
682	0.00016
694	0.000245
706	0.000375
718	0.00062
730	0.00064
742	0.00055
754	0.00041
766	0.000405
778	0.00032
790	0.00028
802	0.00046
814	0.000375
826	0.00053
838	0.000415
850	0.000395
862	0.000415
874	0.000565
886	0.0007
898	0.000825
910	0.000875
922	0.00098
934	0.001255
946	0.001445
958	0.00146
970	0.001615
982	0.001855
994	0.002135
1006	0.002325
1018	0.002415
1030	0.00258
1042	0.00289
1054	0.00281
1066	0.00247
1078	0.002255
1090	0.001955
1102	0.001875
1114	0.00209
1126	0.00233
1138	0.00194
1150	0.00124
1162	0.00121
1174	0.001285
1186	0.001455
1198	0.001505
1210	0.00162
1222	0.001725
1234	0.00191
1246	0.00198
1258	0.001935
1270	0.001865
1282	0.001745
1294	0.00165
1306	0.001635
1318	0.0015
1330	0.00163
1342	0.00208
1354	0.00242
1366	0.00274
1378	0.003165
1390	0.00283
1402	0.00191
1414	0.001365
1426	0.00143
1438	0.002195
1450	0.00343
1462	0.004435
1474	0.00304
1486	0.001375
1498	0.000765
1510	0.000495
1522	0.000345
1534	0.00029
1546	0.00022
1558	0.00018
1570	0.00014
1582	0.000155
1594	0.00012
1606	0.000145
1618	9e-05
1630	9e-05
1642	0.0001
1654	8.5e-05
1666	8e-05
1678	7.5e-05
1690	6.5e-05
1702	2e-05
1714	6e-05
1726	8.5e-05
1738	6e-05
1750	5.5e-05
1762	4.5e-05
1774	6.5e-05
1786	4.5e-05
1798	5e-05
1810	3e-05
1822	3.5e-05
1834	7e-05
1846	6e-05
1858	6e-05
1870	5.5e-05
1882	5.5e-05
1894	3.5e-05
1906	3.5e-05
1918	3e-05
1930	2.5e-05
1942	3.5e-05
1954	3e-05
1966	2.5e-05
1978	2e-05
1990	3e-05
2002	3.5e-05
2014	5.5e-05
2026	7.5e-05
2038	8e-05
2050	7e-05
2062	2.5e-05
2074	2e-05
2086	2e-05
2098	2.5e-05
2110	2.5e-05
2122	3e-05
2134	3.5e-05
2146	3.5e-05
2158	4.5e-05
2170	2e-05
2182	3e-05
2194	4.5e-05
2206	3e-05
2218	3.5e-05
2230	5e-06
2242	4.5e-05
2254	5e-05
2266	6.5e-05
2278	3.5e-05
2290	6.5e-05
2302	6e-05
2314	7.5e-05
2326	7.5e-05
2338	9.5e-05
2350	0.00012
2362	0.00013
2374	0.00011
2386	5.5e-05
2398	8.5e-05
2410	8e-05
2422	7.5e-05
2434	7.5e-05
2446	9e-05
2458	6.5e-05
2470	8.5e-05
2482	8e-05
2494	9.5e-05
2506	0.000115
2518	0.000145
2530	0.00017
2542	0.00018
2554	0.00024
2566	0.00023
2578	0.00024
2590	0.00029
2602	0.00028
2614	0.00036
2626	0.00038
2638	0.00044
2650	0.0005
2662	0.000565
2674	0.000645
2686	0.00063
2698	0.000615
2710	0.000635
2722	0.00068
2734	0.000745
2746	0.00088
2758	0.00089
2770	0.000945
2782	0.00115
2794	0.001415
2806	0.001815
2818	0.002485
2830	0.00356
2842	0.006165
2854	0.01266
2866	0.019315
2878	0.01734
2890	0.01479
2902	0.016575
2914	0.025295
2926	0.041685
2938	0.04897
2950	0.03168
2962	0.02479
2974	0.019165
2986	0.00804
2998	0.00432
3010	0.002815
3022	0.002025
3034	0.001525
3046	0.001175
3058	0.00092
3070	0.0008
3082	0.000715
3094	0.0006
3106	0.000515
3118	0.00048
3130	0.000425
3142	0.00037
3154	0.00033
3166	0.000295
3178	0.00026
3190	0.000245
3202	0.00017
3214	0.000165
3226	0.00011
3238	0.000115
3250	0.00011
3262	8.5e-05
3274	3.5e-05
3286	6e-05
3298	7e-05
3310	9e-05
3322	0.000115
3334	5e-05
3346	6.5e-05
3358	7.5e-05
3370	7.5e-05
3382	0.000105
3394	8.5e-05
3406	0.00013
3418	0.000105
3430	0.000105
3442	8.5e-05
3454	8e-05
3466	2.5e-05
3478	9e-05
3490	1.5e-05
3502	5.5e-05
3514	5e-06
3526	4.5e-05
3538	7.5e-05
3550	4.5e-05
3562	2.5e-05
3574	5e-06
3586	6.5e-05
3598	8.5e-05
3610	0.000135
3622	0.0003
3634	0.00056
3646	0.001135
3658	0.001375
3670	0.00056
3682	0.00027
3694	0.00016
3706	0.000115
3718	8.5e-05
3730	8.5e-05
3742	8.5e-05
3754	2.5e-05
3766	9.5e-05
3778	0.000115
3790	0.00013
3802	6.5e-05
3814	7e-05
3826	0.000115
3838	9e-05
