Infrared Spectrum: 1-Phenyl-1-nonyne
Formula: C 15 H 20
CAS: 57718-18-0
State: gas
Instrument: HP-GC/MS/IRD
Origin: NIST Mass Spectrometry Data Center
1/CM	ABSORBANCE
550	0.0003399
562	0.0003465
574	0.0001551
586	0.0001287
598	0.0001815
610	0.0003003
622	0.0002508
634	0.0002673
646	0.0003333
658	0.0008349
670	0.0020064
682	0.0039897
694	0.0046266
706	0.0028875
718	0.0018777
730	0.0025146
742	0.0049599
754	0.0066627
766	0.0040986
778	0.0014652
790	0.0005643
802	0.000363
814	0.0003663
826	0.0003267
838	0.0003135
850	0.0003498
862	0.000363
874	0.0004026
886	0.0004554
898	0.0006171
910	0.0007524
922	0.0006006
934	0.0003894
946	0.0002607
958	0.0002508
970	0.0002607
982	0.0002937
994	0.0003993
1006	0.0006435
1018	0.0009405
1030	0.0010362
1042	0.0005412
1054	0.0007029
1066	0.0007854
1078	0.0005643
1090	0.0004158
1102	0.0003135
1114	0.0002673
1126	8.25e-05
1138	7.59e-05
1150	2.64e-05
1162	3.63e-05
1174	5.28e-05
1186	4.95e-05
1198	7.26e-05
1210	0.0001287
1222	0.0001353
1234	0.0002574
1246	0.0004257
1258	0.0006204
1270	0.0007326
1282	0.0009174
1294	0.0011847
1306	0.0013728
1318	0.0018744
1330	0.0028281
1342	0.0022836
1354	0.0020262
1366	0.0015213
1378	0.0011682
1390	0.0008943
1402	0.0006303
1414	0.0007623
1426	0.0014289
1438	0.0030822
1450	0.0029535
1462	0.0031383
1474	0.0028017
1486	0.005346
1498	0.0035904
1510	0.0012804
1522	0.0005445
1534	0.0003795
1546	0.0003234
1558	0.0004158
1570	0.0006072
1582	0.0010923
1594	0.0026565
1606	0.0019767
1618	0.0004125
1630	0.0002112
1642	0.000198
1654	0.0003168
1666	0.0003498
1678	0.0001353
1690	8.25e-05
1702	6.27e-05
1714	0.0001155
1726	0.0002013
1738	0.0002277
1750	0.0002013
1762	0.0001287
1774	0.0001716
1786	0.0003201
1798	0.0003465
1810	0.0002145
1822	0.0001683
1834	0.0001023
1846	0.0001023
1858	0.0001716
1870	0.0002937
1882	0.0004092
1894	0.0002013
1906	9.24e-05
1918	0.0001518
1930	0.0002739
1942	0.0003531
1954	0.0004521
1966	0.0001485
1978	3.3e-05
1990	3.3e-06
2002	1.98e-05
2014	3.63e-05
2026	3.96e-05
2038	5.28e-05
2050	4.62e-05
2062	2.31e-05
2074	9.9e-06
2086	1.98e-05
2098	2.31e-05
2110	1.32e-05
2122	4.95e-05
2134	6.6e-06
2146	2.64e-05
2158	6.27e-05
2170	5.28e-05
2182	0.0001122
2194	0.000165
2206	0.0003564
2218	0.0005544
2230	0.0006138
2242	0.0004422
2254	0.0002145
2266	0.0001254
2278	9.9e-05
2290	9.57e-05
2302	9.24e-05
2314	0.000132
2326	0.0001023
2338	9.24e-05
2350	7.92e-05
2362	8.91e-05
2374	5.61e-05
2386	1.32e-05
2398	2.31e-05
2410	5.94e-05
2422	4.95e-05
2434	4.29e-05
2446	2.64e-05
2458	4.95e-05
2470	7.26e-05
2482	5.94e-05
2494	7.59e-05
2506	8.58e-05
2518	8.58e-05
2530	9.24e-05
2542	0.0001584
2554	0.0001023
2566	0.0001089
2578	0.0001419
2590	0.0001419
2602	0.0001815
2614	0.0002211
2626	0.0002376
2638	0.0002904
2650	0.0003333
2662	0.0003696
2674	0.0003564
2686	0.0003465
2698	0.0003267
2710	0.00033
2722	0.0003531
2734	0.0004422
2746	0.0004884
2758	0.0005082
2770	0.0005445
2782	0.0006501
2794	0.0008415
2806	0.001089
2818	0.0014751
2830	0.002145
2842	0.0038148
2854	0.007524
2866	0.0117051
2878	0.0098439
2890	0.008184
2902	0.0095634
2914	0.015015
2926	0.0245388
2938	0.033
2950	0.0222057
2962	0.0149193
2974	0.0112596
2986	0.0049467
2998	0.00297
3010	0.0022869
3022	0.0023529
3034	0.003069
3046	0.0027225
3058	0.0036795
3070	0.0052437
3082	0.0035607
3094	0.0030129
3106	0.0019008
3118	0.0008679
3130	0.0005082
3142	0.0004686
3154	0.0004158
3166	0.0003531
3178	0.0003036
3190	0.0002442
3202	0.0002178
3214	0.0001914
3226	0.0001518
3238	0.0001551
3250	0.000165
3262	0.000132
3274	0.0001287
3286	0.0001452
3298	9.57e-05
3310	9.57e-05
3322	7.92e-05
3334	8.58e-05
3346	0.0001419
3358	7.26e-05
3370	5.28e-05
3382	9.57e-05
3394	0.0001056
3406	0.0001056
3418	7.26e-05
3430	0.0001584
3442	0.0001122
3454	5.61e-05
3466	7.92e-05
3478	9.24e-05
3490	2.64e-05
3502	7.26e-05
3514	8.58e-05
3526	6.6e-05
3538	2.97e-05
3550	6.27e-05
3562	8.58e-05
3574	8.25e-05
3586	5.61e-05
3598	8.25e-05
3610	8.91e-05
3622	0.0001419
3634	0.000165
3646	0.0001881
3658	0.0001485
3670	0.0001617
3682	0.000165
3694	0.0002112
3706	0.0001518
3718	0.0001848
3730	0.0001551
3742	0.0001617
3754	0.0001881
3766	0.0002145
3778	0.0002079
3790	0.0001782
3802	0.0001683
3814	0.0001782
3826	0.0001452
3838	0.000165
