Infrared Spectrum: Lumazine, 6,7-dimethyl- (keto form)
Formula: C8 H8 N4 O2
CAS: 5774-32-3
State: SOLID (1 mg / 650 mg KBr DISC)
Class: COBLENTZ III
Instrument: PERKIN-ELMER 221 (GRATING)
Instrument parameters: FILTER AT 980 CM^-^1. GRATING 4000-1428 CM^-^1, NaCl PRISM 1428-650 CM^-^1
Resolution: 2
Origin: SOUTHERN RESEARCH INSTITUTE
1/CM	TRANSMITTANCE
640	0.9065
649	0.9033
658	0.8982
667	0.878
676	0.7381
685	0.8901
694	0.8767
703	0.7923
712	0.8435
721	0.8447
730	0.8194
739	0.7441
748	0.7021
757	0.6437
766	0.747
775	0.7093
784	0.6581
793	0.6108
802	0.4978
811	0.4881
820	0.4434
829	0.4763
838	0.5998
847	0.7233
856	0.718
865	0.755
874	0.8711
883	0.8927
892	0.8996
901	0.9016
910	0.9016
919	0.9034
928	0.9016
937	0.898
946	0.8887
955	0.8689
964	0.8308
973	0.7079
982	0.7303
991	0.8259
1000	0.7322
1009	0.677
1018	0.857
1027	0.8412
1036	0.6987
1045	0.8072
1054	0.8804
1063	0.8726
1072	0.8628
1081	0.8501
1090	0.8325
1099	0.7911
1108	0.7555
1117	0.8354
1126	0.8309
1135	0.8181
1144	0.807
1153	0.7915
1162	0.7679
1171	0.7301
1180	0.6728
1189	0.6637
1198	0.6338
1207	0.6542
1216	0.7478
1225	0.7086
1234	0.6608
1243	0.6019
1252	0.3577
1261	0.363
1270	0.4643
1279	0.7744
1288	0.8102
1297	0.7733
1306	0.702
1315	0.6104
1324	0.5384
1333	0.3746
1342	0.5512
1351	0.6191
1360	0.4548
1369	0.4859
1378	0.4243
1387	0.2625
1396	0.417
1405	0.5154
1414	0.4786
1423	0.48
1432	0.4983
1441	0.5505
1450	0.5764
1459	0.7478
1468	0.761
1477	0.7379
1486	0.6897
1495	0.6556
1504	0.5777
1513	0.4876
1522	0.4633
1531	0.5386
1540	0.5613
1549	0.4192
1558	0.3046
1567	0.3849
1576	0.5209
1585	0.6154
1594	0.6123
1603	0.5922
1612	0.5386
1621	0.4979
1630	0.4649
1639	0.4298
1648	0.3755
1657	0.325
1666	0.2702
1675	0.1769
1684	0.1054
1693	0.1347
1702	0.2429
1711	0.2261
1720	0.1584
1729	0.1754
1738	0.218
1747	0.4431
1756	0.5339
1765	0.629
1774	0.7119
1783	0.7798
1792	0.8191
1801	0.8592
1810	0.8905
1819	0.9115
1828	0.9333
1837	0.9622
1846	0.9713
1855	0.9733
1864	0.9724
1873	0.971
1882	0.9693
1891	0.9681
1900	0.9701
1909	0.9743
1918	0.9712
1927	0.9659
1936	0.9585
1945	0.9537
1954	0.95
1963	0.9472
1972	0.9461
1981	0.9461
1990	0.9452
1999	0.9434
2008	0.9387
2017	0.9286
2026	0.9263
2035	0.9262
2044	0.9253
2053	0.9238
2062	0.9209
2071	0.9172
2080	0.9119
2089	0.909
2098	0.908
2107	0.9047
2116	0.8963
2125	0.8892
2134	0.8865
2143	0.885
2152	0.8842
2161	0.8839
2170	0.883
2179	0.8817
2188	0.8811
2197	0.8788
2206	0.8758
2215	0.8724
2224	0.868
2233	0.8617
2242	0.857
2251	0.8564
2260	0.856
2269	0.8543
2278	0.8512
2287	0.8495
2296	0.8458
2305	0.8418
2314	0.8383
2323	0.8363
2332	0.8337
2341	0.8287
2350	0.8238
2359	0.819
2368	0.8148
2377	0.8077
2386	0.803
2395	0.8006
2404	0.796
2413	0.79
2422	0.784
2431	0.7783
2440	0.7726
2449	0.767
2458	0.7635
2467	0.7631
2476	0.7652
2485	0.7758
2494	0.7733
2503	0.7688
2512	0.7616
2521	0.7534
2530	0.7472
2539	0.7431
2548	0.7393
2557	0.7363
2566	0.7344
2575	0.73
2584	0.7247
2593	0.7189
2602	0.7123
2611	0.7066
2620	0.7015
2629	0.6963
2638	0.6899
2647	0.679
2656	0.6703
2665	0.6633
2674	0.6556
2683	0.6472
2692	0.6383
2701	0.6284
2710	0.6174
2719	0.6068
2728	0.5966
2737	0.5881
2746	0.5796
2755	0.5722
2764	0.5483
2773	0.539
2782	0.5304
2791	0.5188
2800	0.5059
2809	0.49
2818	0.4722
2827	0.4661
2836	0.4618
2845	0.4585
2854	0.4564
2863	0.4538
2872	0.4509
2881	0.448
2890	0.4454
2899	0.4431
2908	0.4411
2917	0.4413
2926	0.443
2935	0.4461
2944	0.4493
2953	0.4526
2962	0.4577
2971	0.4532
2980	0.4412
2989	0.4288
2998	0.417
3007	0.407
3016	0.3984
3025	0.3924
3034	0.3807
3043	0.3665
3052	0.3547
3061	0.3463
3070	0.3421
3079	0.3418
3088	0.3487
3097	0.3666
3106	0.3868
3115	0.3929
3124	0.3927
3133	0.3898
3142	0.3855
3151	0.3811
3160	0.3783
3169	0.3777
3178	0.3808
3187	0.3931
3196	0.3981
3205	0.4212
3214	0.4445
3223	0.4964
3232	0.5454
3241	0.5847
3250	0.6288
3259	0.6547
3268	0.6931
3277	0.7323
3286	0.7566
3295	0.7701
3304	0.7764
3313	0.7796
3322	0.7797
3331	0.7776
3340	0.7665
3349	0.7538
3358	0.7439
3367	0.7329
3376	0.7164
3385	0.7045
3394	0.6965
3403	0.6908
3412	0.6842
3421	0.6798
3430	0.6795
3439	0.6804
3448	0.6835
3457	0.6947
3466	0.7036
3475	0.709
3484	0.7137
3493	0.7179
3502	0.7218
3511	0.725
3520	0.7276
3529	0.7305
3538	0.7334
3547	0.7385
3556	0.7467
3565	0.7535
3574	0.7593
3583	0.767
3592	0.7728
3601	0.7771
3610	0.7793
3619	0.7801
3628	0.7804
3637	0.7806
3646	0.7808
3655	0.7809
3664	0.781
3673	0.7798
3682	0.7784
3691	0.7768
3700	0.7749
3709	0.773
3718	0.7711
3727	0.7691
3736	0.7672
3745	0.7653
3754	0.7635
3763	0.7617
3772	0.7599
3781	0.7582
3790	0.7564
3799	0.7547
3808	0.7534
3817	0.7523
3826	0.7513
3835	0.7499
3844	0.7485
3853	0.7468
3862	0.7443
3871	0.7429
3880	0.7421
3889	0.7421
3898	0.7424
3907	0.7424
3916	0.7425
3925	0.7421
3934	0.7417
3943	0.7412
3952	0.741
3961	0.7408
3970	0.74
3979	0.7389
3988	0.7388
3997	0.7394
