Infrared Spectrum: PHENETHYLAMINE, N,N-DIBUTYL-
Formula: C16 H27 N
CAS: 5779-51-1
State: SOLUTION (10% CCl4 FOR 3800-1335, 10% CS2 FOR 1335-400 CM^-^1)
Class: COBLENTZ III
Instrument: DOW KBr FOREPRISM-GRATING
Instrument parameters: BLAZED AT 3.5, 12.0, 20.0 MICRON AND CHANGED AT 5.0, 7.5, 14.9 MICRON
Sampling: TRANSMISSION
Path length: 0.011 CM, 0.011 CM
Resolution: 2
Origin: DOW CHEMICAL COMPANY
1/CM	TRANSMITTANCE
384	0.2517
393	0.2629
402	0.3518
411	0.5215
420	0.6476
429	0.7149
438	0.7381
447	0.7507
456	0.7585
465	0.7683
474	0.7714
483	0.77
492	0.7215
501	0.6591
510	0.6969
519	0.7717
528	0.7945
537	0.7975
546	0.8036
555	0.8106
564	0.8111
573	0.8043
582	0.8051
591	0.7965
600	0.8169
609	0.859
618	0.8653
627	0.8727
636	0.8628
645	0.8459
654	0.8301
663	0.8503
672	0.8384
681	0.8085
690	0.4438
699	0.2183
708	0.7061
717	0.6805
726	0.5856
735	0.4825
744	0.3252
753	0.6469
762	0.719
771	0.7425
780	0.7605
789	0.7841
798	0.8028
807	0.805
816	0.8211
825	0.8147
834	0.7883
843	0.7492
852	0.6965
861	0.6948
870	0.7354
879	0.7514
888	0.755
897	0.7221
906	0.7361
915	0.7918
924	0.7788
933	0.7425
942	0.7417
951	0.7497
960	0.7426
969	0.7368
978	0.7267
987	0.6968
996	0.7308
1005	0.7292
1014	0.7275
1023	0.6961
1032	0.7572
1041	0.7441
1050	0.723
1059	0.6832
1068	0.5903
1077	0.416
1086	0.4448
1095	0.4814
1104	0.5925
1113	0.5944
1122	0.6192
1131	0.6622
1140	0.6205
1149	0.6171
1158	0.6428
1167	0.6083
1176	0.5376
1185	0.637
1194	0.6741
1203	0.6758
1212	0.715
1221	0.7089
1230	0.6504
1239	0.6381
1248	0.645
1257	0.6428
1266	0.6162
1275	0.6295
1284	0.6515
1293	0.6129
1302	0.5635
1311	0.6204
1320	0.6492
1329	0.6446
1338	0.6388
1347	0.5843
1356	0.5144
1365	0.4978
1374	0.4046
1383	0.5588
1392	0.7115
1401	0.7408
1410	0.7428
1419	0.7315
1428	0.6814
1437	0.5843
1446	0.4512
1455	0.245
1464	0.2654
1473	0.4416
1482	0.6275
1491	0.456
1500	0.5208
1509	0.6123
1518	0.5843
1527	0.5525
1536	0.4726
1545	0.4153
1554	0.4356
1563	0.4962
1572	0.5469
1581	0.5288
1590	0.5783
1599	0.5565
1608	0.6724
1617	0.7637
1626	0.7641
1635	0.7633
1644	0.7718
1653	0.7748
1662	0.7725
1671	0.7562
1680	0.7365
1689	0.7537
1698	0.7691
1707	0.7733
1716	0.7732
1725	0.7625
1734	0.7561
1743	0.7678
1752	0.8003
1761	0.8099
1770	0.8167
1779	0.8131
1788	0.8037
1797	0.7921
1806	0.8125
1815	0.8167
1824	0.8215
1833	0.8218
1842	0.8161
1851	0.8034
1860	0.7972
1869	0.8045
1878	0.8132
1887	0.821
1896	0.8253
1905	0.8254
1914	0.8254
1923	0.8202
1932	0.8071
1941	0.7783
1950	0.8024
1959	0.8157
1968	0.8225
1977	0.8216
1986	0.8202
1995	0.8292
2004	0.8339
2013	0.836
2022	0.8368
2031	0.8373
2040	0.838
2049	0.8381
2058	0.8383
2067	0.839
2076	0.8406
2085	0.842
2094	0.8425
2103	0.8427
2112	0.8428
2121	0.8425
2130	0.842
2139	0.8413
2148	0.8408
2157	0.8401
2166	0.8395
2175	0.8388
2184	0.8382
2193	0.8375
2202	0.837
2211	0.8364
2220	0.8354
2229	0.8332
2238	0.831
2247	0.8286
2256	0.8256
2265	0.8224
2274	0.819
2283	0.8149
2292	0.815
2301	0.8161
2310	0.8082
2319	0.8205
2328	0.8281
2337	0.8267
2346	0.8242
2355	0.8208
2364	0.8178
2373	0.8253
2382	0.8256
2391	0.8257
2400	0.8252
2409	0.8246
2418	0.825
2427	0.8249
2436	0.8241
2445	0.8232
2454	0.823
2463	0.823
2472	0.8227
2481	0.8221
2490	0.8214
2499	0.8199
2508	0.8176
2517	0.8151
2526	0.8118
2535	0.8083
2544	0.8048
2553	0.8008
2562	0.7968
2571	0.7926
2580	0.7878
2589	0.783
2598	0.7794
2607	0.7758
2616	0.7718
2625	0.7676
2634	0.7611
2643	0.754
2652	0.7431
2661	0.7265
2670	0.7138
2679	0.7095
2688	0.6975
2697	0.6755
2706	0.6425
2715	0.6129
2724	0.5691
2733	0.5602
2742	0.5579
2751	0.546
2760	0.5156
2769	0.4506
2778	0.3823
2787	0.2875
2796	0.2177
2805	0.2314
2814	0.318
2823	0.3896
2832	0.4162
2841	0.3852
2850	0.2484
2859	0.1211
2868	0.1389
2877	0.1422
2886	0.295
2895	0.227
2904	0.1809
2913	0.1223
2922	0.0617
2931	0.02
2940	0.0417
2949	0.0345
2958	0.0111
2967	0.0329
2976	0.3065
2985	0.473
2994	0.5888
3003	0.6259
3012	0.6241
3021	0.5112
3030	0.3784
3039	0.6108
3048	0.6889
3057	0.6076
3066	0.5467
3075	0.69
3084	0.624
3093	0.6905
3102	0.7718
3111	0.7814
3120	0.8189
3129	0.8255
3138	0.8288
3147	0.83
3156	0.831
3165	0.832
3174	0.8331
3183	0.8344
3192	0.8358
3201	0.8395
3210	0.8435
3219	0.8456
3228	0.8478
3237	0.8491
3246	0.8494
3255	0.8496
3264	0.8497
3273	0.8496
3282	0.8495
3291	0.8496
3300	0.8499
3309	0.8501
3318	0.8504
3327	0.8512
3336	0.8523
3345	0.8534
3354	0.8544
3363	0.8551
3372	0.8558
3381	0.8565
3390	0.8573
3399	0.858
3408	0.8589
3417	0.8598
3426	0.8607
3435	0.8614
3444	0.8621
3453	0.8628
3462	0.8634
3471	0.8637
3480	0.864
3489	0.8642
3498	0.8648
3507	0.8659
3516	0.867
3525	0.8681
3534	0.8692
3543	0.8703
3552	0.8714
3561	0.8711
3570	0.8692
3579	0.8674
3588	0.867
3597	0.8671
3606	0.8673
3615	0.8675
3624	0.8682
3633	0.8687
3642	0.869
3651	0.869
3660	0.869
3669	0.869
3678	0.869
3687	0.8694
3696	0.8702
3705	0.8712
3714	0.8739
3723	0.8778
3732	0.8788
3741	0.8782
3750	0.8775
3759	0.8771
3768	0.8768
3777	0.8763
3786	0.8757
3795	0.8752
