Infrared Spectrum: 3,5-Dimethylbenzaldehyde
Formula: C 9 H 10 O
CAS: 5779-95-3
State: gas
Origin: EPA-IR VAPOR PHASE LIBRARY
1/CM	ABSORBANCE
549.8	0.0020166
559.445	0.000846
569.09	0.0019098
578.734	0.000604
588.379	0.0013973
598.024	0.0014845
607.669	0.0017996
617.313	0.0018653
626.958	0.0016141
636.603	0.00225
646.248	0.0020617
655.893	0.00308
665.537	0.01091
675.182	0.01963
684.827	0.02427
694.472	0.03025
704.116	0.03988
713.761	0.03378
723.406	0.01133
733.051	0.00609
742.695	0.00547
752.34	0.00534
761.985	0.00424
771.63	0.00331
781.275	0.00278
790.919	0.00282
800.564	0.00221
810.209	0.00226
819.854	0.00239
829.498	0.00664
839.143	0.01729
848.788	0.03845
858.433	0.01957
868.078	0.00774
877.722	0.00307
887.367	0.00292
897.012	0.00383
906.657	0.00488
916.301	0.00854
925.946	0.01209
935.591	0.01125
945.236	0.01014
954.88	0.00975
964.525	0.00555
974.17	0.00457
983.815	0.00587
993.46	0.00853
1003.1	0.00954
1012.75	0.00736
1022.39	0.00582
1032.04	0.00529
1041.68	0.00476
1051.33	0.00534
1060.97	0.00583
1070.62	0.00421
1080.26	0.00438
1089.91	0.00395
1099.55	0.0036
1109.2	0.00495
1118.84	0.00712
1128.49	0.0201
1138.13	0.05483
1147.78	0.05747
1157.42	0.02146
1167.07	0.00858
1176.71	0.00534
1186.36	0.0027
1196	0.00281
1205.64	0.00317
1215.29	0.0031
1224.93	0.00255
1234.58	0.0028
1244.22	0.00354
1253.87	0.00591
1263.51	0.01023
1273.16	0.01617
1282.8	0.04186
1292.45	0.05095
1302.09	0.02887
1311.74	0.01187
1321.38	0.00668
1331.03	0.00507
1340.67	0.0051
1350.32	0.00569
1359.96	0.00716
1369.61	0.01375
1379.25	0.02482
1388.9	0.02729
1398.54	0.01724
1408.18	0.01137
1417.83	0.00949
1427.47	0.00857
1437.12	0.01002
1446.76	0.01518
1456.41	0.01911
1466.05	0.01672
1475.7	0.01191
1485.34	0.00994
1494.99	0.0095
1504.63	0.00969
1514.28	0.00854
1523.92	0.00839
1533.57	0.00847
1543.21	0.00813
1552.86	0.0078
1562.5	0.0076
1572.15	0.00834
1581.79	0.01211
1591.44	0.02319
1601.08	0.03677
1610.73	0.03823
1620.37	0.02555
1630.01	0.01229
1639.66	0.00871
1649.3	0.00622
1658.95	0.00603
1668.59	0.00785
1678.24	0.01139
1687.88	0.01808
1697.53	0.04128
1707.17	0.1407
1716.82	0.25196
1726.46	0.20602
1736.11	0.05204
1745.75	0.01876
1755.4	0.0127
1765.04	0.00738
1774.69	0.00543
1784.33	0.00597
1793.98	0.00609
1803.62	0.00555
1813.27	0.00549
1822.91	0.00402
1832.55	0.00305
1842.2	0.00318
1851.84	0.00302
1861.49	0.00254
1871.13	0.00245
1880.78	0.00315
1890.42	0.00367
1900.07	0.00342
1909.71	0.00274
1919.36	0.002095
1929	0.00221
1938.65	0.0020957
1948.29	0.0021289
1957.94	0.0018066
1967.58	0.0015627
1977.23	0.0017721
1986.87	0.0016984
1996.52	0.0017037
2006.16	0.0015033
2015.81	0.0010541
2025.45	0.00120349
2035.1	0.00117704
2044.74	0.0012924
2054.38	0.0014133
2064.03	0.0014574
2073.67	0.0016711
2083.32	0.0015626
2092.96	0.0014058
2102.61	0.0013408
2112.25	0.0012173
2121.9	0.0012855
2131.54	0.000997
2141.19	0.0010844
2150.83	0.0014559
2160.48	0.0014183
2170.12	0.0015485
2179.77	0.00120993
2189.41	0.001128
2199.06	0.0013104
2208.7	0.00119581
2218.35	0.0013412
2227.99	0.0013912
2237.64	0.0013891
2247.28	0.0013329
2256.92	0.000925
2266.57	0.0016981
2276.21	0.001578
2285.86	0.0018062
2295.5	0.0018985
2305.15	0.0014706
2314.79	0.0015616
2324.44	0.0013906
2334.08	0.00113026
2343.73	0.0015394
2353.37	0.0012962
2363.02	0.0013382
2372.66	0.0015092
2382.31	0.0017288
2391.95	0.0016466
2401.6	0.0017859
2411.24	0.0018294
2420.89	0.0016949
2430.53	0.002116
2440.18	0.0018197
2449.82	0.0013727
2459.47	0.00115307
2469.11	0.001297
2478.75	0.0013821
2488.4	0.0015578
2498.04	0.00115571
2507.69	0.0012956
2517.33	0.0017798
2526.98	0.0018887
2536.62	0.0017047
2546.27	0.0018061
2555.91	0.0016873
2565.56	0.0019686
2575.2	0.0018987
2584.85	0.0019048
2594.49	0.001854
2604.14	0.00228
2613.78	0.00252
2623.43	0.00279
2633.07	0.00328
2642.72	0.00313
2652.36	0.00429
2662.01	0.00465
2671.65	0.00486
2681.29	0.00511
2690.94	0.00759
2700.58	0.01805
2710.23	0.04486
2719.87	0.05173
2729.52	0.03202
2739.16	0.0129
2748.81	0.00933
2758.45	0.00822
2768.1	0.01091
2777.74	0.01759
2787.39	0.032
2797.03	0.04616
2806.68	0.04229
2816.32	0.026
2825.97	0.01783
2835.61	0.01549
2845.26	0.01328
2854.9	0.01304
2864.55	0.01658
2874.19	0.02097
2883.84	0.02192
2893.48	0.02031
2903.12	0.02102
2912.77	0.02531
2922.41	0.03648
2932.06	0.04409
2941.7	0.03831
2951.35	0.02457
2960.99	0.0167
2970.64	0.01316
2980.28	0.01357
2989.93	0.01608
2999.57	0.02074
3009.22	0.02853
3018.86	0.03405
3028.51	0.03235
3038.15	0.02491
3047.8	0.01729
3057.44	0.01267
3067.09	0.00883
3076.73	0.00629
3086.38	0.0061
3096.02	0.00504
3105.67	0.00315
3115.31	0.00234
3124.95	0.0015411
3134.6	0.001568
3144.24	0.0013163
3153.89	0.0015648
3163.53	0.0012486
3173.18	0.0016023
3182.82	0.00095
3192.47	0.000877
3202.11	0.0016003
3211.76	0.0013519
3221.4	0.0013296
3231.05	0.0017426
3240.69	0.0015801
3250.34	0.0014786
3259.98	0.0018599
3269.63	0.0010958
3279.27	0.00118658
3288.92	0.000891
3298.56	0.0012668
3308.21	0.000471
3317.85	0.00113729
3327.49	0.00123787
3337.14	0.00120642
3346.78	0.000699
3356.43	0.000901
3366.07	0.00181
3375.72	0.0018772
3385.36	0.001917
3395.01	0.0020618
3404.65	0.00359
3414.3	0.00522
3423.94	0.00474
3433.59	0.00295
3443.23	0.001463
3452.88	0.0019385
3462.52	0.00073
3472.17	0.0012457
3481.81	0.0013339
3491.46	0.0014589
3501.1	0.0013747
3510.75	0.00076
3520.39	0.0014077
3530.04	0.0012961
3539.68	0.0014034
3549.32	0.00115386
3558.97	0.0013072
3568.61	0.000755
3578.26	0.0010419
3587.9	0.000997
3597.55	0.000817
3607.19	0.000512
3616.84	0.000955
3626.48	0.0017634
3636.13	0.000842
3645.77	0.000629
3655.42	0.0011121
3665.06	0.0018534
3674.71	0.000771
3684.35	0.000166
3694	0.000586
3703.64	0.000769
3713.29	0.001098
3722.93	0.0010894
3732.58	0.0016332
3742.22	0.000381
3751.86	0.000534
3761.51	0.00085
3771.15	0.0013108
3780.8	0.0013357
3790.44	0.0012936
3800.09	0.0013898
3809.73	0.000795
3819.38	0.0013077
3829.02	0.0015099
3838.67	0.0012432
3848.31	0.000956
3857.96	0.00122067
3867.6	0.001118
3877.25	0.0014653
3886.89	0.00115453
3896.54	0.0012938
3906.18	0.0010902
3915.83	0.0011039
3925.47	0.001037
3935.12	0.0013559
3944.76	0.0011273
3954.41	0.0011051
3964.05	0.0016501
3973.69	0.0014744
3983.34	0.0014166
3992.98	0.0015145
