Infrared Spectrum: 8-Aminoquinoline
Formula: C 9 H 8 N 2
CAS: 578-66-5
State: gas
Instrument: HP-GC/MS/IRD
Origin: NIST Mass Spectrometry Data Center
1/CM	ABSORBANCE
550	0.0030382
562	0.0023188
574	0.0029568
586	0.003146
598	0.002992
610	0.0033088
622	0.0040018
634	0.004488
646	0.0043032
658	0.0037114
670	0.0031416
682	0.0030008
694	0.0033088
706	0.0030888
718	0.0026774
730	0.0049104
742	0.008195
754	0.005258
766	0.0060478
778	0.0113762
790	0.0138204
802	0.0082918
814	0.0075196
826	0.00473
838	0.0022594
850	0.0013332
862	0.001188
874	0.0010912
886	0.0011396
898	0.0011726
910	0.001045
922	0.0009152
934	0.0008206
946	0.0006908
958	0.000693
970	0.0006886
982	0.0005896
994	0.000473
1006	0.0006842
1018	0.000847
1030	0.0007084
1042	0.0004664
1054	0.0003146
1066	0.0004576
1078	0.0019162
1090	0.002783
1102	0.0017402
1114	0.001859
1126	0.0034738
1138	0.0025432
1150	0.0006028
1162	9.68e-05
1174	2.42e-05
1186	0.0001078
1198	0.000275
1210	0.0005588
1222	0.0007106
1234	0.0004466
1246	0.0004026
1258	0.0006908
1270	0.0011638
1282	0.0010868
1294	0.0005038
1306	0.000781
1318	0.0023848
1330	0.0050974
1342	0.005313
1354	0.0063118
1366	0.0130658
1378	0.012243
1390	0.0040744
1402	0.0016632
1414	0.0016984
1426	0.0025982
1438	0.002552
1450	0.002079
1462	0.0053196
1474	0.0087208
1486	0.0084942
1498	0.0119856
1510	0.0122804
1522	0.0048466
1534	0.0021164
1546	0.0022374
1558	0.003663
1570	0.0059202
1582	0.010923
1594	0.0186846
1606	0.021967
1618	0.0168058
1630	0.008316
1642	0.0030822
1654	0.0017534
1666	0.0012188
1678	0.001023
1690	0.0008668
1702	0.0009196
1714	0.0009482
1726	0.000682
1738	0.000517
1750	0.000616
1762	0.0005434
1774	0.0003344
1786	0.0002926
1798	0.0004334
1810	0.000495
1822	0.0003542
1834	0.0002376
1846	0.0003256
1858	0.00044
1870	0.0007744
1882	0.0008118
1894	0.0010846
1906	0.0010978
1918	0.0007018
1930	0.0006556
1942	0.0006182
1954	0.0003916
1966	0.0002662
1978	0.0002882
1990	0.000275
2002	0.0002508
2014	0.0002794
2026	0.000308
2038	0.000341
2050	0.0003256
2062	0.000352
2074	0.0003454
2086	0.0003564
2098	0.0003014
2110	0.0002926
2122	0.0003388
2134	0.0003256
2146	0.0003476
2158	0.000396
2170	0.0004158
2182	0.0003784
2194	0.000308
2206	0.0003586
2218	0.0003872
2230	0.00033
2242	0.0003938
2254	0.0003806
2266	0.0004158
2278	0.000385
2290	0.0003168
2302	0.000319
2314	0.0003278
2326	0.0003388
2338	0.0002618
2350	0.0003278
2362	0.0003894
2374	0.0003916
2386	0.0003168
2398	0.0003388
2410	0.0004202
2422	0.0003828
2434	0.0003256
2446	0.0003212
2458	0.0003762
2470	0.0003212
2482	0.000385
2494	0.000396
2506	0.0003938
2518	0.0003586
2530	0.0003146
2542	0.0003256
2554	0.000319
2566	0.0003256
2578	0.0003388
2590	0.0003652
2602	0.000396
2614	0.0004136
2626	0.0004202
2638	0.0004356
2650	0.0004312
2662	0.0003872
2674	0.0003674
2686	0.0003344
2698	0.0003432
2710	0.0003916
2722	0.000407
2734	0.000352
2746	0.0003256
2758	0.0003498
2770	0.0003102
2782	0.0003454
2794	0.000319
2806	0.0003278
2818	0.000363
2830	0.0003696
2842	0.0004202
2854	0.00044
2866	0.0005324
2878	0.0005478
2890	0.000429
2902	0.0004114
2914	0.0004576
2926	0.0005566
2938	0.0007414
2950	0.001001
2962	0.0011484
2974	0.0011044
2986	0.0010648
2998	0.0013178
3010	0.002277
3022	0.0046068
3034	0.0082676
3046	0.0096756
3058	0.0085008
3070	0.0078496
3082	0.0055088
3094	0.0027302
3106	0.001606
3118	0.0010582
3130	0.0006688
3142	0.0006468
3154	0.0007194
3166	0.0007348
3178	0.0007238
3190	0.0006226
3202	0.0006094
3214	0.000583
3226	0.0004796
3238	0.0004532
3250	0.0004598
3262	0.0004114
3274	0.0003322
3286	0.0004004
3298	0.000385
3310	0.0004576
3322	0.000462
3334	0.0004532
3346	0.000572
3358	0.0006094
3370	0.0010626
3382	0.002574
3394	0.0048026
3406	0.0044594
3418	0.002189
3430	0.00099
3442	0.0007568
3454	0.0006974
3466	0.0009812
3478	0.0014586
3490	0.0026378
3502	0.00462
3514	0.0043538
3526	0.0026136
3538	0.0015664
3550	0.0008602
3562	0.0007678
3574	0.0006468
3586	0.0005918
3598	0.0005544
3610	0.0005544
3622	0.0005698
3634	0.0006138
3646	0.0005852
3658	0.0005984
3670	0.0006556
3682	0.0006754
3694	0.0006358
3706	0.000594
3718	0.0005918
3730	0.0006578
3742	0.0005786
3754	0.0006226
3766	0.0006666
3778	0.0006468
3790	0.000671
3802	0.0007282
3814	0.0006908
3826	0.0006776
3838	0.0007128
