Infrared Spectrum: 5-Hydroxyquinoline
Formula: C 9 H 7 N O
CAS: 578-67-6
State: gas
Instrument: HP-GC/MS/IRD
Origin: NIST Mass Spectrometry Data Center
1/CM	ABSORBANCE
550	0.0002702
562	0.0007392
574	0.000679
586	0.000252
598	0.0001204
610	0.0002275
622	0.0001792
634	0.0001666
646	0.0001617
658	0.0001379
670	4.27e-05
682	1.12e-05
694	8.33e-05
706	0.0001085
718	0.0002324
730	0.0005628
742	0.0004851
754	0.0003556
766	0.0008463
778	0.0030947
790	0.0069461
802	0.0044261
814	0.0018851
826	0.0006286
838	0.0002352
850	0.0001295
862	0.0002051
874	0.0002541
886	0.0003262
898	0.0002163
910	9.24e-05
922	0.0001141
934	8.82e-05
946	0.0001057
958	0.0002023
970	0.0002611
982	0.0002884
994	0.0006825
1006	0.001309
1018	0.00126
1030	0.0012929
1042	0.0026964
1054	0.0029876
1066	0.0027258
1078	0.0024318
1090	0.0007672
1102	0.000434
1114	0.0006825
1126	0.0017815
1138	0.0021763
1150	0.0012894
1162	0.001148
1174	0.0022085
1186	0.002905
1198	0.0019068
1210	0.0015848
1222	0.0015575
1234	0.001764
1246	0.0034342
1258	0.0041867
1270	0.0025648
1282	0.0009366
1294	0.0005313
1306	0.0006706
1318	0.0010591
1330	0.0008253
1342	0.0005138
1354	0.0008148
1366	0.0013069
1378	0.0013937
1390	0.0012733
1402	0.0018907
1414	0.0017255
1426	0.0009737
1438	0.0006559
1450	0.0007084
1462	0.0016135
1474	0.0015946
1486	0.0007504
1498	0.0007917
1510	0.000798
1522	0.0005145
1534	0.0004928
1546	0.0008134
1558	0.0018081
1570	0.0032109
1582	0.0040971
1594	0.0040971
1606	0.0031129
1618	0.0024941
1630	0.0023464
1642	0.0011025
1654	0.0002772
1666	0.0001953
1678	0.0001946
1690	0.0002107
1702	0.0002009
1714	0.0001694
1726	0.0001939
1738	0.0001918
1750	0.0001813
1762	0.0001673
1774	0.0001379
1786	5.95e-05
1798	2.8e-05
1810	9.03e-05
1822	0.000126
1834	0.0001169
1846	8.96e-05
1858	5.46e-05
1870	5.46e-05
1882	0.0001022
1894	0.0001904
1906	0.000238
1918	0.0003031
1930	0.0002632
1942	0.0001848
1954	0.0001267
1966	7.98e-05
1978	3.36e-05
1990	1.47e-05
2002	9.8e-06
2014	1.12e-05
2026	2.45e-05
2038	4.27e-05
2050	2.59e-05
2062	2.66e-05
2074	3.99e-05
2086	1.82e-05
2098	1.75e-05
2110	9.1e-06
2122	4.9e-06
2134	3.08e-05
2146	4.13e-05
2158	1.89e-05
2170	6.3e-06
2182	8.4e-06
2194	1.12e-05
2206	2.38e-05
2218	0
2230	2.66e-05
2242	2.87e-05
2254	4.97e-05
2266	7.28e-05
2278	6.16e-05
2290	6.65e-05
2302	3.5e-05
2314	4.97e-05
2326	8.89e-05
2338	9.24e-05
2350	7.77e-05
2362	3.36e-05
2374	4.13e-05
2386	2.52e-05
2398	6.02e-05
2410	5.32e-05
2422	5.11e-05
2434	9.66e-05
2446	9.24e-05
2458	8.19e-05
2470	9.31e-05
2482	4.9e-05
2494	4.62e-05
2506	7.42e-05
2518	6.23e-05
2530	5.81e-05
2542	4.69e-05
2554	4.41e-05
2566	1.61e-05
2578	5.11e-05
2590	5.6e-05
2602	3.57e-05
2614	3.71e-05
2626	5.46e-05
2638	2.87e-05
2650	3.43e-05
2662	4.41e-05
2674	5.11e-05
2686	2.38e-05
2698	3.29e-05
2710	4.41e-05
2722	2.94e-05
2734	3.15e-05
2746	1.89e-05
2758	2.1e-05
2770	3.5e-05
2782	3.99e-05
2794	5.53e-05
2806	5.25e-05
2818	3.71e-05
2830	5.46e-05
2842	5.53e-05
2854	0.0001141
2866	7.98e-05
2878	5.46e-05
2890	5.81e-05
2902	7.98e-05
2914	7.56e-05
2926	8.54e-05
2938	0.0001547
2950	0.0002142
2962	0.0002583
2974	0.00028
2986	0.0002744
2998	0.0004228
3010	0.0007322
3022	0.0013377
3034	0.0019425
3046	0.0015568
3058	0.0012663
3070	0.0017794
3082	0.0018214
3094	0.0010612
3106	0.0004018
3118	0.0001946
3130	9.17e-05
3142	7.42e-05
3154	6.02e-05
3166	7.28e-05
3178	9.8e-05
3190	2.17e-05
3202	1.26e-05
3214	4.62e-05
3226	3.64e-05
3238	4.69e-05
3250	3.71e-05
3262	4.83e-05
3274	0
3286	5.18e-05
3298	4.62e-05
3310	7.56e-05
3322	7.56e-05
3334	0.0001099
3346	8.96e-05
3358	6.58e-05
3370	6.65e-05
3382	8.12e-05
3394	8.89e-05
3406	0.0001141
3418	8.61e-05
3430	8.68e-05
3442	0.0001183
3454	0.0001204
3466	7.84e-05
3478	8.4e-05
3490	0.0001393
3502	0.0001176
3514	9.73e-05
3526	0.0001337
3538	9.1e-05
3550	7.7e-05
3562	7.77e-05
3574	0.000105
3586	0.0001029
3598	0.0001225
3610	0.0001946
3622	0.0003276
3634	0.0011613
3646	0.0037114
3658	0.003395
3670	0.0006489
3682	0.0001274
3694	0.0001176
3706	7.63e-05
3718	9.17e-05
3730	6.65e-05
3742	4.48e-05
3754	3.36e-05
3766	6.51e-05
3778	6.37e-05
3790	8.75e-05
3802	9.94e-05
3814	0.000119
3826	0.00014
3838	9.87e-05
