Infrared Spectrum: Guanine, 7-methyl
Formula: C6 H7 N5 O
CAS: 578-76-7
State: SOLID (1.3 mg / 380 mg KBr DISC)
Class: COBLENTZ III
Instrument: PERKIN-ELMER 180 (GRATING)
Instrument parameters: GRATINGS: 2000, 1000, 500, 250 CM^-^1; FILTER CHANGE: 2970, 2000, 1485, 1000, 743, 500, 372, 250, 186 CM^-^1.
Sampling: TRANSMISSION
Resolution: 2
Origin: K. K. DEB-NCI FREDERICK CANCER RESEARCH CENTER
1/CM	TRANSMITTANCE
407	0.8272
416	0.7113
425	0.7129
434	0.8537
443	0.8819
452	0.8828
461	0.8799
470	0.8752
479	0.8661
488	0.8472
497	0.8341
506	0.836
515	0.8141
524	0.7746
533	0.5815
542	0.7092
551	0.6385
560	0.6717
569	0.6638
578	0.6717
587	0.7137
596	0.7566
605	0.6552
614	0.7338
623	0.7819
632	0.8176
641	0.814
650	0.8188
659	0.8138
668	0.8144
677	0.8324
686	0.8422
695	0.819
704	0.8048
713	0.4664
722	0.7973
731	0.8561
740	0.8499
749	0.8754
758	0.884
767	0.88
776	0.7254
785	0.7689
794	0.8782
803	0.8778
812	0.8759
821	0.8727
830	0.8684
839	0.8511
848	0.7994
857	0.661
866	0.805
875	0.7864
884	0.6662
893	0.568
902	0.6742
911	0.7714
920	0.8499
929	0.874
938	0.8819
947	0.882
956	0.8856
965	0.8871
974	0.885
983	0.8824
992	0.8801
1001	0.8773
1010	0.873
1019	0.8662
1028	0.8562
1037	0.8376
1046	0.8307
1055	0.8573
1064	0.8434
1073	0.8071
1082	0.8119
1091	0.8251
1100	0.7825
1109	0.6102
1118	0.7326
1127	0.79
1136	0.7723
1145	0.7846
1154	0.8056
1163	0.8182
1172	0.8068
1181	0.7951
1190	0.7832
1199	0.7692
1208	0.7027
1217	0.508
1226	0.4402
1235	0.6334
1244	0.7516
1253	0.7784
1262	0.7495
1271	0.6637
1280	0.8289
1289	0.8338
1298	0.8295
1307	0.8236
1316	0.8163
1325	0.8066
1334	0.7935
1343	0.7474
1352	0.6283
1361	0.6418
1370	0.651
1379	0.5569
1388	0.4462
1397	0.5028
1406	0.6043
1415	0.6513
1424	0.7567
1433	0.7213
1442	0.7376
1451	0.7291
1460	0.6955
1469	0.5829
1478	0.4732
1487	0.4964
1496	0.63
1505	0.7255
1514	0.7467
1523	0.7145
1532	0.6644
1541	0.6491
1550	0.5234
1559	0.4717
1568	0.5405
1577	0.6741
1586	0.6634
1595	0.5895
1604	0.4978
1613	0.3673
1622	0.4037
1631	0.4129
1640	0.3819
1649	0.2348
1658	0.1016
1667	0.0337
1676	0.0313
1685	0.0624
1694	0.1146
1703	0.2377
1712	0.5072
1721	0.6705
1730	0.745
1739	0.7622
1748	0.7642
1757	0.7627
1766	0.7749
1775	0.798
1784	0.8201
1793	0.8382
1802	0.8428
1811	0.8544
1820	0.8721
1829	0.8896
1838	0.8939
1847	0.8958
1856	0.8958
1865	0.8953
1874	0.8946
1883	0.8945
1892	0.8951
1901	0.8965
1910	0.8986
1919	0.9015
1928	0.9038
1937	0.9053
1946	0.9047
1955	0.9037
1964	0.9021
1973	0.9002
1982	0.8991
1991	0.9052
2000	0.9116
2009	0.9155
2018	0.9146
2027	0.9123
2036	0.9094
2045	0.9064
2054	0.9035
2063	0.9004
2072	0.8985
2081	0.8965
2090	0.897
2099	0.8966
2108	0.8962
2117	0.8955
2126	0.8968
2135	0.8973
2144	0.8973
2153	0.8967
2162	0.895
2171	0.8927
2180	0.8897
2189	0.8865
2198	0.8845
2207	0.8829
2216	0.8788
2225	0.8757
2234	0.8743
2243	0.8719
2252	0.8693
2261	0.8666
2270	0.8632
2279	0.8591
2288	0.8552
2297	0.8497
2306	0.8447
2315	0.8431
2324	0.8435
2333	0.8467
2342	0.8462
2351	0.8429
2360	0.8388
2369	0.8346
2378	0.8298
2387	0.8244
2396	0.8188
2405	0.813
2414	0.8069
2423	0.8006
2432	0.7942
2441	0.787
2450	0.7795
2459	0.7724
2468	0.7659
2477	0.7612
2486	0.7571
2495	0.7504
2504	0.739
2513	0.726
2522	0.7142
2531	0.702
2540	0.6931
2549	0.6892
2558	0.6808
2567	0.6692
2576	0.6573
2585	0.6452
2594	0.6323
2603	0.6184
2612	0.6042
2621	0.5882
2630	0.5719
2639	0.5545
2648	0.5372
2657	0.5204
2666	0.5035
2675	0.4866
2684	0.4716
2693	0.4616
2702	0.4595
2711	0.4623
2720	0.4703
2729	0.4773
2738	0.4862
2747	0.4884
2756	0.4923
2765	0.5073
2774	0.5348
2783	0.5455
2792	0.5512
2801	0.5576
2810	0.5624
2819	0.5742
2828	0.5879
2837	0.5901
2846	0.5909
2855	0.5882
2864	0.5844
2873	0.5829
2882	0.5901
2891	0.602
2900	0.6207
2909	0.6396
2918	0.6562
2927	0.6697
2936	0.6831
2945	0.6941
2954	0.7104
2963	0.7195
2972	0.7219
2981	0.7173
2990	0.7036
2999	0.6851
3008	0.6679
3017	0.6552
3026	0.6483
3035	0.6434
3044	0.6399
3053	0.6385
3062	0.6379
3071	0.6315
3080	0.6213
3089	0.5987
3098	0.5686
3107	0.5382
3116	0.5078
3125	0.4774
3134	0.447
3143	0.4166
3152	0.386
3161	0.3857
3170	0.4348
3179	0.5025
3188	0.5194
3197	0.5168
3206	0.5023
3215	0.4966
3224	0.5117
3233	0.5134
3242	0.5049
3251	0.4974
3260	0.4926
3269	0.4644
3278	0.4295
3287	0.3973
3296	0.3638
3305	0.3082
3314	0.269
3323	0.2636
3332	0.31
3341	0.4153
3350	0.5207
3359	0.6034
3368	0.701
3377	0.7524
3386	0.7906
3395	0.8126
3404	0.825
3413	0.8363
3422	0.8471
3431	0.858
3440	0.8689
3449	0.8744
3458	0.8791
3467	0.8824
3476	0.8838
3485	0.885
3494	0.8863
3503	0.8872
3512	0.8881
3521	0.889
3530	0.8898
3539	0.8903
3548	0.8909
3557	0.8914
3566	0.8923
3575	0.8933
3584	0.8943
3593	0.8953
3602	0.8963
3611	0.8967
3620	0.8966
3629	0.8965
3638	0.8963
3647	0.8962
3656	0.8962
3665	0.8961
3674	0.896
3683	0.8957
3692	0.8951
3701	0.8945
3710	0.8939
3719	0.8929
3728	0.8918
3737	0.8906
3746	0.8895
3755	0.8883
3764	0.8872
3773	0.8861
