Infrared Spectrum: 2-Bromobenzyl chloride
Formula: C 7 H 6 Br Cl
CAS: 578-51-8
State: gas
Origin: EPA-IR VAPOR PHASE LIBRARY
1/CM	ABSORBANCE
549.8	0.0014926
559.445	0.002281
569.09	0.005661
578.734	0.005901
588.379	0.002381
598.024	0.0016264
607.669	0.0012941
617.313	0.0014255
626.958	0.0014646
636.603	0.001831
646.248	0.004611
655.893	0.011161
665.537	0.012501
675.182	0.013561
684.827	0.019901
694.472	0.014441
704.116	0.007821
713.761	0.009231
723.406	0.023981
733.051	0.053661
742.695	0.044671
752.34	0.026321
761.985	0.013751
771.63	0.004961
781.275	0.002661
790.919	0.002201
800.564	0.003451
810.209	0.010101
819.854	0.011821
829.498	0.005881
839.143	0.002271
848.788	0.0017034
858.433	0.001781
868.078	0.001891
877.722	0.001811
887.367	0.001791
897.012	0.001921
906.657	0.002551
916.301	0.0012939
925.946	0.001801
935.591	0.0016196
945.236	0.002371
954.88	0.002011
964.525	0.0016244
974.17	0.002291
983.815	0.002121
993.46	0.003061
1003.1	0.003401
1012.75	0.008111
1022.39	0.024271
1032.04	0.032571
1041.68	0.015411
1051.33	0.007381
1060.97	0.004391
1070.62	0.002381
1080.26	0.001891
1089.91	0.0010043
1099.55	0.002421
1109.2	0.004341
1118.84	0.004291
1128.49	0.0016346
1138.13	0.002031
1147.78	0.002761
1157.42	0.002761
1167.07	0.002801
1176.71	0.0009991
1186.36	0.0013963
1196	0.002161
1205.64	0.003441
1215.29	0.001351
1224.93	0.002211
1234.58	0.0012959
1244.22	0.003731
1253.87	0.006611
1263.51	0.012181
1273.16	0.015391
1282.8	0.012291
1292.45	0.008051
1302.09	0.004631
1311.74	0.002211
1321.38	0.0012371
1331.03	0.0010183
1340.67	0.001124
1350.32	0.0012441
1359.96	0.0012875
1369.61	0.0012976
1379.25	0.0012977
1388.9	0.0017159
1398.54	0.002561
1408.18	0.003481
1417.83	0.004601
1427.47	0.008521
1437.12	0.019291
1446.76	0.022201
1456.41	0.014601
1466.05	0.014951
1475.7	0.016291
1485.34	0.010541
1494.99	0.003711
1504.63	0.002071
1514.28	0.001801
1523.92	0.0015646
1533.57	0.001871
1543.21	0.001871
1552.86	0.002581
1562.5	0.005821
1572.15	0.008231
1581.79	0.006701
1591.44	0.005371
1601.08	0.003681
1610.73	0.002111
1620.37	0.0015576
1630.01	0.001055
1639.66	0.0012346
1649.3	0.0008997
1658.95	0.001031
1668.59	0.001238
1678.24	0.0013962
1687.88	0.0016692
1697.53	0.0014354
1707.17	0.0014352
1716.82	0.0014423
1726.46	0.0010456
1736.11	0.000868
1745.75	0.00085489
1755.4	0.000648
1765.04	0.00083358
1774.69	0.0011148
1784.33	0.0014045
1793.98	0.002161
1803.62	0.002091
1813.27	0.0014435
1822.91	0.001771
1832.55	0.0016071
1842.2	0.0012454
1851.84	0.0012769
1861.49	0.0011107
1871.13	0.0012
1880.78	0.0012455
1890.42	0.0014116
1900.07	0.0016419
1909.71	0.002251
1919.36	0.002221
1929	0.001801
1938.65	0.001921
1948.29	0.002321
1957.94	0.0014193
1967.58	0.000982
1977.23	0.0008755
1986.87	0.00085084
1996.52	0.00082247
2006.16	0.000563
2015.81	0.0008752
2025.45	0.0008341
2035.1	0.0008869
2044.74	0.0009036
2054.38	0.0008289
2064.03	0.0011713
2073.67	0.0009943
2083.32	0.0009399
2092.96	0.0008618
2102.61	0.00057
2112.25	0.0009779
2121.9	0.0010692
2131.54	0.000766501
2141.19	0.0007227
2150.83	0.0007087
2160.48	0.0008012
2170.12	0.0009371
2179.77	0.0009196
2189.41	0.0008762
2199.06	0.0007173
2208.7	0.0007238
2218.35	0.00082691
2227.99	0.0010026
2237.64	0.0009172
2247.28	0.0007466
2256.92	0.0011099
2266.57	0.00080667
2276.21	0.0009486
2285.86	0.00083514
2295.5	0.0010102
2305.15	0.000878
2314.79	0.0012543
2324.44	0.0013293
2334.08	0.0013801
2343.73	0.0011603
2353.37	0.0012772
2363.02	0.0006971
2372.66	0.0009946
2382.31	0.000943
2391.95	0.0008992
2401.6	0.0009573
2411.24	0.0010252
2420.89	0.0010955
2430.53	0.0012128
2440.18	0.0009305
2449.82	0.0009254
2459.47	0.0009886
2469.11	0.0011857
2478.75	0.000864
2488.4	0.000616
2498.04	0.0009832
2507.69	0.0006639
2517.33	0.00082974
2526.98	0.0012248
2536.62	0.0008113
2546.27	0.0013115
2555.91	0.00082121
2565.56	0.0010653
2575.2	0.0009275
2584.85	0.0008651
2594.49	0.0009805
2604.14	0.0010494
2613.78	0.001198
2623.43	0.0009471
2633.07	0.0010069
2642.72	0.0012243
2652.36	0.000661
2662.01	0.000926
2671.65	0.00080113
2681.29	0.0009392
2690.94	0.0014176
2700.58	0.0009266
2710.23	0.0010414
2719.87	0.0011619
2729.52	0.0010629
2739.16	0.0010321
2748.81	0.001168
2758.45	0.00080878
2768.1	0.001007
2777.74	0.0008698
2787.39	0.000503
2797.03	0.0008626
2806.68	0.00083654
2816.32	0.0010572
2825.97	0.0011226
2835.61	0.0011776
2845.26	0.0011688
2854.9	0.0014089
2864.55	0.0015986
2874.19	0.0015631
2883.84	0.0015926
2893.48	0.0011399
2903.12	0.0007026
2912.77	0.000545
2922.41	0.0010958
2932.06	0.0013043
2941.7	0.001891
2951.35	0.002721
2960.99	0.003261
2970.64	0.004901
2980.28	0.006041
2989.93	0.003911
2999.57	0.002831
3009.22	0.003001
3018.86	0.003721
3028.51	0.003571
3038.15	0.003271
3047.8	0.003241
3057.44	0.006621
3067.09	0.012611
3076.73	0.015151
3086.38	0.009621
3096.02	0.004201
3105.67	0.001921
3115.31	0.0011782
3124.95	0.002211
3134.6	0.0011523
3144.24	0.0016026
3153.89	0.0012667
3163.53	0.000509
3173.18	0.000471
3182.82	0.0010865
3192.47	0.0011051
3202.11	0.000536
3211.76	0.000612
3221.4	0.0010164
3231.05	0.0007373
3240.69	0.000952
3250.34	0.00080956
3259.98	0.0009626
3269.63	0.0012055
3279.27	0.000519
3288.92	0.0006738
3298.56	0.0009469
3308.21	0.0011711
3317.85	0.00039
3327.49	0.000633
3337.14	0.0010922
3346.78	0.000306
3356.43	0.00084233
3366.07	0.000591
3375.72	0.0009563
3385.36	0.0010919
3395.01	0.0006958
3404.65	0.000927
3414.3	0.00080063
3423.94	0.000926
3433.59	0.000653
3443.23	0.0009802
3452.88	0.0010607
3462.52	0.0010265
3472.17	0.0006875
3481.81	0.0014389
3491.46	0.0008824
3501.1	0.0015174
3510.75	0.0007324
3520.39	0.000588
3530.04	0.0008659
3539.68	0.000585
3549.32	0.0008982
3558.97	0.000581
3568.61	0.000592
3578.26	0.0014745
3587.9	0.0013098
3597.55	0.0008943
3607.19	0.0012935
3616.84	0.000658
3626.48	0.00081213
3636.13	0.0011828
3645.77	0.000509
3655.42	0.000622
3665.06	0.00085868
3674.71	0.001124
3684.35	0.0011206
3694	0.000598
3703.64	0.0011261
3713.29	0.0013656
3722.93	0.00097
3732.58	0.000605
3742.22	0.0006987
3751.86	0.0010668
3761.51	0.000633
3771.15	0.0011622
3780.8	0.0014813
3790.44	0.0009575
3800.09	0.0007118
3809.73	0.0010553
3819.38	0.00079166
3829.02	0.0011511
3838.67	0.00081099
3848.31	0.0010766
3857.96	0.0009555
3867.6	0.0010902
3877.25	0.0008731
3886.89	0.00085921
3896.54	0.0011389
3906.18	0.0008664
3915.83	0.000558
3925.47	0.0014256
3935.12	0.0013053
3944.76	0.0012245
3954.41	0.0008519
3964.05	0.00057
3973.69	0.0008756
3983.34	0.0007375
3992.98	0.000625
