Infrared Spectrum: o-Methylanisole
Formula: C 8 H 10 O
CAS: 578-58-5
State: gas
Instrument: HP-GC/MS/IRD
Origin: NIST Mass Spectrometry Data Center
1/CM	ABSORBANCE
550	0.000248
562	0.000212
574	0.00034
586	0.000656
598	0.00056
610	0.000216
622	0.000104
634	0.000104
646	8.4e-05
658	6.8e-05
670	0.000116
682	0.000208
694	0.001024
706	0.00292
718	0.005196
730	0.007432
742	0.013312
754	0.01348
766	0.006756
778	0.00226
790	0.000872
802	0.000764
814	0.00138
826	0.001396
838	0.000692
850	0.000428
862	0.000412
874	0.00026
886	0.000296
898	0.000332
910	0.000432
922	0.000604
934	0.0004
946	0.0005
958	0.000684
970	0.001076
982	0.001716
994	0.002224
1006	0.003096
1018	0.005712
1030	0.009548
1042	0.012288
1054	0.009432
1066	0.003688
1078	0.001572
1090	0.001592
1102	0.003272
1114	0.008744
1126	0.009884
1138	0.005028
1150	0.002664
1162	0.004156
1174	0.006872
1186	0.006848
1198	0.00432
1210	0.004768
1222	0.011712
1234	0.030292
1246	0.04
1258	0.023896
1270	0.008092
1282	0.0064
1294	0.006176
1306	0.00506
1318	0.0033
1330	0.001828
1342	0.001008
1354	0.000812
1366	0.000976
1378	0.0014
1390	0.00154
1402	0.001356
1414	0.001952
1426	0.004428
1438	0.007104
1450	0.008156
1462	0.010996
1474	0.013456
1486	0.019948
1498	0.022036
1510	0.012264
1522	0.003892
1534	0.001992
1546	0.00174
1558	0.001828
1570	0.003044
1582	0.005896
1594	0.008588
1606	0.006344
1618	0.002892
1630	0.0012
1642	0.000708
1654	0.00056
1666	0.00056
1678	0.000492
1690	0.000396
1702	0.000248
1714	0.000236
1726	0.000312
1738	0.000488
1750	0.00064
1762	0.000576
1774	0.000472
1786	0.00036
1798	0.000376
1810	0.000308
1822	0.000284
1834	0.0003
1846	0.000332
1858	0.000352
1870	0.00056
1882	0.000708
1894	0.000544
1906	0.000408
1918	0.000476
1930	0.000428
1942	0.000212
1954	0.00016
1966	0.000292
1978	0.00042
1990	0.00046
2002	0.000312
2014	0.000252
2026	0.000288
2038	0.000388
2050	0.000548
2062	0.000636
2074	0.000592
2086	0.00036
2098	0.000248
2110	0.000108
2122	5.6e-05
2134	7.2e-05
2146	4e-05
2158	0.000104
2170	6.4e-05
2182	6.8e-05
2194	6.4e-05
2206	0.000156
2218	0.000168
2230	0.000152
2242	0.000104
2254	0.000132
2266	5.2e-05
2278	0.0001
2290	7.6e-05
2302	8e-05
2314	0.000144
2326	0.00012
2338	6.4e-05
2350	3.6e-05
2362	0
2374	0
2386	2.4e-05
2398	7.6e-05
2410	0.000148
2422	0.000172
2434	0.000108
2446	0.000124
2458	0.000112
2470	0.000196
2482	0.00028
2494	0.000196
2506	9.6e-05
2518	0.000156
2530	0.000244
2542	0.000268
2554	0.000224
2566	0.000212
2578	0.000204
2590	0.000128
2602	0.000104
2614	0.000116
2626	2e-05
2638	8e-05
2650	6e-05
2662	2e-05
2674	4e-05
2686	7.2e-05
2698	0.000144
2710	0.000136
2722	0.000236
2734	0.000312
2746	0.000316
2758	0.000328
2770	0.000324
2782	0.000468
2794	0.0007
2806	0.001068
2818	0.001832
2830	0.003812
2842	0.005912
2854	0.005668
2866	0.004316
2878	0.004452
2890	0.004984
2902	0.005952
2914	0.00806
2926	0.01044
2938	0.012996
2950	0.01328
2962	0.010868
2974	0.007756
2986	0.007064
2998	0.00824
3010	0.007968
3022	0.007492
3034	0.007472
3046	0.006328
3058	0.006516
3070	0.007372
3082	0.0065
3094	0.004064
3106	0.002216
3118	0.001476
3130	0.000884
3142	0.000504
3154	0.000448
3166	0.000324
3178	0.00028
3190	0.000224
3202	0.000228
3214	0.000172
3226	0.000124
3238	0.000164
3250	0.000124
3262	0.000136
3274	0.00012
3286	0.000144
3298	0.000148
3310	7.2e-05
3322	0.000148
3334	4.4e-05
3346	6.4e-05
3358	0.000124
3370	0.000108
3382	4e-05
3394	3.2e-05
3406	0.000128
3418	0.000148
3430	4e-06
3442	9.6e-05
3454	5.2e-05
3466	8e-05
3478	0.000144
3490	0.000132
3502	0.000136
3514	0.000116
3526	0.000116
3538	0.000168
3550	6.4e-05
3562	0.000204
3574	0.000144
3586	0.000152
3598	0.000216
3610	0.00018
3622	0.000228
3634	0.00018
3646	0.000196
3658	0.000176
3670	0.0002
3682	0.000196
3694	0.000192
3706	0.00012
3718	0.000136
3730	0.000188
3742	0.000236
3754	0.000168
3766	0.000188
3778	0.000244
3790	0.000328
3802	0.000208
3814	0.000324
3826	0.000256
3838	0.000292
