Infrared Spectrum: 3-Methoxy-4,5-methylenedioxybenzaldehyde
Formula: C 9 H 8 O 4
CAS: 5780-07-4
State: gas
Origin: EPA-IR VAPOR PHASE LIBRARY
1/CM	ABSORBANCE
549.8	0.000606
559.445	0.0008451
569.09	0.0014362
578.734	0.002609
588.379	0.0018575
598.024	0.001969
607.669	0.003199
617.313	0.003759
626.958	0.003899
636.603	0.003639
646.248	0.003489
655.893	0.003179
665.537	0.002839
675.182	0.002129
684.827	0.003559
694.472	0.003969
704.116	0.004959
713.761	0.005279
723.406	0.004509
733.051	0.003969
742.695	0.004639
752.34	0.005469
761.985	0.003549
771.63	0.002129
781.275	0.0018005
790.919	0.0015208
800.564	0.001358
810.209	0.002219
819.854	0.003399
829.498	0.005539
839.143	0.007159
848.788	0.006409
858.433	0.005509
868.078	0.003449
877.722	0.002409
887.367	0.002109
897.012	0.002109
906.657	0.002519
916.301	0.004339
925.946	0.007859
935.591	0.013299
945.236	0.013959
954.88	0.010809
964.525	0.007399
974.17	0.006369
983.815	0.006299
993.46	0.005669
1003.1	0.005259
1012.75	0.005229
1022.39	0.006199
1032.04	0.009719
1041.68	0.018969
1051.33	0.029469
1060.97	0.027859
1070.62	0.024929
1080.26	0.029879
1089.91	0.029019
1099.55	0.024539
1109.2	0.029049
1118.84	0.034489
1128.49	0.037629
1138.13	0.027139
1147.78	0.012479
1157.42	0.008019
1167.07	0.006829
1176.71	0.007059
1186.36	0.009839
1196	0.014379
1205.64	0.019699
1215.29	0.022059
1224.93	0.022059
1234.58	0.010309
1244.22	0.005939
1253.87	0.006249
1263.51	0.006689
1273.16	0.012669
1282.8	0.027089
1292.45	0.041749
1302.09	0.034659
1311.74	0.027829
1321.38	0.025189
1331.03	0.017639
1340.67	0.015029
1350.32	0.021439
1359.96	0.029319
1369.61	0.028449
1379.25	0.019789
1388.9	0.018889
1398.54	0.024879
1408.18	0.025049
1417.83	0.032749
1427.47	0.042389
1437.12	0.031989
1446.76	0.020729
1456.41	0.019089
1466.05	0.015479
1475.7	0.012339
1485.34	0.016709
1494.99	0.021859
1504.63	0.017509
1514.28	0.009209
1523.92	0.004599
1533.57	0.004059
1543.21	0.004019
1552.86	0.003729
1562.5	0.004049
1572.15	0.004939
1581.79	0.007549
1591.44	0.012059
1601.08	0.016969
1610.73	0.019099
1620.37	0.022489
1630.01	0.021779
1639.66	0.012329
1649.3	0.006769
1658.95	0.005339
1668.59	0.005159
1678.24	0.005509
1687.88	0.007139
1697.53	0.014089
1707.17	0.050909
1716.82	0.075619
1726.46	0.029019
1736.11	0.007969
1745.75	0.004829
1755.4	0.003649
1765.04	0.002489
1774.69	0.002499
1784.33	0.002169
1793.98	0.002069
1803.62	0.001999
1813.27	0.00189
1822.91	0.0017327
1832.55	0.001939
1842.2	0.0017732
1851.84	0.0016933
1861.49	0.001969
1871.13	0.002009
1880.78	0.0018572
1890.42	0.0017404
1900.07	0.0015533
1909.71	0.0014464
1919.36	0.0016812
1929	0.0015957
1938.65	0.0015327
1948.29	0.001392
1957.94	0.0015051
1967.58	0.0014811
1977.23	0.0015267
1986.87	0.0016214
1996.52	0.0014539
2006.16	0.0018226
2015.81	0.0016148
2025.45	0.0017654
2035.1	0.0018455
2044.74	0.001969
2054.38	0.0018994
2064.03	0.0016948
2073.67	0.0018034
2083.32	0.0015643
2092.96	0.0017038
2102.61	0.0016136
2112.25	0.0014946
2121.9	0.0014011
2131.54	0.0011707
2141.19	0.0013279
2150.83	0.0010926
2160.48	0.0013589
2170.12	0.0013684
2179.77	0.0013372
2189.41	0.0012886
2199.06	0.001026
2208.7	0.0011273
2218.35	0.0009686
2227.99	0.0011329
2237.64	0.0008887
2247.28	0.00092938
2256.92	0.00093296
2266.57	0.0012255
2276.21	0.0011934
2285.86	0.000923392
2295.5	0.000865
2305.15	0.00098163
2314.79	0.0008973
2324.44	0.00095894
2334.08	0.0010684
2343.73	0.000741
2353.37	0.0011858
2363.02	0.0012264
2372.66	0.0010244
2382.31	0.0009992
2391.95	0.0010693
2401.6	0.00098842
2411.24	0.0011221
2420.89	0.0014004
2430.53	0.0012257
2440.18	0.0013486
2449.82	0.0012782
2459.47	0.0011004
2469.11	0.0011099
2478.75	0.0012575
2488.4	0.0012361
2498.04	0.001134
2507.69	0.0011721
2517.33	0.00098539
2526.98	0.0013149
2536.62	0.0011111
2546.27	0.0013123
2555.91	0.0015593
2565.56	0.0011505
2575.2	0.0014875
2584.85	0.0011719
2594.49	0.0016059
2604.14	0.0012342
2613.78	0.0014148
2623.43	0.0015967
2633.07	0.0017673
2642.72	0.0017565
2652.36	0.002199
2662.01	0.002079
2671.65	0.002469
2681.29	0.002649
2690.94	0.003969
2700.58	0.005439
2710.23	0.007469
2719.87	0.008779
2729.52	0.007389
2739.16	0.004839
2748.81	0.004749
2758.45	0.005409
2768.1	0.006839
2777.74	0.007679
2787.39	0.007199
2797.03	0.007569
2806.68	0.009289
2816.32	0.011099
2825.97	0.009079
2835.61	0.007229
2845.26	0.006539
2854.9	0.007389
2864.55	0.008099
2874.19	0.009779
2883.84	0.010949
2893.48	0.010829
2903.12	0.009789
2912.77	0.009519
2922.41	0.009589
2932.06	0.009659
2941.7	0.010919
2951.35	0.012219
2960.99	0.010499
2970.64	0.008679
2980.28	0.006329
2989.93	0.005739
2999.57	0.005859
3009.22	0.008179
3018.86	0.008989
3028.51	0.005749
3038.15	0.003549
3047.8	0.003019
3057.44	0.002499
3067.09	0.002609
3076.73	0.002329
3086.38	0.002179
3096.02	0.0017273
3105.67	0.002059
3115.31	0.0014174
3124.95	0.0012141
3134.6	0.000667
3144.24	0.000928268
3153.89	0.000722
3163.53	0.0011882
3173.18	0.000498
3182.82	0.000438
3192.47	0.00094959
3202.11	0.000920125
3211.76	0.00091093
3221.4	0.0011595
3231.05	0.0008719
3240.69	0.0009765
3250.34	0.000578
3259.98	0.001156
3269.63	0.0010213
3279.27	0.0010972
3288.92	0.00074
3298.56	0.000749
3308.21	0.000622
3317.85	0.00058
3327.49	0.000665
3337.14	0.000475
3346.78	0.000727
3356.43	0.000603
3366.07	0.0010669
3375.72	0.000336
3385.36	0.0010623
3395.01	0.000779
3404.65	0.0012329
3414.3	0.0015862
3423.94	0.0013095
3433.59	0.0011642
3443.23	0.00041
3452.88	0.00059
3462.52	0.000291
3472.17	0.000439
3481.81	0.000575
3491.46	0.0008677
3501.1	0.00074
3510.75	0.000877
3520.39	0.00094483
3530.04	0.000595
3539.68	0.000505
3549.32	0.000474
3558.97	0.000475
3568.61	0.0011857
3578.26	0.00041
3587.9	0.000712
3597.55	0.000678
3607.19	0.00091216
3616.84	0.0011408
3626.48	0.0011274
3636.13	0.00099461
3645.77	0.000784
3655.42	0.000478
3665.06	0.000537
3674.71	0.000561
3684.35	0.000899
3694	0
3703.64	0.000811
3713.29	0.000555
3722.93	0.000348
3732.58	0.0012019
3742.22	0.00097232
3751.86	0.000752
3761.51	0.00075
3771.15	0.0011793
3780.8	0.00059
3790.44	0.000817
3800.09	0.000807
3809.73	0.0010791
3819.38	0.00098847
3829.02	0.000925848
3838.67	0.000445
3848.31	0.000405
3857.96	0.000639
3867.6	0.0008471
3877.25	0.00099138
3886.89	0.0008816
3896.54	0.0008549
3906.18	0.00100752
3915.83	0.0010398
3925.47	0.0008477
3935.12	0.0008306
3944.76	0.000495
3954.41	0.00096339
3964.05	0.0010999
3973.69	0.00025
3983.34	0.000212
3992.98	0.0008581
