Infrared Spectrum: Ridomil
Formula: C 15 H 21 N O 4
CAS: 57837-19-1
State: gas
Instrument: HP-GC/MS/IRD
Origin: NIST Mass Spectrometry Data Center
1/CM	ABSORBANCE
550	0.0024704
562	0.0022195
574	0.0046513
586	0.0053075
598	0.0046127
610	0.0025669
622	0.0023739
634	0.0034354
646	0.0028371
658	0.0016791
670	0.0013703
682	0.0022002
694	0.0027985
706	0.0024704
718	0.0026441
730	0.00386
742	0.0065041
754	0.0126029
766	0.0458954
778	0.0244145
790	0.008878
802	0.0045548
814	0.0018528
826	0.0032231
838	0.007141
850	0.005597
862	0.000772
874	3.86e-05
886	0.0010422
898	0.0037828
910	0.0065041
922	0.0069094
934	0.0083376
946	0.0110589
958	0.0115221
970	0.0137416
982	0.0187596
994	0.0238934
1006	0.0184508
1018	0.0169068
1030	0.017563
1042	0.024125
1054	0.0368244
1066	0.0320573
1078	0.0337943
1090	0.0532294
1102	0.0794195
1114	0.105262
1126	0.143052
1138	0.115916
1150	0.0840322
1162	0.094377
1174	0.138767
1186	0.152335
1198	0.152258
1210	0.108736
1222	0.083955
1234	0.085306
1246	0.0855762
1258	0.114681
1270	0.114777
1282	0.0848621
1294	0.0626478
1306	0.0566069
1318	0.0538856
1330	0.0521872
1342	0.0480184
1354	0.044969
1366	0.0432899
1378	0.0632847
1390	0.0621846
1402	0.04246
1414	0.0302238
1426	0.0317871
1438	0.0558928
1450	0.0608915
1462	0.069287
1474	0.0490027
1486	0.0293167
1498	0.0183736
1510	0.0130661
1522	0.0109431
1534	0.010422
1546	0.0091482
1558	0.0078165
1570	0.0078165
1582	0.0089552
1594	0.0098623
1606	0.0077586
1618	0.0074305
1630	0.0094763
1642	0.0145908
1654	0.0261322
1666	0.0588843
1678	0.146796
1690	0.193
1702	0.158318
1714	0.0679167
1726	0.0366893
1738	0.0366507
1750	0.0781843
1762	0.184817
1774	0.0879308
1786	0.0237583
1798	0.0134328
1810	0.0092833
1822	0.005983
1834	0.0042074
1846	0.0037442
1858	0.0031459
1870	0.001737
1882	0.0013317
1894	0.001158
1906	0.0011194
1918	0.0014668
1930	0.0028757
1942	0.0020265
1954	0.0009264
1966	0.0010036
1978	0.0010615
1990	0.000965
2002	0.0008492
2014	0.0011001
2026	0.0013317
2038	0.0014089
2050	0.0013703
2062	0.0012352
2074	0.0013124
2086	0.0013317
2098	0.0010808
2110	0.0008878
2122	0.0006948
2134	0.0005983
2146	0.0005597
2158	0.0005018
2170	0.000386
2182	0.000193
2194	5.79e-05
2206	1.93e-05
2218	1.93e-05
2230	1.93e-05
2242	1.93e-05
2254	3.86e-05
2266	9.65e-05
2278	0.0002123
2290	0.0002702
2302	0.0002702
2314	0.0003088
2326	0.0005404
2338	0.0008492
2350	0.0005983
2362	0.0005983
2374	0.0006176
2386	0.000579
2398	0.000579
2410	0.0005597
2422	0.0004825
2434	0.0004439
2446	0.0003088
2458	0.0002895
2470	0.0003667
2482	0.0004053
2494	0.0005211
2506	0.0005597
2518	0.0005597
2530	0.0005404
2542	0.0005404
2554	0.0005597
2566	0.0006176
2578	0.0006948
2590	0.0008685
2602	0.0010229
2614	0.0010036
2626	0.0008685
2638	0.0008106
2650	0.0008299
2662	0.0008106
2674	0.0008106
2686	0.0008878
2698	0.0011194
2710	0.0014475
2722	0.0018335
2734	0.0025862
2746	0.0035898
2758	0.0038214
2770	0.0038214
2782	0.0047285
2794	0.0066006
2806	0.0103641
2818	0.0197825
2830	0.0312467
2842	0.026827
2854	0.0260936
2866	0.0271937
2878	0.0317485
2890	0.0386386
2902	0.0424986
2914	0.0519363
2926	0.0696344
2938	0.0747296
2950	0.0757718
2962	0.0804038
2974	0.0441777
2986	0.0490606
2998	0.060988
3010	0.0384842
3022	0.0326556
3034	0.0291237
3046	0.0258041
3058	0.0290465
3070	0.0267498
3082	0.0172349
3094	0.0083183
3106	0.0054812
3118	0.0041302
3130	0.0032231
3142	0.0026634
3154	0.0021809
3166	0.0019107
3178	0.0016212
3190	0.0012545
3202	0.0009264
3214	0.0007141
3226	0.0006369
3238	0.000579
3250	0.0005211
3262	0.0004439
3274	0.0004439
3286	0.0004632
3298	0.0004825
3310	0.000579
3322	0.0008492
3334	0.0011966
3346	0.0014861
3358	0.0015054
3370	0.001544
3382	0.0015633
3394	0.0011194
3406	0.0007913
3418	0.0006176
3430	0.0004053
3442	0.0003088
3454	0.0004053
3466	0.0004246
3478	0.0006369
3490	0.0009843
3502	0.0014475
3514	0.0016405
3526	0.0009457
3538	0.0006176
3550	0.0004053
3562	0.000193
3574	0.000193
3586	9.65e-05
3598	9.65e-05
3610	0.0001158
3622	0.0001158
3634	3.86e-05
3646	3.86e-05
3658	7.72e-05
3670	3.86e-05
3682	5.79e-05
3694	9.65e-05
3706	5.79e-05
3718	9.65e-05
3730	0.0001737
3742	0.0002316
3754	0.0002316
3766	0.0003281
3778	0.0003281
3790	0.0003667
3802	0.0004439
3814	0.0004825
3826	0.0005404
3838	0.0005018
