Infrared Spectrum: 4-Bromo-2-fluorobenzaldehyde
Formula: C 7 H 4 Br F O
CAS: 57848-46-1
State: gas
Origin: EPA-IR VAPOR PHASE LIBRARY
1/CM	ABSORBANCE
549.8	0.00322
559.445	0.00426
569.09	0.01098
578.735	0.01791
588.38	0.00978
598.025	0.00398
607.67	0.0020317
617.315	0.0014179
626.96	0.0016626
636.605	0.0023754
646.251	0.00529
655.896	0.01089
665.541	0.00883
675.186	0.0029
684.831	0.0021262
694.476	0.0015642
704.121	0.001153
713.766	0.001258
723.411	0.0020372
733.056	0.00251
742.701	0.002276
752.346	0.00249
761.991	0.00385
771.636	0.00891
781.281	0.01821
790.926	0.04284
800.571	0.08926
810.216	0.07401
819.861	0.06112
829.507	0.0349
839.152	0.01912
848.797	0.0337
858.442	0.0674
868.087	0.08754
877.732	0.18448
887.377	0.20514
897.022	0.08125
906.667	0.04025
916.312	0.0112
925.957	0.0062
935.602	0.00451
945.247	0.00386
954.892	0.0035
964.537	0.00255
974.182	0.0020582
983.827	0.0022992
993.472	0.00275
1003.12	0.00285
1012.76	0.00316
1022.41	0.00427
1032.05	0.0039
1041.7	0.00481
1051.34	0.01398
1060.99	0.0564
1070.63	0.0479
1080.28	0.00922
1089.92	0.00997
1099.57	0.01573
1109.21	0.01624
1118.86	0.01176
1128.5	0.00947
1138.15	0.00823
1147.79	0.00833
1157.44	0.00794
1167.08	0.00936
1176.73	0.02449
1186.37	0.04854
1196.02	0.04923
1205.66	0.10221
1215.31	0.12007
1224.95	0.05126
1234.6	0.02624
1244.24	0.04653
1253.89	0.08905
1263.53	0.03761
1273.18	0.01479
1282.82	0.02128
1292.47	0.02348
1302.11	0.00689
1311.76	0.00342
1321.4	0.00337
1331.05	0.00394
1340.69	0.0046
1350.34	0.00587
1359.98	0.00941
1369.63	0.01958
1379.27	0.04286
1388.92	0.0823
1398.56	0.1039
1408.21	0.11124
1417.85	0.08968
1427.5	0.0448
1437.14	0.03508
1446.79	0.02908
1456.43	0.02791
1466.08	0.04005
1475.73	0.07174
1485.37	0.05439
1495.02	0.01411
1504.66	0.00636
1514.31	0.00633
1523.95	0.0085
1533.6	0.01418
1543.24	0.0197
1552.89	0.03649
1562.53	0.0812
1572.18	0.13218
1581.82	0.13264
1591.47	0.2421
1601.11	0.41369
1610.76	0.17075
1620.4	0.03511
1630.05	0.0223
1639.69	0.01746
1649.34	0.01087
1658.98	0.00986
1668.63	0.01502
1678.27	0.02514
1687.92	0.03831
1697.56	0.07341
1707.21	0.25342
1716.85	0.39626
1726.5	0.16185
1736.14	0.09025
1745.79	0.02168
1755.43	0.01183
1765.08	0.01109
1774.72	0.00969
1784.37	0.00834
1794.01	0.00623
1803.66	0.00392
1813.3	0.00335
1822.95	0.00362
1832.59	0.00374
1842.24	0.00361
1851.88	0.00371
1861.53	0.0037
1871.17	0.00352
1880.82	0.00311
1890.46	0.00273
1900.11	0.00311
1909.75	0.00371
1919.4	0.00343
1929.04	0.00269
1938.69	0.00258
1948.33	0.00265
1957.98	0.00259
1967.62	0.0023381
1977.27	0.00253
1986.91	0.00284
1996.56	0.00267
2006.2	0.0023124
2015.85	0.0020025
2025.49	0.001601
2035.14	0.0014208
2044.78	0.0017732
2054.43	0.0021218
2064.07	0.0019102
2073.72	0.0018818
2083.36	0.002232
2093.01	0.0024586
2102.65	0.0018547
2112.3	0.001238
2121.94	0.001249
2131.59	0.001283
2141.23	0.0011
2150.88	0.001013
2160.52	0.000931
2170.17	0.001015
2179.81	0.00098
2189.46	0.000965
2199.1	0.001021
2208.75	0.001219
2218.39	0.001262
2228.04	0.001189
2237.68	0.001332
2247.33	0.0015954
2256.97	0.00157
2266.62	0.0016092
2276.26	0.0018092
2285.91	0.0019462
2295.55	0.0018413
2305.2	0.0017574
2314.84	0.0018426
2324.49	0.001619
2334.13	0.0014219
2343.78	0.0015752
2353.42	0.0019981
2363.07	0.0024061
2372.72	0.0024234
2382.36	0.0023389
2392.01	0.00302
2401.65	0.00307
2411.3	0.0022484
2420.94	0.0019129
2430.59	0.0017989
2440.23	0.0017919
2449.88	0.0017115
2459.52	0.0018655
2469.17	0.002009
2478.81	0.0018428
2488.46	0.00145802
2498.1	0.00125
2507.75	0.001173
2517.39	0.001314
2527.04	0.0014072
2536.68	0.0016876
2546.33	0.0018034
2555.97	0.0019078
2565.62	0.0021255
2575.26	0.00247
2584.91	0.0025
2594.55	0.0017238
2604.2	0.0014406
2613.84	0.00148629
2623.49	0.0017598
2633.13	0.001871
2642.78	0.0019881
2652.42	0.0023676
2662.07	0.00305
2671.71	0.00334
2681.36	0.00376
2691	0.00447
2700.65	0.00604
2710.29	0.00958
2719.94	0.01425
2729.58	0.01247
2739.23	0.00858
2748.87	0.01299
2758.52	0.02983
2768.16	0.02522
2777.81	0.0101
2787.45	0.0066
2797.1	0.0059
2806.74	0.00617
2816.39	0.00753
2826.03	0.00914
2835.68	0.01255
2845.32	0.02279
2854.97	0.05238
2864.61	0.08082
2874.26	0.04966
2883.9	0.01779
2893.55	0.0074
2903.19	0.00423
2912.84	0.00286
2922.48	0.00262
2932.13	0.0022183
2941.77	0.00153075
2951.42	0.001255
2961.06	0.001265
2970.71	0.00152083
2980.35	0.0020682
2990	0.00255
2999.64	0.00259
3009.29	0.0022236
3018.93	0.0015654
3028.58	0.0016122
3038.22	0.001475
3047.87	0.00145779
3057.51	0.001304
3067.16	0.0015972
3076.8	0.0020229
3086.45	0.00328
3096.09	0.00401
3105.74	0.0032
3115.38	0.0020508
3125.03	0.001111
3134.67	0.0009
3144.32	0.000786
3153.96	0.000752
3163.61	0.000482
3173.25	0.00043
3182.9	0.000488
3192.54	0.0006
3202.19	0.000598
3211.83	0.00028
3221.48	0.00023
3231.12	3e-05
3240.77	0.00018
3250.41	0.00022
3260.06	0.00016
3269.7	0.00024
3279.35	0.00026
3289	0.00034
3298.64	0.00018
3308.29	0.00031
3317.93	0.000461
3327.58	0.0004
3337.22	0.00043
3346.87	0.0004
3356.51	0.00042
3366.16	0.000711
3375.8	0.001125
3385.45	0.002122
3395.09	0.00412
3404.74	0.00576
3414.38	0.006
3424.03	0.003
3433.67	0.00147538
3443.32	0.00155672
3452.96	0.001034
3462.61	0.000578
3472.25	0.000481
3481.9	0.00025
3491.54	0.0004
3501.19	0.0004
3510.83	0.00028
3520.48	0.00034
3530.12	0.000468
3539.77	0.00044
3549.41	0.000484
3559.06	0.00038
3568.7	0.000564
3578.35	0.00046
3587.99	0.00036
3597.64	0.00042
3607.28	0.00044
3616.93	0.000614
3626.57	0.000616
3636.22	0.000548
3645.86	0.00045
3655.51	0.000526
3665.15	0.000607
3674.8	0.00038
3684.44	0.00038
3694.09	0.000642
3703.73	0.000539
3713.38	0.00045
3723.02	0.000608
3732.67	0.000709
3742.31	0.000632
3751.96	0.000674
3761.6	0.000611
3771.25	0.000603
3780.89	0.000548
3790.54	0.000583
3800.18	0.00045
3809.83	0.0004
3819.47	0.000533
3829.12	0.00039
3838.76	0.000578
3848.41	0.000562
3858.05	0.000587
3867.7	0.000672
3877.34	0.000607
3886.99	0.000537
3896.63	0.000512
3906.28	0.00049
3915.92	0.000698
3925.57	0.000876
3935.21	0.000776
3944.86	0.000805
3954.5	0.000969
3964.15	0.001052
3973.79	0.001197
3983.44	0.001016
3993.08	0.00076
