Infrared Spectrum: Cyclopropyl diphenyl carbinol
Formula: C 16 H 16 O
CAS: 5785-66-0
State: gas
Origin: EPA-IR VAPOR PHASE LIBRARY
1/CM	ABSORBANCE
549.9	0.00832
559.547	0.00829
569.193	0.00611
578.84	0.00482
588.486	0.00369
598.133	0.00402
607.779	0.0081
617.426	0.00889
627.072	0.01231
636.719	0.02882
646.365	0.00981
656.012	0.00739
665.658	0.01079
675.305	0.0172
684.951	0.03041
694.598	0.08214
704.245	0.09013
713.891	0.03117
723.538	0.01385
733.184	0.01504
742.831	0.0348
752.477	0.05564
762.124	0.04386
771.77	0.02049
781.417	0.01107
791.063	0.0088
800.71	0.00569
810.356	0.00549
820.003	0.00789
829.649	0.00731
839.296	0.0059
848.943	0.0073
858.589	0.01229
868.236	0.02137
877.882	0.02383
887.529	0.01445
897.175	0.00995
906.822	0.01317
916.468	0.01568
926.115	0.01075
935.761	0.00781
945.408	0.0078
955.054	0.01124
964.701	0.01646
974.347	0.02816
983.994	0.03533
993.64	0.0342
1003.29	0.03627
1012.93	0.03253
1022.58	0.04228
1032.23	0.04816
1041.87	0.02309
1051.52	0.01186
1061.17	0.00912
1070.81	0.00887
1080.46	0.00809
1090.11	0.00646
1099.75	0.00773
1109.4	0.00995
1119.05	0.00938
1128.69	0.01071
1138.34	0.01568
1147.99	0.02015
1157.63	0.02234
1167.28	0.0264
1176.92	0.02997
1186.57	0.0263
1196.22	0.01779
1205.86	0.01597
1215.51	0.01535
1225.16	0.0135
1234.8	0.0122
1244.45	0.01149
1254.1	0.01181
1263.74	0.01339
1273.39	0.01604
1283.04	0.01946
1292.68	0.02261
1302.33	0.02413
1311.98	0.02472
1321.62	0.02365
1331.27	0.02099
1340.92	0.01572
1350.56	0.01223
1360.21	0.01329
1369.86	0.01447
1379.5	0.01158
1389.15	0.0083
1398.79	0.00661
1408.44	0.00609
1418.09	0.00713
1427.73	0.00952
1437.38	0.01709
1447.03	0.02859
1456.67	0.01729
1466.32	0.01004
1475.97	0.01169
1485.61	0.02283
1495.26	0.02549
1504.91	0.01092
1514.55	0.00465
1524.2	0.00323
1533.85	0.00338
1543.49	0.0033
1553.14	0.00248
1562.79	0.00246
1572.43	0.00332
1582.08	0.00581
1591.73	0.01062
1601.37	0.01193
1611.02	0.00559
1620.67	0.00296
1630.31	0.0021317
1639.96	0.0018042
1649.6	0.0019165
1659.25	0.00233
1668.9	0.00251
1678.54	0.0021852
1688.19	0.001705
1697.84	0.0015768
1707.48	0.0014819
1717.13	0.0017627
1726.78	0.0018732
1736.42	0.0021158
1746.07	0.00265
1755.72	0.00269
1765.36	0.00235
1775.01	0.00259
1784.66	0.00297
1794.3	0.00528
1803.95	0.00656
1813.6	0.00453
1823.24	0.00325
1832.89	0.00229
1842.54	0.0020938
1852.18	0.0021681
1861.83	0.00259
1871.47	0.00385
1881.12	0.00491
1890.77	0.00494
1900.41	0.00359
1910.06	0.00263
1919.71	0.00257
1929.35	0.00326
1939	0.00527
1948.65	0.00623
1958.29	0.00495
1967.94	0.00263
1977.59	0.0015778
1987.23	0.0014453
1996.88	0.0011637
2006.53	0.001119
2016.17	0.001032
2025.82	0.00106
2035.47	0.001051
2045.11	0.0011604
2054.76	0.00130424
2064.41	0.0016117
2074.05	0.0018662
2083.7	0.0015462
2093.35	0.00128264
2102.99	0.0014142
2112.64	0.0013197
2122.28	0.001059
2131.93	0.000937
2141.58	0.000987
2151.22	0.001023
2160.87	0.001008
2170.52	0.001019
2180.16	0.000934
2189.81	0.000974
2199.46	0.000932
2209.1	0.000962
2218.75	0.00099
2228.4	0.001025
2238.04	0.001114
2247.69	0.001028
2257.34	0.000986
2266.98	0.000964
2276.63	0.000919
2286.28	0.0009
2295.92	0.001006
2305.57	0.001193
2315.22	0.0016166
2324.86	0.00129804
2334.51	0.00131517
2344.16	0.0014721
2353.8	0.0011963
2363.45	0.001098
2373.09	0.001078
2382.74	0.000989
2392.39	0.000918
2402.03	0.000952
2411.68	0.000932
2421.33	0.000905
2430.97	0.000971
2440.62	0.001004
2450.27	0.001036
2459.91	0.001073
2469.56	0.0011928
2479.21	0.00132465
2488.85	0.0012167
2498.5	0.001065
2508.15	0.000996
2517.79	0.000931
2527.44	0.000877
2537.09	0.000887
2546.73	0.000854
2556.38	0.000896
2566.03	0.000987
2575.67	0.001037
2585.32	0.001094
2594.96	0.0011841
2604.61	0.001125
2614.26	0.000945
2623.9	0.001005
2633.55	0.001039
2643.2	0.000981
2652.84	0.000929
2662.49	0.000783
2672.14	0.000804
2681.78	0.000758
2691.43	0.000794
2701.08	0.000747
2710.72	0.000743
2720.37	0.000787
2730.02	0.000815
2739.66	0.000831
2749.31	0.000893
2758.96	0.000879
2768.6	0.001116
2778.25	0.0011831
2787.9	0.0009
2797.54	0.000891
2807.19	0.000977
2816.84	0.000944
2826.48	0.001137
2836.13	0.0011375
2845.77	0.0014122
2855.42	0.0016137
2865.07	0.0018903
2874.71	0.0021455
2884.36	0.0021962
2894.01	0.0020652
2903.65	0.00201
2913.3	0.0019931
2922.95	0.00229
2932.59	0.00249
2942.24	0.00249
2951.89	0.00209
2961.53	0.00224
2971.18	0.00288
2980.83	0.00419
2990.47	0.0073
3000.12	0.01566
3009.77	0.03452
3019.41	0.05039
3029.06	0.04783
3038.71	0.04093
3048.35	0.03008
3058	0.04286
3067.64	0.06955
3077.29	0.0566
3086.94	0.04853
3096.58	0.03882
3106.23	0.01602
3115.88	0.00718
3125.52	0.00359
3135.17	0.00246
3144.82	0.002029
3154.46	0.0017612
3164.11	0.0017798
3173.76	0.001094
3183.4	0.000474
3193.05	0.000454
3202.7	0.000253
3212.34	0.000426
3221.99	0.00012
3231.64	0.00029
3241.28	0.000243
3250.93	0.00022
3260.58	5e-05
3270.22	0.0001
3279.87	0.00025
3289.52	0.000232
3299.16	0.000248
3308.81	0.000345
3318.45	0
3328.1	0.00014
3337.75	0.000253
3347.39	0.00015
3357.04	0.000292
3366.69	0.0002
3376.33	0.000273
3385.98	0.00023
3395.63	0.000241
3405.27	0.000483
3414.92	0.000266
3424.57	0.000288
3434.21	0.000355
3443.86	0.000348
3453.51	0.000457
3463.15	0.000525
3472.8	0.000437
3482.45	0.000456
3492.09	0.000356
3501.74	0.000264
3511.39	0.000347
3521.03	0.000348
3530.68	0.000329
3540.33	0.000389
3549.97	0.000407
3559.62	0.000378
3569.26	0.000472
3578.91	0.000472
3588.56	0.000725
3598.2	0.000915
3607.85	0.0014809
3617.5	0.00302
3627.14	0.00859
3636.79	0.01752
3646.44	0.01246
3656.08	0.00415
3665.73	0.0020873
3675.38	0.0016326
3685.02	0.00125471
3694.67	0.001073
3704.32	0.0011327
3713.96	0.001026
3723.61	0.000866
3733.26	0.000802
3742.9	0.00077
3752.55	0.000943
3762.2	0.00078
3771.84	0.000839
3781.49	0.000781
3791.13	0.000805
3800.78	0.000944
3810.43	0.00089
3820.07	0.000905
3829.72	0.000825
3839.37	0.000897
3849.01	0.000779
3858.66	0.000928
3868.31	0.001093
3877.95	0.001208
3887.6	0.001061
3897.25	0.001079
3906.89	0.000918
3916.54	0.001038
3926.19	0.001068
3935.83	0.001099
3945.48	0.001122
3955.13	0.001025
3964.77	0.00094
3974.42	0.000957
3984.07	0.001004
3993.71	0.001035
