Infrared Spectrum: 3-Methoxybenzhydrazide
Formula: C 8 H 10 N 2 O 2
CAS: 5785-06-8
State: gas
Origin: EPA-IR VAPOR PHASE LIBRARY
1/CM	ABSORBANCE
549.8	0.004892
559.445	0.005412
569.09	0.004912
578.735	0.004572
588.38	0.003662
598.025	0.003512
607.67	0.003342
617.315	0.002922
626.96	0.003072
636.605	0.002952
646.251	0.002932
655.896	0.003212
665.541	0.003832
675.186	0.006492
684.831	0.009512
694.476	0.007642
704.121	0.005052
713.766	0.004062
723.411	0.004222
733.056	0.006592
742.701	0.010442
752.346	0.011432
761.991	0.008362
771.636	0.006652
781.281	0.007762
790.926	0.009692
800.571	0.013032
810.216	0.014202
819.861	0.009222
829.507	0.006312
839.152	0.005952
848.797	0.006752
858.442	0.007972
868.087	0.009602
877.732	0.011732
887.377	0.012272
897.022	0.012252
906.667	0.010302
916.312	0.007632
925.957	0.007102
935.602	0.009892
945.247	0.015892
954.892	0.018782
964.537	0.013352
974.182	0.007032
983.827	0.005092
993.472	0.004872
1003.12	0.004552
1012.76	0.004792
1022.41	0.007162
1032.05	0.012812
1041.7	0.019242
1051.34	0.019372
1060.99	0.011862
1070.63	0.006192
1080.28	0.004882
1089.92	0.004422
1099.57	0.003872
1109.21	0.002962
1118.86	0.002842
1128.5	0.003452
1138.15	0.006002
1147.79	0.011022
1157.44	0.012242
1167.08	0.007832
1176.73	0.005282
1186.37	0.004542
1196.02	0.004722
1205.66	0.006272
1215.31	0.010022
1224.95	0.017872
1234.6	0.028022
1244.24	0.030572
1253.89	0.026062
1263.53	0.027492
1273.18	0.041132
1282.82	0.056502
1292.47	0.059792
1302.11	0.041022
1311.76	0.025342
1321.4	0.018402
1331.05	0.012212
1340.69	0.007692
1350.34	0.005602
1359.98	0.004552
1369.63	0.004052
1379.27	0.004002
1388.92	0.004582
1398.56	0.006222
1408.21	0.009862
1417.85	0.016862
1427.5	0.029152
1437.14	0.044252
1446.79	0.045802
1456.43	0.042732
1466.08	0.046782
1475.73	0.044412
1485.37	0.034792
1495.02	0.024122
1504.66	0.015652
1514.31	0.009712
1523.95	0.006882
1533.6	0.005712
1543.24	0.005622
1552.89	0.006712
1562.53	0.010232
1572.18	0.019102
1581.82	0.030562
1591.47	0.033032
1601.11	0.028642
1610.76	0.021802
1620.4	0.016572
1630.05	0.016612
1639.69	0.015442
1649.34	0.011162
1658.98	0.009182
1668.63	0.010852
1678.27	0.015252
1687.92	0.027752
1697.56	0.051552
1707.21	0.049252
1716.85	0.022162
1726.5	0.014032
1736.14	0.008782
1745.79	0.004982
1755.43	0.003382
1765.08	0.002682
1774.72	0.002002
1784.37	0.001682
1794.01	0.001452
1803.66	0.001412
1813.3	0.001282
1822.95	0.00115
1832.59	0.0011014
1842.24	0.0011226
1851.88	0.0011504
1861.53	0.0009718
1871.17	0.000803
1880.82	0.000692
1890.46	0.0006546
1900.11	0.0006943
1909.75	0.0007363
1919.4	0.0009096
1929.04	0.0009283
1938.69	0.0007967
1948.33	0.000633
1957.98	0.0005302
1967.62	0.0004684
1977.27	0.0004455
1986.91	0.0003961
1996.56	0.0004284
2006.2	0.0004019
2015.85	0.0003863
2025.49	0.0004635
2035.14	0.0007342
2044.78	0.0008598
2054.43	0.0007763
2064.07	0.0007313
2073.72	0.0006993
2083.36	0.0007047
2093.01	0.000657
2102.65	0.0005221
2112.3	0.000421
2121.94	0.0003365
2131.59	0.000242
2141.23	0.00022809
2150.88	0.000214654
2160.52	0.0001425
2170.17	0.0001568
2179.81	0.0001468
2189.46	0.00024631
2199.1	0.000177
2208.75	8.5e-05
2218.39	0.0001317
2228.04	8.4e-05
2237.68	5.5e-05
2247.33	0.000107
2256.97	0.0001368
2266.62	0.0001687
2276.26	0.0002001
2285.91	0.0001891
2295.55	0.0001532
2305.2	0.0001856
2314.84	0.00024617
2324.49	0.000112
2334.13	0.0001335
2343.78	0.000139
2353.42	9.6e-05
2363.07	3.7e-05
2372.72	8.1e-05
2382.36	0.000214608
2392.01	0.0001401
2401.65	0.0001471
2411.3	0.0001637
2420.94	0.000111
2430.59	0.0001342
2440.23	0.0001243
2449.88	8.7e-05
2459.52	0.0001
2469.17	0.000211466
2478.81	0.0002012
2488.46	0.000352
2498.1	0.00024924
2507.75	0.0003486
2517.39	0.0004172
2527.04	0.0004171
2536.68	0.0004409
2546.33	0.000431
2555.97	0.0003886
2565.62	0.0003941
2575.26	0.0003906
2584.91	0.0004864
2594.55	0.0003517
2604.2	0.00032
2613.84	0.0002609
2623.49	0.0001765
2633.13	0.0001785
2642.78	0.000221843
2652.42	0.0001858
2662.07	0.0001129
2671.71	0.0001597
2681.36	0.0001601
2691	0.00026105
2700.65	0.00028558
2710.29	0.0004537
2719.94	0.0004509
2729.58	0.0004368
2739.23	0.00029456
2748.87	0.000325
2758.52	0.0003188
2768.16	0.0003777
2777.81	0.0004597
2787.45	0.0006754
2797.1	0.0009036
2806.74	0.0010415
2816.39	0.001462
2826.03	0.002152
2835.68	0.004092
2845.32	0.006192
2854.97	0.004862
2864.61	0.003122
2874.26	0.002642
2883.9	0.002872
2893.55	0.003332
2903.19	0.003722
2912.84	0.004762
2922.48	0.005502
2932.13	0.006092
2941.77	0.008972
2951.42	0.010692
2961.06	0.009082
2970.71	0.006402
2980.35	0.004452
2990	0.004022
2999.64	0.006152
3009.29	0.008722
3018.93	0.006462
3028.58	0.003712
3038.22	0.003272
3047.87	0.003572
3057.51	0.004072
3067.16	0.005112
3076.8	0.006242
3086.45	0.004842
3096.09	0.002652
3105.74	0.001882
3115.38	0.001232
3125.03	0.0008367
3134.67	0.0006753
3144.32	0.0005489
3153.96	0.0006631
3163.61	0.0005738
3173.25	0.0006046
3182.9	0.0007125
3192.54	0.0008653
3202.19	0.000789
3211.83	0.0009622
3221.48	0.0006996
3231.12	0.0005631
3240.77	0.0005155
3250.41	0.0004225
3260.06	0.0004983
3269.7	0.0004011
3279.35	0.000585
3289	0.0007612
3298.64	0.0006306
3308.29	0.0006075
3317.93	0.00065
3327.58	0.0006796
3337.22	0.0009208
3346.87	0.0010468
3356.51	0.0008331
3366.16	0.0008513
3375.8	0.0011733
3385.45	0.0011787
3395.09	0.0009686
3404.74	0.0008406
3414.38	0.0009067
3424.03	0.001352
3433.67	0.002032
3443.32	0.002982
3452.96	0.004382
3462.61	0.006582
3472.25	0.008512
3481.9	0.006862
3491.54	0.004062
3501.19	0.002182
3510.83	0.001462
3520.48	0.0009868
3530.12	0.000849
3539.77	0.0007022
3549.41	0.000778
3559.06	0.0007679
3568.7	0.0007034
3578.35	0.0006901
3587.99	0.0006814
3597.64	0.0007346
3607.28	0.0005193
3616.93	0.0005425
3626.57	0.0003901
3636.22	0.0005311
3645.86	0.0004667
3655.51	0.0005327
3665.15	0.0004886
3674.8	0.0005905
3684.44	0.0003681
3694.09	0.0006699
3703.73	0.0006298
3713.38	0.0006175
3723.02	0.0006864
3732.67	0.000452
3742.31	0.0004596
3751.96	0.0004573
3761.6	0.0005246
3771.25	0.0005429
3780.89	0.0005813
3790.54	0.0005346
3800.18	0.0004902
3809.83	0.0003558
3819.47	0.0004345
3829.12	0.0005805
3838.76	0.0005385
3848.41	0.0006719
3858.05	0.0005263
3867.7	0.0005036
3877.34	0.0004757
3886.99	0.0004919
3896.63	0.0006771
3906.28	0.0005053
3915.92	0.0004981
3925.57	0.000568
3935.21	0.0004771
3944.86	0.000366
3954.5	0.0004996
3964.15	0.0005241
3973.79	0.0004139
3983.44	0.0005284
3993.08	0.0006433
