Infrared Spectrum: 2-Chloro-4-methylphenyl isothiocyanate
Formula: C 8 H 6 Cl N S
CAS: 57878-93-0
State: gas
Origin: EPA-IR VAPOR PHASE LIBRARY
1/CM	ABSORBANCE
549.8	0.014976
559.445	0.012126
569.09	0.007216
578.734	0.004776
588.379	0.005766
598.024	0.005266
607.669	0.002996
617.313	0.002196
626.958	0.002266
636.603	0.002166
646.248	0.002196
655.893	0.002576
665.537	0.003066
675.182	0.003816
684.827	0.008416
694.472	0.007146
704.116	0.002316
713.761	0.0010353
723.406	0.001286
733.051	0.002406
742.695	0.002186
752.34	0.0010132
761.985	0.001326
771.63	0.002366
781.275	0.002806
790.919	0.004806
800.564	0.016946
810.209	0.035726
819.854	0.022506
829.498	0.008716
839.143	0.011146
848.788	0.020346
858.433	0.022096
868.078	0.017436
877.722	0.010236
887.367	0.005686
897.012	0.003936
906.657	0.003636
916.301	0.004576
925.946	0.007356
935.591	0.018296
945.236	0.037976
954.88	0.030016
964.525	0.011416
974.17	0.006316
983.815	0.005496
993.46	0.005136
1003.1	0.003716
1012.75	0.002856
1022.39	0.002076
1032.04	0.001936
1041.68	0.003476
1051.33	0.007166
1060.97	0.018936
1070.62	0.022556
1080.26	0.008046
1089.91	0.002206
1099.55	0.001916
1109.2	0.001546
1118.84	0.001796
1128.49	0.0010283
1138.13	0.002416
1147.78	0.002306
1157.42	0.001436
1167.07	0.001008
1176.71	0.0010469
1186.36	0.001736
1196	0.003466
1205.64	0.007546
1215.29	0.006776
1224.93	0.003206
1234.58	0.001826
1244.22	0.003396
1253.87	0.004586
1263.51	0.004706
1273.16	0.007156
1282.8	0.008236
1292.45	0.004136
1302.09	0.002506
1311.74	0.001886
1321.38	0.001786
1331.03	0.001546
1340.67	0.001446
1350.32	0.001616
1359.96	0.002046
1369.61	0.002776
1379.25	0.004216
1388.9	0.006956
1398.54	0.009516
1408.18	0.008636
1417.83	0.007856
1427.47	0.007576
1437.12	0.005386
1446.76	0.004806
1456.41	0.005746
1466.05	0.008856
1475.7	0.023346
1485.34	0.067126
1494.99	0.072666
1504.63	0.033446
1514.28	0.012576
1523.92	0.008476
1533.57	0.007356
1543.21	0.006546
1552.86	0.007026
1562.5	0.007106
1572.15	0.005246
1581.79	0.004356
1591.44	0.005526
1601.08	0.006626
1610.73	0.005096
1620.37	0.003026
1630.01	0.002486
1639.66	0.001876
1649.3	0.001446
1658.95	0.001396
1668.59	0.001546
1678.24	0.001796
1687.88	0.001856
1697.53	0.001656
1707.17	0.001576
1716.82	0.001716
1726.46	0.002386
1736.11	0.003316
1745.75	0.003406
1755.4	0.002986
1765.04	0.002636
1774.69	0.002676
1784.33	0.003026
1793.98	0.003636
1803.62	0.004126
1813.27	0.004016
1822.91	0.003496
1832.55	0.003086
1842.2	0.003066
1851.84	0.003386
1861.49	0.003986
1871.13	0.005516
1880.78	0.008376
1890.42	0.011166
1900.07	0.011736
1909.71	0.012486
1919.36	0.014756
1929	0.017476
1938.65	0.021516
1948.29	0.028946
1957.94	0.040226
1967.58	0.054316
1977.23	0.072246
1986.87	0.097556
1996.52	0.135066
2006.16	0.179986
2015.81	0.220156
2025.45	0.265966
2035.1	0.348466
2044.74	0.469336
2054.38	0.512366
2064.03	0.372116
2073.67	0.236256
2083.32	0.184096
2092.96	0.187306
2102.61	0.212546
2112.25	0.216406
2121.9	0.180186
2131.54	0.131336
2141.19	0.096966
2150.83	0.070516
2160.48	0.046996
2170.12	0.033976
2179.77	0.029156
2189.41	0.026616
2199.06	0.024456
2208.7	0.020366
2218.35	0.017376
2227.99	0.016116
2237.64	0.012196
2247.28	0.008126
2256.92	0.005556
2266.57	0.004136
2276.21	0.003406
2285.86	0.002986
2295.5	0.002446
2305.15	0.002456
2314.79	0.002786
2324.44	0.002806
2334.08	0.002906
2343.73	0.003596
2353.37	0.003156
2363.02	0.002086
2372.66	0.001916
2382.31	0.002296
2391.95	0.002996
2401.6	0.003746
2411.24	0.003926
2420.89	0.003506
2430.53	0.002966
2440.18	0.002616
2449.82	0.002756
2459.47	0.003236
2469.11	0.003616
2478.75	0.003516
2488.4	0.003486
2498.04	0.003716
2507.69	0.004246
2517.33	0.004666
2526.98	0.004866
2536.62	0.004956
2546.27	0.004646
2555.91	0.004646
2565.56	0.004046
2575.2	0.003126
2584.85	0.002416
2594.49	0.001896
2604.14	0.001636
2613.78	0.001566
2623.43	0.001726
2633.07	0.001896
2642.72	0.002126
2652.36	0.002516
2662.01	0.002806
2671.65	0.003696
2681.29	0.005396
2690.94	0.007926
2700.58	0.009506
2710.23	0.008206
2719.87	0.004986
2729.52	0.003026
2739.16	0.002436
2748.81	0.002636
2758.45	0.002096
2768.1	0.001806
2777.74	0.001426
2787.39	0.0012462
2797.03	0.0011191
2806.68	0.0009939
2816.32	0.001376
2825.97	0.001466
2835.61	0.001836
2845.26	0.002346
2854.9	0.003516
2864.55	0.005476
2874.19	0.007356
2883.84	0.007216
2893.48	0.007036
2903.12	0.006906
2912.77	0.007596
2922.41	0.010746
2932.06	0.017166
2941.7	0.016036
2951.35	0.008866
2960.99	0.006596
2970.64	0.005676
2980.28	0.005356
2989.93	0.006126
2999.57	0.006756
3009.22	0.007076
3018.86	0.007366
3028.51	0.008226
3038.15	0.010726
3047.8	0.009926
3057.44	0.007566
3067.09	0.007446
3076.73	0.006126
3086.38	0.003936
3096.02	0.002696
3105.67	0.002356
3115.31	0.0012461
3124.95	0.0008009
3134.6	0.0008387
3144.24	0.0005633
3153.89	0.00036464
3163.53	0.00026235
3173.18	0.00028675
3182.82	0.0004284
3192.47	0.0002394
3202.11	0.0004308
3211.76	0.00036216
3221.4	1.6e-05
3231.05	2e-05
3240.69	0.0001972
3250.34	0.000159
3259.98	0.0002167
3269.63	0
3279.27	0.0003676
3288.92	0.0002473
3298.56	0.00030583
3308.21	0.0001786
3317.85	0.0002247
3327.49	0.000158
3337.14	0.0001702
3346.78	0.00014
3356.43	0.0004004
3366.07	0.0005523
3375.72	0.000419
3385.36	0.0004063
3395.01	0.0003788
3404.65	0.00028465
3414.3	0.00032728
3423.94	0.0002018
3433.59	0.0004081
3443.23	0.0004292
3452.88	0.0003811
3462.52	0.0003656
3472.17	0.0002197
3481.81	0.0004347
3491.46	0.0004766
3501.1	0.00029133
3510.75	0.000269978
3520.39	0.00031936
3530.04	0.0004106
3539.68	0.000599
3549.32	0.0003343
3558.97	0.00030345
3568.61	0.0003705
3578.26	0.000423
3587.9	0.00032579
3597.55	0.0004184
3607.19	0.0005321
3616.84	0.0005221
3626.48	0.0004845
3636.13	0.0005313
3645.77	0.0004864
3655.42	0.0003173
3665.06	0.0005644
3674.71	0.000513
3684.35	0.00035751
3694	0.0004484
3703.64	0.00036569
3713.29	0.0004524
3722.93	0.0005929
3732.58	0.0006203
3742.22	0.0005567
3751.86	0.00036331
3761.51	0.000683
3771.15	0.0007228
3780.8	0.0004799
3790.44	0.000589
3800.09	0.00033649
3809.73	0.0005342
3819.38	0.0007208
3829.02	0.0006944
3838.67	0.0006767
3848.31	0.0006657
3857.96	0.0007932
3867.6	0.0008164
3877.25	0.0005308
3886.89	0.0007155
3896.54	0.000795
3906.18	0.0008168
3915.83	0.0011202
3925.47	0.0007664
3935.12	0.001276
3944.76	0.001336
3954.41	0.001406
3964.05	0.001366
3973.69	0.001366
3983.34	0.001546
3992.98	0.001626
