Infrared Spectrum: 4,5-Dibromopyridazin-3-one
Formula: C 4 H 2 Br 2 N 2 O
CAS: 5788-58-9
State: gas
Origin: EPA-IR VAPOR PHASE LIBRARY
1/CM	ABSORBANCE
549.8	0.0010908
559.445	0.0011858
569.09	0.000512
578.734	0.003081
588.379	0.003781
598.024	0.0014672
607.669	0.0011037
617.313	0.000408
626.958	0.0007946
636.603	0.0012576
646.248	0.0010354
655.893	0.002631
665.537	0.003801
675.182	0.005811
684.827	0.010391
694.472	0.017271
704.116	0.012051
713.761	0.006551
723.406	0.003091
733.051	0.002861
742.695	0.003861
752.34	0.002501
761.985	0.00088075
771.63	0.00090635
781.275	0.0009128
790.919	0.000318
800.564	0.00012
810.209	0.0010829
819.854	0.000573
829.498	0.00091444
839.143	0.0013773
848.788	0.0012491
858.433	0.002651
868.078	0.004641
877.722	0.006451
887.367	0.011501
897.012	0.008891
906.657	0.002781
916.301	0.001377
925.946	0.0009855
935.591	0.00094015
945.236	0.0010679
954.88	0.0010415
964.525	0.0009075
974.17	0.0009938
983.815	9.8e-05
993.46	0.0011456
1003.1	0.0009637
1012.75	0.0011343
1022.39	0.003521
1032.04	0.010581
1041.68	0.014571
1051.33	0.005781
1060.97	0.003051
1070.62	0.004171
1080.26	0.002721
1089.91	0.003201
1099.55	0.010001
1109.2	0.011681
1118.84	0.003501
1128.49	0.003371
1138.13	0.002791
1147.78	0.002241
1157.42	0.000389
1167.07	0.0013026
1176.71	0.000564
1186.36	0.000315
1196	0.0008245
1205.64	0.0012471
1215.29	0.000697
1224.93	0.0014743
1234.58	0.001282
1244.22	0.002301
1253.87	0.003201
1263.51	0.0014726
1273.16	0.0008363
1282.8	0.0008881
1292.45	0.0012106
1302.09	0.0009824
1311.74	0.0009996
1321.38	0.0013802
1331.03	0.0014635
1340.67	0.001484
1350.32	0.0017563
1359.96	0.002021
1369.61	0.002241
1379.25	0.0017201
1388.9	0.001143
1398.54	0.0014671
1408.18	0.0014845
1417.83	0.001125
1427.47	0.000999
1437.12	0.0011711
1446.76	0.0010577
1456.41	0.0010122
1466.05	0.0010459
1475.7	0.0015149
1485.34	0.0015246
1494.99	0.0016798
1504.63	0.002451
1514.28	0.002831
1523.92	0.0016591
1533.57	0.0012307
1543.21	0.0016274
1552.86	0.003251
1562.5	0.007681
1572.15	0.010531
1581.79	0.005231
1591.44	0.002321
1601.08	0.0016609
1610.73	0.0014054
1620.37	0.001159
1630.01	0.0014026
1639.66	0.0017788
1649.3	0.00158
1658.95	0.0015038
1668.59	0.002481
1678.24	0.003311
1687.88	0.004571
1697.53	0.012191
1707.17	0.051881
1716.82	0.093561
1726.46	0.041291
1736.11	0.006451
1745.75	0.003621
1755.4	0.003251
1765.04	0.003381
1774.69	0.003791
1784.33	0.003361
1793.98	0.002611
1803.62	0.001871
1813.27	0.0013218
1822.91	0.0011871
1832.55	0.0012483
1842.2	0.0012333
1851.84	0.0010307
1861.49	0.0009656
1871.13	0.00085464
1880.78	0.0007675
1890.42	0.0007834
1900.07	0.00091953
1909.71	0.0010294
1919.36	0.0011322
1929	0.0012396
1938.65	0.0012789
1948.29	0.0012821
1957.94	0.0012356
1967.58	0.0011515
1977.23	0.0010812
1986.87	0.0009806
1996.52	0.000945
2006.16	0.0008283
2015.81	0.000749
2025.45	0.00093406
2035.1	0.0008221
2044.74	0.0009016
2054.38	0.0007679
2064.03	0.00095781
2073.67	0.0008323
2083.32	0.0007896
2092.96	0.0008028
2102.61	0.000594
2112.25	0.0008207
2121.9	0.000753
2131.54	0.0008015
2141.19	0.0007872
2150.83	0.00093835
2160.48	0.00087766
2170.12	0.00085718
2179.77	0.000745
2189.41	0.00090163
2199.06	0.00090088
2208.7	0.00089943
2218.35	0.0008466
2227.99	0.000669
2237.64	0.0008376
2247.28	0.000634
2256.92	0.00075
2266.57	0.0007865
2276.21	0.0008353
2285.86	0.00090299
2295.5	0.0008471
2305.15	0.000868049
2314.79	0.0008197
2324.44	0.0008126
2334.08	0.0009926
2343.73	0.0007904
2353.37	0.0010293
2363.02	0.0009844
2372.66	0.0009736
2382.31	0.0007769
2391.95	0.000664
2401.6	0.00087302
2411.24	0.000765
2420.89	0.0010125
2430.53	0.00089227
2440.18	0.000728
2449.82	0.0011169
2459.47	0.000867166
2469.11	0.0010831
2478.75	0.0011727
2488.4	0.0010396
2498.04	0.0011491
2507.69	0.001046
2517.33	0.00095241
2526.98	0.00088546
2536.62	0.000792
2546.27	0.0007883
2555.91	0.0008047
2565.56	0.00088454
2575.2	0.0007714
2584.85	0.0010369
2594.49	0.00094789
2604.14	0.0008445
2613.78	0.0011184
2623.43	0.00091011
2633.07	0.00094691
2642.72	0.00095561
2652.36	0.0011414
2662.01	0.0009466
2671.65	0.0011291
2681.29	0.0010699
2690.94	0.0008155
2700.58	0.000862088
2710.23	0.0010432
2719.87	0.0009887
2729.52	0.0010078
2739.16	0.0011746
2748.81	0.000864411
2758.45	0.000982
2768.1	0.0010031
2777.74	0.0010495
2787.39	0.0008277
2797.03	0.00085913
2806.68	0.0010266
2816.32	0.0010108
2825.97	0.0010392
2835.61	0.00092347
2845.26	0.000723
2854.9	0.0009834
2864.55	0.0007975
2874.19	0.0010578
2883.84	0.000861331
2893.48	0.0010271
2903.12	0.0007715
2912.77	0.00091753
2922.41	0.000733
2932.06	0.0008157
2941.7	0.00090776
2951.35	0.0010319
2960.99	0.0008286
2970.64	0.00085756
2980.28	0.000778
2989.93	0.000863527
2999.57	0.000867254
3009.22	0.00092417
3018.86	0.0010863
3028.51	0.00090419
3038.15	0.000863997
3047.8	0.0008215
3057.44	0.00093911
3067.09	0.000736
3076.73	0.0011427
3086.38	0.0013175
3096.02	0.0011327
3105.67	0.0012298
3115.31	0.0011889
3124.95	0.00089533
3134.6	0.00096071
3144.24	0.000673
3153.89	0.00095149
3163.53	0.0008131
3173.18	0.000697
3182.82	0.000678
3192.47	0.000786
3202.11	0.000752
3211.76	0.0010117
3221.4	0.00087807
3231.05	0.0007856
3240.69	0.000734
3250.34	0.0009152
3259.98	0.000741
3269.63	0.00091474
3279.27	0.000759
3288.92	0.0012145
3298.56	0.00062
3308.21	0.0011907
3317.85	0.0009846
3327.49	0.000752
3337.14	0.0007976
3346.78	0.000703
3356.43	0.000681
3366.07	0.0008057
3375.72	0.0013155
3385.36	0.0011216
3395.01	0.0013028
3404.65	0.0018092
3414.3	0.004411
3423.94	0.012401
3433.59	0.020581
3443.23	0.009741
3452.88	0.0012019
3462.52	0.00088139
3472.17	0.0009912
3481.81	0.0007943
3491.46	0.0012908
3501.1	0.00088867
3510.75	0.00087924
3520.39	0.0008255
3530.04	0.0007622
3539.68	0.0011083
3549.32	0.0010353
3558.97	0.000729
3568.61	0.0011238
3578.26	0.0009401
3587.9	0.001079
3597.55	0.00088905
3607.19	0.0011345
3616.84	0.0008144
3626.48	0.0010164
3636.13	0.0009778
3645.77	0.000752
3655.42	0.000669
3665.06	0.000493
3674.71	0.000752
3684.35	0.0008908
3694	0.00076
3703.64	0.000666
3713.29	0.001006
3722.93	0.000622
3732.58	0.0010512
3742.22	0.000617
3751.86	0.0007817
3761.51	0.0007829
3771.15	0.00085684
3780.8	0.00093881
3790.44	0.000708
3800.09	0.00095706
3809.73	0.0009698
3819.38	0.00072
3829.02	0.00091854
3838.67	0.000414
3848.31	0.000498
3857.96	0.000689
3867.6	0.0011517
3877.25	0.0010391
3886.89	0.0008001
3896.54	0.0008026
3906.18	0.00089797
3915.83	0.0010021
3925.47	0.00092979
3935.12	0.0009742
3944.76	0.000753
3954.41	0.000487
3964.05	0.0010089
3973.69	0.0011055
3983.34	0.000634
3992.98	0.0010663
