Infrared Spectrum: 2-CHLORO-6-CYCLOHEXYL PHENOL
Formula: C12 H15 Cl O
CAS: 57883-04-2
State: SOLUTION (10% CCl4 FOR 5000-1330, 10% CS2 FOR 1330-625 CM^-^1)
Class: COBLENTZ
Instrument: Not specified, most likely a prism, grating, or hybrid spectrometer.
Sampling: TRANSMISSION
Path length: 0.0120 CM, 0.0120 CM
Resolution: 4
Origin: DOW CHEMICAL COMPANY
MICROMETERS	TRANSMITTANCE
2.041	0.891
2.0821	0.891
2.12319	0.902
2.16429	0.903
2.20539	0.898
2.24649	0.883
2.28758	0.883
2.32868	0.883
2.36978	0.888
2.41087	0.893
2.45197	0.895
2.49307	0.883
2.53416	0.891
2.57526	0.893
2.61636	0.898
2.65746	0.891
2.69855	0.883
2.73965	0.795
2.78075	0.521
2.82184	0.753
2.86294	0.823
2.90404	0.842
2.94513	0.835
2.98623	0.826
3.02733	0.818
3.06843	0.816
3.10952	0.809
3.15062	0.804
3.19172	0.775
3.23281	0.735
3.27391	0.732
3.31501	0.646
3.35611	0.231
3.3972	0.236
3.4383	0.428
3.4794	0.471
3.52049	0.753
3.56159	0.789
3.60269	0.813
3.64378	0.819
3.68488	0.801
3.72598	0.797
3.76708	0.828
3.80817	0.833
3.84927	0.84
3.89037	0.85
3.93146	0.842
3.97256	0.837
4.01366	0.838
4.05475	0.84
4.09585	0.833
4.13695	0.84
4.17805	0.842
4.21914	0.833
4.26024	0.83
4.30134	0.831
4.34243	0.835
4.38353	0.849
4.42463	0.861
4.46573	0.869
4.50682	0.869
4.54792	0.873
4.58902	0.874
4.63011	0.874
4.67121	0.879
4.71231	0.879
4.7534	0.879
4.7945	0.879
4.8356	0.879
4.8767	0.883
4.91779	0.883
4.95889	0.883
4.99999	0.888
5.04108	0.89
5.08218	0.89
5.12328	0.891
5.16437	0.879
5.20547	0.867
5.24657	0.876
5.28767	0.879
5.32876	0.871
5.36986	0.866
5.41096	0.873
5.45205	0.879
5.49315	0.874
5.53425	0.871
5.57535	0.869
5.61644	0.859
5.65754	0.84
5.69864	0.83
5.73973	0.831
5.78083	0.826
5.82193	0.819
5.86302	0.838
5.90412	0.842
5.94522	0.835
5.98632	0.835
6.02741	0.833
6.06851	0.825
6.10961	0.797
6.1507	0.696
6.1918	0.53
6.2329	0.519
6.27399	0.507
6.31509	0.54
6.35619	0.518
6.39729	0.459
6.43838	0.459
6.47948	0.55
6.52058	0.578
6.56167	0.562
6.60277	0.415
6.64387	0.32
6.68497	0.497
6.72606	0.403
6.76716	0.509
6.80826	0.319
6.84935	0.073
6.89045	0.353
6.93155	0.689
6.97264	0.715
7.01374	0.778
7.05484	0.804
7.09594	0.825
7.13703	0.83
7.17813	0.828
7.21923	0.801
7.26032	0.771
7.30142	0.782
7.34252	0.723
7.38361	0.646
7.42471	0.413
7.46581	0.312
7.50691	0.552
7.548	0.656
7.5891	0.74
7.6302	0.754
7.67129	0.747
7.71239	0.675
7.75349	0.571
7.79458	0.578
7.83568	0.651
7.87678	0.658
7.91788	0.66
7.95897	0.516
8.00007	0.238
8.04117	0.192
8.08226	0.449
8.12336	0.578
8.16446	0.62
8.20556	0.538
8.24665	0.332
8.28775	0.149
8.32885	0.373
8.36994	0.481
8.41104	0.399
8.45214	0.37
8.49323	0.44
8.53433	0.54
8.57543	0.662
8.61653	0.713
8.65762	0.703
8.69872	0.562
8.73982	0.457
8.78091	0.588
8.82201	0.631
8.86311	0.571
8.9042	0.567
8.9453	0.742
8.9864	0.789
9.0275	0.801
9.06859	0.787
9.10969	0.766
9.15079	0.759
9.19188	0.768
9.23298	0.751
9.27408	0.742
9.31518	0.701
9.35627	0.614
9.39737	0.722
9.43847	0.811
9.47956	0.802
9.52066	0.801
9.56176	0.83
9.60285	0.833
9.64395	0.831
9.68505	0.825
9.72615	0.843
9.76724	0.847
9.80834	0.854
9.84944	0.84
9.89053	0.783
9.93163	0.77
9.97273	0.835
10.0138	0.873
10.0549	0.879
10.096	0.881
10.1371	0.883
10.1782	0.885
10.2193	0.881
10.2604	0.873
10.3015	0.869
10.3426	0.864
10.3837	0.855
10.4248	0.835
10.4659	0.821
10.507	0.85
10.5481	0.859
10.5892	0.859
10.6303	0.852
10.6714	0.843
10.7125	0.833
10.7536	0.819
10.7947	0.801
10.8358	0.775
10.8769	0.759
10.918	0.704
10.9591	0.545
11.0002	0.471
11.0413	0.566
11.0823	0.648
11.1234	0.67
11.1645	0.718
11.2056	0.694
11.2467	0.624
11.2878	0.598
11.3289	0.651
11.37	0.651
11.4111	0.548
11.4522	0.469
11.4933	0.545
11.5344	0.631
11.5755	0.665
11.6166	0.679
11.6577	0.679
11.6988	0.682
11.7399	0.691
11.781	0.694
11.8221	0.662
11.8632	0.521
11.9043	0.459
11.9454	0.583
11.9865	0.629
12.0276	0.55
12.0687	0.54
12.1098	0.602
12.1509	0.65
12.192	0.692
12.2331	0.751
12.2742	0.778
12.3153	0.787
12.3564	0.789
12.3975	0.783
12.4386	0.783
12.4796	0.775
12.5207	0.765
12.5618	0.751
12.6029	0.716
12.644	0.67
12.6851	0.61
12.7262	0.572
12.7673	0.572
12.8084	0.576
12.8495	0.547
12.8906	0.478
12.9317	0.331
12.9728	0.214
13.0139	0.202
13.055	0.339
13.0961	0.531
13.1372	0.622
13.1783	0.672
13.2194	0.694
13.2605	0.699
13.3016	0.682
13.3427	0.67
13.3838	0.66
13.4249	0.65
13.466	0.629
13.5071	0.555
13.5482	0.444
13.5893	0.207
13.6304	0.099
13.6715	0.255
13.7126	0.459
13.7537	0.6
13.7948	0.641
13.8358	0.674
13.8769	0.687
13.918	0.689
13.9591	0.687
14.0002	0.682
14.0413	0.682
14.0824	0.679
14.1235	0.672
14.1646	0.662
14.2057	0.646
14.2468	0.627
14.2879	0.602
14.329	0.571
14.3701	0.511
14.4112	0.442
14.4523	0.36
14.4934	0.317
14.5345	0.346
14.5756	0.42
14.6167	0.49
14.6578	0.533
14.6989	0.548
14.74	0.552
14.7811	0.552
14.8222	0.548
14.8633	0.538
14.9044	0.531
14.9455	0.531
14.9866	0.531
15.0277	0.528
15.0688	0.523
15.1099	0.514
15.151	0.504
15.1921	0.499
15.2331	0.49
15.2742	0.481
15.3153	0.478
15.3564	0.471
15.3975	0.463
15.4386	0.457
15.4797	0.452
15.5208	0.449
15.5619	0.44
15.603	0.437
15.6441	0.43
15.6852	0.427
15.7263	0.418
15.7674	0.411
15.8085	0.406
15.8496	0.399
15.8907	0.403
