Infrared Spectrum: .alpha.-p-Dimethylbenzyl alcohol
Formula: C 9 H 12 O
CAS: 5788-09-0
State: gas
Origin: EPA-IR VAPOR PHASE LIBRARY
1/CM	ABSORBANCE
501.5	0.00201
513.074	0.0027
524.648	0.00391
536.222	0.0048
547.796	0.00456
559.37	0.00364
570.944	0.00267
582.518	0.002
594.092	0.00129
605.666	0.0009184
617.24	0.0007359
628.814	0.0006143
640.388	0.0005559
651.962	0.0004715
663.536	0.000506
675.11	0.0006114
686.684	0.0007859
698.258	0.00129
709.832	0.00214
721.406	0.00268
732.98	0.00214
744.554	0.00149
756.128	0.0011
767.702	0.00118
779.276	0.00198
790.85	0.0036
802.423	0.00764
813.997	0.01232
825.571	0.00903
837.145	0.00401
848.719	0.00188
860.293	0.00169
871.867	0.00216
883.441	0.00405
895.015	0.00662
906.589	0.00571
918.163	0.00315
929.737	0.00212
941.311	0.00181
952.885	0.00176
964.459	0.00208
976.033	0.00311
987.607	0.00505
999.181	0.00719
1010.76	0.00845
1022.33	0.00733
1033.9	0.00543
1045.48	0.0067
1057.05	0.00983
1068.63	0.01351
1080.2	0.01713
1091.77	0.01582
1103.35	0.00958
1114.92	0.0052
1126.49	0.00346
1138.07	0.00273
1149.64	0.00274
1161.22	0.00374
1172.79	0.00489
1184.36	0.00533
1195.94	0.00476
1207.51	0.00422
1219.09	0.004
1230.66	0.00466
1242.23	0.00627
1253.81	0.00709
1265.38	0.0064
1276.96	0.00598
1288.53	0.00534
1300.1	0.00612
1311.68	0.00611
1323.25	0.00539
1334.83	0.0064
1346.4	0.00835
1357.97	0.00944
1369.55	0.00915
1381.12	0.00886
1392.7	0.00666
1404.27	0.00513
1415.84	0.00489
1427.42	0.00472
1438.99	0.00443
1450.57	0.00418
1462.14	0.00373
1473.71	0.00319
1485.29	0.0029
1496.86	0.00388
1508.44	0.0072
1520.01	0.00657
1531.58	0.00263
1543.16	0.00154
1554.73	0.00116
1566.31	0.0008925
1577.88	0.0008201
1589.45	0.0009183
1601.03	0.00124
1612.6	0.0015
1624.18	0.00141
1635.75	0.00125
1647.32	0.00113
1658.9	0.0007879
1670.47	0.0004672
1682.05	0.000339
1693.62	0.0002941
1705.19	0.0002699
1716.77	0.0002591
1728.34	0.0002419
1739.92	0.000337
1751.49	0.0004419
1763.06	0.0004496
1774.64	0.0005874
1786.21	0.0008535
1797.79	0.0006199
1809.36	0.0002394
1820.93	0.0001886
1832.51	0.0001908
1844.08	0.0002262
1855.66	0.0003303
1867.23	0.0005113
1878.8	0.0008255
1890.38	0.00113
1901.95	0.00106
1913.53	0.0006492
1925.1	0.00039
1936.67	0.0002879
1948.25	0.0002255
1959.82	0.0002155
1971.4	0.0002129
1982.97	0.0001777
1994.54	0.0001753
2006.12	0.0001383
2017.69	0.0001162
2029.27	9.917e-05
2040.84	8.376e-05
2052.41	6.223e-05
2063.99	7.725e-05
2075.56	9.698e-05
2087.14	0.000127
2098.71	0.0001004
2110.28	6.815e-05
2121.86	6.177e-05
2133.43	6.105e-05
2145.01	8.054e-05
2156.58	9.215e-05
2168.15	8.799e-05
2179.73	0.0001255
2191.3	0.0001137
2202.88	0.000148
2214.45	0.0001023
2226.02	0.0001343
2237.6	0.0001238
2249.17	0.0001436
2260.74	0.0001758
2272.32	0.0001778
2283.89	0.0001851
2295.47	0.0001961
2307.04	0.0002365
2318.61	0.0002847
2330.19	0.0001868
2341.76	0.0001898
2353.34	0.0001784
2364.91	0.0001657
2376.48	0.0001989
2388.06	0.0002011
2399.63	0.0002137
2411.21	0.0002126
2422.78	0.0002138
2434.35	0.000229
2445.93	0.0002566
2457.5	0.0002467
2469.08	0.000212
2480.65	0.0002158
2492.22	0.0001849
2503.8	0.0002042
2515.37	0.0001868
2526.95	0.0001986
2538.52	0.0002059
2550.09	0.0002581
2561.67	0.0002781
2573.24	0.0003404
2584.82	0.0004385
2596.39	0.0004762
2607.96	0.0004415
2619.54	0.0003957
2631.11	0.000337
2642.69	0.0003471
2654.26	0.0003375
2665.83	0.0003132
2677.41	0.0003174
2688.98	0.0003947
2700.56	0.0003929
2712.13	0.0004264
2723.7	0.0005112
2735.28	0.0007424
2746.85	0.0008832
2758.43	0.0006502
2770	0.0006371
2781.57	0.0007048
2793.15	0.0008707
2804.72	0.00106
2816.3	0.00129
2827.87	0.00172
2839.44	0.00235
2851.02	0.0037
2862.59	0.00648
2874.17	0.01046
2885.74	0.012
2897.31	0.01101
2908.89	0.00999
2920.46	0.01143
2932.04	0.01477
2943.61	0.01228
2955.18	0.00853
2966.76	0.01121
2978.33	0.0185
2989.91	0.01741
3001.48	0.01069
3013.05	0.01062
3024.63	0.01286
3036.2	0.01117
3047.78	0.00803
3059.35	0.00667
3070.92	0.00524
3082.5	0.00394
3094.07	0.00309
3105.65	0.0022
3117.22	0.00148
3128.79	0.00104
3140.37	0.0007537
3151.94	0.0004809
3163.52	0.0003951
3175.09	0.0003069
3186.66	0.000267
3198.24	0.0003087
3209.81	0.0003119
3221.39	0.0002772
3232.96	0.0002607
3244.53	0.00021
3256.11	0.0001685
3267.68	0.0001766
3279.26	0.0001403
3290.83	0.000158
3302.4	0.0001288
3313.98	0.0001366
3325.55	0.0001703
3337.13	0.0001714
3348.7	0.0002037
3360.27	0.0002303
3371.85	0.0002462
3383.42	0.0002641
3395	0.000226
3406.57	0.0001802
3418.14	0.0002367
3429.72	0.000232
3441.29	0.000206
3452.86	0.0002437
3464.44	0.0002191
3476.01	0.0002053
3487.59	0.0001869
3499.16	0.0001486
3510.73	0.0001447
3522.31	0.0002128
3533.88	0.0002704
3545.46	0.000179
3557.03	0.0001325
3568.6	0.0002048
3580.18	0.0002217
3591.75	0.00031
3603.33	0.0004302
3614.9	0.0007967
3626.47	0.00151
3638.05	0.0033
3649.62	0.00456
3661.2	0.00308
3672.77	0.00133
3684.34	0.000619
3695.92	0.0004439
3707.49	0.0002106
3719.07	0.0002159
3730.64	0.0002104
3742.21	0.0002578
3753.79	0.0001718
3765.36	0.0001763
3776.94	0.0002028
3788.51	0.0002365
3800.08	0.0002351
3811.66	0.0002288
3823.23	0.0002066
3834.81	0.0002247
3846.38	0.0003146
3857.95	0.0003013
3869.53	0.0003185
3881.1	0.0003546
3892.68	0.0003024
3904.25	0.0003083
3915.82	0.0002402
3927.4	0.0002728
3938.97	0.0002623
3950.55	0.0002509
3962.12	0.0002264
3973.69	0.0001833
3985.27	0.0002581
3996.84	0.0001621
