Infrared Spectrum: 4,4'-Difluorobenzil
Formula: C 14 H 8 F 2 O 2
CAS: 579-39-5
State: gas
Origin: EPA-IR VAPOR PHASE LIBRARY
1/CM	ABSORBANCE
549.8	0.005469
559.445	0.004399
569.09	0.005479
578.734	0.011399
588.379	0.039769
598.024	0.144309
607.669	0.023779
617.313	0.009439
626.958	0.008849
636.603	0.009889
646.248	0.005449
655.893	0.004859
665.537	0.006519
675.182	0.008089
684.827	0.014549
694.472	0.011269
704.116	0.005449
713.761	0.004439
723.406	0.007209
733.051	0.012699
742.695	0.023959
752.34	0.043409
761.985	0.041349
771.63	0.024059
781.275	0.014849
790.919	0.015889
800.564	0.028399
810.209	0.028269
819.854	0.025659
829.498	0.030329
839.143	0.066809
848.788	0.092789
858.433	0.038269
868.078	0.049739
877.722	0.098699
887.367	0.100059
897.012	0.029089
906.657	0.013659
916.301	0.007829
925.946	0.005359
935.591	0.004539
945.236	0.005409
954.88	0.005179
964.525	0.003919
974.17	0.003229
983.815	0.003579
993.46	0.004339
1003.1	0.006779
1012.75	0.019579
1022.39	0.006489
1032.04	0.002649
1041.68	0.002209
1051.33	0.003189
1060.97	0.002889
1070.62	0.004819
1080.26	0.007059
1089.91	0.007189
1099.55	0.011079
1109.2	0.009669
1118.84	0.006949
1128.49	0.007969
1138.13	0.013999
1147.78	0.075429
1157.42	0.282289
1167.07	0.038819
1176.71	0.027179
1186.36	0.061189
1196	0.194159
1205.64	0.155949
1215.29	0.088749
1224.93	0.100219
1234.58	0.125279
1244.22	0.271909
1253.87	0.116189
1263.51	0.045109
1273.16	0.027749
1282.8	0.026849
1292.45	0.030889
1302.09	0.036069
1311.74	0.022869
1321.38	0.016449
1331.03	0.010329
1340.67	0.007379
1350.32	0.008459
1359.96	0.007849
1369.61	0.005869
1379.25	0.006229
1388.9	0.007459
1398.54	0.012569
1408.18	0.034029
1417.83	0.021529
1427.47	0.008939
1437.12	0.006719
1446.76	0.007449
1456.41	0.007279
1466.05	0.007229
1475.7	0.008759
1485.34	0.013719
1494.99	0.037739
1504.63	0.134569
1514.28	0.071459
1523.92	0.024149
1533.57	0.017669
1543.21	0.015099
1552.86	0.013979
1562.5	0.014349
1572.15	0.024699
1581.79	0.067989
1591.44	0.230769
1601.08	0.320569
1610.73	0.079869
1620.37	0.029389
1630.01	0.020799
1639.66	0.017799
1649.3	0.020259
1658.95	0.027369
1668.59	0.047229
1678.24	0.121259
1687.88	0.233779
1697.53	0.143679
1707.17	0.071789
1716.82	0.035399
1726.46	0.017709
1736.11	0.010709
1745.75	0.007229
1755.4	0.006349
1765.04	0.006469
1774.69	0.007299
1784.33	0.005869
1793.98	0.004849
1803.62	0.004639
1813.27	0.003939
1822.91	0.003869
1832.55	0.003269
1842.2	0.003069
1851.84	0.002379
1861.49	0.002329
1871.13	0.002579
1880.78	0.002889
1890.42	0.004239
1900.07	0.005129
1909.71	0.005389
1919.36	0.004669
1929	0.004169
1938.65	0.003039
1948.29	0.002379
1957.94	0.002669
1967.58	0.002469
1977.23	0.002329
1986.87	0.002799
1996.52	0.002279
2006.16	0.002259
2015.81	0.002359
2025.45	0.003059
2035.1	0.003269
2044.74	0.003549
2054.38	0.003249
2064.03	0.002989
2073.67	0.002699
2083.32	0.002169
2092.96	0.002069
2102.61	0.001899
2112.25	0.0015914
2121.9	0.001679
2131.54	0.0016902
2141.19	0.0015213
2150.83	0.0014044
2160.48	0.0012984
2170.12	0.001388
2179.77	0.0012147
2189.41	0.0012237
2199.06	0.0012209
2208.7	0.0011056
2218.35	0.0009959
2227.99	0.0011412
2237.64	0.0011108
2247.28	0.0014689
2256.92	0.001789
2266.57	0.001819
2276.21	0.0016019
2285.86	0.0011826
2295.5	0.0014838
2305.15	0.0017401
2314.79	0.0016458
2324.44	0.0014572
2334.08	0.0011797
2343.73	0.0012578
2353.37	0.0012205
2363.02	0.0012471
2372.66	0.0014067
2382.31	0.0015285
2391.95	0.002089
2401.6	0.002809
2411.24	0.002339
2420.89	0.002309
2430.53	0.002609
2440.18	0.002479
2449.82	0.002389
2459.47	0.002749
2469.11	0.003359
2478.75	0.003979
2488.4	0.003749
2498.04	0.002739
2507.69	0.002379
2517.33	0.002259
2526.98	0.0016549
2536.62	0.0017377
2546.27	0.002069
2555.91	0.002089
2565.56	0.003189
2575.2	0.003709
2584.85	0.003569
2594.49	0.003299
2604.14	0.002979
2613.78	0.002219
2623.43	0.0017071
2633.07	0.0013246
2642.72	0.0012035
2652.36	0.0012834
2662.01	0.0011773
2671.65	0.0014682
2681.29	0.0013424
2690.94	0.00157
2700.58	0.0016592
2710.23	0.0016758
2719.87	0.0015565
2729.52	0.001819
2739.16	0.0017679
2748.81	0.002219
2758.45	0.0015501
2768.1	0.0012895
2777.74	0.0016517
2787.39	0.0017077
2797.03	0.0017507
2806.68	0.0016717
2816.32	0.0012029
2825.97	0.0009281
2835.61	0.0007402
2845.26	0.0010103
2854.9	0.0007275
2864.55	0.0011537
2874.19	0.0010628
2883.84	0.0015839
2893.48	0.0012103
2903.12	0.000674
2912.77	0.0010878
2922.41	0.0009042
2932.06	0.00080714
2941.7	0.000532
2951.35	0.0007417
2960.99	0.0009829
2970.64	0.0010567
2980.28	0.0013819
2989.93	0.0010948
2999.57	0.0015507
3009.22	0.0017042
3018.86	0.0013424
3028.51	0.001809
3038.15	0.002249
3047.8	0.002769
3057.44	0.003719
3067.09	0.004859
3076.73	0.008349
3086.38	0.011169
3096.02	0.004899
3105.67	0.003649
3115.31	0.002649
3124.95	0.00172
3134.6	0.0010157
3144.24	0.0010695
3153.89	0.0010665
3163.53	0.001054
3173.18	0.0016073
3182.82	0.001799
3192.47	0.0016304
3202.11	0.0015448
3211.76	0.0010708
3221.4	0.0009925
3231.05	0.0007145
3240.69	0.0014921
3250.34	0.0009983
3259.98	0.0016221
3269.63	0.0009696
3279.27	0.0011137
3288.92	0.0009494
3298.56	0.0012013
3308.21	0.0009735
3317.85	0.0014785
3327.49	0.0017494
3337.14	0.002139
3346.78	0.002819
3356.43	0.004229
3366.07	0.003849
3375.72	0.003089
3385.36	0.001839
3395.01	0.0015093
3404.65	0.0013798
3414.3	0.0009271
3423.94	0.0008905
3433.59	0.0010488
3443.23	0.0007084
3452.88	0.0011221
3462.52	0.0010282
3472.17	0.0011901
3481.81	0.000561
3491.46	0.0013859
3501.1	0.0010718
3510.75	0.000647
3520.39	0.0009769
3530.04	0.00081894
3539.68	0.000637
3549.32	0.000688
3558.97	0.0009963
3568.61	0.000293
3578.26	0.00086235
3587.9	0.000782977
3597.55	0.000662
3607.19	0.0007557
3616.84	0.0010853
3626.48	0.0013829
3636.13	0.0011717
3645.77	0.000607
3655.42	0.0009393
3665.06	0.0011696
3674.71	0.0013006
3684.35	0.0010725
3694	0.001077
3703.64	0.0009085
3713.29	0.0009321
3722.93	0.0007443
3732.58	0.001779
3742.22	0.0012723
3751.86	0.0006792
3761.51	0.00085755
3771.15	0.000578
3780.8	0.0013658
3790.44	0.00085209
3800.09	0.000787827
3809.73	0.00081423
3819.38	0.0010216
3829.02	0.000596
3838.67	0.000443
3848.31	0.0010111
3857.96	0.00084081
3867.6	0.00084128
3877.25	0.0011016
3886.89	0.0011376
3896.54	0.0010051
3906.18	0.0008763
3915.83	0.000629
3925.47	0.0013131
3935.12	0.0010967
3944.76	0
3954.41	0.0011898
3964.05	0.000577
3973.69	0.00086409
3983.34	0.000648
3992.98	0.000644
