Infrared Spectrum: ACETANILIDE, N-METHYL-
Formula: C9 H11 N O
CAS: 579-10-2
State: SOLUTION (CCl4 FOR 2-9.9, CS2 FOR 9.4-16 MICRON) VS SOLVENT
Melting point: 97-99 C
Class: COBLENTZ III
Instrument: BAIRD (GRATING)
Instrument parameters: NaCl PRISM
Sampling: TRANSMISSION
Path length: 0.01 CM, AND 0.01 CM , REFERENCE CELLS : 0.005 CM
Resolution: 2
Origin: WYANDOTTE CHEMICALS CORP.
1/CM	TRANSMITTANCE
4000	0.8945
3991	0.8947
3982	0.8949
3973	0.8951
3964	0.8952
3955	0.8954
3946	0.8955
3937	0.8956
3928	0.8957
3919	0.8958
3910	0.896
3901	0.8961
3892	0.8964
3883	0.8966
3874	0.8968
3865	0.8971
3856	0.8973
3847	0.8975
3838	0.8982
3829	0.8987
3820	0.8993
3811	0.8998
3802	0.9005
3793	0.9012
3784	0.9021
3775	0.9031
3766	0.9041
3757	0.905
3748	0.9058
3739	0.9065
3730	0.9073
3721	0.908
3712	0.9086
3703	0.9092
3694	0.9099
3685	0.9102
3676	0.9099
3667	0.9096
3658	0.9091
3649	0.9081
3640	0.9068
3631	0.9056
3622	0.904
3613	0.902
3604	0.9
3595	0.898
3586	0.8962
3577	0.8945
3568	0.8928
3559	0.8912
3550	0.8898
3541	0.8883
3532	0.8868
3523	0.8856
3514	0.8843
3505	0.8831
3496	0.8827
3487	0.8825
3478	0.8832
3469	0.8838
3460	0.8845
3451	0.8855
3442	0.8864
3433	0.8873
3424	0.8881
3415	0.8886
3406	0.8888
3397	0.8888
3388	0.8868
3379	0.8814
3370	0.874
3361	0.8651
3352	0.8558
3343	0.8483
3334	0.8433
3325	0.8445
3316	0.8491
3307	0.8558
3298	0.8628
3289	0.8696
3280	0.8744
3271	0.8782
3262	0.8813
3253	0.883
3244	0.8841
3235	0.8837
3226	0.8824
3217	0.8802
3208	0.8777
3199	0.8744
3190	0.8706
3181	0.8656
3172	0.8591
3163	0.8503
3154	0.8221
3145	0.776
3136	0.7339
3127	0.6915
3118	0.649
3109	0.6062
3100	0.5631
3091	0.5199
3082	0.4977
3073	0.4923
3064	0.4907
3055	0.5056
3046	0.5239
3037	0.5425
3028	0.5557
3019	0.5553
3010	0.5377
3001	0.5054
2992	0.473
2983	0.4428
2974	0.4421
2965	0.4448
2956	0.4732
2947	0.5142
2938	0.5464
2929	0.5788
2920	0.6114
2911	0.6441
2902	0.6771
2893	0.7095
2884	0.7294
2875	0.7519
2866	0.7755
2857	0.8015
2848	0.8215
2839	0.8378
2830	0.8494
2821	0.8605
2812	0.8711
2803	0.8807
2794	0.888
2785	0.8944
2776	0.9002
2767	0.9051
2758	0.9086
2749	0.9107
2740	0.9118
2731	0.912
2722	0.912
2713	0.9138
2704	0.9168
2695	0.9185
2686	0.9182
2677	0.9164
2668	0.9141
2659	0.9128
2650	0.9121
2641	0.9121
2632	0.9121
2623	0.9136
2614	0.9154
2605	0.9183
2596	0.9214
2587	0.9266
2578	0.9314
2569	0.9359
2560	0.9394
2551	0.9417
2542	0.9436
2533	0.9451
2524	0.9473
2515	0.95
2506	0.9525
2497	0.9555
2488	0.9577
2479	0.9601
2470	0.9616
2461	0.9623
2452	0.9618
2443	0.9594
2434	0.956
2425	0.9525
2416	0.949
2407	0.9453
2398	0.9418
2389	0.9387
2380	0.936
2371	0.935
2362	0.9375
2353	0.9408
2344	0.9442
2335	0.9478
2326	0.9511
2317	0.9538
2308	0.9547
2299	0.9538
2290	0.9514
2281	0.9502
2272	0.9493
2263	0.9494
2254	0.9501
2245	0.9507
2236	0.9517
2227	0.9525
2218	0.9533
2209	0.9539
2200	0.9552
2191	0.958
2182	0.9612
2173	0.9648
2164	0.9681
2155	0.9704
2146	0.972
2137	0.9733
2128	0.9734
2119	0.9734
2110	0.9733
2101	0.9731
2092	0.9727
2083	0.9724
2074	0.9718
2065	0.9712
2056	0.9705
2047	0.9699
2038	0.9697
2029	0.9703
2020	0.9708
2011	0.971
2002	0.9692
1993	0.9668
1984	0.9641
1975	0.9603
1966	0.9525
1957	0.9311
1948	0.9139
1939	0.9218
1930	0.9336
1921	0.9418
1912	0.9439
1903	0.9375
1894	0.9204
1885	0.908
1876	0.9036
1867	0.9175
1858	0.9311
1849	0.9418
1840	0.9499
1831	0.9539
1822	0.9477
1813	0.9288
1804	0.9066
1795	0.8984
1786	0.8991
1777	0.8948
1768	0.8478
1759	0.8024
1750	0.7936
1741	0.8026
1732	0.796
1723	0.746
1714	0.6028
1705	0.394
1696	0.2118
1687	0.0916
1678	0.052
1669	0.0337
1660	0.0412
1651	0.0683
1642	0.1491
1633	0.2955
1624	0.3058
1615	0.0439
1606	0.1279
1597	0.325
1588	0.4615
1579	0.4868
1570	0.4572
1561	0.4275
1552	0.4417
1543	0.4686
1534	0.4836
1525	0.4606
1516	0.1472
1507	0.074
1498	0.2148
1489	0.3034
1480	0.2739
1471	0.2397
1462	0.1829
1453	0.151
1444	0.1189
1435	0.0881
1426	0.0766
1417	0.1576
1408	0.2048
1399	0.097
1390	0.0159
1381	0.0184
1372	0.0566
1363	0.0613
1354	0.0557
1345	0.1854
1336	0.2887
1327	0.2834
1318	0.2983
1309	0.1816
1300	0.0732
1291	0.1948
1282	0.2425
1273	0.4162
1264	0.5168
1255	0.5414
1246	0.6185
1237	0.7246
1228	0.7434
1219	0.7547
1210	0.7641
1201	0.7701
1192	0.7657
1183	0.7331
1174	0.6401
1165	0.5372
1156	0.3505
1147	0.1208
1138	0.2316
1129	0.4526
1120	0.5719
1111	0.632
1102	0.5958
1093	0.2431
1084	0.3874
1075	0.4436
1066	0.7394
1057	0.7948
1048	0.7349
1039	0.5154
1030	0.3503
1021	0.6578
1012	0.8169
1003	0.8345
994	0.8454
985	0.7588
976	0.4491
967	0.5898
958	0.8111
949	0.9032
940	0.9392
931	0.9463
922	0.8398
913	0.7824
904	0.8792
895	0.919
886	0.9278
877	0.9336
868	0.9057
859	0.8908
850	0.8815
841	0.88
832	0.8898
823	0.9091
814	0.9171
805	0.8975
796	0.7407
787	0.7892
778	0.5857
769	0.2137
760	0.6504
751	0.8557
742	0.9013
733	0.9221
724	0.9244
715	0.7956
706	0.6717
697	0.1728
688	0.4774
679	0.8133
670	0.881
661	0.8939
652	0.8827
643	0.8683
634	0.8778
625	0.8647
