Infrared Spectrum: meso-Hydrobenzoin
Formula: C 14 H 14 O 2
CAS: 579-43-1
State: gas
Origin: EPA-IR VAPOR PHASE LIBRARY
1/CM	ABSORBANCE
549.8	0.00431
559.445	0.00491
569.09	0.01477
578.734	0.02006
588.379	0.01318
598.024	0.0101
607.669	0.00452
617.313	0.00394
626.958	0.00479
636.603	0.00696
646.248	0.00507
655.893	0.00493
665.537	0.00638
675.182	0.00972
684.827	0.01913
694.472	0.05445
704.116	0.07041
713.761	0.02583
723.406	0.01069
733.051	0.01098
742.695	0.01458
752.34	0.01924
761.985	0.01761
771.63	0.01212
781.275	0.00656
790.919	0.00667
800.564	0.00688
810.209	0.00602
819.854	0.00459
829.498	0.00461
839.143	0.00603
848.788	0.00586
858.433	0.00371
868.078	0.0032
877.722	0.00288
887.367	0.00271
897.012	0.00333
906.657	0.00532
916.301	0.00584
925.946	0.00434
935.591	0.00472
945.236	0.00502
954.88	0.00448
964.525	0.00472
974.17	0.00569
983.815	0.00726
993.46	0.00979
1003.1	0.01448
1012.75	0.02318
1022.39	0.03729
1032.04	0.0417
1041.68	0.04056
1051.33	0.03466
1060.97	0.02633
1070.62	0.01883
1080.26	0.01955
1089.91	0.01687
1099.55	0.01001
1109.2	0.00817
1118.84	0.0057
1128.49	0.00476
1138.13	0.00463
1147.78	0.00517
1157.42	0.00688
1167.07	0.01067
1176.71	0.01687
1186.36	0.02034
1196	0.01947
1205.64	0.01591
1215.29	0.01411
1224.93	0.01335
1234.58	0.01277
1244.22	0.01188
1253.87	0.01114
1263.51	0.01089
1273.16	0.01081
1282.8	0.01065
1292.45	0.01111
1302.09	0.01151
1311.74	0.01204
1321.38	0.01243
1331.03	0.01247
1340.67	0.0107
1350.32	0.00978
1359.96	0.01104
1369.61	0.01353
1379.25	0.01409
1388.9	0.01253
1398.54	0.00986
1408.18	0.00691
1417.83	0.00524
1427.47	0.00448
1437.12	0.00533
1446.76	0.01083
1456.41	0.01206
1466.05	0.00544
1475.7	0.00441
1485.34	0.00686
1494.99	0.01195
1504.63	0.00668
1514.28	0.00227
1523.92	0.00183
1533.57	0.00205
1543.21	0.00189
1552.86	0.00144
1562.5	0.00129
1572.15	0.00156
1581.79	0.00231
1591.44	0.00333
1601.08	0.00478
1610.73	0.0032
1620.37	0.00127
1630.01	0.0008232
1639.66	0.0009388
1649.3	0.0009729
1658.95	0.00116
1668.59	0.00121
1678.24	0.0009845
1687.88	0.0008143
1697.53	0.0007399
1707.17	0.0008528
1716.82	0.0009573
1726.46	0.00101
1736.11	0.00129
1745.75	0.00138
1755.4	0.00122
1765.04	0.0009912
1774.69	0.00113
1784.33	0.00144
1793.98	0.00265
1803.62	0.0028
1813.27	0.00168
1822.91	0.00113
1832.55	0.0007618
1842.2	0.0007856
1851.84	0.0009466
1861.49	0.00132
1871.13	0.00195
1880.78	0.00206
1890.42	0.0019
1900.07	0.00123
1909.71	0.0008217
1919.36	0.000866
1929	0.00144
1938.65	0.00268
1948.29	0.00276
1957.94	0.00239
1967.58	0.00116
1977.23	0.0006165
1986.87	0.0005166
1996.52	0.0004526
2006.16	0.0004858
2015.81	0.0003772
2025.45	0.0004108
2035.1	0.0004067
2044.74	0.0003488
2054.38	0.0003552
2064.03	0.0003822
2073.67	0.0004293
2083.32	0.0003467
2092.96	0.0003823
2102.61	0.0003823
2112.25	0.000453
2121.9	0.0002994
2131.54	0.0002762
2141.19	0.0003174
2150.83	0.0003667
2160.48	0.0002579
2170.12	0.0001916
2179.77	0.0003468
2189.41	0.0002421
2199.06	0.0003296
2208.7	0.0003695
2218.35	0.0004068
2227.99	0.0004066
2237.64	0.0003547
2247.28	0.000354
2256.92	0.0004046
2266.57	0.0004194
2276.21	0.0003974
2285.86	0.0004839
2295.5	0.0003352
2305.15	0.000506
2314.79	0.0007307
2324.44	0.0005324
2334.08	0.0006621
2343.73	0.0005772
2353.37	0.000586
2363.02	0.0004905
2372.66	0.0005683
2382.31	0.0005356
2391.95	0.0004548
2401.6	0.0005249
2411.24	0.0004686
2420.89	0.0004737
2430.53	0.0004689
2440.18	0.0005303
2449.82	0.0006387
2459.47	0.0004818
2469.11	0.0003531
2478.75	0.0004164
2488.4	0.000491
2498.04	0.0004644
2507.69	0.000397
2517.33	0.0005223
2526.98	0.0004196
2536.62	0.0005174
2546.27	0.0006405
2555.91	0.0006002
2565.56	0.0007889
2575.2	0.0007022
2584.85	0.0006872
2594.49	0.0005958
2604.14	0.0006396
2613.78	0.0006512
2623.43	0.0006689
2633.07	0.0006327
2642.72	0.0004939
2652.36	0.0005148
2662.01	0.0005677
2671.65	0.0005077
2681.29	0.0005235
2690.94	0.0004738
2700.58	0.0005384
2710.23	0.0006427
2719.87	0.0006233
2729.52	0.0006492
2739.16	0.0006628
2748.81	0.0007188
2758.45	0.0007265
2768.1	0.0009665
2777.74	0.00104
2787.39	0.00114
2797.03	0.0009902
2806.68	0.0011
2816.32	0.00129
2825.97	0.00138
2835.61	0.00195
2845.26	0.00246
2854.9	0.00321
2864.55	0.00465
2874.19	0.00712
2883.84	0.01032
2893.48	0.01385
2903.12	0.01523
2912.77	0.01199
2922.41	0.00783
2932.06	0.00483
2941.7	0.00296
2951.35	0.00192
2960.99	0.00133
2970.64	0.00128
2980.28	0.00143
2989.93	0.00181
2999.57	0.00249
3009.22	0.00412
3018.86	0.00844
3028.51	0.01909
3038.15	0.02467
3047.8	0.01653
3057.44	0.01641
3067.09	0.02963
3076.73	0.02827
3086.38	0.01701
3096.02	0.01284
3105.67	0.00722
3115.31	0.00436
3124.95	0.00202
3134.6	0.00105
3144.24	0.0009089
3153.89	0.0009358
3163.53	0.0006734
3173.18	0.0004937
3182.82	0.000358
3192.47	0.0002842
3202.11	0.0001245
3211.76	0.0001344
3221.4	0.0003383
3231.05	0.0003963
3240.69	0.000197
3250.34	0.0002059
3259.98	0.0002516
3269.63	0.0003825
3279.27	0.0004961
3288.92	0.0004675
3298.56	0.0004997
3308.21	0.0005296
3317.85	0.0005654
3327.49	0.0005549
3337.14	0.0004374
3346.78	0.000456
3356.43	0.0005408
3366.07	0.0005942
3375.72	0.0004288
3385.36	0.0006399
3395.01	0.0006794
3404.65	0.0006043
3414.3	0.0006186
3423.94	0.0006023
3433.59	0.0006697
3443.23	0.0006993
3452.88	0.0007019
3462.52	0.0006176
3472.17	0.0007546
3481.81	0.0007091
3491.46	0.0008068
3501.1	0.0008612
3510.75	0.0006979
3520.39	0.0008424
3530.04	0.000931
3539.68	0.00102
3549.32	0.0013
3558.97	0.00164
3568.61	0.00179
3578.26	0.0026
3587.9	0.00384
3597.55	0.00571
3607.19	0.01049
3616.84	0.01827
3626.48	0.0145
3636.13	0.01064
3645.77	0.01296
3655.42	0.01141
3665.06	0.00516
3674.71	0.0028
3684.35	0.00183
3694	0.00137
3703.64	0.00118
3713.29	0.00105
3722.93	0.00102
3732.58	0.0008977
3742.22	0.0006017
3751.86	0.0006866
3761.51	0.0008191
3771.15	0.0008168
3780.8	0.0006848
3790.44	0.0005255
3800.09	0.0006871
3809.73	0.000541
3819.38	0.0006346
3829.02	0.0004687
3838.67	0.0006869
3848.31	0.000635
3857.96	0.0005813
3867.6	0.0008265
3877.25	0.0009181
3886.89	0.0007205
3896.54	0.0009154
3906.18	0.0005863
3915.83	0.000616
3925.47	0.0006966
3935.12	0.0006367
3944.76	0.0007035
3954.41	0.0008809
3964.05	0.0004866
3973.69	0.0004498
3983.34	0.0002905
3992.98	0.0004428
