Infrared Spectrum: 1-Phenyl-1,2-Propanedione
Formula: C 9 H 8 O 2
CAS: 579-07-7
State: gas
Origin: EPA-IR VAPOR PHASE LIBRARY
1/CM	ABSORBANCE
549.8	0.007359
559.445	0.021889
569.09	0.052729
578.734	0.048099
588.379	0.017139
598.024	0.007649
607.669	0.006409
617.313	0.004299
626.958	0.002639
636.603	0.002409
646.248	0.003089
655.893	0.003949
665.537	0.006979
675.182	0.013919
684.827	0.029319
694.472	0.047119
704.116	0.051309
713.761	0.028249
723.406	0.011509
733.051	0.006169
742.695	0.004749
752.34	0.003769
761.985	0.004429
771.63	0.006849
781.275	0.008899
790.919	0.005309
800.564	0.002689
810.209	0.001849
819.854	0.001769
829.498	0.002109
839.143	0.002739
848.788	0.003459
858.433	0.004879
868.078	0.008479
877.722	0.018559
887.367	0.044589
897.012	0.061529
906.657	0.036959
916.301	0.012169
925.946	0.006689
935.591	0.005119
945.236	0.004109
954.88	0.003979
964.525	0.004349
974.17	0.004649
983.815	0.004999
993.46	0.006359
1003.1	0.007949
1012.75	0.006669
1022.39	0.005339
1032.04	0.003749
1041.68	0.002469
1051.33	0.002639
1060.97	0.003359
1070.62	0.003459
1080.26	0.003089
1089.91	0.002899
1099.55	0.003549
1109.2	0.004209
1118.84	0.006709
1128.49	0.011119
1138.13	0.026389
1147.78	0.066869
1157.42	0.109939
1167.07	0.081839
1176.71	0.025499
1186.36	0.009639
1196	0.005529
1205.64	0.003839
1215.29	0.003159
1224.93	0.003229
1234.58	0.004369
1244.22	0.005499
1253.87	0.008619
1263.51	0.014639
1273.16	0.023069
1282.8	0.025709
1292.45	0.018429
1302.09	0.013209
1311.74	0.014639
1321.38	0.013799
1331.03	0.010859
1340.67	0.011809
1350.32	0.018179
1359.96	0.022559
1369.61	0.014899
1379.25	0.008999
1388.9	0.007659
1398.54	0.007109
1408.18	0.007349
1417.83	0.008549
1427.47	0.009929
1437.12	0.013249
1446.76	0.019019
1456.41	0.015419
1466.05	0.005549
1475.7	0.003539
1485.34	0.003039
1494.99	0.002809
1504.63	0.002919
1514.28	0.003329
1523.92	0.003949
1533.57	0.004359
1543.21	0.004759
1552.86	0.004979
1562.5	0.006109
1572.15	0.009169
1581.79	0.013379
1591.44	0.017239
1601.08	0.017539
1610.73	0.011259
1620.37	0.007189
1630.01	0.006219
1639.66	0.007059
1649.3	0.009689
1658.95	0.015679
1668.59	0.036139
1678.24	0.093379
1687.88	0.130899
1697.53	0.098069
1707.17	0.063499
1716.82	0.063449
1726.46	0.062719
1736.11	0.045739
1745.75	0.027859
1755.4	0.017719
1765.04	0.011879
1774.69	0.007879
1784.33	0.005119
1793.98	0.003849
1803.62	0.004059
1813.27	0.004199
1822.91	0.003149
1832.55	0.002319
1842.2	0.002039
1851.84	0.001909
1861.49	0.001929
1871.13	0.001729
1880.78	0.001689
1890.42	0.001989
1900.07	0.002319
1909.71	0.002449
1919.36	0.002069
1929	0.001459
1938.65	0.001359
1948.29	0.001939
1957.94	0.002489
1967.58	0.002679
1977.23	0.002069
1986.87	0.0011549
1996.52	0.0007901
2006.16	0.0006972
2015.81	0.0006223
2025.45	0.0006732
2035.1	0.0006791
2044.74	0.0007099
2054.38	0.00069
2064.03	0.0007141
2073.67	0.0004846
2083.32	0.0004608
2092.96	0.0003752
2102.61	0.0003995
2112.25	0.0004171
2121.9	0.0004347
2131.54	0.0005385
2141.19	0.0005217
2150.83	0.000575
2160.48	0.0005934
2170.12	0.000655
2179.77	0.0006814
2189.41	0.0006446
2199.06	0.0004794
2208.7	0.0004709
2218.35	0.0004727
2227.99	0.0004841
2237.64	0.000722
2247.28	0.0009703
2256.92	0.0009116
2266.57	0.0007565
2276.21	0.0006674
2285.86	0.000652
2295.5	0.0006782
2305.15	0.0006058
2314.79	0.0008201
2324.44	0.0009732
2334.08	0.0007123
2343.73	0.0007322
2353.37	0.0006763
2363.02	0.0005789
2372.66	0.0006534
2382.31	0.0005994
2391.95	0.0005645
2401.6	0.0005881
2411.24	0.0006362
2420.89	0.0007621
2430.53	0.000838
2440.18	0.0008198
2449.82	0.0005524
2459.47	0.0005194
2469.11	0.0005271
2478.75	0.0004263
2488.4	0.0004232
2498.04	0.0004313
2507.69	0.0005738
2517.33	0.0005847
2526.98	0.0004691
2536.62	0.0004866
2546.27	0.0005672
2555.91	0.000543
2565.56	0.0007133
2575.2	0.0006921
2584.85	0.0007291
2594.49	0.0007784
2604.14	0.000709
2613.78	0.0005373
2623.43	0.0005031
2633.07	0.0005353
2642.72	0.0005475
2652.36	0.000481
2662.01	0.0003962
2671.65	0.0002829
2681.29	0.00045
2690.94	0.000315
2700.58	0.0004639
2710.23	0.0005983
2719.87	0.0004707
2729.52	0.0005397
2739.16	0.0006443
2748.81	0.0007912
2758.45	0.0007299
2768.1	0.0006596
2777.74	0.0005765
2787.39	0.0004707
2797.03	0.0003694
2806.68	0.0005398
2816.32	0.0005084
2825.97	0.0005935
2835.61	0.0007474
2845.26	0.0010053
2854.9	0.0009822
2864.55	0.0009793
2874.19	0.0011617
2883.84	0.0011606
2893.48	0.001269
2903.12	0.001229
2912.77	0.001479
2922.41	0.001579
2932.06	0.001829
2941.7	0.001879
2951.35	0.001799
2960.99	0.002109
2970.64	0.002499
2980.28	0.002669
2989.93	0.002559
2999.57	0.003149
3009.22	0.004839
3018.86	0.006189
3028.51	0.006489
3038.15	0.006609
3047.8	0.007269
3057.44	0.010439
3067.09	0.018289
3076.73	0.021679
3086.38	0.015089
3096.02	0.009479
3105.67	0.006319
3115.31	0.003349
3124.95	0.001909
3134.6	0.001499
3144.24	0.001469
3153.89	0.001519
3163.53	0.001359
3173.18	0.0008457
3182.82	0.0007314
3192.47	0.0004943
3202.11	0.0006895
3211.76	0.0006057
3221.4	0.0002985
3231.05	0.000309
3240.69	0.0002842
3250.34	0.0003641
3259.98	0.0003366
3269.63	0.0004995
3279.27	0.0004979
3288.92	0.0004665
3298.56	0.0003689
3308.21	0.0005243
3317.85	0.0006394
3327.49	0.0007153
3337.14	0.001299
3346.78	0.001999
3356.43	0.002179
3366.07	0.001729
3375.72	0.0011598
3385.36	0.0008801
3395.01	0.0010685
3404.65	0.0011019
3414.3	0.001369
3423.94	0.001679
3433.59	0.001539
3443.23	0.001349
3452.88	0.0011012
3462.52	0.000849
3472.17	0.0005439
3481.81	0.0004207
3491.46	0.0003303
3501.1	0.0002945
3510.75	0.0002981
3520.39	0.0003467
3530.04	0.0002936
3539.68	0.0003598
3549.32	9.09e-05
3558.97	0.0003453
3568.61	0.0003308
3578.26	0.000204
3587.9	0.0003629
3597.55	0.0002816
3607.19	3.5e-05
3616.84	0.00021736
3626.48	0.00019339
3636.13	5.9e-05
3645.77	0.0003797
3655.42	0.00026634
3665.06	0.00019434
3674.71	0.0002917
3684.35	0.0003998
3694	0.00023881
3703.64	0.0003835
3713.29	0.0004621
3722.93	0.00024593
3732.58	0.0003886
3742.22	0.00026258
3751.86	0.000371
3761.51	0.0004626
3771.15	0.0004447
3780.8	0.0001037
3790.44	0.00026181
3800.09	0.00024745
3809.73	0.00024725
3819.38	0.00023615
3829.02	0.00022477
3838.67	0.00020314
3848.31	0.00018576
3857.96	0.0003588
3867.6	0.0002891
3877.25	0.00015954
3886.89	0.0001455
3896.54	0.000175996
3906.18	0.0004405
3915.83	0.00023918
3925.47	9.72e-05
3935.12	0.0005268
3944.76	0.0005078
3954.41	0.0005476
3964.05	0.0005874
3973.69	0.0004554
3983.34	0.0004766
3992.98	0.0003518
