Infrared Spectrum: O-METHOXY BENZOIC ACID
Formula: C8 H8 O3
CAS: 579-75-9
State: SOLID (MULL)
Melting point: 101-103 C
Class: COBLENTZ
Instrument: Not specified, most likely a prism, grating, or hybrid spectrometer.
Sampling: TRANSMISSION
Resolution: 4
Origin: WYANDOTTE CHEMICALS CORP., WYANDOTTE, MICHIGAN, USA
MICROMETERS	TRANSMITTANCE
2.023	0.53
2.06289	0.533
2.10278	0.542
2.14267	0.545
2.18257	0.543
2.22246	0.545
2.26235	0.547
2.30224	0.552
2.34213	0.558
2.38202	0.567
2.42191	0.57
2.46181	0.578
2.5017	0.585
2.54159	0.595
2.58148	0.606
2.62137	0.618
2.66126	0.628
2.70115	0.635
2.74105	0.643
2.78094	0.653
2.82083	0.655
2.86072	0.656
2.90061	0.661
2.9405	0.66
2.98039	0.651
3.02029	0.623
3.06018	0.577
3.10007	0.505
3.13996	0.417
3.17985	0.341
3.21974	0.268
3.25963	0.225
3.29953	0.142
3.33942	0.041
3.37931	0.024
3.4192	0.026
3.45909	0.031
3.49898	0.051
3.53887	0.165
3.57877	0.217
3.61866	0.262
3.65855	0.26
3.69844	0.252
3.73833	0.252
3.77822	0.238
3.81811	0.235
3.85801	0.247
3.8979	0.26
3.93779	0.268
3.97768	0.28
4.01757	0.301
4.05746	0.326
4.09735	0.358
4.13725	0.384
4.17714	0.404
4.21703	0.434
4.25692	0.449
4.29681	0.457
4.3367	0.479
4.37659	0.522
4.41649	0.545
4.45638	0.557
4.49627	0.573
4.53616	0.587
4.57605	0.601
4.61594	0.615
4.65583	0.623
4.69573	0.653
4.73562	0.663
4.77551	0.684
4.8154	0.684
4.85529	0.678
4.89518	0.683
4.93507	0.701
4.97497	0.689
5.01486	0.701
5.05475	0.721
5.09464	0.747
5.13453	0.747
5.17442	0.739
5.21431	0.731
5.25421	0.762
5.2941	0.766
5.33399	0.779
5.37388	0.789
5.41377	0.791
5.45366	0.789
5.49355	0.797
5.53345	0.756
5.57334	0.796
5.61323	0.822
5.65312	0.827
5.69301	0.794
5.7329	0.686
5.77279	0.514
5.81269	0.33
5.85258	0.23
5.89247	0.167
5.93236	0.112
5.97225	0.061
6.01214	0.111
6.05203	0.26
6.09193	0.373
6.13182	0.469
6.17171	0.271
6.2116	0.202
6.25149	0.262
6.29138	0.237
6.33127	0.376
6.37117	0.459
6.41106	0.547
6.45095	0.555
6.49084	0.6
6.53073	0.597
6.57062	0.562
6.61051	0.404
6.65041	0.145
6.6903	0.291
6.73019	0.305
6.77008	0.076
6.80997	0.087
6.84986	0.208
6.88975	0.278
6.92965	0.278
6.96954	0.451
7.00943	0.391
7.04932	0.222
7.08921	0.275
7.1291	0.371
7.16899	0.434
7.20889	0.311
7.24878	0.331
7.28867	0.437
7.32856	0.54
7.36845	0.555
7.40834	0.557
7.44823	0.469
7.48813	0.32
7.52802	0.187
7.56791	0.111
7.6078	0.157
7.64769	0.2
7.68758	0.213
7.72747	0.185
7.76737	0.139
7.80726	0.089
7.84715	0.053
7.88704	0.044
7.92693	0.038
7.96682	0.041
8.00671	0.059
8.04661	0.104
8.0865	0.177
8.12639	0.243
8.16628	0.321
8.20617	0.371
8.24606	0.391
8.28595	0.419
8.32585	0.451
8.36574	0.474
8.40563	0.388
8.44552	0.22
8.48541	0.33
8.5253	0.091
8.56519	0.21
8.60509	0.422
8.64498	0.376
8.68487	0.391
8.72476	0.417
8.76465	0.535
8.80454	0.601
8.84443	0.633
8.88433	0.66
8.92422	0.666
8.96411	0.669
9.004	0.57
9.04389	0.57
9.08378	0.467
9.12367	0.172
9.16357	0.155
9.20346	0.328
9.24335	0.533
9.28324	0.623
9.32313	0.653
9.36302	0.684
9.40291	0.694
9.44281	0.651
9.4827	0.5
9.52259	0.51
9.56248	0.585
9.60237	0.621
9.64226	0.621
9.68215	0.533
9.72205	0.334
9.76194	0.134
9.80183	0.17
9.84172	0.323
9.88161	0.441
9.9215	0.524
9.96139	0.577
10.0013	0.601
10.0412	0.608
10.0811	0.6
10.121	0.525
10.1609	0.595
10.2007	0.61
10.2406	0.597
10.2805	0.575
10.3204	0.552
10.3603	0.52
10.4002	0.48
10.4401	0.417
10.48	0.394
10.5199	0.371
10.5598	0.316
10.5997	0.29
10.6395	0.283
10.6794	0.283
10.7193	0.28
10.7592	0.268
10.7991	0.24
10.839	0.202
10.8789	0.192
10.9188	0.182
10.9587	0.223
10.9986	0.268
11.0385	0.328
11.0784	0.371
11.1182	0.409
11.1581	0.441
11.198	0.479
11.2379	0.524
11.2778	0.565
11.3177	0.595
11.3576	0.621
11.3975	0.645
11.4374	0.663
11.4773	0.676
11.5172	0.665
11.5571	0.555
11.5969	0.454
11.6368	0.575
11.6767	0.671
11.7166	0.709
11.7565	0.739
11.7964	0.754
11.8363	0.766
11.8762	0.772
11.9161	0.772
11.956	0.731
11.9959	0.61
12.0357	0.431
12.0756	0.411
12.1155	0.489
12.1554	0.575
12.1953	0.633
12.2352	0.669
12.2751	0.688
12.315	0.711
12.3549	0.734
12.3948	0.742
12.4347	0.752
12.4746	0.757
12.5144	0.729
12.5543	0.648
12.5942	0.633
12.6341	0.679
12.674	0.691
12.7139	0.681
12.7538	0.658
12.7937	0.606
12.8336	0.519
12.8735	0.414
12.9134	0.31
12.9533	0.217
12.9931	0.154
13.033	0.109
13.0729	0.067
13.1128	0.061
13.1527	0.082
13.1926	0.119
13.2325	0.212
13.2724	0.338
13.3123	0.432
13.3522	0.527
13.3921	0.588
13.4319	0.633
13.4718	0.673
13.5117	0.699
13.5516	0.729
13.5915	0.739
13.6314	0.762
13.6713	0.781
13.7112	0.789
13.7511	0.799
13.791	0.809
13.8309	0.814
13.8708	0.822
13.9106	0.834
13.9505	0.86
13.9904	0.875
14.0303	0.887
14.0702	0.893
14.1101	0.883
14.15	0.849
14.1899	0.776
14.2298	0.651
14.2697	0.538
14.3096	0.477
14.3495	0.532
14.3893	0.64
14.4292	0.756
14.4691	0.83
14.509	0.878
14.5489	0.902
14.5888	0.92
14.6287	0.941
14.6686	0.946
14.7085	0.956
14.7484	0.956
14.7883	0.956
14.8281	0.955
14.868	0.955
14.9079	0.953
14.9478	0.933
14.9877	0.898
15.0276	0.855
15.0675	0.822
15.1074	0.814
15.1473	0.804
15.1872	0.769
15.2271	0.683
15.267	0.575
15.3068	0.474
15.3467	0.402
15.3866	0.379
15.4265	0.412
15.4664	0.475
15.5063	0.548
15.5462	0.608
15.5861	0.64
15.626	0.663
15.6659	0.676
15.7058	0.683
15.7457	0.684
15.7855	0.684
15.8254	0.683
15.8653	0.676
15.9052	0.673
15.9451	0.663
15.985	0.653
