Infrared Spectrum: ACETANILIDE, 4'-HYDROXY-N-METHYL-
Formula: C9 H11 N O2
CAS: 579-58-8
State: SOLID (OIL MULL)
Melting point: 244 C
Class: COBLENTZ III
Instrument: BAIRD (PRISM)
Instrument parameters: NaCl PRISM
Sampling: TRANSMISSION
Resolution: 2
Origin: WYANDOTTE CHEMICALS CORP.
MICROMETERS	TRANSMITTANCE
2.029	0.286
2.06804	0.286
2.10708	0.289
2.14612	0.298
2.18516	0.308
2.2242	0.309
2.26324	0.316
2.30228	0.319
2.34132	0.326
2.38037	0.348
2.41941	0.359
2.45845	0.369
2.49749	0.377
2.53653	0.39
2.57557	0.398
2.61461	0.417
2.65365	0.432
2.69269	0.439
2.73173	0.45
2.77077	0.464
2.80981	0.471
2.84885	0.482
2.88789	0.492
2.92693	0.498
2.96597	0.506
3.00501	0.508
3.04405	0.498
3.0831	0.427
3.12214	0.345
3.16118	0.259
3.20022	0.205
3.23926	0.174
3.2783	0.147
3.31734	0.074
3.35638	0.025
3.39542	0.024
3.43446	0.025
3.4735	0.027
3.51254	0.084
3.55158	0.149
3.59062	0.211
3.62966	0.23
3.6687	0.229
3.70774	0.212
3.74678	0.245
3.78583	0.269
3.82487	0.285
3.86391	0.331
3.90295	0.378
3.94199	0.411
3.98103	0.421
4.02007	0.436
4.05911	0.458
4.09815	0.487
4.13719	0.518
4.17623	0.522
4.21527	0.539
4.25431	0.549
4.29335	0.56
4.33239	0.577
4.37143	0.609
4.41047	0.621
4.44951	0.637
4.48856	0.652
4.5276	0.668
4.56664	0.684
4.60568	0.699
4.64472	0.708
4.68376	0.721
4.7228	0.733
4.76184	0.754
4.80088	0.77
4.83992	0.777
4.87896	0.789
4.918	0.802
4.95704	0.812
4.99608	0.84
5.03512	0.858
5.07416	0.866
5.1132	0.878
5.15224	0.885
5.19129	0.899
5.23033	0.91
5.26937	0.922
5.30841	0.906
5.34745	0.921
5.38649	0.942
5.42553	0.97
5.46457	0.99
5.50361	1
5.54265	1.003
5.58169	1.003
5.62073	1.003
5.65977	1.001
5.69881	1.004
5.73785	1.006
5.77689	1.003
5.81593	1.001
5.85497	0.985
5.89402	0.929
5.93306	0.867
5.9721	0.765
6.01114	0.585
6.05018	0.461
6.08922	0.205
6.12826	0.114
6.1673	0.125
6.20634	0.114
6.24538	0.087
6.28442	0.101
6.32346	0.169
6.3625	0.249
6.40154	0.421
6.44058	0.487
6.47962	0.512
6.51866	0.347
6.5577	0.189
6.59675	0.149
6.63579	0.167
6.67483	0.18
6.71387	0.122
6.75291	0.081
6.79195	0.046
6.83099	0.034
6.87003	0.029
6.90907	0.036
6.94811	0.07
6.98715	0.089
7.02619	0.157
7.06523	0.291
7.10427	0.324
7.14331	0.21
7.18235	0.113
7.22139	0.109
7.26043	0.115
7.29948	0.162
7.33852	0.213
7.37756	0.266
7.4166	0.345
7.45564	0.416
7.49468	0.502
7.53372	0.571
7.57276	0.611
7.6118	0.598
7.65084	0.383
7.68988	0.246
7.72892	0.3
7.76796	0.411
7.807	0.38
7.84604	0.142
7.88508	0.144
7.92412	0.3
7.96317	0.375
8.00221	0.154
8.04125	0.09
8.08029	0.092
8.11933	0.138
8.15837	0.187
8.19741	0.239
8.23645	0.278
8.27549	0.313
8.31453	0.341
8.35357	0.379
8.39261	0.405
8.43165	0.434
8.47069	0.47
8.50973	0.496
8.54877	0.46
8.58781	0.421
8.62685	0.455
8.6659	0.455
8.70494	0.393
8.74398	0.292
8.78302	0.271
8.82206	0.316
8.8611	0.369
8.90014	0.42
8.93918	0.449
8.97822	0.49
9.01726	0.502
9.0563	0.459
9.09534	0.498
9.13438	0.541
9.17342	0.471
9.21246	0.366
9.2515	0.386
9.29054	0.447
9.32958	0.5
9.36863	0.525
9.40767	0.554
9.44671	0.573
9.48575	0.585
9.52479	0.592
9.56383	0.584
9.60287	0.515
9.64191	0.502
9.68095	0.551
9.71999	0.598
9.75903	0.631
9.79807	0.652
9.83711	0.652
9.87615	0.621
9.91519	0.635
9.95423	0.675
9.99327	0.69
10.0323	0.718
10.0714	0.73
10.1104	0.721
10.1494	0.583
10.1885	0.375
10.2275	0.378
10.2666	0.443
10.3056	0.497
10.3446	0.552
10.3837	0.574
10.4227	0.587
10.4618	0.6
10.5008	0.62
10.5398	0.624
10.5789	0.631
10.6179	0.638
10.657	0.642
10.696	0.635
10.735	0.636
10.7741	0.648
10.8131	0.654
10.8522	0.658
10.8912	0.69
10.9302	0.697
10.9693	0.7
11.0083	0.707
11.0474	0.71
11.0864	0.711
11.1255	0.711
11.1645	0.711
11.2035	0.711
11.2426	0.708
11.2816	0.708
11.3207	0.706
11.3597	0.702
11.3987	0.705
11.4378	0.702
11.4768	0.685
11.5159	0.671
11.5549	0.667
11.5939	0.659
11.633	0.652
11.672	0.637
11.7111	0.601
11.7501	0.554
11.7891	0.454
11.8282	0.337
11.8672	0.292
11.9063	0.217
11.9453	0.171
11.9843	0.169
12.0234	0.207
12.0624	0.267
12.1015	0.313
12.1405	0.335
12.1795	0.341
12.2186	0.395
12.2576	0.445
12.2967	0.497
12.3357	0.525
12.3747	0.531
12.4138	0.502
12.4528	0.482
12.4919	0.476
12.5309	0.492
12.57	0.523
12.609	0.542
12.648	0.57
12.6871	0.595
12.7261	0.616
12.7652	0.637
12.8042	0.657
12.8432	0.664
12.8823	0.675
12.9213	0.686
12.9604	0.687
12.9994	0.694
13.0384	0.695
13.0775	0.696
13.1165	0.7
13.1556	0.708
13.1946	0.708
13.2336	0.712
13.2727	0.724
13.3117	0.735
13.3508	0.743
13.3898	0.75
13.4288	0.755
13.4679	0.762
13.5069	0.777
13.546	0.782
13.585	0.783
13.624	0.74
13.6631	0.63
13.7021	0.527
13.7412	0.531
13.7802	0.576
13.8192	0.636
13.8583	0.664
13.8973	0.679
13.9364	0.7
13.9754	0.721
14.0145	0.761
14.0535	0.786
14.0925	0.794
14.1316	0.82
14.1706	0.832
14.2097	0.847
14.2487	0.856
14.2877	0.859
14.3268	0.866
14.3658	0.871
14.4049	0.872
14.4439	0.875
14.4829	0.877
14.522	0.871
14.561	0.852
14.6001	0.843
14.6391	0.832
14.6781	0.824
14.7172	0.82
14.7562	0.82
14.7953	0.821
14.8343	0.824
14.8733	0.826
14.9124	0.832
14.9514	0.84
14.9905	0.847
15.0295	0.837
15.0685	0.824
15.1076	0.802
15.1466	0.797
15.1857	0.798
15.2247	0.815
15.2637	0.819
15.3028	0.829
15.3418	0.805
15.3809	0.792
15.4199	0.786
15.459	0.78
15.498	0.754
15.537	0.722
15.5761	0.691
15.6151	0.669
15.6542	0.664
15.6932	0.662
15.7322	0.662
15.7713	0.659
15.8103	0.652
15.8494	0.646
15.8884	0.64
15.9274	0.633
15.9665	0.633
