Infrared Spectrum: 2'-Methoxyacetophenone
Formula: C 9 H 10 O 2
CAS: 579-74-8
State: gas
Instrument: HP-GC/MS/IRD
Origin: NIST Mass Spectrometry Data Center
1/CM	ABSORBANCE
550	0.0007595
562	0.0010416
574	0.0015965
586	0.0038037
598	0.0048515
610	0.0018755
622	0.0006727
634	0.0003193
646	0.0002387
658	9.92e-05
670	1.55e-05
682	0.0001054
694	0.0003069
706	0.0004154
718	0.0006603
730	0.0022692
742	0.0077593
754	0.0128898
766	0.0069037
778	0.0020646
790	0.001426
802	0.0023436
814	0.0012865
826	0.0003038
838	0.0002418
850	0.0002821
862	0.0002294
874	0.0001333
886	0.000124
898	0.0001333
910	0.0002449
922	0.0004929
934	0.0010974
946	0.0021607
958	0.0036735
970	0.0035526
982	0.0023405
994	0.0026288
1006	0.0044268
1018	0.0077779
1030	0.0096472
1042	0.0080321
1054	0.0047833
1066	0.003689
1078	0.0030628
1090	0.0017484
1102	0.0019437
1114	0.0042563
1126	0.0055614
1138	0.0031
1150	0.0031589
1162	0.0044206
1174	0.004371
1186	0.0043028
1198	0.0040641
1210	0.0070184
1222	0.0166284
1234	0.0281294
1246	0.0298499
1258	0.0187271
1270	0.0140368
1282	0.0222084
1294	0.0188759
1306	0.0068603
1318	0.0028489
1330	0.0024459
1342	0.0037634
1354	0.0081158
1366	0.008277
1378	0.0034751
1390	0.0023684
1402	0.0024738
1414	0.0035371
1426	0.0071021
1438	0.0115847
1450	0.010354
1462	0.0107446
1474	0.0158193
1486	0.0164331
1498	0.0077438
1510	0.0026722
1522	0.0015779
1534	0.0013516
1546	0.0015562
1558	0.0023746
1570	0.0043245
1582	0.0077283
1594	0.0116684
1606	0.0090117
1618	0.0032271
1630	0.0017329
1642	0.0016988
1654	0.0024831
1666	0.0038936
1678	0.0069502
1690	0.0172391
1702	0.0268987
1714	0.0182373
1726	0.0088908
1738	0.0046655
1750	0.0023994
1762	0.0013764
1774	0.0009765
1786	0.0007719
1798	0.0006324
1810	0.0005487
1822	0.0005084
1834	0.000403
1846	0.0002697
1858	0.0002232
1870	0.0002511
1882	0.0002821
1894	0.0003689
1906	0.0005487
1918	0.0005487
1930	0.0005487
1942	0.0005332
1954	0.0003472
1966	0.0001798
1978	0.0001488
1990	0.0001612
2002	0.0001984
2014	0.0002666
2026	0.0004619
2038	0.0006479
2050	0.0006758
2062	0.0004371
2074	0.0003038
2086	0.0002077
2098	0.0001395
2110	5.89e-05
2122	2.79e-05
2134	1.55e-05
2146	3.72e-05
2158	3.72e-05
2170	6.2e-05
2182	8.99e-05
2194	8.37e-05
2206	4.03e-05
2218	9.3e-06
2230	2.79e-05
2242	5.89e-05
2254	9.92e-05
2266	0.0001426
2278	0.0002046
2290	0.0002046
2302	0.0001643
2314	0.0001426
2326	0.0001271
2338	0.0001023
2350	7.44e-05
2362	0.000124
2374	8.06e-05
2386	0.0001147
2398	0.0001271
2410	0.0001147
2422	3.1e-05
2434	8.99e-05
2446	0.0001054
2458	0.0001209
2470	0.0001767
2482	0.0002046
2494	0.0001953
2506	0.0001705
2518	0.0001829
2530	0.0001891
2542	0.0001736
2554	0.0001581
2566	0.0001302
2578	0.0001302
2590	0.0001023
2602	8.99e-05
2614	7.44e-05
2626	8.99e-05
2638	9.3e-05
2650	0.0001209
2662	0.0001147
2674	8.37e-05
2686	9.92e-05
2698	0.0001457
2710	0.0001457
2722	0.0001705
2734	0.0001333
2746	0.0001457
2758	0.0002325
2770	0.0002511
2782	0.0002821
2794	0.0003937
2806	0.000558
2818	0.0009083
2830	0.0017329
2842	0.0034255
2854	0.0032829
2866	0.0019251
2878	0.0017639
2890	0.0019313
2902	0.0023591
2914	0.0030535
2926	0.0038905
2938	0.0053134
2950	0.0067053
2962	0.0058931
2974	0.0041385
2986	0.0035061
2998	0.0045725
3010	0.0054281
3022	0.0038812
3034	0.0027714
3046	0.0024676
3058	0.0028737
3070	0.0043493
3082	0.0048081
3094	0.0026815
3106	0.0014508
3118	0.0008029
3130	0.0005394
3142	0.0004991
3154	0.0004309
3166	0.0003224
3178	0.0002387
3190	0.0002263
3202	0.0001922
3214	0.0001364
3226	0.0001054
3238	0.0001209
3250	3.41e-05
3262	6.51e-05
3274	0.0001302
3286	7.13e-05
3298	6.51e-05
3310	0.0001178
3322	8.68e-05
3334	0.000124
3346	0.0001643
3358	0.0002077
3370	0.0002976
3382	0.0004836
3394	0.0003782
3406	0.0003503
3418	0.0003224
3430	0.0002356
3442	0.0001798
3454	0.0001054
3466	9.92e-05
3478	5.89e-05
3490	0.0001054
3502	3.72e-05
3514	3.72e-05
3526	5.58e-05
3538	6.82e-05
3550	8.37e-05
3562	4.65e-05
3574	3.41e-05
3586	5.58e-05
3598	7.13e-05
3610	2.79e-05
3622	0.0001271
3634	9.61e-05
3646	9.92e-05
3658	0.0001395
3670	0.0001705
3682	0.0001054
3694	6.2e-05
3706	6.82e-05
3718	8.68e-05
3730	6.2e-05
3742	0.0001116
3754	8.06e-05
3766	8.37e-05
3778	0.0001519
3790	7.44e-05
3802	0.0001178
3814	0.0001705
3826	0.0001271
3838	0.0001395
