Infrared Spectrum: 4-Amino-3-bromobenzotrifluoride
Formula: C 7 H 5 Br F 3 N
CAS: 57946-63-1
State: gas
Origin: EPA-IR VAPOR PHASE LIBRARY
1/CM	ABSORBANCE
549.8	0.00758
559.445	0.00764
569.09	0.00886
578.734	0.01155
588.379	0.01196
598.024	0.01387
607.669	0.0245
617.313	0.05317
626.958	0.03454
636.603	0.01493
646.248	0.01086
655.893	0.01254
665.537	0.01679
675.182	0.03034
684.827	0.05936
694.472	0.03017
704.116	0.02021
713.761	0.02184
723.406	0.02277
733.051	0.01801
742.695	0.01495
752.34	0.01522
761.985	0.01433
771.63	0.01304
781.275	0.0117
790.919	0.01177
800.564	0.01838
810.209	0.0341
819.854	0.03655
829.498	0.0207
839.143	0.01399
848.788	0.0184
858.433	0.01503
868.078	0.01192
877.722	0.01251
887.367	0.02331
897.012	0.02529
906.657	0.01131
916.301	0.00672
925.946	0.00574
935.591	0.00677
945.236	0.00648
954.88	0.00596
964.525	0.00597
974.17	0.00526
983.815	0.00566
993.46	0.0054
1003.1	0.00544
1012.75	0.00638
1022.39	0.011
1032.04	0.02092
1041.68	0.0236
1051.33	0.02006
1060.97	0.02548
1070.62	0.05251
1080.26	0.07683
1089.91	0.064
1099.55	0.03388
1109.2	0.02728
1118.84	0.05024
1128.49	0.13678
1138.13	0.2936
1147.78	0.25649
1157.42	0.13898
1167.07	0.16067
1176.71	0.15325
1186.36	0.0523
1196	0.02607
1205.64	0.01674
1215.29	0.01673
1224.93	0.01382
1234.58	0.01439
1244.22	0.02045
1253.87	0.05652
1263.51	0.08679
1273.16	0.03426
1282.8	0.04591
1292.45	0.08993
1302.09	0.16236
1311.74	0.28119
1321.38	0.50926
1331.03	0.27398
1340.67	0.05307
1350.32	0.02722
1359.96	0.0145
1369.61	0.01523
1379.25	0.01808
1388.9	0.01326
1398.54	0.01476
1408.18	0.02892
1417.83	0.02838
1427.47	0.01124
1437.12	0.00689
1446.76	0.00498
1456.41	0.00417
1466.05	0.00454
1475.7	0.00508
1485.34	0.00586
1494.99	0.00948
1504.63	0.02228
1514.28	0.02655
1523.92	0.01542
1533.57	0.009
1543.21	0.00677
1552.86	0.00603
1562.5	0.00711
1572.15	0.00801
1581.79	0.00895
1591.44	0.01278
1601.08	0.02436
1610.73	0.05822
1620.37	0.12947
1630.01	0.13477
1639.66	0.06549
1649.3	0.0269
1658.95	0.01179
1668.59	0.00691
1678.24	0.00472
1687.88	0.00398
1697.53	0.0038
1707.17	0.00422
1716.82	0.00447
1726.46	0.00409
1736.11	0.0042
1745.75	0.00455
1755.4	0.00509
1765.04	0.00443
1774.69	0.00496
1784.33	0.00483
1793.98	0.00345
1803.62	0.00222
1813.27	0.0020388
1822.91	0.00231
1832.55	0.00216
1842.2	0.00223
1851.84	0.0020145
1861.49	0.00219
1871.13	0.00299
1880.78	0.00488
1890.42	0.0045
1900.07	0.00271
1909.71	0.00255
1919.36	0.00234
1929	0.00212
1938.65	0.0020219
1948.29	0.00215
1957.94	0.0017934
1967.58	0.002025
1977.23	0.00213
1986.87	0.00218
1996.52	0.0019096
2006.16	0.00222
2015.81	0.00212
2025.45	0.0019955
2035.1	0.0019314
2044.74	0.00213
2054.38	0.0017661
2064.03	0.0024
2073.67	0.00256
2083.32	0.00264
2092.96	0.00226
2102.61	0.001968
2112.25	0.0019527
2121.9	0.0018125
2131.54	0.001881
2141.19	0.0018728
2150.83	0.0019433
2160.48	0.00219
2170.12	0.00225
2179.77	0.0023
2189.41	0.0020744
2199.06	0.0019337
2208.7	0.0020062
2218.35	0.0020773
2227.99	0.00222
2237.64	0.0022
2247.28	0.00212
2256.92	0.00245
2266.57	0.00251
2276.21	0.0026
2285.86	0.0017096
2295.5	0.0016446
2305.15	0.0021
2314.79	0.00214
2324.44	0.00254
2334.08	0.00234
2343.73	0.00243
2353.37	0.0020507
2363.02	0.0020362
2372.66	0.0017662
2382.31	0.0015868
2391.95	0.0016226
2401.6	0.0018533
2411.24	0.0015437
2420.89	0.0014439
2430.53	0.001213
2440.18	0.0012567
2449.82	0.0016714
2459.47	0.0015597
2469.11	0.0016492
2478.75	0.002059
2488.4	0.0018366
2498.04	0.0014587
2507.69	0.0017674
2517.33	0.00112138
2526.98	0.0009936
2536.62	0.0013573
2546.27	0.0016867
2555.91	0.0017095
2565.56	0.0019749
2575.2	0.0020713
2584.85	0.0015356
2594.49	0.0017778
2604.14	0.00224
2613.78	0.00278
2623.43	0.00299
2633.07	0.00327
2642.72	0.00266
2652.36	0.00218
2662.01	0.0016312
2671.65	0.0012156
2681.29	0.0014516
2690.94	0.0012141
2700.58	0.0010323
2710.23	0.0010397
2719.87	0.000989
2729.52	0.0010704
2739.16	0.000872
2748.81	0.000861
2758.45	0.000679
2768.1	0.000928
2777.74	0.0011253
2787.39	0.001038
2797.03	0.0010423
2806.68	0.00117751
2816.32	0.000844
2825.97	0.0014551
2835.61	0.0015833
2845.26	0.00112349
2854.9	0.0010075
2864.55	0.000746
2874.19	0.0013044
2883.84	0.0014655
2893.48	0.0015594
2903.12	0.0012744
2912.77	0.0018126
2922.41	0.00227
2932.06	0.0016992
2941.7	0.0019256
2951.35	0.0012485
2960.99	0.00114688
2970.64	0.0013638
2980.28	0.000833
2989.93	0.0010768
2999.57	0.0019598
3009.22	0.00212
3018.86	0.00267
3028.51	0.00376
3038.15	0.00426
3047.8	0.00505
3057.44	0.00365
3067.09	0.00382
3076.73	0.00469
3086.38	0.00286
3096.02	0.00226
3105.67	0.00218
3115.31	0.0012492
3124.95	0.0012396
3134.6	0.0014026
3144.24	0.0016706
3153.89	0.001822
3163.53	0.0013058
3173.18	0.0013578
3182.82	0.0016474
3192.47	0.0017967
3202.11	0.0018956
3211.76	0.0020551
3221.4	0.0017633
3231.05	0.001366
3240.69	0.00091
3250.34	0.0015544
3259.98	0.00115628
3269.63	0.0013962
3279.27	0.000843
3288.92	0.000957
3298.56	0.0010265
3308.21	0.000899
3317.85	0.000628
3327.49	0.0010132
3337.14	0.000846
3346.78	0.0009974
3356.43	0.001338
3366.07	0.0015266
3375.72	0.00211
3385.36	0.00421
3395.01	0.00912
3404.65	0.01965
3414.3	0.02355
3423.94	0.01855
3433.59	0.01194
3443.23	0.00524
3452.88	0.00305
3462.52	0.00273
3472.17	0.00404
3481.81	0.00568
3491.46	0.01094
3501.1	0.01525
3510.75	0.01529
3520.39	0.01309
3530.04	0.01108
3539.68	0.00888
3549.32	0.00403
3558.97	0.00235
3568.61	0.0010319
3578.26	0.0015259
3587.9	0.000417
3597.55	0.0018204
3607.19	0.00048
3616.84	0.00109849
3626.48	0.0013306
3636.13	0.00115541
3645.77	0.0014174
3655.42	0.00114453
3665.06	0.000903
3674.71	0.000771
3684.35	0.00116387
3694	0.00110278
3703.64	0.0012226
3713.29	0.0012203
3722.93	0.000752
3732.58	0.000795
3742.22	0.0011066
3751.86	0.00110978
3761.51	0.0013711
3771.15	0.000891
3780.8	0.0015013
3790.44	0.000866
3800.09	0.00036
3809.73	0.000751
3819.38	0.0013001
3829.02	0.0016553
3838.67	0.0023
3848.31	0.0010552
3857.96	0.0015304
3867.6	0.0016105
3877.25	0.0016178
3886.89	0.0015672
3896.54	0.0010127
3906.18	0.0014779
3915.83	0.000892
3925.47	0.0015912
3935.12	0.001509
3944.76	0.000967
3954.41	0.0016123
3964.05	0.0012843
3973.69	0.0016131
3983.34	0.000885
3992.98	0.000634
