Infrared Spectrum: 5-Bromoanthranalic acid
Formula: C 7 H 6 Br N O 2
CAS: 5794-88-7
State: gas
Origin: EPA-IR VAPOR PHASE LIBRARY
1/CM	ABSORBANCE
551.7	0.01065
563.274	0.01308
574.848	0.01201
586.421	0.00779
597.995	0.00633
609.569	0.00644
621.143	0.00863
632.717	0.00965
644.291	0.0075
655.864	0.0136
667.438	0.01276
679.012	0.00592
690.586	0.0056
702.16	0.00531
713.734	0.00404
725.307	0.00361
736.881	0.00378
748.455	0.00434
760.029	0.00404
771.603	0.00358
783.177	0.00436
794.75	0.00506
806.324	0.00843
817.898	0.01001
829.472	0.00507
841.046	0.00329
852.619	0.00322
864.193	0.00473
875.767	0.00414
887.341	0.0038
898.915	0.00401
910.489	0.00331
922.062	0.0029
933.636	0.00268
945.21	0.00266
956.784	0.00273
968.358	0.00256
979.932	0.00253
991.505	0.00256
1003.08	0.00263
1014.65	0.00269
1026.23	0.00324
1037.8	0.00534
1049.37	0.00973
1060.95	0.01346
1072.52	0.0137
1084.1	0.01129
1095.67	0.01308
1107.24	0.0183
1118.82	0.01261
1130.39	0.00759
1141.97	0.00831
1153.54	0.01899
1165.11	0.03128
1176.69	0.03203
1188.26	0.01412
1199.83	0.0065
1211.41	0.00503
1222.98	0.00466
1234.56	0.00563
1246.13	0.00693
1257.7	0.00633
1269.28	0.00475
1280.85	0.00455
1292.42	0.00767
1304	0.01112
1315.57	0.00957
1327.15	0.00812
1338.72	0.00934
1350.29	0.00826
1361.87	0.00618
1373.44	0.00791
1385.02	0.00656
1396.59	0.00495
1408.16	0.00616
1419.74	0.0051
1431.31	0.00314
1442.88	0.00311
1454.46	0.00446
1466.03	0.00777
1477.61	0.01712
1489.18	0.01645
1500.75	0.00531
1512.33	0.00342
1523.9	0.00308
1535.48	0.00341
1547.05	0.00546
1558.62	0.00969
1570.2	0.00831
1581.77	0.01071
1593.34	0.01252
1604.92	0.01443
1616.49	0.02562
1628.07	0.01575
1639.64	0.00573
1651.21	0.00338
1662.79	0.00339
1674.36	0.00411
1685.93	0.00477
1697.51	0.00565
1709.08	0.00945
1720.66	0.03278
1732.23	0.05977
1743.8	0.01994
1755.38	0.01109
1766.95	0.00624
1778.53	0.00387
1790.1	0.00411
1801.67	0.00317
1813.25	0.0021
1824.82	0.00179
1836.39	0.00181
1847.97	0.00177
1859.54	0.00171
1871.12	0.0018
1882.69	0.00191
1894.26	0.00181
1905.84	0.00158
1917.41	0.00158
1928.99	0.00156
1940.56	0.00144
1952.13	0.00131
1963.71	0.00126
1975.28	0.00121
1986.85	0.00119
1998.43	0.00117
2010	0.00119
2021.58	0.00118
2033.15	0.00116
2044.72	0.00108
2056.3	0.00102
2067.87	0.001
2079.44	0.0009697
2091.02	0.001
2102.59	0.00102
2114.17	0.0009848
2125.74	0.0009714
2137.31	0.0009957
2148.89	0.0009453
2160.46	0.0009617
2172.04	0.0009223
2183.61	0.000888
2195.18	0.0009067
2206.76	0.0009178
2218.33	0.0008972
2229.9	0.000886
2241.48	0.0008833
2253.05	0.0008697
2264.63	0.0008265
2276.2	0.0008343
2287.77	0.0008406
2299.35	0.0008742
2310.92	0.0009115
2322.5	0.0009804
2334.07	0.00105
2345.64	0.00104
2357.22	0.0009442
2368.79	0.0009096
2380.36	0.0008686
2391.94	0.0008705
2403.51	0.0008603
2415.09	0.0008565
2426.66	0.0008346
2438.23	0.0008721
2449.81	0.0009158
2461.38	0.0009215
2472.96	0.0009346
2484.53	0.0009049
2496.1	0.0008225
2507.68	0.0007981
2519.25	0.0007909
2530.82	0.0007602
2542.4	0.0007597
2553.97	0.0007861
2565.55	0.0008034
2577.12	0.0008334
2588.69	0.0008391
2600.27	0.0008489
2611.84	0.0008397
2623.41	0.0008941
2634.99	0.0008584
2646.56	0.0009
2658.14	0.0008559
2669.71	0.0008386
2681.28	0.0008294
2692.86	0.0008259
2704.43	0.0008726
2716.01	0.0008927
2727.58	0.000888
2739.15	0.0008662
2750.73	0.0008439
2762.3	0.0008632
2773.87	0.0009047
2785.45	0.0009312
2797.02	0.0008686
2808.6	0.000886
2820.17	0.0008714
2831.74	0.0009039
2843.32	0.0009778
2854.89	0.0009471
2866.47	0.00102
2878.04	0.00106
2889.61	0.00106
2901.19	0.00105
2912.76	0.00103
2924.33	0.0009541
2935.91	0.0009632
2947.48	0.0009338
2959.06	0.0009077
2970.63	0.0009583
2982.2	0.0009468
2993.78	0.0009719
3005.35	0.00109
3016.92	0.00136
3028.5	0.00181
3040.07	0.00205
3051.65	0.00193
3063.22	0.00208
3074.79	0.00219
3086.37	0.00156
3097.94	0.00133
3109.52	0.00126
3121.09	0.00107
3132.66	0.0009619
3144.24	0.0009864
3155.81	0.0009778
3167.38	0.00105
3178.96	0.0009894
3190.53	0.0009695
3202.11	0.00103
3213.68	0.0009544
3225.25	0.0009709
3236.83	0.0009217
3248.4	0.0008985
3259.98	0.0008988
3271.55	0.0009026
3283.12	0.0009683
3294.7	0.00102
3306.27	0.00113
3317.84	0.00126
3329.42	0.00141
3340.99	0.00165
3352.57	0.00188
3364.14	0.00219
3375.71	0.00445
3387.29	0.01123
3398.86	0.00886
3410.43	0.00321
3422.01	0.00217
3433.58	0.00241
3445.16	0.00223
3456.73	0.00174
3468.3	0.00171
3479.88	0.00206
3491.45	0.00284
3503.03	0.00409
3514.6	0.00575
3526.17	0.00595
3537.75	0.00405
3549.32	0.0024
3560.89	0.00295
3572.47	0.0093
3584.04	0.01914
3595.62	0.0082
3607.19	0.00176
3618.76	0.00122
3630.34	0.00108
3641.91	0.00107
3653.49	0.0009984
3665.06	0.00102
3676.63	0.00104
3688.21	0.001
3699.78	0.000917
3711.35	0.0008867
3722.93	0.0009155
3734.5	0.000882
3746.08	0.0008325
3757.65	0.0008598
3769.22	0.0008462
3780.8	0.0008017
3792.37	0.0008903
3803.94	0.0008526
3815.52	0.0008154
3827.09	0.0007945
3838.67	0.0008774
3850.24	0.0007798
3861.81	0.0008412
3873.39	0.0008693
3884.96	0.0008853
3896.54	0.0008467
3908.11	0.0009012
3919.68	0.0009694
3931.26	0.0009707
3942.83	0.0009416
3954.4	0.0008986
3965.98	0.0009067
3977.55	0.0008988
3989.13	0.0009034
4000.7	0.0008678
