Infrared Spectrum: CARBANILIC ACID, n-DODECYL ESTER
Formula: C19 H31 N O2
CAS: 5796-07-6
State: SOLID (2.0 mg / 100 mg KBr)
Melting point: 65-67 C
Class: COBLENTZ
Instrument: Not specified, most likely a grating spectrometer.
Sampling: TRANSMISSION
Resolution: 4
Origin: CITRUS EXPERIMENT STATION, UNIVERSITY OF FLORIDA (G. EDWARDS)
MICROMETERS	TRANSMITTANCE
2.02	0.897
2.05314	0.895
2.08629	0.893
2.11943	0.895
2.15257	0.897
2.18571	0.895
2.21886	0.89
2.252	0.889
2.28514	0.89
2.31829	0.891
2.35143	0.893
2.38457	0.894
2.41771	0.897
2.45086	0.898
2.484	0.897
2.51714	0.895
2.55029	0.898
2.58343	0.901
2.61657	0.902
2.64971	0.901
2.68286	0.901
2.716	0.902
2.74914	0.906
2.78228	0.911
2.81543	0.91
2.84857	0.906
2.88171	0.902
2.91486	0.893
2.948	0.87
2.98114	0.765
3.01428	0.367
3.04743	0.604
3.08057	0.81
3.11371	0.842
3.14686	0.861
3.18	0.834
3.21314	0.859
3.24628	0.831
3.27943	0.841
3.31257	0.853
3.34571	0.799
3.37886	0.539
3.412	0.372
3.44514	0.659
3.47828	0.524
3.51143	0.748
3.54457	0.859
3.57771	0.862
3.61086	0.898
3.644	0.906
3.67714	0.909
3.71028	0.909
3.74343	0.909
3.77657	0.909
3.80971	0.91
3.84286	0.915
3.876	0.917
3.90914	0.917
3.94228	0.919
3.97543	0.919
4.00857	0.921
4.04171	0.921
4.07485	0.921
4.108	0.922
4.14114	0.922
4.17428	0.919
4.20743	0.915
4.24057	0.914
4.27371	0.917
4.30685	0.919
4.34	0.922
4.37314	0.922
4.40628	0.922
4.43943	0.922
4.47257	0.922
4.50571	0.922
4.53885	0.922
4.572	0.922
4.60514	0.922
4.63828	0.923
4.67143	0.925
4.70457	0.927
4.73771	0.922
4.77085	0.922
4.804	0.925
4.83714	0.923
4.87028	0.923
4.90343	0.922
4.93657	0.922
4.96971	0.921
5.00285	0.919
5.036	0.921
5.06914	0.919
5.10228	0.91
5.13543	0.915
5.16857	0.918
5.20171	0.918
5.23485	0.915
5.268	0.913
5.30114	0.907
5.33428	0.901
5.36742	0.911
5.40057	0.911
5.43371	0.909
5.46685	0.905
5.5	0.895
5.53314	0.882
5.56628	0.882
5.59942	0.877
5.63257	0.878
5.66571	0.867
5.69885	0.818
5.732	0.767
5.76514	0.676
5.79828	0.502
5.83142	0.38
5.86457	0.226
5.89771	0.34
5.93085	0.631
5.964	0.782
5.99714	0.795
6.03028	0.842
6.06342	0.858
6.09657	0.859
6.12971	0.849
6.16285	0.754
6.196	0.635
6.22914	0.51
6.26228	0.408
6.29542	0.742
6.32857	0.823
6.36171	0.767
6.39485	0.648
6.428	0.371
6.46114	0.323
6.49428	0.59
6.52742	0.71
6.56057	0.75
6.59371	0.726
6.62685	0.611
6.65999	0.683
6.69314	0.67
6.72628	0.719
6.75942	0.584
6.79257	0.566
6.82571	0.722
6.85885	0.704
6.89199	0.542
6.92514	0.36
6.95828	0.68
6.99142	0.781
7.02457	0.819
7.05771	0.835
7.09085	0.838
7.12399	0.827
7.15714	0.791
7.19028	0.799
7.22342	0.799
7.25657	0.791
7.28971	0.811
7.32285	0.813
7.35599	0.815
7.38914	0.815
7.42228	0.797
7.45542	0.775
7.48857	0.73
7.52171	0.64
7.55485	0.441
7.58799	0.381
7.62114	0.631
7.65428	0.524
7.68742	0.656
7.72057	0.783
7.75371	0.799
7.78685	0.811
7.81999	0.806
7.85314	0.79
7.88628	0.734
7.91942	0.666
7.95256	0.607
7.98571	0.54
8.01885	0.404
8.05199	0.166
8.08514	0.101
8.11828	0.214
8.15142	0.341
8.18456	0.563
8.21771	0.648
8.25085	0.718
8.28399	0.754
8.31714	0.787
8.35028	0.815
8.38342	0.829
8.41656	0.829
8.44971	0.793
8.48285	0.802
8.51599	0.842
8.54914	0.853
8.58228	0.853
8.61542	0.83
8.64856	0.845
8.68171	0.869
8.71485	0.87
8.74799	0.871
8.78114	0.873
8.81428	0.873
8.84742	0.865
8.88056	0.858
8.91371	0.858
8.94685	0.851
8.97999	0.826
9.01314	0.801
9.04628	0.763
9.07942	0.71
9.11256	0.7
9.14571	0.751
9.17885	0.785
9.21199	0.746
9.24513	0.762
9.27828	0.773
9.31142	0.723
9.34456	0.602
9.37771	0.471
9.41085	0.425
9.44399	0.51
9.47713	0.539
9.51028	0.595
9.54342	0.678
9.57656	0.77
9.60971	0.782
9.64285	0.791
9.67599	0.778
9.70913	0.715
9.74228	0.671
9.77542	0.699
9.80856	0.736
9.84171	0.791
9.87485	0.837
9.90799	0.854
9.94113	0.861
9.97428	0.861
10.0074	0.855
10.0406	0.794
10.0737	0.825
10.1068	0.862
10.14	0.859
10.1731	0.866
10.2063	0.867
10.2394	0.867
10.2726	0.866
10.3057	0.863
10.3388	0.859
10.372	0.831
10.4051	0.85
10.4383	0.861
10.4714	0.87
10.5046	0.878
10.5377	0.882
10.5708	0.885
10.604	0.891
10.6371	0.898
10.6703	0.898
10.7034	0.895
10.7366	0.897
10.7697	0.897
10.8028	0.894
10.836	0.893
10.8691	0.894
10.9023	0.882
10.9354	0.882
10.9686	0.879
11.0017	0.854
11.0348	0.817
11.068	0.853
11.1011	0.885
11.1343	0.901
11.1674	0.901
11.2006	0.889
11.2337	0.89
11.2668	0.893
11.3	0.893
11.3331	0.893
11.3663	0.891
11.3994	0.891
11.4326	0.89
11.4657	0.894
11.4988	0.899
11.532	0.901
11.5651	0.901
11.5983	0.899
11.6314	0.898
11.6646	0.893
11.6977	0.879
11.7308	0.866
11.764	0.845
11.7971	0.831
11.8303	0.839
11.8634	0.831
11.8966	0.818
11.9297	0.815
11.9628	0.854
11.996	0.869
12.0291	0.874
12.0623	0.881
12.0954	0.886
12.1286	0.893
12.1617	0.898
12.1948	0.905
12.228	0.909
12.2611	0.909
12.2943	0.909
12.3274	0.909
12.3606	0.906
12.3937	0.894
12.4268	0.886
12.46	0.882
12.4931	0.883
12.5263	0.883
12.5594	0.878
12.5926	0.881
12.6257	0.883
12.6588	0.883
12.692	0.886
12.7251	0.885
12.7583	0.885
12.7914	0.879
12.8246	0.87
12.8577	0.845
12.8908	0.807
12.924	0.71
12.9571	0.711
12.9903	0.75
13.0234	0.762
13.0566	0.754
13.0897	0.723
13.1228	0.718
13.156	0.736
13.1891	0.744
13.2223	0.736
13.2554	0.711
13.2886	0.662
13.3217	0.592
13.3548	0.562
13.388	0.562
13.4211	0.632
13.4543	0.694
13.4874	0.74
13.5206	0.786
13.5537	0.803
13.5868	0.813
13.62	0.817
13.6531	0.817
13.6863	0.807
13.7194	0.799
13.7526	0.787
13.7857	0.783
13.8188	0.774
13.852	0.755
13.8851	0.753
13.9183	0.775
13.9514	0.781
13.9846	0.777
14.0177	0.77
14.0508	0.754
14.084	0.746
14.1171	0.727
14.1503	0.711
14.1834	0.696
14.2166	0.688
14.2497	0.683
14.2828	0.68
14.316	0.679
14.3491	0.683
14.3823	0.683
14.4154	0.683
14.4486	0.699
14.4817	0.711
14.5148	0.726
14.548	0.746
14.5811	0.755
14.6143	0.761
14.6474	0.766
14.6806	0.77
14.7137	0.773
14.7468	0.775
14.78	0.774
14.8131	0.775
14.8463	0.791
14.8794	0.791
14.9126	0.762
14.9457	0.762
14.9788	0.794
15.012	0.826
