Infrared Spectrum: MESITYL-ACETOMESITYLENE
Formula: C20 H24 O
CAS: 5796-78-1
State: SOLID (1.0% IN KBr PELLET)
Class: COBLENTZ
Instrument: Not specified, most likely a prism, grating, or hybrid spectrometer.
Sampling: TRANSMISSION
Path length: 0.0355 CM THICK
Resolution: 4
Origin: ANDERSON PHYSICAL LABORATORY
1/CM	TRANSMITTANCE
674.875	0.838
683.291	0.7762
691.708	0.6518
700.124	0.8121
708.541	0.649
716.957	0.911
725.374	0.94
733.79	0.944
742.207	0.914
750.623	0.851
759.04	0.892
767.456	0.953
775.873	0.962
784.289	0.958
792.706	0.947
801.122	0.941
809.539	0.925
817.955	0.812
826.372	0.902
834.788	0.898
843.205	0.835
851.621	0.3623
860.038	0.2109
868.454	0.7627
876.871	0.896
885.287	0.899
893.704	0.8749
902.12	0.875
910.537	0.919
918.953	0.925
927.37	0.922
935.786	0.889
944.203	0.835
952.619	0.871
961.036	0.872
969.452	0.871
977.869	0.856
986.285	0.784
994.702	0.535
1003.12	0.307
1011.53	0.593
1019.95	0.622
1028.37	0.626
1036.78	0.479
1045.2	0.5739
1053.62	0.712
1062.03	0.586
1070.45	0.149
1078.87	0.451
1087.28	0.772
1095.7	0.887
1104.12	0.91
1112.53	0.91
1120.95	0.908
1129.37	0.902
1137.78	0.88
1146.2	0.841
1154.62	0.733
1163.03	0.632
1171.45	0.232
1179.86	0.871
1188.28	0.91
1196.7	0.899
1205.11	0.8421
1213.53	0.647
1221.95	0.811
1230.36	0.793
1238.78	0.736
1247.2	0.554
1255.61	0.505
1264.03	0.2319
1272.45	0.052
1280.86	0.1749
1289.28	0.338
1297.7	0.475
1306.11	0.638
1314.53	0.79
1322.95	0.817
1331.36	0.85
1339.78	0.853
1348.19	0.851
1356.61	0.839
1365.03	0.818
1373.44	0.76
1381.86	0.5081
1390.28	0.4269
1398.69	0.718
1407.11	0.739
1415.53	0.689
1423.94	0.604
1432.36	0.44
1440.78	0.404
1449.19	0.367
1457.61	0.386
1466.03	0.443
1474.44	0.527
1482.86	0.454
1491.28	0.601
1499.69	0.71
1508.11	0.733
1516.52	0.737
1524.94	0.739
1533.36	0.734
1541.77	0.709
1550.19	0.697
1558.61	0.649
1567.02	0.553
1575.44	0.509
1583.86	0.562
1592.27	0.511
1600.69	0.239
1609.11	0.0921
1617.52	0.074
1625.94	0.257
1634.36	0.155
1642.77	0.047
1651.19	0.065
1659.61	0.29
1668.02	0.5381
1676.44	0.751
1684.85	0.82
1693.27	0.877
1701.69	0.89
1710.1	0.931
1718.52	0.931
1726.94	0.92
1735.35	0.889
1743.77	0.935
1752.19	0.935
1760.6	0.938
1769.02	0.932
1777.44	0.952
1785.85	0.95
1794.27	0.952
1802.69	0.97
1811.1	0.97
1819.52	0.965
1827.94	0.97
1836.35	0.976
1844.77	0.974
1853.18	0.973
1861.6	0.97
1870.02	0.958
1878.43	0.947
1886.85	0.946
1895.27	0.947
1903.68	0.95
1912.1	0.952
1920.52	0.95
1928.93	0.952
1937.35	0.952
1945.77	0.95
1954.18	0.95
1962.6	0.949
1971.02	0.952
1979.43	0.955
1987.85	0.955
1996.27	0.952
2004.68	0.952
2013.1	0.952
2021.51	0.952
2029.93	0.952
2038.35	0.95
2046.76	0.95
2055.18	0.95
2063.6	0.95
2072.01	0.9484
2080.43	0.9423
2088.85	0.9402
2097.26	0.94
2105.68	0.938
2114.1	0.938
2122.51	0.937
2130.93	0.9348
2139.35	0.9303
2147.76	0.929
2156.18	0.9307
2164.6	0.932
2173.01	0.932
2181.43	0.931
2189.84	0.925
2198.26	0.922
2206.68	0.9224
2215.09	0.923
2223.51	0.923
2231.93	0.922
2240.34	0.9212
2248.76	0.9193
2257.18	0.919
2265.59	0.917
2274.01	0.916
2282.43	0.914
2290.84	0.914
2299.26	0.9104
2307.68	0.9061
2316.09	0.9026
2324.51	0.901
2332.93	0.898
2341.34	0.896
2349.76	0.895
2358.17	0.895
2366.59	0.8965
2375.01	0.898
2383.42	0.898
2391.84	0.895
2400.26	0.8877
2408.67	0.879
2417.09	0.878
2425.51	0.88
2433.92	0.88
2442.34	0.88
2450.76	0.8784
2459.17	0.877
2467.59	0.877
2476.01	0.877
2484.42	0.877
2492.84	0.878
2501.26	0.8793
2509.67	0.878
2518.09	0.878
2526.5	0.878
2534.92	0.877
2543.34	0.877
2551.75	0.875
2560.17	0.8749
2568.59	0.874
2577	0.872
2585.42	0.8711
2593.84	0.8707
2602.25	0.869
2610.67	0.868
2619.09	0.8662
2627.5	0.863
2635.92	0.8611
2644.34	0.8563
2652.75	0.8531
2661.17	0.8496
2669.59	0.8446
2678	0.8413
2686.42	0.839
2694.83	0.838
2703.25	0.8355
2711.67	0.8328
2720.08	0.826
2728.5	0.8069
2736.92	0.7965
2745.33	0.794
2753.75	0.797
2762.17	0.8005
2770.58	0.802
2779	0.8
2787.42	0.7969
2795.83	0.7779
2804.25	0.7554
2812.67	0.7239
2821.08	0.6992
2829.5	0.6422
2837.92	0.5774
2846.33	0.5458
2854.75	0.5379
2863.16	0.5343
2871.58	0.5291
2880	0.5048
2888.41	0.4647
2896.83	0.4254
2905.25	0.3916
2913.66	0.3687
2922.08	0.368
2930.5	0.368
2938.91	0.3693
2947.33	0.3839
2955.75	0.4077
2964.16	0.4334
2972.58	0.4462
2981	0.4535
2989.41	0.4678
2997.83	0.5003
3006.25	0.5433
3014.66	0.5884
3023.08	0.6271
3031.49	0.6477
3039.91	0.6768
3048.33	0.6994
3056.74	0.72
3065.16	0.7392
3073.58	0.7508
3081.99	0.7609
3090.41	0.7647
3098.83	0.7724
3107.24	0.7802
3115.66	0.782
3124.08	0.7842
3132.49	0.7865
3140.91	0.79
3149.33	0.791
3157.74	0.791
3166.16	0.791
3174.58	0.7902
3182.99	0.788
3191.41	0.7847
3199.82	0.782
3208.24	0.7766
3216.66	0.7729
3225.07	0.7697
3233.49	0.7631
3241.91	0.7547
3250.32	0.7508
3258.74	0.746
3267.16	0.7454
3275.57	0.745
3283.99	0.746
3292.41	0.748
3300.82	0.748
3309.24	0.748
3317.66	0.7478
3326.07	0.7442
3334.49	0.7424
3342.91	0.7391
3351.32	0.7306
3359.74	0.7232
3368.15	0.717
3376.57	0.7103
3384.99	0.7038
3393.4	0.7006
3401.82	0.6973
3410.24	0.6856
3418.65	0.6816
3427.07	0.6795
3435.49	0.679
3443.9	0.676
3452.32	0.676
3460.74	0.674
3469.15	0.674
3477.57	0.676
3485.99	0.6792
3494.4	0.683
3502.82	0.688
3511.24	0.694
3519.65	0.695
3528.07	0.695
3536.48	0.6978
3544.9	0.7031
3553.32	0.7093
3561.73	0.7111
3570.15	0.7128
3578.57	0.716
3586.98	0.7183
3595.4	0.7216
3603.82	0.7291
3612.23	0.7361
3620.65	0.7377
3629.07	0.74
3637.48	0.742
3645.9	0.7432
3654.32	0.745
3662.73	0.746
3671.15	0.7477
3679.57	0.7481
3687.98	0.7497
3696.4	0.751
3704.81	0.751
3713.23	0.751
3721.65	0.7502
3730.06	0.749
3738.48	0.748
3746.9	0.748
3755.31	0.748
3763.73	0.7467
3772.15	0.746
3780.56	0.745
3788.98	0.7426
3797.4	0.7406
3805.81	0.74
3814.23	0.7386
3822.65	0.7365
3831.06	0.736
3839.48	0.7341
3847.9	0.734
3856.31	0.733
3864.73	0.7315
3873.14	0.731
3881.56	0.73
3889.98	0.728
3898.39	0.7272
3906.81	0.727
3915.23	0.724
3923.64	0.7229
3932.06	0.7212
3940.48	0.719
3948.89	0.7187
3957.31	0.7169
3965.73	0.716
3974.14	0.716
3982.56	0.718
