Infrared Spectrum: PYRIMETHAMINE
Formula: C12 H13 Cl N4
CAS: 58-14-0
State: SOLID (1 mg / 200 mg KBr DISC)
Melting point: 233-234 C
Class: COBLENTZ III
Instrument: PERKIN-ELMER 21 (GRATING)
Instrument parameters: FILTER AT ABOUT 10 MICRONS
Sampling: TRANSMISSION
Path length: 0.055 CM (THICKNESS)
Resolution: 2
1/CM	TRANSMITTANCE
4000	0.713
3991	0.714
3982	0.715
3973	0.7161
3964	0.7175
3955	0.7194
3946	0.7212
3937	0.7234
3928	0.7253
3919	0.7272
3910	0.7278
3901	0.728
3892	0.7282
3883	0.7284
3874	0.7286
3865	0.7291
3856	0.73
3847	0.7308
3838	0.7318
3829	0.7328
3820	0.7337
3811	0.7346
3802	0.7356
3793	0.7371
3784	0.7388
3775	0.7406
3766	0.7424
3757	0.7442
3748	0.746
3739	0.7468
3730	0.7476
3721	0.7486
3712	0.7495
3703	0.7504
3694	0.7511
3685	0.7517
3676	0.7521
3667	0.7528
3658	0.7533
3649	0.7538
3640	0.7542
3631	0.7544
3622	0.7546
3613	0.7545
3604	0.7538
3595	0.7519
3586	0.7484
3577	0.7412
3568	0.7343
3559	0.7286
3550	0.7238
3541	0.719
3532	0.7126
3523	0.7054
3514	0.6962
3505	0.6841
3496	0.6695
3487	0.6491
3478	0.6249
3469	0.5639
3460	0.4979
3451	0.4315
3442	0.3755
3433	0.374
3424	0.3747
3415	0.3889
3406	0.404
3397	0.4047
3388	0.3825
3379	0.3708
3370	0.3847
3361	0.4201
3352	0.456
3343	0.466
3334	0.4232
3325	0.3709
3316	0.3184
3307	0.281
3298	0.2807
3289	0.3015
3280	0.3299
3271	0.3586
3262	0.3873
3253	0.4162
3244	0.4373
3235	0.4384
3226	0.4186
3217	0.385
3208	0.3514
3199	0.3176
3190	0.2835
3181	0.2493
3172	0.2149
3163	0.1779
3154	0.1594
3145	0.1562
3136	0.1563
3127	0.1648
3118	0.1877
3109	0.2107
3100	0.2339
3091	0.2572
3082	0.2806
3073	0.3042
3064	0.3278
3055	0.3516
3046	0.3757
3037	0.3998
3028	0.4241
3019	0.4484
3010	0.473
3001	0.4977
2992	0.5117
2983	0.49
2974	0.4412
2965	0.4319
2956	0.4828
2947	0.5283
2938	0.5317
2929	0.5327
2920	0.5379
2911	0.554
2902	0.572
2893	0.5901
2884	0.6047
2875	0.6094
2866	0.619
2857	0.6304
2848	0.6419
2839	0.6542
2830	0.6732
2821	0.6871
2812	0.6861
2803	0.6856
2794	0.6868
2785	0.6914
2776	0.6932
2767	0.6925
2758	0.695
2749	0.6989
2740	0.7046
2731	0.711
2722	0.7174
2713	0.7241
2704	0.7308
2695	0.7368
2686	0.7419
2677	0.7458
2668	0.7462
2659	0.7446
2650	0.7441
2641	0.7455
2632	0.751
2623	0.7565
2614	0.7619
2605	0.7675
2596	0.7732
2587	0.7754
2578	0.7771
2569	0.7776
2560	0.7774
2551	0.7787
2542	0.7825
2533	0.7865
2524	0.7901
2515	0.794
2506	0.7958
2497	0.7971
2488	0.7985
2479	0.7997
2470	0.8008
2461	0.8026
2452	0.8056
2443	0.8084
2434	0.8101
2425	0.8111
2416	0.8101
2407	0.8096
2398	0.8098
2389	0.8107
2380	0.8128
2371	0.8151
2362	0.8171
2353	0.8193
2344	0.8198
2335	0.8194
2326	0.8182
2317	0.8168
2308	0.8158
2299	0.8161
2290	0.8164
2281	0.8161
2272	0.8154
2263	0.8149
2254	0.815
2245	0.8151
2236	0.8156
2227	0.8158
2218	0.8193
2209	0.8215
2200	0.8218
2191	0.8221
2182	0.8225
2173	0.823
2164	0.8237
2155	0.8249
2146	0.8259
2137	0.8274
2128	0.8292
2119	0.831
2110	0.8328
2101	0.8346
2092	0.8364
2083	0.8382
2074	0.8401
2065	0.8418
2056	0.8425
2047	0.8375
2038	0.8361
2029	0.8386
2020	0.8413
2011	0.8441
2002	0.847
1993	0.849
1984	0.8507
1975	0.8523
1966	0.8541
1957	0.856
1948	0.8578
1939	0.8598
1930	0.859
1921	0.8461
1912	0.8356
1903	0.8393
1894	0.8499
1885	0.8545
1876	0.8592
1867	0.863
1858	0.8645
1849	0.8658
1840	0.8661
1831	0.8664
1822	0.8654
1813	0.8628
1804	0.8578
1795	0.8518
1786	0.8471
1777	0.8447
1768	0.8478
1759	0.8516
1750	0.845
1741	0.837
1732	0.8327
1723	0.8309
1714	0.8197
1705	0.8036
1696	0.7571
1687	0.6549
1678	0.5403
1669	0.4383
1660	0.301
1651	0.1452
1642	0.1263
1633	0.0621
1624	0.0857
1615	0.3068
1606	0.4165
1597	0.37
1588	0.1653
1579	0.0571
1570	0.0517
1561	0.05
1552	0.1167
1543	0.1944
1534	0.479
1525	0.5615
1516	0.6303
1507	0.6449
1498	0.6291
1489	0.4662
1480	0.264
1471	0.4255
1462	0.2621
1453	0.2051
1444	0.055
1435	0.0493
1426	0.1563
1417	0.3823
1408	0.336
1399	0.4165
1390	0.5143
1381	0.5924
1372	0.5834
1363	0.5986
1354	0.6604
1345	0.6794
1336	0.6846
1327	0.6935
1318	0.6965
1309	0.7056
1300	0.693
1291	0.6388
1282	0.5221
1273	0.5538
1264	0.6407
1255	0.6693
1246	0.6994
1237	0.6601
1228	0.6343
1219	0.6982
1210	0.7203
1201	0.7253
1192	0.7275
1183	0.7248
1174	0.6971
1165	0.6904
1156	0.7046
1147	0.7143
1138	0.7055
1129	0.6808
1120	0.6519
1111	0.6654
1102	0.6362
1093	0.5454
1084	0.4202
1075	0.6867
1066	0.7128
1057	0.6991
1048	0.7306
1039	0.7365
1030	0.713
1021	0.6228
1012	0.4088
1003	0.6401
994	0.5935
985	0.5629
976	0.711
967	0.735
958	0.7536
949	0.7396
940	0.7411
931	0.7461
922	0.6528
913	0.7388
904	0.7555
895	0.7571
886	0.7543
877	0.7575
868	0.7591
859	0.7634
850	0.7561
841	0.6726
832	0.3864
823	0.4952
814	0.4918
805	0.6326
796	0.6828
787	0.7403
778	0.759
769	0.7551
760	0.7389
751	0.6525
742	0.6769
733	0.6876
724	0.5812
715	0.6132
706	0.588
697	0.5665
688	0.5671
679	0.5792
670	0.606
661	0.6468
