Infrared Spectrum: 17(Alpha)-METHYL-Delta^4-ANDROSTEN-17-(Beta)-OL-3-ONE
Formula: C20 H30 O2
CAS: 58-18-4
State: SOLID (NUJOL MULL)
Melting point: 161-166 C
Class: COBLENTZ III
Instrument: PERKIN-ELMER 21 (GRATING)
Resolution: 2
Origin: THE SQUIBB INSTITUTE FOR MEDICAL RESEARCH
1/CM	TRANSMITTANCE
662	0.8445
671	0.876
680	0.7092
689	0.916
698	0.9182
707	0.9148
716	0.9628
725	0.9676
734	0.9593
743	0.9374
752	0.9276
761	0.9525
770	0.9425
779	0.874
788	0.8894
797	0.9363
806	0.9448
815	0.9418
824	0.9298
833	0.8544
842	0.9046
851	0.9122
860	0.8596
869	0.4779
878	0.7318
887	0.9192
896	0.9227
905	0.9023
914	0.732
923	0.6535
932	0.6295
941	0.6357
950	0.5455
959	0.8249
968	0.7955
977	0.8582
986	0.8551
995	0.826
1004	0.8727
1013	0.8626
1022	0.8522
1031	0.8424
1040	0.8578
1049	0.7868
1058	0.8317
1067	0.7315
1076	0.6959
1085	0.4397
1094	0.5966
1103	0.492
1112	0.7216
1121	0.6213
1130	0.5709
1139	0.5531
1148	0.3584
1157	0.3956
1166	0.6441
1175	0.7027
1184	0.5098
1193	0.6452
1202	0.7951
1211	0.7429
1220	0.5653
1229	0.3693
1238	0.5978
1247	0.8015
1256	0.8136
1265	0.7129
1274	0.5038
1283	0.6723
1292	0.5506
1301	0.7393
1310	0.8445
1319	0.7505
1328	0.6457
1337	0.7142
1346	0.5408
1355	0.4783
1364	0.4159
1373	0.4733
1382	0.5611
1391	0.6528
1400	0.7104
1409	0.6342
1418	0.5391
1427	0.5121
1436	0.6406
1445	0.5999
1454	0.8093
1463	0.7859
1472	0.8578
1481	0.8827
1490	0.8876
1499	0.8918
1508	0.8964
1517	0.8948
1526	0.8872
1535	0.8822
1544	0.8766
1553	0.8492
1562	0.8372
1571	0.8299
1580	0.8173
1589	0.7707
1598	0.6652
1607	0.4375
1616	0.595
1625	0.5826
1634	0.3653
1643	0.1283
1652	0.0873
1661	0.0765
1670	0.2566
1679	0.5844
1688	0.7143
1697	0.7693
1706	0.8175
1715	0.8624
1724	0.8627
1733	0.8588
1742	0.8856
1751	0.9095
1760	0.9217
1769	0.9289
1778	0.9328
1787	0.9354
1796	0.9364
1805	0.9366
1814	0.9383
1823	0.9473
1832	0.9466
1841	0.9453
1850	0.9439
1859	0.9425
1868	0.9412
1877	0.9402
1886	0.9396
1895	0.9396
1904	0.9406
1913	0.9409
1922	0.9397
1931	0.9378
1940	0.9365
1949	0.9351
1958	0.9332
1967	0.9318
1976	0.9307
1985	0.9301
1994	0.9296
2003	0.9292
2012	0.9287
2021	0.9278
2030	0.9268
2039	0.9259
2048	0.9249
2057	0.9239
2066	0.9229
2075	0.9223
2084	0.922
2093	0.922
2102	0.9228
2111	0.9237
2120	0.9242
2129	0.9235
2138	0.9228
2147	0.922
2156	0.9211
2165	0.9202
2174	0.9189
2183	0.9177
2192	0.9159
2201	0.9139
2210	0.9119
2219	0.9101
2228	0.9082
2237	0.9071
2246	0.9062
2255	0.9054
2264	0.9039
2273	0.9019
2282	0.8999
2291	0.8979
2300	0.8959
2309	0.8943
2318	0.893
2327	0.8917
2336	0.8908
2345	0.8904
2354	0.89
2363	0.8896
2372	0.8893
2381	0.8891
2390	0.8887
2399	0.8882
2408	0.8851
2417	0.8793
2426	0.8731
2435	0.8704
2444	0.8699
2453	0.8699
2462	0.8698
2471	0.8696
2480	0.8694
2489	0.8687
2498	0.868
2507	0.8673
2516	0.8666
2525	0.8658
2534	0.865
2543	0.8643
2552	0.8637
2561	0.8615
2570	0.8575
2579	0.8525
2588	0.8496
2597	0.8481
2606	0.8466
2615	0.8449
2624	0.8431
2633	0.8411
2642	0.8392
2651	0.8372
2660	0.8349
2669	0.832
2678	0.829
2687	0.8257
2696	0.8218
2705	0.818
2714	0.8142
2723	0.8121
2732	0.8105
2741	0.8091
2750	0.803
2759	0.7943
2768	0.784
2777	0.7762
2786	0.7726
2795	0.7728
2804	0.7791
2813	0.781
2822	0.7787
2831	0.7722
2840	0.7634
2849	0.7555
2858	0.7465
2867	0.7317
2876	0.717
2885	0.7023
2894	0.6846
2903	0.6629
2912	0.644
2921	0.6341
2930	0.626
2939	0.6201
2948	0.6178
2957	0.6604
2966	0.7146
2975	0.7345
2984	0.7444
2993	0.7479
3002	0.749
3011	0.7495
3020	0.7496
3029	0.7492
3038	0.7482
3047	0.7468
3056	0.7456
3065	0.7443
3074	0.7429
3083	0.7408
3092	0.7376
3101	0.7345
3110	0.7311
3119	0.7277
3128	0.724
3137	0.7195
3146	0.715
3155	0.7105
3164	0.7057
3173	0.7004
3182	0.695
3191	0.6876
3200	0.6796
3209	0.671
3218	0.662
3227	0.6525
3236	0.6398
3245	0.627
3254	0.6156
3263	0.6046
3272	0.5925
3281	0.5796
3290	0.5675
3299	0.5545
3308	0.5301
3317	0.493
3326	0.4068
3335	0.3257
3344	0.2944
3353	0.2759
3362	0.2569
3371	0.2447
3380	0.2314
3389	0.2206
3398	0.2188
3407	0.2208
3416	0.229
3425	0.2379
3434	0.2634
3443	0.3371
3452	0.4106
3461	0.4838
3470	0.5564
3479	0.5932
3488	0.5951
3497	0.5972
3506	0.5993
3515	0.6015
3524	0.6037
3533	0.6082
3542	0.6285
3551	0.6548
3560	0.6807
3569	0.7066
3578	0.7323
3587	0.7528
3596	0.7568
3605	0.7583
3614	0.7587
3623	0.7589
3632	0.7591
3641	0.7586
3650	0.7578
3659	0.7569
3668	0.7559
3677	0.7549
3686	0.7536
3695	0.7524
3704	0.7511
3713	0.7496
3722	0.7481
3731	0.7466
3740	0.7452
3749	0.7437
3758	0.7422
3767	0.7407
3776	0.739
3785	0.7373
3794	0.7356
3803	0.7339
3812	0.7322
3821	0.7305
3830	0.729
3839	0.7274
3848	0.7258
3857	0.7243
3866	0.7228
3875	0.7212
3884	0.7197
3893	0.7182
3902	0.7167
3911	0.7152
3920	0.7137
3929	0.7122
3938	0.7107
3947	0.7092
3956	0.7077
3965	0.7062
3974	0.7047
3983	0.7033
3992	0.7018
