Infrared Spectrum: BENZODIAZEPINE-4-OXIDE, 7-CHLORO-2-METHYLAMINO-5-PHENYL-3H-1,4-
Formula: C16 H14 Cl N3 O
CAS: 58-25-3
State: SOLUTION 1% (CS2 FOR 2-14.9 microns, AND C2Cl4 FOR 3.5-7.4 microns)
Melting point: 236-236.5 C
Class: COBLENTZ III
Instrument: PERKIN-ELMER 21 (GRATING)
Instrument parameters: FILTER AT ABOUT 10 MICRONS
Sampling: TRANSMISSION
Path length: 0.1 CM
Resolution: 2
1/CM	TRANSMITTANCE
4000	0.9603
3991	0.9598
3982	0.9592
3973	0.9584
3964	0.9574
3955	0.9567
3946	0.9568
3937	0.957
3928	0.9571
3919	0.9571
3910	0.9575
3901	0.9578
3892	0.9582
3883	0.9585
3874	0.9588
3865	0.9591
3856	0.9593
3847	0.9594
3838	0.9595
3829	0.9596
3820	0.9598
3811	0.9598
3802	0.96
3793	0.96
3784	0.96
3775	0.9601
3766	0.9601
3757	0.9601
3748	0.9601
3739	0.96
3730	0.9598
3721	0.9598
3712	0.9596
3703	0.9596
3694	0.9596
3685	0.9592
3676	0.9577
3667	0.9549
3658	0.9513
3649	0.9483
3640	0.9459
3631	0.9441
3622	0.9433
3613	0.9432
3604	0.944
3595	0.945
3586	0.9461
3577	0.9473
3568	0.9483
3559	0.9488
3550	0.9492
3541	0.9497
3532	0.9497
3523	0.9498
3514	0.9498
3505	0.9497
3496	0.9495
3487	0.9493
3478	0.9484
3469	0.9477
3460	0.943
3451	0.9291
3442	0.9153
3433	0.9039
3424	0.9014
3415	0.8986
3406	0.8949
3397	0.8887
3388	0.869
3379	0.8467
3370	0.8017
3361	0.7847
3352	0.7111
3343	0.6472
3334	0.5831
3325	0.5609
3316	0.5233
3307	0.4866
3298	0.4498
3289	0.4128
3280	0.3756
3271	0.3382
3262	0.3008
3253	0.2849
3244	0.2811
3235	0.2797
3226	0.2796
3217	0.3046
3208	0.3329
3199	0.3626
3190	0.408
3181	0.461
3172	0.5145
3163	0.5662
3154	0.5878
3145	0.5965
3136	0.5986
3127	0.5985
3118	0.5787
3109	0.527
3100	0.4747
3091	0.4222
3082	0.3693
3073	0.3282
3064	0.3247
3055	0.324
3046	0.3292
3037	0.3677
3028	0.4178
3019	0.4682
3010	0.5162
3001	0.5399
2992	0.5421
2983	0.5453
2974	0.5545
2965	0.5694
2956	0.5841
2947	0.5931
2938	0.5929
2929	0.5929
2920	0.5942
2911	0.6017
2902	0.6174
2893	0.6411
2884	0.6714
2875	0.6921
2866	0.713
2857	0.7339
2848	0.755
2839	0.7761
2830	0.7972
2821	0.8048
2812	0.8091
2803	0.8128
2794	0.8165
2785	0.8265
2776	0.8459
2767	0.8591
2758	0.867
2749	0.8728
2740	0.8778
2731	0.8778
2722	0.8777
2713	0.8791
2704	0.8821
2695	0.8866
2686	0.891
2677	0.8953
2668	0.8997
2659	0.9041
2650	0.9087
2641	0.9132
2632	0.9178
2623	0.9216
2614	0.9254
2605	0.9271
2596	0.9287
2587	0.9287
2578	0.9285
2569	0.9282
2560	0.928
2551	0.9277
2542	0.9274
2533	0.9271
2524	0.9268
2515	0.9264
2506	0.9262
2497	0.9264
2488	0.927
2479	0.9277
2470	0.9285
2461	0.9291
2452	0.9304
2443	0.9316
2434	0.9328
2425	0.9342
2416	0.9362
2407	0.9382
2398	0.9395
2389	0.9403
2380	0.941
2371	0.9413
2362	0.9409
2353	0.9395
2344	0.9375
2335	0.9352
2326	0.9328
2317	0.9318
2308	0.9321
2299	0.9324
2290	0.9328
2281	0.9333
2272	0.9293
2263	0.9228
2254	0.9212
2245	0.9207
2236	0.9196
2227	0.918
2218	0.913
2209	0.9105
2200	0.9088
2191	0.9075
2182	0.907
2173	0.9068
2164	0.9075
2155	0.9081
2146	0.9088
2137	0.9097
2128	0.9102
2119	0.91
2110	0.9091
2101	0.9075
2092	0.9055
2083	0.9078
2074	0.9192
2065	0.9324
2056	0.9398
2047	0.9445
2038	0.9481
2029	0.9502
2020	0.9511
2011	0.9512
2002	0.9513
1993	0.9509
1984	0.9494
1975	0.946
1966	0.9418
1957	0.9351
1948	0.9284
1939	0.929
1930	0.9402
1921	0.9463
1912	0.9445
1903	0.9232
1894	0.9056
1885	0.9144
1876	0.9224
1867	0.9284
1858	0.9354
1849	0.9394
1840	0.9408
1831	0.9416
1822	0.9402
1813	0.9375
1804	0.9252
1795	0.922
1786	0.93
1777	0.9253
1768	0.9021
1759	0.8921
1750	0.89
1741	0.8923
1732	0.9036
1723	0.9116
1714	0.9092
1705	0.901
1696	0.8868
1687	0.8725
1678	0.8573
1669	0.8425
1660	0.8111
1651	0.7533
1642	0.6117
1633	0.35
1624	0.0545
1615	0.0562
1606	0.2817
1597	0.3964
1588	0.1632
1579	0.1768
1570	0.2343
1561	0.3111
1552	0.3887
1543	0.4145
1534	0.5306
1525	0.5728
1516	0.5807
1507	0.6408
1498	0.7025
1489	0.6279
1480	0.5967
1471	0.455
1462	0.0896
1453	0.1989
1444	0.2155
1435	0.2929
1426	0.4397
1417	0.2768
1408	0.5051
1399	0.6004
1390	0.6458
1381	0.6951
1372	0.638
1363	0.444
1354	0.2388
1345	0.5441
1336	0.6551
1327	0.7249
1318	0.7462
1309	0.7104
1300	0.7147
1291	0.5766
1282	0.3166
1273	0.4705
1264	0.2565
1255	0.0985
1246	0.5034
1237	0.4471
1228	0.2832
1219	0.252
1210	0.501
1201	0.6945
1192	0.7564
1183	0.6561
1174	0.4364
1165	0.283
1156	0.3187
1147	0.3054
1138	0.561
1129	0.6981
1120	0.6599
1111	0.8133
1102	0.8083
1093	0.5633
1084	0.6893
1075	0.6334
1066	0.8445
1057	0.8937
1048	0.909
1039	0.9142
1030	0.7714
1021	0.902
1012	0.9157
1003	0.8631
994	0.7987
985	0.4248
976	0.8334
967	0.8918
958	0.9151
949	0.8942
940	0.9316
931	0.9328
922	0.8239
913	0.8162
904	0.8415
895	0.8841
886	0.8554
877	0.6564
868	0.7561
859	0.7854
850	0.6472
841	0.6905
832	0.8209
823	0.345
814	0.7818
805	0.8738
796	0.8816
787	0.8718
778	0.8283
769	0.716
760	0.2617
751	0.7801
742	0.8091
733	0.6362
724	0.7871
715	0.7424
706	0.4179
697	0.5458
688	0.3564
679	0.6811
