Infrared Spectrum: 4-ANDROSTEN-3-ONE, 17B-HYDROXY-
Formula: C19 H28 O2
CAS: 58-22-0
State: SOLUTION 1% (CS2 FOR 2-15 microns, AND C2Cl4 FOR 6.1-7.2 microns)
Melting point: 155 C
Class: COBLENTZ III
Instrument: PERKIN-ELMER 21 (GRATING)
Instrument parameters: FILTER AT ABOUT 10 MICRONS
Sampling: TRANSMISSION
Resolution: 2
1/CM	TRANSMITTANCE
4000	0.9796
3991	0.98
3982	0.9804
3973	0.9808
3964	0.9813
3955	0.9817
3946	0.9821
3937	0.9825
3928	0.983
3919	0.9834
3910	0.9839
3901	0.9844
3892	0.985
3883	0.9855
3874	0.986
3865	0.9865
3856	0.9868
3847	0.9868
3838	0.9866
3829	0.9865
3820	0.9862
3811	0.9858
3802	0.9854
3793	0.9849
3784	0.9845
3775	0.9841
3766	0.9836
3757	0.9831
3748	0.9825
3739	0.9821
3730	0.9818
3721	0.9815
3712	0.9815
3703	0.9816
3694	0.9821
3685	0.9827
3676	0.9833
3667	0.9837
3658	0.9841
3649	0.9839
3640	0.9831
3631	0.9815
3622	0.9792
3613	0.9747
3604	0.9008
3595	0.8168
3586	0.739
3577	0.7321
3568	0.7634
3559	0.8032
3550	0.8431
3541	0.8832
3532	0.9103
3523	0.915
3514	0.9165
3505	0.9163
3496	0.9125
3487	0.9067
3478	0.8998
3469	0.8925
3460	0.8884
3451	0.8845
3442	0.8817
3433	0.8805
3424	0.8801
3415	0.8807
3406	0.8855
3397	0.8925
3388	0.9018
3379	0.9175
3370	0.9263
3361	0.9324
3352	0.9361
3343	0.9373
3334	0.9386
3325	0.9398
3316	0.9423
3307	0.9453
3298	0.95
3289	0.9555
3280	0.9609
3271	0.9655
3262	0.9702
3253	0.9746
3244	0.9791
3235	0.9818
3226	0.9841
3217	0.9855
3208	0.9868
3199	0.9871
3190	0.9871
3181	0.9871
3172	0.987
3163	0.9868
3154	0.9866
3145	0.9861
3136	0.9856
3127	0.9851
3118	0.9844
3109	0.9836
3100	0.9828
3091	0.9821
3082	0.9809
3073	0.9796
3064	0.9784
3055	0.9771
3046	0.9755
3037	0.9693
3028	0.9214
3019	0.8958
3010	0.889
3001	0.8808
2992	0.8583
2983	0.7708
2974	0.593
2965	0.4142
2956	0.2778
2947	0.227
2938	0.176
2929	0.1339
2920	0.1289
2911	0.1285
2902	0.1352
2893	0.1504
2884	0.2123
2875	0.255
2866	0.2708
2857	0.2834
2848	0.2934
2839	0.3015
2830	0.3666
2821	0.4759
2812	0.586
2803	0.6774
2794	0.7297
2785	0.7718
2776	0.8047
2767	0.836
2758	0.8636
2749	0.8836
2740	0.9025
2731	0.9171
2722	0.9266
2713	0.9338
2704	0.9394
2695	0.9437
2686	0.9461
2677	0.9475
2668	0.9487
2659	0.9496
2650	0.9496
2641	0.9495
2632	0.9497
2623	0.9506
2614	0.9523
2605	0.9586
2596	0.9664
2587	0.9699
2578	0.9698
2569	0.9699
2560	0.97
2551	0.9699
2542	0.9704
2533	0.9712
2524	0.9728
2515	0.9748
2506	0.9775
2497	0.9801
2488	0.9828
2479	0.9854
2470	0.9868
2461	0.9871
2452	0.9866
2443	0.9858
2434	0.9858
2425	0.9895
2416	0.993
2407	0.9948
2398	0.9964
2389	0.9971
2380	0.9977
2371	0.9981
2362	0.9985
2353	0.9989
2344	0.9989
2335	0.9987
2326	0.9984
2317	0.9973
2308	0.9916
2299	0.9856
2290	0.9851
2281	0.9857
2272	0.9866
2263	0.988
2254	0.9883
2245	0.9882
2236	0.9885
2227	0.9918
2218	0.9989
2209	1.002
2200	1.0034
2191	1.0038
2182	1.004
2173	1.0042
2164	1.0039
2155	1.0034
2146	1.0034
2137	1.0071
2128	1.0118
2119	1.0144
2110	1.016
2101	1.016
2092	1.0142
2083	1.0117
2074	1.0106
2065	1.0105
2056	1.0107
2047	1.0112
2038	1.0114
2029	1.0117
2020	1.0121
2011	1.0128
2002	1.0134
1993	1.0141
1984	1.0148
1975	1.0154
1966	1.0159
1957	1.0161
1948	1.0164
1939	1.017
1930	1.0178
1921	1.0188
1912	1.0187
1903	1.0165
1894	1.0113
1885	1.0091
1876	1.0087
1867	1.0085
1858	1.0082
1849	1.0073
1840	1.0062
1831	1.0049
1822	1.0013
1813	0.9911
1804	0.987
1795	0.9843
1786	0.9771
1777	0.9665
1768	0.9613
1759	0.9542
1750	0.9362
1741	0.9006
1732	0.8321
1723	0.8101
1714	0.8193
1705	0.6971
1696	0.5353
1687	0.2061
1678	0.0385
1669	0.058
1660	0.305
1651	0.4973
1642	0.7489
1633	0.6708
1624	0.4728
1615	0.7115
1606	0.8681
1597	0.9036
1588	0.9146
1579	0.9224
1570	0.9311
1561	0.9378
1552	0.9365
1543	0.9518
1534	0.9813
1525	1.0297
1516	1.0323
1507	0.9875
1498	0.9503
1489	0.9192
1480	0.8071
1471	0.6411
1462	0.6578
1453	0.5106
1444	0.6219
1435	0.6254
1426	0.6537
1417	0.7821
1408	0.7954
1399	0.7671
1390	0.7321
1381	0.6307
1372	0.5377
1363	0.6695
1354	0.6043
1345	0.5642
1336	0.5896
1327	0.4938
1318	0.7108
1309	0.7651
1300	0.7558
1291	0.7683
1282	0.7184
1273	0.6439
1264	0.392
1255	0.6568
1246	0.5886
1237	0.5257
1228	0.3703
1219	0.5164
1210	0.6764
1201	0.7178
1192	0.6433
1183	0.5118
1174	0.689
1165	0.7454
1156	0.821
1147	0.822
1138	0.7208
1129	0.5699
1120	0.6583
1111	0.6515
1102	0.7625
1093	0.8143
1084	0.7815
1075	0.5534
1066	0.4651
1057	0.4038
1048	0.3496
1039	0.5938
1030	0.6689
1021	0.6519
1012	0.5457
1003	0.6958
994	0.7497
985	0.847
976	0.8336
967	0.8307
958	0.7382
949	0.6628
940	0.7208
931	0.8278
922	0.8461
913	0.8198
904	0.8747
895	0.9059
886	0.921
877	0.9107
868	0.7199
859	0.5853
850	0.7944
841	0.883
832	0.8443
823	0.8633
814	0.9308
805	0.9394
796	0.9412
787	0.9475
778	0.8603
769	0.9185
760	0.9455
751	0.9387
742	0.9261
733	0.9395
724	0.9513
715	0.9421
706	0.9536
697	0.958
688	0.9434
679	0.7889
670	0.9482
