Infrared Spectrum: PHENOTHIAZINE, 2-CHLORO-10-[3-(1-METHYL-4-PIPERAZINYL)PROPYL]-
Formula: C20 H24 Cl N3 S
CAS: 58-38-8
State: SOLUTION (CS2 FOR 2-15 microns, AND C2Cl4 FOR 5-7.3 microns)
Melting point: 228 C
Class: COBLENTZ III
Instrument: PERKIN-ELMER 21 (GRATING)
Instrument parameters: FILTER AT ABOUT 10 MICRONS
Sampling: TRANSMISSION
Path length: 0.1 CM
Resolution: 2
1/CM	TRANSMITTANCE
4000	0.9686
3991	0.9688
3982	0.9691
3973	0.9694
3964	0.9697
3955	0.97
3946	0.9703
3937	0.9706
3928	0.9708
3919	0.9711
3910	0.9714
3901	0.9717
3892	0.972
3883	0.9723
3874	0.9725
3865	0.9728
3856	0.9732
3847	0.9735
3838	0.9738
3829	0.974
3820	0.9743
3811	0.9746
3802	0.9749
3793	0.9752
3784	0.9754
3775	0.9757
3766	0.9759
3757	0.976
3748	0.9761
3739	0.9762
3730	0.9762
3721	0.9759
3712	0.9751
3703	0.9744
3694	0.9736
3685	0.9727
3676	0.9718
3667	0.972
3658	0.9721
3649	0.9723
3640	0.9723
3631	0.9725
3622	0.9727
3613	0.9732
3604	0.9738
3595	0.9743
3586	0.9749
3577	0.9754
3568	0.976
3559	0.9765
3550	0.9768
3541	0.9771
3532	0.9774
3523	0.9777
3514	0.9778
3505	0.9782
3496	0.9785
3487	0.9787
3478	0.979
3469	0.9792
3460	0.9795
3451	0.9797
3442	0.98
3433	0.9803
3424	0.9805
3415	0.9808
3406	0.981
3397	0.9802
3388	0.9794
3379	0.9786
3370	0.9782
3361	0.9781
3352	0.9781
3343	0.9781
3334	0.9781
3325	0.9782
3316	0.9782
3307	0.9782
3298	0.9783
3289	0.9783
3280	0.9783
3271	0.9782
3262	0.9781
3253	0.978
3244	0.9777
3235	0.9775
3226	0.9771
3217	0.975
3208	0.9717
3199	0.9681
3190	0.965
3181	0.963
3172	0.9614
3163	0.9601
3154	0.9601
3145	0.9602
3136	0.9599
3127	0.9601
3118	0.9463
3109	0.9252
3100	0.9039
3091	0.8825
3082	0.8761
3073	0.88
3064	0.8881
3055	0.8964
3046	0.9047
3037	0.9097
3028	0.9096
3019	0.9061
3010	0.8937
3001	0.8555
2992	0.7721
2983	0.6884
2974	0.6041
2965	0.5193
2956	0.434
2947	0.4037
2938	0.437
2929	0.4851
2920	0.5336
2911	0.5824
2902	0.6064
2893	0.5931
2884	0.5977
2875	0.6112
2866	0.6187
2857	0.5832
2848	0.5391
2839	0.4948
2830	0.4502
2821	0.4053
2812	0.36
2803	0.3384
2794	0.373
2785	0.4358
2776	0.499
2767	0.5609
2758	0.5941
2749	0.6321
2740	0.6772
2731	0.7228
2722	0.7686
2713	0.7925
2704	0.7934
2695	0.7906
2686	0.7994
2677	0.8215
2668	0.8438
2659	0.8662
2650	0.8887
2641	0.9071
2632	0.9195
2623	0.93
2614	0.9381
2605	0.9397
2596	0.9396
2587	0.9395
2578	0.9393
2569	0.9395
2560	0.9398
2551	0.9401
2542	0.9411
2533	0.9427
2524	0.945
2515	0.9477
2506	0.9504
2497	0.9532
2488	0.9558
2479	0.9578
2470	0.9578
2461	0.958
2452	0.9606
2443	0.9635
2434	0.966
2425	0.9675
2416	0.968
2407	0.9686
2398	0.9693
2389	0.9702
2380	0.9711
2371	0.9716
2362	0.9718
2353	0.972
2344	0.9721
2335	0.9721
2326	0.972
2317	0.9712
2308	0.97
2299	0.9685
2290	0.9664
2281	0.9637
2272	0.961
2263	0.9582
2254	0.9555
2245	0.9528
2236	0.9502
2227	0.9482
2218	0.9468
2209	0.946
2200	0.9451
2191	0.9442
2182	0.9438
2173	0.9433
2164	0.9423
2155	0.9409
2146	0.9393
2137	0.9377
2128	0.9353
2119	0.9306
2110	0.9262
2101	0.9251
2092	0.9323
2083	0.9452
2074	0.9557
2065	0.9641
2056	0.9682
2047	0.9659
2038	0.965
2029	0.9695
2020	0.9743
2011	0.9764
2002	0.9771
1993	0.9778
1984	0.9783
1975	0.979
1966	0.9799
1957	0.9788
1948	0.9767
1939	0.9725
1930	0.9577
1921	0.9544
1912	0.9645
1903	0.9698
1894	0.9617
1885	0.9553
1876	0.9604
1867	0.9611
1858	0.9361
1849	0.9368
1840	0.9542
1831	0.9662
1822	0.9694
1813	0.9702
1804	0.971
1795	0.9717
1786	0.9705
1777	0.9652
1768	0.966
1759	0.9682
1750	0.9699
1741	0.9702
1732	0.9653
1723	0.9632
1714	0.9623
1705	0.9614
1696	0.9603
1687	0.9591
1678	0.9571
1669	0.9553
1660	0.9537
1651	0.9503
1642	0.9464
1633	0.9457
1624	0.9503
1615	0.9482
1606	0.8314
1597	0.6346
1588	0.745
1579	0.6054
1570	0.4601
1561	0.6309
1552	0.838
1543	0.895
1534	0.9327
1525	0.9362
1516	0.9296
1507	0.9015
1498	0.8501
1489	0.6665
1480	0.6475
1471	0.2578
1462	0.0769
1453	0.2451
1444	0.4508
1435	0.6591
1426	0.7532
1417	0.6067
1408	0.4994
1399	0.6976
1390	0.7976
1381	0.7201
1372	0.5847
1363	0.7011
1354	0.6935
1345	0.6921
1336	0.6625
1327	0.5942
1318	0.5941
1309	0.6665
1300	0.5514
1291	0.3929
1282	0.2498
1273	0.5191
1264	0.7211
1255	0.6718
1246	0.3541
1237	0.4155
1228	0.5441
1219	0.5873
1210	0.7219
1201	0.7919
1192	0.608
1183	0.763
1174	0.7958
1165	0.3243
1156	0.5829
1147	0.4474
1138	0.5808
1129	0.4732
1120	0.6707
1111	0.6421
1102	0.566
1093	0.5224
1084	0.8131
1075	0.8932
1066	0.8886
1057	0.8137
1048	0.7234
1039	0.6925
1030	0.8799
1021	0.8837
1012	0.5815
1003	0.8811
994	0.9315
985	0.9453
976	0.906
967	0.9084
958	0.9308
949	0.9415
940	0.8903
931	0.696
922	0.6246
913	0.5619
904	0.8241
895	0.905
886	0.9133
877	0.8893
868	0.8473
859	0.8178
850	0.7404
841	0.6981
832	0.7864
823	0.7299
814	0.7825
805	0.7435
796	0.4147
787	0.7715
778	0.891
769	0.9261
760	0.8966
751	0.5462
742	0.291
733	0.7101
724	0.815
715	0.914
706	0.9466
697	0.9509
688	0.9517
679	0.9144
