Infrared Spectrum: PERPHENAZINE
Formula: C21 H26 Cl N3 O S
CAS: 58-39-9
State: SOLID (KBr DISC)
Melting point: 94-100 C
Class: COBLENTZ III
Instrument: PERKIN-ELMER 21 (GRATING)
Instrument parameters: FILTER AT ABOUT 10 MICRONS
Sampling: TRANSMISSION
Resolution: 2
1/CM	TRANSMITTANCE
4000	0.936
3991	0.9352
3982	0.9343
3973	0.9335
3964	0.9328
3955	0.9319
3946	0.9312
3937	0.9304
3928	0.9297
3919	0.9291
3910	0.9286
3901	0.9281
3892	0.9275
3883	0.9269
3874	0.9263
3865	0.9259
3856	0.9252
3847	0.9247
3838	0.9243
3829	0.9237
3820	0.9237
3811	0.9237
3802	0.9238
3793	0.9239
3784	0.9239
3775	0.924
3766	0.924
3757	0.9241
3748	0.9242
3739	0.9243
3730	0.9243
3721	0.9245
3712	0.9244
3703	0.9245
3694	0.9245
3685	0.9246
3676	0.9246
3667	0.9247
3658	0.9245
3649	0.924
3640	0.9237
3631	0.9232
3622	0.9226
3613	0.9221
3604	0.9218
3595	0.9212
3586	0.9205
3577	0.9199
3568	0.9195
3559	0.9187
3550	0.9181
3541	0.9172
3532	0.9161
3523	0.9152
3514	0.9143
3505	0.9132
3496	0.9115
3487	0.9097
3478	0.9009
3469	0.8902
3460	0.8795
3451	0.8694
3442	0.8599
3433	0.8519
3424	0.844
3415	0.8398
3406	0.8384
3397	0.8393
3388	0.8434
3379	0.8505
3370	0.8586
3361	0.8633
3352	0.8674
3343	0.8719
3334	0.8766
3325	0.8815
3316	0.8833
3307	0.8851
3298	0.887
3289	0.8887
3280	0.8901
3271	0.8915
3262	0.8928
3253	0.8939
3244	0.895
3235	0.8961
3226	0.8971
3217	0.8982
3208	0.8992
3199	0.8998
3190	0.9004
3181	0.9011
3172	0.9018
3163	0.9023
3154	0.9024
3145	0.9025
3136	0.9028
3127	0.9029
3118	0.9029
3109	0.9028
3100	0.9025
3091	0.9009
3082	0.8993
3073	0.8976
3064	0.8962
3055	0.8951
3046	0.8958
3037	0.8967
3028	0.8982
3019	0.8998
3010	0.8996
3001	0.8991
2992	0.897
2983	0.8928
2974	0.8857
2965	0.8712
2956	0.8456
2947	0.8055
2938	0.7587
2929	0.7118
2920	0.7028
2911	0.7091
2902	0.7178
2893	0.7263
2884	0.7261
2875	0.7108
2866	0.6972
2857	0.7078
2848	0.7296
2839	0.7354
2830	0.7237
2821	0.6872
2812	0.6507
2803	0.6401
2794	0.6347
2785	0.6524
2776	0.6779
2767	0.6903
2758	0.6939
2749	0.7092
2740	0.734
2731	0.7504
2722	0.7615
2713	0.7722
2704	0.782
2695	0.7881
2686	0.7929
2677	0.795
2668	0.7972
2659	0.8005
2650	0.8046
2641	0.8087
2632	0.8132
2623	0.8178
2614	0.8225
2605	0.8272
2596	0.8314
2587	0.8353
2578	0.8383
2569	0.8387
2560	0.8384
2551	0.8381
2542	0.8389
2533	0.841
2524	0.8461
2515	0.8498
2506	0.8513
2497	0.8521
2488	0.853
2479	0.8538
2470	0.8545
2461	0.8545
2452	0.8542
2443	0.8547
2434	0.855
2425	0.8557
2416	0.8567
2407	0.8581
2398	0.8596
2389	0.861
2380	0.8602
2371	0.8577
2362	0.8542
2353	0.8499
2344	0.8455
2335	0.8402
2326	0.8377
2317	0.838
2308	0.8412
2299	0.8462
2290	0.8529
2281	0.8608
2272	0.8651
2263	0.8672
2254	0.8677
2245	0.8683
2236	0.8688
2227	0.8693
2218	0.8698
2209	0.8703
2200	0.8708
2191	0.8714
2182	0.8717
2173	0.8722
2164	0.8728
2155	0.8735
2146	0.8746
2137	0.8754
2128	0.8745
2119	0.8737
2110	0.873
2101	0.873
2092	0.8729
2083	0.8726
2074	0.8725
2065	0.8735
2056	0.8744
2047	0.8754
2038	0.8761
2029	0.8768
2020	0.8775
2011	0.8782
2002	0.8795
1993	0.8808
1984	0.8812
1975	0.8811
1966	0.8815
1957	0.8815
1948	0.878
1939	0.8755
1930	0.874
1921	0.8707
1912	0.8633
1903	0.86
1894	0.8674
1885	0.8707
1876	0.8725
1867	0.8756
1858	0.8797
1849	0.8808
1840	0.8797
1831	0.8792
1822	0.8811
1813	0.8811
1804	0.8789
1795	0.8803
1786	0.8828
1777	0.8842
1768	0.8853
1759	0.8876
1750	0.8886
1741	0.8887
1732	0.8897
1723	0.8907
1714	0.8921
1705	0.8907
1696	0.8882
1687	0.8866
1678	0.8911
1669	0.8958
1660	0.8977
1651	0.8945
1642	0.8936
1633	0.9008
1624	0.9071
1615	0.9122
1606	0.912
1597	0.8191
1588	0.7872
1579	0.8441
1570	0.7317
1561	0.6537
1552	0.7772
1543	0.8139
1534	0.8849
1525	0.8973
1516	0.9038
1507	0.9083
1498	0.8998
1489	0.7828
1480	0.7877
1471	0.7233
1462	0.4878
1453	0.3886
1444	0.5277
1435	0.6123
1426	0.6758
1417	0.6941
1408	0.5947
1399	0.5632
1390	0.6989
1381	0.7188
1372	0.7464
1363	0.6636
1354	0.7652
1345	0.7441
1336	0.6748
1327	0.7183
1318	0.7803
1309	0.7352
1300	0.7217
1291	0.49
1282	0.5894
1273	0.6184
1264	0.7257
1255	0.7042
1246	0.5969
1237	0.6091
1228	0.6766
1219	0.6384
1210	0.7226
1201	0.6853
1192	0.7756
1183	0.8433
1174	0.8461
1165	0.7878
1156	0.7348
1147	0.5851
1138	0.5901
1129	0.6842
1120	0.6398
1111	0.7255
1102	0.6648
1093	0.624
1084	0.7344
1075	0.8076
1066	0.7894
1057	0.5934
1048	0.6302
1039	0.6643
1030	0.7911
1021	0.7975
1012	0.7025
1003	0.8086
994	0.8452
985	0.8015
976	0.7371
967	0.8284
958	0.864
949	0.873
940	0.8115
931	0.8473
922	0.7777
913	0.5747
904	0.7369
895	0.8264
886	0.845
877	0.7153
868	0.8016
859	0.8606
850	0.8179
841	0.8114
832	0.7914
823	0.6097
814	0.7804
805	0.8456
796	0.874
787	0.8984
778	0.8566
769	0.8395
760	0.6095
751	0.5998
742	0.7439
733	0.8298
724	0.8455
715	0.8859
706	0.8914
697	0.9092
688	0.9155
679	0.8969
