Infrared Spectrum: PYRIMIDINE, 2,6-BIS(DIETHANOLAMINO)-4,8-DIPIPERIDINO-PYRIMIDO-(5,4-d)-
Formula: C24 H40 N8 O4
CAS: 58-32-2
State: SOLID (KBr DISC) VS KBr
Melting point: 163 C
Class: COBLENTZ III
Instrument: PERKIN-ELMER 21 (GRATING)
Instrument parameters: FILTER AT ABOUT 10 MICRONS
Sampling: TRANSMISSION
Resolution: 2
1/CM	TRANSMITTANCE
4000	0.8448
3991	0.8457
3982	0.8466
3973	0.8475
3964	0.8486
3955	0.8495
3946	0.8505
3937	0.8515
3928	0.8528
3919	0.8542
3910	0.8556
3901	0.8571
3892	0.8586
3883	0.8601
3874	0.8616
3865	0.8633
3856	0.8647
3847	0.865
3838	0.8652
3829	0.8652
3820	0.8657
3811	0.8662
3802	0.8668
3793	0.8673
3784	0.8685
3775	0.8698
3766	0.871
3757	0.8723
3748	0.8736
3739	0.8748
3730	0.876
3721	0.8771
3712	0.8781
3703	0.8787
3694	0.8794
3685	0.8802
3676	0.881
3667	0.8818
3658	0.8815
3649	0.8798
3640	0.8777
3631	0.874
3622	0.869
3613	0.8638
3604	0.8585
3595	0.8511
3586	0.8336
3577	0.798
3568	0.7785
3559	0.7618
3550	0.7399
3541	0.7165
3532	0.6931
3523	0.6695
3514	0.6457
3505	0.6219
3496	0.5979
3487	0.5738
3478	0.5496
3469	0.5253
3460	0.5008
3451	0.4762
3442	0.4515
3433	0.4266
3424	0.4016
3415	0.3799
3406	0.3709
3397	0.3571
3388	0.3371
3379	0.3277
3370	0.3247
3361	0.3227
3352	0.3214
3343	0.321
3334	0.3209
3325	0.3212
3316	0.3224
3307	0.3237
3298	0.3248
3289	0.3258
3280	0.329
3271	0.3346
3262	0.3416
3253	0.3491
3244	0.3559
3235	0.3632
3226	0.3732
3217	0.3912
3208	0.4066
3199	0.422
3190	0.4374
3181	0.4529
3172	0.4685
3163	0.4841
3154	0.4999
3145	0.5157
3136	0.5316
3127	0.5477
3118	0.5637
3109	0.58
3100	0.5962
3091	0.6126
3082	0.6292
3073	0.6446
3064	0.6468
3055	0.6465
3046	0.6475
3037	0.6517
3028	0.6593
3019	0.6643
3010	0.6667
3001	0.6631
2992	0.6525
2983	0.6223
2974	0.5569
2965	0.491
2956	0.4248
2947	0.3582
2938	0.2911
2929	0.2333
2920	0.2298
2911	0.2385
2902	0.2738
2893	0.3101
2884	0.3466
2875	0.36
2866	0.3612
2857	0.3502
2848	0.332
2839	0.3262
2830	0.335
2821	0.3803
2812	0.4259
2803	0.4717
2794	0.5178
2785	0.5642
2776	0.5987
2767	0.6272
2758	0.646
2749	0.6604
2740	0.6726
2731	0.6808
2722	0.6861
2713	0.6912
2704	0.6961
2695	0.7008
2686	0.7071
2677	0.7148
2668	0.7242
2659	0.7315
2650	0.7371
2641	0.7421
2632	0.7474
2623	0.7526
2614	0.7581
2605	0.7626
2596	0.7669
2587	0.7712
2578	0.7776
2569	0.7865
2560	0.7991
2551	0.8062
2542	0.8101
2533	0.8138
2524	0.8164
2515	0.8186
2506	0.8209
2497	0.8243
2488	0.8277
2479	0.8311
2470	0.8345
2461	0.8387
2452	0.8441
2443	0.8493
2434	0.8547
2425	0.8589
2416	0.8628
2407	0.8667
2398	0.8703
2389	0.8727
2380	0.8751
2371	0.8766
2362	0.8773
2353	0.8775
2344	0.8778
2335	0.878
2326	0.8796
2317	0.8838
2308	0.8912
2299	0.8971
2290	0.9008
2281	0.9027
2272	0.9042
2263	0.9056
2254	0.907
2245	0.9078
2236	0.9085
2227	0.9107
2218	0.9131
2209	0.9152
2200	0.9165
2191	0.917
2182	0.9173
2173	0.9181
2164	0.9195
2155	0.9211
2146	0.9232
2137	0.9246
2128	0.9244
2119	0.9242
2110	0.924
2101	0.9242
2092	0.9247
2083	0.9259
2074	0.9271
2065	0.9291
2056	0.9314
2047	0.9336
2038	0.9356
2029	0.9357
2020	0.9366
2011	0.939
2002	0.9415
1993	0.9433
1984	0.9437
1975	0.9441
1966	0.9445
1957	0.9449
1948	0.9451
1939	0.9443
1930	0.9443
1921	0.9446
1912	0.9452
1903	0.9464
1894	0.9475
1885	0.9487
1876	0.9499
1867	0.9507
1858	0.9511
1849	0.9513
1840	0.9513
1831	0.9512
1822	0.9511
1813	0.9506
1804	0.9471
1795	0.9425
1786	0.9418
1777	0.9413
1768	0.9353
1759	0.9311
1750	0.9265
1741	0.9216
1732	0.918
1723	0.9163
1714	0.9139
1705	0.9074
1696	0.9048
1687	0.8996
1678	0.8889
1669	0.8725
1660	0.8602
1651	0.8365
1642	0.8008
1633	0.7805
1624	0.7667
1615	0.7495
1606	0.7175
1597	0.6528
1588	0.5781
1579	0.5086
1570	0.4059
1561	0.2476
1552	0.0792
1543	0.0384
1534	0.0302
1525	0.0307
1516	0.0402
1507	0.0638
1498	0.1614
1489	0.2504
1480	0.2146
1471	0.1006
1462	0.0989
1453	0.11
1444	0.0962
1435	0.1257
1426	0.1519
1417	0.1618
1408	0.2381
1399	0.2748
1390	0.365
1381	0.2962
1372	0.1641
1363	0.0741
1354	0.1042
1345	0.3133
1336	0.43
1327	0.5093
1318	0.5359
1309	0.4925
1300	0.4222
1291	0.4886
1282	0.4301
1273	0.4066
1264	0.4655
1255	0.4114
1246	0.3298
1237	0.346
1228	0.3968
1219	0.2121
1210	0.207
1201	0.4344
1192	0.6017
1183	0.63
1174	0.6303
1165	0.653
1156	0.635
1147	0.6284
1138	0.7107
1129	0.5962
1120	0.5594
1111	0.5171
1102	0.6475
1093	0.5716
1084	0.2924
1075	0.2712
1066	0.3289
1057	0.3496
1048	0.3208
1039	0.3844
1030	0.3372
1021	0.2562
1012	0.2091
1003	0.4475
994	0.556
985	0.4927
976	0.552
967	0.6815
958	0.6867
949	0.6404
940	0.7341
931	0.7776
922	0.7889
913	0.7769
904	0.7807
895	0.8128
886	0.7836
877	0.6945
868	0.7415
859	0.6871
850	0.5091
841	0.7039
832	0.7561
823	0.7615
814	0.7665
805	0.7501
796	0.7975
787	0.7717
778	0.74
769	0.7295
760	0.4618
751	0.6917
742	0.7742
733	0.7295
724	0.6832
715	0.6747
706	0.6828
697	0.7388
688	0.7341
679	0.726
670	0.7133
