Infrared Spectrum: 2H-Benzo[a]Quinolizin-2-one, 1,3,4,6,7, 11b-hexahydro-3-isobutyl-9,10-dimethoxy-,
Formula: C19 H27 N O3
CAS: 58-46-8
State: SOLUTION 7% (CHCl3 FOR 2.5-12.5 microns)
Melting point: 127-129 C
Class: COBLENTZ
Instrument: PERKIN-ELMER 21 (GRATING)
Instrument parameters: FILTER AT ABOUT 10 MICRONS
Path length: 0.01 CM
Resolution: 2
Origin: ABBOTT LABORATORIES
1/CM	TRANSMITTANCE
801	0.8965
809	0.884
817	0.861
825	0.8748
833	0.8645
841	0.8324
849	0.7588
857	0.5413
865	0.7636
873	0.7281
881	0.6871
889	0.7968
897	0.8585
905	0.8769
913	0.8723
921	0.8875
929	0.8597
937	0.8525
945	0.8451
953	0.8428
961	0.8333
969	0.8403
977	0.825
985	0.7935
993	0.7309
1001	0.499
1009	0.5298
1017	0.6331
1025	0.6309
1033	0.6709
1041	0.7601
1049	0.8134
1057	0.8059
1065	0.7862
1073	0.7439
1081	0.699
1089	0.7312
1097	0.5544
1105	0.5706
1113	0.7528
1121	0.6633
1129	0.4426
1137	0.2937
1145	0.3101
1153	0.3771
1161	0.6855
1169	0.755
1177	0.7527
1185	0.6762
1193	0.6332
1201	0.5534
1209	0.4746
1217	0.3969
1225	0.3456
1233	0.3555
1241	0.3587
1249	0.2343
1257	0.1635
1265	0.4415
1273	0.5456
1281	0.533
1289	0.6575
1297	0.6727
1305	0.7132
1313	0.5599
1321	0.4756
1329	0.5282
1337	0.5683
1345	0.4349
1353	0.3587
1361	0.3107
1369	0.4371
1377	0.6184
1385	0.7427
1393	0.7622
1401	0.6567
1409	0.7302
1417	0.786
1425	0.7269
1433	0.6286
1441	0.5148
1449	0.4304
1457	0.2693
1465	0.5466
1473	0.7935
1481	0.7794
1489	0.7293
1497	0.6066
1505	0.1718
1513	0.2595
1521	0.4742
1529	0.6714
1537	0.8359
1545	0.8474
1553	0.8427
1561	0.8411
1569	0.8403
1577	0.842
1585	0.84
1593	0.8199
1601	0.7564
1609	0.6491
1617	0.7581
1625	0.8448
1633	0.8504
1641	0.8489
1649	0.8368
1657	0.8324
1665	0.7996
1673	0.7888
1681	0.6199
1689	0.3736
1697	0.1718
1705	0.2201
1713	0.4538
1721	0.6851
1729	0.8193
1737	0.8596
1745	0.8648
1753	0.8723
1761	0.8824
1769	0.8888
1777	0.8906
1785	0.8918
1793	0.8923
1801	0.8928
1809	0.8939
1817	0.8962
1825	0.8978
1833	0.8988
1841	0.8999
1849	0.9001
1857	0.8984
1865	0.8977
1873	0.8973
1881	0.897
1889	0.8966
1897	0.8964
1905	0.8968
1913	0.8971
1921	0.8963
1929	0.8955
1937	0.8944
1945	0.8928
1953	0.891
1961	0.8894
1969	0.8882
1977	0.8869
1985	0.8852
1993	0.8836
2001	0.8816
2009	0.88
2017	0.8788
2025	0.8784
2033	0.8797
2041	0.8804
2049	0.8821
2057	0.8836
2065	0.8824
2073	0.8878
2081	0.8879
2089	0.8867
2097	0.8853
2105	0.8839
2113	0.8834
2121	0.8828
2129	0.8822
2137	0.8816
2145	0.8811
2153	0.8806
2161	0.8803
2169	0.8801
2177	0.88
2185	0.88
2193	0.8806
2201	0.882
2209	0.883
2217	0.8832
2225	0.8834
2233	0.8835
2241	0.8822
2249	0.881
2257	0.8799
2265	0.8794
2273	0.8789
2281	0.8786
2289	0.8791
2297	0.8802
2305	0.8813
2313	0.8821
2321	0.8829
2329	0.8839
2337	0.8849
2345	0.8867
2353	0.8917
2361	0.8957
2369	0.8935
2377	0.8819
2385	0.8708
2393	0.8614
2401	0.8547
2409	0.8508
2417	0.8485
2425	0.8465
2433	0.8468
2441	0.8479
2449	0.8502
2457	0.8504
2465	0.849
2473	0.8479
2481	0.847
2489	0.8485
2497	0.8517
2505	0.8529
2513	0.8512
2521	0.8481
2529	0.845
2537	0.8429
2545	0.8409
2553	0.8395
2561	0.8383
2569	0.8372
2577	0.8357
2585	0.834
2593	0.8322
2601	0.8305
2609	0.8286
2617	0.8267
2625	0.8247
2633	0.8212
2641	0.8152
2649	0.8066
2657	0.7973
2665	0.7879
2673	0.7768
2681	0.7573
2689	0.7366
2697	0.716
2705	0.6955
2713	0.6776
2721	0.6615
2729	0.6542
2737	0.6539
2745	0.654
2753	0.6542
2761	0.646
2769	0.6147
2777	0.5823
2785	0.5781
2793	0.577
2801	0.5799
2809	0.5866
2817	0.5904
2825	0.5916
2833	0.5906
2841	0.5581
2849	0.5163
2857	0.4747
2865	0.4333
2873	0.3922
2881	0.3519
2889	0.327
2897	0.3165
2905	0.3103
2913	0.3058
2921	0.306
2929	0.3162
2937	0.4038
2945	0.5023
2953	0.5931
2961	0.6114
2969	0.6149
2977	0.6752
2985	0.7234
2993	0.7326
3001	0.7385
3009	0.7454
3017	0.7776
3025	0.7918
3033	0.8123
3041	0.8249
3049	0.8277
3057	0.8289
3065	0.8293
3073	0.8293
3081	0.8291
3089	0.829
3097	0.8288
3105	0.8282
3113	0.8271
3121	0.826
3129	0.8254
3137	0.8255
3145	0.8257
3153	0.8258
3161	0.8266
3169	0.8275
3177	0.8284
3185	0.8292
3193	0.8291
3201	0.8291
3209	0.8291
3217	0.829
3225	0.8286
3233	0.828
3241	0.8274
3249	0.8267
3257	0.8261
3265	0.8256
3273	0.825
3281	0.8244
3289	0.8239
3297	0.8232
3305	0.8227
3313	0.8221
3321	0.8215
3329	0.821
3337	0.8226
3345	0.8242
3353	0.8254
3361	0.8267
3369	0.828
3377	0.8302
3385	0.8323
3393	0.8344
3401	0.8354
3409	0.8362
3417	0.8364
3425	0.8365
3433	0.8365
3441	0.8365
3449	0.8366
3457	0.8368
3465	0.8375
3473	0.8382
3481	0.8389
3489	0.84
3497	0.8414
3505	0.8429
3513	0.8442
3521	0.845
3529	0.8459
3537	0.8465
3545	0.8471
3553	0.8477
3561	0.8481
3569	0.8485
3577	0.8484
3585	0.8484
3593	0.8483
3601	0.8482
3609	0.8482
3617	0.8481
3625	0.8479
3633	0.8478
3641	0.8476
3649	0.8474
3657	0.8472
3665	0.847
3673	0.8468
3681	0.8466
3689	0.8464
3697	0.8463
3705	0.846
3713	0.8459
3721	0.8456
3729	0.8455
3737	0.8454
3745	0.8453
3753	0.8453
3761	0.8451
3769	0.8451
3777	0.8449
3785	0.8449
3793	0.8448
3801	0.8446
3809	0.8445
3817	0.8442
3825	0.8441
3833	0.844
3841	0.8438
3849	0.8437
3857	0.8435
3865	0.8433
3873	0.8431
3881	0.843
3889	0.8427
3897	0.8426
3905	0.8424
3913	0.8422
3921	0.842
3929	0.8419
3937	0.8417
3945	0.8415
3953	0.8413
3961	0.8412
3969	0.8409
3977	0.8408
3985	0.8406
3993	0.8405
