Infrared Spectrum: Promazine
Formula: C 17 H 20 N 2 S
CAS: 58-40-2
State: gas
Instrument: HP-GC/MS/IRD
Origin: NIST Mass Spectrometry Data Center
1/CM	ABSORBANCE
550	0.000494
562	0.000128
574	0.000124
586	0.000238
598	0.000194
610	0.000276
622	0.000204
634	0.000186
646	6e-05
658	4e-05
670	0.000326
682	0.000298
694	0.000538
706	0.000534
718	0.00191
730	0.003414
742	0.009502
754	0.004434
766	0.000768
778	0.000436
790	0.000328
802	0.000392
814	0.000456
826	0.000704
838	0.000686
850	0.00062
862	0.000488
874	0.00044
886	0.000402
898	0.000416
910	0.000314
922	0.00045
934	0.00028
946	0.000266
958	0.000422
970	0.000718
982	0.00057
994	0.00058
1006	0.00091
1018	0.001164
1030	0.002466
1042	0.003222
1054	0.002436
1066	0.002022
1078	0.001314
1090	0.001312
1102	0.001894
1114	0.00139
1126	0.002232
1138	0.001534
1150	0.001304
1162	0.001548
1174	0.00144
1186	0.00111
1198	0.00138
1210	0.00287
1222	0.00431
1234	0.004936
1246	0.006666
1258	0.004312
1270	0.003478
1282	0.003678
1294	0.002698
1306	0.002124
1318	0.002148
1330	0.00355
1342	0.00395
1354	0.002478
1366	0.002492
1378	0.002124
1390	0.00124
1402	0.00084
1414	0.000854
1426	0.00147
1438	0.00438
1450	0.009774
1462	0.02
1474	0.007976
1486	0.00419
1498	0.002234
1510	0.000962
1522	0.00058
1534	0.000464
1546	0.00053
1558	0.001096
1570	0.002222
1582	0.002058
1594	0.002172
1606	0.000804
1618	0.000382
1630	0.000306
1642	0.000238
1654	0.000268
1666	0.000362
1678	0.000292
1690	0.000268
1702	0.000178
1714	0.000106
1726	0.000102
1738	7.8e-05
1750	0.000132
1762	0.000242
1774	0.000178
1786	0.000122
1798	0.00019
1810	0.000154
1822	8.4e-05
1834	0.000142
1846	0.00021
1858	0.00014
1870	0.000192
1882	0.000368
1894	0.000192
1906	0.00018
1918	0.0004
1930	0.000158
1942	2.4e-05
1954	6e-06
1966	4e-05
1978	1.8e-05
1990	3.8e-05
2002	3.4e-05
2014	2.8e-05
2026	2.4e-05
2038	6e-06
2050	2.6e-05
2062	2e-05
2074	3.4e-05
2086	3.4e-05
2098	2.2e-05
2110	2.8e-05
2122	3.8e-05
2134	4.6e-05
2146	6e-06
2158	2.6e-05
2170	1.8e-05
2182	1.2e-05
2194	4.2e-05
2206	2.8e-05
2218	8e-06
2230	2e-05
2242	2e-05
2254	3.2e-05
2266	2.8e-05
2278	4.6e-05
2290	4.6e-05
2302	6.2e-05
2314	9.2e-05
2326	0.000106
2338	5e-05
2350	7e-05
2362	5.8e-05
2374	5.6e-05
2386	5.2e-05
2398	6.8e-05
2410	7.4e-05
2422	8.4e-05
2434	0.0001
2446	0.000146
2458	0.000112
2470	0.00013
2482	0.000122
2494	0.000116
2506	0.00018
2518	0.000196
2530	0.000216
2542	0.000238
2554	0.000252
2566	0.000282
2578	0.000296
2590	0.000252
2602	0.000192
2614	0.000206
2626	0.000242
2638	0.000246
2650	0.00025
2662	0.000288
2674	0.000328
2686	0.000442
2698	0.000544
2710	0.000784
2722	0.001044
2734	0.0013
2746	0.001586
2758	0.002352
2770	0.004722
2782	0.00515
2794	0.004204
2806	0.00361
2818	0.003882
2830	0.003616
2842	0.002548
2854	0.002718
2866	0.003144
2878	0.002542
2890	0.002258
2902	0.002394
2914	0.00258
2926	0.003296
2938	0.004118
2950	0.005008
2962	0.004102
2974	0.004424
2986	0.003168
2998	0.001584
3010	0.00126
3022	0.001012
3034	0.00089
3046	0.00105
3058	0.001846
3070	0.004628
3082	0.00277
3094	0.001102
3106	0.000518
3118	0.000324
3130	0.00027
3142	0.00028
3154	0.000244
3166	0.000194
3178	0.000152
3190	0.00012
3202	0.00012
3214	0.000104
3226	9.4e-05
3238	7.6e-05
3250	5e-05
3262	7.2e-05
3274	5.8e-05
3286	9.4e-05
3298	5.8e-05
3310	6.6e-05
3322	7e-05
3334	4.4e-05
3346	8.8e-05
3358	6.6e-05
3370	5.8e-05
3382	9.6e-05
3394	4.8e-05
3406	8e-05
3418	5e-05
3430	0.000144
3442	0.000114
3454	9.2e-05
3466	5.4e-05
3478	8.2e-05
3490	5e-05
3502	6.2e-05
3514	7.8e-05
3526	6.2e-05
3538	8.4e-05
3550	7e-05
3562	8.4e-05
3574	4.8e-05
3586	6.4e-05
3598	7.6e-05
3610	4.6e-05
3622	5.4e-05
3634	3.8e-05
3646	1e-05
3658	9.8e-05
3670	3.4e-05
3682	5.6e-05
3694	6.6e-05
3706	7e-05
3718	3.4e-05
3730	5.2e-05
3742	7.6e-05
3754	7.2e-05
3766	6.6e-05
3778	0.000104
3790	6.8e-05
3802	0.000122
3814	9.4e-05
3826	0.000122
3838	9.4e-05
