Infrared Spectrum: Theophylline
Formula: C 7 H 8 N 4 O 2
CAS: 58-55-9
State: gas
Instrument: HP-GC/MS/IRD
Origin: NIST Mass Spectrometry Data Center
1/CM	ABSORBANCE
550	0.0002106
562	0.0003146
574	8.32e-05
586	4.68e-05
598	7.8e-06
610	2.34e-05
622	8.58e-05
634	0.000143
646	9.1e-05
658	0.0003172
670	0.0003224
682	0.0001274
694	7.02e-05
706	0.0001352
718	0.000104
730	0.0001274
742	0.0003094
754	0.0008736
766	0.0009412
778	0.000429
790	0.0002236
802	0.0001534
814	7.02e-05
826	0.0004004
838	0.0007748
850	0.0002236
862	0.0001118
874	0.000117
886	9.1e-05
898	6.5e-05
910	5.46e-05
922	6.5e-05
934	9.88e-05
946	0.0002158
958	0.0001534
970	0.0004472
982	0.0010322
994	0.0007696
1006	0.0002678
1018	0.0003666
1030	0.001079
1042	0.0025012
1054	0.0024232
1066	0.001235
1078	0.001027
1090	0.000689
1102	0.0003354
1114	0.0002678
1126	0.0002808
1138	0.0004472
1150	0.000429
1162	0.0003562
1174	0.0003926
1186	0.0007904
1198	0.0014144
1210	0.001105
1222	0.0010374
1234	0.001456
1246	0.0013598
1258	0.001105
1270	0.0012246
1282	0.00143
1294	0.0009386
1306	0.0012012
1318	0.001599
1330	0.000962
1342	0.0005694
1354	0.0008398
1366	0.0016042
1378	0.0038896
1390	0.0058422
1402	0.0044226
1414	0.0033722
1426	0.0034788
1438	0.0035126
1450	0.002275
1462	0.0009282
1474	0.0006838
1486	0.0004758
1498	0.000572
1510	0.0006188
1522	0.001352
1534	0.0027118
1546	0.0042952
1558	0.0042172
1570	0.0022334
1582	0.0014612
1594	0.0014196
1606	0.0017576
1618	0.0022074
1630	0.0012636
1642	0.0010296
1654	0.002197
1666	0.0045734
1678	0.0114998
1690	0.02483
1702	0.0204282
1714	0.0100178
1726	0.0159588
1738	0.0125086
1750	0.0027976
1762	0.0012272
1774	0.0008476
1786	0.000533
1798	0.0004368
1810	0.0003978
1822	0.000312
1834	0.0003172
1846	0.0002522
1858	0.000208
1870	0.0001612
1882	0.0001144
1894	9.36e-05
1906	7.54e-05
1918	5.72e-05
1930	8.06e-05
1942	8.58e-05
1954	6.24e-05
1966	7.02e-05
1978	7.02e-05
1990	7.54e-05
2002	9.88e-05
2014	4.16e-05
2026	8.06e-05
2038	6.76e-05
2050	5.46e-05
2062	3.9e-05
2074	6.24e-05
2086	4.42e-05
2098	5.2e-05
2110	4.42e-05
2122	5.72e-05
2134	1.56e-05
2146	3.38e-05
2158	7.8e-06
2170	6.5e-05
2182	5.98e-05
2194	7.54e-05
2206	5.72e-05
2218	5.46e-05
2230	4.68e-05
2242	4.68e-05
2254	8.84e-05
2266	5.72e-05
2278	4.42e-05
2290	4.42e-05
2302	5.46e-05
2314	7.8e-06
2326	1.04e-05
2338	5.2e-05
2350	3.9e-05
2362	1.56e-05
2374	1.3e-05
2386	2.6e-05
2398	4.94e-05
2410	4.68e-05
2422	2.6e-05
2434	6.76e-05
2446	7.02e-05
2458	9.36e-05
2470	0.0001196
2482	0.0001274
2494	0.0001248
2506	7.54e-05
2518	7.02e-05
2530	0.0001014
2542	0.0001014
2554	9.62e-05
2566	9.88e-05
2578	7.28e-05
2590	6.24e-05
2602	5.98e-05
2614	7.8e-05
2626	6.24e-05
2638	9.1e-05
2650	0.0001092
2662	9.1e-05
2674	0.0001066
2686	8.84e-05
2698	8.32e-05
2710	9.1e-05
2722	0.0001274
2734	7.02e-05
2746	0.0001118
2758	0.000104
2770	0.0001144
2782	0.0001066
2794	9.88e-05
2806	0.0001144
2818	0.00013
2830	0.0001742
2842	0.0002158
2854	0.0001482
2866	0.0002496
2878	0.0002288
2890	0.0003562
2902	0.0004498
2914	0.0004966
2926	0.0005538
2938	0.0006136
2950	0.0010218
2962	0.001352
2974	0.0011336
2986	0.000689
2998	0.000455
3010	0.000325
3022	0.000195
3034	0.000156
3046	0.0001716
3058	0.0001508
3070	0.0001846
3082	0.0001716
3094	0.0002002
3106	0.0001768
3118	0.0001326
3130	0.0001534
3142	0.0001352
3154	0.0001248
3166	0.000104
3178	9.62e-05
3190	8.84e-05
3202	4.68e-05
3214	0.000143
3226	0.0001352
3238	0.000156
3250	4.16e-05
3262	7.02e-05
3274	0.0001118
3286	4.42e-05
3298	8.58e-05
3310	0.0001118
3322	6.76e-05
3334	0.0001092
3346	0.000104
3358	0.0001742
3370	0.000182
3382	0.0001638
3394	0.0002106
3406	0.0002028
3418	0.0002678
3430	0.0001586
3442	0.0001612
3454	0.000338
3466	0.0006188
3478	0.0012038
3490	0.0028912
3502	0.0032266
3514	0.0005876
3526	8.32e-05
3538	8.32e-05
3550	3.12e-05
3562	0
3574	0.000143
3586	8.58e-05
3598	8.32e-05
3610	1.3e-05
3622	2.34e-05
3634	0.000104
3646	9.88e-05
3658	0.0001118
3670	0.0001066
3682	5.2e-05
3694	9.62e-05
3706	0.0001664
3718	5.46e-05
3730	0.0001014
3742	0.0001196
3754	0.0001196
3766	0.0001326
3778	0.0001274
3790	0.0001378
3802	0.0001144
3814	7.28e-05
3826	4.94e-05
3838	0.0001144
