Infrared Spectrum: 3,4-Pyridinedimethanol, 5-hydroxy-6-methyl-, hydrochloride
Formula: C8 H12 Cl N O3
CAS: 58-56-0
State: SOLID (MINERAL OIL MULL)
Melting point: 205-212 C DECOMP.
Class: COBLENTZ III
Instrument: PERKIN-ELMER 21 (GRATING)
Path length: 0.01 CM
Resolution: 2
Origin: THE SQUIBB INSTITUTE FOR MEDICAL RESEARCH
1/CM	TRANSMITTANCE
665	0.8632
674	0.853
683	0.6902
692	0.8734
701	0.9163
710	0.9243
719	0.9239
728	0.8992
737	0.8525
746	0.5473
755	0.6972
764	0.8528
773	0.8213
782	0.7376
791	0.5892
800	0.4721
809	0.5509
818	0.6775
827	0.7851
836	0.8479
845	0.8702
854	0.8688
863	0.7959
872	0.3072
881	0.7829
890	0.8775
899	0.8822
908	0.88
917	0.8635
926	0.7579
935	0.8849
944	0.8692
953	0.7974
962	0.6023
971	0.6315
980	0.7454
989	0.467
998	0.66
1007	0.4887
1016	0.2401
1025	0.398
1034	0.6609
1043	0.8307
1052	0.8477
1061	0.8585
1070	0.8419
1079	0.7269
1088	0.34
1097	0.8424
1106	0.8516
1115	0.8432
1124	0.8243
1133	0.8076
1142	0.7993
1151	0.7941
1160	0.7873
1169	0.767
1178	0.7339
1187	0.6798
1196	0.6112
1205	0.4656
1214	0.1463
1223	0.5766
1232	0.7083
1241	0.6731
1250	0.5911
1259	0.4741
1268	0.1676
1277	0.0768
1286	0.2717
1295	0.4674
1304	0.5869
1313	0.6447
1322	0.5905
1331	0.5877
1340	0.7187
1349	0.7554
1358	0.8207
1367	0.8522
1376	0.7741
1385	0.5433
1394	0.4969
1403	0.4783
1412	0.4164
1421	0.5271
1430	0.7533
1439	0.8253
1448	0.7972
1457	0.849
1466	0.7474
1475	0.5275
1484	0.3728
1493	0.5585
1502	0.6053
1511	0.6001
1520	0.5131
1529	0.4331
1538	0.3344
1547	0.2848
1556	0.6675
1565	0.7998
1574	0.8647
1583	0.8797
1592	0.8915
1601	0.886
1610	0.8568
1619	0.8002
1628	0.7259
1637	0.8907
1646	0.9024
1655	0.9074
1664	0.9072
1673	0.904
1682	0.8988
1691	0.8932
1700	0.8868
1709	0.8739
1718	0.8446
1727	0.8056
1736	0.8504
1745	0.9037
1754	0.9045
1763	0.9015
1772	0.8964
1781	0.89
1790	0.8818
1799	0.8719
1808	0.8517
1817	0.8213
1826	0.8193
1835	0.8374
1844	0.8777
1853	0.8803
1862	0.8797
1871	0.8706
1880	0.8521
1889	0.8294
1898	0.8212
1907	0.8036
1916	0.7568
1925	0.7067
1934	0.7187
1943	0.7714
1952	0.8184
1961	0.8428
1970	0.8409
1979	0.8334
1988	0.8312
1997	0.8372
2006	0.8494
2015	0.8593
2024	0.8633
2033	0.8649
2042	0.8657
2051	0.8663
2060	0.8667
2069	0.866
2078	0.8646
2087	0.8626
2096	0.8607
2105	0.8588
2114	0.8565
2123	0.8539
2132	0.8514
2141	0.8488
2150	0.8462
2159	0.8438
2168	0.8413
2177	0.8389
2186	0.8366
2195	0.8343
2204	0.8322
2213	0.83
2222	0.8279
2231	0.8258
2240	0.8222
2249	0.8185
2258	0.8149
2267	0.8109
2276	0.8066
2285	0.8022
2294	0.7978
2303	0.7921
2312	0.7864
2321	0.7808
2330	0.7765
2339	0.7725
2348	0.7693
2357	0.7665
2366	0.764
2375	0.76
2384	0.7555
2393	0.7505
2402	0.7447
2411	0.7385
2420	0.7325
2429	0.7275
2438	0.7225
2447	0.7162
2456	0.7094
2465	0.7027
2474	0.6956
2483	0.6884
2492	0.6771
2501	0.6649
2510	0.6502
2519	0.6341
2528	0.6181
2537	0.6
2546	0.582
2555	0.5612
2564	0.5403
2573	0.5224
2582	0.506
2591	0.4928
2600	0.4798
2609	0.4662
2618	0.4523
2627	0.4386
2636	0.4239
2645	0.4088
2654	0.3961
2663	0.385
2672	0.3737
2681	0.3618
2690	0.3476
2699	0.3312
2708	0.3062
2717	0.2808
2726	0.2622
2735	0.2439
2744	0.2223
2753	0.2026
2762	0.1849
2771	0.1692
2780	0.1549
2789	0.1435
2798	0.1369
2807	0.1449
2816	0.2197
2825	0.3129
2834	0.4055
2843	0.4719
2852	0.4782
2861	0.4802
2870	0.4806
2879	0.4808
2888	0.4798
2897	0.4773
2906	0.4711
2915	0.463
2924	0.4536
2933	0.4444
2942	0.4352
2951	0.4246
2960	0.4111
2969	0.3735
2978	0.3325
2987	0.3102
2996	0.2962
3005	0.2828
3014	0.272
3023	0.263
3032	0.2547
3041	0.247
3050	0.2397
3059	0.2351
3068	0.2312
3077	0.231
3086	0.2321
3095	0.2423
3104	0.2629
3113	0.2832
3122	0.2866
3131	0.2877
3140	0.2875
3149	0.2867
3158	0.2846
3167	0.2808
3176	0.267
3185	0.2325
3194	0.1973
3203	0.1622
3212	0.1273
3221	0.0927
3230	0.0771
3239	0.0749
3248	0.086
3257	0.112
3266	0.1208
3275	0.1196
3284	0.118
3293	0.1163
3302	0.1146
3311	0.1137
3320	0.1631
3329	0.2269
3338	0.2903
3347	0.3533
3356	0.4161
3365	0.4785
3374	0.5407
3383	0.5847
3392	0.6049
3401	0.6275
3410	0.65
3419	0.6724
3428	0.6947
3437	0.7169
3446	0.7389
3455	0.7608
3464	0.7826
3473	0.8043
3482	0.8282
3491	0.8665
3500	0.8785
3509	0.8811
3518	0.8828
3527	0.8833
3536	0.8837
3545	0.8843
3554	0.8841
3563	0.8838
3572	0.8833
3581	0.8829
3590	0.8817
3599	0.8804
3608	0.8791
3617	0.8771
3626	0.875
3635	0.8729
3644	0.8707
3653	0.8683
3662	0.8658
3671	0.8634
3680	0.8609
3689	0.8585
3698	0.8561
3707	0.8539
3716	0.8526
3725	0.8514
3734	0.8503
3743	0.8492
3752	0.8481
3761	0.8472
3770	0.8461
3779	0.8449
3788	0.8424
3797	0.8394
3806	0.8366
3815	0.833
3824	0.8288
3833	0.8246
3842	0.8207
3851	0.8189
3860	0.8176
3869	0.8162
3878	0.8147
3887	0.8134
3896	0.8122
3905	0.811
3914	0.8098
3923	0.8087
3932	0.8075
3941	0.8063
3950	0.8052
3959	0.8036
3968	0.8017
3977	0.7998
3986	0.7979
3995	0.7961
