Infrared Spectrum: ETHYLAMINE, 2-DIPHENYLMETHOXY-N,N-DIMETHYL-
Formula: C17 H21 N O
CAS: 58-73-1
State: SOLUTION (CS2 FOR 5-15 microns, AND C2Cl4 FOR 2-7.7 microns)
Boiling point: 150-165 C AT 2.0 mmHg
Class: COBLENTZ III
Instrument: PERKIN-ELMER 21 (GRATING)
Instrument parameters: FILTER AT ABOUT 10 MICRONS
Sampling: TRANSMISSION
Path length: 0.1 CM
Resolution: 2
1/CM	TRANSMITTANCE
4424.78	0.957
4414.64	0.9575
4404.5	0.958
4394.36	0.9585
4384.22	0.959
4374.08	0.9595
4363.94	0.9598
4353.8	0.9601
4343.66	0.9603
4333.52	0.9598
4323.39	0.958
4313.25	0.956
4303.11	0.9539
4292.97	0.9516
4282.83	0.9495
4272.69	0.9484
4262.55	0.9481
4252.41	0.9478
4242.27	0.9478
4232.13	0.9484
4221.99	0.949
4211.85	0.9496
4201.71	0.9501
4191.57	0.9503
4181.43	0.9505
4171.29	0.9499
4161.15	0.9492
4151.01	0.9485
4140.87	0.9482
4130.74	0.9482
4120.6	0.9483
4110.46	0.9484
4100.32	0.9485
4090.18	0.9486
4080.04	0.9486
4069.9	0.9487
4059.76	0.9488
4049.62	0.9482
4039.48	0.9474
4029.34	0.9467
4019.2	0.9447
4009.06	0.9408
3998.92	0.934
3988.78	0.9325
3978.64	0.9317
3968.5	0.9314
3958.36	0.9335
3948.22	0.9361
3938.08	0.9381
3927.95	0.9398
3917.81	0.9417
3907.67	0.9435
3897.53	0.9448
3887.39	0.9458
3877.25	0.9466
3867.11	0.9474
3856.97	0.9484
3846.83	0.9493
3836.69	0.9501
3826.55	0.9511
3816.41	0.9518
3806.27	0.9526
3796.13	0.9534
3785.99	0.9541
3775.85	0.955
3765.71	0.9557
3755.57	0.9563
3745.43	0.9566
3735.3	0.9568
3725.16	0.9573
3715.02	0.9575
3704.88	0.9576
3694.74	0.957
3684.6	0.9562
3674.46	0.9554
3664.32	0.9541
3654.18	0.9527
3644.04	0.9515
3633.9	0.9504
3623.76	0.9495
3613.62	0.9495
3603.48	0.9498
3593.34	0.9507
3583.2	0.9525
3573.06	0.9544
3562.92	0.9563
3552.78	0.9588
3542.65	0.9612
3532.51	0.9636
3522.37	0.9651
3512.23	0.966
3502.09	0.9655
3491.95	0.9648
3481.81	0.9639
3471.67	0.9625
3461.53	0.9614
3451.39	0.9601
3441.25	0.959
3431.11	0.9581
3420.97	0.9573
3410.83	0.9565
3400.69	0.9556
3390.55	0.955
3380.41	0.9544
3370.27	0.954
3360.13	0.9534
3350	0.9529
3339.86	0.9525
3329.72	0.9518
3319.58	0.9516
3309.44	0.9513
3299.3	0.9509
3289.16	0.9506
3279.02	0.9502
3268.88	0.9499
3258.74	0.9494
3248.6	0.9488
3238.46	0.9472
3228.32	0.9455
3218.18	0.9438
3208.04	0.9415
3197.9	0.9392
3187.76	0.9372
3177.62	0.9351
3167.48	0.9332
3157.35	0.9316
3147.21	0.9301
3137.07	0.9291
3126.93	0.9276
3116.79	0.921
3106.65	0.9035
3096.51	0.8508
3086.37	0.7738
3076.23	0.6931
3066.09	0.6119
3055.95	0.5992
3045.81	0.6337
3035.67	0.6059
3025.53	0.5389
3015.39	0.6007
3005.25	0.6739
2995.11	0.74
2984.97	0.7342
2974.83	0.6009
2964.69	0.4616
2954.56	0.4283
2944.42	0.3818
2934.28	0.3305
2924.14	0.3289
2914	0.3801
2903.86	0.4307
2893.72	0.4443
2883.58	0.4452
2873.44	0.444
2863.3	0.4113
2853.16	0.3578
2843.02	0.3556
2832.88	0.3941
2822.74	0.4146
2812.6	0.3822
2802.46	0.3353
2792.32	0.3542
2782.18	0.3886
2772.04	0.3685
2761.91	0.2824
2751.77	0.3139
2741.63	0.4483
2731.49	0.6574
2721.35	0.6811
2711.21	0.7228
2701.07	0.7705
2690.93	0.8331
2680.79	0.8633
2670.65	0.8794
2660.51	0.8937
2650.37	0.8983
2640.23	0.9001
2630.09	0.9043
2619.95	0.9159
2609.81	0.9244
2599.67	0.9276
2589.53	0.9294
2579.39	0.9312
2569.26	0.9333
2559.12	0.9352
2548.98	0.9362
2538.84	0.9371
2528.7	0.9381
2518.56	0.9388
2508.42	0.9392
2498.28	0.9382
2488.14	0.9367
2478	0.9356
2467.86	0.9362
2457.72	0.9401
2447.58	0.9445
2437.44	0.9484
2427.3	0.9511
2417.16	0.9538
2407.02	0.9551
2396.88	0.9556
2386.74	0.9561
2376.61	0.9558
2366.47	0.9552
2356.33	0.9545
2346.19	0.9531
2336.05	0.9517
2325.91	0.9503
2315.77	0.9489
2305.63	0.9469
2295.49	0.9453
2285.35	0.9439
2275.21	0.9434
2265.07	0.9543
2254.93	0.96
2244.79	0.9618
2234.65	0.9618
2224.51	0.9617
2214.37	0.9615
2204.23	0.9616
2194.09	0.9624
2183.96	0.9631
2173.82	0.9633
2163.68	0.9613
2153.54	0.9601
2143.4	0.9596
2133.26	0.9592
2123.12	0.9549
2112.98	0.9496
2102.84	0.9499
2092.7	0.9551
2082.56	0.9571
2072.42	0.9545
2062.28	0.9509
2052.14	0.9479
2042	0.9471
2031.86	0.9511
2021.72	0.9557
2011.58	0.9581
2001.44	0.9586
1991.3	0.9533
1981.17	0.9483
1971.03	0.947
1960.89	0.9118
1950.75	0.8926
1940.61	0.8702
1930.47	0.923
1920.33	0.9452
1910.19	0.951
1900.05	0.9384
1889.91	0.9198
1879.77	0.9166
1869.63	0.9223
1859.49	0.9454
1849.35	0.9555
1839.21	0.9575
1829.07	0.9492
1818.93	0.9358
1808.79	0.8979
1798.65	0.8917
1788.52	0.9344
1778.38	0.9514
1768.24	0.9437
1758.1	0.9316
1747.96	0.9316
1737.82	0.942
1727.68	0.9553
1717.54	0.9645
1707.4	0.9623
1697.26	0.9564
1687.12	0.9587
1676.98	0.9567
1666.84	0.9522
1656.7	0.9479
1646.56	0.9495
1636.42	0.9571
1626.28	0.9635
1616.14	0.9626
1606	0.8821
1595.87	0.8225
1585.73	0.8961
1575.59	0.9315
1565.45	0.9569
1555.31	0.97
1545.17	0.9677
1535.03	0.963
1524.89	0.9589
1514.75	0.9517
1504.61	0.9361
1494.47	0.4155
1484.33	0.6916
1474.19	0.7635
1464.05	0.5063
1453.91	0.2713
1443.77	0.3978
1433.63	0.6904
1423.49	0.893
1413.35	0.9144
1403.22	0.8956
1393.08	0.9155
1382.94	0.8952
1372.8	0.8457
1362.66	0.7851
1352.52	0.7891
1342.38	0.653
1332.24	0.6378
1322.1	0.6464
1311.96	0.664
1301.82	0.5286
1291.68	0.5804
1281.54	0.5991
1271.4	0.5806
1261.26	0.5881
1251.12	0.6494
1240.98	0.7025
1230.84	0.8409
1220.7	0.8713
1210.57	0.8646
1200.43	0.7556
1190.29	0.5783
1180.15	0.4932
1170.01	0.6564
1159.87	0.6769
1149.73	0.6494
1139.59	0.759
1129.45	0.6674
1119.31	0.3573
1109.17	0.1756
1099.03	0.1724
1088.89	0.2716
1078.75	0.3054
1068.61	0.2238
1058.47	0.3395
1048.33	0.4226
1038.19	0.3012
1028.05	0.2818
1017.91	0.5853
1007.78	0.7434
997.636	0.6859
987.496	0.7541
977.357	0.781
967.218	0.789
957.078	0.6749
946.939	0.8211
936.799	0.8614
926.66	0.8696
916.52	0.7744
906.381	0.8235
896.241	0.8599
886.102	0.8233
875.962	0.8384
865.823	0.8441
855.683	0.7842
845.544	0.7765
835.404	0.7937
825.265	0.865
815.125	0.897
804.986	0.8968
794.846	0.8567
784.707	0.6771
774.567	0.7707
764.428	0.6471
754.288	0.2636
744.149	0.3501
734.009	0.3596
723.87	0.7934
713.731	0.7761
703.591	0.2325
693.452	0.139
683.312	0.7928
673.173	0.8104
