Infrared Spectrum: Triphenylethylene
Formula: C 20 H 16
CAS: 58-72-0
State: gas
Instrument: HP-GC/MS/IRD
Origin: NIST Mass Spectrometry Data Center
1/CM	ABSORBANCE
550	0.0017052
562	0.0006552
574	0.0010563
586	0.0047187
598	0.0012894
610	0.0010437
622	0.0009408
634	0.0009828
646	0.0015792
658	0.0023667
670	0.0038724
682	0.0064491
694	0.0193347
706	0.0122703
718	0.0060648
730	0.0032508
742	0.0033012
754	0.0089439
766	0.0067326
778	0.0043995
790	0.0020244
802	0.0013209
814	0.0011445
826	0.0010059
838	0.0010605
850	0.0011256
862	0.0018648
874	0.0018018
886	0.0013419
898	0.0016107
910	0.0018753
922	0.001533
934	0.0014973
946	0.0023058
958	0.0014028
970	0.0012915
982	0.0011466
994	0.0011004
1006	0.0012642
1018	0.0016065
1030	0.0035406
1042	0.001407
1054	0.0011256
1066	0.0019656
1078	0.0019404
1090	0.0009072
1102	0.0007581
1114	0.0004788
1126	0.0003759
1138	0.000336
1150	0.0002709
1162	0.0002163
1174	0.0004494
1186	0.0006384
1198	0.0001092
1210	0.0001092
1222	8.61e-05
1234	0.0002415
1246	0.0002205
1258	0.0002688
1270	0.0002856
1282	0.0003486
1294	0.0004074
1306	0.0005166
1318	0.0005607
1330	0.000798
1342	0.0007749
1354	0.0011424
1366	0.0014805
1378	0.0011886
1390	0.0008988
1402	0.0008085
1414	0.000924
1426	0.0012915
1438	0.0027909
1450	0.0035007
1462	0.0015246
1474	0.0019005
1486	0.0041727
1498	0.0056448
1510	0.0018417
1522	0.0010647
1534	0.0010605
1546	0.0009576
1558	0.0008925
1570	0.0013209
1582	0.0020811
1594	0.0038955
1606	0.0030555
1618	0.0011508
1630	0.0006762
1642	0.0005565
1654	0.0005796
1666	0.0007476
1678	0.0006552
1690	0.0005124
1702	0.0004809
1714	0.0005439
1726	0.0006909
1738	0.0007077
1750	0.0006993
1762	0.0005943
1774	0.0006363
1786	0.0008946
1798	0.001281
1810	0.0008463
1822	0.0005691
1834	0.0004578
1846	0.0004137
1858	0.0006027
1870	0.0008736
1882	0.0009366
1894	0.0006573
1906	0.0004347
1918	0.0004788
1930	0.0008484
1942	0.0013545
1954	0.0011655
1966	0.0004326
1978	0.000231
1990	0.0001554
2002	0.0001323
2014	0.0001323
2026	9.45e-05
2038	9.24e-05
2050	9.03e-05
2062	5.88e-05
2074	4.62e-05
2086	3.57e-05
2098	3.78e-05
2110	0
2122	4.2e-05
2134	5.67e-05
2146	2.31e-05
2158	3.78e-05
2170	3.36e-05
2182	6.51e-05
2194	3.99e-05
2206	2.1e-05
2218	3.99e-05
2230	2.1e-05
2242	4.41e-05
2254	5.04e-05
2266	6.09e-05
2278	6.3e-05
2290	7.56e-05
2302	9.24e-05
2314	0.0002457
2326	0.0001155
2338	0.0001617
2350	8.82e-05
2362	8.82e-05
2374	5.04e-05
2386	9.66e-05
2398	0.0001365
2410	0.000147
2422	0.0001554
2434	0.0001428
2446	0.0001218
2458	0.0001197
2470	0.0001407
2482	0.0001155
2494	0.0001302
2506	0.0001407
2518	0.0001575
2530	0.0001911
2542	0.0001785
2554	0.000168
2566	0.0001764
2578	0.0001911
2590	0.0002352
2602	0.0002352
2614	0.0002352
2626	0.0001995
2638	0.00021
2650	0.0001638
2662	0.0002142
2674	0.0002352
2686	0.00021
2698	0.0002058
2710	0.0002079
2722	0.000231
2734	0.0002877
2746	0.0002751
2758	0.0002709
2770	0.0002835
2782	0.0002625
2794	0.0003234
2806	0.0003381
2818	0.0003024
2830	0.0003528
2842	0.0004011
2854	0.0004095
2866	0.0004158
2878	0.0004809
2890	0.0005271
2902	0.0004704
2914	0.0004515
2926	0.0006048
2938	0.00063
2950	0.000693
2962	0.0008022
2974	0.0008442
2986	0.000945
2998	0.0014217
3010	0.0028938
3022	0.0069489
3034	0.0082215
3046	0.0054978
3058	0.0100989
3070	0.0154455
3082	0.0095445
3094	0.0054642
3106	0.0031626
3118	0.0013251
3130	0.0008253
3142	0.0007959
3154	0.00063
3166	0.0004116
3178	0.0003213
3190	0.0002562
3202	0.0002835
3214	0.0002982
3226	0.0003024
3238	0.0002877
3250	0.0002478
3262	0.0002268
3274	0.0001995
3286	0.000231
3298	0.0002058
3310	0.0001911
3322	0.0002268
3334	0.0001995
3346	0.0001617
3358	0.0001365
3370	0.0001512
3382	0.0001617
3394	0.0001533
3406	0.0001218
3418	0.0001806
3430	0.0001512
3442	0.0001281
3454	0.0001848
3466	0.000126
3478	0.0001218
3490	0.0001155
3502	4.83e-05
3514	8.19e-05
3526	9.03e-05
3538	2.73e-05
3550	0.0001281
3562	5.88e-05
3574	0.0001197
3586	3.78e-05
3598	0.0001386
3610	0.000105
3622	0.000189
3634	0.0001869
3646	0.0001554
3658	0.0002226
3670	0.0002163
3682	0.0002877
3694	0.0002583
3706	0.000273
3718	0.0001785
3730	0.0002016
3742	0.0002352
3754	0.000189
3766	0.0002415
3778	0.0002646
3790	0.0002184
3802	0.0001869
3814	0.0002016
3826	0.0002163
3838	0.0002037
