Infrared Spectrum: Lindane
Formula: C 6 H 6 Cl 6
CAS: 58-89-9
State: gas
Instrument: HP-GC/MS/IRD
Origin: NIST Mass Spectrometry Data Center
1/CM	ABSORBANCE
550	0.0003624
562	0.00024
574	0.0004404
586	0.0003708
598	2.16e-05
610	0.0001548
622	0.0002904
634	0.0004392
646	0.000468
658	0.0015504
670	0.0036924
682	0.0089916
694	0.01053
706	0.0062748
718	0.0016848
730	0.0009588
742	0.0005232
754	0.0005748
766	0.0024108
778	0.0051552
790	0.002802
802	0.0009312
814	0.0009756
826	0.0008796
838	0.0040572
850	0.005706
862	0.0016956
874	0.0008004
886	0.0007296
898	0.001758
910	0.0034068
922	0.0013548
934	0.0008496
946	0.0022776
958	0.002808
970	0.0013152
982	0.0006276
994	0.0004752
1006	0.0003756
1018	0.000396
1030	0.0007836
1042	0.0006624
1054	0.0001992
1066	0.000228
1078	0.0003204
1090	0.0008952
1102	0.0019716
1114	0.0010872
1126	0.0003708
1138	0.0002988
1150	0.0002448
1162	0.0002832
1174	0.0002748
1186	0.0003912
1198	0.0006156
1210	0.0008868
1222	0.001878
1234	0.0012372
1246	0.0016248
1258	0.0008664
1270	0.0015912
1282	0.0025956
1294	0.0009588
1306	0.0006588
1318	0.0007404
1330	0.0013788
1342	0.0038256
1354	0.0019704
1366	0.0004776
1378	0.0002748
1390	0.0001848
1402	0.0001428
1414	0.000138
1426	0.0001524
1438	0.000114
1450	0.0001272
1462	9.48e-05
1474	8.88e-05
1486	0.0001176
1498	9.48e-05
1510	9.72e-05
1522	7.92e-05
1534	9.84e-05
1546	8.16e-05
1558	7.32e-05
1570	6.96e-05
1582	7.08e-05
1594	6.36e-05
1606	5.76e-05
1618	3.36e-05
1630	8.64e-05
1642	6.84e-05
1654	3e-05
1666	7.56e-05
1678	6.12e-05
1690	7.8e-05
1702	5.28e-05
1714	4.44e-05
1726	5.88e-05
1738	6.24e-05
1750	3.84e-05
1762	6.12e-05
1774	3.48e-05
1786	5.04e-05
1798	7.08e-05
1810	6.24e-05
1822	4.68e-05
1834	4.2e-05
1846	5.16e-05
1858	5.64e-05
1870	6.84e-05
1882	7.68e-05
1894	9.12e-05
1906	5.88e-05
1918	7.08e-05
1930	6.72e-05
1942	6.96e-05
1954	9.36e-05
1966	9.36e-05
1978	7.68e-05
1990	9.96e-05
2002	8.76e-05
2014	7.2e-05
2026	0.0001104
2038	9.24e-05
2050	0.0001008
2062	7.56e-05
2074	8.04e-05
2086	9.72e-05
2098	9.84e-05
2110	9.72e-05
2122	0.0001032
2134	0.0001128
2146	7.92e-05
2158	8.76e-05
2170	6.6e-05
2182	8.16e-05
2194	8.64e-05
2206	9.12e-05
2218	9e-05
2230	7.44e-05
2242	0.0001056
2254	7.2e-05
2266	6.6e-05
2278	7.08e-05
2290	9.48e-05
2302	0.0001092
2314	9.6e-05
2326	7.8e-05
2338	6.36e-05
2350	9.72e-05
2362	0.0001236
2374	0.0001152
2386	5.64e-05
2398	8.28e-05
2410	6.12e-05
2422	0.0001332
2434	0.0001296
2446	0.0001512
2458	0.0001404
2470	0.0001176
2482	0.00012
2494	0.0001596
2506	0.0001092
2518	0.0001596
2530	0.0001836
2542	0.0001848
2554	0.00015
2566	0.00015
2578	0.0001272
2590	0.0001692
2602	0.0001668
2614	9.24e-05
2626	5.76e-05
2638	7.44e-05
2650	8.4e-05
2662	8.4e-05
2674	6.96e-05
2686	9.24e-05
2698	3.12e-05
2710	4.68e-05
2722	4.2e-05
2734	5.76e-05
2746	6.24e-05
2758	4.08e-05
2770	3.72e-05
2782	5.4e-05
2794	7.08e-05
2806	4.8e-05
2818	3.12e-05
2830	8.04e-05
2842	0.0001008
2854	6.24e-05
2866	1.2e-05
2878	8.16e-05
2890	0.0001176
2902	5.04e-05
2914	8.52e-05
2926	0.0001236
2938	0.0005388
2950	0.0014844
2962	0.0003708
2974	0.0002688
2986	0.0010272
2998	0.0003552
3010	0.0001572
3022	1.32e-05
3034	7.56e-05
3046	6e-05
3058	5.28e-05
3070	0.0001032
3082	5.88e-05
3094	8.16e-05
3106	9.24e-05
3118	5.76e-05
3130	8.76e-05
3142	9.24e-05
3154	7.08e-05
3166	2.04e-05
3178	4.44e-05
3190	4.92e-05
3202	2.76e-05
3214	7.68e-05
3226	0.0001116
3238	8.64e-05
3250	7.92e-05
3262	9.12e-05
3274	0.0001032
3286	0.0001152
3298	0.0001128
3310	0.0001068
3322	4.08e-05
3334	8.04e-05
3346	6.84e-05
3358	3.48e-05
3370	0.0001008
3382	6.6e-05
3394	7.92e-05
3406	0.0001212
3418	5.52e-05
3430	0.0001452
3442	9e-05
3454	4.44e-05
3466	6.6e-05
3478	8.52e-05
3490	7.92e-05
3502	0.0001152
3514	0.0001296
3526	9.84e-05
3538	6.6e-05
3550	0.0001116
3562	0.0001116
3574	0.0001176
3586	9.72e-05
3598	0.0001032
3610	8.28e-05
3622	0.0001296
3634	0.0001644
3646	0.0001128
3658	0.0001284
3670	0.000132
3682	0.0001236
3694	0.0001296
3706	0.000144
3718	0.0001056
3730	0.0001296
3742	0.0001596
3754	0.0001548
3766	0.0001836
3778	0.0001344
3790	0.0001284
3802	0.0001152
3814	9e-05
3826	0.000162
3838	0.0001356
