Infrared Spectrum: Biotin
Formula: C 10 H 16 N 2 O 3 S
CAS: 58-85-5
State: solid
Instrument: Bruker Tensor 37 FTIR
Resolution: 0.96450084
Origin: Pacific Northwest National Laboratory Under IARPA Contract
1/cm	Reflectance
7498.99	0.770102
7481.63	0.767753
7464.27	0.773952
7446.91	0.770277
7429.55	0.766528
7412.19	0.754099
7394.84	0.733389
7377.48	0.73701
7360.12	0.722964
7342.76	0.715251
7325.4	0.721143
7308.04	0.722316
7290.68	0.720177
7273.32	0.722391
7255.96	0.72468
7238.6	0.73039
7221.24	0.733488
7203.88	0.729809
7186.52	0.72919
7169.16	0.727712
7151.8	0.72156
7134.44	0.709845
7117.08	0.682655
7099.72	0.652407
7082.36	0.616495
7065	0.605581
7047.64	0.610978
7030.28	0.631678
7012.92	0.643646
6995.56	0.652064
6978.2	0.65879
6960.84	0.667279
6943.48	0.671671
6926.12	0.669914
6908.76	0.664594
6891.4	0.662786
6874.04	0.662068
6856.68	0.675585
6839.32	0.687655
6821.96	0.689662
6804.6	0.685211
6787.24	0.684053
6769.88	0.679583
6752.52	0.674082
6735.16	0.663073
6717.8	0.644868
6700.44	0.537736
6683.08	0.587098
6665.72	0.525165
6648.36	0.542721
6631	0.509835
6613.64	0.549233
6596.28	0.477317
6578.92	0.52429
6561.56	0.567177
6544.2	0.56433
6526.85	0.567769
6509.49	0.564866
6492.13	0.559294
6474.77	0.560217
6457.41	0.555359
6440.05	0.548458
6422.69	0.542603
6405.33	0.527022
6387.97	0.519337
6370.61	0.515182
6353.25	0.510385
6335.89	0.507984
6318.53	0.49746
6301.17	0.485381
6283.81	0.463518
6266.45	0.44923
6249.09	0.439182
6231.73	0.450307
6214.37	0.450319
6197.01	0.451809
6179.65	0.447124
6162.29	0.435521
6144.93	0.403821
6127.57	0.357724
6110.21	0.31427
6092.85	0.360038
6075.49	0.372843
6058.13	0.379186
6040.77	0.390386
6023.41	0.385632
6006.05	0.369649
5988.69	0.361798
5971.33	0.343064
5953.97	0.30445
5936.61	0.261594
5919.25	0.284636
5901.89	0.309083
5884.53	0.290982
5867.17	0.258664
5849.81	0.282607
5832.45	0.293419
5815.09	0.277953
5797.73	0.305348
5780.37	0.293341
5763.01	0.27223
5745.65	0.26926
5728.29	0.269884
5710.93	0.275902
5693.57	0.281822
5676.21	0.291598
5658.86	0.279519
5641.5	0.286171
5624.14	0.290161
5606.78	0.28657
5589.42	0.275427
5572.06	0.252846
5554.7	0.239842
5537.34	0.222534
5519.98	0.196423
5502.62	0.177624
5485.26	0.138761
5467.9	0.0722111
5450.54	0.0369337
5433.18	0.0262983
5415.82	0.027783
5398.46	0.0315491
5381.1	0.0399746
5363.74	0.0510032
5346.38	0.0641187
5329.02	0.0770404
5311.66	0.0731424
5294.3	0.0700279
5276.94	0.0662146
5259.58	0.0612073
5242.22	0.0508171
5224.86	0.0379802
5207.5	0.0306771
5190.14	0.0413128
5172.78	0.038924
5155.42	0.0399938
5138.06	0.0467125
5120.7	0.0500544
5103.34	0.0488373
5085.98	0.0462787
5068.62	0.0450677
5051.26	0.0438448
5033.9	0.0421138
5016.54	0.0391831
4999.18	0.0381412
4981.82	0.038277
4964.46	0.0394262
4947.1	0.0394952
4929.74	0.0406028
4912.38	0.0421585
4895.02	0.0466972
4877.66	0.0489875
4860.3	0.0514477
4842.94	0.0538231
4825.58	0.0550318
4808.22	0.0553923
4790.86	0.0535842
4773.51	0.0506026
4756.15	0.0470074
4738.79	0.0384819
4721.43	0.0359754
4704.07	0.0399926
4686.71	0.0524314
4669.35	0.060675
4651.99	0.0635517
4634.63	0.0498755
4617.27	0.0192602
4599.91	0.0454057
4582.55	0.0332861
4565.19	0.0316458
4547.83	0.0376118
4530.47	0.0459982
4513.11	0.0465266
4495.75	0.026067
4478.39	0.0331685
4461.03	0.0474911
4443.67	0.0592878
4426.31	0.0343913
4408.95	0.0271422
4391.59	0.0312899
4374.23	0.0430778
4356.87	0.0558311
4339.51	0.0602284
4322.15	0.0414512
4304.79	0.0456114
4287.43	0.0364374
4270.07	0.0331636
4252.71	0.0419785
4235.35	0.0676482
4217.99	0.101222
4200.63	0.0812997
4183.27	0.116249
4165.91	0.109601
4148.55	0.105005
4131.19	0.0309378
4113.83	0.0437877
4096.47	0.0268659
4079.11	0.0279145
4061.75	0.0401376
4044.39	0.771615
4027.03	0.766564
4009.67	0.773777
3992.31	0.770795
3974.95	0.76679
3957.59	0.751539
3940.23	0.740836
3922.87	0.738224
3905.52	0.724732
3888.16	0.715487
3870.8	0.720831
3853.44	0.7244
3836.08	0.725045
3818.72	0.729376
3801.36	0.729745
3784	0.727185
3766.64	0.736268
3749.28	0.728242
3731.92	0.730388
3714.56	0.724397
3697.2	0.719617
3679.84	0.71023
3662.48	0.681403
3645.12	0.648654
3627.76	0.620344
3610.4	0.61531
3593.04	0.623
3575.68	0.645421
3558.32	0.655383
3540.96	0.661346
3523.6	0.667329
3506.24	0.679189
3488.88	0.679461
3471.52	0.675068
3454.16	0.675716
3436.8	0.6732
3419.44	0.671954
3402.08	0.687362
3384.72	0.69576
3367.36	0.698059
3350	0.694664
3332.64	0.689061
3315.28	0.685565
3297.92	0.67913
3280.56	0.669637
3263.2	0.646035
3245.84	0.545458
3228.48	0.581915
3211.12	0.530168
3193.76	0.561303
3176.4	0.501807
3159.04	0.556067
3141.68	0.532595
3124.32	0.568597
3106.96	0.575782
3089.6	0.58072
3072.24	0.575376
3054.88	0.574334
3037.53	0.574776
3020.17	0.570775
3002.81	0.564773
2985.45	0.558412
2968.09	0.550895
2950.73	0.541895
2933.37	0.52775
2916.01	0.52597
2898.65	0.522139
2881.29	0.518248
2863.93	0.506617
2846.57	0.492986
2829.21	0.470268
2811.85	0.45567
2794.49	0.457392
2777.13	0.462826
2759.77	0.463498
2742.41	0.465297
2725.05	0.455559
2707.69	0.441995
2690.33	0.407816
2672.97	0.346895
2655.61	0.344173
2638.25	0.376849
2620.89	0.385656
2603.53	0.397121
2586.17	0.402408
2568.81	0.397026
2551.45	0.377434
2534.09	0.368242
2516.73	0.341705
2499.37	0.321615
2482.01	0.283438
2464.65	0.306066
2447.29	0.315692
2429.93	0.283057
2412.57	0.282079
2395.21	0.302408
2377.85	0.312511
2360.49	0.296194
2343.13	0.302065
2325.77	0.296498
2308.41	0.291621
2291.05	0.280591
2273.69	0.281282
2256.33	0.289191
2238.97	0.297187
2221.61	0.305287
2204.25	0.285298
2186.89	0.29776
2169.53	0.298568
2152.18	0.294442
2134.82	0.273614
2117.46	0.257604
2100.1	0.24245
2082.74	0.222475
2065.38	0.193877
2048.02	0.173681
2030.66	0.122315
2013.3	0.0580291
1995.94	0.033636
1978.58	0.0271134
1961.22	0.0263562
1943.86	0.0340731
1926.5	0.0441217
1909.14	0.0559685
1891.78	0.0711771
1874.42	0.0799537
1857.06	0.0725989
1839.7	0.0714141
1822.34	0.0667242
1804.98	0.061441
1787.62	0.0392801
1770.26	0.0320425
1752.9	0.0358688
1735.54	0.0387033
1718.18	0.0371053
1700.82	0.0426709
1683.46	0.0499162
1666.1	0.0523373
1648.74	0.0492137
1631.38	0.046574
1614.02	0.0455062
1596.66	0.0448047
1579.3	0.0421794
1561.94	0.0393783
1544.58	0.0385697
1527.22	0.0391927
1509.86	0.039689
1492.5	0.0407367
1475.14	0.0417312
1457.78	0.044512
1440.42	0.0486803
1423.06	0.0513704
1405.7	0.0535013
1388.34	0.055381
1370.98	0.0564475
1353.62	0.0569342
1336.26	0.0540757
1318.9	0.0505403
1301.54	0.0453156
1284.19	0.0364822
1266.83	0.036273
1249.47	0.0440171
1232.11	0.0577552
1214.75	0.0673117
1197.39	0.063999
1180.03	0.0410418
1162.67	0.0352514
1145.31	0.0534237
1127.95	0.0301045
1110.59	0.032959
1093.23	0.039823
1075.87	0.0478688
1058.51	0.045353
1041.15	0.0262283
1023.79	0.0343705
1006.43	0.0477375
989.068	0.0561047
971.709	0.0232188
954.349	0.0299261
936.989	0.0325581
919.629	0.035458
902.269	0.0362656
884.91	0.0564307
867.55	0.04594
850.19	0.0320594
832.83	0.0393347
815.47	0.0287833
798.111	0.0563348
780.751	0.078677
763.391	0.0796327
746.031	0.0435024
728.671	0.106807
711.312	0.117362
693.952	0.0926763
676.592	0.0327695
659.232	0.0509244
641.872	0.0235831
624.513	0.0315468
607.153	0.0426549
