Infrared Spectrum: 6-CHLORO-7-SULFAMYL-3,4-DIHYDRO-1,2,4-BENZOTHIADIAZINE-1,1-DIOXIDE
Formula: C7 H8 Cl N3 O4 S2
CAS: 58-93-5
State: SOLID (NUJOL MULL)
Class: COBLENTZ
Instrument: PERKIN-ELMER
Sampling: TRANSMISSION
Resolution: 4
Origin: ABBOTT LABORATORIES - WASHBURN
MICROMETERS	TRANSMITTANCE
2.021	0.412
2.05524	0.413
2.08949	0.415
2.12373	0.4221
2.15798	0.429
2.19222	0.434
2.22647	0.441
2.26071	0.441
2.29496	0.441
2.3292	0.441
2.36345	0.444
2.39769	0.448
2.43194	0.453
2.46618	0.46
2.50043	0.47
2.53467	0.4751
2.56892	0.4811
2.60316	0.4872
2.63741	0.4941
2.67165	0.503
2.7059	0.5103
2.74014	0.513
2.77439	0.517
2.80863	0.5221
2.84288	0.531
2.87712	0.5242
2.91137	0.3348
2.94561	0.2332
2.97986	0.2563
3.0141	0.2736
3.04835	0.2362
3.08259	0.281
3.11684	0.2355
3.15108	0.2141
3.18533	0.2892
3.21957	0.3132
3.25382	0.334
3.28806	0.3185
3.32231	0.2046
3.35655	0.0408
3.3908	0.022
3.42504	0.0171
3.45929	0.031
3.49353	0.053
3.52778	0.4026
3.56202	0.5125
3.59627	0.5341
3.63051	0.537
3.66476	0.5392
3.699	0.543
3.73325	0.5431
3.76749	0.558
3.80174	0.5652
3.83598	0.567
3.87023	0.5751
3.90447	0.591
3.93872	0.6014
3.97296	0.608
4.00721	0.6131
4.04145	0.618
4.0757	0.6272
4.10994	0.6322
4.14419	0.636
4.17843	0.637
4.21268	0.6358
4.24692	0.636
4.28117	0.6391
4.31541	0.646
4.34966	0.6564
4.3839	0.6632
4.41815	0.668
4.45239	0.67
4.48664	0.679
4.52088	0.6808
4.55513	0.681
4.58937	0.684
4.62362	0.6872
4.65786	0.691
4.69211	0.694
4.72635	0.7
4.7606	0.705
4.79484	0.706
4.82909	0.708
4.86333	0.712
4.89758	0.7152
4.93182	0.72
4.96607	0.724
5.00031	0.727
5.03456	0.729
5.0688	0.7309
5.10305	0.7358
5.13729	0.741
5.17154	0.744
5.20578	0.75
5.24003	0.751
5.27427	0.754
5.30852	0.7572
5.34276	0.7607
5.37701	0.763
5.41125	0.7673
5.4455	0.7678
5.47974	0.7547
5.51399	0.7601
5.54823	0.7649
5.58248	0.7699
5.61672	0.7749
5.65097	0.7812
5.68521	0.7883
5.71946	0.794
5.7537	0.7984
5.78795	0.7982
5.82219	0.796
5.85644	0.794
5.89068	0.7931
5.92493	0.7867
5.95917	0.7743
5.99342	0.7643
6.02766	0.7525
6.06191	0.7169
6.09615	0.6451
6.1304	0.5335
6.16464	0.4092
6.19889	0.2605
6.23313	0.2621
6.26738	0.3851
6.30162	0.4599
6.33587	0.5199
6.37011	0.5305
6.40436	0.4634
6.4386	0.4564
6.47285	0.4466
6.50709	0.4111
6.54134	0.3501
6.57558	0.341
6.60983	0.4318
6.64407	0.5096
6.67832	0.5526
6.71256	0.562
6.74681	0.5279
6.78105	0.3807
6.8153	0.163
6.84954	0.1412
6.88379	0.1906
6.91803	0.3005
6.95228	0.3807
6.98652	0.3985
7.02077	0.4495
7.05501	0.5709
7.08926	0.6253
7.1235	0.646
7.15775	0.6481
7.19199	0.5748
7.22624	0.4168
7.26048	0.2028
7.29473	0.2688
7.32897	0.3574
7.36322	0.3852
7.39746	0.3324
7.43171	0.2552
7.46595	0.1581
7.5002	0.1346
7.53444	0.1672
7.56869	0.1338
7.60293	0.109
7.63718	0.1965
7.67142	0.2924
7.70567	0.3165
7.73991	0.3946
7.77416	0.4756
7.8084	0.5093
7.84265	0.4434
7.87689	0.4673
7.91114	0.5165
7.94538	0.5703
7.97963	0.5948
8.01387	0.5767
8.04812	0.4507
8.08236	0.5092
8.11661	0.5763
8.15085	0.608
8.1851	0.6179
8.21934	0.6171
8.25359	0.6068
8.28783	0.5867
8.32208	0.548
8.35632	0.497
8.39057	0.3878
8.42481	0.2594
8.45906	0.1675
8.4933	0.1537
8.52755	0.1659
8.56179	0.1664
8.59604	0.1535
8.63028	0.1622
8.66453	0.1586
8.69877	0.124
8.73302	0.1329
8.76726	0.2105
8.80151	0.3049
8.83575	0.3793
8.87	0.3937
8.90424	0.2973
8.93849	0.2636
8.97273	0.3646
9.00698	0.4363
9.04122	0.4937
9.07547	0.5318
9.10971	0.5437
9.14396	0.539
9.1782	0.5534
9.21245	0.5509
9.24669	0.5084
9.28094	0.4372
9.31518	0.3939
9.34943	0.4043
9.38367	0.3765
9.41791	0.2712
9.45216	0.2328
9.4864	0.2693
9.52065	0.3522
9.55489	0.4116
9.58914	0.4622
9.62338	0.4947
9.65763	0.5092
9.69187	0.5108
9.72612	0.4647
9.76036	0.4036
9.79461	0.4059
9.82885	0.4673
9.8631	0.5232
9.89734	0.5612
9.93159	0.5853
9.96583	0.6112
10.0001	0.6328
10.0343	0.6505
10.0686	0.6554
10.1028	0.6586
10.1371	0.66
10.1713	0.662
10.2055	0.6616
10.2398	0.662
10.274	0.662
10.3083	0.6619
10.3425	0.663
10.3768	0.662
10.411	0.6552
10.4453	0.6377
10.4795	0.6073
10.5138	0.556
10.548	0.5094
10.5822	0.464
10.6165	0.4472
10.6507	0.4503
10.685	0.4589
10.7192	0.4794
10.7535	0.4966
10.7877	0.5135
10.822	0.5373
10.8562	0.5478
10.8904	0.555
10.9247	0.558
10.9589	0.541
10.9932	0.4538
11.0274	0.4189
11.0617	0.4401
11.0959	0.446
11.1302	0.4594
11.1644	0.4775
11.1987	0.4973
11.2329	0.5084
11.2671	0.5242
11.3014	0.5326
11.3356	0.5629
11.3699	0.5785
11.4041	0.6075
11.4384	0.6217
11.4726	0.6287
11.5069	0.6355
11.5411	0.6364
11.5753	0.5787
11.6096	0.4269
11.6438	0.3125
11.6781	0.3697
11.7123	0.4977
11.7466	0.5737
11.7808	0.6299
11.8151	0.6629
11.8493	0.6774
11.8836	0.6929
11.9178	0.701
11.952	0.7059
11.9863	0.7116
12.0205	0.718
12.0548	0.72
12.089	0.722
12.1233	0.727
12.1575	0.728
12.1918	0.7246
12.226	0.724
12.2602	0.72
12.2945	0.717
12.3287	0.708
12.363	0.7058
12.3972	0.6908
12.4315	0.6813
12.4657	0.6583
12.5	0.635
12.5342	0.6138
12.5685	0.5834
12.6027	0.5548
12.6369	0.5197
12.6712	0.479
12.7054	0.4421
12.7397	0.3921
12.7739	0.3589
12.8082	0.333
12.8424	0.3146
12.8767	0.3047
12.9109	0.306
12.9451	0.3098
12.9794	0.3335
13.0136	0.3548
13.0479	0.3815
13.0821	0.4049
13.1164	0.4362
13.1506	0.4582
13.1849	0.473
13.2191	0.47
13.2534	0.4473
13.2876	0.4112
13.3218	0.3736
13.3561	0.367
13.3903	0.3755
13.4246	0.4001
13.4588	0.4151
13.4931	0.4267
13.5273	0.4473
13.5616	0.4558
13.5958	0.4645
13.63	0.4795
13.6643	0.4867
13.6985	0.4901
13.7328	0.4989
13.767	0.501
13.8013	0.5
13.8355	0.5015
13.8698	0.505
13.904	0.5087
13.9383	0.5152
13.9725	0.5252
14.0067	0.5219
14.041	0.4942
14.0752	0.4515
14.1095	0.443
14.1437	0.4729
14.178	0.5072
14.2122	0.5296
14.2465	0.54
14.2807	0.544
14.3149	0.546
14.3492	0.548
14.3834	0.55
14.4177	0.55
14.4519	0.5497
14.4862	0.548
14.5204	0.5431
14.5547	0.534
14.5889	0.5241
14.6232	0.5134
14.6574	0.4986
14.6916	0.4798
14.7259	0.4522
14.7601	0.4275
14.7944	0.3945
14.8286	0.387
14.8629	0.3971
14.8971	0.4263
14.9314	0.451
14.9656	0.4685
14.9998	0.5241
15.0341	0.536
15.0683	0.5439
15.1026	0.55
15.1368	0.551
15.1711	0.55
15.2053	0.55
15.2396	0.55
15.2738	0.548
15.3081	0.544
