Infrared Spectrum: 2-Bromonaphthalene
Formula: C 10 H 7 Br
CAS: 580-13-2
State: gas
Instrument: HP-GC/MS/IRD
Origin: NIST Mass Spectrometry Data Center
1/CM	ABSORBANCE
550	0.0004208
562	0.0003672
574	0.0015552
586	0.0021392
598	0.0002904
610	0.0002944
622	0.0001824
634	5.76e-05
646	4.32e-05
658	6.56e-05
670	0.0001288
682	6.32e-05
694	0.0001312
706	0.0003016
718	0.0011448
730	0.0039592
742	0.0052648
754	0.0024416
766	0.0010504
778	0.0007368
790	0.0027728
802	0.0069024
814	0.00508
826	0.0063704
838	0.0067744
850	0.0047816
862	0.0025256
874	0.001772
886	0.00134
898	0.0004544
910	0.0003184
922	0.0004584
934	0.0039944
946	0.0035192
958	0.0006992
970	0.000288
982	0.0002304
994	0.0004272
1006	0.0001984
1018	0.0001072
1030	5.28e-05
1042	0.00036
1054	0.0031728
1066	0.0040664
1078	0.000312
1090	0.0001464
1102	0.0002624
1114	0.000536
1126	0.001744
1138	0.00234
1150	0.000776
1162	0.0001424
1174	0.0001336
1186	0.0007104
1198	0.0007208
1210	0.0004512
1222	0.0007424
1234	0.0009856
1246	0.0006288
1258	0.0007472
1270	0.0007176
1282	0.000216
1294	6e-05
1306	0.0001112
1318	0.0002544
1330	0.0007488
1342	0.0012336
1354	0.0012752
1366	0.0007632
1378	0.000256
1390	9.04e-05
1402	0.0001248
1414	0.000228
1426	0.000332
1438	0.000816
1450	0.0023032
1462	0.0015632
1474	0.0011584
1486	0.00108
1498	0.004632
1510	0.0017112
1522	0.000356
1534	0.0005104
1546	0.0006416
1558	0.0008208
1570	0.0016024
1582	0.004808
1594	0.0047072
1606	0.0011656
1618	0.0017704
1630	0.00212
1642	0.0005088
1654	0.0002344
1666	0.0001808
1678	0.0003632
1690	0.0006792
1702	0.0004488
1714	0.0003264
1726	0.0004376
1738	0.0005232
1750	0.0005864
1762	0.0003584
1774	0.0003528
1786	0.0003288
1798	0.0002352
1810	0.0002736
1822	0.0003768
1834	0.0002928
1846	0.0002096
1858	0.0001784
1870	9.2e-05
1882	0.0002648
1894	0.0005936
1906	0.0005272
1918	0.0004272
1930	0.0003568
1942	0.00052
1954	0.0002544
1966	7.28e-05
1978	4.96e-05
1990	4.56e-05
2002	5.2e-05
2014	2.88e-05
2026	5.6e-05
2038	2.08e-05
2050	4e-05
2062	4.56e-05
2074	5.92e-05
2086	6.24e-05
2098	4.32e-05
2110	4.8e-05
2122	4.64e-05
2134	4.32e-05
2146	1.6e-05
2158	2.56e-05
2170	3.44e-05
2182	7.44e-05
2194	2.64e-05
2206	4.32e-05
2218	6e-05
2230	6.4e-06
2242	1.28e-05
2254	3.2e-05
2266	8.56e-05
2278	0.0001528
2290	0.00016
2302	9.44e-05
2314	6.4e-05
2326	4.48e-05
2338	5.84e-05
2350	6.72e-05
2362	1.84e-05
2374	5.12e-05
2386	5.04e-05
2398	8.96e-05
2410	7.84e-05
2422	8.8e-05
2434	8.96e-05
2446	0.0001
2458	0.0001144
2470	9.28e-05
2482	6.72e-05
2494	9.28e-05
2506	8.08e-05
2518	7.36e-05
2530	3.2e-05
2542	6.72e-05
2554	5.52e-05
2566	7.6e-05
2578	6.96e-05
2590	6.64e-05
2602	3.68e-05
2614	3.76e-05
2626	7.68e-05
2638	6.24e-05
2650	7.04e-05
2662	2.72e-05
2674	8.24e-05
2686	8.96e-05
2698	7.68e-05
2710	8.24e-05
2722	4.24e-05
2734	6e-05
2746	7.36e-05
2758	5.84e-05
2770	8.56e-05
2782	4.16e-05
2794	5.04e-05
2806	3.36e-05
2818	4.8e-05
2830	7.28e-05
2842	8.32e-05
2854	4.72e-05
2866	0.0001096
2878	8.64e-05
2890	9.12e-05
2902	0.0001176
2914	0.0001648
2926	0.000168
2938	0.000264
2950	0.0003072
2962	0.000308
2974	0.0003136
2986	0.0003416
2998	0.0004544
3010	0.000644
3022	0.0010152
3034	0.0012424
3046	0.0025816
3058	0.007008
3070	0.0071608
3082	0.0037696
3094	0.0017144
3106	0.0004912
3118	0.0002656
3130	0.0001576
3142	0.0001408
3154	0.0001568
3166	0.0001688
3178	0.0001232
3190	8.72e-05
3202	0.0001088
3214	6.88e-05
3226	5.92e-05
3238	6.96e-05
3250	4.16e-05
3262	6.64e-05
3274	5.2e-05
3286	4.56e-05
3298	3.92e-05
3310	6.32e-05
3322	5.44e-05
3334	8e-05
3346	7.52e-05
3358	4.88e-05
3370	6.48e-05
3382	2e-05
3394	5.04e-05
3406	4.08e-05
3418	6.72e-05
3430	6.16e-05
3442	7.92e-05
3454	5.6e-05
3466	2.4e-05
3478	6.16e-05
3490	6.88e-05
3502	5.36e-05
3514	1.2e-05
3526	4.72e-05
3538	7.68e-05
3550	0.0001216
3562	5.6e-05
3574	9.12e-05
3586	3.6e-05
3598	8.4e-05
3610	5.36e-05
3622	6.88e-05
3634	5.2e-05
3646	0.0001016
3658	5.52e-05
3670	6.24e-05
3682	4.96e-05
3694	8.48e-05
3706	8e-05
3718	1.36e-05
3730	4.88e-05
3742	2.16e-05
3754	1.28e-05
3766	3.92e-05
3778	6.16e-05
3790	9.76e-05
3802	2.56e-05
3814	0
3826	0.0001072
3838	8.96e-05
