Infrared Spectrum: 3-Aminoquinoline
Formula: C9 H8 N2
CAS: 580-17-6
State: SOLID (SPLIT MULL)
Class: COBLENTZ III
Instrument: BECKMAN IR-9 (GRATING)
Instrument parameters: ORDER CHANGES: 670, 1200, 2000 CM^-^1
Sampling: TRANSMISSION
Resolution: 2
Origin: DOW CHEMICAL COMPANY
1/CM	TRANSMITTANCE
400	0.6788
409	0.6637
418	0.6439
427	0.6412
436	0.6468
445	0.6576
454	0.6736
463	0.6544
472	0.6231
481	0.7142
490	0.7511
499	0.7458
508	0.7311
517	0.7118
526	0.6921
535	0.7538
544	0.7494
553	0.723
562	0.708
571	0.7075
580	0.7081
589	0.7004
598	0.7058
607	0.6654
616	0.573
625	0.7165
634	0.7214
643	0.7105
652	0.6352
661	0.6943
670	0.6972
679	0.7005
688	0.7021
697	0.706
706	0.701
715	0.6668
724	0.5916
733	0.5944
742	0.625
751	0.5265
760	0.1799
769	0.6621
778	0.5084
787	0.5629
796	0.7798
805	0.7785
814	0.7746
823	0.7661
832	0.7621
841	0.7397
850	0.3932
859	0.7344
868	0.7361
877	0.2984
886	0.7193
895	0.7383
904	0.7343
913	0.7424
922	0.7388
931	0.7244
940	0.6885
949	0.6689
958	0.4962
967	0.7111
976	0.6849
985	0.5079
994	0.7286
1003	0.7384
1012	0.7084
1021	0.7339
1030	0.7362
1039	0.7342
1048	0.7304
1057	0.7247
1066	0.7195
1075	0.7148
1084	0.7122
1093	0.7115
1102	0.6951
1111	0.6868
1120	0.6793
1129	0.5912
1138	0.6854
1147	0.6646
1156	0.656
1165	0.6682
1174	0.6426
1183	0.6391
1192	0.5
1201	0.6458
1210	0.6668
1219	0.5471
1228	0.5988
1237	0.5747
1246	0.6461
1255	0.6726
1264	0.6006
1273	0.6462
1282	0.628
1291	0.5339
1300	0.23
1309	0.6321
1318	0.628
1327	0.6181
1336	0.587
1345	0.4357
1354	0.3743
1363	0.6643
1372	0.5942
1381	0.4324
1390	0.6494
1399	0.7472
1408	0.6867
1417	0.7071
1426	0.6511
1435	0.355
1444	0.7161
1453	0.7917
1462	0.7684
1471	0.61
1480	0.7617
1489	0.7161
1498	0.2808
1507	0.7486
1516	0.7654
1525	0.8253
1534	0.8125
1543	0.7946
1552	0.7792
1561	0.7326
1570	0.6032
1579	0.7235
1588	0.6545
1597	0.5757
1606	0.4615
1615	0.1228
1624	0.1844
1633	0.4318
1642	0.82
1651	0.8468
1660	0.8696
1669	0.8468
1678	0.8445
1687	0.8481
1696	0.8428
1705	0.8292
1714	0.8383
1723	0.8302
1732	0.8323
1741	0.8321
1750	0.818
1759	0.8148
1768	0.827
1777	0.8227
1786	0.8131
1795	0.7943
1804	0.7762
1813	0.7831
1822	0.7785
1831	0.7728
1840	0.7842
1849	0.7744
1858	0.7594
1867	0.7499
1876	0.7691
1885	0.7649
1894	0.7637
1903	0.7565
1912	0.7517
1921	0.7486
1930	0.7407
1939	0.7521
1948	0.7434
1957	0.7283
1966	0.7451
1975	0.7465
1984	0.7455
1993	0.7361
2002	0.7401
2011	0.7428
2020	0.7424
2029	0.7401
2038	0.7344
2047	0.7289
2056	0.7233
2065	0.7175
2074	0.7125
2083	0.7091
2092	0.7065
2101	0.703
2110	0.6984
2119	0.6943
2128	0.6905
2137	0.6861
2146	0.6815
2155	0.678
2164	0.6745
2173	0.6708
2182	0.6671
2191	0.6633
2200	0.6595
2209	0.6558
2218	0.6526
2227	0.6489
2236	0.645
2245	0.6401
2254	0.6348
2263	0.6294
2272	0.6241
2281	0.6187
2290	0.6153
2299	0.6119
2308	0.6087
2317	0.606
2326	0.6035
2335	0.601
2344	0.5992
2353	0.5976
2362	0.5962
2371	0.5951
2380	0.594
2389	0.5926
2398	0.591
2407	0.5883
2416	0.5859
2425	0.5843
2434	0.5827
2443	0.581
2452	0.5793
2461	0.5774
2470	0.5751
2479	0.5728
2488	0.5705
2497	0.5681
2506	0.5658
2515	0.5635
2524	0.5615
2533	0.5595
2542	0.5575
2551	0.5557
2560	0.554
2569	0.5517
2578	0.5485
2587	0.5452
2596	0.5415
2605	0.5379
2614	0.5342
2623	0.5307
2632	0.529
2641	0.529
2650	0.5266
2659	0.5226
2668	0.5162
2677	0.509
2686	0.5041
2695	0.5012
2704	0.4981
2713	0.4949
2722	0.4915
2731	0.4886
2740	0.4888
2749	0.4891
2758	0.4893
2767	0.4889
2776	0.4879
2785	0.486
2794	0.484
2803	0.4805
2812	0.4768
2821	0.4743
2830	0.4725
2839	0.4671
2848	0.4588
2857	0.4515
2866	0.4484
2875	0.4467
2884	0.4457
2893	0.4421
2902	0.4358
2911	0.4278
2920	0.4199
2929	0.412
2938	0.4071
2947	0.4073
2956	0.4076
2965	0.4076
2974	0.4071
2983	0.4053
2992	0.4009
3001	0.3947
3010	0.3862
3019	0.38
3028	0.3743
3037	0.3614
3046	0.3562
3055	0.3496
3064	0.3759
3073	0.3743
3082	0.3766
3091	0.3757
3100	0.3706
3109	0.3647
3118	0.3568
3127	0.3484
3136	0.34
3145	0.3303
3154	0.3187
3163	0.3045
3172	0.2845
3181	0.2568
3190	0.2167
3199	0.1731
3208	0.1874
3217	0.2584
3226	0.2961
3235	0.3107
3244	0.3102
3253	0.3066
3262	0.3021
3271	0.2975
3280	0.2896
3289	0.2732
3298	0.2505
3307	0.2234
3316	0.1945
3325	0.1554
3334	0.1215
3343	0.1273
3352	0.2641
3361	0.3532
3370	0.3858
3379	0.3893
3388	0.3844
3397	0.3728
3406	0.362
3415	0.3462
3424	0.3308
3433	0.3137
3442	0.2887
3451	0.2475
3460	0.1215
3469	0.0692
3478	0.4207
3487	0.4244
3496	0.4191
3505	0.4122
3514	0.4062
3523	0.4005
3532	0.3952
3541	0.3905
3550	0.3862
3559	0.3823
3568	0.3784
3577	0.375
3586	0.3723
3595	0.3696
3604	0.3666
3613	0.3639
3622	0.3609
3631	0.3575
3640	0.3541
3649	0.351
3658	0.3484
3667	0.3459
3676	0.3434
3685	0.3412
3694	0.3391
3703	0.3368
3712	0.3348
3721	0.3326
3730	0.3306
3739	0.3282
3748	0.3259
3757	0.3234
3766	0.3216
3775	0.3199
3784	0.3182
3793	0.3165
