Infrared Spectrum: 2,4,6-Triphenylpyridine
Formula: C 23 H 17 N
CAS: 580-35-8
State: gas
Origin: EPA-IR VAPOR PHASE LIBRARY
1/CM	ABSORBANCE
549.8	0.000674
559.445	3.6e-05
569.09	0.0007989
578.734	0.001298
588.379	0.0003922
598.024	0.0006896
607.669	0.002298
617.313	0.005018
626.958	0.004238
636.603	0.005048
646.248	0.001688
655.893	0.001628
665.537	0.002998
675.182	0.004138
684.827	0.007288
694.472	0.014118
704.116	0.005738
713.761	0.004288
723.406	0.003638
733.051	0.004718
742.695	0.005148
752.34	0.006888
761.985	0.009088
771.63	0.006488
781.275	0.002998
790.919	0.001898
800.564	0.0010094
810.209	0.001268
819.854	0.002348
829.498	0.001428
839.143	0.0010481
848.788	0.0004191
858.433	0.0007496
868.078	0.002128
877.722	0.003268
887.367	0.0006802
897.012	0.0003865
906.657	0.0003617
916.301	0.0006433
925.946	0.000519
935.591	0.0006017
945.236	0.0003377
954.88	0.0006792
964.525	0.0008415
974.17	0.0007204
983.815	0.0006926
993.46	0.0009485
1003.1	0.0007539
1012.75	0.0008067
1022.39	0.002438
1032.04	0.004238
1041.68	0.001428
1051.33	0.0008826
1060.97	0.001228
1070.62	0.001718
1080.26	0.001318
1089.91	0.0010296
1099.55	0.0009549
1109.2	0.0002662
1118.84	0.0011345
1128.49	0.0009921
1138.13	0.0005381
1147.78	0.0005121
1157.42	0.0005432
1167.07	0.0006551
1176.71	0.002588
1186.36	0.001938
1196	0.000774
1205.64	0.0005152
1215.29	0.001658
1224.93	0.001708
1234.58	0.001478
1244.22	0.001208
1253.87	0.0006522
1263.51	0.0006239
1273.16	0.0003516
1282.8	0.0005317
1292.45	0.00064
1302.09	0.0007841
1311.74	0.0007289
1321.38	0.0007116
1331.03	0.0007558
1340.67	0.0007147
1350.32	0.0011591
1359.96	0.001668
1369.61	0.001598
1379.25	0.002588
1388.9	0.006088
1398.54	0.012598
1408.18	0.005288
1417.83	0.002218
1427.47	0.001728
1437.12	0.001878
1446.76	0.003478
1456.41	0.002818
1466.05	0.001668
1475.7	0.001878
1485.34	0.003338
1494.99	0.009028
1504.63	0.005148
1514.28	0.003718
1523.92	0.004218
1533.57	0.006968
1543.21	0.017648
1552.86	0.020398
1562.5	0.007718
1572.15	0.007518
1581.79	0.013408
1591.44	0.020818
1601.08	0.010648
1610.73	0.006548
1620.37	0.002828
1630.01	0.001588
1639.66	0.001258
1649.3	0.001005
1658.95	0.0008925
1668.59	0.0008919
1678.24	0.0009591
1687.88	0.0009112
1697.53	0.00066
1707.17	0.0006462
1716.82	0.0006218
1726.46	0.0006364
1736.11	0.0007279
1745.75	0.0010092
1755.4	0.0010781
1765.04	0.0008119
1774.69	0.0007884
1784.33	0.0008556
1793.98	0.001458
1803.62	0.0011524
1813.27	0.0007338
1822.91	0.0006741
1832.55	0.0007009
1842.2	0.0005743
1851.84	0.0005361
1861.49	0.0005715
1871.13	0.0007225
1880.78	0.0009921
1890.42	0.0011465
1900.07	0.0007666
1909.71	0.0005512
1919.36	0.0004983
1929	0.0006077
1938.65	0.0010379
1948.29	0.0010838
1957.94	0.001228
1967.58	0.0006684
1977.23	0.0004616
1986.87	0.0003648
1996.52	0.0003518
2006.16	0.0004151
2015.81	0.0003544
2025.45	0.0003566
2035.1	0.0002933
2044.74	0.0003568
2054.38	0.0003104
2064.03	0.0003398
2073.67	0.0003325
2083.32	0.000325
2092.96	0.0003311
2102.61	0.0003907
2112.25	0.0002938
2121.9	0.0003015
2131.54	0.00027091
2141.19	0.00027919
2150.83	0.0003186
2160.48	0.0003891
2170.12	0.00024603
2179.77	0.0003124
2189.41	0.0003388
2199.06	0.0003277
2208.7	0.0004092
2218.35	0.0003704
2227.99	0.000294
2237.64	0.0003637
2247.28	0.00028595
2256.92	0.0003467
2266.57	0.00026649
2276.21	0.0003095
2285.86	0.0003475
2295.5	0.0003265
2305.15	0.0003135
2314.79	0.0005905
2324.44	0.0003399
2334.08	0.0003555
2343.73	0.0004308
2353.37	0.0003785
2363.02	0.0003251
2372.66	0.00027707
2382.31	0.0003567
2391.95	0.00027394
2401.6	0.0003505
2411.24	0.000319
2420.89	0.0003472
2430.53	0.0003864
2440.18	0.0003628
2449.82	0.0003958
2459.47	0.00023907
2469.11	0.0003088
2478.75	0.0002985
2488.4	0.00027485
2498.04	0.00023635
2507.69	0.0003403
2517.33	0.0004197
2526.98	0.0004414
2536.62	0.0003008
2546.27	0.00024349
2555.91	0.0003072
2565.56	0.0002986
2575.2	0.0003231
2584.85	0.0003832
2594.49	0.0003509
2604.14	0.0003475
2613.78	0.0003924
2623.43	0.0004627
2633.07	0.0004429
2642.72	0.0003523
2652.36	0.0003424
2662.01	0.00028361
2671.65	0.000187664
2681.29	0.00023871
2690.94	0.00023874
2700.58	0.00021264
2710.23	0.00026848
2719.87	0.0003777
2729.52	0.0002579
2739.16	0.00018568
2748.81	0.00021737
2758.45	0.00023582
2768.1	0.00024693
2777.74	0.0003287
2787.39	0.00027812
2797.03	0.0003304
2806.68	0.0004643
2816.32	0.00028384
2825.97	0.0003594
2835.61	0.0003553
2845.26	0.0004386
2854.9	0.000356
2864.55	0.0003179
2874.19	0.0003684
2883.84	0.00028439
2893.48	0.00028736
2903.12	0.0004657
2912.77	0.0004075
2922.41	0.0003665
2932.06	0.0003529
2941.7	0.0003808
2951.35	0.0005186
2960.99	0.0004142
2970.64	0.0005562
2980.28	0.0006401
2989.93	0.0008374
2999.57	0.000902
3009.22	0.001258
3018.86	0.001758
3028.51	0.003768
3038.15	0.007458
3047.8	0.005968
3057.44	0.006418
3067.09	0.012988
3076.73	0.009708
3086.38	0.006228
3096.02	0.004548
3105.67	0.003068
3115.31	0.001988
3124.95	0.0010091
3134.6	0.0006303
3144.24	0.0005051
3153.89	0.0005286
3163.53	0.000536
3173.18	0.0002942
3182.82	0.0001653
3192.47	0.0003331
3202.11	0.00023799
3211.76	0.00023881
3221.4	0.0003016
3231.05	0.0001502
3240.69	0.0002892
3250.34	0.00028582
3259.98	0.00020844
3269.63	0.00023005
3279.27	0.00027659
3288.92	0.00022355
3298.56	0.0001721
3308.21	0.0003171
3317.85	0.0001681
3327.49	0.00019834
3337.14	0.000311
3346.78	0.00026941
3356.43	0.00020352
3366.07	0.0002986
3375.72	0.00022098
3385.36	0.000193905
3395.01	0.00021688
3404.65	0.00020758
3414.3	0.00024919
3423.94	0.00020269
3433.59	0.00023021
3443.23	0.00024808
3452.88	0.00027316
3462.52	0.00027833
3472.17	6.5e-05
3481.81	0.000141
3491.46	0.00024321
3501.1	0.00021155
3510.75	0.0003701
3520.39	0.000328
3530.04	0.00028168
3539.68	0.0001619
3549.32	0.0001217
3558.97	0.00023504
3568.61	0.0004076
3578.26	0.0001604
3587.9	0.00024906
3597.55	2e-05
3607.19	0.0002351
3616.84	0.0001643
3626.48	0.0003301
3636.13	0.00026932
3645.77	0.0004462
3655.42	0.0004162
3665.06	0.000187502
3674.71	0.0004081
3684.35	0.0003971
3694	0.00023386
3703.64	0.0004784
3713.29	0.0003782
3722.93	0.00021019
3732.58	0.0003891
3742.22	0.0004322
3751.86	0.0001656
3761.51	0.0001284
3771.15	0.000167
3780.8	0.00024249
3790.44	0.00027181
3800.09	0.0003333
3809.73	0.00025263
3819.38	0.00027538
3829.02	0.00023426
3838.67	0.0001359
3848.31	0.0003439
3857.96	0.0003914
3867.6	0.0002962
3877.25	0.00021745
3886.89	0.0003193
3896.54	0.0004092
3906.18	0.0003843
3915.83	0.0003223
3925.47	0.00025266
3935.12	0.00028633
3944.76	0.00026085
3954.41	0.000178
3964.05	0.00026951
3973.69	0.00022619
3983.34	0.0001505
3992.98	0.0001094
