Infrared Spectrum: 2(o-Aminophenyl)-benzimidazole
Formula: C 13 H 11 N 3
CAS: 5805-39-0
State: gas
Instrument: HP-GC/MS/IRD
Origin: NIST Mass Spectrometry Data Center
1/CM	ABSORBANCE
550	0.0041632
562	0.0043328
574	0.0042144
586	0.002848
598	0.00208
610	0.0018368
622	0.001872
634	0.0015616
646	0.001392
658	0.001456
670	0.0024
682	0.0017088
694	0.0019552
706	0.0023264
718	0.0047776
730	0.0222688
742	0.0262944
754	0.0084672
766	0.0036352
778	0.0017856
790	0.0026816
802	0.0023488
814	0.0013216
826	0.0017568
838	0.0016704
850	0.0015648
862	0.0016416
874	0.001584
886	0.0014656
898	0.0015584
910	0.0017312
922	0.0012576
934	0.0003904
946	5.44e-05
958	0.000352
970	0.000416
982	0.0002976
994	0.0005024
1006	0.0012224
1018	0.0005024
1030	0.000672
1042	0.0011072
1054	0.0009536
1066	0.0010688
1078	0.0010688
1090	0.0007136
1102	7.68e-05
1114	0.0002368
1126	0.0001728
1138	0.000768
1150	0.0039552
1162	0.0080192
1174	0.001824
1186	0.0008448
1198	0.000848
1210	0.0015424
1222	0.003008
1234	0.003344
1246	0.0056448
1258	0.0162848
1270	0.0198528
1282	0.0072256
1294	0.0033472
1306	0.0063296
1318	0.0121856
1330	0.0067712
1342	0.0030496
1354	0.0032128
1366	0.0027872
1378	0.00344
1390	0.0075584
1402	0.0058816
1414	0.0026848
1426	0.0036192
1438	0.0135776
1450	0.0173632
1462	0.0083168
1474	0.0055488
1486	0.0120448
1498	0.0163136
1510	0.0088096
1522	0.010848
1534	0.0135104
1546	0.0037664
1558	0.0025664
1570	0.0037536
1582	0.006
1594	0.0093056
1606	0.0154528
1618	0.0283648
1630	0.0213792
1642	0.0059232
1654	0.0029216
1666	0.0014944
1678	0.0009952
1690	0.0005856
1702	0.0003808
1714	0.0004672
1726	0.0003456
1738	0.0002688
1750	0.000688
1762	0.0007872
1774	0.000272
1786	0.0002848
1798	0.0007008
1810	0.000272
1822	0.0001824
1834	0.000496
1846	0.0005312
1858	0.0002784
1870	0.0006496
1882	0.0009056
1894	0.0004512
1906	0.0007008
1918	0.0016672
1930	0.0004032
1942	4.16e-05
1954	9.6e-06
1966	0
1978	1.6e-05
1990	4.16e-05
2002	5.12e-05
2014	5.76e-05
2026	6.72e-05
2038	5.76e-05
2050	5.44e-05
2062	7.68e-05
2074	9.28e-05
2086	9.28e-05
2098	9.92e-05
2110	0.0001856
2122	0.000176
2134	0.0001536
2146	0.0001792
2158	0.0001792
2170	0.000192
2182	0.0001568
2194	0.0001344
2206	0.0001216
2218	9.28e-05
2230	9.92e-05
2242	5.44e-05
2254	8e-05
2266	9.6e-05
2278	0.0001152
2290	0.0001504
2302	0.0001312
2314	8.64e-05
2326	0.0001536
2338	7.04e-05
2350	5.12e-05
2362	7.04e-05
2374	0.0001152
2386	9.28e-05
2398	0.0001056
2410	0.0001056
2422	0.0001312
2434	0.0001056
2446	0.0001984
2458	0.0002272
2470	0.0001312
2482	0.0001312
2494	0.0001184
2506	0.0001216
2518	0.0001728
2530	0.0001824
2542	0.0001696
2554	0.0001056
2566	0.0001632
2578	0.00024
2590	0.0002816
2602	0.0002528
2614	0.0002112
2626	0.0001536
2638	0.000144
2650	0.000208
2662	0.0001696
2674	0.0001824
2686	0.0002304
2698	0.0002336
2710	0.0001376
2722	0.0001152
2734	7.68e-05
2746	0.0001632
2758	0.000224
2770	0.0001504
2782	0.0001696
2794	0.0001888
2806	0.000176
2818	0.0001472
2830	0.0001088
2842	0.00016
2854	0.0001984
2866	0.0002176
2878	0.0002752
2890	0.0003424
2902	0.0003008
2914	0.0002496
2926	0.0002304
2938	0.0002784
2950	0.0002624
2962	0.0003328
2974	0.0004832
2986	0.0006368
2998	0.0008608
3010	0.001648
3022	0.0032512
3034	0.0052288
3046	0.0067072
3058	0.0078848
3070	0.0110528
3082	0.009024
3094	0.0038848
3106	0.001712
3118	0.001008
3130	0.0007072
3142	0.000576
3154	0.0005696
3166	0.0006752
3178	0.0010048
3190	0.0012448
3202	0.0013056
3214	0.00136
3226	0.0013856
3238	0.0013408
3250	0.0014304
3262	0.0017536
3274	0.0024928
3286	0.0038528
3298	0.0068352
3310	0.0093792
3322	0.0093408
3334	0.0075904
3346	0.0050048
3358	0.0029408
3370	0.0016736
3382	0.0010976
3394	0.0010016
3406	0.0008
3418	0.0007744
3430	0.0008096
3442	0.0012512
3454	0.0017984
3466	0.0025536
3478	0.0043616
3490	0.0082208
3502	0.0130304
3514	0.0093408
3526	0.0028992
3538	0.0011104
3550	0.0006304
3562	0.0003872
3574	0.0002816
3586	0.000144
3598	0.000224
3610	0.000208
3622	0.0002048
3634	0.000208
3646	0.0001472
3658	0.0001056
3670	0.0001472
3682	9.28e-05
3694	6.4e-05
3706	0.0001792
3718	9.28e-05
3730	8.64e-05
3742	0.0001152
3754	0.0001344
3766	5.12e-05
3778	5.76e-05
3790	9.6e-05
3802	4.8e-05
3814	3.84e-05
3826	6.08e-05
3838	8.96e-05
