Infrared Spectrum: 3,4-Dichlorophenyl acetic acid
Formula: C 8 H 6 Cl 2 O 2
CAS: 5807-30-7
State: gas
Origin: EPA-IR VAPOR PHASE LIBRARY
1/CM	ABSORBANCE
549.9	0.0641
559.547	0.03736
569.193	0.02559
578.84	0.0246
588.486	0.03098
598.133	0.04671
607.779	0.06789
617.426	0.07578
627.072	0.0733
636.719	0.06302
646.365	0.04764
656.012	0.03395
665.658	0.02763
675.305	0.04424
684.951	0.05445
694.598	0.02586
704.245	0.01582
713.891	0.0126
723.538	0.01238
733.184	0.01409
742.831	0.01734
752.477	0.02133
762.124	0.02202
771.77	0.01772
781.417	0.01276
791.063	0.01493
800.71	0.0308
810.356	0.04722
820.003	0.02628
829.649	0.01239
839.296	0.01012
848.943	0.01217
858.589	0.01641
868.236	0.01967
877.882	0.02286
887.529	0.02872
897.175	0.02656
906.822	0.01892
916.468	0.01483
926.115	0.01389
935.761	0.01426
945.408	0.01416
955.054	0.01159
964.701	0.00964
974.347	0.00842
983.994	0.00775
993.64	0.00747
1003.29	0.00761
1012.93	0.01024
1022.58	0.02449
1032.23	0.07029
1041.87	0.05902
1051.52	0.02154
1061.17	0.02068
1070.81	0.03114
1080.46	0.05301
1090.11	0.09241
1099.75	0.16119
1109.4	0.27333
1119.05	0.2839
1128.69	0.19654
1138.34	0.1542
1147.99	0.10384
1157.63	0.06915
1167.28	0.04694
1176.92	0.04421
1186.57	0.05029
1196.22	0.06094
1205.86	0.05822
1215.51	0.04704
1225.16	0.04078
1234.8	0.03537
1244.45	0.03301
1254.1	0.03363
1263.74	0.03168
1273.39	0.02771
1283.04	0.02588
1292.68	0.02428
1302.33	0.02174
1311.98	0.02097
1321.62	0.02237
1331.27	0.02707
1340.92	0.03756
1350.56	0.05153
1360.21	0.05197
1369.86	0.04329
1379.5	0.03739
1389.15	0.03935
1398.79	0.04573
1408.44	0.03813
1418.09	0.02836
1427.73	0.02646
1437.38	0.02558
1447.03	0.02448
1456.67	0.0373
1466.32	0.1034
1475.97	0.12723
1485.61	0.0377
1495.26	0.01983
1504.91	0.01291
1514.55	0.00726
1524.2	0.00584
1533.85	0.00616
1543.49	0.00916
1553.14	0.01569
1562.79	0.01774
1572.43	0.01176
1582.08	0.01081
1591.73	0.0144
1601.37	0.01155
1611.02	0.00733
1620.67	0.00608
1630.31	0.00524
1639.96	0.0049872
1649.6	0.00524
1659.25	0.00569
1668.9	0.00627
1678.54	0.00665
1688.19	0.00761
1697.84	0.00943
1707.48	0.0126
1717.13	0.01804
1726.78	0.02687
1736.42	0.0431
1746.07	0.07284
1755.72	0.11813
1765.36	0.17107
1775.01	0.24337
1784.66	0.2602
1794.3	0.19682
1803.95	0.12984
1813.6	0.0689
1823.24	0.03453
1832.89	0.0192
1842.54	0.01251
1852.18	0.00915
1861.83	0.00734
1871.47	0.00667
1881.12	0.00706
1890.77	0.00742
1900.41	0.00622
1910.06	0.0048523
1919.71	0.0043525
1929.35	0.004039
1939	0.003739
1948.65	0.00363
1958.29	0.003679
1967.94	0.003822
1977.59	0.003824
1987.23	0.003769
1996.88	0.003741
2006.53	0.0037
2016.17	0.003662
2025.82	0.003447
2035.47	0.003254
2045.11	0.00312
2054.76	0.00304
2064.41	0.00299
2074.05	0.00289
2083.7	0.00288
2093.35	0.00287
2102.99	0.00293
2112.64	0.00315
2122.28	0.003625
2131.93	0.003745
2141.58	0.003268
2151.22	0.00318
2160.87	0.00311
2170.52	0.00302
2180.16	0.00307
2189.81	0.0032
2199.46	0.003336
2209.1	0.00351
2218.75	0.003586
2228.4	0.003535
2238.04	0.003363
2247.69	0.00321
2257.34	0.00308
2266.98	0.00305
2276.63	0.00308
2286.28	0.00318
2295.92	0.00322
2305.57	0.003261
2315.22	0.003225
2324.86	0.003289
2334.51	0.003308
2344.16	0.003225
2353.8	0.003259
2363.45	0.003313
2373.09	0.003335
2382.74	0.003308
2392.39	0.003244
2402.03	0.00309
2411.68	0.00289
2421.33	0.00278
2430.97	0.00277
2440.62	0.00275
2450.27	0.00281
2459.91	0.00288
2469.56	0.00283
2479.21	0.00272
2488.85	0.00256
2498.5	0.00244
2508.15	0.0024
2517.79	0.00248
2527.44	0.00254
2537.09	0.00261
2546.73	0.0025
2556.38	0.00229
2566.03	0.00213
2575.67	0.00209
2585.32	0.0021
2594.96	0.00212
2604.61	0.00214
2614.26	0.00209
2623.9	0.00219
2633.55	0.00217
2643.2	0.00203
2652.84	0.00194
2662.49	0.0019
2672.14	0.00186
2681.78	0.00181
2691.43	0.00179
2701.08	0.00174
2710.72	0.00166
2720.37	0.0018
2730.02	0.00188
2739.66	0.00166
2749.31	0.00142
2758.96	0.00135
2768.6	0.0013
2778.25	0.00134
2787.9	0.00141
2797.54	0.00139
2807.19	0.00142
2816.84	0.00153
2826.48	0.00166
2836.13	0.00164
2845.77	0.00189
2855.42	0.00194
2865.07	0.0018
2874.71	0.0017
2884.36	0.00191
2894.01	0.0021
2903.65	0.00266
2913.3	0.003892
2922.95	0.00637
2932.59	0.00834
2942.24	0.00876
2951.89	0.00768
2961.53	0.00602
2971.18	0.005132
2980.83	0.0047472
2990.47	0.0045459
3000.12	0.004061
3009.77	0.003369
3019.41	0.00318
3029.06	0.0041675
3038.71	0.0051504
3048.35	0.0051867
3058	0.00676
3067.64	0.00757
3077.29	0.00534
3086.94	0.003866
3096.58	0.00273
3106.23	0.00129
3115.88	0.00071
3125.52	0.00052
3135.17	0.00048
3144.82	0.00048
3154.46	0.00035
3164.11	0.0003
3173.76	0.0002
3183.4	6e-05
3193.05	0.0001
3202.7	0.00013
3212.34	0.00017
3221.99	0.00016
3231.64	0.00015
3241.28	0.00017
3250.93	0.00023
3260.58	0.00021
3270.22	0.00025
3279.87	0.00026
3289.52	0.00031
3299.16	0.00027
3308.81	0.00035
3318.45	0.00036
3328.1	0.00044
3337.75	0.00037
3347.39	0.00044
3357.04	0.00048
3366.69	0.00056
3376.33	0.00068
3385.98	0.00057
3395.63	0.00074
3405.27	0.00075
3414.92	0.00092
3424.57	0.00095
3434.21	0.001
3443.86	0.00112
3453.51	0.00122
3463.15	0.00152
3472.8	0.00152
3482.45	0.00173
3492.09	0.00215
3501.74	0.00269
3511.39	0.003471
3521.03	0.0044387
3530.68	0.00624
3540.33	0.01043
3549.97	0.01837
3559.62	0.03855
3569.26	0.12552
3578.91	0.11279
3588.56	0.03149
3598.2	0.01402
3607.85	0.00705
3617.5	0.0045954
3627.14	0.003739
3636.79	0.00317
3646.44	0.00276
3656.08	0.00247
3665.73	0.00221
3675.38	0.00223
3685.02	0.00225
3694.67	0.00235
3704.32	0.00243
3713.96	0.00226
3723.61	0.00238
3733.26	0.00227
3742.9	0.00243
3752.55	0.0024
3762.2	0.00239
3771.84	0.00245
3781.49	0.00243
3791.13	0.00244
3800.78	0.00236
3810.43	0.00232
3820.07	0.00235
3829.72	0.00232
3839.37	0.0023
3849.01	0.00238
3858.66	0.0023
3868.31	0.00231
3877.95	0.00238
3887.6	0.00244
3897.25	0.00232
3906.89	0.00233
3916.54	0.00233
3926.19	0.0023
3935.83	0.00239
3945.48	0.00238
3955.13	0.00236
3964.77	0.00242
3974.42	0.00239
3984.07	0.00244
3993.71	0.00242
