Infrared Spectrum: 2,6-Dimethylnaphthalene
Formula: C 12 H 12
CAS: 581-42-0
State: gas
Instrument: HP-GC/MS/IRD
Origin: NIST Mass Spectrometry Data Center
1/CM	ABSORBANCE
550	0.000216
562	9.1e-05
574	0.000352
586	0.000436
598	9.4e-05
610	0.000253
622	0.000683
634	0.001444
646	0.000771
658	0.000307
670	0.000577
682	0.00019
694	2e-05
706	7.8e-05
718	0.000105
730	0.000108
742	9e-05
754	0.000127
766	0.000198
778	0.000496
790	0.00259
802	0.006944
814	0.004948
826	0.00216
838	0.001282
850	0.001443
862	0.003714
874	0.005262
886	0.002223
898	0.000784
910	0.001155
922	0.000592
934	0.000358
946	0.000486
958	0.000623
970	0.000372
982	0.000295
994	0.000404
1006	0.000833
1018	0.00069
1030	0.000525
1042	0.000499
1054	0.000388
1066	0.000235
1078	0.000173
1090	0.000116
1102	0.000223
1114	0.000427
1126	0.000807
1138	0.000797
1150	0.000701
1162	0.000539
1174	0.000378
1186	0.000317
1198	0.000443
1210	0.000822
1222	0.000662
1234	0.000337
1246	0.000312
1258	0.000523
1270	0.000761
1282	0.000551
1294	0.00027
1306	0.00025
1318	0.000324
1330	0.000469
1342	0.0007
1354	0.000891
1366	0.001125
1378	0.001006
1390	0.000817
1402	0.000623
1414	0.000654
1426	0.000865
1438	0.001127
1450	0.001388
1462	0.001281
1474	0.000986
1486	0.001225
1498	0.002852
1510	0.002477
1522	0.001301
1534	0.001118
1546	0.000991
1558	0.000901
1570	0.001022
1582	0.001692
1594	0.002495
1606	0.003662
1618	0.003112
1630	0.001726
1642	0.000868
1654	0.000444
1666	0.000329
1678	0.000295
1690	0.000331
1702	0.000369
1714	0.000424
1726	0.000386
1738	0.000817
1750	0.001114
1762	0.000595
1774	0.000201
1786	0.000158
1798	0.000155
1810	0.000154
1822	0.000222
1834	0.000337
1846	0.000229
1858	0.000144
1870	0.000116
1882	0.000253
1894	0.000611
1906	0.000686
1918	0.000326
1930	0.000149
1942	6.4e-05
1954	7.1e-05
1966	5.9e-05
1978	3.6e-05
1990	5.1e-05
2002	4.2e-05
2014	4.9e-05
2026	2.8e-05
2038	3.1e-05
2050	4.6e-05
2062	7.5e-05
2074	5.7e-05
2086	4.5e-05
2098	4.9e-05
2110	5.5e-05
2122	6.6e-05
2134	5.5e-05
2146	5.2e-05
2158	5.1e-05
2170	4.5e-05
2182	6e-05
2194	5.3e-05
2206	5.8e-05
2218	6.7e-05
2230	3.4e-05
2242	7e-06
2254	3.5e-05
2266	4.4e-05
2278	6.1e-05
2290	8.6e-05
2302	0.000102
2314	7.2e-05
2326	3.6e-05
2338	5e-05
2350	4e-05
2362	3.5e-05
2374	5.8e-05
2386	0.000112
2398	0.000124
2410	0.000125
2422	0.000103
2434	8.9e-05
2446	0.000101
2458	9.4e-05
2470	9.5e-05
2482	5.6e-05
2494	6.9e-05
2506	6.9e-05
2518	8.6e-05
2530	8.2e-05
2542	9.8e-05
2554	6.7e-05
2566	5.4e-05
2578	4.7e-05
2590	8.2e-05
2602	6.5e-05
2614	7.1e-05
2626	6.7e-05
2638	6.8e-05
2650	5e-05
2662	6.8e-05
2674	4.3e-05
2686	7.1e-05
2698	8.3e-05
2710	0.000114
2722	0.000198
2734	0.000356
2746	0.000468
2758	0.000313
2770	0.000214
2782	0.000223
2794	0.000227
2806	0.000327
2818	0.000461
2830	0.000676
2842	0.001111
2854	0.002021
2866	0.003656
2878	0.004759
2890	0.004397
2902	0.004089
2914	0.004968
2926	0.009052
2938	0.008685
2950	0.004714
2962	0.00445
2974	0.004725
2986	0.004721
2998	0.004159
3010	0.004967
3022	0.007884
3034	0.007502
3046	0.008929
3058	0.009472
3070	0.00474
3082	0.00192
3094	0.001093
3106	0.000703
3118	0.000407
3130	0.000322
3142	0.000272
3154	0.000208
3166	0.000186
3178	0.000147
3190	0.000105
3202	0.000119
3214	5.5e-05
3226	8.3e-05
3238	6e-05
3250	8e-05
3262	4.2e-05
3274	5.7e-05
3286	2.2e-05
3298	4.4e-05
3310	4.7e-05
3322	3.4e-05
3334	1.3e-05
3346	1.8e-05
3358	3.5e-05
3370	5e-05
3382	5.2e-05
3394	3.3e-05
3406	2.6e-05
3418	5.5e-05
3430	5.8e-05
3442	3.5e-05
3454	1.7e-05
3466	3.1e-05
3478	2.4e-05
3490	4.4e-05
3502	5.4e-05
3514	5.1e-05
3526	3.5e-05
3538	4.9e-05
3550	2.4e-05
3562	4.2e-05
3574	3.2e-05
3586	4.2e-05
3598	5.3e-05
3610	6.9e-05
3622	1.8e-05
3634	4.7e-05
3646	2.7e-05
3658	4e-06
3670	5.2e-05
3682	6.1e-05
3694	0.000103
3706	7.7e-05
3718	4.7e-05
3730	6.2e-05
3742	2.1e-05
3754	2.4e-05
3766	3.7e-05
3778	6.9e-05
3790	5.6e-05
3802	5.1e-05
3814	7.4e-05
3826	8.5e-05
3838	3.1e-05
