Infrared Spectrum: 2-Naphthylacetic acid
Formula: C 12 H 10 O 2
CAS: 581-96-4
State: gas
Origin: EPA-IR VAPOR PHASE LIBRARY
1/CM	ABSORBANCE
549.8	0.013041
559.445	0.014241
569.09	0.009131
578.734	0.007781
588.379	0.009851
598.024	0.011231
607.669	0.010741
617.313	0.009271
626.958	0.008451
636.603	0.010181
646.248	0.009721
655.893	0.008941
665.537	0.008841
675.182	0.010961
684.827	0.009851
694.472	0.004781
704.116	0.003121
713.761	0.003231
723.406	0.005971
733.051	0.011831
742.695	0.010281
752.34	0.007471
761.985	0.006301
771.63	0.005621
781.275	0.006171
790.919	0.006861
800.564	0.010191
810.209	0.013441
819.854	0.007531
829.498	0.004491
839.143	0.005971
848.788	0.005571
858.433	0.003551
868.078	0.002491
877.722	0.002471
887.367	0.003101
897.012	0.003181
906.657	0.002721
916.301	0.002421
925.946	0.002501
935.591	0.002991
945.236	0.003401
954.88	0.003871
964.525	0.003261
974.17	0.001991
983.815	0.001521
993.46	0.001521
1003.1	0.001811
1012.75	0.002441
1022.39	0.002431
1032.04	0.001721
1041.68	0.001911
1051.33	0.002371
1060.97	0.004131
1070.62	0.006871
1080.26	0.012221
1089.91	0.021581
1099.55	0.038181
1109.2	0.058421
1118.84	0.049101
1128.49	0.029221
1138.13	0.020891
1147.78	0.015801
1157.42	0.012661
1167.07	0.010311
1176.71	0.008971
1186.36	0.009491
1196	0.010421
1205.64	0.010291
1215.29	0.009521
1224.93	0.008981
1234.58	0.008071
1244.22	0.006611
1253.87	0.005821
1263.51	0.006331
1273.16	0.006471
1282.8	0.005581
1292.45	0.005361
1302.09	0.005571
1311.74	0.005691
1321.38	0.006271
1331.03	0.007431
1340.67	0.008711
1350.32	0.009621
1359.96	0.009991
1369.61	0.009211
1379.25	0.007041
1388.9	0.004851
1398.54	0.003671
1408.18	0.003311
1417.83	0.003471
1427.47	0.003661
1437.12	0.003421
1446.76	0.002521
1456.41	0.001821
1466.05	0.001521
1475.7	0.001451
1485.34	0.001421
1494.99	0.002161
1504.63	0.005931
1514.28	0.004801
1523.92	0.001301
1533.57	0.0010873
1543.21	0.0010985
1552.86	0.0010809
1562.5	0.001099
1572.15	0.001341
1581.79	0.001861
1591.44	0.002761
1601.08	0.003461
1610.73	0.002311
1620.37	0.001781
1630.01	0.002531
1639.66	0.002961
1649.3	0.001621
1658.95	0.001291
1668.59	0.001501
1678.24	0.002091
1687.88	0.002511
1697.53	0.002731
1707.17	0.003281
1716.82	0.004511
1726.46	0.006751
1736.11	0.010881
1745.75	0.018501
1755.4	0.029061
1765.04	0.042491
1774.69	0.059251
1784.33	0.057551
1793.98	0.041881
1803.62	0.027271
1813.27	0.014421
1822.91	0.007351
1832.55	0.004301
1842.2	0.002811
1851.84	0.001991
1861.49	0.001481
1871.13	0.0012594
1880.78	0.0012436
1890.42	0.001611
1900.07	0.001871
1909.71	0.001781
1919.36	0.001601
1929	0.001421
1938.65	0.001711
1948.29	0.0012397
1957.94	0.0007622
1967.58	0.0006339
1977.23	0.0005884
1986.87	0.0006579
1996.52	0.000631
2006.16	0.0006031
2015.81	0.0005643
2025.45	0.0005432
2035.1	0.0005135
2044.74	0.0005673
2054.38	0.0004706
2064.03	0.0005025
2073.67	0.0004395
2083.32	0.0004485
2092.96	0.0004558
2102.61	0.0003882
2112.25	0.0004789
2121.9	0.000531
2131.54	0.0005052
2141.19	0.0004522
2150.83	0.0004657
2160.48	0.0004418
2170.12	0.0004931
2179.77	0.0004743
2189.41	0.0005019
2199.06	0.0005261
2208.7	0.0006298
2218.35	0.000559
2227.99	0.0005233
2237.64	0.0004843
2247.28	0.0004923
2256.92	0.0004357
2266.57	0.0004811
2276.21	0.0004589
2285.86	0.0005729
2295.5	0.0006209
2305.15	0.0006826
2314.79	0.0006553
2324.44	0.0005789
2334.08	0.0005438
2343.73	0.0005059
2353.37	0.0004773
2363.02	0.0004746
2372.66	0.0004626
2382.31	0.0004896
2391.95	0.0004605
2401.6	0.0004959
2411.24	0.0004932
2420.89	0.0004405
2430.53	0.0004555
2440.18	0.0004856
2449.82	0.0004419
2459.47	0.0003861
2469.11	0.0004096
2478.75	0.00035972
2488.4	0.0004715
2498.04	0.00029269
2507.69	0.0003779
2517.33	0.0003727
2526.98	0.00034349
2536.62	0.0003862
2546.27	0.00034796
2555.91	0.00036472
2565.56	0.0004102
2575.2	0.0004257
2584.85	0.000273024
2594.49	0.00033297
2604.14	0.000398
2613.78	0.00028692
2623.43	0.00032456
2633.07	0.0004213
2642.72	0.00035783
2652.36	0.00026604
2662.01	0.00032312
2671.65	0.00032348
2681.29	0.00031646
2690.94	0.00032459
2700.58	0.0003856
2710.23	0.00033433
2719.87	0.0003802
2729.52	0.00036631
2739.16	0.00032273
2748.81	0.00030284
2758.45	0.000280135
2768.1	0.0002532
2777.74	0.0002214
2787.39	0.00029676
2797.03	0.00035576
2806.68	0.00028421
2816.32	0.0004085
2825.97	0.0004178
2835.61	0.0004788
2845.26	0.0005003
2854.9	0.0006596
2864.55	0.0006064
2874.19	0.00065
2883.84	0.0006996
2893.48	0.0008059
2903.12	0.0011047
2912.77	0.001671
2922.41	0.002401
2932.06	0.002991
2941.7	0.003321
2951.35	0.003021
2960.99	0.002721
2970.64	0.002741
2980.28	0.002741
2989.93	0.002841
2999.57	0.003011
3009.22	0.003381
3018.86	0.005231
3028.51	0.006371
3038.15	0.005911
3047.8	0.009521
3057.44	0.017321
3067.09	0.018661
3076.73	0.010721
3086.38	0.005841
3096.02	0.003561
3105.67	0.001621
3115.31	0.0009513
3124.95	0.0007264
3134.6	0.0006415
3144.24	0.0006226
3153.89	0.0003856
3163.53	0.000377
3173.18	0.0004649
3182.82	0.0005065
3192.47	0.00032344
3202.11	0.00034383
3211.76	0.0002059
3221.4	0.0004005
3231.05	0.0003784
3240.69	0.00034009
3250.34	0.0002424
3259.98	0.00031003
3269.63	0.0003728
3279.27	0.0002372
3288.92	0.00029682
3298.56	0.0002
3308.21	0.000272589
3317.85	0.00029557
3327.49	0.000386
3337.14	0.0002088
3346.78	0.00031663
3356.43	0.0002561
3366.07	8.7e-05
3375.72	0.0002011
3385.36	0.0003952
3395.01	0
3404.65	0.00035264
3414.3	0.00031985
3423.94	0.0002366
3433.59	0.00034638
3443.23	0.00032788
3452.88	0.00035459
3462.52	0.00026292
3472.17	0.00034552
3481.81	0.000603
3491.46	0.0004789
3501.1	0.0005986
3510.75	0.0006978
3520.39	0.0010377
3530.04	0.001541
3539.68	0.002011
3549.32	0.003681
3558.97	0.007011
3568.61	0.022991
3578.26	0.027081
3587.9	0.007931
3597.55	0.003041
3607.19	0.001611
3616.84	0.0008381
3626.48	0.0007582
3636.13	0.0005292
3645.77	0.0004171
3655.42	0.00035394
3665.06	0.0004986
3674.71	0.0004824
3684.35	0.0002544
3694	0.000405
3703.64	0.000455
3713.29	0.00033312
3722.93	0.0004331
3732.58	0.0002609
3742.22	0.00030748
3751.86	0.0004301
3761.51	0.0002325
3771.15	0.0003122
3780.8	0.0002297
3790.44	0.0003824
3800.09	0.0002256
3809.73	0.00036026
3819.38	0.00035834
3829.02	0.00034817
3838.67	0.00035591
3848.31	0.0003914
3857.96	0.0004435
3867.6	0.0005698
3877.25	0.0003784
3886.89	0.000454
3896.54	0.00035831
3906.18	0.0005068
3915.83	0.000461
3925.47	0.0003866
3935.12	0.000221
3944.76	0.0005158
3954.41	0.0002115
3964.05	0.0006194
3973.69	0.00029646
3983.34	0.0003904
3992.98	0.000571
