Infrared Spectrum: 2,3-Dimethylnaphthalene
Formula: C 12 H 12
CAS: 581-40-8
State: gas
Instrument: HP-GC/MS/IRD
Origin: NIST Mass Spectrometry Data Center
1/CM	ABSORBANCE
550	0.0001029
562	0.0001197
574	0.0001302
586	0.0001722
598	7.14e-05
610	0.0004116
622	0.0020433
634	0.001029
646	0.0006468
658	0.0005985
670	0.0002772
682	0.0001701
694	0.0001638
706	0.0004977
718	0.0024423
730	0.0120855
742	0.021
754	0.007581
766	0.0011361
778	0.0003591
790	0.0002646
802	0.0002331
814	0.000252
826	0.0003738
838	0.00084
850	0.0037275
862	0.0116487
874	0.0118335
886	0.0035763
898	0.0012222
910	0.0010374
922	0.000735
934	0.0010626
946	0.0017388
958	0.0008505
970	0.000525
982	0.0010647
994	0.0038409
1006	0.0048573
1018	0.0025578
1030	0.001512
1042	0.0007833
1054	0.0004221
1066	0.0003402
1078	0.000378
1090	0.000378
1102	0.0002289
1114	0.0002541
1126	0.0003801
1138	0.0011718
1150	0.0024045
1162	0.0017136
1174	0.0004788
1186	0.0003066
1198	0.0003276
1210	0.0004914
1222	0.0014742
1234	0.0017934
1246	0.0006174
1258	0.0007644
1270	0.0012285
1282	0.001092
1294	0.0006573
1306	0.0005313
1318	0.0005733
1330	0.0008043
1342	0.001176
1354	0.001239
1366	0.0018144
1378	0.0025473
1390	0.001365
1402	0.0009156
1414	0.0013125
1426	0.0026082
1438	0.0039921
1450	0.006447
1462	0.0070266
1474	0.0041664
1486	0.004515
1498	0.0074676
1510	0.0047208
1522	0.0011802
1534	0.0008694
1546	0.0007497
1558	0.0009135
1570	0.0015099
1582	0.001869
1594	0.0025473
1606	0.0024087
1618	0.0012453
1630	0.001008
1642	0.0010017
1654	0.0006216
1666	0.0006132
1678	0.0013104
1690	0.0013482
1702	0.0007308
1714	0.0005943
1726	0.0007539
1738	0.0009933
1750	0.0010626
1762	0.000735
1774	0.0006615
1786	0.0006426
1798	0.0009198
1810	0.0008211
1822	0.0005313
1834	0.0004683
1846	0.0003465
1858	0.0003255
1870	0.0001995
1882	0.0005229
1894	0.0008106
1906	0.0009303
1918	0.0009135
1930	0.0010731
1942	0.0008022
1954	0.00021
1966	8.61e-05
1978	6.51e-05
1990	4.41e-05
2002	6.93e-05
2014	0.000105
2026	0.0001071
2038	0.000168
2050	0.0001533
2062	7.35e-05
2074	7.14e-05
2086	7.14e-05
2098	7.35e-05
2110	8.61e-05
2122	5.88e-05
2134	5.88e-05
2146	6.93e-05
2158	6.93e-05
2170	5.88e-05
2182	7.56e-05
2194	0.0001281
2206	7.56e-05
2218	3.57e-05
2230	2.52e-05
2242	6.09e-05
2254	6.93e-05
2266	9.45e-05
2278	0.0001218
2290	0.0002499
2302	0.0002814
2314	0.0001764
2326	0.000126
2338	8.19e-05
2350	9.66e-05
2362	8.61e-05
2374	0.0001932
2386	0.0001344
2398	0.0001029
2410	0.0001281
2422	0.0001428
2434	0.0001869
2446	0.0001722
2458	0.0002121
2470	0.0002121
2482	0.0002079
2494	0.000168
2506	0.0001533
2518	0.0001512
2530	0.0001617
2542	0.0001344
2554	9.45e-05
2566	7.77e-05
2578	0.0001218
2590	0.0001113
2602	0.0001533
2614	0.0001407
2626	0.0001386
2638	0.0001344
2650	0.0001113
2662	0.0001302
2674	0.0001281
2686	0.0001533
2698	0.0002037
2710	0.0002688
2722	0.0003444
2734	0.0007308
2746	0.0008337
2758	0.0005502
2770	0.0005985
2782	0.0005376
2794	0.0005943
2806	0.0008631
2818	0.00105
2830	0.0013482
2842	0.0019299
2854	0.0030618
2866	0.0059682
2878	0.0083958
2890	0.0075369
2902	0.0069531
2914	0.0087927
2926	0.0153321
2938	0.0181881
2950	0.013293
2962	0.011172
2974	0.0116193
2986	0.0105714
2998	0.0094332
3010	0.0122409
3022	0.0112833
3034	0.0078414
3046	0.0109389
3058	0.0190638
3070	0.0166971
3082	0.0091266
3094	0.0041286
3106	0.002016
3118	0.0013776
3130	0.001134
3142	0.0008841
3154	0.0006279
3166	0.0005208
3178	0.000378
3190	0.000294
3202	0.0002898
3214	0.0002247
3226	0.0002436
3238	0.0002814
3250	0.000231
3262	0.0001638
3274	0.0001638
3286	0.0001785
3298	0.0001386
3310	0.0001533
3322	0.0001491
3334	0.0001869
3346	0.0001029
3358	0.0001344
3370	0.0001302
3382	0.0001029
3394	0.0001176
3406	0.0001407
3418	0.0001596
3430	0.0001239
3442	0.0001218
3454	0.0001176
3466	0.0001302
3478	0.0001659
3490	5.67e-05
3502	8.61e-05
3514	0.0001407
3526	9.24e-05
3538	7.56e-05
3550	8.4e-05
3562	9.66e-05
3574	0.0001386
3586	4.2e-05
3598	0.0001533
3610	1.68e-05
3622	0.0001029
3634	0.0002079
3646	0.0002037
3658	0.0001848
3670	0.0001197
3682	0.0001953
3694	0.0001722
3706	0.0001323
3718	0.0001533
3730	0.0001638
3742	0.0001113
3754	0.0001029
3766	0.0001827
3778	0.0001071
3790	0.0001365
3802	0.0001449
3814	0.0001743
3826	0.0001281
3838	0.0001239
