Infrared Spectrum: o-PHENETIDINE, N-ACETYL-
Formula: C10 H13 N O2
CAS: 581-08-8
State: SOLUTION (10% CCl4 FOR 3800-1340, 10% CS2 FOR 1340-400 CM^-^1)
Class: COBLENTZ III
Instrument: DOW KBr FOREPRISM-GRATING
Instrument parameters: BLAZED AT 3.5, 12.0, 20.0 MICRON AND CHANGED AT 5.0, 7.5, 14.9 MICRON
Sampling: TRANSMISSION
Path length: 0.011 CM, 0.011 CM
Resolution: 2
Origin: DOW CHEMICAL COMPANY
1/CM	TRANSMITTANCE
3796	0.8899
3787	0.8896
3778	0.8893
3769	0.8889
3760	0.8886
3751	0.8883
3742	0.8884
3733	0.8885
3724	0.8885
3715	0.8886
3706	0.8886
3697	0.8887
3688	0.8881
3679	0.8821
3670	0.8827
3661	0.8855
3652	0.8871
3643	0.8883
3634	0.8894
3625	0.8904
3616	0.8912
3607	0.8906
3598	0.8901
3589	0.8888
3580	0.8875
3571	0.8861
3562	0.8849
3553	0.8835
3544	0.8825
3535	0.8817
3526	0.8808
3517	0.8796
3508	0.8785
3499	0.876
3490	0.873
3481	0.8694
3472	0.8648
3463	0.8544
3454	0.8336
3445	0.7381
3436	0.3184
3427	0.1872
3418	0.5584
3409	0.6976
3400	0.7441
3391	0.7454
3382	0.7337
3373	0.7231
3364	0.7175
3355	0.7158
3346	0.7196
3337	0.7265
3328	0.7361
3319	0.7465
3310	0.7588
3301	0.7699
3292	0.7806
3283	0.7911
3274	0.8021
3265	0.8148
3256	0.8262
3247	0.8338
3238	0.8377
3229	0.8404
3220	0.8418
3211	0.8416
3202	0.8389
3193	0.8404
3184	0.8467
3175	0.8498
3166	0.8512
3157	0.8505
3148	0.8464
3139	0.8345
3130	0.8201
3121	0.8132
3112	0.8135
3103	0.814
3094	0.778
3085	0.7422
3076	0.7407
3067	0.6568
3058	0.6836
3049	0.716
3040	0.7251
3031	0.7096
3022	0.7326
3013	0.7367
3004	0.6964
2995	0.5632
2986	0.3797
2977	0.305
2968	0.5005
2959	0.6441
2950	0.6744
2941	0.6055
2932	0.4968
2923	0.5055
2914	0.5894
2905	0.6198
2896	0.5923
2887	0.5862
2878	0.5772
2869	0.6525
2860	0.7128
2851	0.7817
2842	0.7953
2833	0.803
2824	0.8158
2815	0.8176
2806	0.8228
2797	0.8315
2788	0.8385
2779	0.8361
2770	0.828
2761	0.8249
2752	0.8262
2743	0.8277
2734	0.8267
2725	0.8315
2716	0.8377
2707	0.8453
2698	0.8506
2689	0.852
2680	0.8521
2671	0.8521
2662	0.8505
2653	0.8448
2644	0.8428
2635	0.8457
2626	0.8475
2617	0.8449
2608	0.8437
2599	0.8437
2590	0.841
2581	0.8296
2572	0.8257
2563	0.8321
2554	0.8388
2545	0.8461
2536	0.8471
2527	0.8482
2518	0.8508
2509	0.8521
2500	0.8517
2491	0.8505
2482	0.8478
2473	0.8445
2464	0.8435
2455	0.842
2446	0.8405
2437	0.8395
2428	0.8456
2419	0.8486
2410	0.8467
2401	0.846
2392	0.8486
2383	0.8508
2374	0.8508
2365	0.8428
2356	0.8317
2347	0.8373
2338	0.8365
2329	0.8318
2320	0.8299
2311	0.8338
2302	0.8384
2293	0.8387
2284	0.8328
2275	0.8357
2266	0.8414
2257	0.8454
2248	0.8475
2239	0.8497
2230	0.852
2221	0.8541
2212	0.8562
2203	0.8582
2194	0.8578
2185	0.8552
2176	0.8515
2167	0.8502
2158	0.8543
2149	0.8574
2140	0.8589
2131	0.8601
2122	0.8613
2113	0.8641
2104	0.8646
2095	0.8642
2086	0.8615
2077	0.8588
2068	0.8573
2059	0.8555
2050	0.8431
2041	0.8368
2032	0.8377
2023	0.8467
2014	0.8537
2005	0.8507
1996	0.8601
1987	0.8639
1978	0.8628
1969	0.8606
1960	0.8671
1951	0.8728
1942	0.8601
1933	0.8323
1924	0.8445
1915	0.8514
1906	0.8512
1897	0.8252
1888	0.8221
1879	0.8505
1870	0.8582
1861	0.8553
1852	0.8413
1843	0.8395
1834	0.8442
1825	0.8499
1816	0.8415
1807	0.8442
1798	0.8341
1789	0.8028
1780	0.7807
1771	0.751
1762	0.7724
1753	0.781
1744	0.7805
1735	0.7564
1726	0.6936
1717	0.4321
1708	0.0683
1699	0.0162
1690	0.039
1681	0.1566
1672	0.426
1663	0.6119
1654	0.6692
1645	0.6991
1636	0.6975
1627	0.6593
1618	0.5437
1609	0.0603
1600	0.0928
1591	0.3106
1582	0.4491
1573	0.4691
1564	0.3997
1555	0.2893
1546	0.1169
1537	0.0218
1528	0.0122
1519	0.0139
1510	0.1282
1501	0.3352
1492	0.15
1483	0.1674
1474	0.272
1465	0.3282
1456	0.0128
1447	0.0347
1438	0.2803
1429	0.3336
1420	0.4369
1411	0.5333
1402	0.37
1393	0.2318
1384	0.3788
1375	0.2381
1366	0.2813
1357	0.621
1348	0.6517
1339	0.3914
1330	0.176
1321	0.4752
1312	0.564
1303	0.3816
1294	0.1527
1285	0.4208
1276	0.5358
1267	0.42
1258	0.1006
1249	0.0274
1240	0.129
1231	0.09
1222	0.2491
1213	0.1791
1204	0.332
1195	0.6317
1186	0.691
1177	0.729
1168	0.6883
1159	0.6093
1150	0.6965
1141	0.7149
1132	0.6164
1123	0.1014
1114	0.2332
1105	0.6433
1096	0.6868
1087	0.6278
1078	0.7331
1069	0.7078
1060	0.5562
1051	0.1318
1042	0.1228
1033	0.3546
1024	0.5765
1015	0.6997
1006	0.6456
997	0.5715
988	0.7522
979	0.8382
970	0.8562
961	0.8165
952	0.7169
943	0.8747
934	0.798
925	0.3468
916	0.7698
907	0.8338
898	0.8675
889	0.8973
880	0.8768
871	0.8464
862	0.7998
853	0.7754
844	0.8432
835	0.8844
826	0.8962
817	0.8995
808	0.8789
799	0.7428
790	0.7565
781	0.8446
772	0.7711
763	0.7239
754	0.2728
745	0.0095
736	0.5689
727	0.7128
718	0.7926
709	0.8018
700	0.7965
691	0.7854
682	0.7647
673	0.7339
664	0.6682
655	0.6404
646	0.5581
637	0.4338
628	0.4346
619	0.61
610	0.7661
601	0.6461
592	0.612
583	0.3952
574	0.2856
565	0.5183
556	0.6107
547	0.4625
538	0.2769
529	0.5969
520	0.6925
511	0.749
502	0.7588
493	0.734
484	0.7438
475	0.7646
466	0.7503
457	0.6278
448	0.7636
439	0.7814
430	0.7739
421	0.7442
412	0.6768
403	0.426
394	0.2351
385	0.2017
