Infrared Spectrum: 8-Carboxynaphthalene-1-carboxamide
Formula: C 12 H 9 N O 3
CAS: 5811-88-1
State: gas
Origin: EPA-IR VAPOR PHASE LIBRARY
1/CM	ABSORBANCE
549.9	0.0007306
559.547	0.000896
569.193	0.000523
578.84	0.000609
588.486	0.0006704
598.133	0.0006862
607.779	0.00077135
617.426	0.0008354
627.072	0.0008047
636.719	0.00080139
646.365	0.0010247
656.012	0.0014837
665.658	0.002253
675.305	0.002673
684.951	0.001763
694.598	0.001206
704.245	0.0009585
713.891	0.0008527
723.538	0.0009064
733.184	0.0013144
742.831	0.0016854
752.477	0.0014562
762.124	0.0013923
771.77	0.003703
781.417	0.006953
791.063	0.003103
800.71	0.0014323
810.356	0.0014948
820.003	0.0011831
829.649	0.0009713
839.296	0.0011522
848.943	0.0009363
858.589	0.0008262
868.236	0.00078507
877.882	0.00070914
887.529	0.00077186
897.175	0.0006898
906.822	0.000679
916.468	0.0006631
926.115	0.00074672
935.761	0.0006853
945.408	0.0006464
955.054	0.000594
964.701	0.00057
974.347	0.000582
983.994	0.000607
993.64	0.000594
1003.29	0.000409
1012.93	0.00022
1022.58	0.000232
1032.23	0.000452
1041.87	0.0006436
1051.52	0.0011027
1061.17	0.002143
1070.81	0.002643
1080.46	0.0014826
1090.11	0.0008989
1099.75	0.000898
1109.4	0.0007731
1119.05	0.00059
1128.69	0.000569
1138.34	0.000720381
1147.99	0.0010199
1157.63	0.0009766
1167.28	0.0011858
1176.92	0.001632
1186.57	0.002363
1196.22	0.003393
1205.86	0.003123
1215.51	0.002013
1225.16	0.002613
1234.8	0.004043
1244.45	0.005913
1254.1	0.006993
1263.74	0.004453
1273.39	0.002203
1283.04	0.0015357
1292.68	0.0010737
1302.33	0.0009089
1311.98	0.001188
1321.62	0.001823
1331.27	0.003503
1340.92	0.004753
1350.56	0.004793
1360.21	0.004203
1369.86	0.003903
1379.5	0.002533
1389.15	0.0014468
1398.79	0.0011852
1408.44	0.0009075
1418.09	0.0008597
1427.73	0.0012881
1437.38	0.0015851
1447.03	0.0014039
1456.67	0.001133
1466.32	0.0009395
1475.97	0.0008154
1485.61	0.00074963
1495.26	0.0008268
1504.91	0.0010272
1514.55	0.0009307
1524.2	0.0006722
1533.85	0.00074294
1543.49	0.0006611
1553.14	0.0008278
1562.79	0.0008694
1572.43	0.0014622
1582.08	0.002473
1591.73	0.003053
1601.37	0.002363
1611.02	0.0011808
1620.67	0.0008404
1630.31	0.0008225
1639.96	0.0008879
1649.6	0.0009722
1659.25	0.0011079
1668.9	0.0011949
1678.54	0.0015389
1688.19	0.002463
1697.84	0.004113
1707.48	0.006573
1717.13	0.014693
1726.78	0.028033
1736.42	0.019383
1746.07	0.005543
1755.72	0.002223
1765.36	0.0008779
1775.01	0.0008579
1784.66	0.000702
1794.3	0.000482
1803.95	0.000586
1813.6	0.0008325
1823.24	0.00080354
1832.89	0.00072822
1842.54	0.0007022
1852.18	0.0008318
1861.83	0.0008542
1871.47	0.0007958
1881.12	0.000722151
1890.77	0.000718232
1900.41	0.00077688
1910.06	0.0006918
1919.71	0.000714085
1929.35	0.0006673
1939	0.0006745
1948.65	0.000717284
1958.29	0.0006215
1967.94	0.0006202
1977.59	0.000507
1987.23	0.000534
1996.88	0.000504
2006.53	0.000518
2016.17	0.000478
2025.82	0.000556
2035.47	0.000515
2045.11	0.00047
2054.76	0.000495
2064.41	0.000441
2074.05	0.000569
2083.7	0.000455
2093.35	0.000433
2102.99	0.000516
2112.64	0.000464
2122.28	0.000512
2131.93	0.000466
2141.58	0.000438
2151.22	0.000496
2160.87	0.00047
2170.52	0.000467
2180.16	0.000486
2189.81	0.000504
2199.46	0.000529
2209.1	0.00049
2218.75	0.000452
2228.4	0.0005
2238.04	0.000492
2247.69	0.000474
2257.34	0.00044
2266.98	0.00047
2276.63	0.000478
2286.28	0.000506
2295.92	0.000499
2305.57	0.00047
2315.22	0.000452
2324.86	0.000443
2334.51	0.000482
2344.16	0.000456
2353.8	0.000424
2363.45	0.000411
2373.09	0.000435
2382.74	0.000376
2392.39	0.000414
2402.03	0.000444
2411.68	0.000424
2421.33	0.000402
2430.97	0.000398
2440.62	0.000401
2450.27	0.000348
2459.91	0.000327
2469.56	0.000445
2479.21	0.000284
2488.85	0.000361
2498.5	0.000323
2508.15	0.000353
2517.79	0.000379
2527.44	0.000403
2537.09	0.00033
2546.73	0.000344
2556.38	0.000312
2566.03	0.000305
2575.67	0.000349
2585.32	0.000379
2594.96	0.000357
2604.61	0.000355
2614.26	0.000358
2623.9	0.000209
2633.55	0.000238
2643.2	0.000233
2652.84	0.000212
2662.49	0.000185
2672.14	0.00025
2681.78	0.000235
2691.43	0.000242
2701.08	0.000311
2710.72	0.000252
2720.37	0.000236
2730.02	0.000305
2739.66	0.000274
2749.31	0.00029
2758.96	0.000179
2768.6	0.00018
2778.25	0.000225
2787.9	0.000256
2797.54	0.000206
2807.19	0.000191
2816.84	0.000259
2826.48	0.000213
2836.13	0.000186
2845.77	0.00016
2855.42	0.000173
2865.07	0.000151
2874.71	7.1e-05
2884.36	0
2894.01	7.9e-05
2903.65	0.000169
2913.3	0.000123
2922.95	5.9e-05
2932.59	0.000144
2942.24	0.00016
2951.89	0.000243
2961.53	0.000124
2971.18	0.000138
2980.83	0.000186
2990.47	0.000357
3000.12	3.8e-05
3009.77	0.00017
3019.41	0.000269
3029.06	0.000285
3038.71	0.000211
3048.35	0.000571
3058	0.0009866
3067.64	0.0014132
3077.29	0.0010019
3086.94	0.000554
3096.58	0.000206
3106.23	0.000277
3115.88	0.000348
3125.52	0.000202
3135.17	0.000211
3144.82	0.000305
3154.46	0.000339
3164.11	0.000389
3173.76	0.000246
3183.4	0.000248
3193.05	0.000451
3202.7	0.000127
3212.34	0.000373
3221.99	0.000369
3231.64	0.00039
3241.28	0.000562
3250.93	0.000445
3260.58	0.000458
3270.22	0.000376
3279.87	0.000467
3289.52	0.000321
3299.16	0.0006508
3308.81	0.0005
3318.45	0.000578
3328.1	0.000648
3337.75	0.000546
3347.39	0.0006411
3357.04	0.000524
3366.69	0.000484
3376.33	0.000428
3385.98	0.00081248
3395.63	0.0011811
3405.27	0.002263
3414.92	0.003223
3424.57	0.002303
3434.21	0.0012513
3443.86	0.0008413
3453.51	0.0008992
3463.15	0.00071087
3472.8	0.000671
3482.45	0.000594
3492.09	0.0006551
3501.74	0.000597
3511.39	0.000583
3521.03	0.0006249
3530.68	0.0006927
3540.33	0.000555
3549.97	0.0006761
3559.62	0.000559
3569.26	0.0006413
3578.91	0.0008216
3588.56	0.00070398
3598.2	0.0006346
3607.85	0.0006597
3617.5	0.000589
3627.14	0.000468
3636.79	0.000445
3646.44	0.0006992
3656.08	0.0006809
3665.73	0.0006851
3675.38	0.000722565
3685.02	0.0006405
3694.67	0.0006465
3704.32	0.0006982
3713.96	0.000592
3723.61	0.000547
3733.26	0.000573
3742.9	0.000588
3752.55	0.0006809
3762.2	0.0006425
3771.84	0.000562
3781.49	0.000505
3791.13	0.0006312
3800.78	0.000459
3810.43	0.000466
3820.07	0.0006625
3829.72	0.000586
3839.37	0.000521
3849.01	0.0007025
3858.66	0.000589
3868.31	0.0006264
3877.95	0.00057
3887.6	0.000439
3897.25	0.000554
3906.89	0.000567
3916.54	0.000496
3926.19	0.000455
3935.83	0.000388
3945.48	0.000607
3955.13	0.000471
3964.77	0.000413
3974.42	0.000532
3984.07	0.000555
3993.71	0.000523
