Infrared Spectrum: m-Methoxybenzamide
Formula: C 8 H 9 N O 2
CAS: 5813-86-5
State: gas
Origin: EPA-IR VAPOR PHASE LIBRARY
1/CM	ABSORBANCE
549.8	0.001632
559.445	0.002162
569.09	0.002512
578.734	0.002012
588.379	0.001672
598.024	0.002232
607.669	0.002612
617.313	0.002582
626.958	0.002042
636.603	0.001462
646.248	0.001272
655.893	0.001272
665.537	0.001442
675.182	0.002242
684.827	0.003072
694.472	0.003002
704.116	0.003602
713.761	0.003582
723.406	0.003102
733.051	0.004212
742.695	0.006292
752.34	0.007112
761.985	0.004732
771.63	0.003002
781.275	0.002662
790.919	0.003032
800.564	0.002762
810.209	0.002352
819.854	0.002092
829.498	0.001982
839.143	0.001982
848.788	0.002252
858.433	0.002472
868.078	0.003162
877.722	0.003962
887.367	0.003722
897.012	0.002462
906.657	0.001682
916.301	0.001562
925.946	0.001492
935.591	0.001262
945.236	0.001161
954.88	0.0011227
964.525	0.0010654
974.17	0.001262
983.815	0.001712
993.46	0.001722
1003.1	0.001532
1012.75	0.001972
1022.39	0.003212
1032.04	0.005272
1041.68	0.008112
1051.33	0.008082
1060.97	0.005652
1070.62	0.003632
1080.26	0.002792
1089.91	0.002402
1099.55	0.002552
1109.2	0.002652
1118.84	0.002292
1128.49	0.001782
1138.13	0.001252
1147.78	0.0009451
1157.42	0.0011618
1167.07	0.001272
1176.71	0.001642
1186.36	0.001742
1196	0.001752
1205.64	0.002002
1215.29	0.003382
1224.93	0.006962
1234.58	0.011602
1244.22	0.013762
1253.87	0.011552
1263.51	0.007172
1273.16	0.005982
1282.8	0.007092
1292.45	0.007062
1302.09	0.006102
1311.74	0.007492
1321.38	0.010942
1331.03	0.019432
1340.67	0.029412
1350.32	0.022212
1359.96	0.007982
1369.61	0.003852
1379.25	0.002522
1388.9	0.001752
1398.54	0.001622
1408.18	0.002182
1417.83	0.004362
1427.47	0.007702
1437.12	0.007562
1446.76	0.005052
1456.41	0.005342
1466.05	0.005882
1475.7	0.006372
1485.34	0.006992
1494.99	0.005212
1504.63	0.002362
1514.28	0.001422
1523.92	0.001332
1533.57	0.001632
1543.21	0.002302
1552.86	0.003262
1562.5	0.005712
1572.15	0.012722
1581.79	0.023542
1591.44	0.022752
1601.08	0.013062
1610.73	0.007212
1620.37	0.003872
1630.01	0.002492
1639.66	0.001912
1649.3	0.001862
1658.95	0.001992
1668.59	0.002592
1678.24	0.003912
1687.88	0.005612
1697.53	0.007532
1707.17	0.016122
1716.82	0.029912
1726.46	0.027252
1736.11	0.009462
1745.75	0.005662
1755.4	0.004962
1765.04	0.002972
1774.69	0.001512
1784.33	0.0009751
1793.98	0.0008351
1803.62	0.0006532
1813.27	0.0005567
1822.91	0.0004854
1832.55	0.0004912
1842.2	0.0005626
1851.84	0.0005332
1861.49	0.0005111
1871.13	0.0004969
1880.78	0.000431
1890.42	0.0003988
1900.07	0.0004467
1909.71	0.0004043
1919.36	0.0004887
1929	0.0005136
1938.65	0.000542
1948.29	0.000539
1957.94	0.0004502
1967.58	0.0003955
1977.23	0.0003657
1986.87	0.0003845
1996.52	0.0003952
2006.16	0.0003308
2015.81	0.000283
2025.45	0.0003256
2035.1	0.0003683
2044.74	0.0003701
2054.38	0.0003445
2064.03	0.0004211
2073.67	0.0004371
2083.32	0.000481
2092.96	0.0004178
2102.61	0.0004588
2112.25	0.0004295
2121.9	0.0003649
2131.54	0.0003764
2141.19	0.0004075
2150.83	0.0003216
2160.48	0.00024722
2170.12	0.00021942
2179.77	0.00020143
2189.41	0.0002451
2199.06	0.00025491
2208.7	0.00018697
2218.35	0.00021547
2227.99	0.000173615
2237.64	0.00016939
2247.28	0.0001496
2256.92	0.00018871
2266.57	0.00016858
2276.21	9.75e-05
2285.86	0.0002901
2295.5	0.00024092
2305.15	0.00021144
2314.79	0.000172248
2324.44	0.00019099
2334.08	0.000174719
2343.73	0.00019286
2353.37	0.00020389
2363.02	0.0001483
2372.66	0.00019141
2382.31	0.00021445
2391.95	0.0001963
2401.6	0.00018291
2411.24	0.00019464
2420.89	0.00018667
2430.53	0.00024607
2440.18	0.00020798
2449.82	0.00019538
2459.47	0.00020526
2469.11	0.00022124
2478.75	0.00025482
2488.4	0.0003297
2498.04	0.0003508
2507.69	0.00024428
2517.33	0.0002844
2526.98	0.000273
2536.62	0.0001603
2546.27	0.00019187
2555.91	0.00018425
2565.56	0.0002841
2575.2	0.0003285
2584.85	0.0003458
2594.49	0.00026135
2604.14	0.0003285
2613.78	0.00025624
2623.43	0.000176516
2633.07	0.0001425
2642.72	0.000177695
2652.36	0.00022244
2662.01	0.00023376
2671.65	0.00018861
2681.29	0.00016579
2690.94	0.0003068
2700.58	0.0002174
2710.23	0.00027027
2719.87	0.00026094
2729.52	0.00020316
2739.16	0.0001708
2748.81	0.0001998
2758.45	0.0002826
2768.1	0.0003109
2777.74	0.0003858
2787.39	0.0003605
2797.03	0.0004697
2806.68	0.0005125
2816.32	0.0004832
2825.97	0.00083
2835.61	0.001522
2845.26	0.002372
2854.9	0.001962
2864.55	0.001192
2874.19	0.001172
2883.84	0.001292
2893.48	0.001352
2903.12	0.001482
2912.77	0.001902
2922.41	0.002282
2932.06	0.002462
2941.7	0.003222
2951.35	0.003852
2960.99	0.003382
2970.64	0.002462
2980.28	0.001892
2989.93	0.001522
2999.57	0.002392
3009.22	0.003132
3018.86	0.002562
3028.51	0.001442
3038.15	0.001372
3047.8	0.001482
3057.44	0.001642
3067.09	0.002092
3076.73	0.002472
3086.38	0.002042
3096.02	0.001282
3105.67	0.0008733
3115.31	0.0006778
3124.95	0.0004416
3134.6	0.0004087
3144.24	0.0004213
3153.89	0.0004409
3163.53	0.0004564
3173.18	0.00024495
3182.82	0.0003964
3192.47	0.00022404
3202.11	0.0003088
3211.76	0.0002725
3221.4	0.00016918
3231.05	0.00022834
3240.69	0.0002726
3250.34	0.0002988
3259.98	0.0003271
3269.63	0.0001339
3279.27	0.0002841
3288.92	0.0003353
3298.56	0.00023388
3308.21	0.00021804
3317.85	0.00021667
3327.49	0.0003911
3337.14	0.0003863
3346.78	0.00022969
3356.43	0.00021253
3366.07	0.0003349
3375.72	0.0005378
3385.36	0.0005114
3395.01	0.0007301
3404.65	0.0010467
3414.3	0.001782
3423.94	0.002772
3433.59	0.003232
3443.23	0.002512
3452.88	0.001212
3462.52	0.0008501
3472.17	0.0007431
3481.81	0.0006129
3491.46	0.000612
3501.1	0.0008142
3510.75	0.0008422
3520.39	0.0010976
3530.04	0.001602
3539.68	0.002412
3549.32	0.002712
3558.97	0.002412
3568.61	0.001252
3578.26	0.0007519
3587.9	0.0006677
3597.55	0.0003136
3607.19	0.0003534
3616.84	0.0005068
3626.48	0.0003026
3636.13	0.0003376
3645.77	0.0001821
3655.42	0.0003174
3665.06	0.0002879
3674.71	0.0003503
3684.35	0.00022429
3694	0.0004634
3703.64	0.0003423
3713.29	0.0001563
3722.93	0.0003221
3732.58	0.0003766
3742.22	0.0003709
3751.86	0.0003371
3761.51	0.0003418
3771.15	0.00023934
3780.8	0.0003047
3790.44	0.0003429
3800.09	0.0003371
3809.73	0.000319
3819.38	0.0003589
3829.02	0.00025662
3838.67	0.00016509
3848.31	0.00023487
3857.96	0.0003131
3867.6	0.0005741
3877.25	0.00026407
3886.89	0.00026055
3896.54	0.0004712
3906.18	0.0003898
3915.83	0.0004618
3925.47	0.0003663
3935.12	0.0003413
3944.76	5.1e-05
3954.41	0.0004164
3964.05	0.0003385
3973.69	0.0003499
3983.34	0.00026237
3992.98	0.000321
