Infrared Spectrum: Tridiphane
Formula: C 10 H 7 Cl 5 O
CAS: 58138-08-2
State: gas
Instrument: HP-GC/MS/IRD
Origin: NIST Mass Spectrometry Data Center
1/CM	ABSORBANCE
550	0.0078561
562	0.0057449
574	0.0020503
586	0.0057652
598	0.013804
610	0.0177422
622	0.0385294
634	0.0100891
646	0.0020909
658	0.0013398
670	0.0068614
682	0.0472381
694	0.061306
706	0.0756987
718	0.0905786
730	0.0317289
742	0.0502831
754	0.0496741
766	0.0159761
778	0.0268366
790	0.0935627
802	0.203
814	0.0923853
826	0.0366212
838	0.0368445
850	0.0429345
862	0.0889546
874	0.0369663
886	0.035728
898	0.0363167
910	0.010962
922	0.0138649
934	0.0232435
946	0.0153265
958	0.0113071
970	0.0188587
982	0.0263088
994	0.0212744
1006	0.0295365
1018	0.0128296
1030	0.0086884
1042	0.0130732
1054	0.0107387
1066	0.0036134
1078	0.0043442
1090	0.0205233
1102	0.0329266
1114	0.0092365
1126	0.00812
1138	0.0035931
1150	0.0033292
1162	0.0002842
1174	0
1186	0.0005684
1198	0.0034307
1210	0.0132559
1222	0.0304906
1234	0.0382249
1246	0.0274456
1258	0.0258013
1270	0.0404173
1282	0.0161791
1294	0.0088711
1306	0.0144739
1318	0.0281155
1330	0.0206248
1342	0.0152656
1354	0.0270193
1366	0.0417571
1378	0.0322161
1390	0.0376565
1402	0.0261464
1414	0.0553175
1426	0.0583422
1438	0.0264712
1450	0.0098252
1462	0.0056231
1474	0.0078358
1486	0.0098049
1498	0.0062727
1510	0.0038164
1522	0.004466
1534	0.0086072
1546	0.0253547
1558	0.0852397
1570	0.138933
1582	0.0792106
1594	0.0590324
1606	0.0183918
1618	0.0070847
1630	0.0041412
1642	0.0021721
1654	0.0009338
1666	0.000406
1678	0.0001421
1690	0.0001218
1702	0.0002842
1714	0.0014007
1726	0.0045066
1738	0.0042224
1750	0.0033901
1762	0.0037758
1774	0.0025781
1786	0.001421
1798	0.0006293
1810	0.0001624
1822	0.0001218
1834	0.0001624
1846	0.0001015
1858	0.0001015
1870	6.09e-05
1882	0.000203
1894	0.0004263
1906	0.0005684
1918	0.0006699
1930	0.0006902
1942	0.000609
1954	0.0005887
1966	0.0005481
1978	0.0005481
1990	0.0005684
2002	0.0005278
2014	0.000609
2026	0.0006902
2038	0.0008323
2050	0.0009135
2062	0.0010962
2074	0.0013195
2086	0.001421
2098	0.0012383
2110	0.0010962
2122	0.0009947
2134	0.0009744
2146	0.0009744
2158	0.0010556
2170	0.0010759
2182	0.0011165
2194	0.0012586
2206	0.0012586
2218	0.0012383
2230	0.001218
2242	0.0011571
2254	0.0011977
2266	0.0013804
2278	0.0015834
2290	0.0016443
2302	0.0012992
2314	0.0010556
2326	0.001015
2338	0.0011368
2350	0.0012383
2362	0.0014007
2374	0.0017864
2386	0.0019082
2398	0.0014819
2410	0.0013195
2422	0.0010962
2434	0.0010353
2446	0.0010353
2458	0.0011165
2470	0.001015
2482	0.0009541
2494	0.0009541
2506	0.0009744
2518	0.0010556
2530	0.0010353
2542	0.0009541
2554	0.001015
2566	0.0010962
2578	0.0011571
2590	0.0011165
2602	0.0011368
2614	0.001218
2626	0.0012586
2638	0.0013195
2650	0.0014007
2662	0.0014007
2674	0.0013195
2686	0.0012586
2698	0.0012586
2710	0.0012383
2722	0.0012383
2734	0.0011774
2746	0.0011368
2758	0.0011571
2770	0.0011571
2782	0.0011977
2794	0.0012992
2806	0.0014007
2818	0.0015428
2830	0.0015428
2842	0.0015631
2854	0.0015834
2866	0.001624
2878	0.0016037
2890	0.0017052
2902	0.0023954
2914	0.0046487
2926	0.0073689
2938	0.0089726
2950	0.0062321
2962	0.0047908
2974	0.0075719
2986	0.0087087
2998	0.0124236
3010	0.0118552
3022	0.0057449
3034	0.0041209
3046	0.0110026
3058	0.0217413
3070	0.0082824
3082	0.0063539
3094	0.0034713
3106	0.0017458
3118	0.0015022
3130	0.0014007
3142	0.0013398
3154	0.0013601
3166	0.0013398
3178	0.0012789
3190	0.001218
3202	0.0011774
3214	0.0011368
3226	0.0010353
3238	0.0010353
3250	0.0010556
3262	0.001015
3274	0.0010759
3286	0.0010353
3298	0.0010556
3310	0.0010962
3322	0.0010962
3334	0.0010962
3346	0.0011165
3358	0.0011571
3370	0.0011165
3382	0.0010759
3394	0.001015
3406	0.0010556
3418	0.0009744
3430	0.0009744
3442	0.0009541
3454	0.0010353
3466	0.0010353
3478	0.0010353
3490	0.0010962
3502	0.0011165
3514	0.0010759
3526	0.0010556
3538	0.0010353
3550	0.0010556
3562	0.0010556
3574	0.0010556
3586	0.0010759
3598	0.0011165
3610	0.0010556
3622	0.0010556
3634	0.0010759
3646	0.001015
3658	0.0010556
3670	0.0011165
3682	0.0011571
3694	0.0010962
3706	0.0011165
3718	0.0011368
3730	0.001218
3742	0.001218
3754	0.0012789
3766	0.001218
3778	0.0012992
3790	0.0013601
3802	0.0014616
3814	0.0013804
3826	0.0014413
3838	0.0014819
