Infrared Spectrum: 2-Chlorobenzhydrazide
Formula: C 7 H 7 Cl N 2 O
CAS: 5814-05-1
State: gas
Origin: EPA-IR VAPOR PHASE LIBRARY
1/CM	ABSORBANCE
549.8	0.00947
559.445	0.00911
569.09	0.0083
578.734	0.00824
588.379	0.00783
598.024	0.00758
607.669	0.00758
617.313	0.0071
626.958	0.00649
636.603	0.00762
646.248	0.01197
655.893	0.01292
665.537	0.00902
675.182	0.00811
684.827	0.00798
694.472	0.00816
704.116	0.0092
713.761	0.01431
723.406	0.02353
733.051	0.03999
742.695	0.06391
752.34	0.05095
761.985	0.02843
771.63	0.01613
781.275	0.01023
790.919	0.00663
800.564	0.00542
810.209	0.00559
819.854	0.00599
829.498	0.00691
839.143	0.00769
848.788	0.00863
858.433	0.00893
868.078	0.00878
877.722	0.00869
887.367	0.00939
897.012	0.01376
906.657	0.02211
916.301	0.03659
925.946	0.05761
935.591	0.06735
945.236	0.04797
954.88	0.02274
964.525	0.01196
974.17	0.00781
983.815	0.00622
993.46	0.00547
1003.1	0.00548
1012.75	0.00669
1022.39	0.01028
1032.04	0.01747
1041.68	0.02947
1051.33	0.03443
1060.97	0.02224
1070.62	0.00917
1080.26	0.00687
1089.91	0.00631
1099.55	0.00633
1109.2	0.00602
1118.84	0.00743
1128.49	0.00787
1138.13	0.00553
1147.78	0.00485
1157.42	0.00586
1167.07	0.00799
1176.71	0.00992
1186.36	0.00893
1196	0.00662
1205.64	0.00579
1215.29	0.00588
1224.93	0.00655
1234.58	0.00857
1244.22	0.01497
1253.87	0.0195
1263.51	0.01717
1273.16	0.02714
1282.8	0.05562
1292.45	0.06466
1302.09	0.03676
1311.74	0.01651
1321.38	0.01103
1331.03	0.00917
1340.67	0.00885
1350.32	0.00917
1359.96	0.00831
1369.61	0.0064
1379.25	0.00575
1388.9	0.00667
1398.54	0.00888
1408.18	0.01341
1417.83	0.02407
1427.47	0.04632
1437.12	0.0737
1446.76	0.08578
1456.41	0.07546
1466.05	0.06071
1475.7	0.05206
1485.34	0.05205
1494.99	0.0501
1504.63	0.0375
1514.28	0.02511
1523.92	0.01717
1533.57	0.01212
1543.21	0.00949
1552.86	0.00901
1562.5	0.00984
1572.15	0.01118
1581.79	0.01547
1591.44	0.02489
1601.08	0.027
1610.73	0.02573
1620.37	0.03186
1630.01	0.03936
1639.66	0.03927
1649.3	0.03248
1658.95	0.03058
1668.59	0.03841
1678.24	0.05669
1687.88	0.09133
1697.53	0.12406
1707.17	0.11381
1716.82	0.08755
1726.46	0.05101
1736.11	0.02408
1745.75	0.01253
1755.4	0.00813
1765.04	0.00608
1774.69	0.00485
1784.33	0.00414
1793.98	0.00417
1803.62	0.00473
1813.27	0.00441
1822.91	0.00322
1832.55	0.00269
1842.2	0.00247
1851.84	0.00189
1861.49	0.0015
1871.13	0.00152
1880.78	0.00162
1890.42	0.00175
1900.07	0.00182
1909.71	0.00225
1919.36	0.00275
1929	0.00262
1938.65	0.00207
1948.29	0.00222
1957.94	0.00207
1967.58	0.00137
1977.23	0.0008908
1986.87	0.0007655
1996.52	0.0006489
2006.16	0.0005811
2015.81	0.0006448
2025.45	0.000606
2035.1	0.0005476
2044.74	0.0005348
2054.38	0.0003825
2064.03	0.0003875
2073.67	0.0003627
2083.32	0.0003017
2092.96	0.0003352
2102.61	0.0003288
2112.25	0.0003253
2121.9	0.0002738
2131.54	0.000221
2141.19	0.0003037
2150.83	0.0003168
2160.48	0.0003451
2170.12	0.0003557
2179.77	0.0003827
2189.41	0.0003646
2199.06	0.0003404
2208.7	0.0003933
2218.35	0.0003846
2227.99	0.0002941
2237.64	0.0003673
2247.28	0.0004647
2256.92	0.0006314
2266.57	0.0008606
2276.21	0.0009031
2285.86	0.000845
2295.5	0.0007395
2305.15	0.0005465
2314.79	0.0006429
2324.44	0.0008064
2334.08	0.0005694
2343.73	0.0005345
2353.37	0.0004489
2363.02	0.0004309
2372.66	0.0003547
2382.31	0.0003679
2391.95	0.0002558
2401.6	0.0002955
2411.24	0.0003373
2420.89	0.0003892
2430.53	0.0002693
2440.18	0.0003178
2449.82	0.0003047
2459.47	0.0003101
2469.11	0.000213
2478.75	0.0002785
2488.4	0.0003475
2498.04	0.0003544
2507.69	0.0003589
2517.33	0.0004089
2526.98	0.0004906
2536.62	0.000659
2546.27	0.0006558
2555.91	0.0006093
2565.56	0.0006627
2575.2	0.0006143
2584.85	0.0004643
2594.49	0.0005621
2604.14	0.0004113
2613.78	0.0004963
2623.43	0.0004348
2633.07	0.0005225
2642.72	0.0004962
2652.36	0.0002833
2662.01	0.0002151
2671.65	0.0002452
2681.29	0.0001184
2690.94	0.0003649
2700.58	0.0003886
2710.23	0.000442
2719.87	0.0005105
2729.52	0.0005123
2739.16	0.0005029
2748.81	0.0004719
2758.45	0.0003529
2768.1	0.0004962
2777.74	0.0003507
2787.39	0.0003232
2797.03	0.0003795
2806.68	0.000324
2816.32	0.0002619
2825.97	0.0003172
2835.61	0.0001781
2845.26	0.0003085
2854.9	0.0002321
2864.55	0.0003908
2874.19	0.0004184
2883.84	0.0004056
2893.48	0.0003639
2903.12	0.0002642
2912.77	0.0004215
2922.41	0.0004692
2932.06	0.0004389
2941.7	0.0006046
2951.35	0.0005694
2960.99	0.000767
2970.64	0.0006732
2980.28	0.00104
2989.93	0.0009973
2999.57	0.00106
3009.22	0.0013
3018.86	0.00174
3028.51	0.00179
3038.15	0.00181
3047.8	0.00256
3057.44	0.00618
3067.09	0.01222
3076.73	0.01563
3086.38	0.01136
3096.02	0.00451
3105.67	0.00215
3115.31	0.00138
3124.95	0.00153
3134.6	0.00161
3144.24	0.00125
3153.89	0.0009306
3163.53	0.0006979
3173.18	0.0007125
3182.82	0.00121
3192.47	0.00156
3202.11	0.00169
3211.76	0.0017
3221.4	0.00147
3231.05	0.00101
3240.69	0.0009109
3250.34	0.0008506
3259.98	0.0007823
3269.63	0.0007255
3279.27	0.0008542
3288.92	0.00104
3298.56	0.00116
3308.21	0.00123
3317.85	0.00108
3327.49	0.00141
3337.14	0.00178
3346.78	0.00239
3356.43	0.00227
3366.07	0.00223
3375.72	0.00188
3385.36	0.00206
3395.01	0.00238
3404.65	0.00276
3414.3	0.00333
3423.94	0.00486
3433.59	0.00829
3443.23	0.01324
3452.88	0.0204
3462.52	0.0276
3472.17	0.02711
3481.81	0.01971
3491.46	0.01241
3501.1	0.00734
3510.75	0.00387
3520.39	0.00207
3530.04	0.00126
3539.68	0.0009572
3549.32	0.0008115
3558.97	0.0008388
3568.61	0.0007142
3578.26	0.0007818
3587.9	0.00089
3597.55	0.000959
3607.19	0.0005909
3616.84	0.0004407
3626.48	0.0004591
3636.13	0.0003996
3645.77	0.0005848
3655.42	0.000442
3665.06	0.000497
3674.71	0.000513
3684.35	0.0003909
3694	0.0003373
3703.64	0.0002213
3713.29	0.0003687
3722.93	0.0005116
3732.58	0.0004071
3742.22	0.0004685
3751.86	0.0003476
3761.51	0.0005376
3771.15	0.0005514
3780.8	0.0005006
3790.44	0.0006184
3800.09	0.0007366
3809.73	0.0005218
3819.38	0.0005
3829.02	0.0005486
3838.67	0.0004194
3848.31	0.0002905
3857.96	0.0003346
3867.6	0.0003692
3877.25	0.0003916
3886.89	0.0003709
3896.54	0.0003598
3906.18	0.0002726
3915.83	0.0003169
3925.47	0.000433
3935.12	0.0004089
3944.76	0.0004116
3954.41	0.0003532
3964.05	0.0002295
3973.69	0.000173
3983.34	0.0003726
3992.98	0.0002766
