Infrared Spectrum: 2,4-Dichlorobenzhydrazide
Formula: C 7 H 6 Cl 2 N 2 O
CAS: 5814-06-2
State: gas
Origin: EPA-IR VAPOR PHASE LIBRARY
1/CM	ABSORBANCE
549.8	0.0007872
559.445	0.0005867
569.09	0.001222
578.735	0.0007199
588.38	0.0006593
598.025	0.0006809
607.67	0.0005009
617.315	0.0004971
626.96	0.0004029
636.605	0.000503
646.251	0.0005325
655.896	0.0003669
665.541	0.0006781
675.186	0.0008529
684.831	0.0006402
694.476	0.0004892
704.121	0.0003723
713.766	0.0004199
723.411	0.00023465
733.056	0.00024927
742.701	0.000482
752.346	0.000799
761.991	0.0010522
771.636	0.001232
781.281	0.002152
790.926	0.003942
800.571	0.003452
810.216	0.002462
819.861	0.003152
829.507	0.003542
839.152	0.002472
848.797	0.001922
858.442	0.002042
868.087	0.002832
877.732	0.001862
887.377	0.001472
897.022	0.001712
906.667	0.002572
916.312	0.004422
925.957	0.007122
935.602	0.007342
945.247	0.003882
954.892	0.001812
964.537	0.0010687
974.182	0.0007211
983.827	0.0007036
993.472	0.0005143
1003.12	0.0005335
1012.76	0.0005645
1022.41	0.0007153
1032.05	0.0008882
1041.7	0.002172
1051.34	0.002522
1060.99	0.001652
1070.63	0.001252
1080.28	0.001312
1089.92	0.001892
1099.57	0.003532
1109.21	0.004592
1118.86	0.002222
1128.5	0.001742
1138.15	0.001792
1147.79	0.001412
1157.44	0.000894
1167.08	0.0010296
1176.73	0.001412
1186.37	0.001742
1196.02	0.001732
1205.66	0.001212
1215.31	0.0007989
1224.95	0.0008206
1234.6	0.001192
1244.24	0.001842
1253.89	0.001712
1263.53	0.002062
1273.18	0.003582
1282.82	0.006162
1292.47	0.004412
1302.11	0.001712
1311.76	0.001157
1321.4	0.0010517
1331.05	0.0011009
1340.69	0.001252
1350.34	0.001392
1359.98	0.001902
1369.63	0.003032
1379.27	0.003262
1388.92	0.001942
1398.56	0.001492
1408.21	0.001622
1417.85	0.002382
1427.5	0.004372
1437.14	0.007122
1446.79	0.008472
1456.43	0.007712
1466.08	0.007152
1475.73	0.005342
1485.37	0.004092
1495.02	0.003882
1504.66	0.003202
1514.31	0.002582
1523.95	0.002052
1533.6	0.001762
1543.24	0.001882
1552.89	0.002362
1562.53	0.002652
1572.18	0.004202
1581.82	0.008372
1591.47	0.009182
1601.11	0.003802
1610.76	0.002682
1620.4	0.003122
1630.05	0.003772
1639.69	0.003642
1649.34	0.002932
1658.98	0.002922
1668.63	0.003532
1678.27	0.005182
1687.92	0.008412
1697.56	0.011132
1707.21	0.011112
1716.85	0.009732
1726.5	0.005532
1736.14	0.002642
1745.79	0.001592
1755.43	0.001282
1765.08	0.001312
1774.72	0.0009837
1784.37	0.0008453
1794.01	0.0007753
1803.66	0.0007117
1813.3	0.0005135
1822.95	0.0004125
1832.59	0.0004023
1842.24	0.0003669
1851.88	0.0003744
1861.53	0.0003234
1871.17	0.000397
1880.82	0.0004142
1890.46	0.0004063
1900.11	0.0004561
1909.75	0.0004299
1919.4	0.0003355
1929.04	0.0003845
1938.69	0.000377
1948.33	0.00026649
1957.98	0.0003251
1967.62	0.0003717
1977.27	0.000321
1986.91	0.0003227
1996.56	0.00026267
2006.2	0.0003095
2015.85	0.0002862
2025.49	0.0003361
2035.14	0.0003432
2044.78	0.0003159
2054.43	0.0003186
2064.07	0.00027974
2073.72	0.0003372
2083.36	0.0003138
2093.01	0.0003128
2102.65	0.0003084
2112.3	0.0002874
2121.94	0.0003224
2131.59	0.0002879
2141.23	0.0003269
2150.88	0.0003122
2160.52	0.0004073
2170.17	0.0003285
2179.81	0.0003498
2189.46	0.0003536
2199.1	0.0003286
2208.75	0.0003481
2218.39	0.0003298
2228.04	0.0003067
2237.68	0.00033
2247.33	0.0003475
2256.97	0.0003312
2266.62	0.0003215
2276.26	0.0002966
2285.91	0.0004103
2295.55	0.0004264
2305.2	0.0004001
2314.84	0.0003221
2324.49	0.0003688
2334.13	0.0003598
2343.78	0.0003546
2353.42	0.0002934
2363.07	0.0003794
2372.72	0.0004154
2382.36	0.0003069
2392.01	0.0003264
2401.65	0.0002989
2411.3	0.0003561
2420.94	0.0003761
2430.59	0.0003479
2440.23	0.000331
2449.88	0.0003741
2459.52	0.0003667
2469.17	0.0003812
2478.81	0.0004053
2488.46	0.0003426
2498.1	0.0003976
2507.75	0.0004038
2517.39	0.0004277
2527.04	0.0002952
2536.68	0.0004262
2546.33	0.0004502
2555.97	0.0003636
2565.62	0.0004224
2575.26	0.0003155
2584.91	0.0003642
2594.55	0.0004438
2604.2	0.0004119
2613.84	0.000416
2623.49	0.0004269
2633.13	0.0003964
2642.78	0.0004039
2652.42	0.0004332
2662.07	0.0004021
2671.71	0.0004574
2681.36	0.0003392
2691	0.0004184
2700.65	0.0003835
2710.29	0.000495
2719.94	0.0004406
2729.58	0.0004166
2739.23	0.0004383
2748.87	0.0004956
2758.52	0.000455
2768.16	0.0004551
2777.81	0.0004696
2787.45	0.0004162
2797.1	0.0004936
2806.74	0.0005136
2816.39	0.0004209
2826.03	0.0005137
2835.68	0.0004426
2845.32	0.0004452
2854.97	0.0004608
2864.61	0.0006877
2874.26	0.0005281
2883.9	0.0003269
2893.55	0.0003304
2903.19	0.0003196
2912.84	0.0003484
2922.48	0.0003175
2932.13	0.0004151
2941.77	0.0004345
2951.42	0.00026132
2961.06	0.0003693
2970.71	0.0003812
2980.35	0.0002845
2990	0.00024453
2999.64	0.0003783
3009.29	0.0004022
3018.93	0.0003735
3028.58	0.0004061
3038.22	0.0003367
3047.87	0.0003248
3057.51	0.0004888
3067.16	0.0003432
3076.8	0.0003841
3086.45	0.0004925
3096.09	0.0003151
3105.74	0.0003631
3115.38	0.0004
3125.03	0.0003467
3134.67	0.00025977
3144.32	0.0003229
3153.96	0.00027047
3163.61	0.0003032
3173.25	0.00027604
3182.9	0.00024728
3192.54	0.0003857
3202.19	0.0004617
3211.83	0.0004136
3221.48	0.0003261
3231.12	0.0002937
3240.77	0.0001506
3250.41	0.00025091
3260.06	0.0003105
3269.7	0.00019774
3279.35	0.0003163
3289	0.00025162
3298.64	0.00024804
3308.29	0.00026742
3317.93	0.0003551
3327.58	0.0003375
3337.22	0.000398
3346.87	0.0005212
3356.51	0.0005004
3366.16	0.0003395
3375.8	0.0004009
3385.45	0.0002987
3395.09	0.0004408
3404.74	0.0004167
3414.38	0.0004946
3424.03	0.0007049
3433.67	0.0009752
3443.32	0.001352
3452.96	0.001892
3462.61	0.002492
3472.25	0.002492
3481.9	0.001842
3491.54	0.001212
3501.19	0.0008124
3510.83	0.0005287
3520.48	0.0003818
3530.12	0.0003051
3539.77	0.0003322
3549.41	0.0003251
3559.06	0.0003183
3568.7	0.00027282
3578.35	0.0004236
3587.99	0.0004432
3597.64	0.0002017
3607.28	0.00024872
3616.93	0.00017981
3626.57	0.00024135
3636.22	0.00021261
3645.86	0.0003286
3655.51	0.00020943
3665.15	0.00019602
3674.8	0.0001418
3684.44	0.00023038
3694.09	0.00027521
3703.73	0.0002809
3713.38	0.00026884
3723.02	0.00025109
3732.67	0.00019732
3742.31	0.0003892
3751.96	0.00024465
3761.6	0.0003447
3771.25	0.00026405
3780.89	0.0003617
3790.54	0.00023321
3800.18	0.00021276
3809.83	0.00023996
3819.47	0.000343
3829.12	0.00024683
3838.76	0.0001435
3848.41	0.0001194
3858.05	0.0001287
3867.7	0.00027564
3877.34	0.000361
3886.99	0.0003883
3896.63	0.0003492
3906.28	0.0002871
3915.92	0.000344
3925.57	0.0001031
3935.21	0.00028175
3944.86	0.0003279
3954.5	0.0003546
3964.15	0.0003335
3973.79	0.0001588
3983.44	0.0004182
3993.08	0.0003706
