Infrared Spectrum: 3-(Benzylmethylamino)-1-propanol
Formula: C11 H17 N O
CAS: 5814-42-6
State: SOLUTION (10% CCl4 FOR 3800-1330, 10% CS2 FOR 1330-400 CM^-^1)
Boiling point: 132 C AT 4 mmHg
Class: COBLENTZ III
Instrument: DOW KBr FOREPRISM-GRATING
Instrument parameters: BLAZED AT 3.5, 12.0, 20.0 MICRON AND CHANGED AT 5.0, 7.5, 14.9 MICRON
Sampling: TRANSMISSION
Path length: 0.011 CM, 0.010 CM
Resolution: 2
Origin: DOW CHEMICAL COMPANY
1/CM	TRANSMITTANCE
3800	0.8773
3791	0.8767
3782	0.8759
3773	0.8751
3764	0.8743
3755	0.8735
3746	0.8725
3737	0.872
3728	0.8714
3719	0.8708
3710	0.8698
3701	0.8668
3692	0.8563
3683	0.8339
3674	0.8334
3665	0.8384
3656	0.8373
3647	0.7978
3638	0.7767
3629	0.7751
3620	0.7791
3611	0.7835
3602	0.7826
3593	0.7787
3584	0.7736
3575	0.7631
3566	0.7483
3557	0.7301
3548	0.7115
3539	0.6921
3530	0.6698
3521	0.6406
3512	0.6149
3503	0.5886
3494	0.5644
3485	0.5393
3476	0.5169
3467	0.4973
3458	0.4804
3449	0.4649
3440	0.4487
3431	0.4364
3422	0.4269
3413	0.4207
3404	0.4149
3395	0.4089
3386	0.4023
3377	0.3962
3368	0.3909
3359	0.3866
3350	0.383
3341	0.3807
3332	0.3786
3323	0.3784
3314	0.38
3305	0.3829
3296	0.3912
3287	0.401
3278	0.4107
3269	0.4201
3260	0.4293
3251	0.4388
3242	0.4497
3233	0.461
3224	0.4738
3215	0.4891
3206	0.5036
3197	0.5168
3188	0.5296
3179	0.5427
3170	0.5552
3161	0.5665
3152	0.5773
3143	0.5891
3134	0.5998
3125	0.6044
3116	0.6008
3107	0.594
3098	0.5725
3089	0.4988
3080	0.5512
3071	0.4791
3062	0.494
3053	0.5673
3044	0.5774
3035	0.4169
3026	0.4612
3017	0.5933
3008	0.5983
2999	0.5539
2990	0.4594
2981	0.4472
2972	0.367
2963	0.2096
2954	0.1708
2945	0.159
2936	0.2062
2927	0.2105
2918	0.2119
2909	0.2629
2900	0.324
2891	0.3234
2882	0.3159
2873	0.3174
2864	0.3156
2855	0.2334
2846	0.1562
2837	0.1902
2828	0.2346
2819	0.245
2810	0.2214
2801	0.1519
2792	0.1833
2783	0.278
2774	0.3482
2765	0.3938
2756	0.4433
2747	0.5359
2738	0.6145
2729	0.6441
2720	0.6533
2711	0.6475
2702	0.6358
2693	0.6393
2684	0.676
2675	0.7092
2666	0.7318
2657	0.7501
2648	0.7665
2639	0.7821
2630	0.7899
2621	0.7955
2612	0.8006
2603	0.8053
2594	0.8097
2585	0.8128
2576	0.8156
2567	0.8182
2558	0.821
2549	0.8238
2540	0.8271
2531	0.8286
2522	0.8296
2513	0.8301
2504	0.8307
2495	0.8315
2486	0.8328
2477	0.8361
2468	0.8394
2459	0.8428
2450	0.8464
2441	0.848
2432	0.8493
2423	0.8506
2414	0.8517
2405	0.8524
2396	0.8531
2387	0.8536
2378	0.8539
2369	0.8541
2360	0.8541
2351	0.8537
2342	0.853
2333	0.8524
2324	0.8531
2315	0.8539
2306	0.8548
2297	0.8566
2288	0.8578
2279	0.8588
2270	0.8592
2261	0.8598
2252	0.8604
2243	0.8602
2234	0.8601
2225	0.8604
2216	0.8607
2207	0.861
2198	0.8614
2189	0.8617
2180	0.862
2171	0.8623
2162	0.8627
2153	0.863
2144	0.8633
2135	0.8636
2126	0.8641
2117	0.8645
2108	0.8647
2099	0.8647
2090	0.8648
2081	0.8645
2072	0.8644
2063	0.8639
2054	0.8634
2045	0.8628
2036	0.8624
2027	0.862
2018	0.8616
2009	0.8608
2000	0.8537
1991	0.8425
1982	0.8424
1973	0.8288
1964	0.8149
1955	0.7967
1946	0.8151
1937	0.8331
1928	0.8368
1919	0.841
1910	0.8432
1901	0.8343
1892	0.8275
1883	0.8221
1874	0.8171
1865	0.8313
1856	0.8442
1847	0.849
1838	0.848
1829	0.8421
1820	0.8327
1811	0.8015
1802	0.8268
1793	0.8384
1784	0.8355
1775	0.8303
1766	0.8237
1757	0.816
1748	0.7871
1739	0.7736
1730	0.7935
1721	0.7975
1712	0.796
1703	0.7937
1694	0.7854
1685	0.771
1676	0.7632
1667	0.7605
1658	0.7578
1649	0.7561
1640	0.7558
1631	0.7571
1622	0.7621
1613	0.7575
1604	0.6986
1595	0.7768
1586	0.7681
1577	0.7986
1568	0.8213
1559	0.8323
1550	0.8325
1541	0.8244
1532	0.8112
1523	0.798
1514	0.7806
1505	0.7497
1496	0.4452
1487	0.5892
1478	0.4577
1469	0.2369
1460	0.215
1451	0.2884
1442	0.4282
1433	0.5238
1424	0.5607
1415	0.6195
1406	0.6472
1397	0.6435
1388	0.5615
1379	0.5026
1370	0.4336
1361	0.4925
1352	0.4904
1343	0.5319
1334	0.6015
1325	0.5958
1316	0.5904
1307	0.5926
1298	0.5171
1289	0.5896
1280	0.6241
1271	0.6294
1262	0.6003
1253	0.5727
1244	0.5357
1235	0.5994
1226	0.6121
1217	0.5821
1208	0.582
1199	0.5876
1190	0.5943
1181	0.5568
1172	0.6519
1163	0.6705
1154	0.5898
1145	0.4817
1136	0.5293
1127	0.3945
1118	0.621
1109	0.663
1100	0.685
1091	0.6286
1082	0.336
1073	0.1713
1064	0.2527
1055	0.3975
1046	0.2577
1037	0.1884
1028	0.2043
1019	0.5459
1010	0.6112
1001	0.6027
992	0.5497
983	0.5592
974	0.5762
965	0.5605
956	0.631
947	0.6787
938	0.7111
929	0.734
920	0.6412
911	0.675
902	0.6917
893	0.7654
884	0.781
875	0.7858
866	0.7819
857	0.5917
848	0.7269
839	0.7557
830	0.7036
821	0.7671
812	0.7811
803	0.7891
794	0.7074
785	0.6847
776	0.7144
767	0.7325
758	0.6669
749	0.388
740	0.0897
731	0.4469
722	0.6765
713	0.7025
704	0.3082
695	0.3134
686	0.6883
677	0.7147
668	0.7151
659	0.7262
650	0.7044
641	0.703
632	0.6955
623	0.6785
614	0.6719
605	0.6785
596	0.6842
587	0.7234
578	0.7415
569	0.7548
560	0.7645
551	0.7711
542	0.7232
533	0.749
524	0.7615
515	0.7761
506	0.7847
497	0.7812
488	0.7004
479	0.7108
470	0.74
461	0.7569
452	0.7591
443	0.7596
434	0.7622
425	0.768
416	0.7743
407	0.7744
398	0.7701
389	0.7665
