Infrared Spectrum: 3-(Cyclopropylamino)propionitrile
Formula: C 6 H 10 N 2
CAS: 58196-47-7
State: gas
Origin: EPA-IR VAPOR PHASE LIBRARY
1/CM	ABSORBANCE
549.8	0.0033926
559.445	0.0033126
569.09	0.0034626
578.734	0.0036326
588.379	0.0039226
598.024	0.0040726
607.669	0.0046126
617.313	0.0052226
626.958	0.0059426
636.603	0.0067326
646.248	0.0075626
655.893	0.0085626
665.537	0.0095026
675.182	0.0099626
684.827	0.0102426
694.472	0.0097026
704.116	0.0092626
713.761	0.0090426
723.406	0.0083126
733.051	0.0078226
742.695	0.0073426
752.34	0.0066926
761.985	0.0059026
771.63	0.0046826
781.275	0.0037926
790.919	0.0039926
800.564	0.0048626
810.209	0.0059026
819.854	0.0072826
829.498	0.0067026
839.143	0.0051626
848.788	0.0037926
858.433	0.0031026
868.078	0.0028826
877.722	0.0025826
887.367	0.0025026
897.012	0.0025226
906.657	0.0032526
916.301	0.0045326
925.946	0.0055926
935.591	0.0054026
945.236	0.0043026
954.88	0.0032126
964.525	0.0031826
974.17	0.0031726
983.815	0.0037526
993.46	0.0040626
1003.1	0.0055326
1012.75	0.0103826
1022.39	0.0116726
1032.04	0.0088326
1041.68	0.0058426
1051.33	0.0052926
1060.97	0.0046726
1070.62	0.0048926
1080.26	0.0061326
1089.91	0.0099926
1099.55	0.0130026
1109.2	0.0113826
1118.84	0.0068626
1128.49	0.0045026
1138.13	0.0034826
1147.78	0.0041726
1157.42	0.0057426
1167.07	0.0066526
1176.71	0.0053726
1186.36	0.0043426
1196	0.0050026
1205.64	0.0075726
1215.29	0.0098226
1224.93	0.0097426
1234.58	0.0082026
1244.22	0.0058626
1253.87	0.0048526
1263.51	0.0037926
1273.16	0.0034026
1282.8	0.0031626
1292.45	0.0031326
1302.09	0.0034126
1311.74	0.0041626
1321.38	0.0058526
1331.03	0.0091726
1340.67	0.0174026
1350.32	0.0242326
1359.96	0.0217726
1369.61	0.0125026
1379.25	0.0087726
1388.9	0.0067426
1398.54	0.0051326
1408.18	0.0060126
1417.83	0.0086426
1427.47	0.0116726
1437.12	0.0147126
1446.76	0.0162726
1456.41	0.0150226
1466.05	0.0115226
1475.7	0.0081126
1485.34	0.0053426
1494.99	0.0028726
1504.63	0.0019826
1514.28	0.0016026
1523.92	0.0012926
1533.57	0.0011726
1543.21	0.0011226
1552.86	0.0011426
1562.5	0.0010426
1572.15	0.0010326
1581.79	0.000978
1591.44	0.0009548
1601.08	0.0007644
1610.73	0.0008093
1620.37	0.0006965
1630.01	0.0007607
1639.66	0.0008238
1649.3	0.0010052
1658.95	0.0011726
1668.59	0.0014826
1678.24	0.0014726
1687.88	0.0011326
1697.53	0.0008573
1707.17	0.000713
1716.82	0.0007929
1726.46	0.0007644
1736.11	0.0008228
1745.75	0.0009018
1755.4	0.0009871
1765.04	0.0011026
1774.69	0.0011326
1784.33	0.0011426
1793.98	0.0010626
1803.62	0.0009098
1813.27	0.0008552
1822.91	0.0008655
1832.55	0.0008693
1842.2	0.0009816
1851.84	0.0010426
1861.49	0.00099
1871.13	0.0010526
1880.78	0.000985
1890.42	0.0009403
1900.07	0.0009411
1909.71	0.0009847
1919.36	0.0010526
1929	0.0010426
1938.65	0.0010826
1948.29	0.0009722
1957.94	0.0010127
1967.58	0.0008834
1977.23	0.0008345
1986.87	0.0007345
1996.52	0.000737
2006.16	0.0007259
2015.81	0.0008127
2025.45	0.0008252
2035.1	0.0009927
2044.74	0.0010526
2054.38	0.0011926
2064.03	0.0011726
2073.67	0.0010926
2083.32	0.0010102
2092.96	0.0008798
2102.61	0.0007244
2112.25	0.0006967
2121.9	0.0007381
2131.54	0.0007272
2141.19	0.0007899
2150.83	0.0007509
2160.48	0.0006792
2170.12	0.0007804
2179.77	0.0007081
2189.41	0.0008612
2199.06	0.0008834
2208.7	0.0008722
2218.35	0.0009179
2227.99	0.0010137
2237.64	0.0016226
2247.28	0.0023226
2256.92	0.0022226
2266.57	0.0013626
2276.21	0.0008289
2285.86	0.0006191
2295.5	0.0004985
2305.15	0.0004682
2314.79	0.0005039
2324.44	0.0005475
2334.08	0.000511
2343.73	0.0004734
2353.37	0.0004997
2363.02	0.0006015
2372.66	0.0005421
2382.31	0.0005336
2391.95	0.000608
2401.6	0.0005786
2411.24	0.0005318
2420.89	0.0006732
2430.53	0.0005968
2440.18	0.0006458
2449.82	0.0006945
2459.47	0.0006153
2469.11	0.0006529
2478.75	0.0006271
2488.4	0.0005222
2498.04	0.0004567
2507.69	0.000625
2517.33	0.0004942
2526.98	0.0004809
2536.62	0.0005154
2546.27	0.0004645
2555.91	0.0005997
2565.56	0.0004428
2575.2	0.000575
2584.85	0.0005028
2594.49	0.000518
2604.14	0.0006083
2613.78	0.0006502
2623.43	0.0007438
2633.07	0.000762
2642.72	0.0007418
2652.36	0.0007053
2662.01	0.0008015
2671.65	0.0009543
2681.29	0.0011626
2690.94	0.0012626
2700.58	0.0011526
2710.23	0.0011226
2719.87	0.0012426
2729.52	0.0012526
2739.16	0.0014226
2748.81	0.0015526
2758.45	0.0015926
2768.1	0.0016826
2777.74	0.0017326
2787.39	0.0019526
2797.03	0.0024326
2806.68	0.0031326
2816.32	0.0046826
2825.97	0.0069226
2835.61	0.0104026
2845.26	0.0133426
2854.9	0.0138826
2864.55	0.0123926
2874.19	0.0097226
2883.84	0.0078026
2893.48	0.0069726
2903.12	0.0070426
2912.77	0.0086626
2922.41	0.0118526
2932.06	0.0173226
2941.7	0.0226226
2951.35	0.0257026
2960.99	0.0238126
2970.64	0.0189526
2980.28	0.0131326
2989.93	0.0095626
2999.57	0.0092626
3009.22	0.0120526
3018.86	0.0137326
3028.51	0.0113126
3038.15	0.0062226
3047.8	0.0033626
3057.44	0.0025626
3067.09	0.0029726
3076.73	0.0050826
3086.38	0.0093426
3096.02	0.0109326
3105.67	0.0075326
3115.31	0.0031026
3124.95	0.0015326
3134.6	0.0010626
3144.24	0.0007239
3153.89	0.0005892
3163.53	0.0005629
3173.18	0.0004118
3182.82	0.0003915
3192.47	0.0004869
3202.11	0.0004305
3211.76	0.0004162
3221.4	0.0003377
3231.05	0.0004939
3240.69	0.0005163
3250.34	0.00033
3259.98	0.0002386
3269.63	0.0003649
3279.27	0.0002122
3288.92	0.0003528
3298.56	0.0003374
3308.21	0.0002502
3317.85	0.0002974
3327.49	0.0004222
3337.14	0.0006713
3346.78	0.0007523
3356.43	0.0005266
3366.07	0.0007556
3375.72	0.0008715
3385.36	0.0009202
3395.01	0.0005185
3404.65	0.0005229
3414.3	0.000524
3423.94	0.0006039
3433.59	0.0002373
3443.23	0.000559
3452.88	0.0003851
3462.52	0.000414
3472.17	0.000341
3481.81	0.0002702
3491.46	0.0004945
3501.1	0.0005293
3510.75	0.000257
3520.39	0.0003897
3530.04	0.0001705
3539.68	0.0003267
3549.32	0.0003224
3558.97	0.0003998
3568.61	0.000366
3578.26	0.0002125
3587.9	0.0002869
3597.55	0.0002291
3607.19	0.000174
3616.84	0.0003329
3626.48	0.0003037
3636.13	0.0003089
3645.77	0.0003666
3655.42	0.0003655
3665.06	0.000294
3674.71	0.0002142
3684.35	0.0003604
3694	0.0003289
3703.64	0.0002934
3713.29	0.000284
3722.93	0.0002236
3732.58	0.0003572
3742.22	0.00011986
3751.86	0.0002031
3761.51	0.000448
3771.15	0.0004245
3780.8	0.0002226
3790.44	0.0003089
3800.09	0.0003613
3809.73	0.0004597
3819.38	0.0002923
3829.02	0.0002382
3838.67	0.0002859
3848.31	0.0006041
3857.96	0.0003581
3867.6	0.0003159
3877.25	0.000202
3886.89	0.0004162
3896.54	0.0002671
3906.18	0.0002446
3915.83	0.0003696
3925.47	0.000296
3935.12	0.0003974
3944.76	0.0002422
3954.41	0.0004796
3964.05	0.0003084
3973.69	0.0005206
3983.34	0.0004201
3992.98	0.000413
