Infrared Spectrum: 2,7-Dimethylnaphthalene
Formula: C 12 H 12
CAS: 582-16-1
State: gas
Instrument: HP-GC/MS/IRD
Origin: NIST Mass Spectrometry Data Center
1/CM	ABSORBANCE
550	0.0009738
562	0.000234
574	9e-06
586	0.0001566
598	9e-05
610	6.12e-05
622	0.0004392
634	0.0011988
646	0.0003168
658	0.0001242
670	0.000162
682	0.000162
694	6.66e-05
706	8.46e-05
718	0.0001098
730	0.0002682
742	0.000315
754	0.0006318
766	0.0005292
778	0.0003816
790	0.0006642
802	0.0011322
814	0.0050202
826	0.014634
838	0.0108306
850	0.0029178
862	0.0008658
874	0.0014022
886	0.0033912
898	0.002574
910	0.000909
922	0.0005364
934	0.0006696
946	0.0014472
958	0.002106
970	0.0007182
982	0.0006066
994	0.0007848
1006	0.0006408
1018	0.00054
1030	0.0006858
1042	0.000855
1054	0.0006012
1066	0.0004464
1078	0.0003582
1090	0.0003024
1102	0.0003024
1114	0.0003924
1126	0.0006948
1138	0.0012132
1150	0.0010656
1162	0.0012006
1174	0.0018126
1186	0.0011178
1198	0.0006516
1210	0.0004266
1222	0.0003888
1234	0.0004644
1246	0.0004644
1258	0.0008514
1270	0.000882
1282	0.0005382
1294	0.0003762
1306	0.0004374
1318	0.0004662
1330	0.0006192
1342	0.000999
1354	0.0013914
1366	0.0014202
1378	0.0012654
1390	0.0011178
1402	0.0008892
1414	0.0009666
1426	0.0012636
1438	0.0018828
1450	0.002331
1462	0.0020304
1474	0.0012942
1486	0.0010458
1498	0.0026964
1510	0.0067968
1522	0.0035208
1534	0.0016326
1546	0.0013716
1558	0.0012402
1570	0.0013104
1582	0.0015084
1594	0.002115
1606	0.0030888
1618	0.003312
1630	0.0052308
1642	0.0064188
1654	0.0024516
1666	0.0010044
1678	0.0008154
1690	0.0008478
1702	0.0009234
1714	0.0007434
1726	0.000891
1738	0.000486
1750	0.0002268
1762	0.0004572
1774	0.0010674
1786	0.0007488
1798	0.0004032
1810	0.000297
1822	0.0002502
1834	0.0002826
1846	0.0003258
1858	0.0002574
1870	0.000261
1882	0.0005418
1894	0.0009882
1906	0.0009054
1918	0.000441
1930	0.0002088
1942	0.0001098
1954	6.66e-05
1966	5.58e-05
1978	4.14e-05
1990	7.2e-05
2002	4.68e-05
2014	8.28e-05
2026	5.4e-05
2038	7.56e-05
2050	0.0001206
2062	0.000126
2074	7.2e-05
2086	7.02e-05
2098	6.84e-05
2110	4.68e-05
2122	7.2e-05
2134	7.38e-05
2146	0.000126
2158	7.38e-05
2170	3.24e-05
2182	3.78e-05
2194	4.5e-05
2206	2.88e-05
2218	1.98e-05
2230	3.24e-05
2242	9e-06
2254	2.52e-05
2266	8.82e-05
2278	0.000135
2290	0.000126
2302	0.0001314
2314	0.0001602
2326	0.0001692
2338	0.0001134
2350	9.36e-05
2362	9.36e-05
2374	0.000108
2386	0.0001638
2398	0.0001422
2410	0.0001242
2422	0.000144
2434	0.0001764
2446	0.000135
2458	0.0001152
2470	0.000117
2482	0.0001224
2494	8.64e-05
2506	9e-05
2518	0.0001206
2530	0.0001008
2542	9e-05
2554	0.0001548
2566	0.0001332
2578	0.0001152
2590	0.000108
2602	8.82e-05
2614	6.84e-05
2626	6.66e-05
2638	0.0001098
2650	8.46e-05
2662	7.2e-05
2674	9e-05
2686	0.0001116
2698	0.000126
2710	0.00018
2722	0.000261
2734	0.0005346
2746	0.0006678
2758	0.000423
2770	0.0002952
2782	0.0002898
2794	0.000342
2806	0.000459
2818	0.000666
2830	0.0009918
2842	0.0015876
2854	0.0028314
2866	0.0053028
2878	0.0063288
2890	0.0056718
2902	0.0060966
2914	0.0076986
2926	0.0122616
2938	0.0118836
2950	0.0069048
2962	0.005985
2974	0.0063288
2986	0.0064134
2998	0.0059634
3010	0.0084078
3022	0.0112122
3034	0.0099738
3046	0.0129024
3058	0.0133578
3070	0.0065646
3082	0.0033354
3094	0.0018684
3106	0.0010116
3118	0.0006732
3130	0.0005364
3142	0.0003726
3154	0.0002916
3166	0.0002394
3178	0.0001998
3190	0.0001656
3202	0.0001224
3214	0.0001062
3226	0.0001278
3238	0.0001062
3250	7.74e-05
3262	9e-05
3274	8.46e-05
3286	9.54e-05
3298	7.38e-05
3310	8.1e-05
3322	8.28e-05
3334	4.14e-05
3346	7.56e-05
3358	8.82e-05
3370	5.4e-05
3382	7.02e-05
3394	3.42e-05
3406	2.34e-05
3418	7.92e-05
3430	0.000108
3442	3.96e-05
3454	4.5e-05
3466	2.16e-05
3478	6.48e-05
3490	5.58e-05
3502	8.46e-05
3514	6.12e-05
3526	4.14e-05
3538	3.42e-05
3550	3.78e-05
3562	3.42e-05
3574	5.22e-05
3586	7.2e-06
3598	4.32e-05
3610	3.96e-05
3622	1.8e-06
3634	3.6e-05
3646	0.0001206
3658	7.2e-05
3670	6.12e-05
3682	5.76e-05
3694	0.0001296
3706	0.0001026
3718	8.82e-05
3730	9.36e-05
3742	8.28e-05
3754	5.22e-05
3766	5.22e-05
3778	6.3e-05
3790	6.48e-05
3802	0.0001044
3814	0.0001134
3826	0.0001008
3838	7.74e-05
