Infrared Spectrum: 2-Hydroxyacetophenone
Formula: C 8 H 8 O 2
CAS: 582-24-1
State: gas
Instrument: HP-GC/MS/IRD
Origin: NIST Mass Spectrometry Data Center
1/CM	ABSORBANCE
550	0.0006248
562	0.001309
574	0.00154
586	0.0009317
598	0.000506
610	0.0004719
622	0.001936
634	0.0022187
646	0.0007876
658	0.00022
670	0.0003322
682	0.0006743
694	0.001804
706	0.0034551
718	0.0036344
730	0.0019151
742	0.0006677
754	0.0005687
766	0.0005181
778	0.000275
790	0.0001562
802	9.57e-05
814	2.42e-05
826	2.53e-05
838	4.95e-05
850	7.92e-05
862	0.0001111
874	2.86e-05
886	5.5e-05
898	8.91e-05
910	7.26e-05
922	0.0001056
934	0.0001738
946	0.0001694
958	0.0001507
970	9.13e-05
982	0.0001221
994	0.0001463
1006	0.0002915
1018	0.0008965
1030	0.0009482
1042	0.0008943
1054	0.0022011
1066	0.0031801
1078	0.0040315
1090	0.0034144
1102	0.0016423
1114	0.0009801
1126	0.0009295
1138	0.0009119
1150	0.0011561
1162	0.0028281
1174	0.0047883
1186	0.0043956
1198	0.0022781
1210	0.0008129
1222	0.0006193
1234	0.0006798
1246	0.0009009
1258	0.0010307
1270	0.0011902
1282	0.001199
1294	0.0008789
1306	0.0006996
1318	0.0008283
1330	0.0015301
1342	0.0027962
1354	0.0024497
1366	0.0009317
1378	0.0007535
1390	0.0005456
1402	0.0002805
1414	0.0001936
1426	0.000209
1438	0.0003784
1450	0.0005742
1462	0.0004917
1474	0.0002035
1486	0.0001782
1498	0.0001793
1510	0.000176
1522	0.0001386
1534	0.0001441
1546	0.0001837
1558	0.0002145
1570	0.0002365
1582	0.0002959
1594	0.0003894
1606	0.0004213
1618	0.0002596
1630	0.0001672
1642	0.0001683
1654	0.0001419
1666	0.0001287
1678	0.0001738
1690	0.000286
1702	0.0004818
1714	0.0005973
1726	0.0008349
1738	0.0022
1750	0.0078815
1762	0.0106843
1774	0.0066627
1786	0.0014113
1798	0.0006358
1810	0.0005896
1822	0.000572
1834	0.0003091
1846	0.0001903
1858	0.0001386
1870	0.000121
1882	0.0001034
1894	0.0001463
1906	0.0001584
1918	0.000187
1930	0.0001386
1942	0.0001562
1954	0.0001881
1966	0.0001859
1978	0.0001507
1990	0.0001001
2002	8.58e-05
2014	6.93e-05
2026	7.04e-05
2038	8.25e-05
2050	6.27e-05
2062	6.82e-05
2074	4.18e-05
2086	7.04e-05
2098	7.81e-05
2110	7.59e-05
2122	8.14e-05
2134	8.47e-05
2146	9.79e-05
2158	8.14e-05
2170	8.25e-05
2182	5.5e-05
2194	5.83e-05
2206	4.07e-05
2218	6.6e-05
2230	5.17e-05
2242	6.27e-05
2254	4.95e-05
2266	5.72e-05
2278	5.28e-05
2290	4.18e-05
2302	5.39e-05
2314	5.72e-05
2326	6.16e-05
2338	7.81e-05
2350	0.0001045
2362	0.0001001
2374	0.0001045
2386	7.92e-05
2398	7.15e-05
2410	6.38e-05
2422	9.02e-05
2434	5.94e-05
2446	6.82e-05
2458	6.27e-05
2470	4.84e-05
2482	4.18e-05
2494	4.51e-05
2506	7.26e-05
2518	5.28e-05
2530	4.51e-05
2542	2.53e-05
2554	4.29e-05
2566	3.63e-05
2578	3.63e-05
2590	2.31e-05
2602	5.28e-05
2614	5.83e-05
2626	6.05e-05
2638	2.64e-05
2650	2.86e-05
2662	2.86e-05
2674	3.3e-05
2686	6.05e-05
2698	4.29e-05
2710	2.09e-05
2722	5.5e-06
2734	1.87e-05
2746	2.64e-05
2758	2.31e-05
2770	3.52e-05
2782	4.73e-05
2794	5.72e-05
2806	8.8e-06
2818	2.64e-05
2830	3.96e-05
2842	5.94e-05
2854	5.17e-05
2866	7.92e-05
2878	4.73e-05
2890	6.49e-05
2902	7.26e-05
2914	5.17e-05
2926	5.28e-05
2938	4.4e-05
2950	6.27e-05
2962	5.5e-06
2974	6.05e-05
2986	5.5e-05
2998	8.8e-05
3010	9.9e-05
3022	0.0001397
3034	0.0002629
3046	0.0003894
3058	0.0005478
3070	0.0007293
3082	0.0007623
3094	0.0004532
3106	0.0003146
3118	0.0001584
3130	0.0001001
3142	6.82e-05
3154	6.71e-05
3166	6.49e-05
3178	6.38e-05
3190	5.39e-05
3202	0.000121
3214	6.05e-05
3226	2.86e-05
3238	2.09e-05
3250	4.73e-05
3262	6.49e-05
3274	8.25e-05
3286	6.71e-05
3298	7.59e-05
3310	7.92e-05
3322	9.13e-05
3334	6.93e-05
3346	4.29e-05
3358	9.02e-05
3370	8.69e-05
3382	0.0001078
3394	8.14e-05
3406	8.25e-05
3418	6.93e-05
3430	9.57e-05
3442	0.0001155
3454	0.0001012
3466	9.13e-05
3478	6.38e-05
3490	0.0001584
3502	0.000209
3514	0.0002398
3526	0.00011
3538	0.0001562
3550	0.0002002
3562	0.0005632
3574	0.0024431
3586	0.0033242
3598	0.0014729
3610	0.0002145
3622	0.0001243
3634	9.9e-05
3646	6.71e-05
3658	0.0001078
3670	7.37e-05
3682	0.0001122
3694	0.0001111
3706	0.0001243
3718	0.0001045
3730	0.0001111
3742	0.0001276
3754	0.0001441
3766	0.0001166
3778	8.14e-05
3790	8.8e-05
3802	9.68e-05
3814	0.0001078
3826	0.0001056
3838	7.7e-05
