Infrared Spectrum: 2,7-NAPHTHALENEDIOL
Formula: C10 H8 O2
CAS: 582-17-2
State: SOLID (MINERAL OIL MULL)
Class: COBLENTZ
Instrument: Not specified, most likely a prism, grating, or hybrid spectrometer.
Sampling: TRANSMISSION
Resolution: 4
Origin: WYANDOTTE CHEMICALS CORP., WYANDOTTE, MICHIGAN, USA
MICROMETERS	TRANSMITTANCE
2.048	0.337
2.08886	0.348
2.12971	0.365
2.17057	0.38
2.21142	0.39
2.25228	0.401
2.29314	0.409
2.33399	0.421
2.37485	0.435
2.4157	0.452
2.45656	0.459
2.49742	0.472
2.53827	0.488
2.57913	0.498
2.61998	0.508
2.66084	0.523
2.70169	0.537
2.74255	0.558
2.78341	0.564
2.82426	0.571
2.86512	0.569
2.90597	0.564
2.94683	0.534
2.98769	0.472
3.02854	0.325
3.0694	0.206
3.11025	0.177
3.15111	0.163
3.19197	0.225
3.23282	0.29
3.27368	0.337
3.31453	0.356
3.35539	0.291
3.39625	0.109
3.4371	0.095
3.47796	0.206
3.51881	0.208
3.55967	0.477
3.60053	0.561
3.64138	0.581
3.68224	0.59
3.72309	0.587
3.76395	0.602
3.8048	0.612
3.84566	0.626
3.88652	0.643
3.92737	0.643
3.96823	0.643
4.00908	0.653
4.04994	0.662
4.0908	0.68
4.13165	0.691
4.17251	0.697
4.21336	0.708
4.25422	0.715
4.29508	0.715
4.33593	0.726
4.37679	0.735
4.41764	0.769
4.4585	0.774
4.49936	0.778
4.54021	0.779
4.58107	0.791
4.62192	0.805
4.66278	0.808
4.70364	0.81
4.74449	0.82
4.78535	0.829
4.8262	0.843
4.86706	0.843
4.90792	0.844
4.94877	0.851
4.98963	0.861
5.03048	0.866
5.07134	0.87
5.11219	0.872
5.15305	0.878
5.19391	0.89
5.23476	0.899
5.27562	0.894
5.31647	0.897
5.35733	0.904
5.39819	0.923
5.43904	0.93
5.4799	0.924
5.52075	0.938
5.56161	0.938
5.60247	0.938
5.64332	0.935
5.68418	0.938
5.72503	0.924
5.76589	0.935
5.80675	0.931
5.8476	0.938
5.88846	0.921
5.92931	0.887
5.97017	0.878
6.01103	0.798
6.05188	0.631
6.09274	0.486
6.13359	0.52
6.17445	0.498
6.2153	0.733
6.25616	0.713
6.29702	0.684
6.33787	0.883
6.37873	0.901
6.41958	0.883
6.46044	0.918
6.5013	0.899
6.54215	0.513
6.58301	0.6
6.62386	0.802
6.66472	0.774
6.70558	0.72
6.74643	0.542
6.78729	0.358
6.82814	0.428
6.869	0.573
6.90986	0.674
6.95071	0.74
6.99157	0.793
7.03242	0.79
7.07328	0.656
7.11414	0.477
7.15499	0.537
7.19585	0.67
7.2367	0.701
7.27756	0.52
7.31841	0.513
7.35927	0.732
7.40013	0.805
7.44098	0.853
7.48184	0.856
7.52269	0.832
7.56355	0.754
7.60441	0.621
7.64526	0.489
7.68612	0.53
7.72697	0.621
7.76783	0.609
7.80869	0.457
7.84954	0.344
7.8904	0.453
7.93125	0.494
7.97211	0.561
8.01297	0.633
8.05382	0.634
8.09468	0.648
8.13553	0.718
8.17639	0.728
8.21725	0.675
8.2581	0.228
8.29896	0.276
8.33981	0.296
8.38067	0.283
8.42153	0.3
8.46238	0.402
8.50324	0.609
8.54409	0.721
8.58495	0.74
8.6258	0.479
8.66666	0.223
8.70752	0.348
8.74837	0.559
8.78923	0.598
8.83008	0.691
8.87094	0.641
8.9118	0.645
8.95265	0.689
8.99351	0.718
9.03436	0.742
9.07522	0.752
9.11608	0.767
9.15693	0.779
9.19779	0.79
9.23864	0.798
9.2795	0.807
9.32036	0.815
9.36121	0.825
9.40207	0.837
9.44292	0.848
9.48378	0.861
9.52464	0.863
9.56549	0.861
9.60635	0.86
9.6472	0.863
9.68806	0.872
9.72891	0.872
9.76977	0.872
9.81063	0.87
9.85148	0.883
9.89234	0.902
9.93319	0.919
9.97405	0.928
10.0149	0.935
10.0558	0.943
10.0966	0.95
10.1375	0.959
10.1783	0.959
10.2192	0.959
10.26	0.95
10.3009	0.938
10.3418	0.948
10.3826	0.948
10.4235	0.853
10.4643	0.662
10.5052	0.687
10.546	0.82
10.5869	0.858
10.6277	0.918
10.6686	0.948
10.7095	0.959
10.7503	0.96
10.7912	0.959
10.832	0.96
10.8729	0.964
10.9137	0.962
10.9546	0.962
10.9954	0.965
11.0363	0.969
11.0772	0.97
11.118	0.967
11.1589	0.965
11.1997	0.957
11.2406	0.935
11.2814	0.829
11.3223	0.45
11.3632	0.537
11.404	0.648
11.4449	0.783
11.4857	0.837
11.5266	0.865
11.5674	0.872
11.6083	0.873
11.6491	0.872
11.69	0.866
11.7309	0.856
11.7717	0.849
11.8126	0.848
11.8534	0.868
11.8943	0.82
11.9351	0.626
11.976	0.564
12.0168	0.588
12.0577	0.546
12.0986	0.54
12.1394	0.609
12.1803	0.677
12.2211	0.742
12.262	0.774
12.3028	0.81
12.3437	0.834
12.3846	0.851
12.4254	0.843
12.4663	0.757
12.5071	0.622
12.548	0.496
12.5888	0.554
12.6297	0.732
12.6705	0.832
12.7114	0.853
12.7523	0.836
12.7931	0.853
12.834	0.885
12.8748	0.901
12.9157	0.901
12.9565	0.914
12.9974	0.924
13.0382	0.933
13.0791	0.94
13.12	0.95
13.1608	0.948
13.2017	0.941
13.2425	0.957
13.2834	0.957
13.3242	0.952
13.3651	0.959
13.4059	0.97
13.4468	0.972
13.4877	0.974
13.5285	0.974
13.5694	0.976
13.6102	0.977
13.6511	0.979
13.6919	0.981
13.7328	0.981
13.7737	0.981
13.8145	0.981
13.8554	0.981
13.8962	0.977
13.9371	0.976
13.9779	0.981
14.0188	0.988
14.0596	0.989
14.1005	0.993
14.1414	0.994
14.1822	0.996
14.2231	0.996
14.2639	0.996
14.3048	0.993
14.3456	0.988
14.3865	0.977
14.4273	0.947
14.4682	0.899
14.5091	0.878
14.5499	0.912
14.5908	0.95
14.6316	0.97
14.6725	0.976
14.7133	0.976
14.7542	0.976
14.7951	0.969
14.8359	0.976
14.8768	0.964
14.9176	0.957
14.9585	0.959
14.9993	0.945
15.0402	0.901
15.081	0.861
15.1219	0.877
15.1628	0.907
15.2036	0.911
15.2445	0.897
15.2853	0.885
15.3262	0.865
15.367	0.86
15.4079	0.843
15.4487	0.834
15.4896	0.812
15.5305	0.796
15.5713	0.781
15.6122	0.769
15.653	0.759
15.6939	0.747
15.7347	0.737
15.7756	0.72
15.8164	0.704
15.8573	0.689
15.8982	0.677
15.939	0.672
15.9799	0.663
