Infrared Spectrum: m-Aminobenzoic acid, ethyl ester
Formula: C9 H11 N O2
CAS: 582-33-2
State: SOLUTION (5% CCl4 FOR 3800-1330, 5% CS2 FOR 1330-400 CM^-^1))
Class: COBLENTZ III
Instrument: BECKMAN IR-9 (GRATING)
Instrument parameters: ORDER CHANGES: 670, 1200, 2000 CM^-^1
Sampling: TRANSMISSION
Path length: 0.011 CM, 0.011 CM
Resolution: 2
Origin: DOW CHEMICAL COMPANY
1/CM	TRANSMITTANCE
3800	0.9703
3791	0.9721
3782	0.9704
3773	0.9723
3764	0.9718
3755	0.9708
3746	0.9691
3737	0.9689
3728	0.9661
3719	0.9614
3710	0.9604
3701	0.958
3692	0.9568
3683	0.9604
3674	0.9642
3665	0.9659
3656	0.9653
3647	0.9636
3638	0.962
3629	0.9603
3620	0.9603
3611	0.9586
3602	0.9546
3593	0.9431
3584	0.9402
3575	0.9371
3566	0.9349
3557	0.9321
3548	0.9304
3539	0.9249
3530	0.9172
3521	0.9025
3512	0.8747
3503	0.8337
3494	0.774
3485	0.7196
3476	0.7322
3467	0.7659
3458	0.8003
3449	0.8339
3440	0.8567
3431	0.8587
3422	0.8482
3413	0.8168
3404	0.6678
3395	0.6377
3386	0.6557
3377	0.7071
3368	0.7569
3359	0.8122
3350	0.8548
3341	0.8833
3332	0.9041
3323	0.9173
3314	0.9252
3305	0.9313
3296	0.9325
3287	0.9332
3278	0.9336
3269	0.9323
3260	0.9283
3251	0.9228
3242	0.9187
3233	0.9155
3224	0.9161
3215	0.9203
3206	0.9256
3197	0.931
3188	0.9338
3179	0.9333
3170	0.9335
3161	0.9344
3152	0.9346
3143	0.9315
3134	0.931
3125	0.9283
3116	0.9223
3107	0.9174
3098	0.9104
3089	0.8996
3080	0.8862
3071	0.8774
3062	0.863
3053	0.8624
3044	0.8703
3035	0.8746
3026	0.8284
3017	0.8347
3008	0.7989
2999	0.6963
2990	0.5926
2981	0.5892
2972	0.771
2963	0.8132
2954	0.8283
2945	0.8098
2936	0.8238
2927	0.8746
2918	0.8732
2909	0.8302
2900	0.8731
2891	0.9039
2882	0.8981
2873	0.912
2864	0.9334
2855	0.9386
2846	0.9377
2837	0.9378
2828	0.94
2819	0.948
2810	0.9507
2801	0.954
2792	0.9548
2783	0.9537
2774	0.9541
2765	0.9541
2756	0.9552
2747	0.9558
2738	0.9563
2729	0.9567
2720	0.957
2711	0.9567
2702	0.9563
2693	0.9559
2684	0.9542
2675	0.9527
2666	0.9516
2657	0.9523
2648	0.9521
2639	0.953
2630	0.9548
2621	0.9581
2612	0.9603
2603	0.9624
2594	0.9635
2585	0.9637
2576	0.9633
2567	0.9622
2558	0.9612
2549	0.9622
2540	0.9631
2531	0.9641
2522	0.9652
2513	0.9661
2504	0.9663
2495	0.9664
2486	0.9665
2477	0.9673
2468	0.9665
2459	0.9656
2450	0.9631
2441	0.9631
2432	0.9623
2423	0.9616
2414	0.9619
2405	0.9652
2396	0.9668
2387	0.9701
2378	0.9745
2369	0.974
2360	0.9728
2351	0.9748
2342	0.9732
2333	0.9712
2324	0.9745
2315	0.9731
2306	0.9728
2297	0.975
2288	0.9765
2279	0.978
2270	0.9762
2261	0.9742
2252	0.9729
2243	0.9715
2234	0.9705
2225	0.9699
2216	0.9669
2207	0.9655
2198	0.9645
2189	0.9621
2180	0.9612
2171	0.9626
2162	0.9611
2153	0.9611
2144	0.961
2135	0.9609
2126	0.9615
2117	0.9612
2108	0.9598
2099	0.9595
2090	0.9593
2081	0.959
2072	0.9587
2063	0.9583
2054	0.96
2045	0.9579
2036	0.957
2027	0.9563
2018	0.9545
2009	0.9532
2000	0.9404
1991	0.95
1982	0.9495
1973	0.9473
1964	0.9481
1955	0.9509
1946	0.9361
1937	0.9294
1928	0.9406
1919	0.9492
1910	0.9473
1901	0.9471
1892	0.9442
1883	0.9399
1874	0.9364
1865	0.9334
1856	0.9342
1847	0.9364
1838	0.9371
1829	0.9339
1820	0.9312
1811	0.9284
1802	0.9152
1793	0.8964
1784	0.88
1775	0.8712
1766	0.8683
1757	0.8645
1748	0.8087
1739	0.6805
1730	0.4154
1721	-0.0036
1712	0.012
1703	0.2032
1694	0.676
1685	0.7521
1676	0.808
1667	0.8389
1658	0.8407
1649	0.7982
1640	0.7312
1631	0.4303
1622	0.1251
1613	0.2295
1604	0.4083
1595	0.4801
1586	0.4014
1577	0.7381
1568	0.7748
1559	0.7413
1550	0.7754
1541	0.8086
1532	0.8312
1523	0.8371
1514	0.8284
1505	0.8072
1496	0.6998
1487	0.7042
1478	0.675
1469	0.5454
1460	0.2622
1451	0.6286
1442	0.6895
1433	0.8467
1424	0.8867
1415	0.8934
1406	0.8889
1397	0.7938
1388	0.8377
1379	0.852
1370	0.3402
1361	0.8336
1352	0.8513
1343	0.8038
1334	0.6126
1325	0.3147
1316	0.038
1307	0.1239
1298	0.1355
1289	-0.0036
1280	0.5736
1271	0.7521
1262	0.7329
1253	0.608
1244	0.1343
1235	-0.0036
1226	0.025
1217	0.575
1208	0.8125
1199	0.8555
1190	0.8784
1181	0.8582
1172	0.7665
1163	0.792
1154	0.8814
1145	0.906
1136	0.8936
1127	0.7189
1118	0.5694
1109	0.4088
1100	0.1088
1091	0.2879
1082	0.6596
1073	0.7414
1064	0.7485
1055	0.8753
1046	0.8792
1037	0.7034
1028	0.4872
1019	0.6084
1010	0.8583
1001	0.6915
992	0.8568
983	0.9277
974	0.9344
965	0.9448
956	0.9464
947	0.9299
938	0.7611
929	0.7927
920	0.888
911	0.8985
902	0.8647
893	0.7984
884	0.6886
875	0.731
866	0.802
857	0.8783
848	0.9275
839	0.9283
830	0.8911
821	0.82
812	0.7729
803	0.8038
794	0.8379
785	0.8257
776	0.6691
767	0.4826
758	0.1878
749	0.6794
740	0.8257
731	0.8374
722	0.842
713	0.8349
704	0.8237
695	0.7972
686	0.5901
677	0.74
668	0.8107
659	0.7591
650	0.7865
641	0.7927
632	0.7909
623	0.791
614	0.7955
605	0.7965
596	0.7995
587	0.8008
578	0.7981
569	0.7892
560	0.7527
551	0.715
542	0.6905
533	0.6974
524	0.7167
515	0.7149
506	0.6947
497	0.6854
488	0.6767
479	0.664
470	0.6448
461	0.6236
452	0.5995
443	0.5633
434	0.5041
425	0.3694
416	0.2888
407	0.2874
