Infrared Spectrum: PYRIMIDINE, 2,4-DIAMINO-6-CHLORO-5-(p-CHLOROPHENYLAZO)-
Formula: C10 H8 Cl2 N6
CAS: 5822-69-5
State: SOLID (0.5 mg / 650 mg KBr DISC)
Class: COBLENTZ III
Instrument: PERKIN-ELMER 21 (GRATING)
Instrument parameters: FILTER CHANGE ABOUT 1100 CM^-^1
Sampling: TRANSMISSION
Resolution: 2
Origin: SOUTHERN RESEARCH INSTITUTE
1/CM	TRANSMITTANCE
610	0.7499
619	0.7423
628	0.7407
637	0.7606
646	0.7945
655	0.8056
664	0.8178
673	0.8244
682	0.8241
691	0.8222
700	0.818
709	0.8207
718	0.8556
727	0.8566
736	0.8588
745	0.8637
754	0.8527
763	0.8408
772	0.835
781	0.6558
790	0.6878
799	0.8461
808	0.8242
817	0.7802
826	0.7758
835	0.578
844	0.7525
853	0.8594
862	0.8607
871	0.8445
880	0.7738
889	0.8166
898	0.8606
907	0.8569
916	0.842
925	0.8025
934	0.7175
943	0.782
952	0.8484
961	0.8512
970	0.8547
979	0.8476
988	0.8417
997	0.83
1006	0.7551
1015	0.695
1024	0.77
1033	0.7991
1042	0.8048
1051	0.8059
1060	0.7936
1069	0.7939
1078	0.7879
1087	0.7018
1096	0.5061
1105	0.7583
1114	0.7967
1123	0.8015
1132	0.8072
1141	0.8036
1150	0.79
1159	0.7858
1168	0.7904
1177	0.7876
1186	0.775
1195	0.7452
1204	0.7047
1213	0.7814
1222	0.7638
1231	0.7409
1240	0.7126
1249	0.6267
1258	0.5828
1267	0.6876
1276	0.7736
1285	0.7627
1294	0.7425
1303	0.6459
1312	0.747
1321	0.7283
1330	0.7365
1339	0.7604
1348	0.7464
1357	0.6791
1366	0.6971
1375	0.714
1384	0.6817
1393	0.6103
1402	0.5971
1411	0.7141
1420	0.6622
1429	0.5804
1438	0.6236
1447	0.6051
1456	0.5394
1465	0.5272
1474	0.5712
1483	0.6467
1492	0.6301
1501	0.5075
1510	0.4951
1519	0.4569
1528	0.4775
1537	0.544
1546	0.5455
1555	0.4849
1564	0.2469
1573	0.1702
1582	0.1696
1591	0.1758
1600	0.1607
1609	0.2109
1618	0.2372
1627	0.2229
1636	0.2121
1645	0.2337
1654	0.2833
1663	0.3487
1672	0.4462
1681	0.5622
1690	0.6373
1699	0.7063
1708	0.7943
1717	0.8233
1726	0.8347
1735	0.8523
1744	0.8624
1753	0.8706
1762	0.8781
1771	0.8845
1780	0.8893
1789	0.8918
1798	0.8937
1807	0.8955
1816	0.8972
1825	0.8988
1834	0.9044
1843	0.9026
1852	0.8979
1861	0.9002
1870	0.9044
1879	0.9055
1888	0.9035
1897	0.9009
1906	0.8961
1915	0.8945
1924	0.8975
1933	0.8994
1942	0.8996
1951	0.8992
1960	0.8978
1969	0.8962
1978	0.8937
1987	0.8911
1996	0.893
2005	0.8951
2014	0.8977
2023	0.9013
2032	0.8978
2041	0.8851
2050	0.8826
2059	0.8818
2068	0.8803
2077	0.8785
2086	0.8759
2095	0.8751
2104	0.8751
2113	0.8754
2122	0.8778
2131	0.8802
2140	0.8819
2149	0.8829
2158	0.8835
2167	0.8834
2176	0.8832
2185	0.8824
2194	0.8816
2203	0.8808
2212	0.8803
2221	0.8801
2230	0.8799
2239	0.8797
2248	0.8795
2257	0.8789
2266	0.8785
2275	0.8783
2284	0.878
2293	0.8775
2302	0.8752
2311	0.8706
2320	0.8676
2329	0.8652
2338	0.8681
2347	0.8719
2356	0.8738
2365	0.8734
2374	0.8745
2383	0.8758
2392	0.878
2401	0.8801
2410	0.8756
2419	0.8672
2428	0.8682
2437	0.8726
2446	0.8689
2455	0.8664
2464	0.8674
2473	0.871
2482	0.8749
2491	0.8747
2500	0.8682
2509	0.8617
2518	0.8484
2527	0.8458
2536	0.8514
2545	0.857
2554	0.8554
2563	0.8533
2572	0.8507
2581	0.8478
2590	0.845
2599	0.8424
2608	0.8401
2617	0.8381
2626	0.8362
2635	0.8331
2644	0.826
2653	0.8203
2662	0.8219
2671	0.8278
2680	0.8341
2689	0.8376
2698	0.8344
2707	0.8287
2716	0.8198
2725	0.8181
2734	0.8274
2743	0.8277
2752	0.8207
2761	0.8193
2770	0.8199
2779	0.8166
2788	0.8118
2797	0.8093
2806	0.809
2815	0.8123
2824	0.8121
2833	0.8075
2842	0.8017
2851	0.7974
2860	0.7952
2869	0.7923
2878	0.7889
2887	0.7853
2896	0.7844
2905	0.7861
2914	0.7879
2923	0.788
2932	0.7847
2941	0.7796
2950	0.7754
2959	0.7711
2968	0.7658
2977	0.7605
2986	0.755
2995	0.7448
3004	0.7313
3013	0.7369
3022	0.7438
3031	0.7437
3040	0.7419
3049	0.7276
3058	0.7215
3067	0.7247
3076	0.7151
3085	0.6968
3094	0.684
3103	0.6797
3112	0.6617
3121	0.6439
3130	0.6127
3139	0.5948
3148	0.5827
3157	0.5727
3166	0.5626
3175	0.5516
3184	0.5391
3193	0.5242
3202	0.5115
3211	0.5002
3220	0.4888
3229	0.4785
3238	0.4682
3247	0.4597
3256	0.4527
3265	0.4479
3274	0.4464
3283	0.4456
3292	0.4498
3301	0.4557
3310	0.4625
3319	0.4684
3328	0.4689
3337	0.4616
3346	0.4512
3355	0.4221
3364	0.3918
3373	0.3625
3382	0.334
3391	0.3049
3400	0.2857
3409	0.2782
3418	0.2791
3427	0.2864
3436	0.2908
3445	0.2896
3454	0.2835
3463	0.276
3472	0.2677
3481	0.2605
3490	0.2535
3499	0.2474
3508	0.2419
3517	0.2406
3526	0.2437
3535	0.2513
3544	0.2591
3553	0.2696
3562	0.2849
3571	0.3017
3580	0.3207
3589	0.3467
3598	0.3737
3607	0.3875
3616	0.3996
3625	0.4125
3634	0.4294
3643	0.4484
3652	0.4626
3661	0.4733
3670	0.485
3679	0.504
3688	0.5238
3697	0.5472
3706	0.5837
3715	0.6188
3724	0.6745
3733	0.7002
3742	0.731
3751	0.754
3760	0.7689
3769	0.7807
3778	0.7962
3787	0.8066
3796	0.8102
3805	0.8114
3814	0.8153
3823	0.8231
3832	0.8274
3841	0.8225
3850	0.8253
3859	0.8293
3868	0.8297
3877	0.8275
3886	0.8256
3895	0.8264
3904	0.8273
3913	0.8273
3922	0.8204
3931	0.8214
3940	0.8232
3949	0.8307
3958	0.8336
3967	0.8342
3976	0.8341
3985	0.8319
3994	0.823
