Infrared Spectrum: Tritylamine
Formula: C 19 H 17 N
CAS: 5824-40-8
State: gas
Instrument: HP-GC/MS/IRD
Origin: NIST Mass Spectrometry Data Center
1/CM	ABSORBANCE
550	0.0005436
562	0.0001404
574	0.0016416
586	0.0017352
598	0.0007668
610	0.0015552
622	0.005058
634	0.0082512
646	0.0024156
658	0.0024768
670	0.0047088
682	0.0092736
694	0.026406
706	0.0301248
718	0.0106524
730	0.0083844
742	0.0128376
754	0.0220788
766	0.014922
778	0.0066492
790	0.0051336
802	0.0046944
814	0.004788
826	0.0049788
838	0.0040608
850	0.0026928
862	0.0020016
874	0.002052
886	0.0027612
898	0.0043416
910	0.0049104
922	0.0033048
934	0.003798
946	0.0038844
958	0.0027648
970	0.0021312
982	0.001674
994	0.0017136
1006	0.0021816
1018	0.0030168
1030	0.0069804
1042	0.0030168
1054	0.001368
1066	0.0009432
1078	0.000954
1090	0.000738
1102	0.0005112
1114	0.0003924
1126	0.0002304
1138	0.0003744
1150	0.0007164
1162	0.0012096
1174	0.0019908
1186	0.0046368
1198	0.0033984
1210	0.0027036
1222	0.0019188
1234	0.0013284
1246	0.0010872
1258	0.00117
1270	0.0013644
1282	0.0015732
1294	0.0015912
1306	0.00144
1318	0.001314
1330	0.0008784
1342	0.0004716
1354	0.00036
1366	0.0004788
1378	0.0006876
1390	0.0005652
1402	0.0005292
1414	0.0008316
1426	0.0016848
1438	0.0052452
1450	0.0071856
1462	0.0029484
1474	0.003762
1486	0.010134
1498	0.0091368
1510	0.0026496
1522	0.0014004
1534	0.0014328
1546	0.0016092
1558	0.0018396
1570	0.0026388
1582	0.004482
1594	0.0083232
1606	0.007074
1618	0.0043956
1630	0.0027252
1642	0.0015624
1654	0.0011016
1666	0.0009756
1678	0.0008604
1690	0.0005364
1702	0.0002556
1714	0.0002268
1726	0.0003096
1738	0.0004392
1750	0.0005472
1762	0.0006228
1774	0.0007056
1786	0.000828
1798	0.0016992
1810	0.0015876
1822	0.0007596
1834	0.0004392
1846	0.000342
1858	0.00045
1870	0.0007524
1882	0.0011844
1894	0.0012564
1906	0.000774
1918	0.0004968
1930	0.0008136
1942	0.0017136
1954	0.0017712
1966	0.00081
1978	0.0002448
1990	0.0001764
2002	0.0001188
2014	0.0001008
2026	0.0001152
2038	8.28e-05
2050	0.000108
2062	9.36e-05
2074	7.2e-05
2086	9e-05
2098	7.56e-05
2110	9e-05
2122	9.36e-05
2134	0.0001116
2146	0.0001008
2158	0.0001008
2170	0.0001044
2182	0.000126
2194	0.0001368
2206	0.000108
2218	8.28e-05
2230	7.56e-05
2242	0.0001008
2254	0.000126
2266	0.0001188
2278	0.000108
2290	0.0001116
2302	0.0001512
2314	0.0003348
2326	0.0001872
2338	0.0002088
2350	0.0002232
2362	0.0001296
2374	0.0001296
2386	0.0001332
2398	0.0001044
2410	0.0001368
2422	0.000144
2434	0.0001188
2446	0.0001404
2458	8.64e-05
2470	0.0001332
2482	0.0001008
2494	9.36e-05
2506	0.0001008
2518	0.0001008
2530	9.72e-05
2542	0.000126
2554	0.0001476
2566	0.0001728
2578	0.00018
2590	0.0002088
2602	0.0002124
2614	0.0001692
2626	0.0001584
2638	0.0001512
2650	0.0001404
2662	0.0001368
2674	0.000126
2686	0.0001008
2698	9.72e-05
2710	0.0001008
2722	0.0001152
2734	0.0001728
2746	0.0001728
2758	0.0002304
2770	0.0002196
2782	0.000234
2794	0.0002376
2806	0.000216
2818	0.000198
2830	0.0002412
2842	0.0003024
2854	0.0003276
2866	0.0003276
2878	0.0003816
2890	0.0004608
2902	0.0004284
2914	0.0004284
2926	0.0004752
2938	0.0005292
2950	0.0004932
2962	0.0005292
2974	0.000684
2986	0.0008748
2998	0.0015012
3010	0.003168
3022	0.0076716
3034	0.0117432
3046	0.0095832
3058	0.0150732
3070	0.0257292
3082	0.013284
3094	0.0092916
3106	0.0044064
3118	0.0019872
3130	0.0010188
3142	0.0007704
3154	0.0008928
3166	0.0007272
3178	0.0004032
3190	0.000306
3202	0.0002628
3214	0.0001512
3226	0.0001836
3238	0.0002052
3250	0.0002088
3262	0.0001944
3274	0.0001836
3286	0.0002232
3298	0.0002736
3310	0.0002808
3322	0.0004212
3334	0.0005256
3346	0.0004032
3358	0.0002772
3370	0.0002844
3382	0.0002124
3394	0.0002196
3406	0.0002376
3418	0.0001908
3430	0.0002016
3442	0.0001692
3454	0.0001584
3466	0.0001368
3478	0.0001188
3490	9e-05
3502	0.0001116
3514	0.0001404
3526	7.56e-05
3538	9e-05
3550	0.0001548
3562	0.0001404
3574	0.0001152
3586	8.64e-05
3598	0.0001152
3610	0.0001548
3622	0.0001764
3634	0.0002448
3646	0.0002592
3658	0.0002736
3670	0.0002664
3682	0.0003348
3694	0.0003672
3706	0.0003492
3718	0.0002052
3730	0.0002412
3742	0.0002088
3754	0.0002808
3766	0.0003348
3778	0.0002844
3790	0.0001908
3802	0.0001764
3814	0.0001836
3826	0.000216
3838	0.0002304
