Infrared Spectrum: Dimethyl bicyclo[2.2.1]-5-heptene-2,3-dicarboxylate
Formula: C 11 H 14 O 4
CAS: 5826-73-3
State: gas
Origin: EPA-IR VAPOR PHASE LIBRARY
1/CM	ABSORBANCE
549.8	0.0004646
559.445	0.0005288
569.09	0.000118029
578.734	0.0002781
588.379	0.0007126
598.024	0.000707
607.669	0.000911
617.313	0.0010463
626.958	0.001425
636.603	0.001645
646.248	0.001625
655.893	0.001415
665.537	0.001965
675.182	0.002625
684.827	0.003815
694.472	0.006205
704.116	0.008445
713.761	0.012545
723.406	0.012795
733.051	0.008275
742.695	0.006415
752.34	0.005665
761.985	0.004405
771.63	0.004185
781.275	0.007275
790.919	0.006665
800.564	0.004365
810.209	0.003745
819.854	0.004375
829.498	0.003965
839.143	0.004225
848.788	0.004135
858.433	0.003395
868.078	0.002505
877.722	0.002555
887.367	0.003625
897.012	0.005755
906.657	0.007505
916.301	0.005855
925.946	0.003425
935.591	0.003335
945.236	0.003485
954.88	0.002475
964.525	0.002405
974.17	0.002285
983.815	0.002295
993.46	0.002125
1003.1	0.003385
1012.75	0.006405
1022.39	0.013465
1032.04	0.021445
1041.68	0.021855
1051.33	0.016965
1060.97	0.018095
1070.62	0.026255
1080.26	0.024955
1089.91	0.015855
1099.55	0.012345
1109.2	0.011855
1118.84	0.013795
1128.49	0.017675
1138.13	0.031245
1147.78	0.055715
1157.42	0.077685
1167.07	0.082655
1176.71	0.076955
1186.36	0.084265
1196	0.082025
1205.64	0.058385
1215.29	0.040345
1224.93	0.032465
1234.58	0.030965
1244.22	0.042865
1253.87	0.052385
1263.51	0.039855
1273.16	0.025565
1282.8	0.018185
1292.45	0.014395
1302.09	0.012515
1311.74	0.014165
1321.38	0.019885
1331.03	0.028365
1340.67	0.032745
1350.32	0.026645
1359.96	0.022685
1369.61	0.017155
1379.25	0.010485
1388.9	0.007035
1398.54	0.005195
1408.18	0.004845
1417.83	0.005615
1427.47	0.012285
1437.12	0.025655
1446.76	0.016995
1456.41	0.009375
1466.05	0.007625
1475.7	0.005605
1485.34	0.004085
1494.99	0.003085
1504.63	0.002655
1514.28	0.002385
1523.92	0.002315
1533.57	0.002355
1543.21	0.002365
1552.86	0.002295
1562.5	0.002395
1572.15	0.002795
1581.79	0.002575
1591.44	0.002145
1601.08	0.002095
1610.73	0.002055
1620.37	0.002175
1630.01	0.002295
1639.66	0.002335
1649.3	0.002235
1658.95	0.002405
1668.59	0.002655
1678.24	0.003075
1687.88	0.003705
1697.53	0.004815
1707.17	0.006905
1716.82	0.010635
1726.46	0.019275
1736.11	0.041745
1745.75	0.076915
1755.4	0.109575
1765.04	0.112205
1774.69	0.051225
1784.33	0.017465
1793.98	0.007995
1803.62	0.004845
1813.27	0.003425
1822.91	0.002945
1832.55	0.002705
1842.2	0.002305
1851.84	0.001985
1861.49	0.001595
1871.13	0.001345
1880.78	0.001385
1890.42	0.001305
1900.07	0.001295
1909.71	0.001255
1919.36	0.001275
1929	0.001155
1938.65	0.001255
1948.29	0.001215
1957.94	0.001225
1967.58	0.001165
1977.23	0.001235
1986.87	0.001275
1996.52	0.001335
2006.16	0.001315
2015.81	0.001315
2025.45	0.001165
2035.1	0.001235
2044.74	0.001265
2054.38	0.001345
2064.03	0.001435
2073.67	0.001465
2083.32	0.001425
2092.96	0.001535
2102.61	0.001405
2112.25	0.001275
2121.9	0.001195
2131.54	0.0010533
2141.19	0.0009662
2150.83	0.0008653
2160.48	0.000873
2170.12	0.000853
2179.77	0.0007
2189.41	0.0006618
2199.06	0.0006401
2208.7	0.0005804
2218.35	0.0005932
2227.99	0.0005612
2237.64	0.0006042
2247.28	0.0006569
2256.92	0.0005861
2266.57	0.0004864
2276.21	0.0005198
2285.86	0.0005407
2295.5	0.0004809
2305.15	0.0005478
2314.79	0.0005284
2324.44	0.0006078
2334.08	0.0005405
2343.73	0.0005626
2353.37	0.0005177
2363.02	0.0006244
2372.66	0.0005671
2382.31	0.000673
2391.95	0.0006491
2401.6	0.0004882
2411.24	0.0004468
2420.89	0.000432
2430.53	0.0003828
2440.18	0.0003828
2449.82	0.0003552
2459.47	0.0003179
2469.11	0.0003655
2478.75	0.0003769
2488.4	0.0003727
2498.04	0.0004212
2507.69	0.0004421
2517.33	0.0003828
2526.98	0.000429
2536.62	0.0005078
2546.27	0.000379
2555.91	0.0003815
2565.56	0.0003742
2575.2	0.0004188
2584.85	0.0005634
2594.49	0.000452
2604.14	0.0004287
2613.78	0.0004878
2623.43	0.000355
2633.07	0.0002994
2642.72	0.0003967
2652.36	0.000359
2662.01	0.0004271
2671.65	0.0003682
2681.29	0.0003743
2690.94	0.0003947
2700.58	0.0003824
2710.23	0.0002767
2719.87	0.0004008
2729.52	0.0002441
2739.16	0.0003356
2748.81	0.0002668
2758.45	0.0003037
2768.1	0.0002806
2777.74	0.0004591
2787.39	0.000473
2797.03	0.0005366
2806.68	0.0006996
2816.32	0.0009986
2825.97	0.001595
2835.61	0.003025
2845.26	0.005425
2854.9	0.005135
2864.55	0.004705
2874.19	0.009015
2883.84	0.009655
2893.48	0.007375
2903.12	0.007985
2912.77	0.010195
2922.41	0.011485
2932.06	0.012945
2941.7	0.020425
2951.35	0.034195
2960.99	0.039165
2970.64	0.029225
2980.28	0.030905
2989.93	0.037695
2999.57	0.028275
3009.22	0.011845
3018.86	0.008445
3028.51	0.007085
3038.15	0.005015
3047.8	0.003685
3057.44	0.003215
3067.09	0.003605
3076.73	0.005265
3086.38	0.005855
3096.02	0.004155
3105.67	0.002415
3115.31	0.001775
3124.95	0.001475
3134.6	0.001295
3144.24	0.001385
3153.89	0.001345
3163.53	0.0009208
3173.18	0.0006098
3182.82	0.0005704
3192.47	0.0003868
3202.11	0.0004826
3211.76	0.0003874
3221.4	0.000417
3231.05	0.0004982
3240.69	0.0002335
3250.34	0.0003694
3259.98	0.0003074
3269.63	0.0002269
3279.27	0.0002873
3288.92	0.0003155
3298.56	0.0003532
3308.21	0.0002719
3317.85	0.000124011
3327.49	0.0003119
3337.14	0.0003224
3346.78	0.0003769
3356.43	0.0003284
3366.07	0.0002722
3375.72	0.0003115
3385.36	0.0003573
3395.01	0.0002427
3404.65	0.0002813
3414.3	0.0002911
3423.94	0.0002782
3433.59	0.0004626
3443.23	0.0003419
3452.88	0.000606
3462.52	0.0006524
3472.17	0.0010781
3481.81	0.001155
3491.46	0.001355
3501.1	0.001295
3510.75	0.001145
3520.39	0.0007931
3530.04	0.0006815
3539.68	0.0004115
3549.32	0.0004614
3558.97	0.0004092
3568.61	0.0003033
3578.26	0.0002549
3587.9	0.0004119
3597.55	0.0002701
3607.19	0.00013083
3616.84	0.0001035
3626.48	0.0003039
3636.13	0.0003621
3645.77	0.0003842
3655.42	0.0003672
3665.06	0.00020956
3674.71	0.000342
3684.35	0.0003942
3694	0.000424
3703.64	0.0004954
3713.29	0.0003659
3722.93	0.0003122
3732.58	0.000462
3742.22	0.0002719
3751.86	0.000292
3761.51	0.0006065
3771.15	0.0003183
3780.8	0.0005667
3790.44	0.0005251
3800.09	0.000421
3809.73	0.000489
3819.38	0.0004549
3829.02	0.0005014
3838.67	0.0004302
3848.31	0.0002482
3857.96	0.0004848
3867.6	0.0005306
3877.25	0.0003539
3886.89	0.0003919
3896.54	0.0005734
3906.18	0.0005977
3915.83	0.0005109
3925.47	0.000534
3935.12	0.0003692
3944.76	0.0006239
3954.41	0.0002768
3964.05	0.0005815
3973.69	0.0005084
3983.34	0.0003902
3992.98	0.0006035
