Infrared Spectrum: PYRIDINE, 3,4-DIMETHYL-
Formula: C7 H9 N
CAS: 583-58-4
State: VAPOR (0.5 MICROLITER AT 150 C)
Boiling point: 164 C
Class: COBLENTZ
Instrument: NICOLET FTIR
Instrument parameters: Hg-Cd-Te DETECTOR - TYPE A, DEAD BELOW 680 CM^-^1, LOW S/N 710 - 680
Sampling: TRANSMISSION
Path length: 0.2 CM x 30 CM GOLD-PLATED LIGHT PIPE. HELIUM CARRIER. INTERFEROGRAMS CO-ADDED FOR FULL TRANSIT TIME.
Resolution: 4 CM^-^1
Origin: MONSANTO (JOHN J. FREEMAN)
1/CM	TRANSMITTANCE
694.212	1.003
703.473	1.0049
712.734	0.915
721.995	0.7841
731.256	0.885
740.517	0.875
749.778	0.9419
759.039	0.955
768.3	0.985
777.561	0.99
786.822	0.986
796.083	0.9161
805.344	0.7681
814.605	0.5781
823.866	0.631
833.127	0.65
842.388	0.752
851.649	0.9228
860.909	0.979
870.17	0.986
879.431	0.98
888.692	0.976
897.953	0.978
907.214	0.979
916.475	0.97
925.736	0.979
934.997	0.981
944.258	0.981
953.519	0.976
962.78	0.965
972.041	0.937
981.302	0.909
990.563	0.88
999.824	0.886
1009.09	0.902
1018.35	0.902
1027.61	0.912
1036.87	0.925
1046.13	0.932
1055.39	0.898
1064.65	0.877
1073.91	0.886
1083.17	0.957
1092.43	0.978
1101.69	0.983
1110.96	0.982
1120.22	0.979
1129.48	0.973
1138.74	0.976
1148	0.976
1157.26	0.972
1166.52	0.954
1175.78	0.878
1185.04	0.8
1194.3	0.813
1203.57	0.901
1212.83	0.941
1222.09	0.932
1231.35	0.923
1240.61	0.95
1249.87	0.974
1259.13	0.984
1268.39	0.989
1277.65	0.988
1286.91	0.972
1296.18	0.951
1305.44	0.948
1314.7	0.959
1323.96	0.968
1333.22	0.964
1342.48	0.962
1351.74	0.961
1361	0.954
1370.26	0.917
1379.52	0.852
1388.78	0.773
1398.05	0.685
1407.31	0.715
1416.57	0.712
1425.83	0.813
1435.09	0.7459
1444.35	0.629
1453.61	0.601
1462.87	0.636
1472.13	0.708
1481.39	0.714
1490.66	0.7
1499.92	0.752
1509.18	0.897
1518.44	0.935
1527.7	0.922
1536.96	0.903
1546.22	0.863
1555.48	0.823
1564.74	0.764
1574	0.6769
1583.27	0.527
1592.53	0.467
1601.79	0.546
1611.05	0.7261
1620.31	0.851
1629.57	0.881
1638.83	0.92
1648.09	0.96
1657.35	0.983
1666.61	0.99
1675.88	0.994
1685.14	0.994
1694.4	0.996
1703.66	0.99
1712.92	0.98
1722.18	0.971
1731.44	0.97
1740.7	0.978
1749.96	0.986
1759.22	0.985
1768.48	0.979
1777.75	0.978
1787.01	0.986
1796.27	0.992
1805.53	0.992
1814.79	0.989
1824.05	0.982
1833.31	0.983
1842.57	0.989
1851.83	0.99
1861.09	0.984
1870.36	0.972
1879.62	0.973
1888.88	0.977
1898.14	0.985
1907.4	0.973
1916.66	0.957
1925.92	0.956
1935.18	0.971
1944.44	0.986
1953.7	0.99
1962.97	0.992
1972.23	0.992
1981.49	0.992
1990.75	0.992
2000.01	0.995
2009.27	0.995
2018.53	0.9969
2027.79	0.999
2037.05	0.9971
2046.31	0.9961
2055.57	0.995
2064.84	0.995
2074.1	0.995
2083.36	0.996
2092.62	0.998
2101.88	0.998
2111.14	0.9973
2120.4	0.995
2129.66	0.9924
2138.92	0.9936
2148.18	0.9946
2157.45	0.995
2166.71	0.996
2175.97	0.9945
2185.23	0.994
2194.49	0.9916
2203.75	0.9886
2213.01	0.988
2222.27	0.9893
2231.53	0.992
2240.79	0.994
2250.06	0.995
2259.32	0.996
2268.58	0.996
2277.84	0.994
2287.1	0.9938
2296.36	0.992
2305.62	0.9941
2314.88	0.9972
2324.14	0.999
2333.4	1
2342.67	1
2351.93	1.001
2361.19	1
2370.45	0.9941
2379.71	0.992
2388.97	0.991
2398.23	0.99
2407.49	0.99
2416.75	0.9882
2426.01	0.988
2435.27	0.9863
2444.54	0.9806
2453.8	0.9763
2463.06	0.974
2472.32	0.9766
2481.58	0.9864
2490.84	0.9911
2500.1	0.994
2509.36	0.996
2518.62	0.995
2527.88	0.995
2537.15	0.994
2546.41	0.994
2555.67	0.993
2564.93	0.994
2574.19	0.994
2583.45	0.994
2592.71	0.993
2601.97	0.99
2611.23	0.989
2620.49	0.988
2629.76	0.9892
2639.02	0.992
2648.28	0.993
2657.54	0.994
2666.8	0.993
2676.06	0.99
2685.32	0.99
2694.58	0.99
2703.84	0.9881
2713.1	0.9851
2722.36	0.9811
2731.63	0.9686
2740.89	0.9592
2750.15	0.958
2759.41	0.9683
2768.67	0.976
2777.93	0.9763
2787.19	0.977
2796.45	0.9763
2805.71	0.972
2814.97	0.9654
2824.24	0.9558
2833.5	0.9463
2842.76	0.9282
2852.02	0.8959
2861.28	0.8139
2870.54	0.7427
2879.8	0.6858
2889.06	0.6678
2898.32	0.6939
2907.58	0.7323
2916.85	0.7174
2926.11	0.5779
2935.37	0.5098
2944.63	0.4814
2953.89	0.5099
2963.15	0.535
2972.41	0.5104
2981.67	0.4847
2990.93	0.4963
3000.19	0.5316
3009.46	0.5339
3018.72	0.5228
3027.98	0.529
3037.24	0.5819
3046.5	0.5713
3055.76	0.5376
3065.02	0.5496
3074.28	0.6461
3083.54	0.7695
3092.8	0.8206
3102.06	0.8647
3111.33	0.908
3120.59	0.9396
3129.85	0.9607
3139.11	0.9703
3148.37	0.977
3157.63	0.9812
3166.89	0.984
3176.15	0.988
3185.41	0.9895
3194.67	0.99
3203.94	0.992
3213.2	0.993
3222.46	0.994
3231.72	0.995
3240.98	0.9954
3250.24	0.996
3259.5	0.996
3268.76	0.996
3278.02	0.996
3287.28	0.997
3296.55	0.9972
3305.81	0.998
3315.07	0.9982
3324.33	1
3333.59	0.9991
3342.85	1
3352.11	0.999
3361.37	0.999
3370.63	0.998
3379.89	0.999
3389.15	0.999
3398.42	1
3407.68	1
3416.94	1
3426.2	1
3435.46	1
3444.72	0.9992
3453.98	0.9998
3463.24	1
3472.5	0.998
3481.76	1
3491.03	1
3500.29	1
3509.55	1
3518.81	1
3528.07	1
3537.33	0.999
3546.59	1
3555.85	0.9996
3565.11	1.0023
3574.37	1.003
3583.64	1.0035
3592.9	1.001
3602.16	0.9986
3611.42	0.9972
3620.68	0.9962
3629.94	0.9988
3639.2	0.9979
3648.46	1.0008
3657.72	1
3666.98	1.0048
3676.25	1.0027
3685.51	1.007
3694.77	0.9965
3704.03	0.994
3713.29	1
3722.55	1.0049
3731.81	1.0073
3741.07	1.008
3750.33	1.0006
3759.59	1.0001
3768.85	1.001
3778.12	0.9998
3787.38	1
3796.64	1.0008
3805.9	0.9988
3815.16	1.0038
3824.42	0.997
3833.68	0.9984
3842.94	1.001
3852.2	1.007
3861.46	0.9986
3870.73	0.9955
3879.99	0.997
3889.25	0.9939
3898.51	0.995
3907.77	0.995
3917.03	0.9952
3926.29	0.995
3935.55	0.9957
3944.81	0.9967
3954.07	0.996
3963.34	0.996
3972.6	0.996
3981.86	0.9972
