Infrared Spectrum: 5-BENZYLIDENE-2-THIO-HYDANTOIN
Formula: C10 H8 N2 O S
CAS: 583-46-0
State: SOLID (OIL MULL)
Melting point: 262-265 C
Class: COBLENTZ
Instrument: Not specified, most likely a prism, grating, or hybrid spectrometer.
Sampling: TRANSMISSION
Resolution: 4
Origin: WYANDOTTE CHEMICALS CORP., WYANDOTTE, MICHIGAN, USA
MICROMETERS	TRANSMITTANCE
2.043	0.265
2.08287	0.261
2.12273	0.271
2.1626	0.278
2.20247	0.271
2.24233	0.275
2.2822	0.281
2.32207	0.266
2.36194	0.286
2.4018	0.288
2.44167	0.296
2.48154	0.303
2.5214	0.308
2.56127	0.3
2.60114	0.315
2.641	0.325
2.68087	0.346
2.72074	0.351
2.76061	0.335
2.80047	0.346
2.84034	0.366
2.88021	0.375
2.92007	0.376
2.95994	0.37
2.99981	0.385
3.03967	0.31
3.07954	0.166
3.11941	0.08
3.15928	0.09
3.19914	0.11
3.23901	0.143
3.27888	0.17
3.31874	0.203
3.35861	0.128
3.39848	0.05
3.43834	0.031
3.47821	0.06
3.51808	0.071
3.55795	0.181
3.59781	0.3
3.63768	0.36
3.67755	0.378
3.71741	0.391
3.75728	0.396
3.79715	0.398
3.83701	0.415
3.87688	0.428
3.91675	0.445
3.95662	0.46
3.99648	0.441
4.03635	0.451
4.07622	0.466
4.11608	0.466
4.15595	0.48
4.19582	0.49
4.23568	0.503
4.27555	0.481
4.31542	0.485
4.35529	0.5
4.39515	0.536
4.43502	0.57
4.47489	0.566
4.51475	0.566
4.55462	0.58
4.59449	0.588
4.63435	0.605
4.67422	0.603
4.71409	0.613
4.75395	0.621
4.79382	0.635
4.83369	0.651
4.87356	0.66
4.91342	0.675
4.95329	0.681
4.99316	0.688
5.03302	0.693
5.07289	0.711
5.11276	0.716
5.15262	0.713
5.19249	0.726
5.23236	0.753
5.27223	0.771
5.31209	0.788
5.35196	0.801
5.39183	0.821
5.43169	0.838
5.47156	0.841
5.51143	0.87
5.55129	0.888
5.59116	0.868
5.63103	0.86
5.6709	0.708
5.71076	0.57
5.75063	0.486
5.7905	0.07
5.83036	0.125
5.87023	0.306
5.9101	0.498
5.94996	0.583
5.98983	0.493
6.0297	0.326
6.06957	0.095
6.10943	0.24
6.1493	0.361
6.18917	0.491
6.22903	0.53
6.2689	0.503
6.30877	0.571
6.34863	0.63
6.3885	0.671
6.42837	0.718
6.46824	0.701
6.5081	0.69
6.54797	0.578
6.58784	0.408
6.6277	0.173
6.66757	0.133
6.70744	0.056
6.7473	0.03
6.78717	0.058
6.82704	0.1
6.86691	0.16
6.90677	0.131
6.94664	0.243
6.98651	0.378
7.02637	0.455
7.06624	0.508
7.10611	0.543
7.14597	0.541
7.18584	0.563
7.22571	0.375
7.26557	0.223
7.30544	0.155
7.34531	0.165
7.38518	0.176
7.42504	0.153
7.46491	0.188
7.50478	0.246
7.54464	0.261
7.58451	0.295
7.62438	0.265
7.66424	0.308
7.70411	0.366
7.74398	0.388
7.78385	0.388
7.82371	0.391
7.86358	0.441
7.90345	0.416
7.94331	0.31
7.98318	0.261
8.02305	0.313
8.06291	0.345
8.10278	0.383
8.14265	0.476
8.18252	0.52
8.22238	0.561
8.26225	0.535
8.30212	0.465
8.34198	0.291
8.38185	0.223
8.42172	0.13
8.46158	0.236
8.50145	0.183
8.54132	0.165
8.58119	0.293
8.62105	0.366
8.66092	0.263
8.70079	0.358
8.74065	0.456
8.78052	0.505
8.82039	0.546
8.86025	0.583
8.90012	0.598
8.93999	0.611
8.97986	0.598
9.01972	0.601
9.05959	0.555
9.09946	0.295
9.13932	0.178
9.17919	0.285
9.21906	0.393
9.25892	0.478
9.29879	0.545
9.33866	0.581
9.37853	0.615
9.41839	0.636
9.45826	0.645
9.49813	0.668
9.53799	0.663
9.57786	0.688
9.61773	0.705
9.65759	0.721
9.69746	0.653
9.73733	0.633
9.77719	0.7
9.81706	0.735
9.85693	0.746
9.8968	0.763
9.93666	0.755
9.97653	0.785
10.0164	0.773
10.0563	0.656
10.0961	0.558
10.136	0.695
10.1759	0.75
10.2157	0.778
10.2556	0.803
10.2955	0.788
10.3353	0.591
10.3752	0.396
10.4151	0.535
10.4549	0.653
10.4948	0.696
10.5347	0.731
10.5745	0.766
10.6144	0.773
10.6543	0.778
10.6941	0.806
10.734	0.8
10.7739	0.783
10.8137	0.738
10.8536	0.608
10.8935	0.661
10.9333	0.79
10.9732	0.85
11.0131	0.888
11.0529	0.905
11.0928	0.908
11.1327	0.903
11.1725	0.903
11.2124	0.878
11.2523	0.763
11.2921	0.573
11.332	0.593
11.3719	0.738
11.4117	0.835
11.4516	0.873
11.4915	0.906
11.5313	0.918
11.5712	0.926
11.6111	0.941
11.6509	0.94
11.6908	0.945
11.7307	0.943
11.7705	0.941
11.8104	0.933
11.8503	0.926
11.8901	0.913
11.93	0.875
11.9699	0.791
12.0097	0.685
12.0496	0.716
12.0895	0.671
12.1293	0.711
12.1692	0.808
12.2091	0.84
12.2489	0.858
12.2888	0.871
12.3287	0.875
12.3685	0.885
12.4084	0.911
12.4483	0.916
12.4881	0.921
12.528	0.916
12.5679	0.915
12.6078	0.908
12.6476	0.903
12.6875	0.893
12.7274	0.878
12.7672	0.856
12.8071	0.838
12.847	0.801
12.8868	0.765
12.9267	0.681
12.9666	0.516
13.0064	0.278
13.0463	0.208
13.0862	0.38
13.126	0.566
13.1659	0.688
13.2058	0.693
13.2456	0.643
13.2855	0.6
13.3254	0.715
13.3652	0.903
13.4051	0.92
13.445	0.903
13.4848	0.861
13.5247	0.83
13.5646	0.81
13.6044	0.79
13.6443	0.751
13.6842	0.736
13.724	0.726
13.7639	0.696
13.8038	0.668
13.8436	0.648
13.8835	0.626
13.9234	0.6
13.9632	0.576
14.0031	0.561
14.043	0.536
14.0828	0.513
14.1227	0.491
14.1626	0.475
14.2024	0.466
14.2423	0.465
14.2822	0.466
14.322	0.466
14.3619	0.468
14.4018	0.47
14.4416	0.455
14.4815	0.43
14.5214	0.39
14.5612	0.335
14.6011	0.263
14.641	0.2
14.6808	0.163
14.7207	0.151
14.7606	0.163
14.8004	0.186
14.8403	0.198
14.8802	0.233
14.92	0.261
14.9599	0.283
14.9998	0.323
15.0396	0.335
15.0795	0.363
15.1194	0.38
15.1592	0.381
15.1991	0.375
15.239	0.378
15.2788	0.39
15.3187	0.401
15.3586	0.43
15.3984	0.443
15.4383	0.456
15.4782	0.46
15.518	0.481
15.5579	0.498
15.5978	0.511
15.6376	0.528
15.6775	0.54
15.7174	0.545
15.7572	0.551
15.7971	0.55
15.837	0.545
15.8768	0.528
15.9167	0.521
15.9566	0.516
