Infrared Spectrum: 2-Methylcyclohexanol (c,t)
Formula: C 7 H 14 O
CAS: 583-59-5
State: gas
Instrument: HP-GC/MS/IRD
Origin: NIST Mass Spectrometry Data Center
1/CM	ABSORBANCE
550	0
562	0.0003425
574	0.000385
586	0.0003325
598	0.0001725
610	0.000205
622	0.0001975
634	0.0002775
646	0.0003075
658	3.75e-05
670	0.000175
682	0.000125
694	6.5e-05
706	0.000155
718	0.000135
730	0.00017
742	0.0002475
754	0.0001925
766	0.000195
778	0.000215
790	0.0001975
802	0.0003375
814	0.0003325
826	0.0003925
838	0.000545
850	0.000705
862	0.000585
874	0.0004725
886	0.000555
898	0.0005825
910	0.00048
922	0.0006775
934	0.0011375
946	0.0015
958	0.002525
970	0.00416
982	0.00396
994	0.0026925
1006	0.0017525
1018	0.0013525
1030	0.0010175
1042	0.0011075
1054	0.0019025
1066	0.002545
1078	0.0022675
1090	0.00141
1102	0.0008725
1114	0.0010375
1126	0.0013475
1138	0.001485
1150	0.0014125
1162	0.0011825
1174	0.001105
1186	0.0013525
1198	0.001775
1210	0.00191
1222	0.001645
1234	0.001515
1246	0.00146
1258	0.0013425
1270	0.0011975
1282	0.001
1294	0.00084
1306	0.0008525
1318	0.0009275
1330	0.0009875
1342	0.000975
1354	0.0010175
1366	0.001355
1378	0.0016175
1390	0.0014
1402	0.00091
1414	0.00061
1426	0.0007975
1438	0.0016925
1450	0.00264
1462	0.0023675
1474	0.00151
1486	0.0007075
1498	0.00032
1510	0.0002325
1522	0.0001625
1534	0.0001125
1546	8.5e-05
1558	9.75e-05
1570	0.0001175
1582	0.0001225
1594	0.0001025
1606	9.75e-05
1618	0.00013
1630	8.5e-05
1642	8.75e-05
1654	9.5e-05
1666	7.25e-05
1678	9.5e-05
1690	7.75e-05
1702	5.75e-05
1714	8.5e-05
1726	5.75e-05
1738	3.5e-05
1750	7.75e-05
1762	8.5e-05
1774	7.25e-05
1786	4.75e-05
1798	5.75e-05
1810	5e-05
1822	6.75e-05
1834	5.5e-05
1846	6e-05
1858	6e-05
1870	3.5e-05
1882	6.75e-05
1894	7.5e-05
1906	5.75e-05
1918	8e-05
1930	7.75e-05
1942	7.25e-05
1954	5.5e-05
1966	4.25e-05
1978	3.25e-05
1990	2.75e-05
2002	3.25e-05
2014	7.5e-05
2026	6e-05
2038	5.25e-05
2050	3.5e-05
2062	3.25e-05
2074	8e-05
2086	3.5e-05
2098	8.25e-05
2110	6.25e-05
2122	6.75e-05
2134	7.25e-05
2146	5e-05
2158	6.75e-05
2170	4.5e-05
2182	7.75e-05
2194	4.25e-05
2206	7.25e-05
2218	6.5e-05
2230	7e-05
2242	4e-05
2254	7e-05
2266	8.5e-05
2278	6.75e-05
2290	7.75e-05
2302	9.25e-05
2314	9e-05
2326	9.75e-05
2338	7.75e-05
2350	0.000105
2362	9.25e-05
2374	9e-05
2386	7e-05
2398	7.75e-05
2410	8.25e-05
2422	9.75e-05
2434	7e-05
2446	9.25e-05
2458	0.0001325
2470	0.00013
2482	0.0001125
2494	8e-05
2506	0.00012
2518	9.5e-05
2530	0.0001175
2542	0.00015
2554	0.000145
2566	0.000175
2578	0.00019
2590	0.000225
2602	0.0002525
2614	0.0002425
2626	0.0002675
2638	0.000305
2650	0.0004075
2662	0.0004975
2674	0.0005
2686	0.0004075
2698	0.0004025
2710	0.0003925
2722	0.0004475
2734	0.0004225
2746	0.0004325
2758	0.000415
2770	0.000475
2782	0.00056
2794	0.0006225
2806	0.0006675
2818	0.0008175
2830	0.0011775
2842	0.002535
2854	0.0059125
2866	0.009655
2878	0.01052
2890	0.008905
2902	0.008345
2914	0.01154
2926	0.0194225
2938	0.025
2950	0.0180025
2962	0.0093725
2974	0.0051775
2986	0.0024325
2998	0.00095
3010	0.0004975
3022	0.000355
3034	0.000305
3046	0.000325
3058	0.000365
3070	0.000335
3082	0.0003075
3094	0.000255
3106	0.000255
3118	0.0002325
3130	0.000225
3142	0.00015
3154	0.00017
3166	0.000155
3178	0.0002075
3190	0.00012
3202	8e-05
3214	5.75e-05
3226	7.75e-05
3238	6.75e-05
3250	0.0001
3262	0.00011
3274	0.0001325
3286	0.0001075
3298	8.75e-05
3310	0.0001075
3322	8.25e-05
3334	0.0001375
3346	9.25e-05
3358	9.5e-05
3370	7.5e-05
3382	6.25e-05
3394	4e-05
3406	8.75e-05
3418	0.0001275
3430	0.00014
3442	9.5e-05
3454	0.000165
3466	0.00018
3478	0.000225
3490	0.000135
3502	0.00016
3514	0.000135
3526	0.000115
3538	0.0001525
3550	8.75e-05
3562	0.000115
3574	7.5e-05
3586	0.0001175
3598	0.0001475
3610	0.00015
3622	0.0002775
3634	0.00044
3646	0.000985
3658	0.0012725
3670	0.00093
3682	0.0003325
3694	0.00017
3706	0.00013
3718	0.00011
3730	0.000145
3742	7.5e-05
3754	0.000165
3766	0.0001125
3778	0.0001125
3790	0.000155
3802	0.0001675
3814	0.0001475
3826	0.00016
3838	0.00024
