Infrared Spectrum: Ethyl 4-(trifluoromethyl)benzoate
Formula: C 10 H 9 F 3 O 2
CAS: 583-02-8
State: gas
Origin: EPA-IR VAPOR PHASE LIBRARY
1/CM	ABSORBANCE
549.8	0.0005487
559.445	0.002913
569.09	0.002133
578.734	0.003763
588.379	0.004813
598.024	0.007693
607.669	0.006323
617.313	0.003423
626.958	0.001953
636.603	0.001893
646.248	0.001943
655.893	0.001913
665.537	0.002593
675.182	0.004383
684.827	0.016883
694.472	0.023893
704.116	0.032893
713.761	0.026233
723.406	0.012783
733.051	0.006503
742.695	0.005613
752.34	0.008863
761.985	0.025633
771.63	0.043203
781.275	0.036193
790.919	0.018843
800.564	0.010143
810.209	0.008753
819.854	0.008433
829.498	0.010043
839.143	0.014413
848.788	0.032103
858.433	0.051613
868.078	0.041123
877.722	0.018463
887.367	0.007483
897.012	0.007133
906.657	0.006073
916.301	0.004583
925.946	0.004093
935.591	0.003073
945.236	0.003243
954.88	0.005063
964.525	0.004873
974.17	0.006363
983.815	0.007823
993.46	0.011773
1003.1	0.021033
1012.75	0.082413
1022.39	0.161483
1032.04	0.037513
1041.68	0.019773
1051.33	0.024043
1060.97	0.084783
1070.62	0.178663
1080.26	0.096013
1089.91	0.166023
1099.55	0.329813
1109.2	0.367473
1118.84	0.220143
1128.49	0.147313
1138.13	0.206283
1147.78	0.351263
1157.42	0.362313
1167.07	0.296133
1176.71	0.310503
1186.36	0.201953
1196	0.080243
1205.64	0.040623
1215.29	0.039353
1224.93	0.061293
1234.58	0.117333
1244.22	0.106973
1253.87	0.177963
1263.51	0.454823
1273.16	0.578283
1282.8	0.248423
1292.45	0.128853
1302.09	0.137233
1311.74	0.218813
1321.38	0.513083
1331.03	0.356453
1340.67	0.065033
1350.32	0.036263
1359.96	0.032243
1369.61	0.047313
1379.25	0.031113
1388.9	0.023863
1398.54	0.035633
1408.18	0.058133
1417.83	0.045343
1427.47	0.021953
1437.12	0.015343
1446.76	0.016313
1456.41	0.018263
1466.05	0.019723
1475.7	0.019323
1485.34	0.013143
1494.99	0.010393
1504.63	0.013743
1514.28	0.021873
1523.92	0.015433
1533.57	0.008693
1543.21	0.007523
1552.86	0.007903
1562.5	0.009273
1572.15	0.010813
1581.79	0.013283
1591.44	0.009353
1601.08	0.004683
1610.73	0.004553
1620.37	0.005093
1630.01	0.005153
1639.66	0.005023
1649.3	0.005153
1658.95	0.005713
1668.59	0.007563
1678.24	0.009643
1687.88	0.012433
1697.53	0.017093
1707.17	0.021793
1716.82	0.036113
1726.46	0.085723
1736.11	0.203273
1745.75	0.287643
1755.4	0.162663
1765.04	0.049493
1774.69	0.017273
1784.33	0.012303
1793.98	0.012203
1803.62	0.012673
1813.27	0.012243
1822.91	0.007523
1832.55	0.004653
1842.2	0.003493
1851.84	0.002803
1861.49	0.002863
1871.13	0.003093
1880.78	0.003153
1890.42	0.003063
1900.07	0.003043
1909.71	0.003513
1919.36	0.004893
1929	0.006223
1938.65	0.006723
1948.29	0.005593
1957.94	0.004363
1967.58	0.003853
1977.23	0.003203
1986.87	0.002793
1996.52	0.002213
2006.16	0.001903
2015.81	0.0015412
2025.45	0.001883
2035.1	0.001803
2044.74	0.0015607
2054.38	0.001903
2064.03	0.001873
2073.67	0.002233
2083.32	0.002903
2092.96	0.003533
2102.61	0.003233
2112.25	0.002853
2121.9	0.002873
2131.54	0.002543
2141.19	0.002003
2150.83	0.001833
2160.48	0.0014408
2170.12	0.0013561
2179.77	0.001623
2189.41	0.001933
2199.06	0.002133
2208.7	0.002303
2218.35	0.002423
2227.99	0.002303
2237.64	0.002303
2247.28	0.002403
2256.92	0.002203
2266.57	0.002873
2276.21	0.003333
2285.86	0.003423
2295.5	0.003063
2305.15	0.002683
2314.79	0.002333
2324.44	0.002423
2334.08	0.002383
2343.73	0.002693
2353.37	0.002843
2363.02	0.002863
2372.66	0.002923
2382.31	0.002853
2391.95	0.002793
2401.6	0.002163
2411.24	0.002003
2420.89	0.002053
2430.53	0.001993
2440.18	0.001753
2449.82	0.001623
2459.47	0.0013821
2469.11	0.002003
2478.75	0.001933
2488.4	0.001593
2498.04	0.001813
2507.69	0.001447
2517.33	0.001683
2526.98	0.0013334
2536.62	0.0013757
2546.27	0.0014373
2555.91	0.0012541
2565.56	0.001393
2575.2	0.001562
2584.85	0.0015154
2594.49	0.0015054
2604.14	0.001613
2613.78	0.001873
2623.43	0.001733
2633.07	0.002163
2642.72	0.002173
2652.36	0.001753
2662.01	0.0010986
2671.65	0.0014728
2681.29	0.0010261
2690.94	0.0010492
2700.58	0.0008733
2710.23	0.001216
2719.87	0.0014928
2729.52	0.001573
2739.16	0.0014327
2748.81	0.001813
2758.45	0.001873
2768.1	0.001683
2777.74	0.002173
2787.39	0.002313
2797.03	0.002293
2806.68	0.002243
2816.32	0.002973
2825.97	0.003383
2835.61	0.003753
2845.26	0.003863
2854.9	0.004163
2864.55	0.005123
2874.19	0.006813
2883.84	0.010473
2893.48	0.010633
2903.12	0.011263
2912.77	0.014313
2922.41	0.014373
2932.06	0.016863
2941.7	0.026143
2951.35	0.025573
2960.99	0.021883
2970.64	0.028703
2980.28	0.045783
2989.93	0.056243
2999.57	0.033233
3009.22	0.022583
3018.86	0.013773
3028.51	0.008833
3038.15	0.006063
3047.8	0.004833
3057.44	0.004743
3067.09	0.004453
3076.73	0.005543
3086.38	0.005423
3096.02	0.005183
3105.67	0.004533
3115.31	0.004033
3124.95	0.002713
3134.6	0.002903
3144.24	0.002353
3153.89	0.002163
3163.53	0.001683
3173.18	0.001803
3182.82	0.001753
3192.47	0.001623
3202.11	0.0014307
3211.76	0.0010017
3221.4	0.0012062
3231.05	0.0012171
3240.69	0.0015101
3250.34	0.0010301
3259.98	0.0011452
3269.63	0.0009801
3279.27	0.0011312
3288.92	0.0008605
3298.56	0.0012321
3308.21	0.0008711
3317.85	0.0008853
3327.49	0.0010329
3337.14	0.0010918
3346.78	0.001006
3356.43	0.0014952
3366.07	0.000981
3375.72	0.0007871
3385.36	0.00059674
3395.01	0.0011081
3404.65	0.0010095
3414.3	0.0009533
3423.94	0.0010261
3433.59	0.000798
3443.23	0.001613
3452.88	0.002363
3462.52	0.003433
3472.17	0.003103
3481.81	0.002473
3491.46	0.001913
3501.1	0.0005122
3510.75	0.0011317
3520.39	0.0011659
3530.04	0.000562803
3539.68	0.000329
3549.32	0.0007103
3558.97	0.000854
3568.61	0
3578.26	0.00058395
3587.9	0.0007337
3597.55	0.0007558
3607.19	0.0005009
3616.84	6.8e-05
3626.48	0.00062809
3636.13	0.0008305
3645.77	0.000405
3655.42	0.0009784
3665.06	0.0013784
3674.71	0.0005917
3684.35	0.00015
3694	0.0014371
3703.64	0.0008632
3713.29	0.0010166
3722.93	0.0009309
3732.58	0.0007195
3742.22	0.0010423
3751.86	0.0008644
3761.51	0.00061343
3771.15	0.0013594
3780.8	0.0010633
3790.44	0.0009524
3800.09	0.0008676
3809.73	0.001153
3819.38	0.0007526
3829.02	0.000852
3838.67	0.0009704
3848.31	0.00057503
3857.96	0.000349
3867.6	0.0012885
3877.25	0.000535
3886.89	0.000319
3896.54	0.000404
3906.18	0.000513
3915.83	0.0006901
3925.47	0.0012727
3935.12	0.0012462
3944.76	0.0011537
3954.41	0.0012424
3964.05	0.0006696
3973.69	0.00061917
3983.34	0.0006993
3992.98	0.0014896
