Infrared Spectrum: 3-Benzoylacrylic acid
Formula: C 10 H 8 O 3
CAS: 583-06-2
State: gas
Origin: EPA-IR VAPOR PHASE LIBRARY
1/CM	ABSORBANCE
549.8	0.013375
559.445	0.012895
569.09	0.013075
578.734	0.012725
588.379	0.018805
598.024	0.017485
607.669	0.013425
617.313	0.010445
626.958	0.005455
636.603	0.003725
646.248	0.002795
655.893	0.003035
665.537	0.003855
675.182	0.005625
684.827	0.008485
694.472	0.009195
704.116	0.008075
713.761	0.009095
723.406	0.013995
733.051	0.014615
742.695	0.009565
752.34	0.006175
761.985	0.004455
771.63	0.002965
781.275	0.002455
790.919	0.002675
800.564	0.002835
810.209	0.003185
819.854	0.002465
829.498	0.001805
839.143	0.001435
848.788	0.001455
858.433	0.001545
868.078	0.001605
877.722	0.001825
887.367	0.002305
897.012	0.003015
906.657	0.003005
916.301	0.002695
925.946	0.002575
935.591	0.002855
945.236	0.003755
954.88	0.004115
964.525	0.006505
974.17	0.009135
983.815	0.009155
993.46	0.009035
1003.1	0.013585
1012.75	0.014635
1022.39	0.007155
1032.04	0.004325
1041.68	0.003285
1051.33	0.003905
1060.97	0.004725
1070.62	0.005545
1080.26	0.005155
1089.91	0.007325
1099.55	0.012315
1109.2	0.023565
1118.84	0.050125
1128.49	0.051155
1138.13	0.025715
1147.78	0.022845
1157.42	0.022845
1167.07	0.019485
1176.71	0.017895
1186.36	0.014985
1196	0.011395
1205.64	0.012995
1215.29	0.010485
1224.93	0.011515
1234.58	0.014745
1244.22	0.017555
1253.87	0.022815
1263.51	0.031625
1273.16	0.034845
1282.8	0.026005
1292.45	0.023205
1302.09	0.019715
1311.74	0.018925
1321.38	0.021675
1331.03	0.019045
1340.67	0.020025
1350.32	0.021895
1359.96	0.020475
1369.61	0.015345
1379.25	0.009425
1388.9	0.005095
1398.54	0.003205
1408.18	0.002335
1417.83	0.001965
1427.47	0.001935
1437.12	0.002825
1446.76	0.006485
1456.41	0.004555
1466.05	0.001575
1475.7	0.0012231
1485.34	0.0012977
1494.99	0.001375
1504.63	0.0012306
1514.28	0.0011918
1523.92	0.0012778
1533.57	0.001316
1543.21	0.0012728
1552.86	0.001395
1562.5	0.001925
1572.15	0.002985
1581.79	0.004115
1591.44	0.005295
1601.08	0.006055
1610.73	0.004505
1620.37	0.005115
1630.01	0.006225
1639.66	0.005605
1649.3	0.005405
1658.95	0.007175
1668.59	0.014045
1678.24	0.027005
1687.88	0.034695
1697.53	0.024085
1707.17	0.010985
1716.82	0.008145
1726.46	0.009735
1736.11	0.014355
1745.75	0.024545
1755.4	0.047605
1765.04	0.061875
1774.69	0.033345
1784.33	0.017815
1793.98	0.012005
1803.62	0.007725
1813.27	0.005455
1822.91	0.003675
1832.55	0.002375
1842.2	0.001755
1851.84	0.001485
1861.49	0.0013462
1871.13	0.00117
1880.78	0.0011747
1890.42	0.0012685
1900.07	0.0013369
1909.71	0.0011865
1919.36	0.0009847
1929	0.0008663
1938.65	0.000941
1948.29	0.0011292
1957.94	0.0011945
1967.58	0.0011792
1977.23	0.0009523
1986.87	0.000751
1996.52	0.0006293
2006.16	0.0006682
2015.81	0.0006165
2025.45	0.0006513
2035.1	0.0006289
2044.74	0.0005383
2054.38	0.0005987
2064.03	0.0005662
2073.67	0.0004993
2083.32	0.0005232
2092.96	0.0004564
2102.61	0.0003746
2112.25	0.0004381
2121.9	0.00039367
2131.54	0.0003202
2141.19	0.00042552
2150.83	0.0003842
2160.48	0.00045072
2170.12	0.00040651
2179.77	0.00038548
2189.41	0.0005113
2199.06	0.00040225
2208.7	0.0004761
2218.35	0.0005964
2227.99	0.0005224
2237.64	0.000565
2247.28	0.0005747
2256.92	0.0005919
2266.57	0.0005199
2276.21	0.0005954
2285.86	0.0005795
2295.5	0.000537
2305.15	0.0005991
2314.79	0.0008185
2324.44	0.000925
2334.08	0.0008072
2343.73	0.0007342
2353.37	0.0007748
2363.02	0.000823
2372.66	0.0006897
2382.31	0.0005355
2391.95	0.000432
2401.6	0.0005247
2411.24	0.0004761
2420.89	0.000556
2430.53	0.00044633
2440.18	0.0004968
2449.82	0.0006456
2459.47	0.0004654
2469.11	0.0005273
2478.75	0.000604
2488.4	0.0004926
2498.04	0.0005459
2507.69	0.0004755
2517.33	0.00044976
2526.98	0.00042284
2536.62	0.00037603
2546.27	0.0004944
2555.91	0.00034934
2565.56	0.00041135
2575.2	0.00045331
2584.85	0.00044584
2594.49	0.0005624
2604.14	0.00035123
2613.78	0.00034604
2623.43	0.0004672
2633.07	0.000478
2642.72	0.00042683
2652.36	0.00034917
2662.01	0.00040574
2671.65	0.0003205
2681.29	0.00039292
2690.94	0.00043139
2700.58	0.0005264
2710.23	0.00040596
2719.87	0.000356189
2729.52	0.0003187
2739.16	0.00035519
2748.81	0.0004965
2758.45	0.0003337
2768.1	0.00042568
2777.74	0.0004813
2787.39	0.00037952
2797.03	0.00039471
2806.68	0.0005382
2816.32	0.00039693
2825.97	0.0002742
2835.61	0.0005615
2845.26	0.00043503
2854.9	0.0005659
2864.55	0.0005518
2874.19	0.0005119
2883.84	0.0005568
2893.48	0.0004775
2903.12	0.0005634
2912.77	0.00040889
2922.41	0.00046
2932.06	0.0003275
2941.7	0.00041347
2951.35	0.000517
2960.99	0.0004818
2970.64	0.00037247
2980.28	0.0005408
2989.93	0.0006016
2999.57	0.0006938
3009.22	0.0008289
3018.86	0.0013145
3028.51	0.002265
3038.15	0.003325
3047.8	0.003115
3057.44	0.003435
3067.09	0.005665
3076.73	0.006705
3086.38	0.004925
3096.02	0.003645
3105.67	0.002515
3115.31	0.0013315
3124.95	0.0007713
3134.6	0.0007031
3144.24	0.00065
3153.89	0.0007309
3163.53	0.0007297
3173.18	0.0004925
3182.82	0.00044119
3192.47	0.00041149
3202.11	0.0003938
3211.76	0.0002717
3221.4	0.0003058
3231.05	0.0002683
3240.69	0.0002986
3250.34	0.000223
3259.98	0.000184
3269.63	0.000218
3279.27	0.00035155
3288.92	0.0003131
3298.56	0.00043104
3308.21	0.00039234
3317.85	0.0005998
3327.49	0.0006936
3337.14	0.000689
3346.78	0.0006063
3356.43	0.0006637
3366.07	0.0006608
3375.72	0.0006143
3385.36	0.000477
3395.01	0.0005078
3404.65	0.00042692
3414.3	0.000192
3423.94	0.00039464
3433.59	0.00040284
3443.23	0.00044024
3452.88	0.00034573
3462.52	0.00044813
3472.17	0.00041284
3481.81	0.0006182
3491.46	0.0007623
3501.1	0.0008936
3510.75	0.0010109
3520.39	0.0008787
3530.04	0.0007704
3539.68	0.0006744
3549.32	0.0011257
3558.97	0.002115
3568.61	0.009275
3578.26	0.032265
3587.9	0.017665
3597.55	0.003005
3607.19	0.0013109
3616.84	0.0009569
3626.48	0.0007184
3636.13	0.0004886
3645.77	0.0004826
3655.42	0.00043224
3665.06	0.00038649
3674.71	0.0004604
3684.35	0.00040515
3694	0.000219
3703.64	0.0004574
3713.29	0.0002923
3722.93	0.00039931
3732.58	0.0005233
3742.22	0.00042938
3751.86	0.0004934
3761.51	0.000232
3771.15	0.000356677
3780.8	0.0002877
3790.44	0.000123
3800.09	0.0003365
3809.73	0.00037615
3819.38	0.00035097
3829.02	0.000364261
3838.67	0.00042372
3848.31	0.000162
3857.96	0.000258
3867.6	0.000499
3877.25	0.00043888
3886.89	9e-06
3896.54	6.6e-05
3906.18	0.000177
3915.83	8.6e-05
3925.47	0.000174
3935.12	6.6e-05
3944.76	0.000145
3954.41	0.0002651
3964.05	0.000188
3973.69	0.000155
3983.34	0.000363238
3992.98	0.000242
