Infrared Spectrum: 1-Phenyl-1,4-pentanedione
Formula: C 11 H 12 O 2
CAS: 583-05-1
State: gas
Origin: EPA-IR VAPOR PHASE LIBRARY
1/CM	ABSORBANCE
549.8	0.009327
559.445	0.009927
569.09	0.008297
578.734	0.006567
588.379	0.005057
598.024	0.004117
607.669	0.004267
617.313	0.004077
626.958	0.003557
636.603	0.003287
646.248	0.005397
655.893	0.009307
665.537	0.008947
675.182	0.013367
684.827	0.024647
694.472	0.026547
704.116	0.017327
713.761	0.012127
723.406	0.015167
733.051	0.023697
742.695	0.023117
752.34	0.014827
761.985	0.011027
771.63	0.008637
781.275	0.005077
790.919	0.003647
800.564	0.002297
810.209	0.002047
819.854	0.0006774
829.498	0.002237
839.143	0.002257
848.788	0.003147
858.433	0.002307
868.078	0.002447
877.722	0.002917
887.367	0.003317
897.012	0.003467
906.657	0.004827
916.301	0.005477
925.946	0.005717
935.591	0.008347
945.236	0.011597
954.88	0.016147
964.525	0.016507
974.17	0.016867
983.815	0.022907
993.46	0.029027
1003.1	0.023677
1012.75	0.012187
1022.39	0.009227
1032.04	0.006137
1041.68	0.004747
1051.33	0.006447
1060.97	0.008087
1070.62	0.007187
1080.26	0.006857
1089.91	0.004767
1099.55	0.004317
1109.2	0.005217
1118.84	0.007337
1128.49	0.010027
1138.13	0.015237
1147.78	0.028857
1157.42	0.047677
1167.07	0.040717
1176.71	0.037347
1186.36	0.033517
1196	0.031737
1205.64	0.043447
1215.29	0.041657
1224.93	0.039187
1234.58	0.041137
1244.22	0.039707
1253.87	0.031517
1263.51	0.030477
1273.16	0.032247
1282.8	0.032917
1292.45	0.029567
1302.09	0.025627
1311.74	0.025977
1321.38	0.027847
1331.03	0.028287
1340.67	0.033367
1350.32	0.045637
1359.96	0.053387
1369.61	0.036247
1379.25	0.021907
1388.9	0.016867
1398.54	0.017047
1408.18	0.020457
1417.83	0.020887
1427.47	0.018417
1437.12	0.017387
1446.76	0.023487
1456.41	0.016117
1466.05	0.007927
1475.7	0.005377
1485.34	0.004477
1494.99	0.004647
1504.63	0.004407
1514.28	0.004637
1523.92	0.004567
1533.57	0.004247
1543.21	0.004267
1552.86	0.004557
1562.5	0.005307
1572.15	0.007577
1581.79	0.010257
1591.44	0.011227
1601.08	0.011667
1610.73	0.007677
1620.37	0.005577
1630.01	0.004827
1639.66	0.005197
1649.3	0.007017
1658.95	0.009867
1668.59	0.014377
1678.24	0.024867
1687.88	0.056797
1697.53	0.115787
1707.17	0.118127
1716.82	0.069137
1726.46	0.068547
1736.11	0.074257
1745.75	0.047057
1755.4	0.024147
1765.04	0.015197
1774.69	0.009717
1784.33	0.006027
1793.98	0.004867
1803.62	0.005007
1813.27	0.004237
1822.91	0.003017
1832.55	0.002337
1842.2	0.002257
1851.84	0.002097
1861.49	0.002197
1871.13	0.002247
1880.78	0.002617
1890.42	0.002747
1900.07	0.003067
1909.71	0.002497
1919.36	0.002087
1929	0.002177
1938.65	0.002417
1948.29	0.002737
1957.94	0.003157
1967.58	0.002997
1977.23	0.001997
1986.87	0.0014155
1996.52	0.0013303
2006.16	0.0012311
2015.81	0.0012973
2025.45	0.0012419
2035.1	0.0012145
2044.74	0.0012216
2054.38	0.0012628
2064.03	0.0012265
2073.67	0.0012998
2083.32	0.0013951
2092.96	0.0014214
2102.61	0.001345
2112.25	0.0012948
2121.9	0.0011247
2131.54	0.0012437
2141.19	0.0011555
2150.83	0.0010336
2160.48	0.0011997
2170.12	0.0009582
2179.77	0.0008995
2189.41	0.0011273
2199.06	0.001134
2208.7	0.0010084
2218.35	0.001067
2227.99	0.0011395
2237.64	0.0012493
2247.28	0.0010131
2256.92	0.0009937
2266.57	0.0010388
2276.21	0.001252
2285.86	0.0011486
2295.5	0.0012824
2305.15	0.001467
2314.79	0.001727
2324.44	0.0016106
2334.08	0.0015209
2343.73	0.0014573
2353.37	0.0013869
2363.02	0.0009889
2372.66	0.0012993
2382.31	0.0010047
2391.95	0.001225
2401.6	0.0015181
2411.24	0.0013509
2420.89	0.0013392
2430.53	0.0013405
2440.18	0.0010555
2449.82	0.0013076
2459.47	0.0010755
2469.11	0.0009787
2478.75	0.0011192
2488.4	0.001221
2498.04	0.0009325
2507.69	0.001039
2517.33	0.0011029
2526.98	0.00073746
2536.62	0.00081178
2546.27	0.00075544
2555.91	0.0009209
2565.56	0.0010059
2575.2	0.0009905
2584.85	0.001404
2594.49	0.0009127
2604.14	0.0012174
2613.78	0.0009406
2623.43	0.000511
2633.07	0.0011847
2642.72	0.0009827
2652.36	0.00079066
2662.01	0.0010215
2671.65	0.00075333
2681.29	0.0006592
2690.94	0.0012036
2700.58	0.0011896
2710.23	0.0012025
2719.87	0.0011469
2729.52	0.00075117
2739.16	0.0012964
2748.81	0.0009802
2758.45	0.0010492
2768.1	0.0015241
2777.74	0.0014187
2787.39	0.0014567
2797.03	0.0015807
2806.68	0.001777
2816.32	0.002317
2825.97	0.002527
2835.61	0.002317
2845.26	0.002767
2854.9	0.002947
2864.55	0.003127
2874.19	0.003777
2883.84	0.004567
2893.48	0.006977
2903.12	0.012427
2912.77	0.021087
2922.41	0.021167
2932.06	0.018037
2941.7	0.012957
2951.35	0.010377
2960.99	0.008797
2970.64	0.008177
2980.28	0.007657
2989.93	0.007007
2999.57	0.007357
3009.22	0.008127
3018.86	0.008747
3028.51	0.009207
3038.15	0.011017
3047.8	0.011167
3057.44	0.012837
3067.09	0.020397
3076.73	0.021637
3086.38	0.014467
3096.02	0.012227
3105.67	0.007637
3115.31	0.004267
3124.95	0.002207
3134.6	0.001867
3144.24	0.001757
3153.89	0.0013865
3163.53	0.0014627
3173.18	0.0016013
3182.82	0.0009821
3192.47	0.0013362
3202.11	0.0014763
3211.76	0.0008336
3221.4	0.0012295
3231.05	0.0013841
3240.69	0.0008432
3250.34	0.000475
3259.98	0.0007044
3269.63	0.000615
3279.27	0.000734616
3288.92	0.0010885
3298.56	0.0011931
3308.21	0.0008777
3317.85	0.00077634
3327.49	0.0013111
3337.14	0.0011342
3346.78	0.0016056
3356.43	0.001727
3366.07	0.001917
3375.72	0.002097
3385.36	0.002817
3395.01	0.002057
3404.65	0.0014351
3414.3	0.0016518
3423.94	0.002107
3433.59	0.002047
3443.23	0.002287
3452.88	0.001827
3462.52	0.001757
3472.17	0.001747
3481.81	0.0011286
3491.46	0.0014566
3501.1	0.0016701
3510.75	0.001167
3520.39	0.001837
3530.04	0.0013099
3539.68	0.0011641
3549.32	0.000601
3558.97	0.000333
3568.61	0.00046
3578.26	0.0006759
3587.9	0.0010031
3597.55	0.0012669
3607.19	0.001043
3616.84	0.000458
3626.48	0.000548
3636.13	0.000514
3645.77	0.0009329
3655.42	0.0011135
3665.06	0.0012749
3674.71	0.0014093
3684.35	0.0008327
3694	0.00074567
3703.64	0.0009955
3713.29	0.0008401
3722.93	0.0011374
3732.58	0.0011819
3742.22	0.0008683
3751.86	0.000727523
3761.51	0.0007099
3771.15	0.0010597
3780.8	0.0013701
3790.44	0.0009543
3800.09	0.0008998
3809.73	0.000537
3819.38	0.000584
3829.02	0.000606
3838.67	0.000511
3848.31	0.00106
3857.96	0.000464
3867.6	0.0012357
3877.25	0.0006312
3886.89	0.00128
3896.54	0.0012791
3906.18	0.00075544
3915.83	0.00078071
3925.47	0.0011492
3935.12	0.0009227
3944.76	0.0013778
3954.41	0.000582
3964.05	0.0012126
3973.69	0.0012056
3983.34	0.000618
3992.98	0.0017199
