Infrared Spectrum: 3,4-Dimethylhexane
Formula: C 8 H 18
CAS: 583-48-2
State: gas
Instrument: HP-GC/MS/IRD
Origin: NIST Mass Spectrometry Data Center
1/CM	ABSORBANCE
550	0.0004876
562	0.000265
574	0.0001855
586	0.0002809
598	0.0002226
610	0.0002014
622	0.0001378
634	3.71e-05
646	3.71e-05
658	7.42e-05
670	0
682	0
694	9.01e-05
706	5.83e-05
718	0.000106
730	7.42e-05
742	0.0002014
754	0.0004028
766	0.0006307
778	0.0006413
790	0.0006625
802	0.0007102
814	0.0005883
826	0.0005035
838	0.0004611
850	0.0004929
862	0.0006254
874	0.0006254
886	0.000477
898	0.0005247
910	0.0006148
922	0.0005565
934	0.0003021
946	0.0001537
958	0.0001325
970	0.000159
982	0.0001325
994	0.0003127
1006	0.0005724
1018	0.0006413
1030	0.0005565
1042	0.0006148
1054	0.0005936
1066	0.0004717
1078	0.0002915
1090	0.0001802
1102	0.0002173
1114	0.0003392
1126	0.0004187
1138	0.0003498
1150	0.0002756
1162	0.0002279
1174	0.0001802
1186	0.0001272
1198	0.0001325
1210	0.0001696
1222	0.0002226
1234	0.000318
1246	0.0004876
1258	0.0006254
1270	0.0007791
1282	0.0008745
1294	0.0009487
1306	0.0011183
1318	0.0010812
1330	0.000795
1342	0.0007685
1354	0.0009222
1366	0.0016059
1378	0.0036729
1390	0.0037842
1402	0.0014946
1414	0.0009487
1426	0.0010547
1438	0.0016907
1450	0.0038637
1462	0.0070384
1474	0.0061109
1486	0.0028196
1498	0.001272
1510	0.0008321
1522	0.0006095
1534	0.0005088
1546	0.0004293
1558	0.0003975
1570	0.0003127
1582	0.0003021
1594	0.0002915
1606	0.0002703
1618	0.0002756
1630	0.0002756
1642	0.0002544
1654	0.0002438
1666	0.0001961
1678	0.0001537
1690	0.0001325
1702	0.0001113
1714	9.01e-05
1726	7.95e-05
1738	0.0001007
1750	6.36e-05
1762	6.36e-05
1774	4.77e-05
1786	5.3e-05
1798	3.18e-05
1810	5.3e-05
1822	4.24e-05
1834	4.24e-05
1846	4.24e-05
1858	4.24e-05
1870	5.3e-06
1882	5.3e-06
1894	1.59e-05
1906	2.65e-05
1918	1.59e-05
1930	1.59e-05
1942	1.59e-05
1954	1.59e-05
1966	1.06e-05
1978	0
1990	0
2002	2.12e-05
2014	3.18e-05
2026	2.12e-05
2038	2.65e-05
2050	3.71e-05
2062	1.59e-05
2074	2.12e-05
2086	3.71e-05
2098	3.71e-05
2110	2.12e-05
2122	1.59e-05
2134	2.12e-05
2146	3.18e-05
2158	3.18e-05
2170	3.18e-05
2182	2.12e-05
2194	2.65e-05
2206	0
2218	2.65e-05
2230	3.18e-05
2242	2.12e-05
2254	3.18e-05
2266	4.24e-05
2278	3.18e-05
2290	7.95e-05
2302	8.48e-05
2314	7.42e-05
2326	7.95e-05
2338	0.000106
2350	0.0001272
2362	0.0001537
2374	0.0001378
2386	0.0001749
2398	0.0002067
2410	0.0001696
2422	0.0001272
2434	0.0001113
2446	8.48e-05
2458	9.01e-05
2470	0.0001219
2482	0.0001219
2494	0.0001166
2506	0.0001219
2518	0.0001219
2530	0.0001537
2542	0.0001696
2554	0.0002173
2566	0.0002968
2578	0.0003763
2590	0.0004611
2602	0.0004929
2614	0.0005088
2626	0.0004929
2638	0.0004929
2650	0.0004717
2662	0.0004982
2674	0.0005512
2686	0.0005989
2698	0.0006413
2710	0.0007155
2722	0.0008798
2734	0.0010812
2746	0.001219
2758	0.0011024
2770	0.0011554
2782	0.0013568
2794	0.0015688
2806	0.0018709
2818	0.0022578
2830	0.0028832
2842	0.0041075
2854	0.0070967
2866	0.0143683
2878	0.0255513
2890	0.0262721
2902	0.01908
2914	0.0219208
2926	0.0318636
2938	0.0382978
2950	0.0362573
2962	0.0488607
2974	0.046746
2986	0.0204792
2998	0.0087291
3010	0.0051145
3022	0.003604
3034	0.0027878
3046	0.0023055
3058	0.0019292
3070	0.0016695
3082	0.0014628
3094	0.0013038
3106	0.0011554
3118	0.0010653
3130	0.0009646
3142	0.0008639
3154	0.0007632
3166	0.0006625
3178	0.0005141
3190	0.000424
3202	0.0003392
3214	0.000265
3226	0.000212
3238	0.0002067
3250	0.0001643
3262	0.0001537
3274	9.01e-05
3286	6.89e-05
3298	0.0001113
3310	9.01e-05
3322	4.24e-05
3334	6.89e-05
3346	6.89e-05
3358	6.89e-05
3370	5.83e-05
3382	5.3e-05
3394	5.3e-05
3406	3.18e-05
3418	9.54e-05
3430	3.71e-05
3442	4.24e-05
3454	3.71e-05
3466	4.24e-05
3478	5.3e-05
3490	4.24e-05
3502	4.24e-05
3514	0
3526	1.59e-05
3538	3.71e-05
3550	6.89e-05
3562	5.83e-05
3574	3.71e-05
3586	2.65e-05
3598	2.65e-05
3610	3.71e-05
3622	5.83e-05
3634	7.95e-05
3646	7.95e-05
3658	8.48e-05
3670	0.0001007
3682	0.000106
3694	0.0001166
3706	0.0001272
3718	0.000106
3730	0.000106
3742	8.48e-05
3754	0.0001007
3766	9.01e-05
3778	9.54e-05
3790	8.48e-05
3802	0.000106
3814	9.01e-05
3826	7.95e-05
3838	0.000106
