Infrared Spectrum: 2,3-DIMETHYLPYRIDINE
Formula: C7 H9 N
CAS: 583-61-9
State: SOLUTION (10% CCl4 FOR 5000-1330, 10% CS2 FOR 1330-625 CM^-^1)
Class: COBLENTZ
Instrument: Not specified, most likely a prism, grating, or hybrid spectrometer.
Sampling: TRANSMISSION
Path length: 0.0119 CM, 0.0115 CM
Resolution: 4
Origin: DOW CHEMICAL COMPANY
MICROMETERS	TRANSMITTANCE
2.034	0.85
2.07518	0.85
2.11635	0.85
2.15753	0.847
2.19871	0.842
2.23989	0.837
2.28106	0.828
2.32224	0.831
2.36342	0.842
2.4046	0.85
2.44577	0.854
2.48695	0.866
2.52813	0.862
2.56931	0.857
2.61048	0.873
2.65166	0.876
2.69284	0.871
2.73401	0.857
2.77519	0.862
2.81637	0.862
2.85755	0.854
2.89872	0.828
2.9399	0.816
2.98108	0.813
3.02226	0.818
3.06343	0.83
3.10461	0.835
3.14579	0.819
3.18697	0.826
3.22814	0.802
3.26932	0.638
3.3105	0.543
3.35167	0.543
3.39285	0.466
3.43403	0.499
3.47521	0.639
3.51638	0.713
3.55756	0.845
3.59874	0.866
3.63992	0.879
3.68109	0.867
3.72227	0.891
3.76345	0.89
3.80463	0.891
3.8458	0.888
3.88698	0.893
3.92816	0.891
3.96933	0.89
4.01051	0.89
4.05169	0.888
4.09287	0.891
4.13404	0.891
4.17522	0.888
4.2164	0.878
4.25758	0.881
4.29875	0.886
4.33993	0.888
4.38111	0.886
4.42229	0.893
4.46346	0.893
4.50464	0.893
4.54582	0.895
4.58699	0.898
4.62817	0.902
4.66935	0.891
4.71053	0.907
4.7517	0.907
4.79288	0.905
4.83406	0.907
4.87524	0.909
4.91641	0.909
4.95759	0.909
4.99877	0.907
5.03995	0.903
5.08112	0.9
5.1223	0.883
5.16348	0.878
5.20466	0.866
5.24583	0.891
5.28701	0.852
5.32819	0.897
5.36936	0.871
5.41054	0.893
5.45172	0.903
5.4929	0.9
5.53407	0.903
5.57525	0.907
5.61643	0.907
5.65761	0.903
5.69878	0.895
5.73996	0.879
5.78114	0.883
5.82232	0.873
5.86349	0.866
5.90467	0.876
5.94585	0.886
5.98702	0.89
6.0282	0.867
6.06938	0.861
6.11056	0.849
6.15173	0.821
6.19291	0.728
6.23409	0.536
6.27527	0.361
6.31644	0.228
6.35762	0.271
6.3988	0.365
6.43998	0.397
6.48115	0.427
6.52233	0.514
6.56351	0.564
6.60468	0.617
6.64586	0.656
6.68704	0.677
6.72822	0.629
6.76939	0.485
6.81057	0.176
6.85175	0.169
6.89293	0.121
6.9341	0.13
6.97528	0.137
7.01646	0.305
7.05764	0.665
7.09881	0.744
7.13999	0.765
7.18117	0.766
7.22234	0.677
7.26352	0.71
7.3047	0.71
7.34588	0.849
7.38705	0.862
7.42823	0.873
7.46941	0.883
7.51059	0.883
7.55176	0.869
7.59294	0.866
7.63412	0.886
7.6753	0.885
7.71647	0.873
7.75765	0.869
7.79883	0.818
7.84	0.782
7.88118	0.843
7.92236	0.879
7.96354	0.878
8.00471	0.828
8.04589	0.751
8.08707	0.77
8.12825	0.867
8.16942	0.881
8.2106	0.885
8.25178	0.886
8.29296	0.893
8.33413	0.888
8.37531	0.859
8.41649	0.795
8.45766	0.639
8.49884	0.667
8.54002	0.835
8.5812	0.855
8.62237	0.862
8.66355	0.878
8.70473	0.879
8.74591	0.874
8.78708	0.849
8.82826	0.806
8.86944	0.698
8.91062	0.512
8.95179	0.579
8.99297	0.773
9.03415	0.843
9.07532	0.866
9.1165	0.874
9.15768	0.878
9.19886	0.881
9.24003	0.881
9.28121	0.867
9.32239	0.807
9.36357	0.778
9.40474	0.831
9.44592	0.857
9.4871	0.861
9.52828	0.857
9.56945	0.849
9.61063	0.83
9.65181	0.806
9.69298	0.77
9.73416	0.71
9.77534	0.614
9.81652	0.576
9.85769	0.668
9.89887	0.761
9.94005	0.794
9.98123	0.801
10.0224	0.73
10.0636	0.639
10.1048	0.626
10.1459	0.728
10.1871	0.765
10.2283	0.722
10.2695	0.641
10.3106	0.574
10.3518	0.679
10.393	0.787
10.4342	0.835
10.4754	0.855
10.5165	0.864
10.5577	0.869
10.5989	0.869
10.6401	0.867
10.6812	0.876
10.7224	0.881
10.7636	0.886
10.8048	0.893
10.846	0.898
10.8871	0.9
10.9283	0.898
10.9695	0.893
11.0107	0.9
11.0518	0.905
11.093	0.905
11.1342	0.898
11.1754	0.891
11.2165	0.883
11.2577	0.869
11.2989	0.854
11.3401	0.84
11.3813	0.819
11.4224	0.809
11.4636	0.797
11.5048	0.782
11.546	0.771
11.5871	0.756
11.6283	0.744
11.6695	0.735
11.7107	0.727
11.7519	0.734
11.793	0.775
11.8342	0.807
11.8754	0.835
11.9166	0.849
11.9577	0.862
11.9989	0.866
12.0401	0.869
12.0813	0.869
12.1224	0.866
12.1636	0.857
12.2048	0.843
12.246	0.802
12.2872	0.765
12.3283	0.766
12.3695	0.771
12.4107	0.768
12.4519	0.749
12.493	0.727
12.5342	0.696
12.5754	0.644
12.6166	0.548
12.6578	0.401
12.6989	0.221
12.7401	0.084
12.7813	0.039
12.8225	0.21
12.8636	0.43
12.9048	0.603
12.946	0.696
12.9872	0.753
13.0283	0.775
13.0695	0.792
13.1107	0.795
13.1519	0.797
13.1931	0.797
13.2342	0.795
13.2754	0.792
13.3166	0.789
13.3578	0.783
13.3989	0.778
13.4401	0.768
13.4813	0.759
13.5225	0.751
13.5637	0.728
13.6048	0.686
13.646	0.614
13.6872	0.485
13.7284	0.245
13.7695	0.13
13.8107	0.246
13.8519	0.43
13.8931	0.602
13.9343	0.663
13.9754	0.687
14.0166	0.698
14.0578	0.701
14.099	0.703
14.1401	0.703
14.1813	0.699
14.2225	0.692
14.2637	0.686
14.3048	0.679
14.346	0.677
14.3872	0.677
14.4284	0.675
14.4696	0.67
14.5107	0.665
14.5519	0.658
14.5931	0.651
14.6343	0.644
14.6754	0.638
14.7166	0.629
14.7578	0.615
14.799	0.612
14.8402	0.605
14.8813	0.591
14.9225	0.579
14.9637	0.571
15.0049	0.566
15.046	0.554
15.0872	0.54
15.1284	0.531
15.1696	0.519
15.2107	0.504
15.2519	0.49
15.2931	0.478
15.3343	0.471
15.3755	0.466
15.4166	0.459
15.4578	0.456
15.499	0.452
15.5402	0.447
15.5813	0.44
15.6225	0.435
15.6637	0.43
15.7049	0.421
15.7461	0.413
15.7872	0.409
15.8284	0.406
15.8696	0.401
