Infrared Spectrum: 4-Bromo-o-xylene
Formula: C 8 H 9 Br
CAS: 583-71-1
State: gas
Instrument: HP-GC/MS/IRD
Origin: NIST Mass Spectrometry Data Center
1/CM	ABSORBANCE
550	0.0008652
562	0.000336
574	0.0003318
586	0.00063
598	0.00105
610	0.0014406
622	0.0037632
634	0.0034188
646	0.0002142
658	3.36e-05
670	6.3e-05
682	0.0007182
694	0.0016548
706	0.0012012
718	0.0005922
730	0.0005544
742	0.0007056
754	0.002373
766	0.005313
778	0.0050148
790	0.0102144
802	0.0210882
814	0.014112
826	0.0062832
838	0.003927
850	0.0111426
862	0.0317394
874	0.0151578
886	0.0030912
898	0.0009324
910	0.0007434
922	0.0005334
934	0.0006594
946	0.0010038
958	0.0017262
970	0.003066
982	0.0069468
994	0.01071
1006	0.0059556
1018	0.0036456
1030	0.003003
1042	0.0022596
1054	0.0025746
1066	0.0027006
1078	0.0033474
1090	0.0071904
1102	0.0053676
1114	0.004578
1126	0.0066528
1138	0.0083202
1150	0.0046368
1162	0.0044982
1174	0.0117852
1186	0.0082236
1198	0.0013776
1210	0.0008988
1222	0.0012012
1234	0.0012978
1246	0.0010038
1258	0.0010626
1270	0.0018522
1282	0.0021168
1294	0.0010752
1306	0.000945
1318	0.0011088
1330	0.001281
1342	0.0014154
1354	0.0017094
1366	0.002646
1378	0.0045276
1390	0.0072996
1402	0.0081396
1414	0.0058842
1426	0.006741
1438	0.010122
1450	0.0156072
1462	0.0200802
1474	0.024843
1486	0.042
1498	0.0236376
1510	0.0059598
1522	0.003969
1534	0.004158
1546	0.0050316
1558	0.0063168
1570	0.0071064
1582	0.0099834
1594	0.0148092
1606	0.0076104
1618	0.0026712
1630	0.0011928
1642	0.0008148
1654	0.0007728
1666	0.0006636
1678	0.0005754
1690	0.0005586
1702	0.0005754
1714	0.0009408
1726	0.0018438
1738	0.0020202
1750	0.0008274
1762	0.000399
1774	0.0003654
1786	0.0002772
1798	0.0002604
1810	0.0003444
1822	0.000336
1834	0.000378
1846	0.0006132
1858	0.0009702
1870	0.0015078
1882	0.0012558
1894	0.000693
1906	0.0004914
1918	0.0003906
1930	0.0002058
1942	0.0001092
1954	0.0001134
1966	0.000105
1978	6.72e-05
1990	4.62e-05
2002	0.0001134
2014	7.14e-05
2026	3.78e-05
2038	3.78e-05
2050	0
2062	2.94e-05
2074	8.4e-06
2086	5.04e-05
2098	4.2e-05
2110	6.3e-05
2122	8.4e-05
2134	7.98e-05
2146	6.3e-05
2158	3.36e-05
2170	5.04e-05
2182	2.94e-05
2194	5.88e-05
2206	8.82e-05
2218	4.62e-05
2230	7.56e-05
2242	0.0001554
2254	0.0001512
2266	0.000147
2278	0.0001134
2290	4.62e-05
2302	0.000105
2314	7.98e-05
2326	0.000126
2338	8.4e-05
2350	9.66e-05
2362	0.0001554
2374	0.00021
2386	0.0001722
2398	0.0002058
2410	0.0001974
2422	0.0001806
2434	0.0002142
2446	0.0002562
2458	0.0002646
2470	0.0002352
2482	0.0001638
2494	0.0001638
2506	0.0001764
2518	8.4e-05
2530	0.0001638
2542	0.00021
2554	0.0002856
2566	0.0002058
2578	0.0001134
2590	0.0001134
2602	0.0001092
2614	0.0001134
2626	4.2e-05
2638	8.4e-05
2650	0.000168
2662	0.0001806
2674	0.0002142
2686	0.0001848
2698	0.0002226
2710	0.0003108
2722	0.0005628
2734	0.0009744
2746	0.0012684
2758	0.000987
2770	0.0010038
2782	0.000945
2794	0.0008694
2806	0.0010416
2818	0.001449
2830	0.0022722
2842	0.003612
2854	0.006048
2866	0.0102396
2878	0.0139146
2890	0.0137424
2902	0.0130116
2914	0.0145614
2926	0.0240408
2938	0.032319
2950	0.023688
2962	0.018711
2974	0.0172116
2986	0.0153048
2998	0.0107478
3010	0.0096432
3022	0.0122598
3034	0.0106932
3046	0.0084672
3058	0.0084714
3070	0.008694
3082	0.007854
3094	0.0055902
3106	0.0031164
3118	0.0017346
3130	0.001155
3142	0.0008484
3154	0.0005754
3166	0.0003738
3178	0.0003696
3190	0.0002604
3202	0.0001764
3214	0.0001512
3226	0.0001806
3238	0.0001428
3250	0.0001764
3262	0.0001806
3274	1.68e-05
3286	9.24e-05
3298	7.56e-05
3310	0.000105
3322	5.88e-05
3334	5.46e-05
3346	7.14e-05
3358	7.56e-05
3370	8.82e-05
3382	8.82e-05
3394	8.4e-05
3406	5.46e-05
3418	9.24e-05
3430	0.0001008
3442	8.82e-05
3454	0.0001092
3466	5.88e-05
3478	0.0001554
3490	8.82e-05
3502	8.4e-05
3514	6.3e-05
3526	7.14e-05
3538	0.0001092
3550	1.26e-05
3562	0.0001428
3574	0.0001134
3586	0.0001302
3598	0.0001302
3610	0.000105
3622	0.000147
3634	0.0001092
3646	0.000168
3658	0.0001638
3670	0.0001512
3682	0.0001386
3694	6.72e-05
3706	0.0001218
3718	8.82e-05
3730	0.0001008
3742	0.0001344
3754	0.00021
3766	0.0001932
3778	0.0001974
3790	8.82e-05
3802	0.0001848
3814	0.0001764
3826	0.0001386
3838	0.0001932
