Infrared Spectrum: 4-BROMO-2-METHYL ANILINE
Formula: C7 H8 Br N
CAS: 583-75-5
State: SOLID (OIL MULL)
Melting point: 56.5-58.5 C
Class: COBLENTZ
Instrument: Not specified, most likely a prism, grating, or hybrid spectrometer.
Sampling: TRANSMISSION
Resolution: 4
Origin: WYANDOTTE CHEMICALS CORP., WYANDOTTE, MICHIGAN, USA
MICROMETERS	TRANSMITTANCE
2.038	0.381
2.07779	0.378
2.11759	0.391
2.15738	0.383
2.19718	0.378
2.23697	0.361
2.27677	0.356
2.31656	0.361
2.35635	0.365
2.39615	0.36
2.43594	0.355
2.47574	0.351
2.51553	0.351
2.55533	0.366
2.59512	0.386
2.63491	0.393
2.67471	0.398
2.7145	0.396
2.7543	0.4
2.79409	0.403
2.83389	0.398
2.87368	0.383
2.91347	0.305
2.95327	0.233
2.99306	0.226
3.03286	0.175
3.07265	0.181
3.11245	0.176
3.15224	0.205
3.19203	0.261
3.23183	0.28
3.27162	0.276
3.31142	0.23
3.35121	0.106
3.39101	0.035
3.4308	0.023
3.4706	0.033
3.51039	0.041
3.55018	0.233
3.58998	0.42
3.62977	0.475
3.66957	0.463
3.70936	0.458
3.74916	0.455
3.78895	0.456
3.82874	0.475
3.86854	0.483
3.90833	0.49
3.94813	0.496
3.98792	0.51
4.02772	0.526
4.06751	0.535
4.1073	0.528
4.1471	0.528
4.18689	0.531
4.22669	0.526
4.26648	0.501
4.30628	0.518
4.34607	0.53
4.38586	0.555
4.42566	0.568
4.46545	0.566
4.50525	0.568
4.54504	0.581
4.58484	0.583
4.62463	0.581
4.66442	0.586
4.70422	0.601
4.74401	0.603
4.78381	0.603
4.8236	0.605
4.8634	0.61
4.90319	0.631
4.94298	0.633
4.98278	0.631
5.02257	0.638
5.06237	0.641
5.10216	0.653
5.14196	0.666
5.18175	0.673
5.22154	0.673
5.26134	0.678
5.30113	0.683
5.34093	0.693
5.38072	0.695
5.42052	0.628
5.46031	0.695
5.5001	0.723
5.5399	0.736
5.57969	0.731
5.61949	0.768
5.65928	0.77
5.69908	0.773
5.73887	0.668
5.77867	0.74
5.81846	0.773
5.85825	0.788
5.89805	0.821
5.93784	0.828
5.97764	0.845
6.01743	0.791
6.05723	0.675
6.09702	0.31
6.13681	0.148
6.17661	0.293
6.2164	0.423
6.2562	0.456
6.29599	0.418
6.33579	0.45
6.37558	0.576
6.41537	0.725
6.45517	0.746
6.49496	0.798
6.53476	0.8
6.57455	0.84
6.61435	0.663
6.65414	0.188
6.69393	0.063
6.73373	0.041
6.77352	0.035
6.81332	0.036
6.85311	0.046
6.89291	0.076
6.9327	0.143
6.97249	0.313
7.01229	0.436
7.05208	0.491
7.09188	0.388
7.13167	0.185
7.17147	0.313
7.21126	0.27
7.25105	0.185
7.29085	0.355
7.33064	0.481
7.37044	0.616
7.41023	0.645
7.45003	0.693
7.48982	0.75
7.52961	0.788
7.56941	0.763
7.6092	0.505
7.649	0.636
7.68879	0.805
7.72859	0.801
7.76838	0.46
7.80817	0.13
7.84797	0.111
7.88776	0.128
7.92756	0.258
7.96735	0.37
8.00715	0.461
8.04694	0.543
8.08674	0.588
8.12653	0.645
8.16632	0.686
8.20612	0.726
8.24591	0.741
8.28571	0.705
8.3255	0.458
8.3653	0.288
8.40509	0.466
8.44488	0.6
8.48468	0.651
8.52447	0.683
8.56427	0.716
8.60406	0.751
8.64386	0.66
8.68365	0.311
8.72344	0.308
8.76324	0.483
8.80303	0.616
8.84283	0.663
8.88262	0.713
8.92242	0.735
8.96221	0.768
9.002	0.788
9.0418	0.77
9.08159	0.726
9.12139	0.7
9.16118	0.668
9.20098	0.613
9.24077	0.543
9.28056	0.573
9.32036	0.595
9.36015	0.533
9.39995	0.518
9.43974	0.578
9.47954	0.708
9.51933	0.768
9.55912	0.81
9.59892	0.701
9.63871	0.576
9.67851	0.713
9.7183	0.791
9.7581	0.851
9.79789	0.871
9.83768	0.903
9.87748	0.915
9.91727	0.926
9.95707	0.943
9.99686	0.896
10.0367	0.723
10.0765	0.728
10.1162	0.786
10.156	0.831
10.1958	0.848
10.2356	0.846
10.2754	0.845
10.3152	0.863
10.355	0.875
10.3948	0.88
10.4346	0.886
10.4744	0.886
10.5142	0.903
10.554	0.908
10.5938	0.918
10.6336	0.923
10.6734	0.913
10.7132	0.871
10.753	0.825
10.7927	0.921
10.8325	0.951
10.8723	0.956
10.9121	0.953
10.9519	0.953
10.9917	0.953
11.0315	0.96
11.0713	0.96
11.1111	0.958
11.1509	0.943
11.1907	0.933
11.2305	0.908
11.2703	0.883
11.3101	0.831
11.3499	0.715
11.3897	0.47
11.4295	0.3
11.4693	0.218
11.509	0.173
11.5488	0.196
11.5886	0.261
11.6284	0.421
11.6682	0.563
11.708	0.66
11.7478	0.73
11.7876	0.74
11.8274	0.758
11.8672	0.745
11.907	0.736
11.9468	0.728
11.9866	0.715
12.0264	0.683
12.0662	0.655
12.106	0.603
12.1458	0.508
12.1855	0.39
12.2253	0.22
12.2651	0.081
12.3049	0.043
12.3447	0.031
12.3845	0.04
12.4243	0.11
12.4641	0.253
12.5039	0.438
12.5437	0.55
12.5835	0.618
12.6233	0.661
12.6631	0.686
12.7029	0.703
12.7427	0.706
12.7825	0.711
12.8223	0.703
12.8621	0.693
12.9018	0.676
12.9416	0.661
12.9814	0.641
13.0212	0.625
13.061	0.651
13.1008	0.728
13.1406	0.785
13.1804	0.771
13.2202	0.716
13.26	0.686
13.2998	0.663
13.3396	0.636
13.3794	0.606
13.4192	0.585
13.459	0.578
13.4988	0.551
13.5386	0.525
13.5783	0.513
13.6181	0.5
13.6579	0.488
13.6977	0.481
13.7375	0.473
13.7773	0.453
13.8171	0.443
13.8569	0.435
13.8967	0.421
13.9365	0.416
13.9763	0.423
14.0161	0.405
14.0559	0.396
14.0957	0.396
14.1355	0.396
14.1753	0.398
14.2151	0.396
14.2549	0.403
14.2946	0.4
14.3344	0.393
14.3742	0.39
14.414	0.38
14.4538	0.376
14.4936	0.376
14.5334	0.373
14.5732	0.371
14.613	0.371
14.6528	0.371
14.6926	0.363
14.7324	0.363
14.7722	0.368
14.812	0.375
14.8518	0.371
14.8916	0.378
14.9314	0.391
14.9712	0.388
15.0109	0.388
15.0507	0.385
15.0905	0.388
15.1303	0.381
15.1701	0.38
15.2099	0.391
15.2497	0.398
15.2895	0.401
15.3293	0.403
15.3691	0.421
15.4089	0.425
15.4487	0.428
15.4885	0.431
15.5283	0.448
15.5681	0.458
15.6079	0.46
15.6477	0.466
15.6874	0.481
15.7272	0.493
15.767	0.503
15.8068	0.503
15.8466	0.503
15.8864	0.518
15.9262	0.5
15.966	0.463
16.0058	0.45
