Infrared Spectrum: 1,2-Dimethylcyclohexane
Formula: C 8 H 16
CAS: 583-57-3
State: gas
Instrument: HP-GC/MS/IRD
Origin: NIST Mass Spectrometry Data Center
1/CM	ABSORBANCE
550	0.0002706
562	0.0002214
574	0.0002173
586	7.79e-05
598	0.0002419
610	0.0001107
622	9.43e-05
634	5.33e-05
646	8.61e-05
658	8.2e-05
670	5.74e-05
682	2.46e-05
694	8.61e-05
706	6.15e-05
718	1.64e-05
730	2.87e-05
742	2.87e-05
754	2.46e-05
766	4.1e-05
778	2.05e-05
790	4.51e-05
802	5.33e-05
814	0.0001066
826	9.43e-05
838	9.84e-05
850	0.0001394
862	0.0001968
874	0.0001517
886	0.0002337
898	0.0001394
910	4.92e-05
922	7.79e-05
934	0.0002788
946	0.0003936
958	0.0004592
970	0.0005289
982	0.0004141
994	0.0002911
1006	0.0003362
1018	0.0002378
1030	0.0001107
1042	0.0001107
1054	6.56e-05
1066	9.02e-05
1078	0.0001066
1090	0.0001476
1102	0.0002214
1114	0.0001435
1126	6.97e-05
1138	7.79e-05
1150	6.15e-05
1162	0.0001435
1174	0.0002214
1186	0.0001927
1198	0.0001517
1210	0.0002009
1222	0.0001763
1234	0.0002952
1246	0.0005945
1258	0.0006437
1270	0.0003772
1282	0.0002952
1294	0.0004018
1306	0.0004756
1318	0.0003198
1330	0.0002706
1342	0.0003485
1354	0.0005658
1366	0.0012177
1378	0.0018983
1390	0.0014842
1402	0.0005658
1414	0.0003362
1426	0.0007585
1438	0.002173
1450	0.0042312
1462	0.0037105
1474	0.0023616
1486	0.0008856
1498	0.0003403
1510	0.000164
1522	6.97e-05
1534	5.74e-05
1546	4.92e-05
1558	0
1570	6.15e-05
1582	7.79e-05
1594	6.97e-05
1606	7.38e-05
1618	7.79e-05
1630	8.61e-05
1642	0.0001189
1654	6.15e-05
1666	0.0001312
1678	9.84e-05
1690	9.02e-05
1702	4.51e-05
1714	6.56e-05
1726	7.79e-05
1738	4.92e-05
1750	2.87e-05
1762	5.74e-05
1774	6.56e-05
1786	4.92e-05
1798	4.1e-05
1810	3.69e-05
1822	6.15e-05
1834	6.97e-05
1846	3.69e-05
1858	3.28e-05
1870	5.33e-05
1882	5.33e-05
1894	4.51e-05
1906	4.92e-05
1918	1.64e-05
1930	6.15e-05
1942	4.92e-05
1954	4.1e-05
1966	2.05e-05
1978	2.05e-05
1990	1.64e-05
2002	5.74e-05
2014	4.1e-05
2026	6.97e-05
2038	4.51e-05
2050	8.2e-06
2062	2.87e-05
2074	1.64e-05
2086	3.28e-05
2098	2.05e-05
2110	6.15e-05
2122	4.92e-05
2134	6.56e-05
2146	4.92e-05
2158	5.74e-05
2170	5.74e-05
2182	9.02e-05
2194	5.33e-05
2206	4.92e-05
2218	1.64e-05
2230	4.1e-05
2242	2.46e-05
2254	6.97e-05
2266	7.38e-05
2278	9.43e-05
2290	9.43e-05
2302	0.0001025
2314	8.2e-05
2326	7.79e-05
2338	5.33e-05
2350	8.2e-05
2362	6.15e-05
2374	7.38e-05
2386	7.79e-05
2398	8.2e-05
2410	0.0001476
2422	0.0001271
2434	9.02e-05
2446	9.02e-05
2458	9.84e-05
2470	9.84e-05
2482	0.0001066
2494	9.84e-05
2506	0.0001066
2518	0.0001148
2530	0.0001517
2542	0.0001476
2554	0.0001148
2566	0.0002009
2578	0.0002747
2590	0.0003362
2602	0.0003444
2614	0.0003321
2626	0.000328
2638	0.0003321
2650	0.00041
2662	0.0005412
2674	0.0005699
2686	0.0004961
2698	0.0003813
2710	0.0003567
2722	0.0004141
2734	0.0004961
2746	0.0005658
2758	0.0005043
2770	0.0005207
2782	0.0006847
2794	0.0008446
2806	0.0010414
2818	0.0013161
2830	0.0022017
2842	0.0057072
2854	0.0119433
2866	0.01722
2878	0.0143582
2890	0.0121524
2902	0.0146698
2914	0.024559
2926	0.0399545
2938	0.0342063
2950	0.0222958
2962	0.0155431
2974	0.012628
2986	0.0070315
2998	0.0024108
3010	0.0009922
3022	0.000697
3034	0.0007093
3046	0.0006683
3058	0.0005658
3070	0.0005617
3082	0.0004838
3094	0.0004838
3106	0.0005166
3118	0.0004428
3130	0.0004018
3142	0.000369
3154	0.000328
3166	0.0002747
3178	0.0002624
3190	0.0001968
3202	0.0001763
3214	0.0001394
3226	0.0001681
3238	0.0001722
3250	0.0001845
3262	0.0001804
3274	0.0001271
3286	0.0001271
3298	9.02e-05
3310	0.0001312
3322	8.61e-05
3334	0.0001353
3346	0.0001394
3358	0.0001189
3370	9.43e-05
3382	0.0001066
3394	0.0001025
3406	9.43e-05
3418	8.2e-05
3430	9.43e-05
3442	0.0001189
3454	6.97e-05
3466	0.0001353
3478	0.0001394
3490	9.43e-05
3502	6.56e-05
3514	7.79e-05
3526	7.79e-05
3538	7.79e-05
3550	5.74e-05
3562	0.0001025
3574	8.61e-05
3586	1.23e-05
3598	9.43e-05
3610	3.69e-05
3622	6.97e-05
3634	0.0001107
3646	6.56e-05
3658	4.1e-05
3670	5.74e-05
3682	7.38e-05
3694	6.56e-05
3706	8.2e-05
3718	0.0001025
3730	2.87e-05
3742	9.43e-05
3754	7.79e-05
3766	3.69e-05
3778	6.97e-05
3790	0.0001107
3802	2.05e-05
3814	2.46e-05
3826	0.0001394
3838	0.0001476
