Infrared Spectrum: 2-Methylcyclohexanone
Formula: C 7 H 12 O
CAS: 583-60-8
State: gas
Instrument: HP-GC/MS/IRD
Origin: NIST Mass Spectrometry Data Center
1/CM	ABSORBANCE
550	5.12e-05
562	6.56e-05
574	0.0002208
586	0.0001312
598	4.48e-05
610	5.76e-05
622	4.48e-05
634	2.4e-05
646	8e-05
658	0.0001216
670	8e-05
682	0.0001056
694	0.0001712
706	0.0003104
718	0.0004192
730	0.0002624
742	0.0001632
754	9.92e-05
766	8.96e-05
778	7.68e-05
790	0.0001424
802	0.0002784
814	0.0004304
826	0.000384
838	0.0002208
850	0.0004064
862	0.0006512
874	0.000616
886	0.000328
898	0.0002672
910	0.0001984
922	0.0001632
934	0.0002528
946	0.0003168
958	0.0005376
970	0.000752
982	0.0008848
994	0.0007024
1006	0.000528
1018	0.0003744
1030	0.0004336
1042	0.0006448
1054	0.0008208
1066	0.000872
1078	0.0007392
1090	0.0006288
1102	0.0008992
1114	0.0016048
1126	0.001888
1138	0.001488
1150	0.0010304
1162	0.0006656
1174	0.0003504
1186	0.000312
1198	0.0006848
1210	0.0012512
1222	0.0012864
1234	0.0007056
1246	0.0003744
1258	0.0003296
1270	0.0002464
1282	0.0003168
1294	0.0005216
1306	0.0009488
1318	0.001136
1330	0.0009616
1342	0.0009696
1354	0.0009408
1366	0.0008336
1378	0.0009216
1390	0.0008864
1402	0.0005136
1414	0.0006304
1426	0.0011376
1438	0.0018368
1450	0.0023776
1462	0.002176
1474	0.0013408
1486	0.0005888
1498	0.0002496
1510	0.0002
1522	0.0001776
1534	0.0001344
1546	0.000128
1558	9.28e-05
1570	8.64e-05
1582	8.96e-05
1594	0.0001168
1606	0.0001376
1618	0.0001456
1630	0.0001952
1642	0.000264
1654	0.0003152
1666	0.0004512
1678	0.0006976
1690	0.0012288
1702	0.002952
1714	0.0088816
1726	0.014608
1738	0.0123728
1750	0.0039312
1762	0.0011984
1774	0.0006768
1786	0.0004896
1798	0.000336
1810	0.0002544
1822	0.0001712
1834	0.0001376
1846	0.000112
1858	8.96e-05
1870	8.64e-05
1882	7.84e-05
1894	6.72e-05
1906	7.2e-05
1918	5.76e-05
1930	6.24e-05
1942	7.84e-05
1954	5.6e-05
1966	5.12e-05
1978	2.24e-05
1990	4.16e-05
2002	3.68e-05
2014	5.44e-05
2026	6.56e-05
2038	3.84e-05
2050	2.24e-05
2062	1.28e-05
2074	1.28e-05
2086	6.4e-06
2098	1.76e-05
2110	1.6e-05
2122	2.08e-05
2134	3.52e-05
2146	4.16e-05
2158	4e-05
2170	3.52e-05
2182	5.28e-05
2194	5.6e-05
2206	5.76e-05
2218	4.32e-05
2230	1.12e-05
2242	2.56e-05
2254	1.12e-05
2266	4.96e-05
2278	3.84e-05
2290	5.6e-05
2302	4.64e-05
2314	4.64e-05
2326	4.8e-05
2338	0
2350	2.4e-05
2362	9.6e-06
2374	4.48e-05
2386	3.68e-05
2398	6.08e-05
2410	4.64e-05
2422	2.08e-05
2434	4e-05
2446	3.84e-05
2458	9.6e-06
2470	1.44e-05
2482	2.24e-05
2494	4.16e-05
2506	3.68e-05
2518	2.56e-05
2530	2.88e-05
2542	5.76e-05
2554	4.96e-05
2566	9.6e-06
2578	7.2e-05
2590	4.48e-05
2602	5.92e-05
2614	6.56e-05
2626	6.56e-05
2638	7.04e-05
2650	0.0001344
2662	0.0001728
2674	0.0001808
2686	0.0001424
2698	0.000104
2710	9.92e-05
2722	0.0001104
2734	0.0001328
2746	0.0001472
2758	0.0001408
2770	0.000176
2782	0.000272
2794	0.0003424
2806	0.0003632
2818	0.0004368
2830	0.0006832
2842	0.001184
2854	0.002944
2866	0.005528
2878	0.0056272
2890	0.0041696
2902	0.0035776
2914	0.0050928
2926	0.0097728
2938	0.0158048
2950	0.0136272
2962	0.0085008
2974	0.0061104
2986	0.0043552
2998	0.0020144
3010	0.0007616
3022	0.0004112
3034	0.0002896
3046	0.0002384
3058	0.0002496
3070	0.0002368
3082	0.0002048
3094	0.0001568
3106	0.000144
3118	0.000136
3130	8.16e-05
3142	0.0001024
3154	0.0001024
3166	0.000112
3178	0.0001072
3190	7.2e-05
3202	5.44e-05
3214	4e-05
3226	6.24e-05
3238	7.84e-05
3250	8.32e-05
3262	4.96e-05
3274	2.56e-05
3286	4.8e-05
3298	2.08e-05
3310	4.48e-05
3322	7.2e-05
3334	2.56e-05
3346	4.48e-05
3358	2.08e-05
3370	4.48e-05
3382	6.08e-05
3394	7.52e-05
3406	0.00012
3418	0.0001456
3430	0.0002592
3442	0.0002944
3454	0.0002064
3466	0.0001152
3478	5.92e-05
3490	7.84e-05
3502	8.64e-05
3514	4.16e-05
3526	3.84e-05
3538	0
3550	3.84e-05
3562	2.72e-05
3574	3.04e-05
3586	6.24e-05
3598	5.12e-05
3610	6.56e-05
3622	4.32e-05
3634	6.72e-05
3646	4.8e-05
3658	7.04e-05
3670	5.92e-05
3682	5.76e-05
3694	9.28e-05
3706	4.48e-05
3718	3.04e-05
3730	7.52e-05
3742	1.92e-05
3754	3.36e-05
3766	1.92e-05
3778	2.88e-05
3790	8.32e-05
3802	4.64e-05
3814	2.72e-05
3826	4.48e-05
3838	2.88e-05
