Infrared Spectrum: 1-(3-METHYL-4-MORPHOLINO-2,2-DIPHENYLBUTYRYL) PYRROLIDINE,HYDROCHLORIDE
Formula: C25 H33 Cl N2 O2
CAS: 58311-58-3
State: SOLID (NUJOL MULL)
Class: COBLENTZ III
Instrument: PERKIN-ELMER 21 (GRATING)
Instrument parameters: NaCl PRISM
Sampling: TRANSMISSION
Resolution: 2
Origin: SMITH KLINE & FRENCH LABS.
1/CM	TRANSMITTANCE
641	0.5855
650	0.4964
659	0.6623
668	0.6752
677	0.6499
686	0.7208
695	0.6901
704	0.4512
713	0.2396
722	0.2047
731	0.2272
740	0.6325
749	0.6527
758	0.2151
767	0.6217
776	0.3085
785	0.7705
794	0.8044
803	0.8202
812	0.8166
821	0.8101
830	0.7714
839	0.7891
848	0.7501
857	0.5494
866	0.6422
875	0.684
884	0.6662
893	0.4386
902	0.7477
911	0.6247
920	0.4995
929	0.6333
938	0.7331
947	0.7307
956	0.6711
965	0.6876
974	0.6283
983	0.3932
992	0.5803
1001	0.6622
1010	0.6607
1019	0.5516
1028	0.5322
1037	0.677
1046	0.6678
1055	0.4385
1064	0.5221
1073	0.4378
1082	0.5185
1091	0.4137
1100	0.5154
1109	0.2721
1118	0.4778
1127	0.6123
1136	0.4824
1145	0.635
1154	0.5119
1163	0.4009
1172	0.4671
1181	0.499
1190	0.3625
1199	0.6162
1208	0.6973
1217	0.6956
1226	0.6804
1235	0.6549
1244	0.6103
1253	0.2542
1262	0.4275
1271	0.4739
1280	0.6229
1289	0.6243
1298	0.5752
1307	0.6106
1316	0.5631
1325	0.4717
1334	0.4426
1343	0.4409
1352	0.4577
1361	0.4071
1370	0.2863
1379	0.2504
1388	0.2689
1397	0.1523
1406	0.0741
1415	0.1588
1424	0.2841
1433	0.2211
1442	0.0863
1451	0.072
1460	0.1032
1469	0.1666
1478	0.2684
1487	0.3829
1496	0.3149
1505	0.6445
1514	0.7165
1523	0.7244
1532	0.737
1541	0.7309
1550	0.7302
1559	0.7243
1568	0.6627
1577	0.5913
1586	0.504
1595	0.3777
1604	0.2055
1613	0.0779
1622	0.0454
1631	0.2375
1640	0.4861
1649	0.6381
1658	0.6969
1667	0.736
1676	0.7633
1685	0.773
1694	0.781
1703	0.7895
1712	0.7971
1721	0.8017
1730	0.7999
1739	0.7994
1748	0.8017
1757	0.8059
1766	0.8073
1775	0.8028
1784	0.8001
1793	0.8037
1802	0.8157
1811	0.8127
1820	0.8082
1829	0.8029
1838	0.7928
1847	0.7907
1856	0.7914
1865	0.7947
1874	0.7988
1883	0.7995
1892	0.7851
1901	0.7749
1910	0.77
1919	0.7697
1928	0.7715
1937	0.7715
1946	0.7697
1955	0.767
1964	0.7601
1973	0.7548
1982	0.7526
1991	0.7518
2000	0.758
2009	0.7667
2018	0.767
2027	0.763
2036	0.7583
2045	0.7538
2054	0.7484
2063	0.7427
2072	0.7363
2081	0.7294
2090	0.7201
2099	0.7106
2108	0.7011
2117	0.6894
2126	0.6768
2135	0.6649
2144	0.6498
2153	0.6335
2162	0.6122
2171	0.5924
2180	0.5692
2189	0.5476
2198	0.5277
2207	0.503
2216	0.4775
2225	0.4458
2234	0.3961
2243	0.3483
2252	0.3328
2261	0.3235
2270	0.3125
2279	0.2831
2288	0.2463
2297	0.2315
2306	0.1758
2315	0.124
2324	0.113
2333	0.097
2342	0.092
2351	0.0903
2360	0.0954
2369	0.1017
2378	0.1302
2387	0.1521
2396	0.1641
2405	0.1728
2414	0.1896
2423	0.2027
2432	0.2322
2441	0.2995
2450	0.3342
2459	0.3966
2468	0.4256
2477	0.4236
2486	0.4156
2495	0.4154
2504	0.4188
2513	0.4254
2522	0.4338
2531	0.4464
2540	0.4619
2549	0.4719
2558	0.4793
2567	0.4821
2576	0.4823
2585	0.4991
2594	0.5172
2603	0.5462
2612	0.5575
2621	0.5491
2630	0.5486
2639	0.5565
2648	0.5706
2657	0.5899
2666	0.6083
2675	0.6267
2684	0.6309
2693	0.6258
2702	0.6215
2711	0.6201
2720	0.6204
2729	0.6255
2738	0.6266
2747	0.6236
2756	0.6126
2765	0.6015
2774	0.5929
2783	0.5812
2792	0.5551
2801	0.515
2810	0.3859
2819	0.2081
2828	0.0833
2837	0.0524
2846	0.0433
2855	0.0514
2864	0.0526
2873	0.044
2882	0.0367
2891	0.0327
2900	0.0305
2909	0.0292
2918	0.0285
2927	0.0285
2936	0.0298
2945	0.0521
2954	0.1229
2963	0.1934
2972	0.2634
2981	0.333
2990	0.3983
2999	0.4078
3008	0.4093
3017	0.4107
3026	0.4127
3035	0.4328
3044	0.482
3053	0.5311
3062	0.5671
3071	0.5841
3080	0.5964
3089	0.6048
3098	0.6122
3107	0.6191
3116	0.6246
3125	0.6285
3134	0.6294
3143	0.63
3152	0.6299
3161	0.6296
3170	0.6291
3179	0.6281
3188	0.622
3197	0.6198
3206	0.621
3215	0.6235
3224	0.627
3233	0.6299
3242	0.6309
3251	0.6304
3260	0.6299
3269	0.6291
3278	0.6276
3287	0.6261
3296	0.6242
3305	0.6222
3314	0.6202
3323	0.6179
3332	0.6155
3341	0.6134
3350	0.6119
3359	0.6106
3368	0.6098
3377	0.6098
3386	0.6099
3395	0.6102
3404	0.6112
3413	0.6124
3422	0.6139
3431	0.6154
3440	0.616
3449	0.6165
3458	0.6165
3467	0.6162
3476	0.6164
3485	0.6169
3494	0.6186
3503	0.6206
3512	0.6221
3521	0.6232
3530	0.6243
3539	0.6252
3548	0.6261
3557	0.6269
3566	0.6276
3575	0.6283
3584	0.6285
3593	0.6283
3602	0.6282
3611	0.6276
3620	0.6268
3629	0.6261
3638	0.6253
3647	0.6246
3656	0.6237
3665	0.6225
3674	0.6215
3683	0.6203
3692	0.6192
3701	0.6186
3710	0.6181
3719	0.6185
3728	0.6205
3737	0.6224
3746	0.6241
3755	0.6262
3764	0.6267
3773	0.6246
3782	0.6218
3791	0.6175
3800	0.6139
3809	0.6126
3818	0.6114
3827	0.6104
3836	0.6096
3845	0.6088
3854	0.6081
3863	0.6078
3872	0.6076
3881	0.607
3890	0.6062
3899	0.6053
3908	0.6044
3917	0.6032
3926	0.6017
3935	0.6003
3944	0.5986
3953	0.5963
3962	0.594
3971	0.5908
3980	0.5875
3989	0.5847
3998	0.5827
