Infrared Spectrum: 5,8-DIHYDRO-2-METHYL-3-(1-PHENYL-5-TETRAZOLYLTHIO)-5,8-ETHANO-1,4-NAPHTHOHYDROQUINONE
Formula: C20 H18 N4 O2 S
CAS: 5831-22-1
State: SOLID (KBr PRESSING)
Melting point: 185-186 C
Class: COBLENTZ
Instrument: Not specified, most likely a prism, grating, or hybrid spectrometer.
Sampling: TRANSMISSION
Resolution: 4
Origin: EASTMAN KODAK COMPANY, RESEARCH LABORATORIES, ROCHESTER, N.Y.
MICROMETERS	TRANSMITTANCE
1.993	0.402
2.03315	0.402
2.07331	0.402
2.11346	0.402
2.15362	0.402
2.19377	0.407
2.23392	0.41
2.27408	0.415
2.31423	0.426
2.35439	0.43
2.39454	0.438
2.4347	0.441
2.47485	0.448
2.515	0.453
2.55516	0.461
2.59531	0.466
2.63547	0.476
2.67562	0.487
2.71577	0.494
2.75593	0.5
2.79608	0.463
2.83624	0.385
2.87639	0.239
2.91655	0.146
2.9567	0.11
2.99685	0.121
3.03701	0.162
3.07716	0.201
3.11732	0.247
3.15747	0.282
3.19762	0.328
3.23778	0.348
3.27793	0.353
3.31809	0.354
3.35824	0.369
3.39839	0.241
3.43855	0.303
3.4787	0.356
3.51886	0.382
3.55901	0.466
3.59917	0.499
3.63932	0.512
3.67947	0.522
3.71963	0.536
3.75978	0.541
3.79994	0.553
3.84009	0.568
3.88024	0.577
3.9204	0.587
3.96055	0.596
4.00071	0.602
4.04086	0.61
4.08101	0.62
4.12117	0.632
4.16132	0.638
4.20148	0.643
4.24163	0.638
4.28179	0.645
4.32194	0.666
4.36209	0.683
4.40225	0.689
4.4424	0.692
4.48256	0.706
4.52271	0.707
4.56286	0.711
4.60302	0.715
4.64317	0.715
4.68333	0.717
4.72348	0.72
4.76364	0.729
4.80379	0.737
4.84394	0.737
4.8841	0.743
4.92425	0.743
4.96441	0.748
5.00456	0.758
5.04471	0.758
5.08487	0.76
5.12502	0.758
5.16518	0.778
5.20533	0.783
5.24548	0.783
5.28564	0.789
5.32579	0.793
5.36595	0.798
5.4061	0.821
5.44626	0.832
5.48641	0.832
5.52656	0.839
5.56672	0.835
5.60687	0.83
5.64703	0.839
5.68718	0.855
5.72733	0.848
5.76749	0.834
5.80764	0.839
5.8478	0.84
5.88795	0.84
5.92811	0.85
5.96826	0.844
6.00841	0.822
6.04857	0.786
6.08872	0.783
6.12888	0.771
6.16903	0.766
6.20918	0.712
6.24934	0.62
6.28949	0.568
6.32965	0.814
6.3698	0.84
6.40995	0.871
6.45011	0.898
6.49026	0.899
6.53042	0.917
6.57057	0.912
6.61073	0.906
6.65088	0.684
6.69103	0.399
6.73119	0.768
6.77134	0.725
6.8115	0.403
6.85165	0.256
6.8918	0.328
6.93196	0.384
6.97211	0.351
7.01227	0.285
7.05242	0.175
7.09257	0.187
7.13273	0.198
7.17288	0.18
7.21304	0.264
7.25319	0.451
7.29335	0.533
7.3335	0.627
7.37365	0.64
7.41381	0.584
7.45396	0.344
7.49412	0.38
7.53427	0.476
7.57442	0.54
7.61458	0.463
7.65473	0.467
7.69489	0.385
7.73504	0.5
7.7752	0.489
7.81535	0.466
7.8555	0.446
7.89566	0.331
7.93581	0.451
7.97597	0.52
8.01612	0.517
8.05627	0.44
8.09643	0.417
8.13658	0.479
8.17674	0.509
8.21689	0.507
8.25704	0.444
8.2972	0.367
8.33735	0.297
8.37751	0.224
8.41766	0.159
8.45782	0.108
8.49797	0.09
8.53812	0.098
8.57828	0.134
8.61843	0.2
8.65859	0.231
8.69874	0.316
8.73889	0.384
8.77905	0.454
8.8192	0.509
8.85936	0.556
8.89951	0.587
8.93966	0.582
8.97982	0.558
9.01997	0.576
9.06013	0.515
9.10028	0.344
9.14044	0.315
9.18059	0.453
9.22074	0.548
9.2609	0.482
9.30105	0.315
9.34121	0.341
9.38136	0.408
9.42151	0.495
9.46167	0.587
9.50182	0.648
9.54198	0.671
9.58213	0.64
9.62229	0.61
9.66244	0.6
9.70259	0.532
9.74275	0.553
9.7829	0.536
9.82306	0.42
9.86321	0.316
9.90336	0.433
9.94352	0.555
9.98367	0.637
10.0238	0.689
10.064	0.719
10.1041	0.742
10.1443	0.765
10.1844	0.771
10.2246	0.773
10.2648	0.765
10.3049	0.778
10.3451	0.802
10.3852	0.821
10.4254	0.817
10.4655	0.779
10.5057	0.745
10.5458	0.758
10.586	0.763
10.6261	0.788
10.6663	0.814
10.7064	0.824
10.7466	0.832
10.7868	0.865
10.8269	0.891
10.8671	0.899
10.9072	0.893
10.9474	0.875
10.9875	0.885
11.0277	0.929
11.0678	0.957
11.108	0.97
11.1481	0.98
11.1883	0.986
11.2285	0.99
11.2686	0.996
11.3088	0.995
11.3489	0.977
11.3891	0.889
11.4292	0.768
11.4694	0.835
11.5095	0.929
11.5497	0.963
11.5898	0.98
11.63	0.978
11.6701	0.926
11.7103	0.776
11.7505	0.729
11.7906	0.835
11.8308	0.909
11.8709	0.916
11.9111	0.86
11.9512	0.596
11.9914	0.541
12.0315	0.699
12.0717	0.822
12.1118	0.863
12.152	0.868
12.1921	0.783
12.2323	0.733
12.2725	0.806
12.3126	0.871
12.3528	0.911
12.3929	0.934
12.4331	0.949
12.4732	0.965
12.5134	0.963
12.5535	0.952
12.5937	0.896
12.6338	0.876
12.674	0.883
12.7142	0.798
12.7543	0.633
12.7945	0.627
12.8346	0.709
12.8748	0.806
12.9149	0.848
12.9551	0.832
12.9952	0.75
13.0354	0.497
13.0755	0.226
13.1157	0.215
13.1558	0.339
13.196	0.541
13.2362	0.674
13.2763	0.76
13.3165	0.821
13.3566	0.855
13.3968	0.878
13.4369	0.899
13.4771	0.911
13.5172	0.921
13.5574	0.921
13.5975	0.919
13.6377	0.926
13.6779	0.934
13.718	0.947
13.7582	0.954
13.7983	0.952
13.8385	0.944
13.8786	0.919
13.9188	0.875
13.9589	0.791
13.9991	0.642
14.0392	0.523
14.0794	0.371
14.1195	0.279
14.1597	0.333
14.1999	0.366
14.24	0.356
14.2802	0.293
14.3203	0.288
14.3605	0.346
14.4006	0.41
14.4408	0.403
14.4809	0.357
14.5211	0.31
14.5612	0.3
14.6014	0.331
14.6416	0.379
14.6817	0.451
14.7219	0.528
14.762	0.594
14.8022	0.633
14.8423	0.643
14.8825	0.632
14.9226	0.582
14.9628	0.517
15.0029	0.499
15.0431	0.509
15.0832	0.497
15.1234	0.471
15.1636	0.458
15.2037	0.472
15.2439	0.49
15.284	0.513
15.3242	0.528
15.3643	0.538
15.4045	0.545
15.4446	0.551
15.4848	0.555
15.5249	0.564
15.5651	0.566
15.6053	0.571
15.6454	0.576
15.6856	0.582
15.7257	0.586
15.7659	0.589
15.806	0.597
15.8462	0.597
15.8863	0.602
15.9265	0.607
15.9666	0.612
