Infrared Spectrum: 5,8-DIHYDRO-5,8-ETHANO-2-PHENYL-3-(1-PHENYL-5'-TETRAZOLYLTHIO)-1,4-NAPHTHOHYDROQUINONE
Formula: C25 H20 N4 O2 S
CAS: 5831-23-2
State: SOLID (KBr PRESSING)
Melting point: 199.5-200 C
Class: COBLENTZ
Instrument: Not specified, most likely a prism, grating, or hybrid spectrometer.
Sampling: TRANSMISSION
Resolution: 4
Origin: EASTMAN KODAK COMPANY, RESEARCH LABORATORIES, ROCHESTER, N.Y.
MICROMETERS	TRANSMITTANCE
2.013	0.479
2.05312	0.479
2.09323	0.479
2.13335	0.477
2.17347	0.485
2.21358	0.492
2.2537	0.497
2.29382	0.5
2.33393	0.505
2.37405	0.512
2.41417	0.512
2.45429	0.518
2.4944	0.52
2.53452	0.528
2.57464	0.53
2.61475	0.535
2.65487	0.542
2.69499	0.548
2.7351	0.551
2.77522	0.555
2.81534	0.518
2.85545	0.242
2.89557	0.121
2.93569	0.156
2.9758	0.253
3.01592	0.314
3.05604	0.336
3.09615	0.373
3.13627	0.4
3.17639	0.429
3.2165	0.457
3.25662	0.462
3.29674	0.35
3.33686	0.469
3.37697	0.349
3.41709	0.304
3.45721	0.484
3.49732	0.421
3.53744	0.601
3.57756	0.632
3.61767	0.66
3.65779	0.67
3.69791	0.69
3.73802	0.7
3.77814	0.708
3.81826	0.716
3.85837	0.728
3.89849	0.744
3.93861	0.754
3.97872	0.759
4.01884	0.761
4.05896	0.766
4.09907	0.771
4.13919	0.799
4.17931	0.803
4.21943	0.799
4.25954	0.8
4.29966	0.808
4.33978	0.835
4.37989	0.848
4.42001	0.863
4.46013	0.871
4.50024	0.876
4.54036	0.879
4.58048	0.883
4.62059	0.887
4.66071	0.889
4.70083	0.891
4.74094	0.892
4.78106	0.897
4.82118	0.899
4.86129	0.902
4.90141	0.906
4.94153	0.909
4.98165	0.912
5.02176	0.912
5.06188	0.904
5.102	0.899
5.14211	0.906
5.18223	0.925
5.22235	0.929
5.26246	0.911
5.30258	0.901
5.3427	0.92
5.38281	0.948
5.42293	0.952
5.46305	0.952
5.50316	0.952
5.54328	0.952
5.5834	0.953
5.62351	0.952
5.66363	0.952
5.70375	0.942
5.74386	0.945
5.78398	0.958
5.8241	0.958
5.86422	0.96
5.90433	0.958
5.94445	0.955
5.98457	0.95
6.02468	0.932
6.0648	0.929
6.10492	0.861
6.14503	0.836
6.18515	0.795
6.22527	0.63
6.26538	0.49
6.3055	0.812
6.34562	0.81
6.38573	0.889
6.42585	0.929
6.46597	0.955
6.50608	0.967
6.5462	0.965
6.58632	0.962
6.62643	0.672
6.66655	0.329
6.70667	0.672
6.74679	0.784
6.7869	0.7
6.82702	0.383
6.86714	0.266
6.90725	0.102
6.94737	0.191
6.98749	0.062
7.0276	0.031
7.06772	0.047
7.10784	0.146
7.14795	0.27
7.18807	0.148
7.22819	0.128
7.2683	0.436
7.30842	0.579
7.34854	0.583
7.38865	0.261
7.42877	0.446
7.46889	0.52
7.50901	0.528
7.54912	0.509
7.58924	0.428
7.62936	0.395
7.66947	0.401
7.70959	0.476
7.74971	0.492
7.78982	0.461
7.82994	0.345
7.87006	0.289
7.91017	0.268
7.95029	0.232
7.99041	0.105
8.03052	0.161
8.07064	0.097
8.11076	0.177
8.15087	0.143
8.19099	0.149
8.23111	0.191
8.27122	0.118
8.31134	0.153
8.35146	0.156
8.39158	0.123
8.43169	0.144
8.47181	0.194
8.51193	0.326
8.55204	0.416
8.59216	0.401
8.63228	0.359
8.67239	0.36
8.71251	0.4
8.75263	0.461
8.79274	0.573
8.83286	0.634
8.87298	0.649
8.91309	0.655
8.95321	0.619
8.99333	0.573
9.03344	0.565
9.07356	0.505
9.11368	0.364
9.1538	0.38
9.19391	0.219
9.23403	0.278
9.27415	0.382
9.31426	0.433
9.35438	0.484
9.3945	0.502
9.43461	0.606
9.47473	0.67
9.51485	0.693
9.55496	0.693
9.59508	0.624
9.6352	0.649
9.67531	0.576
9.71543	0.509
9.75555	0.5
9.79566	0.532
9.83578	0.418
9.8759	0.444
9.91601	0.644
9.95613	0.683
9.99625	0.691
10.0364	0.733
10.0765	0.752
10.1166	0.677
10.1567	0.589
10.1968	0.706
10.2369	0.759
10.2771	0.784
10.3172	0.807
10.3573	0.835
10.3974	0.851
10.4375	0.855
10.4777	0.851
10.5178	0.812
10.5579	0.808
10.598	0.808
10.6381	0.813
10.6782	0.817
10.7184	0.82
10.7585	0.836
10.7986	0.843
10.8387	0.835
10.8788	0.822
10.9189	0.827
10.9591	0.863
10.9992	0.881
11.0393	0.883
11.0794	0.831
11.1195	0.472
11.1596	0.518
11.1998	0.718
11.2399	0.812
11.28	0.855
11.3201	0.864
11.3602	0.868
11.4003	0.873
11.4405	0.873
11.4806	0.863
11.5207	0.831
11.5608	0.751
11.6009	0.658
11.641	0.411
11.6812	0.228
11.7213	0.207
11.7614	0.212
11.8015	0.257
11.8416	0.484
11.8817	0.583
11.9219	0.672
11.962	0.724
12.0021	0.752
12.0422	0.761
12.0823	0.766
12.1224	0.749
12.1626	0.703
12.2027	0.693
12.2428	0.698
12.2829	0.711
12.323	0.731
12.3631	0.746
12.4033	0.767
12.4434	0.78
12.4835	0.78
12.5236	0.738
12.5637	0.746
12.6038	0.764
12.644	0.766
12.6841	0.762
12.7242	0.673
12.7643	0.505
12.8044	0.411
12.8445	0.476
12.8847	0.485
12.9248	0.373
12.9649	0.166
13.005	0.075
13.0451	0.07
13.0852	0.069
13.1254	0.057
13.1655	0.06
13.2056	0.171
13.2457	0.373
13.2858	0.495
13.3259	0.558
13.3661	0.593
13.4062	0.622
13.4463	0.642
13.4864	0.667
13.5265	0.682
13.5666	0.685
13.6068	0.688
13.6469	0.695
13.687	0.698
13.7271	0.703
13.7672	0.696
13.8073	0.662
13.8475	0.56
13.8876	0.504
13.9277	0.502
13.9678	0.418
14.0079	0.291
14.048	0.184
14.0882	0.133
14.1283	0.084
14.1684	0.06
14.2085	0.057
14.2486	0.065
14.2887	0.113
14.3289	0.163
14.369	0.168
14.4091	0.169
14.4492	0.163
14.4893	0.149
14.5294	0.153
14.5696	0.224
14.6097	0.355
14.6498	0.441
14.6899	0.481
14.73	0.485
14.7702	0.481
14.8103	0.453
14.8504	0.433
14.8905	0.405
14.9306	0.382
14.9707	0.438
15.0109	0.51
15.051	0.433
15.0911	0.393
15.1312	0.413
15.1713	0.484
15.2114	0.532
15.2516	0.556
15.2917	0.566
15.3318	0.588
15.3719	0.594
15.412	0.604
15.4521	0.614
15.4923	0.622
15.5324	0.629
15.5725	0.632
15.6126	0.632
15.6527	0.634
15.6928	0.635
15.733	0.637
15.7731	0.637
15.8132	0.637
15.8533	0.637
15.8934	0.637
15.9335	0.639
15.9737	0.639
