Infrared Spectrum: 4-Methyl-3-nitropyridine
Formula: C 6 H 6 N 2 O 2
CAS: 5832-44-0
State: gas
Origin: EPA-IR VAPOR PHASE LIBRARY
1/CM	ABSORBANCE
549.8	0.004822
559.445	0.003772
569.09	0.003612
578.734	0.003082
588.379	0.002362
598.024	0.002112
607.669	0.001472
617.313	0.001662
626.958	0.0006054
636.603	0.0005353
646.248	0.0005237
655.893	0.00045617
665.537	0
675.182	0.0013626
684.827	0.005382
694.472	0.013602
704.116	0.015322
713.761	0.009012
723.406	0.006132
733.051	0.009462
742.695	0.015222
752.34	0.018052
761.985	0.011782
771.63	0.005992
781.275	0.007252
790.919	0.016422
800.564	0.019062
810.209	0.018682
819.854	0.019632
829.498	0.035492
839.143	0.022602
848.788	0.041172
858.433	0.061362
868.078	0.051242
877.722	0.009282
887.367	0.003022
897.012	0.002292
906.657	0.002562
916.301	0.004172
925.946	0.005282
935.591	0.004482
945.236	0.003272
954.88	0.003062
964.525	0.002492
974.17	0.003142
983.815	0.002872
993.46	0.003132
1003.1	0.003482
1012.75	0.002752
1022.39	0.002372
1032.04	0.003582
1041.68	0.004952
1051.33	0.005562
1060.97	0.006172
1070.62	0.004532
1080.26	0.002622
1089.91	0.002202
1099.55	0.002632
1109.2	0.002742
1118.84	0.005082
1128.49	0.004732
1138.13	0.003952
1147.78	0.004022
1157.42	0.004232
1167.07	0.008362
1176.71	0.012272
1186.36	0.012922
1196	0.009062
1205.64	0.009472
1215.29	0.013162
1224.93	0.017302
1234.58	0.012602
1244.22	0.007542
1253.87	0.004562
1263.51	0.004502
1273.16	0.004822
1282.8	0.004772
1292.45	0.005742
1302.09	0.008562
1311.74	0.012042
1321.38	0.015452
1331.03	0.027222
1340.67	0.074872
1350.32	0.156072
1359.96	0.170572
1369.61	0.082592
1379.25	0.033742
1388.9	0.031062
1398.54	0.030002
1408.18	0.022712
1417.83	0.017822
1427.47	0.018302
1437.12	0.024162
1446.76	0.029632
1456.41	0.028422
1466.05	0.022922
1475.7	0.022872
1485.34	0.026832
1494.99	0.033072
1504.63	0.046492
1514.28	0.074222
1523.92	0.123222
1533.57	0.180532
1543.21	0.194832
1552.86	0.162622
1562.5	0.123472
1572.15	0.090012
1581.79	0.077902
1591.44	0.101232
1601.08	0.132292
1610.73	0.111122
1620.37	0.057822
1630.01	0.018762
1639.66	0.009672
1649.3	0.007822
1658.95	0.006522
1668.59	0.004862
1678.24	0.003372
1687.88	0.002532
1697.53	0.002172
1707.17	0.001772
1716.82	0.001712
1726.46	0.001562
1736.11	0.001572
1745.75	0.001942
1755.4	0.002282
1765.04	0.002102
1774.69	0.001652
1784.33	0.0013834
1793.98	0.001762
1803.62	0.002002
1813.27	0.001722
1822.91	0.0014056
1832.55	0.001422
1842.2	0.001912
1851.84	0.002282
1861.49	0.002082
1871.13	0.001772
1880.78	0.001912
1890.42	0.002472
1900.07	0.003352
1909.71	0.003132
1919.36	0.002122
1929	0.001772
1938.65	0.002102
1948.29	0.002582
1957.94	0.002232
1967.58	0.001409
1977.23	0.0009028
1986.87	0.0009214
1996.52	0.0008402
2006.16	0.0010828
2015.81	0.0007951
2025.45	0.000893
2035.1	0.0006976
2044.74	0.0008709
2054.38	0.0007356
2064.03	0.0010495
2073.67	0.0009704
2083.32	0.0011602
2092.96	0.0010978
2102.61	0.0009607
2112.25	0.001006
2121.9	0.0008851
2131.54	0.000818
2141.19	0.0008293
2150.83	0.0008328
2160.48	0.0010468
2170.12	0.0012065
2179.77	0.0012777
2189.41	0.0013829
2199.06	0.0012028
2208.7	0.0009771
2218.35	0.0010564
2227.99	0.0010582
2237.64	0.0011304
2247.28	0.0009625
2256.92	0.0009633
2266.57	0.0008672
2276.21	0.0010474
2285.86	0.0009285
2295.5	0.0005772
2305.15	0.0009707
2314.79	0.0009642
2324.44	0.0009443
2334.08	0.0012522
2343.73	0.0012019
2353.37	0.0011373
2363.02	0.0011705
2372.66	0.001327
2382.31	0.001772
2391.95	0.001932
2401.6	0.002142
2411.24	0.002272
2420.89	0.002102
2430.53	0.001782
2440.18	0.001862
2449.82	0.001962
2459.47	0.002142
2469.11	0.002002
2478.75	0.002022
2488.4	0.0014024
2498.04	0.0009702
2507.69	0.0009956
2517.33	0.0010524
2526.98	0.0009578
2536.62	0.0011042
2546.27	0.0009553
2555.91	0.0009078
2565.56	0.0010435
2575.2	0.0011101
2584.85	0.001462
2594.49	0.001772
2604.14	0.001592
2613.78	0.0014002
2623.43	0.0012017
2633.07	0.0013469
2642.72	0.0013539
2652.36	0.0013635
2662.01	0.001562
2671.65	0.001842
2681.29	0.001932
2690.94	0.002132
2700.58	0.002402
2710.23	0.002432
2719.87	0.001982
2729.52	0.001672
2739.16	0.0013727
2748.81	0.001482
2758.45	0.001742
2768.1	0.001602
2777.74	0.0012847
2787.39	0.0013698
2797.03	0.001702
2806.68	0.001592
2816.32	0.002182
2825.97	0.002462
2835.61	0.003012
2845.26	0.003652
2854.9	0.004792
2864.55	0.006342
2874.19	0.007682
2883.84	0.008162
2893.48	0.007162
2903.12	0.006172
2912.77	0.005922
2922.41	0.006822
2932.06	0.009662
2941.7	0.012442
2951.35	0.012402
2960.99	0.009512
2970.64	0.007652
2980.28	0.009512
2989.93	0.012722
2999.57	0.012802
3009.22	0.010782
3018.86	0.008272
3028.51	0.008222
3038.15	0.009412
3047.8	0.011572
3057.44	0.020042
3067.09	0.027432
3076.73	0.022372
3086.38	0.008602
3096.02	0.003422
3105.67	0.002392
3115.31	0.002152
3124.95	0.001632
3134.6	0.001722
3144.24	0.001572
3153.89	0.0013238
3163.53	0.001442
3173.18	0.0014125
3182.82	0.0010231
3192.47	0.0011473
3202.11	0.0011629
3211.76	0.001202
3221.4	0.0010704
3231.05	0.0007364
3240.69	0.00076
3250.34	0.0005726
3259.98	0.0006773
3269.63	0.0008012
3279.27	0.0008082
3288.92	0.0003236
3298.56	0.0006424
3308.21	0.0007848
3317.85	0.0009259
3327.49	0.0008003
3337.14	0.0006935
3346.78	0.00049158
3356.43	0.000125
3366.07	0.0007748
3375.72	0.0007339
3385.36	0.0006497
3395.01	0.0006622
3404.65	0.0006918
3414.3	0.0005128
3423.94	0.0008038
3433.59	0.00045199
3443.23	0.0003746
3452.88	0.000165
3462.52	0.0006643
3472.17	0.0007096
3481.81	0.0004068
3491.46	0.0003415
3501.1	0.0008394
3510.75	0.0006846
3520.39	0.0007996
3530.04	0.0009476
3539.68	0.0003396
3549.32	0.00044082
3558.97	0.000299
3568.61	0.00047384
3578.26	0.0006124
3587.9	0.0006838
3597.55	0.0009278
3607.19	0.0006081
3616.84	0.000606
3626.48	0.0005872
3636.13	0.0005812
3645.77	0.0006069
3655.42	0.0003567
3665.06	0.0006821
3674.71	0.00048369
3684.35	0.00045259
3694	0.0008111
3703.64	0.00051249
3713.29	0.0008094
3722.93	0.0008992
3732.58	0.0006766
3742.22	0.0009104
3751.86	0.0009683
3761.51	0.0008892
3771.15	0.0008727
3780.8	0.0008462
3790.44	0.0005646
3800.09	0.0006368
3809.73	0.0010656
3819.38	0.0007524
3829.02	0.00047728
3838.67	0.0008517
3848.31	0.0010147
3857.96	0.0009657
3867.6	0.0005991
3877.25	0.0006334
3886.89	0.0010222
3896.54	0.0006548
3906.18	0.0007522
3915.83	0.0010512
3925.47	0.0007084
3935.12	0.000942
3944.76	0.0009437
3954.41	0.0009648
3964.05	0.0009709
3973.69	0.001133
3983.34	0.0008886
3992.98	0.00050099
