Infrared Spectrum: (+)tr-4,5-Bis(iodomethyl)-2,2-dimethyl-1,3-dioxolane
Formula: C 7 H 12 I 2 O 2
CAS: 58342-57-7
State: gas
Origin: EPA-IR VAPOR PHASE LIBRARY
1/CM	ABSORBANCE
549.8	0.002944
559.445	0.002194
569.09	0.004154
578.734	0.005034
588.379	0.008034
598.024	0.011274
607.669	0.016304
617.313	0.018724
626.958	0.009084
636.603	0.005424
646.248	0.007094
655.893	0.010144
665.537	0.007244
675.182	0.004844
684.827	0.003134
694.472	0.002344
704.116	0.002144
713.761	0.002124
723.406	0.001844
733.051	0.001974
742.695	0.002134
752.34	0.001904
761.985	0.003324
771.63	0.005594
781.275	0.005754
790.919	0.007374
800.564	0.007144
810.209	0.009694
819.854	0.012884
829.498	0.011314
839.143	0.010774
848.788	0.011284
858.433	0.014024
868.078	0.020494
877.722	0.032594
887.367	0.036474
897.012	0.017394
906.657	0.008644
916.301	0.007544
925.946	0.007084
935.591	0.006854
945.236	0.006984
954.88	0.006324
964.525	0.007384
974.17	0.008134
983.815	0.011204
993.46	0.013834
1003.1	0.014704
1012.75	0.019914
1022.39	0.038694
1032.04	0.070454
1041.68	0.107194
1051.33	0.108464
1060.97	0.065214
1070.62	0.049194
1080.26	0.048744
1089.91	0.052014
1099.55	0.058154
1109.2	0.058404
1118.84	0.049344
1128.49	0.040214
1138.13	0.038504
1147.78	0.043014
1157.42	0.056324
1167.07	0.055904
1176.71	0.066134
1186.36	0.063904
1196	0.060134
1205.64	0.068544
1215.29	0.078464
1224.93	0.100464
1234.58	0.133264
1244.22	0.118934
1253.87	0.075104
1263.51	0.043334
1273.16	0.030214
1282.8	0.020934
1292.45	0.017674
1302.09	0.011554
1311.74	0.009654
1321.38	0.009144
1331.03	0.012204
1340.67	0.011234
1350.32	0.011094
1359.96	0.015594
1369.61	0.042814
1379.25	0.071814
1388.9	0.045044
1398.54	0.012484
1408.18	0.011344
1417.83	0.020204
1427.47	0.016814
1437.12	0.014174
1446.76	0.007584
1456.41	0.008954
1466.05	0.006574
1475.7	0.003184
1485.34	0.002334
1494.99	0.002044
1504.63	0.001884
1514.28	0.001604
1523.92	0.001324
1533.57	0.001494
1543.21	0.001454
1552.86	0.001584
1562.5	0.001544
1572.15	0.001564
1581.79	0.001574
1591.44	0.001494
1601.08	0.001364
1610.73	0.001464
1620.37	0.001534
1630.01	0.001464
1639.66	0.001514
1649.3	0.001634
1658.95	0.001574
1668.59	0.001754
1678.24	0.001564
1687.88	0.001584
1697.53	0.001484
1707.17	0.001494
1716.82	0.001374
1726.46	0.001494
1736.11	0.001654
1745.75	0.001704
1755.4	0.001924
1765.04	0.002024
1774.69	0.001954
1784.33	0.001674
1793.98	0.001584
1803.62	0.001314
1813.27	0.001224
1822.91	0.001424
1832.55	0.001394
1842.2	0.001374
1851.84	0.001684
1861.49	0.001564
1871.13	0.001594
1880.78	0.001484
1890.42	0.001374
1900.07	0.001424
1909.71	0.001444
1919.36	0.001214
1929	0.0011353
1938.65	0.001234
1948.29	0.0010184
1957.94	0.001174
1967.58	0.001304
1977.23	0.001364
1986.87	0.001724
1996.52	0.001564
2006.16	0.001654
2015.81	0.001364
2025.45	0.001294
2035.1	0.001324
2044.74	0.001214
2054.38	0.0011191
2064.03	0.001424
2073.67	0.001284
2083.32	0.001284
2092.96	0.001254
2102.61	0.001274
2112.25	0.001344
2121.9	0.001384
2131.54	0.001254
2141.19	0.001314
2150.83	0.001234
2160.48	0.001364
2170.12	0.001374
2179.77	0.001614
2189.41	0.001434
2199.06	0.001334
2208.7	0.001304
2218.35	0.0011158
2227.99	0.0008805
2237.64	0.0010254
2247.28	0.0011482
2256.92	0.0009846
2266.57	0.0011069
2276.21	0.0011102
2285.86	0.001174
2295.5	0.001214
2305.15	0.001364
2314.79	0.001204
2324.44	0.001194
2334.08	0.001194
2343.73	0.001234
2353.37	0.0011551
2363.02	0.0011631
2372.66	0.0010198
2382.31	0.0009065
2391.95	0.0008861
2401.6	0.0010223
2411.24	0.0010051
2420.89	0.0007941
2430.53	0.0008722
2440.18	0.0007076
2449.82	0.0006912
2459.47	0.0008572
2469.11	0.0007432
2478.75	0.0006196
2488.4	0.0007978
2498.04	0.0008242
2507.69	0.0007813
2517.33	0.0006633
2526.98	0.0007794
2536.62	0.0009175
2546.27	0.0009029
2555.91	0.000939
2565.56	0.001304
2575.2	0.001254
2584.85	0.001774
2594.49	0.002054
2604.14	0.001934
2613.78	0.001484
2623.43	0.001334
2633.07	0.001204
2642.72	0.0011084
2652.36	0.0011413
2662.01	0.0010678
2671.65	0.0010636
2681.29	0.0007846
2690.94	0.0010995
2700.58	0.0010799
2710.23	0.001254
2719.87	0.001274
2729.52	0.001534
2739.16	0.001874
2748.81	0.001554
2758.45	0.001394
2768.1	0.001494
2777.74	0.001414
2787.39	0.001684
2797.03	0.002184
2806.68	0.002644
2816.32	0.004354
2825.97	0.007574
2835.61	0.010674
2845.26	0.010164
2854.9	0.008174
2864.55	0.008374
2874.19	0.010324
2883.84	0.012654
2893.48	0.012974
2903.12	0.012214
2912.77	0.011644
2922.41	0.011254
2932.06	0.013284
2941.7	0.026294
2951.35	0.021594
2960.99	0.014114
2970.64	0.017964
2980.28	0.021514
2989.93	0.049984
2999.57	0.068294
3009.22	0.019494
3018.86	0.007524
3028.51	0.004894
3038.15	0.003194
3047.8	0.002324
3057.44	0.001934
3067.09	0.001924
3076.73	0.001754
3086.38	0.001454
3096.02	0.001374
3105.67	0.001284
3115.31	0.001454
3124.95	0.0011591
3134.6	0.001524
3144.24	0.0009696
3153.89	0.0011133
3163.53	0.001354
3173.18	0.001594
3182.82	0.001414
3192.47	0.001304
3202.11	0.001484
3211.76	0.0011246
3221.4	0.0011259
3231.05	0.0007219
3240.69	0.0006458
3250.34	0.000382
3259.98	0.0005046
3269.63	0.0006855
3279.27	0.0004634
3288.92	0.0004188
3298.56	0.0005353
3308.21	0.0007313
3317.85	0.000566
3327.49	0.0005526
3337.14	0.000695
3346.78	0.0006924
3356.43	0.0007084
3366.07	0.0005895
3375.72	0.0005728
3385.36	0.0003406
3395.01	0.000412
3404.65	0.000578
3414.3	0.0005494
3423.94	0.0004307
3433.59	0.0005831
3443.23	0.0004956
3452.88	0.0007671
3462.52	0.0004639
3472.17	0.0005468
3481.81	0.0005474
3491.46	0.0008313
3501.1	0.0004946
3510.75	0.0004993
3520.39	0.0006617
3530.04	0.0005002
3539.68	0.00023558
3549.32	0.0005556
3558.97	0.0005291
3568.61	0.0004979
3578.26	0.000755
3587.9	0.000514
3597.55	0.000456
3607.19	0.0002704
3616.84	0.0003942
3626.48	0.0006433
3636.13	0.0004098
3645.77	0.0005961
3655.42	0.0007492
3665.06	0.00016028
3674.71	0.0006499
3684.35	0.0004182
3694	0.0003816
3703.64	0.0002773
3713.29	0.0004593
3722.93	0.0007082
3732.58	0.0006569
3742.22	0.0006754
3751.86	0.0004565
3761.51	0.0007341
3771.15	0.0005984
3780.8	0.0004251
3790.44	0.0005332
3800.09	0.0007003
3809.73	0.0007184
3819.38	0.000545
3829.02	0.0007641
3838.67	0.0006995
3848.31	0.0004917
3857.96	0.000699
3867.6	0.0009042
3877.25	0.0008446
3886.89	0.000324
3896.54	0.0009009
3906.18	0.0008817
3915.83	0.0007265
3925.47	0.0007164
3935.12	0.0007723
3944.76	0.0006257
3954.41	0.0010438
3964.05	0.0010391
3973.69	0.0010565
3983.34	0.001254
3992.98	0.0005531
