Infrared Spectrum: Mercury, (1,4,5,6,7,7-hexachloro-5-norbornene-2,3-dicarboximidato)-phenyl-
Formula: C15 H7 Cl6 Hg N O2
CAS: 5834-81-1
State: SOLID (SPLIT MULL), FLUOROLUBE FOR 3800-1330 CM^-^1, NUJOL FOR 1330-400 CM^-^1
Melting point: 228 C
Class: COBLENTZ III
Instrument: DOW KBr FOREPRISM-GRATING
Instrument parameters: BLAZED AT 3.5, 12.0, 20.0 MICRON AND CHANGED AT 5.0, 7.5, 14.9 MICRON
Sampling: TRANSMISSION
Resolution: 2
Origin: DOW CHEMICAL COMPANY
1/CM	TRANSMITTANCE
382	0.7247
391	0.7344
400	0.7467
409	0.7596
418	0.7684
427	0.7745
436	0.7759
445	0.7362
454	0.794
463	0.7997
472	0.787
481	0.8184
490	0.8316
499	0.8338
508	0.8212
517	0.7792
526	0.6399
535	0.8276
544	0.8429
553	0.8519
562	0.8559
571	0.8605
580	0.8652
589	0.8696
598	0.8735
607	0.8764
616	0.8825
625	0.8811
634	0.87
643	0.8139
652	0.6461
661	0.79
670	0.8761
679	0.8455
688	0.7382
697	0.3213
706	0.834
715	0.8224
724	0.763
733	0.7604
742	0.2652
751	0.8321
760	0.5643
769	0.77
778	0.7916
787	0.8649
796	0.8717
805	0.86
814	0.8304
823	0.6292
832	0.8155
841	0.8544
850	0.8554
859	0.8547
868	0.8562
877	0.8512
886	0.8432
895	0.8317
904	0.7904
913	0.6813
922	0.8158
931	0.8061
940	0.6933
949	0.8013
958	0.8188
967	0.8154
976	0.8028
985	0.75
994	0.7066
1003	0.7793
1012	0.7975
1021	0.7558
1030	0.7805
1039	0.7826
1048	0.7906
1057	0.7717
1066	0.6975
1075	0.5553
1084	0.7418
1093	0.6358
1102	0.5051
1111	0.7734
1120	0.7872
1129	0.7826
1138	0.7782
1147	0.7636
1156	0.6736
1165	0.6678
1174	0.676
1183	0.7522
1192	0.743
1201	0.736
1210	0.6789
1219	0.4847
1228	0.1236
1237	0.4472
1246	0.6718
1255	0.5847
1264	0.6976
1273	0.5814
1282	0.4246
1291	0.573
1300	0.5911
1309	0.5945
1318	0.5533
1327	0.3664
1336	0.3098
1345	0.4439
1354	0.6724
1363	0.729
1372	0.7376
1381	0.7383
1390	0.7377
1399	0.7362
1408	0.7252
1417	0.7214
1426	0.7125
1435	0.5897
1444	0.7383
1453	0.7343
1462	0.7311
1471	0.7267
1480	0.6366
1489	0.7448
1498	0.7377
1507	0.7307
1516	0.7235
1525	0.7168
1534	0.7145
1543	0.7176
1552	0.699
1561	0.6836
1570	0.6642
1579	0.6497
1588	0.6344
1597	0.5531
1606	0.6442
1615	0.6348
1624	0.5887
1633	0.5238
1642	0.4344
1651	0.3906
1660	0.1428
1669	0.2844
1678	0.4256
1687	0.5564
1696	0.7778
1705	0.8401
1714	0.8291
1723	0.8074
1732	0.7899
1741	0.7492
1750	0.7824
1759	0.7908
1768	0.7889
1777	0.7871
1786	0.7843
1795	0.7816
1804	0.7798
1813	0.7785
1822	0.7765
1831	0.7749
1840	0.7714
1849	0.768
1858	0.7639
1867	0.7604
1876	0.7573
1885	0.7551
1894	0.7558
1903	0.7561
1912	0.7563
1921	0.7569
1930	0.7567
1939	0.7549
1948	0.7531
1957	0.7502
1966	0.7468
1975	0.7428
1984	0.7407
1993	0.7362
2002	0.7304
2011	0.7286
2020	0.7269
2029	0.7251
2038	0.7228
2047	0.72
2056	0.7165
2065	0.7125
2074	0.71
2083	0.7083
2092	0.7066
2101	0.7047
2110	0.7026
2119	0.7004
2128	0.6982
2137	0.6958
2146	0.6936
2155	0.6907
2164	0.6869
2173	0.6833
2182	0.6802
2191	0.6771
2200	0.6744
2209	0.6731
2218	0.6718
2227	0.6661
2236	0.66
2245	0.6538
2254	0.6483
2263	0.643
2272	0.6381
2281	0.6342
2290	0.6309
2299	0.6291
2308	0.6286
2317	0.6288
2326	0.6295
2335	0.6302
2344	0.631
2353	0.6313
2362	0.6317
2371	0.6336
2380	0.6343
2389	0.6321
2398	0.6289
2407	0.6273
2416	0.6267
2425	0.6273
2434	0.6274
2443	0.6272
2452	0.6273
2461	0.6275
2470	0.6271
2479	0.6264
2488	0.6259
2497	0.6254
2506	0.6249
2515	0.6243
2524	0.6236
2533	0.6228
2542	0.6218
2551	0.6205
2560	0.6193
2569	0.6186
2578	0.6179
2587	0.6171
2596	0.6164
2605	0.6154
2614	0.6145
2623	0.6135
2632	0.6126
2641	0.6116
2650	0.6104
2659	0.6092
2668	0.608
2677	0.6068
2686	0.6054
2695	0.604
2704	0.6026
2713	0.6011
2722	0.5997
2731	0.5982
2740	0.5968
2749	0.5953
2758	0.5938
2767	0.5923
2776	0.5905
2785	0.5883
2794	0.5863
2803	0.5842
2812	0.5821
2821	0.5799
2830	0.5777
2839	0.5755
2848	0.5733
2857	0.5712
2866	0.5694
2875	0.5676
2884	0.5658
2893	0.5639
2902	0.5616
2911	0.5591
2920	0.5566
2929	0.5541
2938	0.5505
2947	0.5458
2956	0.5394
2965	0.5426
2974	0.5463
2983	0.5483
2992	0.5499
3001	0.5512
3010	0.5514
3019	0.55
3028	0.5467
3037	0.544
3046	0.5422
3055	0.5424
3064	0.5463
3073	0.5474
3082	0.5483
3091	0.5481
3100	0.547
3109	0.5457
3118	0.5439
3127	0.5421
3136	0.5403
3145	0.5385
3154	0.5369
3163	0.5353
3172	0.5337
3181	0.5321
3190	0.5306
3199	0.5291
3208	0.5277
3217	0.5262
3226	0.5247
3235	0.523
3244	0.521
3253	0.5189
3262	0.5168
3271	0.5147
3280	0.5127
3289	0.5105
3298	0.5084
3307	0.5063
3316	0.5042
3325	0.502
3334	0.5002
3343	0.4985
3352	0.4968
3361	0.4951
3370	0.4942
3379	0.4935
3388	0.4927
3397	0.492
3406	0.4911
3415	0.49
3424	0.489
3433	0.488
3442	0.487
3451	0.4862
3460	0.4861
3469	0.4859
3478	0.4851
3487	0.4834
3496	0.4817
3505	0.4806
3514	0.4804
3523	0.4802
3532	0.4807
3541	0.4811
3550	0.4816
3559	0.4821
3568	0.4826
3577	0.483
3586	0.4833
3595	0.4831
3604	0.483
3613	0.4829
3622	0.4827
3631	0.4824
3640	0.4823
3649	0.4825
3658	0.483
3667	0.4841
3676	0.482
3685	0.4797
3694	0.4781
3703	0.4778
3712	0.4767
3721	0.4747
3730	0.4714
3739	0.4711
3748	0.4722
3757	0.4729
3766	0.4728
3775	0.4701
3784	0.4706
3793	0.4719
