Infrared Spectrum: 3-Methylthiophene-2-carboxaldehyde
Formula: C 6 H 6 O S
CAS: 5834-16-2
State: gas
Origin: EPA-IR VAPOR PHASE LIBRARY
1/CM	ABSORBANCE
549.8	0.002144
559.445	0.0010293
569.09	0.0008748
578.735	0.0011416
588.38	0.0011819
598.025	0.001794
607.67	0.002694
617.315	0.003054
626.96	0.002744
636.605	0.003984
646.251	0.009024
655.896	0.014514
665.541	0.019624
675.186	0.016414
684.831	0.009764
694.476	0.003854
704.121	0.008034
713.766	0.019324
723.411	0.039374
733.056	0.022404
742.701	0.017284
752.346	0.005914
761.991	0.007744
771.636	0.014854
781.281	0.014704
790.926	0.008244
800.571	0.002054
810.216	0.0014092
819.861	0.002394
829.507	0.005624
839.152	0.008864
848.797	0.009554
858.442	0.007564
868.087	0.003284
877.732	0.002524
887.377	0.0013909
897.022	0.0010006
906.667	0.000629
916.312	0.0008863
925.957	0.001804
935.602	0.003804
945.247	0.004424
954.892	0.003414
964.537	0.001584
974.182	0.0014015
983.827	0.001724
993.472	0.002544
1003.12	0.003564
1012.76	0.004284
1022.41	0.003734
1032.05	0.002914
1041.7	0.002064
1051.34	0.001854
1060.99	0.001614
1070.63	0.0013797
1080.28	0.0012865
1089.92	0.0013221
1099.57	0.0013294
1109.21	0.0014061
1118.86	0.001704
1128.5	0.002034
1138.15	0.002644
1147.79	0.004954
1157.44	0.011224
1167.08	0.019314
1176.73	0.023844
1186.37	0.027244
1196.02	0.028014
1205.66	0.023204
1215.31	0.008734
1224.95	0.004844
1234.6	0.008584
1244.24	0.010444
1253.89	0.008294
1263.53	0.003124
1273.18	0.001664
1282.82	0.0013688
1292.47	0.001464
1302.11	0.001724
1311.76	0.002114
1321.4	0.002854
1331.05	0.004064
1340.69	0.005284
1350.34	0.006394
1359.98	0.008514
1369.63	0.014154
1379.27	0.024164
1388.92	0.034124
1398.56	0.035614
1408.21	0.036974
1417.85	0.036174
1427.5	0.029224
1437.14	0.018404
1446.79	0.011754
1456.43	0.009094
1466.08	0.005854
1475.73	0.003794
1485.37	0.004324
1495.02	0.005894
1504.66	0.008714
1514.31	0.013344
1523.95	0.017804
1533.6	0.017324
1543.24	0.012144
1552.89	0.005774
1562.53	0.003194
1572.18	0.002834
1581.82	0.003284
1591.47	0.004734
1601.11	0.005364
1610.76	0.004554
1620.4	0.003244
1630.05	0.003044
1639.69	0.003964
1649.34	0.007184
1658.98	0.013414
1668.63	0.025184
1678.27	0.080084
1687.92	0.165254
1697.56	0.188514
1707.21	0.100724
1716.85	0.019484
1726.5	0.008104
1736.14	0.004194
1745.79	0.003494
1755.43	0.003394
1765.08	0.002734
1774.72	0.001764
1784.37	0.001514
1794.01	0.001604
1803.66	0.001954
1813.3	0.001834
1822.95	0.001474
1832.59	0.0012572
1842.24	0.0013158
1851.88	0.001794
1861.53	0.002374
1871.17	0.002454
1880.82	0.002004
1890.46	0.0014438
1900.11	0.0013263
1909.75	0.0010324
1919.4	0.0010017
1929.04	0.0010492
1938.69	0.0011356
1948.33	0.0011243
1957.98	0.001024
1967.62	0.000798
1977.27	0.0006361
1986.91	0.00051477
1996.56	0.000453892
2006.2	0.0005922
2015.85	0.00046915
2025.49	0.0005776
2035.14	0.0006494
2044.78	0.0006152
2054.43	0.0005821
2064.07	0.0005845
2073.72	0.0006029
2083.36	0.0005909
2093.01	0.0005702
2102.65	0.00052412
2112.3	0.00047785
2121.94	0.00050567
2131.59	0.0003646
2141.23	0.00048292
2150.88	0.0005641
2160.52	0.0006785
2170.17	0.0007889
2179.81	0.0008103
2189.46	0.000803
2199.1	0.0006672
2208.75	0.00053176
2218.39	0.0004435
2228.04	0.000462842
2237.68	0.00051172
2247.33	0.00052615
2256.97	0.0005617
2266.62	0.0003958
2276.26	0.0003884
2285.91	0.0003724
2295.55	0.0004345
2305.2	0.00048526
2314.84	0.00054369
2324.49	0.00048714
2334.13	0.0005995
2343.78	0.00054221
2353.42	0.0005668
2363.07	0.0006099
2372.72	0.000616
2382.36	0.0006085
2392.01	0.0006581
2401.65	0.0005751
2411.3	0.0005562
2420.94	0.00045268
2430.59	0.00052509
2440.23	0.0005953
2449.88	0.0005605
2459.52	0.00057
2469.17	0.00054077
2478.81	0.0005623
2488.46	0.00049087
2498.1	0.00046556
2507.75	0.000459887
2517.39	0.0005937
2527.04	0.00052976
2536.68	0.0005852
2546.33	0.000641
2555.97	0.000737
2565.62	0.0007858
2575.26	0.0007794
2584.91	0.000765
2594.55	0.0008083
2604.2	0.0008301
2613.84	0.0009666
2623.49	0.0012152
2633.13	0.0011392
2642.78	0.0010567
2652.42	0.001283
2662.07	0.0014023
2671.71	0.001574
2681.36	0.001814
2691	0.002754
2700.65	0.005234
2710.29	0.009294
2719.94	0.015994
2729.58	0.019914
2739.23	0.018994
2748.87	0.011714
2758.52	0.008484
2768.16	0.008204
2777.81	0.007664
2787.45	0.007434
2797.1	0.009354
2806.74	0.013864
2816.39	0.017894
2826.03	0.019734
2835.68	0.016914
2845.32	0.013424
2854.97	0.009184
2864.61	0.006744
2874.26	0.005844
2883.9	0.005474
2893.55	0.005164
2903.19	0.005384
2912.84	0.006294
2922.48	0.008644
2932.13	0.011464
2941.77	0.011544
2951.42	0.008904
2961.06	0.005784
2970.71	0.004134
2980.35	0.003554
2990	0.003484
2999.64	0.003664
3009.29	0.003774
3018.93	0.004064
3028.58	0.003944
3038.22	0.003454
3047.87	0.003024
3057.51	0.003224
3067.16	0.004334
3076.8	0.005034
3086.45	0.004394
3096.09	0.002374
3105.74	0.001784
3115.38	0.001544
3125.03	0.0010724
3134.67	0.0006142
3144.32	0.00044775
3153.96	0.0006203
3163.61	0.000107
3173.25	0.000196
3182.9	0.000139
3192.54	0.000144
3202.19	0.000163
3211.83	0.0003631
3221.48	0.000243
3231.12	0.000101
3240.77	0.000123
3250.41	0.000175
3260.06	0.000145
3269.7	0.000236
3279.35	0.000145
3289	0.000244
3298.64	0.000326
3308.29	0.000255
3317.93	0.000306
3327.58	0.00050781
3337.22	0.0008656
3346.87	0.001454
3356.51	0.002034
3366.16	0.002754
3375.8	0.002494
3385.45	0.001514
3395.09	0.00054796
3404.74	0.000295
3414.38	0.000223
3424.03	0.00022
3433.67	0.000197
3443.32	0.00023
3452.96	0.000115
3462.61	0.000151
3472.25	0.000149
3481.9	0.000179
3491.54	5.3e-05
3501.19	0.000267
3510.83	0.000146
3520.48	9.8e-05
3530.12	0.000205
3539.77	0.000274
3549.41	0.000211
3559.06	0.000209
3568.7	0.00021
3578.35	0.000275
3587.99	0.000213
3597.64	0.000252
3607.28	0.000301
3616.93	0.000211
3626.57	0.000284
3636.22	0.000174
3645.86	9.3e-05
3655.51	0.00022
3665.15	0.000225
3674.8	0.000147
3684.44	0.000148
3694.09	0.000182
3703.73	0.000176
3713.38	0.000326
3723.02	0.000233
3732.67	0.000321
3742.31	0.000274
3751.96	0.0003745
3761.6	0.0003896
3771.25	0.0006765
3780.89	0.000411
3790.54	0.00048808
3800.18	0.00049094
3809.83	0.0004252
3819.47	0.000292
3829.12	0.0004223
3838.76	0.0003579
3848.41	0.000221
3858.05	0.0003812
3867.7	0.0003
3877.34	0.000185
3886.99	0.000305
3896.63	0.000344
3906.28	0.000322
3915.92	0.000328
3925.57	0.0004051
3935.21	0.0005693
3944.86	0.0003725
3954.5	0.0005885
3964.15	0.00046556
3973.79	0.0005236
3983.44	0.0003
3993.08	0.000314
