Infrared Spectrum: 2,4-THIAZOLIDINEDIONE, 5-ISOPROPYLIDENE
Formula: C6 H7 N O2 S
CAS: 5835-47-2
State: SOLID (KBr PELLET)
Melting point: 161-162 C
Class: COBLENTZ
Instrument: Not specified, most likely a prism, grating, or hybrid spectrometer.
Sampling: TRANSMISSION
Resolution: 4
Origin: TENNESSEE EASTMAN COMPANY, RESEARCH LABORATORIES
MICROMETERS	TRANSMITTANCE
2.007	0.711
2.04803	0.713
2.08906	0.718
2.13009	0.734
2.17112	0.737
2.21215	0.746
2.25318	0.749
2.29421	0.753
2.33524	0.758
2.37627	0.763
2.41729	0.768
2.45832	0.777
2.49935	0.785
2.54038	0.794
2.58141	0.792
2.62244	0.792
2.66347	0.797
2.7045	0.801
2.74553	0.801
2.78656	0.799
2.82759	0.799
2.86862	0.799
2.90965	0.792
2.95068	0.794
2.99171	0.801
3.03274	0.782
3.07377	0.696
3.1148	0.588
3.15583	0.518
3.19685	0.581
3.23788	0.644
3.27891	0.612
3.31994	0.708
3.36097	0.763
3.402	0.799
3.44303	0.818
3.48406	0.823
3.52509	0.823
3.56612	0.818
3.60715	0.821
3.64818	0.866
3.68921	0.89
3.73024	0.902
3.77127	0.912
3.8123	0.915
3.85333	0.919
3.89436	0.926
3.93539	0.927
3.97642	0.931
4.01744	0.931
4.05847	0.929
4.0995	0.929
4.14053	0.929
4.18156	0.931
4.22259	0.948
4.26362	0.927
4.30465	0.909
4.34568	0.912
4.38671	0.934
4.42774	0.945
4.46877	0.948
4.5098	0.95
4.55083	0.953
4.59186	0.955
4.63289	0.953
4.67392	0.953
4.71495	0.953
4.75598	0.957
4.797	0.963
4.83803	0.963
4.87906	0.963
4.92009	0.963
4.96112	0.965
5.00215	0.967
5.04318	0.97
5.08421	0.969
5.12524	0.97
5.16627	0.969
5.2073	0.969
5.24833	0.962
5.28936	0.96
5.33039	0.963
5.37142	0.965
5.41245	0.965
5.45348	0.965
5.49451	0.951
5.53554	0.939
5.57656	0.914
5.61759	0.789
5.65862	0.785
5.69965	0.777
5.74068	0.493
5.78171	0.087
5.82274	0.209
5.86377	0.068
5.9048	0.243
5.94583	0.59
5.98686	0.746
6.02789	0.819
6.06892	0.831
6.10995	0.84
6.15098	0.763
6.19201	0.456
6.23304	0.749
6.27407	0.85
6.3151	0.883
6.35612	0.89
6.39715	0.891
6.43818	0.912
6.47921	0.905
6.52024	0.909
6.56127	0.9
6.6023	0.912
6.64333	0.914
6.68436	0.914
6.72539	0.921
6.76642	0.909
6.80745	0.902
6.84848	0.845
6.88951	0.831
6.93054	0.809
6.97157	0.809
7.0126	0.845
7.05363	0.867
7.09466	0.866
7.13569	0.855
7.17671	0.849
7.21774	0.818
7.25877	0.789
7.2998	0.744
7.34083	0.828
7.38186	0.876
7.42289	0.874
7.46392	0.804
7.50495	0.512
7.54598	0.26
7.58701	0.567
7.62804	0.711
7.66907	0.711
7.7101	0.761
7.75113	0.837
7.79216	0.871
7.83319	0.879
7.87422	0.893
7.91525	0.905
7.95627	0.902
7.9973	0.871
8.03833	0.871
8.07936	0.907
8.12039	0.919
8.16142	0.919
8.20245	0.915
8.24348	0.914
8.28451	0.912
8.32554	0.914
8.36657	0.914
8.4076	0.907
8.44863	0.866
8.48966	0.771
8.53069	0.421
8.57172	0.571
8.61275	0.758
8.65378	0.807
8.69481	0.823
8.73583	0.83
8.77686	0.838
8.81789	0.838
8.85892	0.826
8.89995	0.797
8.94098	0.744
8.98201	0.687
9.02304	0.653
9.06407	0.703
9.1051	0.775
9.14613	0.809
9.18716	0.821
9.22819	0.831
9.26922	0.835
9.31025	0.833
9.35128	0.823
9.39231	0.828
9.43334	0.837
9.47437	0.845
9.5154	0.852
9.55642	0.857
9.59745	0.859
9.63848	0.859
9.67951	0.859
9.72054	0.855
9.76157	0.845
9.8026	0.843
9.84363	0.843
9.88466	0.843
9.92569	0.847
9.96672	0.85
10.0077	0.852
10.0488	0.855
10.0898	0.855
10.1308	0.862
10.1719	0.864
10.2129	0.864
10.2539	0.867
10.295	0.869
10.336	0.867
10.377	0.869
10.418	0.869
10.4591	0.869
10.5001	0.871
10.5411	0.873
10.5822	0.874
10.6232	0.876
10.6642	0.874
10.7052	0.874
10.7463	0.874
10.7873	0.874
10.8283	0.876
10.8694	0.878
10.9104	0.879
10.9514	0.879
10.9925	0.878
11.0335	0.862
11.0745	0.847
11.1155	0.837
11.1566	0.84
11.1976	0.854
11.2386	0.867
11.2797	0.873
11.3207	0.876
11.3617	0.876
11.4028	0.876
11.4438	0.878
11.4848	0.879
11.5258	0.881
11.5669	0.883
11.6079	0.888
11.6489	0.888
11.69	0.89
11.731	0.888
11.772	0.89
11.813	0.886
11.8541	0.876
11.8951	0.876
11.9361	0.874
11.9772	0.874
12.0182	0.873
12.0592	0.869
12.1003	0.869
12.1413	0.867
12.1823	0.866
12.2233	0.855
12.2644	0.85
12.3054	0.84
12.3464	0.837
12.3875	0.828
12.4285	0.825
12.4695	0.825
12.5105	0.83
12.5516	0.835
12.5926	0.84
12.6336	0.843
12.6747	0.845
12.7157	0.842
12.7567	0.838
12.7978	0.837
12.8388	0.825
12.8798	0.816
12.9208	0.804
12.9619	0.792
13.0029	0.768
13.0439	0.722
13.085	0.605
13.126	0.584
13.167	0.761
13.208	0.802
13.2491	0.802
13.2901	0.802
13.3311	0.785
13.3722	0.768
13.4132	0.759
13.4542	0.754
13.4953	0.751
13.5363	0.754
13.5773	0.766
13.6183	0.795
13.6594	0.811
13.7004	0.823
13.7414	0.838
13.7825	0.847
13.8235	0.855
13.8645	0.864
13.9055	0.873
13.9466	0.878
13.9876	0.885
14.0286	0.891
14.0697	0.897
14.1107	0.9
14.1517	0.903
14.1928	0.909
14.2338	0.914
14.2748	0.915
14.3158	0.919
14.3569	0.924
14.3979	0.929
14.4389	0.934
14.48	0.941
14.521	0.945
14.562	0.95
14.6031	0.955
14.6441	0.96
14.6851	0.962
14.7261	0.963
14.7672	0.963
14.8082	0.963
14.8492	0.963
14.8903	0.963
14.9313	0.963
14.9723	0.963
15.0133	0.951
15.0544	0.943
15.0954	0.945
15.1364	0.943
15.1775	0.938
15.2185	0.91
15.2595	0.876
15.3006	0.821
15.3416	0.753
15.3826	0.691
15.4236	0.638
15.4647	0.6
15.5057	0.583
15.5467	0.583
15.5878	0.584
15.6288	0.603
15.6698	0.631
15.7108	0.663
15.7519	0.691
15.7929	0.71
15.8339	0.727
15.875	0.734
15.916	0.742
15.957	0.742
