Infrared Spectrum: 9-(p-HEXYLOXYPHENYL)-9-METHOXY-10-METHYLACRIDAN
Formula: C27 H31 N O2
CAS: 5836-06-6
State: SOLUTION (7% IN CHCl3)
Class: COBLENTZ
Instrument: PERKIN-ELMER
Sampling: TRANSMISSION
Path length: 0.010 CM
Resolution: 4
Origin: ABBOTT LABORATORIES - WASHBURN
MICROMETERS	TRANSMITTANCE
2.062	1.07
2.10224	1.072
2.14248	1.072
2.18273	1.068
2.22297	1.068
2.26321	1.0701
2.30345	1.065
2.34369	1.065
2.38394	1.0661
2.42418	1.065
2.46442	1.059
2.50466	1.0628
2.5449	1.07
2.58515	1.0718
2.62539	1.0682
2.66563	1.068
2.70587	1.07
2.74611	1.068
2.78635	1.0651
2.8266	1.053
2.86684	1.0431
2.90708	1.043
2.94732	1.04
2.98756	1.0419
3.02781	1.042
3.06805	1.045
3.10829	1.051
3.14853	1.051
3.18877	1.051
3.22902	1.0419
3.26926	1.0014
3.3095	0.9597
3.34974	0.835
3.38998	0.6334
3.43023	0.479
3.47047	0.5791
3.51071	0.6656
3.55095	0.7788
3.59119	0.9423
3.63144	1.0147
3.67168	1.0259
3.71192	1.0428
3.75216	1.0489
3.7924	1.0529
3.83265	1.0451
3.87289	1.047
3.91313	1.047
3.95337	1.049
3.99361	1.053
4.03385	1.053
4.0741	1.051
4.11434	1.047
4.15458	1.051
4.19482	1.057
4.23506	1.057
4.27531	1.057
4.31555	1.057
4.35579	1.057
4.39603	1.0586
4.43627	1.061
4.47652	1.0628
4.51676	1.0659
4.557	1.068
4.59724	1.07
4.63748	1.0661
4.67773	1.0611
4.71797	1.0531
4.75821	1.0569
4.79845	1.057
4.83869	1.057
4.87894	1.051
4.91918	1.049
4.95942	1.053
4.99966	1.055
5.0399	1.055
5.08015	1.0585
5.12039	1.055
5.16063	1.0362
5.20087	1.038
5.24111	1.028
5.28135	1.028
5.3216	1.0379
5.36184	1.0448
5.40208	1.0505
5.44232	1.0587
5.48256	1.052
5.52281	1.0442
5.56305	1.042
5.60329	1.04
5.64353	1.045
5.68377	1.042
5.72402	1.045
5.76426	1.047
5.8045	1.041
5.84474	1.0436
5.88498	1.0414
5.92523	1.026
5.96547	1.022
6.00571	1.0171
6.04595	1.011
6.08619	1.0074
6.12644	0.9953
6.16668	0.9399
6.20692	0.509
6.24716	0.3878
6.2874	0.2803
6.32765	0.7178
6.36789	0.8554
6.40813	0.9251
6.44837	0.952
6.48861	0.9721
6.52886	0.972
6.5691	0.94
6.60934	0.7723
6.64958	0.455
6.68982	0.4027
6.73006	0.5346
6.77031	0.2661
6.81055	0.0803
6.85079	0.2119
6.89103	0.3539
6.93127	0.3988
6.97152	0.7553
7.01176	0.8566
7.052	0.9333
7.09224	0.9505
7.13248	0.948
7.17273	0.9429
7.21297	0.8909
7.25321	0.8725
7.29345	0.869
7.33369	0.8251
7.37394	0.4429
7.41418	0.2252
7.45442	0.6674
7.49466	0.8345
7.5349	0.8923
7.57515	0.9
7.61539	0.8415
7.65563	0.7246
7.69587	0.5669
7.73611	0.5448
7.77636	0.6582
7.8166	0.7676
7.85684	0.803
7.89708	0.7091
7.93732	0.5398
7.97756	0.5584
8.01781	0.4622
8.05805	0.3259
8.09829	0.2976
8.13853	0.3443
8.17877	0.3695
8.21902	0.384
8.25926	0.388
8.2995	0.391
8.33974	0.3999
8.37998	0.5312
8.42023	0.7855
8.46047	0.8355
8.50071	0.7504
8.54095	0.5984
8.58119	0.4666
8.62144	0.407
8.66168	0.5275
8.70192	0.7851
8.74216	0.8474
8.7824	0.843
8.82265	0.8174
8.86289	0.6314
8.90313	0.5892
8.94337	0.7477
8.98361	0.7743
9.02386	0.783
9.0641	0.8008
9.10434	0.8122
9.14458	0.8014
9.18482	0.81
9.22506	0.7745
9.26531	0.6465
9.30555	0.4957
9.34579	0.4217
9.38603	0.4091
9.42627	0.4343
9.46652	0.4768
9.50676	0.5035
9.547	0.4959
9.58724	0.4994
9.62748	0.5987
9.66773	0.6917
9.70797	0.7361
9.74821	0.739
9.78845	0.7426
9.82869	0.745
9.86894	0.7542
9.90918	0.746
9.94942	0.7856
9.98966	0.863
10.0299	0.9004
10.0701	0.9272
10.1104	0.9495
10.1506	0.9644
10.1909	0.971
10.2311	0.975
10.2714	0.9683
10.3116	0.9487
10.3518	0.8968
10.3921	0.879
10.4323	0.8847
10.4726	0.8936
10.5128	0.891
10.553	0.8898
10.5933	0.868
10.6335	0.8398
10.6738	0.82
10.714	0.8187
10.7543	0.8465
10.7945	0.868
10.8347	0.8321
10.875	0.7501
10.9152	0.7483
10.9555	0.847
10.9957	0.905
11.036	0.9411
11.0762	0.9651
11.1164	0.9835
11.1567	0.996
11.1969	1.0021
11.2372	1.005
11.2774	1.0097
11.3176	1.0176
11.3579	1.019
11.3981	1.021
11.4384	1.0151
11.4786	1.0002
11.5189	0.9247
11.5591	0.7526
11.5993	0.6979
11.6396	0.8174
11.6798	0.9048
11.7201	0.9463
11.7603	0.963
11.8005	0.9768
11.8408	0.98
11.881	0.978
11.9213	0.974
11.9615	0.9583
12.0018	0.8984
12.042	0.8237
12.0822	0.7199
12.1225	0.6536
12.1627	0.6538
12.203	0.7169
12.2432	0.796
12.2835	0.8567
12.3237	0.8878
12.3639	0.8991
12.4042	0.9121
12.4444	0.9189
12.4847	0.9357
12.5249	0.9529
12.5651	0.9661
12.6054	0.975
12.6456	0.9758
12.6859	0.975
12.7261	0.975
12.7664	0.973
12.8066	0.9769
12.8468	0.977
12.8871	0.971
12.9273	0.971
12.9676	0.9719
13.0078	0.971
13.048	0.9753
13.0883	0.977
13.1285	0.9731
13.1688	0.9705
13.209	0.973
13.2493	0.975
13.2895	0.9761
13.3297	0.975
13.37	0.9772
13.4102	0.973
13.4505	0.973
13.4907	0.973
13.531	0.973
13.5712	0.9777
13.6114	0.984
13.6517	0.98
13.6919	0.9806
13.7322	0.982
13.7724	0.984
13.8126	0.986
13.8529	0.986
13.8931	0.982
13.9334	0.9892
13.9736	0.988
14.0139	0.988
14.0541	0.9845
14.0943	0.992
14.1346	0.998
14.1748	1.003
14.2151	1.011
14.2553	1.0204
14.2955	1.026
14.3358	1.03
14.376	1.0354
14.4163	1.0397
14.4565	1.043
14.4968	1.0473
14.537	1.047
14.5772	1.049
14.6175	1.049
14.6577	1.055
14.698	1.0636
14.7382	1.0653
14.7785	1.066
14.8187	1.068
14.8589	1.0663
14.8992	1.066
14.9394	1.065
14.9797	1.061
15.0199	1.063
15.0601	1.063
15.1004	1.0626
15.1406	1.051
15.1809	1.0421
15.2211	1.045
15.2614	1.045
15.3016	1.046
15.3418	1.047
15.3821	1.047
15.4223	1.0472
15.4626	1.051
