Infrared Spectrum: Chloropropylate
Formula: C 17 H 16 Cl 2 O 3
CAS: 5836-10-2
State: gas
Instrument: HP-GC/MS/IRD
Origin: NIST Mass Spectrometry Data Center
1/CM	ABSORBANCE
550	0.000609
562	2.1e-05
574	0.0006048
586	0.0011382
598	0.00042
610	0.0001764
622	9.66e-05
634	0.0001848
646	0.0001008
658	0.000189
670	0.000189
682	0.0003486
694	0.0004242
706	0.0006972
718	0.0009492
730	0.0013272
742	0.0023394
754	0.0058926
766	0.0028392
778	0.0034776
790	0.0050316
802	0.0090552
814	0.0144354
826	0.0186564
838	0.007098
850	0.002415
862	0.0014154
874	0.0012054
886	0.0016044
898	0.003864
910	0.0044226
922	0.0039942
934	0.0037926
946	0.0033852
958	0.003318
970	0.0058884
982	0.0081606
994	0.0042714
1006	0.0056448
1018	0.0169344
1030	0.0032298
1042	0.0035826
1054	0.0065142
1066	0.0141204
1078	0.0151368
1090	0.0316428
1102	0.0330876
1114	0.0197148
1126	0.0105924
1138	0.0089082
1150	0.010038
1162	0.0173376
1174	0.0128394
1186	0.0105042
1198	0.0121716
1210	0.0168546
1222	0.0212562
1234	0.0242634
1246	0.0319998
1258	0.0233142
1270	0.0103866
1282	0.005103
1294	0.0034986
1306	0.003423
1318	0.0030198
1330	0.0033516
1342	0.0043512
1354	0.0049518
1366	0.0052626
1378	0.007266
1390	0.0078246
1402	0.0067452
1414	0.003612
1426	0.0022134
1438	0.0022932
1450	0.0032718
1462	0.0054348
1474	0.0085806
1486	0.0223314
1498	0.0172872
1510	0.0032466
1522	0.0016212
1534	0.0011046
1546	0.0009828
1558	0.0011844
1570	0.001785
1582	0.0026586
1594	0.004599
1606	0.002163
1618	0.0012726
1630	0.0011886
1642	0.001407
1654	0.0014238
1666	0.0013146
1678	0.001533
1690	0.0021
1702	0.0029484
1714	0.0053424
1726	0.016779
1738	0.031143
1750	0.0138306
1762	0.0078078
1774	0.0035784
1786	0.0019992
1798	0.0010962
1810	0.0007518
1822	0.0005838
1834	0.000462
1846	0.000336
1858	0.0002646
1870	0.0003234
1882	0.0004872
1894	0.0008316
1906	0.0008358
1918	0.0004914
1930	0.0002772
1942	0.0001848
1954	0.0001512
1966	7.56e-05
1978	6.3e-05
1990	6.3e-05
2002	4.2e-05
2014	7.56e-05
2026	9.24e-05
2038	0.0001092
2050	0.0001428
2062	0.0001344
2074	0.0001386
2086	0.0001344
2098	0.0001218
2110	7.98e-05
2122	7.98e-05
2134	7.56e-05
2146	6.72e-05
2158	8.82e-05
2170	5.88e-05
2182	5.46e-05
2194	5.88e-05
2206	6.72e-05
2218	8.4e-05
2230	7.98e-05
2242	9.24e-05
2254	4.2e-05
2266	6.72e-05
2278	0.0001344
2290	0.0001596
2302	0.0001806
2314	0.000168
2326	0.0001218
2338	5.88e-05
2350	1.68e-05
2362	3.36e-05
2374	1.68e-05
2386	5.46e-05
2398	8.4e-05
2410	0.0001092
2422	0.000105
2434	6.3e-05
2446	3.36e-05
2458	7.56e-05
2470	6.72e-05
2482	6.72e-05
2494	8.82e-05
2506	7.56e-05
2518	8.82e-05
2530	0.0001386
2542	9.66e-05
2554	3.78e-05
2566	8.82e-05
2578	0.000126
2590	5.04e-05
2602	7.56e-05
2614	4.2e-05
2626	4.2e-06
2638	1.68e-05
2650	5.04e-05
2662	4.62e-05
2674	9.66e-05
2686	0.0001092
2698	0.000105
2710	0.000105
2722	0.0001134
2734	0.0001008
2746	0.0001974
2758	0.0001638
2770	0.000147
2782	0.0001134
2794	0.0001722
2806	0.0001764
2818	0.0002394
2830	0.0002814
2842	0.0003108
2854	0.000357
2866	0.000504
2878	0.0009744
2890	0.0013356
2902	0.0012054
2914	0.0013146
2926	0.0016464
2938	0.0030828
2950	0.003444
2962	0.002394
2974	0.0040152
2986	0.0128688
2998	0.0062328
3010	0.0022596
3022	0.0012516
3034	0.0011256
3046	0.0011382
3058	0.0009534
3070	0.0009366
3082	0.001659
3094	0.0019404
3106	0.0011466
3118	0.0005082
3130	0.0003444
3142	0.0002898
3154	0.0003024
3166	0.000252
3178	0.0002856
3190	0.000294
3202	0.0002604
3214	0.0001638
3226	0.0001344
3238	0.0001974
3250	0.0001386
3262	0.000105
3274	9.66e-05
3286	9.24e-05
3298	0.0001218
3310	3.78e-05
3322	0.000147
3334	0.0001344
3346	0.0001386
3358	0.0001176
3370	0.000168
3382	0.0001344
3394	0.0001848
3406	0.0002352
3418	0.0002478
3430	0.0003402
3442	0.0004494
3454	0.000483
3466	0.0006258
3478	0.0007518
3490	0.0011592
3502	0.001743
3514	0.0032466
3526	0.005397
3538	0.0056154
3550	0.00357
3562	0.0020328
3574	0.0011508
3586	0.000882
3598	0.0010836
3610	0.0024318
3622	0.0022344
3634	0.0005964
3646	0.0003486
3658	0.0002394
3670	0.0001134
3682	0.0001134
3694	0.0001092
3706	0.0001302
3718	8.82e-05
3730	8.82e-05
3742	0.000147
3754	0.0001512
3766	0.000105
3778	0.0001596
3790	7.98e-05
3802	0.000168
3814	0.000126
3826	0.0001596
3838	0.0001722
