Infrared Spectrum: 3,4-Dimethylcyclopentanone
Formula: C 7 H 12 O
CAS: 58372-16-0
State: gas
Instrument: HP-GC/MS/IRD
Origin: NIST Mass Spectrometry Data Center
1/CM	ABSORBANCE
550	0.0003565
562	0.0002691
574	0.0002047
586	8.97e-05
598	7.82e-05
610	3.45e-05
622	8.28e-05
634	0.0001081
646	0.000161
658	0.0002208
670	0.0001311
682	2.76e-05
694	3.91e-05
706	5.98e-05
718	0.0001242
730	0.0001679
742	0.0004094
754	0.000437
766	0.0003013
778	0.0001633
790	0.0001449
802	0.0002576
814	0.0002967
826	0.0002047
838	8.51e-05
850	0.0001081
862	7.59e-05
874	0.0001035
886	0.0001863
898	0.0002392
910	0.0003841
922	0.0003151
934	0.0001955
946	0.0001334
958	0.0001012
970	9.43e-05
982	0.0002438
994	0.0003611
1006	0.0004117
1018	0.0003082
1030	0.0001909
1042	0.00023
1054	0.0003266
1066	0.0005014
1078	0.00092
1090	0.001173
1102	0.0011224
1114	0.0009913
1126	0.0013225
1138	0.0025875
1150	0.0042849
1162	0.004025
1174	0.0022264
1186	0.0010534
1198	0.0007061
1210	0.0005106
1222	0.0006946
1234	0.001104
1246	0.0011017
1258	0.0006992
1270	0.0005267
1282	0.0007038
1294	0.0008027
1306	0.000713
1318	0.0004876
1330	0.000506
1342	0.0007291
1354	0.0007245
1366	0.0008004
1378	0.001495
1390	0.0020309
1402	0.0021183
1414	0.002323
1426	0.0017664
1438	0.0012006
1450	0.001472
1462	0.0016537
1474	0.0012397
1486	0.0006854
1498	0.0003496
1510	0.0002254
1522	0.0001564
1534	0.0001587
1546	0.0001725
1558	0.0001426
1570	0.0001886
1582	0.0002024
1594	0.0001817
1606	0.0002047
1618	0.0002507
1630	0.0002944
1642	0.0003335
1654	0.000345
1666	0.0003933
1678	0.0005244
1690	0.0006624
1702	0.0008602
1714	0.0013685
1726	0.002254
1738	0.0052923
1750	0.015686
1762	0.023
1774	0.0157573
1786	0.0039353
1798	0.001771
1810	0.0010511
1822	0.0006785
1834	0.0005566
1846	0.000391
1858	0.0002553
1870	0.0002162
1882	0.0001932
1894	0.000184
1906	0.0001541
1918	0.0001357
1930	0.0001196
1942	7.13e-05
1954	7.82e-05
1966	0.0001058
1978	0.0001196
1990	8.05e-05
2002	7.82e-05
2014	9.2e-05
2026	0.0001104
2038	9.43e-05
2050	9.43e-05
2062	0.0001081
2074	8.51e-05
2086	8.97e-05
2098	7.13e-05
2110	5.06e-05
2122	4.37e-05
2134	8.05e-05
2146	8.51e-05
2158	0.0001058
2170	7.59e-05
2182	6.21e-05
2194	6.44e-05
2206	6.9e-05
2218	8.28e-05
2230	6.67e-05
2242	7.59e-05
2254	5.98e-05
2266	6.9e-05
2278	3.68e-05
2290	5.98e-05
2302	7.82e-05
2314	8.74e-05
2326	2.99e-05
2338	3.68e-05
2350	5.06e-05
2362	2.99e-05
2374	4.14e-05
2386	5.52e-05
2398	8.51e-05
2410	7.13e-05
2422	7.36e-05
2434	4.37e-05
2446	4.6e-05
2458	6.67e-05
2470	2.3e-05
2482	3.45e-05
2494	3.91e-05
2506	1.61e-05
2518	1.84e-05
2530	4.14e-05
2542	2.99e-05
2554	2.53e-05
2566	6.21e-05
2578	5.52e-05
2590	4.83e-05
2602	6.67e-05
2614	8.05e-05
2626	9.66e-05
2638	8.51e-05
2650	0.0001104
2662	0.0001219
2674	0.0001541
2686	0.0001472
2698	0.000115
2710	6.67e-05
2722	7.59e-05
2734	0.0001518
2746	0.0001978
2758	0.0001955
2770	0.0001587
2782	0.0001748
2794	0.0002162
2806	0.000345
2818	0.0004278
2830	0.0005221
2842	0.0005106
2854	0.0007084
2866	0.0015364
2878	0.0033718
2890	0.0045126
2902	0.0047403
2914	0.0060812
2926	0.0075394
2938	0.0069644
2950	0.0076935
2962	0.0113183
2974	0.012443
2986	0.0061594
2998	0.0016813
3010	0.0006739
3022	0.0004968
3034	0.0004209
3046	0.0003772
3058	0.0002484
3070	0.000207
3082	0.0002185
3094	0.0002484
3106	0.0002185
3118	0.0002024
3130	0.0001311
3142	0.000115
3154	0.0001357
3166	0.0001541
3178	0.0002093
3190	0.0001587
3202	0.0001518
3214	0.0001288
3226	9.2e-05
3238	0.0001058
3250	6.67e-05
3262	9.43e-05
3274	3.45e-05
3286	4.83e-05
3298	4.14e-05
3310	5.98e-05
3322	3.22e-05
3334	0
3346	5.75e-05
3358	6.44e-05
3370	5.98e-05
3382	3.22e-05
3394	0.0001081
3406	8.51e-05
3418	6.44e-05
3430	6.9e-05
3442	7.13e-05
3454	8.97e-05
3466	0.0001104
3478	0.0002116
3490	0.0003542
3502	0.0005152
3514	0.0004554
3526	0.0002484
3538	0.0001564
3550	0.0001449
3562	9.66e-05
3574	9.66e-05
3586	5.06e-05
3598	8.74e-05
3610	5.98e-05
3622	8.51e-05
3634	8.51e-05
3646	8.28e-05
3658	5.98e-05
3670	5.98e-05
3682	4.37e-05
3694	2.76e-05
3706	6.44e-05
3718	7.13e-05
3730	2.3e-05
3742	7.82e-05
3754	8.51e-05
3766	4.6e-05
3778	8.05e-05
3790	0.0001035
3802	9.43e-05
3814	6.67e-05
3826	3.22e-05
3838	3.45e-05
