Infrared Spectrum: Ethyl tiglate
Formula: C 7 H 12 O 2
CAS: 5837-78-5
State: gas
Origin: EPA-IR VAPOR PHASE LIBRARY
1/CM	ABSORBANCE
549.9	0.002874
559.547	0.002907
569.193	0.00251
578.84	0.002298
588.486	0.002308
598.133	0.00227
607.779	0.00217
617.426	0.00213
627.072	0.00246
636.719	0.0035525
646.365	0.00722
656.012	0.00862
665.658	0.00653
675.305	0.00409
684.951	0.0038407
694.598	0.00448
704.245	0.00613
713.891	0.01166
723.538	0.02421
733.184	0.04163
742.831	0.03625
752.477	0.02362
762.124	0.01387
771.77	0.01177
781.417	0.01105
791.063	0.00943
800.71	0.00777
810.356	0.00726
820.003	0.00777
829.649	0.00824
839.296	0.00842
848.943	0.00971
858.589	0.01335
868.236	0.01571
877.882	0.01279
887.529	0.00768
897.175	0.00598
906.822	0.00599
916.468	0.00646
926.115	0.00765
935.761	0.00941
945.408	0.00964
955.054	0.00865
964.701	0.00823
974.347	0.00929
983.994	0.01249
993.64	0.01771
1003.29	0.02254
1012.93	0.02666
1022.58	0.03391
1032.23	0.04798
1041.87	0.066
1051.52	0.08016
1061.17	0.09439
1070.81	0.1217
1080.46	0.14007
1090.11	0.12214
1099.75	0.09031
1109.4	0.07463
1119.05	0.11243
1128.69	0.22905
1138.34	0.30646
1147.99	0.25751
1157.63	0.16791
1167.28	0.09882
1176.92	0.06295
1186.57	0.04136
1196.22	0.02844
1205.86	0.02638
1215.51	0.03261
1225.16	0.05269
1234.8	0.11155
1244.45	0.25822
1254.1	0.41682
1263.74	0.42821
1273.39	0.28603
1283.04	0.12625
1292.68	0.05737
1302.33	0.04061
1311.98	0.0313
1321.62	0.02416
1331.27	0.02497
1340.92	0.03043
1350.56	0.03136
1360.21	0.03491
1369.86	0.04574
1379.5	0.05288
1389.15	0.05305
1398.79	0.04371
1408.44	0.03005
1418.09	0.02405
1427.73	0.02434
1437.38	0.02771
1447.03	0.03152
1456.67	0.03353
1466.32	0.03441
1475.97	0.03092
1485.61	0.0231
1495.26	0.01716
1504.91	0.01405
1514.55	0.01267
1524.2	0.01179
1533.85	0.0112
1543.49	0.01042
1553.14	0.00975
1562.79	0.00903
1572.43	0.00868
1582.08	0.0088
1591.73	0.00917
1601.37	0.00957
1611.02	0.01015
1620.67	0.01146
1630.31	0.01542
1639.96	0.02683
1649.6	0.04602
1659.25	0.04846
1668.9	0.02989
1678.54	0.02299
1688.19	0.02722
1697.84	0.04082
1707.48	0.0829
1717.13	0.19335
1726.78	0.32204
1736.42	0.32798
1746.07	0.18109
1755.72	0.06579
1765.36	0.02708
1775.01	0.01891
1784.66	0.01594
1794.3	0.01182
1803.95	0.00821
1813.6	0.00595
1823.24	0.00485
1832.89	0.00437
1842.54	0.0041962
1852.18	0.0042484
1861.83	0.00437
1871.47	0.00464
1881.12	0.00515
1890.77	0.00576
1900.41	0.00625
1910.06	0.00627
1919.71	0.00573
1929.35	0.00493
1939	0.00429
1948.65	0.0039112
1958.29	0.0036465
1967.94	0.003446
1977.59	0.0034408
1987.23	0.0035991
1996.88	0.0039835
2006.53	0.0041875
2016.17	0.0040827
2025.82	0.0040056
2035.47	0.0037707
2045.11	0.0035338
2054.76	0.0033826
2064.41	0.0034329
2074.05	0.0035599
2083.7	0.0036286
2093.35	0.0034748
2102.99	0.00331639
2112.64	0.00328717
2122.28	0.0032543
2131.93	0.003128
2141.58	0.002968
2151.22	0.002822
2160.87	0.002612
2170.52	0.002696
2180.16	0.002773
2189.81	0.002884
2199.46	0.002815
2209.1	0.002758
2218.75	0.002681
2228.4	0.002677
2238.04	0.002656
2247.69	0.002693
2257.34	0.00271
2266.98	0.002813
2276.63	0.00277
2286.28	0.002732
2295.92	0.002755
2305.57	0.002758
2315.22	0.002652
2324.86	0.002547
2334.51	0.002457
2344.16	0.002372
2353.8	0.002333
2363.45	0.002303
2373.09	0.002583
2382.74	0.002998
2392.39	0.0033892
2402.03	0.003546
2411.68	0.0034076
2421.33	0.003143
2430.97	0.002984
2440.62	0.002754
2450.27	0.002653
2459.91	0.002617
2469.56	0.00266
2479.21	0.002664
2488.85	0.00266
2498.5	0.002698
2508.15	0.002708
2517.79	0.002716
2527.44	0.002589
2537.09	0.002546
2546.73	0.002308
2556.38	0.00214
2566.03	0.00207
2575.67	0.002
2585.32	0.00199
2594.96	0.00195
2604.61	0.00188
2614.26	0.0019
2623.9	0.00187
2633.55	0.00188
2643.2	0.00187
2652.84	0.00181
2662.49	0.00189
2672.14	0.00181
2681.78	0.00187
2691.43	0.0018
2701.08	0.00203
2710.72	0.002396
2720.37	0.002795
2730.02	0.0032447
2739.66	0.0035425
2749.31	0.0039262
2758.96	0.00429
2768.6	0.00434
2778.25	0.0042071
2787.9	0.0042048
2797.54	0.00448
2807.19	0.00524
2816.84	0.00617
2826.48	0.00745
2836.13	0.00925
2845.77	0.01219
2855.42	0.01793
2865.07	0.02781
2874.71	0.03581
2884.36	0.03847
2894.01	0.03957
2903.65	0.04352
2913.3	0.052
2922.95	0.06685
2932.59	0.08285
2942.24	0.08675
2951.89	0.07562
2961.53	0.06667
2971.18	0.07543
2980.83	0.09491
2990.47	0.09715
3000.12	0.07335
3009.77	0.05223
3019.41	0.03689
3029.06	0.02928
3038.71	0.02528
3048.35	0.02192
3058	0.01855
3067.64	0.01478
3077.29	0.01107
3086.94	0.00786
3096.58	0.00618
3106.23	0.00523
3115.88	0.004231
3125.52	0.0035271
3135.17	0.002986
3144.82	0.002343
3154.46	0.00193
3164.11	0.00177
3173.76	0.00142
3183.4	0.0012
3193.05	0.00111
3202.7	0.00092
3212.34	0.00074
3221.99	0.00051
3231.64	0.00024
3241.28	0.00031
3250.93	7e-05
3260.58	0.00019
3270.22	8e-05
3279.87	0.00013
3289.52	5e-05
3299.16	0.00021
3308.81	0.00018
3318.45	0.0002
3328.1	0.00028
3337.75	0.00038
3347.39	0.00025
3357.04	0.00054
3366.69	0.00062
3376.33	0.00101
3385.98	0.00106
3395.63	0.00113
3405.27	0.00089
3414.92	0.00125
3424.57	0.00207
3434.21	0.002952
3443.86	0.00336451
3453.51	0.00274
3463.15	0.00183
3472.8	0.00123
3482.45	0.00094
3492.09	0.00091
3501.74	0.00074
3511.39	0.00055
3521.03	0.00065
3530.68	0.00054
3540.33	0.00043
3549.97	0.00053
3559.62	0.00054
3569.26	0.00036
3578.91	0.00058
3588.56	0.00072
3598.2	0.00068
3607.85	0.00056
3617.5	0.00076
3627.14	0.0008
3636.79	0.00078
3646.44	0.00066
3656.08	0.00081
3665.73	0.00088
3675.38	0.00089
3685.02	0.00101
3694.67	0.00104
3704.32	0.00104
3713.96	0.00111
3723.61	0.00121
3733.26	0.00121
3742.9	0.00105
3752.55	0.00122
3762.2	0.00134
3771.84	0.00113
3781.49	0.00131
3791.13	0.00137
3800.78	0.00131
3810.43	0.0014
3820.07	0.00124
3829.72	0.00129
3839.37	0.00128
3849.01	0.00147
3858.66	0.00142
3868.31	0.00131
3877.95	0.00145
3887.6	0.00147
3897.25	0.00148
3906.89	0.00156
3916.54	0.0015
3926.19	0.00155
3935.83	0.00174
3945.48	0.00158
3955.13	0.0017
3964.77	0.0018
3974.42	0.00177
3984.07	0.00183
3993.71	0.00183
