Infrared Spectrum: PENTANOIC ACID, 2,2-DIMETHYL-, ETHYL ESTER
Formula: C9 H18 O2
CAS: 5837-93-4
State: LIQUID (NEAT)
Class: COBLENTZ III
Instrument: PERKIN-ELMER 521 (GRATING)
Instrument parameters: FILTERS AT 3150, 2500, 2000, 1150, 700, 410 AND GRATING CHANGES AT 2000, 630 CM^-^1
Sampling: TRANSMISSION
Path length: SMEAR, KBr CRYSTALS
Resolution: 4
Origin: STANDARD OIL OF OHIO
1/CM	TRANSMITTANCE
255.933	0.06
265.474	0.064
275.015	0.069
284.556	0.083
294.096	0.1
303.637	0.126
313.178	0.159
322.719	0.19
332.26	0.223
341.801	0.279
351.342	0.354
360.882	0.419
370.423	0.447
379.964	0.488
389.505	0.575
399.046	0.617
408.587	0.678
418.128	0.726
427.668	0.758
437.209	0.784
446.75	0.813
456.291	0.826
465.832	0.835
475.373	0.844
484.914	0.863
494.455	0.87
503.995	0.871
513.536	0.864
523.077	0.871
532.618	0.88
542.159	0.89
551.7	0.891
561.241	0.892
570.781	0.895
580.322	0.892
589.863	0.888
599.404	0.871
608.945	0.878
618.486	0.891
628.027	0.878
637.567	0.879
647.108	0.878
656.649	0.882
666.19	0.883
675.731	0.883
685.272	0.882
694.813	0.882
704.353	0.88
713.894	0.877
723.435	0.87
732.976	0.835
742.517	0.823
752.058	0.855
761.599	0.816
771.139	0.709
780.68	0.829
790.221	0.859
799.762	0.861
809.303	0.853
818.844	0.861
828.385	0.867
837.926	0.864
847.466	0.842
857.007	0.722
866.548	0.784
876.089	0.841
885.63	0.84
895.171	0.86
904.712	0.86
914.252	0.836
923.793	0.832
933.334	0.848
942.875	0.81
952.416	0.847
961.957	0.809
971.498	0.848
981.038	0.851
990.579	0.841
1000.12	0.802
1009.66	0.734
1019.2	0.6
1028.74	0.485
1038.28	0.661
1047.82	0.758
1057.37	0.72
1066.91	0.641
1076.45	0.728
1085.99	0.633
1095.53	0.601
1105.07	0.673
1114.61	0.654
1124.15	0.632
1133.69	0.3909
1143.23	0.173
1152.77	0.125
1162.31	0.195
1171.86	0.229
1181.4	0.4201
1190.94	0.586
1200.48	0.601
1210.02	0.514
1219.56	0.388
1229.1	0.421
1238.64	0.527
1248.18	0.515
1257.72	0.544
1267.26	0.653
1276.81	0.619
1286.35	0.595
1295.89	0.5959
1305.43	0.5361
1314.97	0.671
1324.51	0.6391
1334.05	0.782
1343.59	0.804
1353.13	0.778
1362.67	0.626
1372.21	0.694
1381.75	0.6069
1391.3	0.583
1400.84	0.739
1410.38	0.792
1419.92	0.786
1429.46	0.765
1439	0.68
1448.54	0.54
1458.08	0.478
1467.62	0.464
1477.16	0.4351
1486.7	0.711
1496.24	0.801
1505.79	0.832
1515.33	0.834
1524.87	0.838
1534.41	0.834
1543.95	0.832
1553.49	0.842
1563.03	0.853
1572.57	0.858
1582.11	0.857
1591.65	0.858
1601.19	0.859
1610.74	0.855
1620.28	0.851
1629.82	0.847
1639.36	0.848
1648.9	0.842
1658.44	0.838
1667.98	0.825
1677.52	0.796
1687.06	0.738
1696.6	0.71
1706.14	0.664
1715.68	0.4829
1725.23	0.1249
1734.77	0.1
1744.31	0.4111
1753.85	0.629
1763.39	0.73
1772.93	0.771
1782.47	0.809
1792.01	0.828
1801.55	0.84
1811.09	0.846
1820.63	0.853
1830.18	0.855
1839.72	0.86
1849.26	0.861
1858.8	0.863
1868.34	0.859
1877.88	0.859
1887.42	0.855
1896.96	0.855
1906.5	0.858
1916.04	0.858
1925.58	0.86
1935.12	0.863
1944.67	0.863
1954.21	0.864
1963.75	0.864
1973.29	0.864
1982.83	0.864
1992.37	0.863
2001.91	0.859
2011.45	0.86
2020.99	0.861
2030.53	0.863
2040.07	0.865
2049.61	0.865
2059.16	0.865
2068.7	0.865
2078.24	0.866
2087.78	0.865
2097.32	0.866
2106.86	0.865
2116.4	0.866
2125.94	0.866
2135.48	0.865
2145.02	0.865
2154.56	0.865
2164.11	0.8651
2173.65	0.8669
2183.19	0.866
2192.73	0.866
2202.27	0.8672
2211.81	0.869
2221.35	0.869
2230.89	0.867
2240.43	0.867
2249.97	0.866
2259.51	0.865
2269.05	0.865
2278.6	0.865
2288.14	0.863
2297.68	0.863
2307.22	0.863
2316.76	0.8632
2326.3	0.865
2335.84	0.865
2345.38	0.865
2354.92	0.866
2364.46	0.867
2374	0.866
2383.54	0.865
2393.09	0.865
2402.63	0.864
2412.17	0.8652
2421.71	0.869
2431.25	0.87
2440.79	0.869
2450.33	0.8657
2459.87	0.8653
2469.41	0.8681
2478.95	0.864
2488.49	0.864
2498.04	0.8637
2507.58	0.864
2517.12	0.864
2526.66	0.863
2536.2	0.865
2545.74	0.8617
2555.28	0.863
2564.82	0.86
2574.36	0.86
2583.9	0.859
2593.44	0.86
2602.98	0.86
2612.53	0.858
2622.07	0.858
2631.61	0.8576
2641.15	0.8562
2650.69	0.8574
2660.23	0.859
2669.77	0.859
2679.31	0.86
2688.85	0.86
2698.39	0.8586
2707.93	0.8526
2717.48	0.8461
2727.02	0.839
2736.56	0.8414
2746.1	0.845
2755.64	0.844
2765.18	0.8429
2774.72	0.844
2784.26	0.841
2793.8	0.8366
2803.34	0.8191
2812.88	0.806
2822.42	0.788
2831.97	0.766
2841.51	0.7113
2851.05	0.6394
2860.59	0.5791
2870.13	0.378
2879.67	0.5077
2889.21	0.5146
2898.75	0.458
2908.29	0.438
2917.83	0.405
2927.37	0.3037
2936.91	0.3038
2946.46	0.3051
2956	0.1865
2965.54	0.2165
2975.08	0.2404
2984.62	0.3293
2994.16	0.511
3003.7	0.6635
3013.24	0.7488
3022.78	0.7968
3032.32	0.8153
3041.86	0.8285
3051.41	0.835
3060.95	0.8386
3070.49	0.842
3080.03	0.846
3089.57	0.847
3099.11	0.848
3108.65	0.8463
3118.19	0.853
3127.73	0.849
3137.27	0.8477
3146.81	0.847
3156.35	0.845
3165.9	0.844
3175.44	0.8426
3184.98	0.842
3194.52	0.842
3204.06	0.846
3213.6	0.848
3223.14	0.8495
3232.68	0.851
3242.22	0.851
3251.76	0.852
3261.3	0.852
3270.85	0.853
3280.39	0.853
3289.93	0.853
3299.47	0.853
3309.01	0.852
3318.55	0.8522
3328.09	0.852
3337.63	0.851
3347.17	0.8508
3356.71	0.851
3366.25	0.851
3375.79	0.85
3385.34	0.851
3394.88	0.8483
3404.42	0.848
3413.96	0.8461
3423.5	0.84
3433.04	0.834
3442.58	0.833
3452.12	0.8395
3461.66	0.848
3471.2	0.852
3480.74	0.853
3490.28	0.853
3499.83	0.8511
3509.37	0.852
3518.91	0.8501
3528.45	0.85
3537.99	0.848
3547.53	0.848
3557.07	0.847
3566.61	0.8498
3576.15	0.852
3585.69	0.851
3595.23	0.855
3604.78	0.852
3614.32	0.852
3623.86	0.8471
3633.4	0.8539
3642.94	0.842
3652.48	0.853
3662.02	0.855
3671.56	0.842
3681.1	0.8549
3690.64	0.854
3700.18	0.8569
3709.72	0.853
3719.27	0.853
3728.81	0.8498
3738.35	0.8438
3747.89	0.8422
3757.43	0.853
3766.97	0.855
3776.51	0.8549
3786.05	0.855
3795.59	0.85
3805.13	0.852
3814.67	0.8497
3824.21	0.85
3833.76	0.8473
3843.3	0.851
3852.84	0.8484
3862.38	0.852
3871.92	0.852
3881.46	0.8529
3891	0.851
3900.54	0.8501
3910.08	0.853
3919.62	0.852
3929.16	0.854
3938.71	0.854
3948.25	0.853
3957.79	0.852
3967.33	0.853
3976.87	0.854
3986.41	0.853
