Infrared Spectrum: 2-ISOPROPYLIDENEBUTANEDIOIC ACID
Formula: C7 H10 O4
CAS: 584-27-0
State: SOLID (KBr PELLET)
Melting point: 174-175 C
Class: COBLENTZ
Instrument: Not specified, most likely a prism, grating, or hybrid spectrometer.
Sampling: TRANSMISSION
Resolution: 4
Origin: TENNESSEE EASTMAN COMPANY, RESEARCH LABORATORIES
MICROMETERS	TRANSMITTANCE
2.041	0.971
2.08214	0.962
2.12328	0.952
2.16442	0.925
2.20556	0.906
2.2467	0.887
2.28784	0.873
2.32898	0.867
2.37012	0.858
2.41126	0.843
2.4524	0.838
2.49354	0.836
2.53468	0.833
2.57582	0.833
2.61696	0.831
2.6581	0.826
2.69924	0.814
2.74038	0.734
2.78152	0.633
2.82266	0.565
2.8638	0.534
2.90494	0.524
2.94608	0.557
2.98722	0.597
3.02836	0.616
3.0695	0.618
3.11064	0.609
3.15178	0.584
3.19292	0.533
3.23405	0.488
3.27519	0.456
3.31633	0.448
3.35747	0.419
3.39861	0.429
3.43975	0.448
3.48089	0.482
3.52203	0.534
3.56317	0.555
3.60431	0.57
3.64545	0.58
3.68659	0.594
3.72773	0.596
3.76887	0.591
3.81001	0.587
3.85115	0.589
3.89229	0.604
3.93343	0.63
3.97457	0.669
4.01571	0.703
4.05685	0.735
4.09799	0.756
4.13913	0.785
4.18027	0.802
4.22141	0.812
4.26255	0.817
4.30369	0.821
4.34483	0.848
4.38597	0.867
4.42711	0.872
4.46825	0.879
4.50939	0.894
4.55053	0.899
4.59167	0.902
4.63281	0.904
4.67395	0.908
4.71509	0.913
4.75623	0.914
4.79737	0.919
4.83851	0.918
4.87965	0.918
4.92079	0.923
4.96193	0.923
5.00307	0.923
5.04421	0.923
5.08535	0.923
5.12649	0.923
5.16763	0.923
5.20877	0.923
5.24991	0.923
5.29105	0.923
5.33219	0.923
5.37333	0.923
5.41447	0.921
5.45561	0.908
5.49675	0.901
5.53788	0.889
5.57902	0.882
5.62016	0.882
5.6613	0.875
5.70244	0.846
5.74358	0.788
5.78472	0.562
5.82586	0.131
5.867	0.102
5.90814	0.201
5.94928	0.563
5.99042	0.543
6.03156	0.412
6.0727	0.587
6.11384	0.574
6.15498	0.412
6.19612	0.589
6.23726	0.77
6.2784	0.853
6.31954	0.872
6.36068	0.887
6.40182	0.892
6.44296	0.896
6.4841	0.904
6.52524	0.914
6.56638	0.918
6.60752	0.921
6.64866	0.921
6.6898	0.921
6.73094	0.911
6.77208	0.885
6.81322	0.839
6.85436	0.781
6.8955	0.688
6.93664	0.608
6.97778	0.461
7.01892	0.529
7.06006	0.643
7.1012	0.681
7.14234	0.768
7.18348	0.824
7.22462	0.822
7.26576	0.8
7.3069	0.8
7.34804	0.844
7.38918	0.843
7.43032	0.715
7.47146	0.621
7.5126	0.722
7.55374	0.662
7.59488	0.601
7.63602	0.587
7.67716	0.497
7.7183	0.442
7.75944	0.63
7.80058	0.749
7.84172	0.79
7.88285	0.706
7.92399	0.422
7.96513	0.39
8.00627	0.647
8.04741	0.71
8.08855	0.54
8.12969	0.487
8.17083	0.589
8.21197	0.507
8.25311	0.681
8.29425	0.792
8.33539	0.836
8.37653	0.853
8.41767	0.865
8.45881	0.875
8.49995	0.89
8.54109	0.901
8.58223	0.911
8.62337	0.914
8.66451	0.916
8.70565	0.911
8.74679	0.902
8.78793	0.901
8.82907	0.909
8.87021	0.913
8.91135	0.913
8.95249	0.914
8.99363	0.914
9.03477	0.901
9.07591	0.885
9.11705	0.86
9.15819	0.831
9.19933	0.831
9.24047	0.851
9.28161	0.875
9.32275	0.884
9.36389	0.89
9.40503	0.906
9.44617	0.906
9.48731	0.909
9.52845	0.913
9.56959	0.911
9.61073	0.913
9.65187	0.911
9.69301	0.913
9.73415	0.914
9.77529	0.914
9.81643	0.913
9.85757	0.914
9.89871	0.914
9.93985	0.914
9.98099	0.913
10.0221	0.914
10.0633	0.906
10.1044	0.894
10.1455	0.88
10.1867	0.868
10.2278	0.838
10.269	0.81
10.3101	0.768
10.3512	0.705
10.3924	0.638
10.4335	0.591
10.4747	0.551
10.5158	0.529
10.5569	0.517
10.5981	0.512
10.6392	0.536
10.6804	0.584
10.7215	0.64
10.7626	0.693
10.8038	0.741
10.8449	0.783
10.8861	0.821
10.9272	0.839
10.9683	0.848
11.0095	0.85
11.0506	0.851
11.0918	0.875
11.1329	0.902
11.174	0.916
11.2152	0.923
11.2563	0.923
11.2975	0.93
11.3386	0.928
11.3797	0.925
11.4209	0.921
11.462	0.931
11.5032	0.954
11.5443	0.957
11.5854	0.965
11.6266	0.969
11.6677	0.969
11.7089	0.965
11.75	0.962
11.7911	0.964
11.8323	0.964
11.8734	0.964
11.9146	0.962
11.9557	0.962
11.9968	0.962
12.038	0.962
12.0791	0.962
12.1203	0.952
12.1614	0.95
12.2025	0.943
12.2437	0.916
12.2848	0.872
12.326	0.802
12.3671	0.795
12.4082	0.858
12.4494	0.901
12.4905	0.923
12.5317	0.931
12.5728	0.947
12.6139	0.954
12.6551	0.954
12.6962	0.954
12.7374	0.959
12.7785	0.964
12.8196	0.964
12.8608	0.964
12.9019	0.964
12.9431	0.962
12.9842	0.936
13.0253	0.913
13.0665	0.901
13.1076	0.923
13.1488	0.948
13.1899	0.971
13.231	0.981
13.2722	0.984
13.3133	0.984
13.3545	0.988
13.3956	0.993
13.4367	0.998
13.4779	1
13.519	0.996
13.5602	0.991
13.6013	0.989
13.6424	0.989
13.6836	0.991
13.7247	0.991
13.7658	0.989
13.807	0.972
13.8481	0.95
13.8893	0.896
13.9304	0.862
13.9715	0.858
14.0127	0.896
14.0538	0.921
14.095	0.943
14.1361	0.95
14.1772	0.957
14.2184	0.962
14.2595	0.969
14.3007	0.976
14.3418	0.977
14.3829	0.981
14.4241	0.982
14.4652	0.982
14.5064	0.984
14.5475	0.988
14.5886	0.986
14.6298	0.988
14.6709	0.986
14.7121	0.986
14.7532	0.986
14.7943	0.986
14.8355	0.986
14.8766	0.986
14.9178	0.981
14.9589	0.955
15	0.928
15.0412	0.916
15.0823	0.916
15.1235	0.909
15.1646	0.87
15.2057	0.817
15.2469	0.763
15.288	0.718
15.3292	0.71
15.3703	0.718
15.4114	0.739
15.4526	0.754
15.4937	0.766
15.5349	0.775
15.576	0.776
15.6171	0.778
15.6583	0.778
15.6994	0.78
15.7406	0.773
15.7817	0.761
15.8228	0.749
15.864	0.734
15.9051	0.713
15.9463	0.71
15.9874	0.71
