Infrared Spectrum: Allethrin
Formula: C 19 H 26 O 3
CAS: 584-79-2
State: gas
Instrument: HP-GC/MS/IRD
Origin: NIST Mass Spectrometry Data Center
1/CM	ABSORBANCE
550	0.0012615
562	0.000145
574	0.00058
586	0.0007975
598	0.001247
610	0.0012035
622	0.000522
634	0.0002175
646	0
658	4.35e-05
670	0.0002755
682	0.000551
694	0.0003625
706	0.000261
718	0.000638
730	0.0016095
742	0.0019865
754	0.0015515
766	0.0012905
778	0.000986
790	0.000957
802	0.001479
814	0.0024215
826	0.002929
838	0.0046835
850	0.0074095
862	0.006119
874	0.004176
886	0.0038425
898	0.0050025
910	0.010498
922	0.011049
934	0.0086275
946	0.0073225
958	0.008236
970	0.0097875
982	0.014123
994	0.0206625
1006	0.019082
1018	0.01914
1030	0.020213
1042	0.020851
1054	0.0205465
1066	0.020474
1078	0.018618
1090	0.015341
1102	0.0186615
1114	0.033959
1126	0.0408755
1138	0.0710355
1150	0.09657
1162	0.0497205
1174	0.0288695
1186	0.0277095
1198	0.023693
1210	0.0195605
1222	0.024853
1234	0.024621
1246	0.0246355
1258	0.0183715
1270	0.0161095
1282	0.0181975
1294	0.0140795
1306	0.0111505
1318	0.014239
1330	0.0146595
1342	0.0146885
1354	0.0154425
1366	0.0132675
1378	0.0171535
1390	0.018966
1402	0.0132095
1414	0.0179655
1426	0.0172695
1438	0.0139635
1450	0.0117595
1462	0.009947
1474	0.005655
1486	0.0035235
1498	0.0026535
1510	0.0022475
1522	0.0020445
1534	0.0018705
1546	0.0016675
1558	0.0015515
1570	0.001479
1582	0.0014355
1594	0.001537
1606	0.0018995
1618	0.0027405
1630	0.0050895
1642	0.0086565
1654	0.0113825
1666	0.0079605
1678	0.0048575
1690	0.006583
1702	0.0099905
1714	0.0217065
1726	0.081548
1738	0.130732
1750	0.0382365
1762	0.012354
1774	0.0059885
1786	0.003625
1798	0.0023925
1810	0.001798
1822	0.001769
1834	0.0016095
1846	0.0010005
1858	0.0005655
1870	0.000377
1882	0.0003045
1894	0.000261
1906	0.000232
1918	0.000174
1930	0.000145
1942	0.000145
1954	0.000203
1966	0.0002175
1978	0.0001885
1990	0.000145
2002	0.0001595
2014	8.7e-05
2026	0.000116
2038	0.0001595
2050	0.000145
2062	0.000145
2074	0.0001305
2086	0.0001015
2098	0.0001305
2110	0.0001305
2122	4.35e-05
2134	1.45e-05
2146	2.9e-05
2158	1.45e-05
2170	0
2182	1.45e-05
2194	5.8e-05
2206	0.0001015
2218	7.25e-05
2230	5.8e-05
2242	4.35e-05
2254	0.0001015
2266	8.7e-05
2278	0.000116
2290	0.0001305
2302	0.000145
2314	0.000116
2326	0.0001015
2338	0.0001015
2350	0.000116
2362	0.0001305
2374	0.000145
2386	0.0001015
2398	0.0001015
2410	7.25e-05
2422	0.000116
2434	0.0001015
2446	5.8e-05
2458	2.9e-05
2470	4.35e-05
2482	2.9e-05
2494	0
2506	2.9e-05
2518	2.9e-05
2530	5.8e-05
2542	2.9e-05
2554	8.7e-05
2566	7.25e-05
2578	7.25e-05
2590	4.35e-05
2602	4.35e-05
2614	8.7e-05
2626	7.25e-05
2638	0.0001015
2650	0.0001305
2662	0.000145
2674	0.0001885
2686	0.0002465
2698	0.00029
2710	0.0003625
2722	0.0005655
2734	0.0010585
2746	0.0016095
2758	0.0012035
2770	0.0009135
2782	0.000957
2794	0.000986
2806	0.001334
2818	0.001856
2830	0.0026825
2842	0.004205
2854	0.006554
2866	0.0108025
2878	0.01421
2890	0.014732
2902	0.01566
2914	0.0213585
2926	0.0289275
2938	0.027028
2950	0.0259405
2962	0.0228955
2974	0.0189805
2986	0.018734
2998	0.012528
3010	0.0092655
3022	0.007946
3034	0.006322
3046	0.0056405
3058	0.0045675
3070	0.0041905
3082	0.005104
3094	0.005423
3106	0.0022475
3118	0.0015515
3130	0.001218
3142	0.000957
3154	0.0007395
3166	0.000609
3178	0.0004205
3190	0.0003915
3202	0.000261
3214	0.000174
3226	0.0001885
3238	0.0001595
3250	0.000116
3262	0.0001305
3274	0.0001305
3286	0.000116
3298	0.0001305
3310	0.0001015
3322	8.7e-05
3334	0.0001305
3346	4.35e-05
3358	0.000145
3370	0.0001595
3382	0.000232
3394	0.000261
3406	0.0002465
3418	0.000377
3430	0.00058
3442	0.001537
3454	0.0016385
3466	0.000957
3478	0.00058
3490	0.0003045
3502	0.0002465
3514	0.000174
3526	0.0001015
3538	4.35e-05
3550	0
3562	5.8e-05
3574	0.000145
3586	0.0001015
3598	0.0001015
3610	0
3622	7.25e-05
3634	4.35e-05
3646	1.45e-05
3658	7.25e-05
3670	4.35e-05
3682	7.25e-05
3694	5.8e-05
3706	8.7e-05
3718	4.35e-05
3730	0.000116
3742	8.7e-05
3754	0.000174
3766	0.000116
3778	0.0001595
3790	0.0001885
3802	0.0002465
3814	0.0001885
3826	0.0002175
3838	0.000232
