Infrared Spectrum: 4-BROMO-3-NITROBENZENE SULFONIC ACID
Formula: C6 H4 Br N O5 S
CAS: 584-49-6
State: SOLID (MINERAL OIL MULL)
Melting point: 87-88 C
Class: COBLENTZ
Instrument: Not specified, most likely a prism, grating, or hybrid spectrometer.
Sampling: TRANSMISSION
Resolution: 4
Origin: WYANDOTTE CHEMICALS CORP., WYANDOTTE, MICHIGAN, USA
MICROMETERS	TRANSMITTANCE
2.02	0.813
2.06082	0.817
2.10164	0.822
2.14245	0.829
2.18327	0.839
2.22409	0.848
2.26491	0.854
2.30572	0.87
2.34654	0.878
2.38736	0.883
2.42818	0.889
2.46899	0.897
2.50981	0.911
2.55063	0.923
2.59145	0.933
2.63226	0.952
2.67308	0.955
2.7139	0.909
2.75472	0.791
2.79553	0.622
2.83635	0.525
2.87717	0.489
2.91799	0.443
2.9588	0.423
2.99962	0.416
3.04044	0.414
3.08126	0.411
3.12207	0.404
3.16289	0.39
3.20371	0.377
3.24453	0.343
3.28534	0.327
3.32616	0.209
3.36698	0.049
3.4078	0.029
3.44861	0.034
3.48943	0.039
3.53025	0.131
3.57107	0.307
3.61188	0.373
3.6527	0.397
3.69352	0.402
3.73434	0.421
3.77515	0.431
3.81597	0.443
3.85679	0.452
3.89761	0.472
3.93842	0.493
3.97924	0.506
4.02006	0.52
4.06088	0.527
4.10169	0.532
4.14251	0.54
4.18333	0.556
4.22415	0.558
4.26496	0.547
4.30578	0.552
4.3466	0.563
4.38742	0.575
4.42823	0.563
4.46905	0.559
4.50987	0.558
4.55069	0.551
4.5915	0.552
4.63232	0.558
4.67314	0.563
4.71396	0.568
4.75477	0.578
4.79559	0.581
4.83641	0.585
4.87723	0.585
4.91805	0.587
4.95886	0.59
4.99968	0.593
5.0405	0.597
5.08132	0.597
5.12213	0.597
5.16295	0.593
5.20377	0.585
5.24459	0.578
5.2854	0.573
5.32622	0.558
5.36704	0.544
5.40786	0.544
5.44867	0.523
5.48949	0.523
5.53031	0.503
5.57113	0.498
5.61194	0.489
5.65276	0.479
5.69358	0.474
5.7344	0.467
5.77521	0.462
5.81603	0.45
5.85685	0.441
5.89767	0.448
5.93848	0.438
5.9793	0.447
6.02012	0.441
6.06094	0.464
6.10175	0.484
6.14257	0.522
6.18339	0.561
6.22421	0.426
6.26502	0.462
6.30584	0.501
6.34666	0.397
6.38748	0.46
6.42829	0.452
6.46911	0.329
6.50993	0.279
6.55075	0.37
6.59156	0.467
6.63238	0.534
6.6732	0.547
6.71402	0.506
6.75483	0.392
6.79565	0.194
6.83647	0.213
6.87729	0.32
6.9181	0.428
6.95892	0.573
6.99974	0.622
7.04056	0.65
7.08137	0.65
7.12219	0.638
7.16301	0.592
7.20383	0.47
7.24464	0.319
7.28546	0.356
7.32628	0.344
7.3671	0.284
7.40791	0.281
7.44873	0.312
7.48955	0.337
7.53037	0.402
7.57118	0.452
7.612	0.491
7.65282	0.5
7.69364	0.5
7.73445	0.457
7.77527	0.464
7.81609	0.472
7.85691	0.436
7.89773	0.373
7.93854	0.343
7.97936	0.343
8.02018	0.293
8.061	0.25
8.10181	0.235
8.14263	0.237
8.18345	0.244
8.22427	0.25
8.26508	0.254
8.3059	0.261
8.34672	0.264
8.38754	0.259
8.42835	0.262
8.46917	0.264
8.50999	0.262
8.55081	0.244
8.59162	0.242
8.63244	0.247
8.67326	0.25
8.71408	0.261
8.75489	0.267
8.79571	0.255
8.83653	0.24
8.87735	0.247
8.91816	0.261
8.95898	0.257
8.9998	0.259
9.04062	0.259
9.08143	0.269
9.12225	0.279
9.16307	0.291
9.20389	0.295
9.2447	0.308
9.28552	0.32
9.32634	0.331
9.36716	0.339
9.40797	0.336
9.44879	0.303
9.48961	0.274
9.53043	0.254
9.57124	0.249
9.61206	0.267
9.65288	0.245
9.6937	0.215
9.73451	0.196
9.77533	0.194
9.81615	0.203
9.85697	0.213
9.89778	0.221
9.9386	0.245
9.97942	0.261
10.0202	0.281
10.0611	0.3
10.1019	0.312
10.1427	0.325
10.1835	0.339
10.2243	0.349
10.2651	0.353
10.306	0.368
10.3468	0.383
10.3876	0.401
10.4284	0.414
10.4692	0.418
10.51	0.443
10.5509	0.45
10.5917	0.459
10.6325	0.474
10.6733	0.488
10.7141	0.494
10.755	0.498
10.7958	0.511
10.8366	0.522
10.8774	0.53
10.9182	0.539
10.959	0.549
10.9999	0.549
11.0407	0.544
11.0815	0.539
11.1223	0.517
11.1631	0.482
11.2039	0.459
11.2448	0.433
11.2856	0.389
11.3264	0.38
11.3672	0.431
11.408	0.484
11.4489	0.523
11.4897	0.537
11.5305	0.549
11.5713	0.563
11.6121	0.576
11.6529	0.585
11.6938	0.59
11.7346	0.597
11.7754	0.604
11.8162	0.598
11.857	0.563
11.8978	0.498
11.9387	0.412
11.9795	0.401
12.0203	0.436
12.0611	0.53
12.1019	0.598
12.1427	0.617
12.1836	0.638
12.2244	0.653
12.2652	0.668
12.306	0.672
12.3468	0.682
12.3877	0.691
12.4285	0.701
12.4693	0.706
12.5101	0.708
12.5509	0.711
12.5917	0.721
12.6326	0.723
12.6734	0.723
12.7142	0.723
12.755	0.709
12.7958	0.658
12.8366	0.529
12.8775	0.423
12.9183	0.399
12.9591	0.477
12.9999	0.563
13.0407	0.604
13.0816	0.638
13.1224	0.662
13.1632	0.67
13.204	0.674
13.2448	0.641
13.2856	0.547
13.3265	0.508
13.3673	0.569
13.4081	0.631
13.4489	0.663
13.4897	0.68
13.5305	0.687
13.5714	0.691
13.6122	0.692
13.653	0.696
13.6938	0.697
13.7346	0.697
13.7755	0.696
13.8163	0.692
13.8571	0.689
13.8979	0.682
13.9387	0.692
13.9795	0.708
14.0204	0.725
14.0612	0.726
14.102	0.73
14.1428	0.737
14.1836	0.738
14.2244	0.737
14.2653	0.737
14.3061	0.728
14.3469	0.716
14.3877	0.711
14.4285	0.682
14.4693	0.656
14.5102	0.621
14.551	0.598
14.5918	0.592
14.6326	0.597
14.6734	0.607
14.7143	0.605
14.7551	0.598
14.7959	0.587
14.8367	0.566
14.8775	0.532
14.9183	0.506
14.9592	0.469
15	0.431
15.0408	0.377
15.0816	0.32
15.1224	0.296
15.1632	0.3
15.2041	0.337
15.2449	0.387
15.2857	0.419
15.3265	0.452
15.3673	0.467
15.4082	0.476
15.449	0.462
15.4898	0.45
15.5306	0.433
15.5714	0.416
15.6122	0.397
15.6531	0.377
15.6939	0.363
15.7347	0.361
15.7755	0.363
15.8163	0.368
15.8571	0.372
15.898	0.382
15.9388	0.392
15.9796	0.401
