Infrared Spectrum: 2,3-OCTANEDIONE 3-OXIME
Formula: C8 H15 N O2
CAS: 584-92-9
State: SOLID (MINERAL OIL MULL)
Melting point: 59-61 C
Class: COBLENTZ
Instrument: Not specified, most likely a prism, grating, or hybrid spectrometer.
Sampling: TRANSMISSION
Resolution: 4
Origin: WYANDOTTE CHEMICALS CORP., WYANDOTTE, MICHIGAN, USA
MICROMETERS	TRANSMITTANCE
2.027	0.737
2.06675	0.746
2.10651	0.751
2.14626	0.751
2.18601	0.733
2.22577	0.728
2.26552	0.746
2.30527	0.754
2.34503	0.762
2.38478	0.774
2.42453	0.789
2.46429	0.794
2.50404	0.797
2.5438	0.819
2.58355	0.825
2.6233	0.832
2.66306	0.849
2.70281	0.85
2.74256	0.857
2.78232	0.852
2.82207	0.842
2.86182	0.817
2.90158	0.762
2.94133	0.676
2.98108	0.55
3.02084	0.356
3.06059	0.207
3.10034	0.157
3.1401	0.124
3.17985	0.162
3.2196	0.233
3.25936	0.213
3.29911	0.2
3.33886	0.137
3.37862	0.051
3.41837	0.056
3.45813	0.061
3.49788	0.064
3.53763	0.283
3.57739	0.432
3.61714	0.484
3.65689	0.54
3.69665	0.592
3.7364	0.631
3.77615	0.655
3.81591	0.663
3.85566	0.691
3.89541	0.711
3.93517	0.731
3.97492	0.746
4.01467	0.759
4.05443	0.766
4.09418	0.771
4.13393	0.774
4.17369	0.777
4.21344	0.782
4.25319	0.774
4.29295	0.787
4.3327	0.799
4.37246	0.82
4.41221	0.822
4.45196	0.822
4.49172	0.825
4.53147	0.824
4.57122	0.844
4.61098	0.845
4.65073	0.855
4.69048	0.862
4.73024	0.867
4.76999	0.87
4.80974	0.872
4.8495	0.873
4.88925	0.875
4.929	0.882
4.96876	0.885
5.00851	0.897
5.04826	0.897
5.08802	0.873
5.12777	0.873
5.16753	0.89
5.20728	0.893
5.24703	0.898
5.28679	0.905
5.32654	0.915
5.36629	0.912
5.40605	0.918
5.4458	0.915
5.48555	0.923
5.52531	0.922
5.56506	0.92
5.60481	0.922
5.64457	0.922
5.68432	0.917
5.72407	0.905
5.76383	0.898
5.80358	0.873
5.84333	0.809
5.88309	0.663
5.92284	0.489
5.96259	0.155
6.00235	0.092
6.0421	0.218
6.08186	0.325
6.12161	0.429
6.16136	0.484
6.20112	0.5
6.24087	0.52
6.28062	0.53
6.32038	0.537
6.36013	0.545
6.39988	0.565
6.43964	0.582
6.47939	0.615
6.51914	0.62
6.5589	0.631
6.59865	0.636
6.6384	0.621
6.67816	0.593
6.71791	0.497
6.75766	0.349
6.79742	0.132
6.83717	0.131
6.87692	0.124
6.91668	0.144
6.95643	0.199
6.99619	0.2
7.03594	0.273
7.07569	0.349
7.11545	0.393
7.1552	0.436
7.19495	0.393
7.23471	0.228
7.27446	0.187
7.31421	0.278
7.35397	0.402
7.39372	0.422
7.43347	0.454
7.47323	0.427
7.51298	0.396
7.55273	0.509
7.59249	0.59
7.63224	0.62
7.67199	0.557
7.71175	0.519
7.7515	0.592
7.79125	0.656
7.83101	0.674
7.87076	0.665
7.91052	0.597
7.95027	0.383
7.99002	0.499
8.02978	0.623
8.06953	0.65
8.10928	0.704
8.14904	0.744
8.18879	0.746
8.22854	0.752
8.2683	0.746
8.30805	0.645
8.3478	0.51
8.38756	0.623
8.42731	0.703
8.46706	0.756
8.50682	0.779
8.54657	0.787
8.58632	0.799
8.62608	0.8
8.66583	0.769
8.70558	0.603
8.74534	0.48
8.78509	0.595
8.82485	0.718
8.8646	0.782
8.90435	0.804
8.94411	0.81
8.98386	0.734
9.02361	0.786
9.06337	0.786
9.10312	0.766
9.14287	0.723
9.18263	0.643
9.22238	0.509
9.26213	0.328
9.30189	0.203
9.34164	0.202
9.38139	0.306
9.42115	0.412
9.4609	0.489
9.50065	0.585
9.54041	0.64
9.58016	0.665
9.61992	0.674
9.65967	0.638
9.69942	0.522
9.73918	0.47
9.77893	0.492
9.81868	0.557
9.85844	0.57
9.89819	0.533
9.93794	0.431
9.9777	0.286
10.0174	0.174
10.0572	0.134
10.097	0.092
10.1367	0.076
10.1765	0.101
10.2162	0.149
10.256	0.194
10.2957	0.227
10.3355	0.255
10.3752	0.321
10.415	0.384
10.4547	0.431
10.4945	0.461
10.5342	0.466
10.574	0.417
10.6138	0.33
10.6535	0.349
10.6933	0.437
10.733	0.499
10.7728	0.548
10.8125	0.583
10.8523	0.605
10.892	0.611
10.9318	0.621
10.9715	0.636
11.0113	0.653
11.051	0.658
11.0908	0.658
11.1305	0.655
11.1703	0.641
11.2101	0.613
11.2498	0.64
11.2896	0.665
11.3293	0.674
11.3691	0.674
11.4088	0.678
11.4486	0.676
11.4883	0.676
11.5281	0.671
11.5678	0.673
11.6076	0.666
11.6473	0.663
11.6871	0.65
11.7268	0.618
11.7666	0.59
11.8064	0.588
11.8461	0.613
11.8859	0.615
11.9256	0.61
11.9654	0.603
12.0051	0.597
12.0449	0.583
12.0846	0.563
12.1244	0.54
12.1641	0.517
12.2039	0.494
12.2436	0.469
12.2834	0.449
12.3232	0.422
12.3629	0.401
12.4027	0.393
12.4424	0.388
12.4822	0.389
12.5219	0.393
12.5617	0.402
12.6014	0.416
12.6412	0.429
12.6809	0.451
12.7207	0.482
12.7604	0.52
12.8002	0.55
12.8399	0.575
12.8797	0.595
12.9195	0.613
12.9592	0.625
12.999	0.636
13.0387	0.65
13.0785	0.656
13.1182	0.666
13.158	0.673
13.1977	0.678
13.2375	0.679
13.2772	0.684
13.317	0.689
13.3567	0.691
13.3965	0.693
13.4362	0.689
13.476	0.686
13.5158	0.694
13.5555	0.701
13.5953	0.706
13.635	0.713
13.6748	0.711
13.7145	0.713
13.7543	0.704
13.794	0.694
13.8338	0.661
13.8735	0.6
13.9133	0.567
13.953	0.606
13.9928	0.66
14.0326	0.706
14.0723	0.731
14.1121	0.746
14.1518	0.756
14.1916	0.764
14.2313	0.772
14.2711	0.779
14.3108	0.787
14.3506	0.794
14.3903	0.792
14.4301	0.791
14.4698	0.791
14.5096	0.789
14.5493	0.792
14.5891	0.786
14.6289	0.786
14.6686	0.789
14.7084	0.787
14.7481	0.787
14.7879	0.779
14.8276	0.777
14.8674	0.776
14.9071	0.772
14.9469	0.769
14.9866	0.756
15.0264	0.721
15.0661	0.689
15.1059	0.669
15.1456	0.689
15.1854	0.681
15.2252	0.663
15.2649	0.643
15.3047	0.636
15.3444	0.633
15.3842	0.636
15.4239	0.65
15.4637	0.656
15.5034	0.66
15.5432	0.661
15.5829	0.663
15.6227	0.663
15.6624	0.661
15.7022	0.66
15.742	0.65
15.7817	0.648
15.8215	0.635
15.8612	0.621
15.901	0.616
15.9407	0.605
15.9805	0.59
