Infrared Spectrum: 2,3-Dimethylhexane
Formula: C 8 H 18
CAS: 584-94-1
State: gas
Instrument: HP-GC/MS/IRD
Origin: NIST Mass Spectrometry Data Center
1/CM	ABSORBANCE
550	0.0001998
562	2.96e-05
574	9.99e-05
586	4.81e-05
598	5.92e-05
610	4.07e-05
622	4.81e-05
634	0.0001258
646	0.000148
658	0.000148
670	7.03e-05
682	0.0001073
694	0.0001295
706	0.0001776
718	0.0002553
730	0.0002997
742	0.0003367
754	0.0003108
766	0.0002812
778	0.0001998
790	0.0001443
802	0.0001887
814	0.0001776
826	0.000333
838	0.0002294
850	0.0002331
862	0.0002479
874	0.0002849
886	0.0003848
898	0.0004773
910	0.0003848
922	0.0003737
934	0.0003922
946	0.0003626
958	0.0002997
970	0.00037
982	0.0003774
994	0.0004107
1006	0.0003959
1018	0.0003922
1030	0.0004514
1042	0.0004588
1054	0.0004551
1066	0.0004699
1078	0.0003885
1090	0.0003404
1102	0.0004625
1114	0.0009213
1126	0.0013061
1138	0.0010286
1150	0.0006808
1162	0.0004514
1174	0.0003108
1186	0.0002997
1198	0.0001591
1210	0.0001739
1222	0.0002775
1234	0.0003293
1246	0.0003404
1258	0.0003626
1270	0.0004107
1282	0.000481
1294	0.0005217
1306	0.0006142
1318	0.0006623
1330	0.0006586
1342	0.0007955
1354	0.0012506
1366	0.0025271
1378	0.0039775
1390	0.0037555
1402	0.0018648
1414	0.0009065
1426	0.0009361
1438	0.0015133
1450	0.0028675
1462	0.0041403
1474	0.0037
1486	0.0020461
1498	0.0009546
1510	0.0005735
1522	0.0003996
1534	0.0003478
1546	0.0002886
1558	0.0002368
1570	0.0002442
1582	0.0001813
1594	0.0002109
1606	0.0001961
1618	0.0001887
1630	0.000185
1642	0.0001961
1654	0.0001887
1666	0.0001776
1678	0.0001739
1690	0.0001443
1702	0.0001295
1714	0.0001258
1726	0.0001036
1738	9.25e-05
1750	8.88e-05
1762	7.03e-05
1774	8.51e-05
1786	8.51e-05
1798	8.14e-05
1810	7.4e-05
1822	7.4e-05
1834	4.81e-05
1846	7.4e-05
1858	7.03e-05
1870	7.4e-05
1882	6.29e-05
1894	6.66e-05
1906	5.55e-05
1918	5.18e-05
1930	1.85e-05
1942	2.96e-05
1954	2.22e-05
1966	2.22e-05
1978	0
1990	3.7e-05
2002	1.11e-05
2014	4.07e-05
2026	2.96e-05
2038	2.59e-05
2050	4.07e-05
2062	5.55e-05
2074	2.96e-05
2086	4.44e-05
2098	2.96e-05
2110	2.59e-05
2122	1.85e-05
2134	2.96e-05
2146	2.22e-05
2158	4.81e-05
2170	3.7e-05
2182	2.22e-05
2194	3.7e-05
2206	4.81e-05
2218	1.85e-05
2230	2.22e-05
2242	2.96e-05
2254	1.11e-05
2266	7.4e-06
2278	2.59e-05
2290	2.96e-05
2302	2.96e-05
2314	5.55e-05
2326	4.81e-05
2338	5.18e-05
2350	6.29e-05
2362	6.66e-05
2374	7.4e-05
2386	7.4e-05
2398	8.88e-05
2410	6.29e-05
2422	5.55e-05
2434	5.18e-05
2446	4.44e-05
2458	4.81e-05
2470	2.96e-05
2482	6.29e-05
2494	3.7e-05
2506	6.66e-05
2518	6.29e-05
2530	9.25e-05
2542	8.51e-05
2554	0.0001221
2566	0.0001517
2578	0.000222
2590	0.0002738
2602	0.0002849
2614	0.0003071
2626	0.0002812
2638	0.000259
2650	0.0002775
2662	0.0003145
2674	0.0003219
2686	0.0003441
2698	0.0003441
2710	0.0003922
2722	0.0005439
2734	0.0006512
2746	0.0006697
2758	0.0006438
2770	0.0006216
2782	0.0007622
2794	0.0009213
2806	0.0011322
2818	0.0014763
2830	0.0018611
2842	0.0027935
2854	0.0051911
2866	0.0100048
2878	0.0159544
2890	0.0163577
2902	0.0140489
2914	0.0152662
2926	0.0187923
2938	0.0217523
2950	0.0253154
2962	0.0356088
2974	0.0317682
2986	0.0143449
2998	0.0054723
3010	0.002886
3022	0.0019832
3034	0.0015392
3046	0.0012469
3058	0.0010434
3070	0.0008658
3082	0.0008066
3094	0.0007326
3106	0.0006845
3118	0.0005994
3130	0.0006179
3142	0.0005291
3154	0.0005217
3166	0.0005032
3178	0.0004366
3190	0.0003737
3202	0.0003145
3214	0.0002479
3226	0.0002109
3238	0.0001295
3250	0.000148
3262	8.51e-05
3274	6.66e-05
3286	9.99e-05
3298	0.0001036
3310	0.0001036
3322	9.99e-05
3334	6.29e-05
3346	6.29e-05
3358	4.07e-05
3370	6.66e-05
3382	7.77e-05
3394	7.4e-05
3406	8.88e-05
3418	5.92e-05
3430	9.25e-05
3442	7.03e-05
3454	4.07e-05
3466	4.81e-05
3478	3.7e-05
3490	6.66e-05
3502	7.4e-05
3514	5.55e-05
3526	0
3538	5.92e-05
3550	7.03e-05
3562	4.07e-05
3574	3.33e-05
3586	2.22e-05
3598	5.92e-05
3610	3.7e-05
3622	4.07e-05
3634	6.29e-05
3646	3.7e-05
3658	4.07e-05
3670	5.55e-05
3682	8.51e-05
3694	8.14e-05
3706	2.96e-05
3718	9.99e-05
3730	7.4e-05
3742	5.18e-05
3754	8.14e-05
3766	7.77e-05
3778	5.55e-05
3790	0.0001369
3802	7.03e-05
3814	9.99e-05
3826	0.0001295
3838	0.000111
