Infrared Spectrum: HYDANTOIN, 1-ACETYL-2-THIO-
Formula: C5 H6 N2 O2 S
CAS: 584-26-9
State: SOLID (SPLIT MULL), FLUOROLUBE FOR 3800-1330 CM^-^1, NUJOL FOR 1330-450 CM^-^1
Class: COBLENTZ III
Instrument: DOW KBr FOREPRISM-GRATING
Instrument parameters: BLAZED AT 3.5, 12.0, 20.0 MICRON AND CHANGED AT 5.0, 7.5, 14.9 MICRON
Sampling: TRANSMISSION
Resolution: 2
Origin: DOW CHEMICAL COMPANY
1/CM	TRANSMITTANCE
451	0.8516
460	0.8428
469	0.8283
478	0.7799
487	0.8208
496	0.893
505	0.8807
514	0.8306
523	0.5456
532	0.8412
541	0.9221
550	0.9115
559	0.9162
568	0.9216
577	0.8407
586	0.8662
595	0.829
604	0.3616
613	0.8684
622	0.8497
631	0.3234
640	0.9091
649	0.9098
658	0.8487
667	0.9243
676	0.9009
685	0.8982
694	0.8959
703	0.8878
712	0.865
721	0.8266
730	0.8021
739	0.7721
748	0.6349
757	0.6872
766	0.8463
775	0.8478
784	0.8315
793	0.8021
802	0.7678
811	0.7178
820	0.649
829	0.6589
838	0.7657
847	0.8168
856	0.8443
865	0.8536
874	0.8574
883	0.8574
892	0.848
901	0.8035
910	0.6512
919	0.7811
928	0.8651
937	0.862
946	0.8545
955	0.8316
964	0.7657
973	0.2233
982	0.7536
991	0.8655
1000	0.8678
1009	0.8608
1018	0.8462
1027	0.8025
1036	0.731
1045	0.5726
1054	0.7719
1063	0.7974
1072	0.7565
1081	0.6731
1090	0.1767
1099	0.7528
1108	0.8224
1117	0.8246
1126	0.8169
1135	0.7953
1144	0.7638
1153	0.7264
1162	0.6914
1171	0.5586
1180	0.2841
1189	0.1249
1198	0.0498
1207	0.1798
1216	0.3031
1225	0.0434
1234	0.0172
1243	0.1482
1252	0.3794
1261	0.627
1270	0.6714
1279	0.6756
1288	0.6216
1297	0.3947
1306	0.0519
1315	0.4443
1324	0.4725
1333	0.1232
1342	0.1326
1351	0.0937
1360	0.2735
1369	0.3204
1378	0.3582
1387	0.5862
1396	0.5843
1405	0.3158
1414	0.373
1423	0.4116
1432	0.5779
1441	0.5214
1450	0.4034
1459	0.2855
1468	0.1566
1477	0.1604
1486	0.2755
1495	0.5289
1504	0.7428
1513	0.7842
1522	0.7853
1531	0.7318
1540	0.7342
1549	0.7414
1558	0.7261
1567	0.7148
1576	0.706
1585	0.6851
1594	0.6549
1603	0.6339
1612	0.6185
1621	0.5849
1630	0.548
1639	0.5146
1648	0.457
1657	0.368
1666	0.2344
1675	0.1424
1684	0.3593
1693	0.412
1702	0.2709
1711	0.0982
1720	0.3914
1729	0.3474
1738	0.3005
1747	0.0828
1756	0.1851
1765	0.2489
1774	0.1654
1783	0.4334
1792	0.6758
1801	0.7645
1810	0.7391
1819	0.6838
1828	0.6968
1837	0.7661
1846	0.8498
1855	0.858
1864	0.8671
1873	0.8742
1882	0.8711
1891	0.8647
1900	0.8528
1909	0.845
1918	0.842
1927	0.8356
1936	0.8258
1945	0.8193
1954	0.8165
1963	0.8165
1972	0.7987
1981	0.7944
1990	0.7944
1999	0.8295
2008	0.8275
2017	0.8224
2026	0.816
2035	0.8094
2044	0.8022
2053	0.7938
2062	0.7857
2071	0.7786
2080	0.7718
2089	0.7654
2098	0.7571
2107	0.7515
2116	0.7464
2125	0.7425
2134	0.7383
2143	0.7325
2152	0.7269
2161	0.721
2170	0.7148
2179	0.7083
2188	0.7017
2197	0.6947
2206	0.6875
2215	0.6803
2224	0.6732
2233	0.666
2242	0.6586
2251	0.6518
2260	0.6465
2269	0.6411
2278	0.6374
2287	0.6336
2296	0.6301
2305	0.6271
2314	0.6236
2323	0.6201
2332	0.6172
2341	0.6147
2350	0.6127
2359	0.6112
2368	0.6088
2377	0.6042
2386	0.6042
2395	0.6055
2404	0.6071
2413	0.6084
2422	0.6082
2431	0.607
2440	0.6047
2449	0.602
2458	0.5988
2467	0.5949
2476	0.591
2485	0.5873
2494	0.5839
2503	0.5827
2512	0.5805
2521	0.5775
2530	0.5752
2539	0.5753
2548	0.576
2557	0.5764
2566	0.5749
2575	0.572
2584	0.5675
2593	0.5624
2602	0.5575
2611	0.5525
2620	0.5462
2629	0.5384
2638	0.5307
2647	0.5256
2656	0.5243
2665	0.5241
2674	0.5235
2683	0.5222
2692	0.5196
2701	0.5138
2710	0.5105
2719	0.5093
2728	0.5066
2737	0.499
2746	0.4889
2755	0.4781
2764	0.4681
2773	0.4709
2782	0.4769
2791	0.481
2800	0.4766
2809	0.4689
2818	0.4624
2827	0.4554
2836	0.4473
2845	0.439
2854	0.4305
2863	0.4218
2872	0.4128
2881	0.4036
2890	0.3934
2899	0.383
2908	0.3722
2917	0.3597
2926	0.3553
2935	0.3718
2944	0.4088
2953	0.4064
2962	0.3705
2971	0.3646
2980	0.3876
2989	0.3762
2998	0.372
3007	0.3695
3016	0.3592
3025	0.347
3034	0.3354
3043	0.3257
3052	0.3133
3061	0.298
3070	0.2825
3079	0.2697
3088	0.2573
3097	0.245
3106	0.2382
3115	0.2465
3124	0.2625
3133	0.2826
3142	0.305
3151	0.3328
3160	0.3604
3169	0.3856
3178	0.407
3187	0.4239
3196	0.4379
3205	0.451
3214	0.4642
3223	0.475
3232	0.485
3241	0.4978
3250	0.5157
3259	0.5351
3268	0.5497
3277	0.5557
3286	0.5581
3295	0.5583
3304	0.5576
3313	0.5566
3322	0.554
3331	0.5491
3340	0.544
3349	0.5387
3358	0.5341
3367	0.5296
3376	0.5251
3385	0.5207
3394	0.5162
3403	0.5121
3412	0.5095
3421	0.5068
3430	0.5042
3439	0.5018
3448	0.4995
3457	0.4971
3466	0.4947
3475	0.4912
3484	0.4879
3493	0.4845
3502	0.4814
3511	0.4814
3520	0.4815
3529	0.4804
3538	0.4791
3547	0.4776
3556	0.4756
3565	0.4735
3574	0.4675
3583	0.4643
3592	0.4687
3601	0.4682
3610	0.4662
3619	0.4646
3628	0.4626
3637	0.4604
3646	0.4583
3655	0.456
3664	0.4537
3673	0.4514
3682	0.4491
3691	0.4469
3700	0.4453
3709	0.4436
3718	0.442
3727	0.4405
3736	0.4394
3745	0.4381
3754	0.4369
3763	0.4356
3772	0.4339
3781	0.4322
3790	0.4305
3799	0.4288
