Infrared Spectrum: 2-Bromovaleric acid
Formula: C 5 H 9 Br O 2
CAS: 584-93-0
State: gas
Instrument: HP-GC/MS/IRD
Origin: NIST Mass Spectrometry Data Center
1/CM	ABSORBANCE
550	0.0020504
562	0.0034804
574	0.003476
586	0.0037158
598	0.004169
610	0.0044264
622	0.0049214
634	0.004884
646	0.0035772
658	0.0022946
670	0.001848
682	0.0012144
694	0.0007304
706	0.0005258
718	0.0006754
730	0.0010142
742	0.0014586
754	0.001122
766	0.000715
778	0.0005126
790	0.0004224
802	0.0003014
814	0.0002134
826	0.0001408
838	0.0001078
850	9.46e-05
862	0.0002772
874	0.0003784
886	0.0003696
898	0.0003388
910	0.0004048
922	0.0003168
934	0.0001276
946	6.16e-05
958	1.1e-05
970	0.0001056
982	0.00022
994	0.0004598
1006	0.0005698
1018	0.0005742
1030	0.0006754
1042	0.0010604
1054	0.0016258
1066	0.0024354
1078	0.0050864
1090	0.0096998
1102	0.0105864
1114	0.0090508
1126	0.009394
1138	0.0079508
1150	0.0068134
1162	0.0062766
1174	0.0047344
1186	0.0036564
1198	0.0025168
1210	0.0017908
1222	0.0017754
1234	0.0020548
1246	0.0020724
1258	0.0020658
1270	0.0020548
1282	0.0021472
1294	0.002343
1306	0.0025762
1318	0.0028842
1330	0.0033022
1342	0.0031438
1354	0.002816
1366	0.0026906
1378	0.002585
1390	0.0023166
1402	0.0013046
1414	0.0006732
1426	0.0006842
1438	0.0009724
1450	0.0011594
1462	0.0013574
1474	0.0010494
1486	0.0004246
1498	0.0001584
1510	8.58e-05
1522	5.28e-05
1534	4.84e-05
1546	3.3e-05
1558	1.1e-05
1570	3.08e-05
1582	6.16e-05
1594	3.74e-05
1606	3.52e-05
1618	5.06e-05
1630	9.02e-05
1642	6.82e-05
1654	8.8e-05
1666	0.0001408
1678	0.0001738
1690	0.0002772
1702	0.0004928
1714	0.0010054
1726	0.0020174
1738	0.0034122
1750	0.0056584
1762	0.0118646
1774	0.0208406
1786	0.017963
1798	0.0086328
1810	0.004378
1822	0.002431
1834	0.0011638
1846	0.0005632
1858	0.000319
1870	0.0002442
1882	0.0001892
1894	0.000121
1906	0.0001012
1918	8.36e-05
1930	7.04e-05
1942	7.48e-05
1954	3.3e-05
1966	6.38e-05
1978	3.74e-05
1990	5.94e-05
2002	5.06e-05
2014	3.3e-05
2026	3.3e-05
2038	6.6e-06
2050	1.54e-05
2062	3.3e-05
2074	3.08e-05
2086	5.5e-05
2098	1.54e-05
2110	4.18e-05
2122	4.4e-06
2134	3.3e-05
2146	3.08e-05
2158	4.18e-05
2170	6.16e-05
2182	7.92e-05
2194	8.8e-05
2206	6.6e-05
2218	5.72e-05
2230	5.06e-05
2242	2.2e-05
2254	2.42e-05
2266	4.84e-05
2278	5.72e-05
2290	7.26e-05
2302	9.68e-05
2314	0.0001166
2326	0.0001628
2338	0.0001496
2350	0.000121
2362	0.0001914
2374	0.0001738
2386	7.92e-05
2398	8.58e-05
2410	5.94e-05
2422	7.04e-05
2434	7.7e-05
2446	0.0001122
2458	9.24e-05
2470	5.06e-05
2482	5.5e-05
2494	5.5e-05
2506	6.16e-05
2518	4.62e-05
2530	5.06e-05
2542	4.18e-05
2554	5.28e-05
2566	1.54e-05
2578	4.4e-05
2590	4.62e-05
2602	3.52e-05
2614	1.98e-05
2626	3.96e-05
2638	4.4e-05
2650	5.72e-05
2662	3.96e-05
2674	5.72e-05
2686	7.48e-05
2698	3.52e-05
2710	4.18e-05
2722	6.16e-05
2734	7.26e-05
2746	0.0001034
2758	0.000121
2770	0.000121
2782	0.0001474
2794	0.000165
2806	0.0001958
2818	0.0002662
2830	0.0003586
2842	0.000517
2854	0.0008074
2866	0.0012936
2878	0.0024596
2890	0.0029634
2902	0.002266
2914	0.0022198
2926	0.002728
2938	0.0040612
2950	0.004851
2962	0.0059268
2974	0.0077726
2986	0.0043472
2998	0.0015884
3010	0.0008998
3022	0.000616
3034	0.000495
3046	0.0004136
3058	0.0003278
3070	0.0002728
3082	0.0002068
3094	0.0001848
3106	0.0001694
3118	0.00011
3130	0.0001276
3142	0.0001122
3154	6.38e-05
3166	6.6e-05
3178	0.0001144
3190	5.28e-05
3202	8.58e-05
3214	4.62e-05
3226	5.94e-05
3238	4.18e-05
3250	1.76e-05
3262	6.16e-05
3274	2.2e-06
3286	1.54e-05
3298	4.84e-05
3310	4.62e-05
3322	4.62e-05
3334	5.5e-05
3346	5.94e-05
3358	1.1e-05
3370	5.06e-05
3382	6.6e-06
3394	8.14e-05
3406	6.38e-05
3418	1.98e-05
3430	4.62e-05
3442	7.26e-05
3454	0.0001474
3466	0.0001628
3478	0.0002552
3490	0.0004576
3502	0.0006336
3514	0.0006864
3526	0.0007106
3538	0.0007634
3550	0.0009966
3562	0.0037158
3574	0.0094468
3586	0.0064988
3598	0.001177
3610	0.0003894
3622	0.000242
3634	0.000121
3646	0.0001452
3658	0.0001122
3670	0.0001012
3682	9.46e-05
3694	0.000132
3706	4.62e-05
3718	0.0001342
3730	6.38e-05
3742	4.4e-05
3754	9.02e-05
3766	3.3e-05
3778	4.84e-05
3790	7.04e-05
3802	2.42e-05
3814	6.6e-05
3826	2.42e-05
3838	6.6e-06
