Infrared Spectrum: 4-HYDROXY-5,5-DIMETHYL-4-PHENYLTHIAZOLIDINE-2-THIONE
Formula: C11 H13 N O S2
CAS: 58417-88-2
State: SOLID (KBr PELLET)
Melting point: 97 C
Class: COBLENTZ
Instrument: Not specified, most likely a prism, grating, or hybrid spectrometer.
Sampling: TRANSMISSION
Resolution: 4
Origin: EASTMAN KODAK COMPANY, RESEARCH LABORATORIES, ROCHESTER, N.Y.
MICROMETERS	TRANSMITTANCE
2.007	0.524
2.04698	0.521
2.08696	0.523
2.12694	0.528
2.16692	0.531
2.2069	0.534
2.24688	0.544
2.28686	0.549
2.32684	0.556
2.36682	0.559
2.4068	0.561
2.44678	0.566
2.48676	0.57
2.52674	0.575
2.56672	0.585
2.6067	0.59
2.64668	0.615
2.68666	0.62
2.72664	0.617
2.76662	0.595
2.8066	0.537
2.84658	0.471
2.88656	0.371
2.92654	0.356
2.96652	0.391
3.0065	0.359
3.04648	0.191
3.08646	0.277
3.12644	0.397
3.16642	0.429
3.2064	0.466
3.24638	0.498
3.28636	0.523
3.32634	0.552
3.36632	0.49
3.4063	0.488
3.44628	0.521
3.48626	0.564
3.52625	0.628
3.56623	0.651
3.60621	0.645
3.64619	0.646
3.68617	0.658
3.72615	0.673
3.76613	0.676
3.80611	0.683
3.84609	0.693
3.88607	0.702
3.92605	0.704
3.96603	0.712
4.00601	0.719
4.04599	0.717
4.08597	0.739
4.12595	0.735
4.16593	0.737
4.20591	0.749
4.24589	0.754
4.28587	0.749
4.32585	0.75
4.36583	0.76
4.40581	0.765
4.44579	0.77
4.48577	0.775
4.52575	0.778
4.56573	0.778
4.60571	0.782
4.64569	0.787
4.68567	0.788
4.72565	0.787
4.76563	0.793
4.80561	0.798
4.84559	0.801
4.88557	0.803
4.92555	0.805
4.96553	0.813
5.00551	0.81
5.04549	0.81
5.08547	0.805
5.12545	0.815
5.16543	0.821
5.20541	0.833
5.24539	0.826
5.28537	0.826
5.32535	0.834
5.36533	0.844
5.40531	0.849
5.44529	0.849
5.48527	0.828
5.52525	0.848
5.56523	0.864
5.60521	0.863
5.64519	0.856
5.68517	0.858
5.72515	0.861
5.76513	0.856
5.80511	0.858
5.84509	0.849
5.88507	0.844
5.92505	0.854
5.96503	0.858
6.00501	0.867
6.04499	0.872
6.08497	0.856
6.12495	0.839
6.16493	0.838
6.20491	0.844
6.24489	0.864
6.28487	0.884
6.32485	0.876
6.36483	0.882
6.40481	0.889
6.44479	0.886
6.48477	0.884
6.52476	0.884
6.56474	0.877
6.60472	0.864
6.6447	0.8
6.68468	0.595
6.72466	0.498
6.76464	0.349
6.80462	0.11
6.8446	0.069
6.88458	0.069
6.92456	0.042
6.96454	0.16
7.00452	0.318
7.0445	0.427
7.08448	0.514
7.12446	0.575
7.16444	0.605
7.20442	0.544
7.2444	0.561
7.28438	0.608
7.32436	0.485
7.36434	0.63
7.40432	0.64
7.4443	0.519
7.48428	0.546
7.52426	0.623
7.56424	0.617
7.60422	0.539
7.6442	0.448
7.68418	0.331
7.72416	0.259
7.76414	0.308
7.80412	0.325
7.8441	0.359
7.88408	0.508
7.92406	0.615
7.96404	0.676
8.00402	0.719
8.044	0.747
8.08398	0.755
8.12396	0.759
8.16394	0.775
8.20392	0.783
8.2439	0.757
8.28388	0.711
8.32386	0.686
8.36384	0.569
8.40382	0.369
8.4438	0.272
8.48378	0.283
8.52376	0.363
8.56374	0.468
8.60372	0.559
8.6437	0.618
8.68368	0.622
8.72366	0.683
8.76364	0.684
8.80362	0.603
8.8436	0.358
8.88358	0.323
8.92356	0.554
8.96354	0.635
9.00352	0.623
9.0435	0.514
9.08348	0.344
9.12346	0.146
9.16344	0.062
9.20342	0.064
9.2434	0.08
9.28338	0.163
9.32336	0.298
9.36334	0.414
9.40332	0.488
9.4433	0.508
9.48328	0.442
9.52327	0.331
9.56325	0.298
9.60323	0.181
9.64321	0.11
9.68319	0.183
9.72317	0.082
9.76315	0.023
9.80313	0.079
9.84311	0.206
9.88309	0.348
9.92307	0.455
9.96305	0.443
10.003	0.306
10.043	0.189
10.083	0.301
10.123	0.407
10.1629	0.504
10.2029	0.595
10.2429	0.627
10.2829	0.643
10.3229	0.673
10.3628	0.688
10.4028	0.706
10.4428	0.724
10.4828	0.722
10.5228	0.729
10.5627	0.735
10.6027	0.739
10.6427	0.683
10.6827	0.549
10.7227	0.339
10.7626	0.409
10.8026	0.541
10.8426	0.448
10.8826	0.503
10.9226	0.623
10.9625	0.412
11.0025	0.438
11.0425	0.567
11.0825	0.666
11.1225	0.735
11.1625	0.767
11.2024	0.787
11.2424	0.808
11.2824	0.826
11.3224	0.83
11.3624	0.834
11.4023	0.836
11.4423	0.844
11.4823	0.851
11.5223	0.863
11.5623	0.866
11.6022	0.863
11.6422	0.859
11.6822	0.849
11.7222	0.846
11.7622	0.851
11.8021	0.859
11.8421	0.867
11.8821	0.881
11.9221	0.886
11.9621	0.891
12.002	0.894
12.042	0.894
12.082	0.896
12.122	0.904
12.162	0.9
12.2019	0.904
12.2419	0.904
12.2819	0.905
12.3219	0.905
12.3619	0.909
12.4018	0.914
12.4418	0.914
12.4818	0.91
12.5218	0.912
12.5618	0.907
12.6017	0.91
12.6417	0.912
12.6817	0.904
12.7217	0.884
12.7617	0.874
12.8016	0.848
12.8416	0.785
12.8816	0.656
12.9216	0.392
12.9616	0.176
13.0015	0.259
13.0415	0.447
13.0815	0.597
13.1215	0.693
13.1615	0.722
13.2014	0.742
13.2414	0.74
13.2814	0.74
13.3214	0.737
13.3614	0.731
13.4013	0.714
13.4413	0.693
13.4813	0.676
13.5213	0.648
13.5613	0.623
13.6012	0.59
13.6412	0.542
13.6812	0.498
13.7212	0.437
13.7612	0.377
13.8011	0.381
13.8411	0.447
13.8811	0.506
13.9211	0.554
13.9611	0.59
14.001	0.608
14.041	0.612
14.081	0.58
14.121	0.511
14.161	0.371
14.2009	0.196
14.2409	0.141
14.2809	0.221
14.3209	0.326
14.3609	0.43
14.4008	0.496
14.4408	0.561
14.4808	0.6
14.5208	0.618
14.5608	0.64
14.6007	0.648
14.6407	0.651
14.6807	0.643
14.7207	0.64
14.7607	0.6
14.8006	0.537
14.8406	0.447
14.8806	0.363
14.9206	0.33
14.9606	0.331
15.0005	0.364
15.0405	0.425
15.0805	0.483
15.1205	0.536
15.1605	0.57
15.2004	0.587
15.2404	0.602
15.2804	0.61
15.3204	0.62
15.3604	0.623
15.4003	0.632
15.4403	0.635
15.4803	0.668
15.5203	0.681
15.5603	0.691
15.6002	0.698
15.6402	0.702
15.6802	0.702
15.7202	0.706
15.7602	0.704
15.8001	0.702
15.8401	0.702
15.8801	0.701
15.9201	0.691
15.9601	0.691
16	0.693
