Infrared Spectrum: Methylthiophene-3-acetate
Formula: C 7 H 8 O 2 S
CAS: 58414-52-1
State: gas
Origin: EPA-IR VAPOR PHASE LIBRARY
1/CM	ABSORBANCE
549.8	0.002836
559.445	0.002196
569.09	0.002016
578.734	0.002846
588.379	0.004256
598.024	0.004996
607.669	0.007416
617.313	0.007586
626.958	0.007186
636.603	0.004686
646.248	0.003986
655.893	0.003536
665.537	0.006006
675.182	0.011036
684.827	0.011456
694.472	0.007416
704.116	0.006076
713.761	0.006876
723.406	0.009736
733.051	0.014856
742.695	0.019486
752.34	0.023166
761.985	0.021956
771.63	0.019346
781.275	0.015396
790.919	0.010966
800.564	0.008076
810.209	0.007416
819.854	0.008776
829.498	0.013036
839.143	0.015796
848.788	0.011716
858.433	0.011006
868.078	0.009286
877.722	0.006066
887.367	0.004536
897.012	0.003666
906.657	0.003696
916.301	0.004106
925.946	0.004476
935.591	0.006406
945.236	0.007836
954.88	0.006326
964.525	0.003526
974.17	0.002796
983.815	0.003386
993.46	0.005956
1003.1	0.010846
1012.75	0.021076
1022.39	0.023726
1032.04	0.012916
1041.68	0.007276
1051.33	0.005466
1060.97	0.004696
1070.62	0.005766
1080.26	0.007676
1089.91	0.008246
1099.55	0.009576
1109.2	0.014196
1118.84	0.025216
1128.49	0.043566
1138.13	0.064386
1147.78	0.071626
1157.42	0.059956
1167.07	0.050986
1176.71	0.043146
1186.36	0.036426
1196	0.034486
1205.64	0.035126
1215.29	0.040406
1224.93	0.045836
1234.58	0.047566
1244.22	0.051416
1253.87	0.054556
1263.51	0.054006
1273.16	0.043146
1282.8	0.029546
1292.45	0.023116
1302.09	0.023626
1311.74	0.024286
1321.38	0.026006
1331.03	0.026936
1340.67	0.019336
1350.32	0.010416
1359.96	0.008116
1369.61	0.006786
1379.25	0.006956
1388.9	0.009216
1398.54	0.010786
1408.18	0.011776
1417.83	0.012666
1427.47	0.015906
1437.12	0.023876
1446.76	0.019406
1456.41	0.010876
1466.05	0.008346
1475.7	0.006586
1485.34	0.005186
1494.99	0.004126
1504.63	0.003876
1514.28	0.003696
1523.92	0.004796
1533.57	0.006336
1543.21	0.006086
1552.86	0.005416
1562.5	0.004566
1572.15	0.003586
1581.79	0.002826
1591.44	0.002486
1601.08	0.002606
1610.73	0.002316
1620.37	0.002826
1630.01	0.002676
1639.66	0.002496
1649.3	0.002506
1658.95	0.002616
1668.59	0.003056
1678.24	0.003306
1687.88	0.004036
1697.53	0.004686
1707.17	0.006776
1716.82	0.010546
1726.46	0.019066
1736.11	0.036586
1745.75	0.062676
1755.4	0.090936
1765.04	0.097016
1774.69	0.071386
1784.33	0.039246
1793.98	0.017886
1803.62	0.008166
1813.27	0.004406
1822.91	0.003116
1832.55	0.002376
1842.2	0.002196
1851.84	0.002026
1861.49	0.002106
1871.13	0.001946
1880.78	0.001756
1890.42	0.001896
1900.07	0.001776
1909.71	0.001496
1919.36	0.001776
1929	0.001676
1938.65	0.001986
1948.29	0.002076
1957.94	0.001766
1967.58	0.002036
1977.23	0.002036
1986.87	0.002066
1996.52	0.002326
2006.16	0.002556
2015.81	0.002626
2025.45	0.002836
2035.1	0.002636
2044.74	0.002346
2054.38	0.002166
2064.03	0.002076
2073.67	0.001816
2083.32	0.001846
2092.96	0.001706
2102.61	0.001766
2112.25	0.001656
2121.9	0.001676
2131.54	0.0012104
2141.19	0.001446
2150.83	0.0013056
2160.48	0.0014116
2170.12	0.001192
2179.77	0.0012631
2189.41	0.0013041
2199.06	0.0011272
2208.7	0.0012162
2218.35	0.0009461
2227.99	0.0012716
2237.64	0.0010664
2247.28	0.0011451
2256.92	0.0011054
2266.57	0.0012292
2276.21	0.001456
2285.86	0.0011631
2295.5	0.0013264
2305.15	0.0011793
2314.79	0.0012715
2324.44	0.0012298
2334.08	0.001133
2343.73	0.0013777
2353.37	0.0009714
2363.02	0.001057
2372.66	0.0010399
2382.31	0.0011402
2391.95	0.0009861
2401.6	0.0012468
2411.24	0.0006765
2420.89	0.0010957
2430.53	0.0013291
2440.18	0.0012351
2449.82	0.0011152
2459.47	0.0008036
2469.11	0.001466
2478.75	0.0010263
2488.4	0.0013439
2498.04	0.0008848
2507.69	0.0007054
2517.33	0.0012826
2526.98	0.0009888
2536.62	0.0008629
2546.27	0.0010853
2555.91	0.000657
2565.56	0.0009402
2575.2	0.0007746
2584.85	0.000818
2594.49	0.0012191
2604.14	0.0009376
2613.78	0.0009183
2623.43	0.0008312
2633.07	0.0010271
2642.72	0.0009877
2652.36	0.0012694
2662.01	0.0008138
2671.65	0.0007757
2681.29	0.000727
2690.94	0.0008022
2700.58	0.0007508
2710.23	0.0007027
2719.87	0.0009027
2729.52	0.0010873
2739.16	0.0008164
2748.81	0.0011587
2758.45	0.0009105
2768.1	0.0010881
2777.74	0.000901
2787.39	0.0010927
2797.03	0.001196
2806.68	0.001516
2816.32	0.001606
2825.97	0.001536
2835.61	0.003016
2845.26	0.004706
2854.9	0.004486
2864.55	0.003096
2874.19	0.002256
2883.84	0.002436
2893.48	0.003806
2903.12	0.005386
2912.77	0.006496
2922.41	0.008406
2932.06	0.009066
2941.7	0.011606
2951.35	0.018036
2960.99	0.024066
2970.64	0.016956
2980.28	0.009116
2989.93	0.007756
2999.57	0.007986
3009.22	0.006646
3018.86	0.006396
3028.51	0.005306
3038.15	0.004876
3047.8	0.004216
3057.44	0.003346
3067.09	0.003336
3076.73	0.003216
3086.38	0.003436
3096.02	0.002636
3105.67	0.002126
3115.31	0.002746
3124.95	0.002126
3134.6	0.001526
3144.24	0.000731
3153.89	0.001636
3163.53	0.0008736
3173.18	0.0009045
3182.82	0.0007772
3192.47	0.0006239
3202.11	0.0007952
3211.76	0.0007604
3221.4	0.0008215
3231.05	0.0006337
3240.69	0.0009762
3250.34	0.0007845
3259.98	0.000623
3269.63	0.001566
3279.27	0.001009
3288.92	0.0005557
3298.56	0.0008834
3308.21	0.00047921
3317.85	0.0007959
3327.49	0.000273
3337.14	0.0003674
3346.78	0.000381
3356.43	0.0006655
3366.07	0.00049884
3375.72	0.0007672
3385.36	0.00044401
3395.01	0.000325
3404.65	0.0003987
3414.3	0.0007931
3423.94	0.000853
3433.59	0.0010846
3443.23	0.000262
3452.88	0.0013426
3462.52	0.0013799
3472.17	0.0010494
3481.81	0.002086
3491.46	0.0014156
3501.1	0.001846
3510.75	0.001556
3520.39	0.002066
3530.04	0.001506
3539.68	0.0011672
3549.32	0.000871
3558.97	0.0010842
3568.61	0.0010619
3578.26	0.001856
3587.9	0.0011451
3597.55	0.0007668
3607.19	0.0005425
3616.84	0.00045448
3626.48	0.000166
3636.13	0.0007117
3645.77	0.0006625
3655.42	0.00047727
3665.06	0.0011462
3674.71	0.0005931
3684.35	0.00051945
3694	0.0009701
3703.64	0.0012296
3713.29	0.001358
3722.93	0.0007464
3732.58	0.0003457
3742.22	0.0009366
3751.86	0.0007796
3761.51	0.000434418
3771.15	0.0005287
3780.8	0.0006641
3790.44	0.0013338
3800.09	0.0005624
3809.73	0.0007135
3819.38	0.000948
3829.02	0.00089
3838.67	0.00047446
3848.31	0.0010834
3857.96	0.0007367
3867.6	0.0012595
3877.25	0.0003847
3886.89	0.0009792
3896.54	0.001486
3906.18	0.001486
3915.83	0.0005975
3925.47	0.0013503
3935.12	0.0010486
3944.76	0.0008798
3954.41	0.001466
3964.05	0.001666
3973.69	0.0010095
3983.34	0.0012594
3992.98	0.0012748
