Infrared Spectrum: Diethyl methylisopropylmalonate
Formula: C 11 H 20 O 4
CAS: 58447-69-1
State: gas
Origin: EPA-IR VAPOR PHASE LIBRARY
1/CM	ABSORBANCE
549.8	0.0009159
559.445	0.00035323
569.09	0.0007669
578.734	0.001129
588.379	0.001933
598.024	0.001323
607.669	0.0005146
617.313	0.0003493
626.958	0.000291571
636.603	0.00027601
646.248	0.0007254
655.893	0.0008664
665.537	0.001463
675.182	0.002193
684.827	0.002683
694.472	0.002333
704.116	0.001773
713.761	0.001583
723.406	0.001793
733.051	0.001553
742.695	0.001913
752.34	0.002343
761.985	0.002593
771.63	0.002423
781.275	0.001973
790.919	0.002203
800.564	0.001813
810.209	0.002093
819.854	0.002423
829.498	0.002703
839.143	0.003263
848.788	0.005133
858.433	0.008333
868.078	0.009253
877.722	0.005243
887.367	0.003913
897.012	0.002803
906.657	0.003123
916.301	0.003283
925.946	0.003313
935.591	0.003193
945.236	0.002803
954.88	0.002523
964.525	0.002483
974.17	0.002723
983.815	0.003613
993.46	0.005743
1003.1	0.009023
1012.75	0.014993
1022.39	0.020023
1032.04	0.019833
1041.68	0.021873
1051.33	0.025863
1060.97	0.025903
1070.62	0.035303
1080.26	0.049083
1089.91	0.058113
1099.55	0.071793
1109.2	0.081843
1118.84	0.086893
1128.49	0.087053
1138.13	0.068933
1147.78	0.057213
1157.42	0.051133
1167.07	0.039643
1176.71	0.033873
1186.36	0.033943
1196	0.035713
1205.64	0.046633
1215.29	0.069273
1224.93	0.089473
1234.58	0.109123
1244.22	0.118713
1253.87	0.097773
1263.51	0.059223
1273.16	0.031313
1282.8	0.019693
1292.45	0.015913
1302.09	0.014803
1311.74	0.011743
1321.38	0.008713
1331.03	0.007343
1340.67	0.007583
1350.32	0.007253
1359.96	0.009153
1369.61	0.014953
1379.25	0.019663
1388.9	0.021333
1398.54	0.017913
1408.18	0.009963
1417.83	0.006823
1427.47	0.006923
1437.12	0.008713
1446.76	0.013373
1456.41	0.018263
1466.05	0.020613
1475.7	0.017053
1485.34	0.009953
1494.99	0.005703
1504.63	0.004093
1514.28	0.003373
1523.92	0.003143
1533.57	0.002813
1543.21	0.002623
1552.86	0.002563
1562.5	0.002403
1572.15	0.002253
1581.79	0.002203
1591.44	0.002203
1601.08	0.002123
1610.73	0.001973
1620.37	0.002003
1630.01	0.002073
1639.66	0.002223
1649.3	0.002493
1658.95	0.002853
1668.59	0.003683
1678.24	0.004513
1687.88	0.006113
1697.53	0.008963
1707.17	0.013373
1716.82	0.020913
1726.46	0.043783
1736.11	0.105353
1745.75	0.150923
1755.4	0.108543
1765.04	0.055793
1774.69	0.022083
1784.33	0.011493
1793.98	0.007733
1803.62	0.005553
1813.27	0.004123
1822.91	0.003103
1832.55	0.002563
1842.2	0.002203
1851.84	0.001863
1861.49	0.001783
1871.13	0.001803
1880.78	0.001653
1890.42	0.001613
1900.07	0.001563
1909.71	0.001523
1919.36	0.001453
1929	0.001393
1938.65	0.001343
1948.29	0.001323
1957.94	0.001333
1967.58	0.001363
1977.23	0.0012092
1986.87	0.0011186
1996.52	0.001198
2006.16	0.0011137
2015.81	0.0010392
2025.45	0.00102
2035.1	0.0010065
2044.74	0.0010579
2054.38	0.0010273
2064.03	0.0011416
2073.67	0.0011037
2083.32	0.001293
2092.96	0.0012443
2102.61	0.0011592
2112.25	0.0011558
2121.9	0.0009959
2131.54	0.0009266
2141.19	0.0009471
2150.83	0.0008342
2160.48	0.0007358
2170.12	0.0006828
2179.77	0.0007112
2189.41	0.0006411
2199.06	0.0005502
2208.7	0.000654
2218.35	0.0006295
2227.99	0.0006844
2237.64	0.000728
2247.28	0.0007931
2256.92	0.0008241
2266.57	0.0007936
2276.21	0.0007287
2285.86	0.0007315
2295.5	0.0007543
2305.15	0.0007555
2314.79	0.000799
2324.44	0.0007007
2334.08	0.0006556
2343.73	0.0007282
2353.37	0.0008329
2363.02	0.0007678
2372.66	0.0007941
2382.31	0.0008618
2391.95	0.0009399
2401.6	0.000914
2411.24	0.0008479
2420.89	0.0007775
2430.53	0.0006948
2440.18	0.0007745
2449.82	0.0007054
2459.47	0.000712
2469.11	0.000653
2478.75	0.0007716
2488.4	0.0005895
2498.04	0.0006464
2507.69	0.0005465
2517.33	0.0004772
2526.98	0.0005142
2536.62	0.0004759
2546.27	0.0004463
2555.91	0.0004108
2565.56	0.0005019
2575.2	0.0004382
2584.85	0.0006184
2594.49	0.0005852
2604.14	0.0006118
2613.78	0.0007785
2623.43	0.0005891
2633.07	0.0006516
2642.72	0.0006043
2652.36	0.0006914
2662.01	0.0005825
2671.65	0.0005692
2681.29	0.0006142
2690.94	0.0005697
2700.58	0.0005814
2710.23	0.0007904
2719.87	0.0008219
2729.52	0.0011376
2739.16	0.001266
2748.81	0.001383
2758.45	0.001383
2768.1	0.001433
2777.74	0.001653
2787.39	0.001573
2797.03	0.001723
2806.68	0.001823
2816.32	0.002213
2825.97	0.002703
2835.61	0.002993
2845.26	0.003473
2854.9	0.004253
2864.55	0.005883
2874.19	0.009783
2883.84	0.016973
2893.48	0.018993
2903.12	0.018143
2912.77	0.019973
2922.41	0.021093
2932.06	0.025703
2941.7	0.036823
2951.35	0.038963
2960.99	0.040033
2970.64	0.053833
2980.28	0.062773
2989.93	0.054723
2999.57	0.039793
3009.22	0.026003
3018.86	0.014103
3028.51	0.007793
3038.15	0.005203
3047.8	0.003903
3057.44	0.003303
3067.09	0.002793
3076.73	0.002413
3086.38	0.002123
3096.02	0.002323
3105.67	0.002053
3115.31	0.002003
3124.95	0.001773
3134.6	0.001643
3144.24	0.001463
3153.89	0.001343
3163.53	0.001283
3173.18	0.001313
3182.82	0.0011702
3192.47	0.000972
3202.11	0.0009532
3211.76	0.0008985
3221.4	0.0006449
3231.05	0.0005769
3240.69	0.0005269
3250.34	0.0003902
3259.98	0.0003759
3269.63	0.00032807
3279.27	0.0002463
3288.92	0.0004183
3298.56	0.00035005
3308.21	0.0004322
3317.85	0.00029729
3327.49	0.0001977
3337.14	0.00034029
3346.78	0.0004297
3356.43	0.00035369
3366.07	0.0003876
3375.72	0.00033784
3385.36	0.000101
3395.01	0.0004348
3404.65	0.0004285
3414.3	0.00032841
3423.94	0.0006408
3433.59	0.00035202
3443.23	0.0006222
3452.88	0.0007695
3462.52	0.0009742
3472.17	0.001673
3481.81	0.001513
3491.46	0.001333
3501.1	0.0008372
3510.75	0.0006945
3520.39	0.0004253
3530.04	0.0004885
3539.68	0.0004238
3549.32	0.0001972
3558.97	0.0002188
3568.61	1.6e-05
3578.26	0.00032922
3587.9	0.000112
3597.55	0.00031905
3607.19	0.0002057
3616.84	0.0002333
3626.48	0.00014
3636.13	0.0001898
3645.77	0.000114
3655.42	5.4e-05
3665.06	0.000157
3674.71	9.2e-05
3684.35	0.000118
3694	0.000141
3703.64	0.000183
3713.29	0.000148
3722.93	0.000166
3732.58	0.0002606
3742.22	0.0002202
3751.86	0.00032581
3761.51	0.0004611
3771.15	0.000173
3780.8	0.0002106
3790.44	0.000164
3800.09	0.00033772
3809.73	0.0002454
3819.38	0.0002313
3829.02	0.0002082
3838.67	0.000158
3848.31	0.00038029
3857.96	0.0002574
3867.6	0.000188
3877.25	0.0002148
3886.89	0.0002509
3896.54	0.000172
3906.18	0.000126
3915.83	0.00037172
3925.47	9.4e-05
3935.12	0.000167
3944.76	0.000175
3954.41	0.0004806
3964.05	0.0002533
3973.69	0.0002678
3983.34	0.0004056
3992.98	0.0002129
