Infrared Spectrum: 3-Benzyloxy-4-methoxybenzoic acid
Formula: C 15 H 14 O 4
CAS: 58452-00-9
State: gas
Origin: EPA-IR VAPOR PHASE LIBRARY
1/CM	ABSORBANCE
549.8	0.003153
559.445	0.002603
569.09	0.002703
578.734	0.002703
588.379	0.004053
598.024	0.006103
607.669	0.008883
617.313	0.007473
626.958	0.004403
636.603	0.002203
646.248	0.0011852
655.893	0.001333
665.537	0.001533
675.182	0.001763
684.827	0.003043
694.472	0.005883
704.116	0.006263
713.761	0.007123
723.406	0.005563
733.051	0.006393
742.695	0.007313
752.34	0.008463
761.985	0.011323
771.63	0.008413
781.275	0.003343
790.919	0.001813
800.564	0.001413
810.209	0.001673
819.854	0.002063
829.498	0.001973
839.143	0.001583
848.788	0.001433
858.433	0.001273
868.078	0.001303
877.722	0.002243
887.367	0.002183
897.012	0.002663
906.657	0.003193
916.301	0.003343
925.946	0.003083
935.591	0.002383
945.236	0.002073
954.88	0.002123
964.525	0.002503
974.17	0.003793
983.815	0.006063
993.46	0.009683
1003.1	0.012143
1012.75	0.016013
1022.39	0.016153
1032.04	0.011743
1041.68	0.007583
1051.33	0.004723
1060.97	0.005073
1070.62	0.010333
1080.26	0.015553
1089.91	0.013453
1099.55	0.008273
1109.2	0.010003
1118.84	0.018033
1128.49	0.019613
1138.13	0.016823
1147.78	0.017093
1157.42	0.026413
1167.07	0.020503
1176.71	0.012413
1186.36	0.010123
1196	0.010423
1205.64	0.013403
1215.29	0.015123
1224.93	0.013153
1234.58	0.012823
1244.22	0.012433
1253.87	0.017483
1263.51	0.029073
1273.16	0.035753
1282.8	0.021323
1292.45	0.014853
1302.09	0.012153
1311.74	0.010153
1321.38	0.009283
1331.03	0.010463
1340.67	0.013583
1350.32	0.014873
1359.96	0.012623
1369.61	0.011593
1379.25	0.008503
1388.9	0.004563
1398.54	0.004153
1408.18	0.007193
1417.83	0.012993
1427.47	0.012493
1437.12	0.007343
1446.76	0.007523
1456.41	0.005963
1466.05	0.006143
1475.7	0.005163
1485.34	0.005443
1494.99	0.009973
1504.63	0.018373
1514.28	0.018393
1523.92	0.007283
1533.57	0.003413
1543.21	0.002643
1552.86	0.002703
1562.5	0.003483
1572.15	0.005263
1581.79	0.007533
1591.44	0.008863
1601.08	0.010803
1610.73	0.006933
1620.37	0.003083
1630.01	0.001903
1639.66	0.001483
1649.3	0.0011826
1658.95	0.0011701
1668.59	0.0010769
1678.24	0.001243
1687.88	0.001563
1697.53	0.002223
1707.17	0.002923
1716.82	0.003313
1726.46	0.004123
1736.11	0.007573
1745.75	0.024033
1755.4	0.064373
1765.04	0.024533
1774.69	0.006423
1784.33	0.003913
1793.98	0.003113
1803.62	0.003163
1813.27	0.002303
1822.91	0.001293
1832.55	0.0010443
1842.2	0.001058
1851.84	0.0009358
1861.49	0.0009851
1871.13	0.001273
1880.78	0.0011515
1890.42	0.0010636
1900.07	0.0008686
1909.71	0.0007913
1919.36	0.0008581
1929	0.0008355
1938.65	0.0008589
1948.29	0.0008675
1957.94	0.0008995
1967.58	0.0007787
1977.23	0.0005397
1986.87	0.0007152
1996.52	0.000691
2006.16	0.0007866
2015.81	0.000881
2025.45	0.000988
2035.1	0.0009959
2044.74	0.0008292
2054.38	0.000942
2064.03	0.000754
2073.67	0.0006405
2083.32	0.0006222
2092.96	0.0004488
2102.61	0.0005533
2112.25	0.0004504
2121.9	0.0004464
2131.54	0.0004538
2141.19	0.0004575
2150.83	0.0005307
2160.48	0.0004234
2170.12	0.0005099
2179.77	0.0006741
2189.41	0.0005579
2199.06	0.0005204
2208.7	0.0004879
2218.35	0.0004477
2227.99	0.0005572
2237.64	0.0005373
2247.28	0.0005229
2256.92	0.0005696
2266.57	0.0004638
2276.21	0.0005524
2285.86	0.0006714
2295.5	0.0005855
2305.15	0.000428
2314.79	0.0005056
2324.44	0.0005879
2334.08	0.0005151
2343.73	0.0004185
2353.37	0.0005933
2363.02	0.0003478
2372.66	0.000485
2382.31	0.000371
2391.95	0.00022586
2401.6	0.000497
2411.24	0.0004669
2420.89	0.0005597
2430.53	0.0005176
2440.18	0.0005648
2449.82	0.0005146
2459.47	0.0004989
2469.11	0.0005151
2478.75	0.0005045
2488.4	0.000492
2498.04	0.000487
2507.69	0.0006183
2517.33	0.0005418
2526.98	0.0004886
2536.62	0.0006037
2546.27	0.0006539
2555.91	0.0006481
2565.56	0.0005625
2575.2	0.0007549
2584.85	0.0006642
2594.49	0.0008571
2604.14	0.0006952
2613.78	0.0005634
2623.43	0.0005585
2633.07	0.0005147
2642.72	0.0005564
2652.36	0.0004237
2662.01	0.0005347
2671.65	0.0004561
2681.29	0.00030998
2690.94	0.000398
2700.58	0.000463
2710.23	0.0003599
2719.87	0.000452
2729.52	0.0004788
2739.16	0.0004032
2748.81	0.0004545
2758.45	0.0006195
2768.1	0.0005544
2777.74	0.0007459
2787.39	0.0007109
2797.03	0.0005133
2806.68	0.0008554
2816.32	0.0009722
2825.97	0.001383
2835.61	0.002193
2845.26	0.003313
2854.9	0.002743
2864.55	0.002273
2874.19	0.002393
2883.84	0.002733
2893.48	0.002823
2903.12	0.003263
2912.77	0.003583
2922.41	0.003753
2932.06	0.004333
2941.7	0.005713
2951.35	0.005643
2960.99	0.005323
2970.64	0.004063
2980.28	0.003003
2989.93	0.002513
2999.57	0.002933
3009.22	0.003433
3018.86	0.003063
3028.51	0.003633
3038.15	0.004353
3047.8	0.003313
3057.44	0.003323
3067.09	0.004543
3076.73	0.005153
3086.38	0.003403
3096.02	0.002713
3105.67	0.001723
3115.31	0.001483
3124.95	0.0010629
3134.6	0.0006634
3144.24	0.0005733
3153.89	0.00032874
3163.53	0.000631
3173.18	0.0003577
3182.82	0.0001646
3192.47	0.00027025
3202.11	0.0006553
3211.76	0.0004354
3221.4	0.0001649
3231.05	0.00029473
3240.69	0.0003563
3250.34	0.0005324
3259.98	8.7e-05
3269.63	0.0001988
3279.27	0.0001644
3288.92	0.0003612
3298.56	0.0005293
3308.21	0.00031538
3317.85	0.0005094
3327.49	0.000118
3337.14	0.000402
3346.78	0.000373
3356.43	0.00028777
3366.07	0.00026168
3375.72	0.0002085
3385.36	0.0005075
3395.01	0.0006073
3404.65	0.0004433
3414.3	0.00025805
3423.94	0.0004253
3433.59	0.0001604
3443.23	0.00032834
3452.88	0.0004658
3462.52	0.0005031
3472.17	0.0004512
3481.81	0.00027109
3491.46	0.0007886
3501.1	0.0007363
3510.75	0.0006041
3520.39	0.0004888
3530.04	0.0006265
3539.68	0.000594
3549.32	0.0007082
3558.97	0.0011081
3568.61	0.002513
3578.26	0.012273
3587.9	0.016973
3597.55	0.002393
3607.19	0.0008464
3616.84	0.0007922
3626.48	0.0007421
3636.13	0.0005544
3645.77	0.0003745
3655.42	0.0009041
3665.06	0.0002201
3674.71	0.0005015
3684.35	0.00031657
3694	0.0005173
3703.64	0.00022603
3713.29	0.00025023
3722.93	0.0001739
3732.58	0.0003477
3742.22	8e-05
3751.86	0.00024758
3761.51	0.0004387
3771.15	0.0001571
3780.8	0.0004538
3790.44	0.000503
3800.09	0.00029542
3809.73	0.0005152
3819.38	0.00030536
3829.02	0.0005129
3838.67	0.0005331
3848.31	0.0005711
3857.96	0.0005899
3867.6	0.0004401
3877.25	0.0006285
3886.89	0.0003434
3896.54	0.0004933
3906.18	0.0005332
3915.83	0.00023949
3925.47	0.0005199
3935.12	0.0003492
3944.76	0.00029818
3954.41	0.0003998
3964.05	0.0009051
3973.69	0.0005813
3983.34	0.0005684
3992.98	0.0009027
