Infrared Spectrum: N,N-DIETHYL-P-METHOXY-PHENOXY PROPYLAMINE
Formula: C14 H23 N O2
CAS: 58469-70-8
State: LIQUID
Class: COBLENTZ
Instrument: Not specified, most likely a prism, grating, or hybrid spectrometer.
Sampling: TRANSMISSION
Path length: 0.00125 CM
Resolution: 4
MICROMETERS	TRANSMITTANCE
2.036	0.901
2.07195	0.901
2.1079	0.896
2.14386	0.894
2.17981	0.89
2.21576	0.889
2.25171	0.885
2.28766	0.862
2.32361	0.85
2.35957	0.85
2.39552	0.86
2.43147	0.86
2.46742	0.859
2.50337	0.855
2.53933	0.86
2.57528	0.869
2.61123	0.875
2.64718	0.876
2.68313	0.88
2.71909	0.876
2.75504	0.86
2.79099	0.85
2.82694	0.83
2.86289	0.816
2.89884	0.801
2.9348	0.781
2.97075	0.76
3.0067	0.742
3.04265	0.721
3.0786	0.702
3.11456	0.677
3.15051	0.651
3.18646	0.628
3.22241	0.607
3.25836	0.556
3.29432	0.489
3.33027	0.345
3.36622	0.121
3.40217	0.07
3.43812	0.095
3.47407	0.147
3.51003	0.197
3.54598	0.172
3.58193	0.167
3.61788	0.294
3.65383	0.41
3.68979	0.463
3.72574	0.524
3.76169	0.558
3.79764	0.588
3.83359	0.619
3.86955	0.628
3.9055	0.625
3.94145	0.644
3.9774	0.653
4.01335	0.669
4.0493	0.679
4.08526	0.676
4.12121	0.693
4.15716	0.713
4.19311	0.73
4.22906	0.746
4.26502	0.76
4.30097	0.758
4.33692	0.757
4.37287	0.765
4.40882	0.778
4.44478	0.783
4.48073	0.795
4.51668	0.801
4.55263	0.804
4.58858	0.806
4.62453	0.813
4.66049	0.815
4.69644	0.818
4.73239	0.818
4.76834	0.816
4.80429	0.804
4.84025	0.772
4.8762	0.746
4.91215	0.748
4.9481	0.774
4.98405	0.785
5.02001	0.783
5.05596	0.778
5.09191	0.783
5.12786	0.792
5.16381	0.799
5.19976	0.806
5.23572	0.804
5.27167	0.801
5.30762	0.79
5.34357	0.785
5.37952	0.776
5.41548	0.753
5.45143	0.744
5.48738	0.764
5.52333	0.776
5.55928	0.783
5.59524	0.788
5.63119	0.794
5.66714	0.797
5.70309	0.797
5.73904	0.79
5.77499	0.778
5.81095	0.772
5.8469	0.778
5.88285	0.781
5.9188	0.781
5.95475	0.772
5.99071	0.751
6.02666	0.744
6.06261	0.72
6.09856	0.714
6.13451	0.698
6.17047	0.674
6.20642	0.637
6.24237	0.621
6.27832	0.582
6.31427	0.54
6.35022	0.653
6.38618	0.677
6.42213	0.693
6.45808	0.684
6.49403	0.656
6.52998	0.596
6.56594	0.454
6.60189	0.325
6.63784	0.089
6.67379	0.008
6.70974	0.017
6.7457	0.179
6.78165	0.248
6.8176	0.144
6.85355	0.072
6.8895	0.042
6.92545	0.098
6.96141	0.142
6.99736	0.154
7.03331	0.318
7.06926	0.441
7.10521	0.54
7.14117	0.572
7.17712	0.514
7.21307	0.353
7.24902	0.253
7.28497	0.188
7.32093	0.214
7.35688	0.294
7.39283	0.406
7.42878	0.454
7.46473	0.463
7.50068	0.475
7.53664	0.5
7.57259	0.508
7.60854	0.487
7.64449	0.443
7.68044	0.399
7.7164	0.329
7.75235	0.267
7.7883	0.223
7.82425	0.207
7.8602	0.313
7.89616	0.38
7.93211	0.325
7.96806	0.255
8.00401	0.19
8.03996	0.13
8.07591	0.051
8.11187	0.008
8.14782	0.005
8.18377	0.005
8.21972	0.005
8.25567	0.005
8.29163	0.008
8.32758	0.015
8.36353	0.028
8.39948	0.098
8.43543	0.214
8.47139	0.292
8.50734	0.193
8.54329	0.135
8.57924	0.17
8.61519	0.225
8.65114	0.332
8.6871	0.447
8.72305	0.508
8.759	0.512
8.79495	0.505
8.8309	0.482
8.86686	0.441
8.90281	0.426
8.93876	0.424
8.97471	0.445
9.01066	0.443
9.04661	0.357
9.08257	0.246
9.11852	0.246
9.15447	0.276
9.19042	0.278
9.22637	0.279
9.26233	0.281
9.29828	0.29
9.33423	0.265
9.37018	0.23
9.40613	0.193
9.44209	0.153
9.47804	0.133
9.51399	0.13
9.54994	0.123
9.58589	0.072
9.62184	0.021
9.6578	0.014
9.69375	0.019
9.7297	0.051
9.76565	0.151
9.8016	0.205
9.83756	0.272
9.87351	0.327
9.90946	0.417
9.94541	0.448
9.98136	0.455
10.0173	0.512
10.0533	0.547
10.0892	0.566
10.1252	0.572
10.1611	0.554
10.1971	0.528
10.233	0.505
10.269	0.51
10.3049	0.526
10.3409	0.522
10.3768	0.501
10.4128	0.459
10.4487	0.44
10.4847	0.434
10.5206	0.441
10.5566	0.457
10.5925	0.492
10.6285	0.544
10.6644	0.584
10.7004	0.616
10.7364	0.656
10.7723	0.669
10.8083	0.676
10.8442	0.672
10.8802	0.66
10.9161	0.656
10.9521	0.646
10.988	0.642
11.024	0.651
11.0599	0.661
11.0959	0.679
11.1318	0.693
11.1678	0.702
11.2037	0.711
11.2397	0.716
11.2756	0.716
11.3116	0.718
11.3475	0.716
11.3835	0.714
11.4194	0.714
11.4554	0.714
11.4913	0.711
11.5273	0.704
11.5632	0.704
11.5992	0.7
11.6351	0.695
11.6711	0.681
11.7071	0.651
11.743	0.626
11.779	0.605
11.8149	0.572
11.8509	0.526
11.8868	0.461
11.9228	0.369
11.9587	0.258
11.9947	0.176
12.0306	0.123
12.0666	0.072
12.1025	0.021
12.1385	0.015
12.1744	0.022
12.2104	0.093
12.2463	0.2
12.2823	0.318
12.3182	0.415
12.3542	0.463
12.3901	0.487
12.4261	0.496
12.462	0.498
12.498	0.492
12.5339	0.484
12.5699	0.468
12.6059	0.461
12.6418	0.459
12.6778	0.463
12.7137	0.475
12.7497	0.507
12.7856	0.529
12.8216	0.544
12.8575	0.556
12.8935	0.559
12.9294	0.565
12.9654	0.566
13.0013	0.563
13.0373	0.559
13.0732	0.549
13.1092	0.54
13.1451	0.522
13.1811	0.507
13.217	0.485
13.253	0.452
13.2889	0.396
13.3249	0.378
13.3608	0.371
13.3968	0.366
13.4327	0.38
13.4687	0.399
13.5046	0.39
13.5406	0.357
13.5766	0.279
13.6125	0.253
13.6485	0.26
13.6844	0.294
13.7204	0.315
13.7563	0.323
13.7923	0.334
13.8282	0.341
13.8642	0.357
13.9001	0.373
13.9361	0.39
13.972	0.403
14.008	0.422
14.0439	0.441
14.0799	0.457
14.1158	0.475
14.1518	0.491
14.1877	0.514
14.2237	0.538
14.2596	0.551
14.2956	0.568
14.3315	0.589
14.3675	0.607
14.4034	0.63
14.4394	0.64
14.4753	0.651
14.5113	0.66
14.5473	0.667
14.5832	0.667
14.6192	0.667
14.6551	0.667
14.6911	0.667
14.727	0.665
14.763	0.663
14.7989	0.661
14.8349	0.656
14.8708	0.653
14.9068	0.649
14.9427	0.646
14.9787	0.646
15.0146	0.642
15.0506	0.64
15.0865	0.633
15.1225	0.628
15.1584	0.626
15.1944	0.623
15.2303	0.617
15.2663	0.61
15.3022	0.603
15.3382	0.602
15.3741	0.598
15.4101	0.593
15.446	0.582
15.482	0.582
