Infrared Spectrum: BIS(STEAROYLOXY)DIBUTYL TIN
Formula: C44 H88 O4 Sn
CAS: 5847-55-2
State: SOLID (BETWEEN SALTS)
Class: COBLENTZ
Instrument: BECKMAN IR-4 (HYBRID PRISM-GRATING)
Sampling: TRANSMISSION
Resolution: 4
Origin: FLUKA AG, BUCHS, SWITZERLAND
MICROMETERS	TRANSMITTANCE
2.03	0.894
2.06496	0.899
2.09991	0.901
2.13487	0.905
2.16983	0.907
2.20478	0.902
2.23974	0.882
2.2747	0.849
2.30966	0.85
2.34461	0.872
2.37957	0.867
2.41453	0.884
2.44948	0.901
2.48444	0.913
2.5194	0.916
2.55435	0.923
2.58931	0.935
2.62427	0.931
2.65922	0.94
2.69418	0.931
2.72914	0.926
2.7641	0.915
2.79905	0.907
2.83401	0.902
2.86897	0.892
2.90392	0.89
2.93888	0.887
2.97384	0.881
3.00879	0.875
3.04375	0.866
3.07871	0.86
3.11366	0.846
3.14862	0.839
3.18358	0.83
3.21854	0.801
3.25349	0.753
3.28845	0.689
3.32341	0.532
3.35836	0.149
3.39332	0.043
3.42828	0.056
3.46323	0.097
3.49819	0.145
3.53315	0.596
3.5681	0.774
3.60306	0.842
3.63802	0.857
3.67298	0.894
3.70793	0.89
3.74289	0.894
3.77785	0.902
3.8128	0.92
3.84776	0.928
3.88272	0.937
3.91767	0.94
3.95263	0.938
3.98759	0.942
4.02254	0.947
4.0575	0.946
4.09246	0.941
4.12742	0.938
4.16237	0.931
4.19733	0.923
4.23229	0.933
4.26724	0.928
4.3022	0.938
4.33716	0.937
4.37211	0.941
4.40707	0.95
4.44203	0.953
4.47698	0.956
4.51194	0.958
4.5469	0.958
4.58186	0.956
4.61681	0.955
4.65177	0.958
4.68673	0.961
4.72168	0.962
4.75664	0.965
4.7916	0.973
4.82655	0.968
4.86151	0.963
4.89647	0.967
4.93142	0.96
4.96638	0.967
5.00134	0.975
5.0363	0.97
5.07125	0.967
5.10621	0.967
5.14117	0.97
5.17612	0.963
5.21108	0.967
5.24604	0.963
5.28099	0.968
5.31595	0.961
5.35091	0.967
5.38586	0.961
5.42082	0.962
5.45578	0.962
5.49074	0.955
5.52569	0.95
5.56065	0.945
5.59561	0.931
5.63056	0.925
5.66552	0.906
5.70048	0.851
5.73543	0.837
5.77039	0.822
5.80535	0.799
5.8403	0.832
5.87526	0.841
5.91022	0.827
5.94518	0.802
5.98013	0.786
6.01509	0.751
6.05005	0.723
6.085	0.679
6.11996	0.617
6.15492	0.507
6.18987	0.397
6.22483	0.25
6.25979	0.183
6.29474	0.147
6.3297	0.22
6.36466	0.365
6.39962	0.551
6.43457	0.619
6.46953	0.745
6.50449	0.775
6.53944	0.807
6.5744	0.807
6.60936	0.807
6.64431	0.791
6.67927	0.759
6.71423	0.709
6.74918	0.457
6.78414	0.17
6.8191	0.284
6.85406	0.397
6.88901	0.427
6.92397	0.423
6.95893	0.361
6.99388	0.254
7.02884	0.179
7.0638	0.164
7.09875	0.226
7.13371	0.372
7.16867	0.451
7.20362	0.476
7.23858	0.466
7.27354	0.568
7.3085	0.599
7.34345	0.614
7.37841	0.602
7.41337	0.62
7.44832	0.629
7.48328	0.677
7.51824	0.701
7.55319	0.635
7.58815	0.634
7.62311	0.642
7.65806	0.586
7.69302	0.571
7.72798	0.605
7.76294	0.582
7.79789	0.6
7.83285	0.643
7.86781	0.64
7.90276	0.612
7.93772	0.665
7.97268	0.673
8.00763	0.654
8.04259	0.733
8.07755	0.726
8.1125	0.697
8.14746	0.719
8.18242	0.788
8.21738	0.774
8.25233	0.729
8.28729	0.783
8.32225	0.784
8.3572	0.753
8.39216	0.724
8.42712	0.743
8.46207	0.749
8.49703	0.765
8.53199	0.76
8.56694	0.736
8.6019	0.708
8.63686	0.713
8.67182	0.779
8.70677	0.816
8.74173	0.832
8.77669	0.836
8.81164	0.83
8.8466	0.82
8.88156	0.798
8.91651	0.776
8.95147	0.758
8.98643	0.776
9.02138	0.771
9.05634	0.746
9.0913	0.758
9.12626	0.763
9.16121	0.749
9.19617	0.708
9.23113	0.648
9.26608	0.647
9.30104	0.71
9.336	0.746
9.37095	0.754
9.40591	0.753
9.44087	0.75
9.47582	0.75
9.51078	0.756
9.54574	0.768
9.5807	0.775
9.61565	0.779
9.65061	0.771
9.68557	0.758
9.72052	0.756
9.75548	0.773
9.79044	0.785
9.82539	0.817
9.86035	0.829
9.89531	0.827
9.93026	0.819
9.96522	0.82
10.0002	0.83
10.0351	0.837
10.0701	0.844
10.105	0.847
10.14	0.851
10.175	0.851
10.2099	0.849
10.2449	0.849
10.2798	0.839
10.3148	0.822
10.3497	0.789
10.3847	0.793
10.4197	0.812
10.4546	0.796
10.4896	0.753
10.5245	0.728
10.5595	0.759
10.5944	0.781
10.6294	0.796
10.6644	0.81
10.6993	0.817
10.7343	0.821
10.7692	0.827
10.8042	0.845
10.8391	0.851
10.8741	0.859
10.9091	0.866
10.944	0.88
10.979	0.884
11.0139	0.889
11.0489	0.886
11.0838	0.88
11.1188	0.872
11.1538	0.852
11.1887	0.832
11.2237	0.809
11.2586	0.809
11.2936	0.798
11.3285	0.783
11.3635	0.766
11.3985	0.746
11.4334	0.761
11.4684	0.804
11.5033	0.85
11.5383	0.882
11.5732	0.9
11.6082	0.907
11.6432	0.911
11.6781	0.907
11.7131	0.902
11.748	0.899
11.783	0.912
11.8179	0.922
11.8529	0.927
11.8879	0.94
11.9228	0.95
11.9578	0.953
11.9927	0.957
12.0277	0.957
12.0626	0.961
12.0976	0.962
12.1326	0.961
12.1675	0.965
12.2025	0.96
12.2374	0.952
12.2724	0.94
12.3073	0.928
12.3423	0.938
12.3772	0.953
12.4122	0.962
12.4472	0.966
12.4821	0.966
12.5171	0.968
12.552	0.966
12.587	0.96
12.6219	0.963
12.6569	0.948
12.6919	0.938
12.7268	0.927
12.7618	0.907
12.7967	0.899
12.8317	0.896
12.8666	0.902
12.9016	0.895
12.9366	0.887
12.9715	0.882
13.0065	0.887
13.0414	0.871
13.0764	0.859
13.1113	0.824
13.1463	0.821
13.1813	0.834
13.2162	0.841
13.2512	0.83
13.2861	0.798
13.3211	0.778
13.356	0.749
13.391	0.724
13.426	0.706
13.4609	0.679
13.4959	0.655
13.5308	0.625
13.5658	0.608
13.6007	0.599
13.6357	0.583
13.6707	0.569
13.7056	0.547
13.7406	0.518
13.7755	0.477
13.8105	0.422
13.8454	0.402
13.8804	0.44
13.9154	0.526
13.9503	0.608
13.9853	0.654
14.0202	0.695
14.0552	0.715
14.0901	0.734
14.1251	0.749
14.1601	0.76
14.195	0.768
14.23	0.768
14.2649	0.765
14.2999	0.754
14.3348	0.74
14.3698	0.711
14.4048	0.687
14.4397	0.66
14.4747	0.64
14.5096	0.638
14.5446	0.65
14.5795	0.654
14.6145	0.674
14.6494	0.687
14.6844	0.684
14.7194	0.684
14.7543	0.684
14.7893	0.679
14.8242	0.683
14.8592	0.698
14.8941	0.708
14.9291	0.716
14.9641	0.716
14.999	0.714
