Infrared Spectrum: Tris(dipropylamino)phosphine
Formula: C 18 H 42 N 3 P
CAS: 5848-64-6
State: gas
Origin: EPA-IR VAPOR PHASE LIBRARY
1/CM	ABSORBANCE
549.8	0.001377
559.445	0.001867
569.09	0.001967
578.734	0.001597
588.379	0.0012031
598.024	0.0010603
607.669	0.0011867
617.313	0.0012346
626.958	0.002607
636.603	0.003147
646.248	0.004167
655.893	0.005337
665.537	0.007327
675.182	0.010257
684.827	0.012757
694.472	0.015847
704.116	0.017707
713.761	0.017477
723.406	0.012587
733.051	0.007737
742.695	0.005947
752.34	0.005207
761.985	0.004737
771.63	0.005187
781.275	0.006407
790.919	0.005307
800.564	0.003337
810.209	0.002947
819.854	0.003527
829.498	0.004137
839.143	0.005897
848.788	0.007457
858.433	0.010867
868.078	0.015767
877.722	0.012397
887.367	0.009567
897.012	0.008197
906.657	0.006197
916.301	0.004667
925.946	0.004977
935.591	0.006177
945.236	0.009427
954.88	0.017127
964.525	0.033737
974.17	0.050107
983.815	0.047217
993.46	0.029437
1003.1	0.016777
1012.75	0.012057
1022.39	0.012287
1032.04	0.014387
1041.68	0.012327
1051.33	0.009647
1060.97	0.008037
1070.62	0.009447
1080.26	0.010797
1089.91	0.011457
1099.55	0.010727
1109.2	0.009867
1118.84	0.007187
1128.49	0.006647
1138.13	0.008257
1147.78	0.013207
1157.42	0.018207
1167.07	0.028437
1176.71	0.032357
1186.36	0.018987
1196	0.008087
1205.64	0.005547
1215.29	0.004747
1224.93	0.003957
1234.58	0.004377
1244.22	0.005737
1253.87	0.007547
1263.51	0.007167
1273.16	0.006457
1282.8	0.005617
1292.45	0.005937
1302.09	0.005947
1311.74	0.004947
1321.38	0.004567
1331.03	0.005267
1340.67	0.005917
1350.32	0.007367
1359.96	0.009467
1369.61	0.010577
1379.25	0.013517
1388.9	0.009437
1398.54	0.004717
1408.18	0.003747
1417.83	0.003607
1427.47	0.004127
1437.12	0.005807
1446.76	0.009317
1456.41	0.013627
1466.05	0.016997
1475.7	0.010347
1485.34	0.004827
1494.99	0.003117
1504.63	0.002417
1514.28	0.001967
1523.92	0.001737
1533.57	0.001577
1543.21	0.0012608
1552.86	0.0013069
1562.5	0.0012916
1572.15	0.0012103
1581.79	0.0011229
1591.44	0.0011462
1601.08	0.0010082
1610.73	0.0009574
1620.37	0.0009882
1630.01	0.0010784
1639.66	0.0009525
1649.3	0.000874
1658.95	0.0008929
1668.59	0.0008768
1678.24	0.00085
1687.88	0.0008227
1697.53	0.0006954
1707.17	0.0006099
1716.82	0.0005784
1726.46	0.0007314
1736.11	0.0006202
1745.75	0.000559
1755.4	0.0005881
1765.04	0.0005583
1774.69	0.0005023
1784.33	0.0004388
1793.98	0.0004447
1803.62	0.0005188
1813.27	0.0005039
1822.91	0.0004227
1832.55	0.0005068
1842.2	0.000473
1851.84	0.0005407
1861.49	0.0005603
1871.13	0.0005751
1880.78	0.0005378
1890.42	0.0004984
1900.07	0.0005098
1909.71	0.0005199
1919.36	0.0004911
1929	0.0005343
1938.65	0.0005714
1948.29	0.000482
1957.94	0.0005289
1967.58	0.0005164
1977.23	0.0005572
1986.87	0.0004691
1996.52	0.0004746
2006.16	0.0005926
2015.81	0.0005876
2025.45	0.0005785
2035.1	0.0006825
2044.74	0.0006404
2054.38	0.0006421
2064.03	0.0006461
2073.67	0.0006606
2083.32	0.0005952
2092.96	0.0006391
2102.61	0.0006846
2112.25	0.0006107
2121.9	0.0006932
2131.54	0.0006954
2141.19	0.0007132
2150.83	0.0007308
2160.48	0.0007852
2170.12	0.0008275
2179.77	0.0007209
2189.41	0.0008474
2199.06	0.000883
2208.7	0.0007463
2218.35	0.0006956
2227.99	0.0006756
2237.64	0.0006821
2247.28	0.0007424
2256.92	0.0007043
2266.57	0.0007157
2276.21	0.0006945
2285.86	0.0007792
2295.5	0.0005812
2305.15	0.0007187
2314.79	0.0007168
2324.44	0.0009077
2334.08	0.0009944
2343.73	0.0009276
2353.37	0.0008974
2363.02	0.0007489
2372.66	0.0007251
2382.31	0.0008223
2391.95	0.0008051
2401.6	0.0008185
2411.24	0.000678
2420.89	0.0005791
2430.53	0.0006309
2440.18	0.0006092
2449.82	0.000659
2459.47	0.000655
2469.11	0.0006723
2478.75	0.0006751
2488.4	0.0006306
2498.04	0.000594
2507.69	0.0005764
2517.33	0.0005271
2526.98	0.0007564
2536.62	0.0007426
2546.27	0.0008394
2555.91	0.000923
2565.56	0.0009344
2575.2	0.0011324
2584.85	0.0011956
2594.49	0.001317
2604.14	0.001377
2613.78	0.001517
2623.43	0.001687
2633.07	0.001637
2642.72	0.001977
2652.36	0.002057
2662.01	0.002097
2671.65	0.002257
2681.29	0.002417
2690.94	0.002687
2700.58	0.003047
2710.23	0.003687
2719.87	0.004087
2729.52	0.004487
2739.16	0.004627
2748.81	0.004687
2758.45	0.004627
2768.1	0.004747
2777.74	0.005147
2787.39	0.006267
2797.03	0.008027
2806.68	0.011017
2816.32	0.016117
2825.97	0.023697
2835.61	0.030707
2845.26	0.032267
2854.9	0.029807
2864.55	0.031807
2874.19	0.044027
2883.84	0.053217
2893.48	0.038277
2903.12	0.036777
2912.77	0.040337
2922.41	0.044107
2932.06	0.054627
2941.7	0.067337
2951.35	0.057227
2960.99	0.091857
2970.64	0.099297
2980.28	0.045237
2989.93	0.021417
2999.57	0.013237
3009.22	0.009597
3018.86	0.007707
3028.51	0.006247
3038.15	0.005147
3047.8	0.004437
3057.44	0.003757
3067.09	0.003207
3076.73	0.003057
3086.38	0.002617
3096.02	0.002397
3105.67	0.002237
3115.31	0.002057
3124.95	0.001847
3134.6	0.001697
3144.24	0.001687
3153.89	0.001577
3163.53	0.001597
3173.18	0.001607
3182.82	0.00108
3192.47	0.0009892
3202.11	0.0009295
3211.76	0.0008116
3221.4	0.000596
3231.05	0.000627
3240.69	0.000573
3250.34	0.0007716
3259.98	0.0005476
3269.63	0.0006264
3279.27	0.0007035
3288.92	0.0006389
3298.56	0.0006815
3308.21	0.0005584
3317.85	0.00030749
3327.49	0.0005809
3337.14	0.0005712
3346.78	0.0004194
3356.43	0.000468
3366.07	0.0002831
3375.72	0.00031201
3385.36	0.0007048
3395.01	0.0004864
3404.65	0.0004803
3414.3	0.0004781
3423.94	0.0005053
3433.59	0.00035765
3443.23	0.00031402
3452.88	0.00041477
3462.52	0.0005248
3472.17	0.00044
3481.81	0.0002878
3491.46	0.0004731
3501.1	0.0002345
3510.75	0.00040799
3520.39	0.00040485
3530.04	0.000323732
3539.68	0.0003446
3549.32	0.0002742
3558.97	0.000203
3568.61	0.00037533
3578.26	0.00036359
3587.9	2.1e-05
3597.55	0.0005642
3607.19	0.000321945
3616.84	0.00038706
3626.48	0.00040274
3636.13	0.00033833
3645.77	0.00037361
3655.42	0.0005133
3665.06	0.00039533
3674.71	0.0004366
3684.35	0.0004435
3694	0.00036598
3703.64	0.0004481
3713.29	0.00034978
3722.93	0.00037181
3732.58	0.0004321
3742.22	0.0006125
3751.86	0.0006712
3761.51	0.0005352
3771.15	0.000565
3780.8	0.0006566
3790.44	0.0005271
3800.09	0.0005949
3809.73	0.0006381
3819.38	0.0006379
3829.02	0.0005141
3838.67	0.00037811
3848.31	0.0005806
3857.96	0.000571
3867.6	0.000599
3877.25	0.00040723
3886.89	0.0002172
3896.54	0.0005029
3906.18	0.00035589
3915.83	0.00039908
3925.47	0.00039317
3935.12	0.0005435
3944.76	0.0005459
3954.41	0.0005987
3964.05	0.0005018
3973.69	0.0007289
3983.34	0.0005218
3992.98	0.0008482
