Infrared Spectrum: UREA, 1-METHYL-1-NITROSO-3-(1,2,3,4-TETRAHYDRO-2,4-DIOXO-5-PYRIMIDINYL)-
Formula: C6 H7 N5 O4
CAS: 58494-42-1
State: SOLID (0.8 mg / 650 mg KBr DISC)
Class: COBLENTZ III
Instrument: PERKIN-ELMER 221 (GRATING)
Instrument parameters: FILTER AT 980 CM^-^1. GRATING 4000-1428 AND NaCl PRISM 1428-650 CM^-^1
Sampling: TRANSMISSION
Resolution: 4
Origin: SOUTHERN RESEARCH INSTITUTE
1/CM	TRANSMITTANCE
634.326	0.552
642.851	0.6715
651.376	0.7355
659.901	0.7814
668.426	0.79
676.951	0.791
685.476	0.7883
694.001	0.774
702.526	0.7551
711.051	0.7213
719.576	0.6782
728.102	0.6251
736.627	0.4673
745.152	0.4551
753.677	0.3297
762.202	0.2375
770.727	0.609
779.252	0.5998
787.777	0.5122
796.302	0.4119
804.827	0.2201
813.352	0.4807
821.877	0.57
830.402	0.5494
838.927	0.4022
847.452	0.2365
855.977	0.519
864.502	0.4625
873.027	0.3776
881.552	0.3713
890.077	0.3234
898.602	0.3935
907.127	0.6397
915.653	0.642
924.178	0.4968
932.703	0.6428
941.228	0.6176
949.753	0.5181
958.278	0.317
966.803	0.1323
975.328	0.0405
983.853	0.1371
992.378	0.4121
1000.9	0.6242
1009.43	0.5558
1017.95	0.6833
1026.48	0.7753
1035	0.782
1043.53	0.7812
1052.05	0.7678
1060.58	0.7576
1069.1	0.7412
1077.63	0.702
1086.15	0.5547
1094.68	0.247
1103.2	0.0849
1111.73	0.3803
1120.25	0.633
1128.78	0.6877
1137.3	0.6854
1145.83	0.6497
1154.35	0.6589
1162.88	0.68
1171.4	0.6644
1179.93	0.6199
1188.45	0.5659
1196.98	0.4041
1205.5	0.2031
1214.03	0.1237
1222.55	0.2731
1231.08	0.4015
1239.6	0.3229
1248.13	0.5886
1256.65	0.7099
1265.18	0.7412
1273.7	0.7555
1282.23	0.759
1290.75	0.7561
1299.28	0.7486
1307.8	0.7176
1316.33	0.6757
1324.85	0.6663
1333.38	0.6658
1341.9	0.6311
1350.43	0.5674
1358.95	0.3812
1367.48	0.2946
1376	0.553
1384.53	0.5581
1393.06	0.4657
1401.58	0.444
1410.11	0.4165
1418.63	0.3119
1427.16	0.1457
1435.68	0.1415
1444.21	0.2004
1452.73	0.1271
1461.26	0.0286
1469.78	0.024
1478.31	0.03
1486.83	0.025
1495.36	0.0295
1503.88	0.1878
1512.41	0.3545
1520.93	0.3596
1529.46	0.3252
1537.98	0.2122
1546.51	0.0349
1555.03	0.0403
1563.56	0.086
1572.08	0.3804
1580.61	0.5366
1589.13	0.5433
1597.66	0.5402
1606.18	0.5257
1614.71	0.4775
1623.23	0.4205
1631.76	0.3554
1640.28	0.2499
1648.81	0.1033
1657.33	0.023
1665.86	0.01
1674.38	0.0151
1682.91	0.0487
1691.43	0.1076
1699.96	0.1635
1708.48	0.1626
1717.01	0.0917
1725.53	0.0167
1734.06	0.0171
1742.58	0.024
1751.11	0.0596
1759.63	0.2026
1768.16	0.3787
1776.68	0.4445
1785.21	0.4609
1793.73	0.5244
1802.26	0.5821
1810.78	0.6384
1819.31	0.6866
1827.83	0.7131
1836.36	0.748
1844.88	0.7357
1853.41	0.733
1861.93	0.7672
1870.46	0.7959
1878.98	0.8096
1887.51	0.8245
1896.03	0.8364
1904.56	0.843
1913.08	0.843
1921.61	0.8461
1930.13	0.85
1938.66	0.852
1947.18	0.8541
1955.71	0.857
1964.23	0.855
1972.76	0.857
1981.28	0.857
1989.81	0.857
1998.33	0.856
2006.86	0.858
2015.38	0.8606
2023.91	0.856
2032.43	0.8464
2040.96	0.8545
2049.48	0.863
2058.01	0.8636
2066.53	0.8624
2075.06	0.86
2083.58	0.861
2092.11	0.862
2100.63	0.862
2109.16	0.86
2117.68	0.8606
2126.21	0.861
2134.73	0.862
2143.26	0.862
2151.78	0.861
2160.31	0.861
2168.83	0.8606
2177.36	0.858
2185.88	0.857
2194.41	0.8564
2202.93	0.8514
2211.46	0.849
2219.98	0.8533
2228.51	0.854
2237.03	0.855
2245.56	0.854
2254.08	0.856
2262.61	0.8554
2271.13	0.8564
2279.66	0.8514
2288.18	0.846
2296.71	0.843
2305.23	0.8406
2313.76	0.841
2322.29	0.8384
2330.81	0.836
2339.34	0.8308
2347.86	0.828
2356.39	0.819
2364.91	0.815
2373.44	0.8166
2381.96	0.816
2390.49	0.813
2399.01	0.8094
2407.54	0.805
2416.06	0.801
2424.59	0.794
2433.11	0.789
2441.64	0.7824
2450.16	0.7797
2458.69	0.7883
2467.21	0.7979
2475.74	0.802
2484.26	0.801
2492.79	0.801
2501.31	0.804
2509.84	0.805
2518.36	0.804
2526.89	0.7937
2535.41	0.789
2543.94	0.7824
2552.46	0.7774
2560.99	0.774
2569.51	0.772
2578.04	0.7657
2586.56	0.7471
2595.09	0.738
2603.61	0.734
2612.14	0.7297
2620.66	0.7241
2629.19	0.7175
2637.71	0.7104
2646.24	0.6997
2654.76	0.6924
2663.29	0.686
2671.81	0.6824
2680.34	0.6644
2688.86	0.6547
2697.39	0.6457
2705.91	0.6414
2714.44	0.6364
2722.96	0.63
2731.49	0.6231
2740.01	0.6051
2748.54	0.5934
2757.06	0.5779
2765.59	0.5589
2774.11	0.5307
2782.64	0.4967
2791.16	0.4681
2799.69	0.4239
2808.21	0.3851
2816.74	0.3271
2825.26	0.2865
2833.79	0.2836
2842.31	0.3123
2850.84	0.3418
2859.36	0.339
2867.89	0.3503
2876.41	0.3983
2884.94	0.409
2893.46	0.407
2901.99	0.4024
2910.51	0.3994
2919.04	0.392
2927.56	0.3844
2936.09	0.3623
2944.61	0.3416
2953.14	0.3214
2961.66	0.305
2970.19	0.26
2978.71	0.2435
2987.24	0.2217
2995.76	0.2005
3004.29	0.189
3012.81	0.1896
3021.34	0.195
3029.86	0.2121
3038.39	0.2286
3046.91	0.2733
3055.44	0.3025
3063.96	0.3186
3072.49	0.3224
3081.01	0.317
3089.54	0.3001
3098.06	0.2757
3106.59	0.2463
3115.11	0.1871
3123.64	0.1908
3132.16	0.2352
3140.69	0.2846
3149.21	0.293
3157.74	0.2973
3166.26	0.2996
3174.79	0.302
3183.31	0.3014
3191.84	0.2994
3200.36	0.285
3208.89	0.274
3217.41	0.271
3225.94	0.272
3234.46	0.2753
3242.99	0.2846
3251.52	0.298
3260.04	0.3096
3268.57	0.3334
3277.09	0.3606
3285.62	0.3898
3294.14	0.4111
3302.67	0.4329
3311.19	0.437
3319.72	0.436
3328.24	0.43
3336.77	0.413
3345.29	0.3546
3353.82	0.2085
3362.34	0.1686
3370.87	0.4307
3379.39	0.5184
3387.92	0.5546
3396.44	0.5703
3404.97	0.5983
3413.49	0.603
3422.02	0.6076
3430.54	0.616
3439.07	0.618
3447.59	0.622
3456.12	0.626
3464.64	0.6299
3473.17	0.648
3481.69	0.6556
3490.22	0.673
3498.74	0.687
3507.27	0.6946
3515.79	0.6994
3524.32	0.701
3532.84	0.7046
3541.37	0.7116
3549.89	0.715
3558.42	0.7243
3566.94	0.7303
3575.47	0.7415
3583.99	0.754
3592.52	0.7606
3601.04	0.776
3609.57	0.7826
3618.09	0.7922
3626.62	0.8003
3635.14	0.8083
3643.67	0.816
3652.19	0.817
3660.72	0.818
3669.24	0.818
3677.77	0.8184
3686.29	0.822
3694.82	0.823
3703.34	0.824
3711.87	0.823
3720.39	0.823
3728.92	0.822
3737.44	0.822
3745.97	0.823
3754.49	0.824
3763.02	0.824
3771.54	0.8234
3780.07	0.823
3788.59	0.823
3797.12	0.8226
3805.64	0.818
3814.17	0.816
3822.69	0.815
3831.22	0.815
3839.74	0.8131
3848.27	0.811
3856.79	0.8116
3865.32	0.81
3873.84	0.809
3882.37	0.809
3890.89	0.81
3899.42	0.809
