Infrared Spectrum: GLYCOPYRROLATE
Formula: C19 H28 Br N O3
CAS: 58493-54-2
State: SOLID (KBr DISC)
Class: COBLENTZ
Instrument: PERKIN-ELMER 21 (GRATING)
Instrument parameters: NaCl PRISM
Sampling: TRANSMISSION
Resolution: 2
MICROMETERS	TRANSMITTANCE
1.984	0.898
2.01788	0.898
2.05176	0.9
2.08564	0.901
2.11953	0.902
2.15341	0.904
2.18729	0.904
2.22117	0.904
2.25505	0.904
2.28893	0.898
2.32281	0.895
2.3567	0.902
2.39058	0.905
2.42446	0.908
2.45834	0.911
2.49222	0.912
2.5261	0.918
2.55999	0.921
2.59387	0.923
2.62775	0.923
2.66163	0.926
2.69551	0.926
2.72939	0.926
2.76327	0.926
2.79716	0.922
2.83104	0.912
2.86492	0.89
2.8988	0.818
2.93268	0.714
2.96656	0.559
3.00044	0.535
3.03433	0.632
3.06821	0.716
3.10209	0.791
3.13597	0.85
3.16985	0.876
3.20373	0.885
3.23761	0.88
3.2715	0.826
3.30538	0.757
3.33926	0.645
3.37314	0.56
3.40702	0.68
3.4409	0.743
3.47478	0.714
3.50867	0.822
3.54255	0.863
3.57643	0.885
3.61031	0.892
3.64419	0.894
3.67807	0.894
3.71196	0.895
3.74584	0.901
3.77972	0.909
3.8136	0.914
3.84748	0.915
3.88136	0.915
3.91524	0.915
3.94913	0.921
3.98301	0.923
4.01689	0.926
4.05077	0.929
4.08465	0.93
4.11853	0.93
4.15241	0.93
4.1863	0.93
4.22018	0.929
4.25406	0.929
4.28794	0.926
4.32182	0.928
4.3557	0.936
4.38958	0.943
4.42347	0.947
4.45735	0.95
4.49123	0.953
4.52511	0.953
4.55899	0.954
4.59287	0.954
4.62675	0.954
4.66064	0.953
4.69452	0.954
4.7284	0.956
4.76228	0.957
4.79616	0.957
4.83004	0.957
4.86393	0.959
4.89781	0.96
4.93169	0.961
4.96557	0.96
4.99945	0.959
5.03333	0.959
5.06721	0.95
5.1011	0.957
5.13498	0.961
5.16886	0.961
5.20274	0.96
5.23662	0.957
5.2705	0.957
5.30438	0.961
5.33827	0.966
5.37215	0.967
5.40603	0.967
5.43991	0.956
5.47379	0.942
5.50767	0.949
5.54155	0.949
5.57544	0.946
5.60932	0.925
5.6432	0.9
5.67708	0.805
5.71096	0.435
5.74484	0.318
5.77872	0.702
5.81261	0.846
5.84649	0.861
5.88037	0.887
5.91425	0.904
5.94813	0.925
5.98201	0.929
6.0159	0.929
6.04978	0.929
6.08366	0.933
6.11754	0.942
6.15142	0.959
6.1853	0.959
6.21918	0.933
6.25307	0.945
6.28695	0.952
6.32083	0.954
6.35471	0.956
6.38859	0.957
6.42247	0.956
6.45635	0.956
6.49024	0.957
6.52412	0.956
6.558	0.956
6.59188	0.946
6.62576	0.89
6.65964	0.823
6.69352	0.663
6.72741	0.616
6.76129	0.702
6.79517	0.749
6.82905	0.729
6.86293	0.694
6.89681	0.691
6.93069	0.73
6.96458	0.852
6.99846	0.884
7.03234	0.895
7.06622	0.901
7.1001	0.907
7.13398	0.907
7.16787	0.892
7.20175	0.825
7.23563	0.781
7.26951	0.738
7.30339	0.753
7.33727	0.847
7.37115	0.874
7.40504	0.852
7.43892	0.79
7.4728	0.769
7.50668	0.761
7.54056	0.808
7.57444	0.826
7.60832	0.853
7.64221	0.873
7.67609	0.823
7.70997	0.809
7.74385	0.856
7.77773	0.846
7.81161	0.846
7.84549	0.84
7.87938	0.833
7.91326	0.843
7.94714	0.845
7.98102	0.773
8.0149	0.69
8.04878	0.649
8.08266	0.556
8.11655	0.414
8.15043	0.376
8.18431	0.516
8.21819	0.618
8.25207	0.698
8.28595	0.702
8.31984	0.649
8.35372	0.511
8.3876	0.532
8.42148	0.538
8.45536	0.466
8.48924	0.504
8.52312	0.495
8.55701	0.45
8.59089	0.5
8.62477	0.598
8.65865	0.683
8.69253	0.722
8.72641	0.73
8.76029	0.704
8.79418	0.704
8.82806	0.709
8.86194	0.649
8.89582	0.557
8.9297	0.461
8.96358	0.508
8.99746	0.516
9.03135	0.526
9.06523	0.588
9.09911	0.588
9.13299	0.505
9.16687	0.585
9.20075	0.698
9.23463	0.729
9.26852	0.607
9.3024	0.577
9.33628	0.584
9.37016	0.569
9.40404	0.688
9.43792	0.749
9.47181	0.788
9.50569	0.808
9.53957	0.821
9.57345	0.767
9.60733	0.707
9.64121	0.678
9.67509	0.678
9.70898	0.669
9.74286	0.694
9.77674	0.684
9.81062	0.7
9.8445	0.729
9.87838	0.742
9.91226	0.76
9.94615	0.807
9.98003	0.812
10.0139	0.742
10.0478	0.756
10.0817	0.777
10.1156	0.809
10.1494	0.842
10.1833	0.86
10.2172	0.866
10.2511	0.864
10.285	0.857
10.3188	0.839
10.3527	0.836
10.3866	0.825
10.4205	0.733
10.4544	0.64
10.4882	0.677
10.5221	0.74
10.556	0.771
10.5899	0.674
10.6238	0.616
10.6577	0.676
10.6915	0.712
10.7254	0.783
10.7593	0.832
10.7932	0.832
10.8271	0.819
10.8609	0.822
10.8948	0.815
10.9287	0.823
10.9626	0.856
10.9965	0.874
11.0304	0.888
11.0642	0.894
11.0981	0.901
11.132	0.905
11.1659	0.905
11.1998	0.901
11.2336	0.894
11.2675	0.888
11.3014	0.892
11.3353	0.901
11.3692	0.907
11.403	0.912
11.4369	0.916
11.4708	0.916
11.5047	0.909
11.5386	0.89
11.5725	0.836
11.6063	0.819
11.6402	0.828
11.6741	0.845
11.708	0.864
11.7419	0.891
11.7757	0.902
11.8096	0.923
11.8435	0.929
11.8774	0.93
11.9113	0.93
11.9452	0.928
11.979	0.914
12.0129	0.891
12.0468	0.884
12.0807	0.894
12.1146	0.895
12.1484	0.894
12.1823	0.895
12.2162	0.9
12.2501	0.907
12.284	0.915
12.3178	0.923
12.3517	0.932
12.3856	0.938
12.4195	0.939
12.4534	0.938
12.4873	0.949
12.5211	0.943
12.555	0.946
12.5889	0.946
12.6228	0.946
12.6567	0.942
12.6905	0.94
12.7244	0.935
12.7583	0.932
12.7922	0.929
12.8261	0.925
12.86	0.919
12.8938	0.915
12.9277	0.905
12.9616	0.895
12.9955	0.885
13.0294	0.871
13.0632	0.866
13.0971	0.87
13.131	0.873
13.1649	0.873
13.1988	0.873
13.2326	0.869
13.2665	0.845
13.3004	0.822
13.3343	0.785
13.3682	0.726
13.4021	0.654
13.4359	0.581
13.4698	0.55
13.5037	0.567
13.5376	0.66
13.5715	0.725
13.6053	0.783
13.6392	0.822
13.6731	0.85
13.707	0.86
13.7409	0.867
13.7748	0.871
13.8086	0.874
13.8425	0.874
13.8764	0.856
13.9103	0.839
13.9442	0.822
13.978	0.797
14.0119	0.784
14.0458	0.777
14.0797	0.778
14.1136	0.781
14.1474	0.785
14.1813	0.787
14.2152	0.749
14.2491	0.661
14.283	0.585
14.3169	0.573
14.3507	0.691
14.3846	0.777
14.4185	0.836
14.4524	0.859
14.4863	0.88
14.5201	0.892
14.554	0.898
14.5879	0.902
14.6218	0.908
14.6557	0.908
14.6896	0.908
14.7234	0.908
14.7573	0.909
14.7912	0.909
14.8251	0.909
14.859	0.908
