Infrared Spectrum: 5-Bromofuroic acid
Formula: C 5 H 3 Br O 3
CAS: 585-70-6
State: gas
Instrument: HP-GC/MS/IRD
Origin: NIST Mass Spectrometry Data Center
1/CM	ABSORBANCE
550	0.0010879
562	0.0008041
574	0.0010836
586	0.0010492
598	0.0008428
610	0.000989
622	0.0011352
634	0.0013846
646	0.0008514
658	0.000258
670	0.000516
682	0.0046354
694	0.0093783
706	0.0021414
718	0.0006321
730	0.0006622
742	0.002537
754	0.0059125
766	0.0050783
778	0.0030616
790	0.0036249
802	0.0027563
814	0.0007783
826	3.01e-05
838	0.0001419
850	0.0002451
862	0.000215
874	0.0001505
886	0.0001548
898	0.0001892
910	0.0008514
922	0.0033669
934	0.0042656
946	0.0030444
958	0.0010965
970	0.0004171
982	0.0005719
994	0.0018447
1006	0.0051213
1018	0.0054352
1030	0.0027004
1042	0.0011438
1054	0.0011137
1066	0.0025886
1078	0.0083205
1090	0.0285735
1102	0.034443
1114	0.0098083
1126	0.0048203
1138	0.0045537
1150	0.0027649
1162	0.0014147
1174	0.0018318
1186	0.0061877
1198	0.0109134
1210	0.007611
1222	0.0036163
1234	0.0020812
1246	0.0019565
1258	0.0024209
1270	0.0035002
1282	0.0040033
1294	0.0030057
1306	0.0031519
1318	0.0045967
1330	0.0046053
1342	0.0035733
1354	0.005246
1366	0.0083936
1378	0.0065618
1390	0.001892
1402	0.0009718
1414	0.0006106
1426	0.0007697
1438	0.0014405
1450	0.0050998
1462	0.016942
1474	0.0270212
1486	0.0091891
1498	0.0013502
1510	0.0004773
1522	0.0002924
1534	0.000215
1546	0.0002967
1558	0.0008299
1570	0.0031863
1582	0.0050869
1594	0.0034486
1606	0.0008944
1618	0.0003999
1630	0.0004515
1642	0.00043
1654	0.0002064
1666	0.0001763
1678	0.0002193
1690	0.0006364
1702	0.0009417
1714	0.0014964
1726	0.0021328
1738	0.0042054
1750	0.0193543
1762	0.043
1774	0.0268879
1786	0.0233705
1798	0.0076411
1810	0.0019909
1822	0.0013502
1834	0.0009632
1846	0.0005332
1858	0.0003397
1870	0.0002451
1882	0.00043
1894	0.0002924
1906	0.0002236
1918	0.0001075
1930	9.03e-05
1942	4.73e-05
1954	5.16e-05
1966	4.3e-05
1978	4.3e-05
1990	0
2002	6.02e-05
2014	9.89e-05
2026	0.0002236
2038	0.0002021
2050	0.0001505
2062	7.31e-05
2074	5.16e-05
2086	7.31e-05
2098	3.01e-05
2110	4.3e-05
2122	1.72e-05
2134	0.0001376
2146	0.0001935
2158	0.0001376
2170	0.0001333
2182	0.0001419
2194	0.0001591
2206	0.000129
2218	5.16e-05
2230	7.31e-05
2242	3.87e-05
2254	5.59e-05
2266	7.74e-05
2278	8.6e-05
2290	0.0001032
2302	0.0001075
2314	0.0001763
2326	0.0002064
2338	0.000172
2350	0.0001677
2362	0.0002623
2374	0.0002107
2386	0.0001032
2398	9.03e-05
2410	9.89e-05
2422	0.0001333
2434	0.000129
2446	0.0001247
2458	0.0001376
2470	0.0001548
2482	0.0001763
2494	9.46e-05
2506	9.03e-05
2518	6.02e-05
2530	6.02e-05
2542	3.44e-05
2554	8.6e-05
2566	6.88e-05
2578	9.03e-05
2590	0.000129
2602	0.0001849
2614	0.0001634
2626	5.16e-05
2638	2.58e-05
2650	6.02e-05
2662	7.74e-05
2674	0.000129
2686	0.0001548
2698	0.0001634
2710	0.0001118
2722	0.0001161
2734	9.46e-05
2746	6.88e-05
2758	4.3e-05
2770	7.74e-05
2782	0.000129
2794	0.0001247
2806	0.0001032
2818	9.03e-05
2830	0.000129
2842	0.0001634
2854	0.0001161
2866	9.89e-05
2878	6.45e-05
2890	8.17e-05
2902	9.46e-05
2914	0.0001075
2926	9.03e-05
2938	0.0001204
2950	0.0001247
2962	8.6e-05
2974	7.74e-05
2986	4.3e-05
2998	2.58e-05
3010	6.88e-05
3022	6.02e-05
3034	9.46e-05
3046	0.0001419
3058	0.0001892
3070	0.0001677
3082	0.0001075
3094	6.88e-05
3106	6.88e-05
3118	0.0001247
3130	0.0001548
3142	0.0001806
3154	0.0001462
3166	0.0001419
3178	8.17e-05
3190	9.03e-05
3202	8.6e-05
3214	7.31e-05
3226	9.89e-05
3238	0.0001505
3250	0.0001032
3262	5.16e-05
3274	3.87e-05
3286	8.6e-05
3298	2.58e-05
3310	9.46e-05
3322	9.46e-05
3334	0.0001118
3346	0.0001419
3358	0.0001118
3370	9.89e-05
3382	5.59e-05
3394	9.46e-05
3406	0.0001333
3418	9.03e-05
3430	5.59e-05
3442	0.0001247
3454	0.0002064
3466	0.0001763
3478	0.0002064
3490	0.0002537
3502	0.0003827
3514	0.000387
3526	0.0003096
3538	0.000473
3550	0.000559
3562	0.0013287
3574	0.0068714
3586	0.0158713
3598	0.0059254
3610	0.0008815
3622	0.0002709
3634	0.0001634
3646	0.0001075
3658	0.0001462
3670	7.74e-05
3682	0.0001548
3694	0.0001204
3706	0.0001806
3718	9.03e-05
3730	3.01e-05
3742	0
3754	1.29e-05
3766	9.89e-05
3778	0.0001247
3790	9.03e-05
3802	3.44e-05
3814	0.0001075
3826	0.0001161
3838	6.45e-05
