Infrared Spectrum: m-Bromobenzoic acid
Formula: C 7 H 5 Br O 2
CAS: 585-76-2
State: gas
Instrument: HP-GC/MS/IRD
Origin: NIST Mass Spectrometry Data Center
1/CM	ABSORBANCE
550	0.0010649
562	0.0021436
574	0.0032545
586	0.0029486
598	0.0012558
610	0.000713
622	0.0021022
634	0.0034408
646	0.0008027
658	0.0012627
670	0.004784
682	0.001771
694	0.0003887
706	0.0001978
718	0.0004071
730	0.0013478
742	0.0042228
754	0.0043976
766	0.0014375
778	0.0007245
790	0.0008073
802	0.0012144
814	0.000713
826	0.0001242
838	0.0001173
850	7.13e-05
862	0.0001495
874	6.9e-05
886	0.0001541
898	0.0003243
910	0.0002714
922	0.0001288
934	1.61e-05
946	0
958	6.44e-05
970	6.67e-05
982	0.0001426
994	0.0002553
1006	0.0004347
1018	0.0002047
1030	0.0004301
1042	0.0010327
1054	0.002415
1066	0.0039905
1078	0.0042665
1090	0.0059501
1102	0.0039307
1114	0.0024978
1126	0.0019182
1138	0.0019849
1150	0.0026933
1162	0.0054165
1174	0.0100234
1186	0.0091655
1198	0.0042964
1210	0.0017434
1222	0.0015479
1234	0.0013363
1246	0.0014674
1258	0.0015939
1270	0.001311
1282	0.0014812
1294	0.002254
1306	0.0030084
1318	0.0038042
1330	0.0022563
1342	0.0020217
1354	0.0038042
1366	0.0029601
1378	0.0013271
1390	0.0009407
1402	0.0008533
1414	0.0018354
1426	0.0024702
1438	0.000759
1450	0.0004209
1462	0.0005635
1474	0.0009798
1486	0.0006831
1498	0.0002277
1510	7.82e-05
1522	9.43e-05
1534	0.0001748
1546	0.0004439
1558	0.00115
1570	0.0022218
1582	0.0014007
1594	0.0005382
1606	0.000345
1618	0.0002139
1630	0.0002047
1642	0.0001449
1654	0.000115
1666	0.0002254
1678	0.000207
1690	0.000253
1702	0.0006371
1714	0.0013409
1726	0.0013708
1738	0.0017296
1750	0.0067643
1762	0.0225814
1774	0.0113666
1786	0.0017296
1798	0.0010189
1810	0.0013547
1822	0.0009407
1834	0.0003542
1846	0.0002162
1858	0.0001656
1870	0.000161
1882	0.0002461
1894	0.0003565
1906	0.0001978
1918	6.44e-05
1930	0.0001012
1942	0.0001403
1954	0.0001334
1966	0.0001196
1978	0.0001081
1990	8.51e-05
2002	8.28e-05
2014	4.83e-05
2026	1.15e-05
2038	4.14e-05
2050	3.91e-05
2062	2.99e-05
2074	2.3e-06
2086	3.68e-05
2098	2.99e-05
2110	2.53e-05
2122	2.3e-05
2134	4.83e-05
2146	7.59e-05
2158	5.06e-05
2170	5.98e-05
2182	6.67e-05
2194	1.38e-05
2206	2.07e-05
2218	1.84e-05
2230	5.06e-05
2242	2.3e-05
2254	1.84e-05
2266	5.52e-05
2278	4.83e-05
2290	1.38e-05
2302	1.84e-05
2314	4.83e-05
2326	3.45e-05
2338	7.82e-05
2350	5.29e-05
2362	4.83e-05
2374	7.36e-05
2386	6.9e-05
2398	7.13e-05
2410	7.36e-05
2422	6.67e-05
2434	5.29e-05
2446	9.2e-05
2458	2.07e-05
2470	3.91e-05
2482	0.0001104
2494	8.05e-05
2506	8.05e-05
2518	7.36e-05
2530	5.75e-05
2542	6.9e-05
2554	6.44e-05
2566	5.75e-05
2578	7.36e-05
2590	3.22e-05
2602	0.0001288
2614	5.52e-05
2626	2.07e-05
2638	2.99e-05
2650	5.29e-05
2662	6.67e-05
2674	6.67e-05
2686	1.15e-05
2698	6.67e-05
2710	7.59e-05
2722	9.43e-05
2734	4.37e-05
2746	5.52e-05
2758	5.29e-05
2770	2.76e-05
2782	8.51e-05
2794	0
2806	7.13e-05
2818	4.14e-05
2830	6.9e-05
2842	9.2e-05
2854	0.0001035
2866	9.66e-05
2878	0.0001012
2890	0.0001357
2902	7.82e-05
2914	7.36e-05
2926	8.05e-05
2938	8.74e-05
2950	6.21e-05
2962	7.59e-05
2974	8.28e-05
2986	5.29e-05
2998	8.51e-05
3010	0.0001656
3022	0.0001288
3034	0.0001265
3046	8.97e-05
3058	0.0002231
3070	0.000529
3082	0.0006417
3094	0.0004002
3106	0.0001886
3118	0.0001587
3130	0.0001104
3142	0.0001265
3154	0.0001012
3166	0.0001035
3178	0.0001495
3190	4.37e-05
3202	6.9e-05
3214	9.2e-05
3226	0.0001035
3238	5.98e-05
3250	0.0001081
3262	7.82e-05
3274	8.28e-05
3286	4.6e-05
3298	8.51e-05
3310	5.52e-05
3322	8.97e-05
3334	7.36e-05
3346	4.6e-05
3358	0.0001035
3370	6.21e-05
3382	0.0001242
3394	5.75e-05
3406	0.0001426
3418	0.0001472
3430	2.53e-05
3442	0.0001587
3454	0.0001909
3466	0.0001656
3478	0.0001242
3490	0.0002346
3502	0.0002668
3514	0.0003634
3526	0.0002047
3538	0.0002139
3550	0.0002622
3562	0.0008004
3574	0.0042205
3586	0.0070587
3598	0.0013409
3610	0.0003197
3622	0.0002369
3634	0.0001403
3646	0.0001127
3658	0.000138
3670	0.0001426
3682	0.000138
3694	0.0001127
3706	0.0001127
3718	0.0001495
3730	0.0001426
3742	7.59e-05
3754	0.0001334
3766	0.0001219
3778	0.0001104
3790	4.83e-05
3802	0.0001173
3814	3.68e-05
3826	7.59e-05
3838	9.89e-05
