Infrared Spectrum: 1,4-Diisopropyl-2-methylbenzene
Formula: C 13 H 20
CAS: 58502-85-5
State: gas
Instrument: HP-GC/MS/IRD
Origin: NIST Mass Spectrometry Data Center
1/CM	ABSORBANCE
550	0.0006612
562	0
574	0.0002907
586	0.0004047
598	0.000627
610	0.0018012
622	0.0020121
634	0.0005529
646	0.0001767
658	0.0001083
670	0.000171
682	0.0002166
694	9.12e-05
706	5.7e-05
718	5.13e-05
730	6.27e-05
742	0.0001083
754	5.7e-05
766	0.000114
778	0.0001368
790	0.0002109
802	0.0008265
814	0.0033402
826	0.0049134
838	0.0013908
850	0.0005073
862	0.0007752
874	0.0017613
886	0.0013224
898	0.0004104
910	0.0004218
922	0.0008094
934	0.0011286
946	0.0004959
958	0.0002793
970	0.0004104
982	0.0006669
994	0.0010146
1006	0.0007581
1018	0.0006498
1030	0.0007353
1042	0.0012597
1054	0.0020463
1066	0.003078
1078	0.0029697
1090	0.0027759
1102	0.0025707
1114	0.0013281
1126	0.0008664
1138	0.0007638
1150	0.0006156
1162	0.0004959
1174	0.0008664
1186	0.0005016
1198	0.0003819
1210	0.0005358
1222	0.0004959
1234	0.0006726
1246	0.0006213
1258	0.0006555
1270	0.0009861
1282	0.0012768
1294	0.0015447
1306	0.0016302
1318	0.0025935
1330	0.0025479
1342	0.0023655
1354	0.0023997
1366	0.0039444
1378	0.0038817
1390	0.0034599
1402	0.0025365
1414	0.003192
1426	0.0027816
1438	0.0030438
1450	0.0045657
1462	0.0062187
1474	0.0054777
1486	0.0050388
1498	0.0060477
1510	0.0050445
1522	0.0017841
1534	0.0009804
1546	0.0009006
1558	0.0009348
1570	0.0008265
1582	0.0006327
1594	0.000741
1606	0.0014535
1618	0.0012882
1630	0.0005301
1642	0.0005244
1654	0.0004788
1666	0.0003021
1678	0.0002565
1690	0.0002052
1702	0.0002223
1714	0.0002109
1726	0.0002109
1738	0.0003762
1750	0.0006441
1762	0.0006213
1774	0.0002907
1786	0.0001824
1798	0.0001482
1810	0.0001254
1822	0.0001368
1834	0.0001539
1846	0.0001653
1858	0.0001311
1870	0.0002508
1882	0.0004218
1894	0.0004218
1906	0.0001824
1918	0.0001425
1930	9.12e-05
1942	8.55e-05
1954	6.84e-05
1966	3.99e-05
1978	3.42e-05
1990	6.84e-05
2002	4.56e-05
2014	6.27e-05
2026	5.7e-05
2038	6.27e-05
2050	5.13e-05
2062	3.99e-05
2074	2.85e-05
2086	3.99e-05
2098	5.13e-05
2110	3.99e-05
2122	4.56e-05
2134	2.85e-05
2146	3.99e-05
2158	2.28e-05
2170	1.71e-05
2182	1.14e-05
2194	5.7e-06
2206	2.85e-05
2218	4.56e-05
2230	6.27e-05
2242	5.7e-05
2254	5.13e-05
2266	6.27e-05
2278	5.13e-05
2290	4.56e-05
2302	6.27e-05
2314	8.55e-05
2326	6.27e-05
2338	3.99e-05
2350	5.7e-05
2362	7.41e-05
2374	0.000114
2386	0.0001083
2398	9.12e-05
2410	9.69e-05
2422	6.84e-05
2434	7.41e-05
2446	9.12e-05
2458	0.000114
2470	0.0001254
2482	0.0001254
2494	0.0001026
2506	7.98e-05
2518	7.41e-05
2530	9.12e-05
2542	7.98e-05
2554	0.0001311
2566	0.0001596
2578	0.0002394
2590	0.0003135
2602	0.0002793
2614	0.0002223
2626	0.0002394
2638	0.0001881
2650	0.0001938
2662	0.0001995
2674	0.0002565
2686	0.0002736
2698	0.000285
2710	0.0004047
2722	0.0006327
2734	0.0007239
2746	0.0007068
2758	0.0007239
2770	0.0007239
2782	0.0007011
2794	0.0008265
2806	0.0011172
2818	0.0014478
2830	0.0017157
2842	0.0023826
2854	0.0040299
2866	0.0079857
2878	0.0151107
2890	0.0148314
2902	0.0137142
2914	0.0147801
2926	0.0185022
2938	0.0243333
2950	0.0238431
2962	0.0488262
2974	0.0468198
2986	0.0167694
2998	0.0093594
3010	0.0081852
3022	0.0070509
3034	0.0051699
3046	0.0044631
3058	0.0038133
3070	0.0032376
3082	0.0025593
3094	0.0019323
3106	0.0016872
3118	0.0015219
3130	0.0011115
3142	0.0008151
3154	0.0007353
3166	0.0007296
3178	0.0007125
3190	0.0006441
3202	0.000627
3214	0.000513
3226	0.0004389
3238	0.0003192
3250	0.0002565
3262	0.0002166
3274	0.0002052
3286	0.0001995
3298	0.0001425
3310	0.0001482
3322	0.0001425
3334	0.0001083
3346	9.12e-05
3358	0.0001482
3370	0.0001596
3382	0.000171
3394	0.0001425
3406	0.0001083
3418	0.0001539
3430	0.0001083
3442	0.0001197
3454	5.13e-05
3466	6.27e-05
3478	9.12e-05
3490	0.0001026
3502	0.0001083
3514	7.41e-05
3526	0.000114
3538	5.13e-05
3550	8.55e-05
3562	0.0001026
3574	6.27e-05
3586	0.0001425
3598	0.0001026
3610	0.000114
3622	4.56e-05
3634	4.56e-05
3646	0.0001026
3658	6.84e-05
3670	9.69e-05
3682	2.28e-05
3694	4.56e-05
3706	3.99e-05
3718	5.7e-05
3730	5.13e-05
3742	0.0001254
3754	5.7e-05
3766	0
3778	5.7e-05
3790	5.7e-05
3802	6.27e-05
3814	0.0001254
3826	0.0001368
3838	0.0001197
