Infrared Spectrum: BENZIMIDAZOLE, 2-ISOPROPYL-
Formula: C10 H12 N2
CAS: 5851-43-4
State: SOLID (KBr PELLET)
Melting point: 232-234 C
Class: COBLENTZ
Instrument: Not specified, most likely a prism, grating, or hybrid spectrometer.
Sampling: TRANSMISSION
Resolution: 4
Origin: TENNESSEE EASTMAN COMPANY, RESEARCH LABORATORIES
MICROMETERS	TRANSMITTANCE
2.027	0.579
2.06796	0.586
2.10891	0.598
2.14987	0.603
2.19082	0.613
2.23178	0.62
2.27274	0.625
2.31369	0.634
2.35465	0.642
2.3956	0.647
2.43656	0.652
2.47751	0.659
2.51847	0.67
2.55943	0.671
2.60038	0.675
2.64134	0.685
2.68229	0.69
2.72325	0.683
2.76421	0.647
2.80516	0.625
2.84612	0.601
2.88707	0.586
2.92803	0.6
2.96898	0.637
3.00994	0.661
3.0509	0.675
3.09185	0.668
3.13281	0.635
3.17376	0.57
3.21472	0.495
3.25568	0.365
3.29663	0.374
3.33759	0.254
3.37854	0.352
3.4195	0.268
3.46046	0.312
3.50141	0.329
3.54237	0.376
3.58332	0.41
3.62428	0.343
3.66523	0.411
3.70619	0.495
3.74715	0.509
3.7881	0.483
3.82906	0.586
3.87001	0.661
3.91097	0.702
3.95193	0.752
3.99288	0.774
4.03384	0.784
4.07479	0.822
4.11575	0.851
4.1567	0.864
4.19766	0.883
4.23862	0.888
4.27957	0.882
4.32053	0.89
4.36148	0.935
4.40244	0.947
4.4434	0.95
4.48435	0.955
4.52531	0.958
4.56626	0.962
4.60722	0.96
4.64818	0.953
4.68913	0.96
4.73009	0.96
4.77104	0.96
4.812	0.965
4.85295	0.965
4.89391	0.965
4.93487	0.965
4.97582	0.967
5.01678	0.97
5.05773	0.965
5.09869	0.967
5.13965	0.962
5.1806	0.95
5.22156	0.958
5.26251	0.953
5.30347	0.921
5.34442	0.95
5.38538	0.943
5.42634	0.94
5.46729	0.936
5.50825	0.929
5.5492	0.917
5.59016	0.905
5.63112	0.888
5.67207	0.888
5.71303	0.882
5.75398	0.863
5.79494	0.878
5.83589	0.864
5.87685	0.861
5.91781	0.882
5.95876	0.868
5.99972	0.871
6.04067	0.888
6.08163	0.866
6.12259	0.873
6.16354	0.765
6.2045	0.863
6.24545	0.883
6.28641	0.803
6.32737	0.887
6.36832	0.895
6.40928	0.834
6.45023	0.637
6.49119	0.649
6.53214	0.753
6.5731	0.844
6.61406	0.871
6.65501	0.892
6.69597	0.811
6.73692	0.767
6.77788	0.507
6.81884	0.321
6.85979	0.507
6.90075	0.521
6.9417	0.6
6.98266	0.516
7.02361	0.193
7.06457	0.184
7.10553	0.536
7.14648	0.719
7.18744	0.584
7.22839	0.745
7.26935	0.81
7.31031	0.731
7.35126	0.815
7.39222	0.87
7.43317	0.859
7.47413	0.87
7.51509	0.757
7.55604	0.418
7.597	0.579
7.63795	0.784
7.67891	0.661
7.71986	0.788
7.76082	0.866
7.80178	0.794
7.84273	0.268
7.88369	0.617
7.92464	0.794
7.9656	0.88
8.00656	0.817
8.04751	0.781
8.08847	0.864
8.12942	0.871
8.17038	0.875
8.21133	0.852
8.25229	0.777
8.29325	0.902
8.3342	0.938
8.37516	0.941
8.41611	0.952
8.45707	0.955
8.49803	0.924
8.53898	0.852
8.57994	0.83
8.62089	0.882
8.66185	0.933
8.70281	0.928
8.74376	0.943
8.78472	0.958
8.82567	0.953
8.86663	0.933
8.90758	0.905
8.94854	0.805
8.9895	0.805
9.03045	0.87
9.07141	0.851
9.11236	0.666
9.15332	0.818
9.19428	0.909
9.23523	0.941
9.27619	0.941
9.31714	0.947
9.3581	0.96
9.39905	0.958
9.44001	0.95
9.48097	0.962
9.52192	0.967
9.56288	0.958
9.60383	0.955
9.64479	0.958
9.68575	0.952
9.7267	0.912
9.76766	0.755
9.80861	0.533
9.84957	0.782
9.89053	0.8
9.93148	0.863
9.97244	0.741
10.0134	0.49
10.0543	0.731
10.0953	0.866
10.1363	0.923
10.1772	0.947
10.2182	0.95
10.2591	0.953
10.3001	0.95
10.341	0.953
10.382	0.962
10.423	0.96
10.4639	0.958
10.5049	0.962
10.5458	0.96
10.5868	0.953
10.6277	0.943
10.6687	0.923
10.7096	0.885
10.7506	0.8
10.7916	0.835
10.8325	0.885
10.8735	0.909
10.9144	0.909
10.9554	0.892
10.9963	0.863
11.0373	0.837
11.0782	0.846
11.1192	0.935
11.1602	0.955
11.2011	0.929
11.2421	0.911
11.283	0.878
11.324	0.851
11.3649	0.829
11.4059	0.805
11.4468	0.794
11.4878	0.789
11.5288	0.805
11.5697	0.818
11.6107	0.839
11.6516	0.852
11.6926	0.861
11.7335	0.876
11.7745	0.899
11.8155	0.921
11.8564	0.929
11.8974	0.929
11.9383	0.931
11.9793	0.941
12.0202	0.96
12.0612	0.97
12.1021	0.972
12.1431	0.967
12.1841	0.962
12.225	0.969
12.266	0.965
12.3069	0.953
12.3479	0.962
12.3888	0.974
12.4298	0.974
12.4707	0.977
12.5117	0.984
12.5527	0.996
12.5936	1
12.6346	0.991
12.6755	0.986
12.7165	0.988
12.7574	0.994
12.7984	1.001
12.8393	1
12.8803	0.972
12.9213	0.948
12.9622	0.789
13.0032	0.806
13.0441	0.933
13.0851	0.964
13.126	0.969
13.167	0.96
13.2079	0.929
13.2489	0.841
13.2899	0.649
13.3308	0.297
13.3718	0.218
13.4127	0.172
13.4537	0.181
13.4946	0.42
13.5356	0.671
13.5766	0.796
13.6175	0.847
13.6585	0.856
13.6994	0.822
13.7404	0.724
13.7813	0.717
13.8223	0.823
13.8632	0.914
13.9042	0.95
13.9452	0.962
13.9861	0.97
14.0271	0.977
14.068	0.979
14.109	0.979
14.1499	0.972
14.1909	0.972
14.2318	0.964
14.2728	0.964
14.3138	0.964
14.3547	0.967
14.3957	0.965
14.4366	0.964
14.4776	0.958
14.5185	0.95
14.5595	0.94
14.6004	0.938
14.6414	0.935
14.6824	0.929
14.7233	0.926
14.7643	0.921
14.8052	0.911
14.8462	0.899
14.8871	0.888
14.9281	0.868
14.9691	0.834
15.01	0.811
15.051	0.811
15.0919	0.818
15.1329	0.811
15.1738	0.798
15.2148	0.781
15.2557	0.767
15.2967	0.752
15.3377	0.74
15.3786	0.731
15.4196	0.723
15.4605	0.709
15.5015	0.702
15.5424	0.687
15.5834	0.678
15.6243	0.661
15.6653	0.649
15.7063	0.641
15.7472	0.632
15.7882	0.623
15.8291	0.618
15.8701	0.613
15.911	0.61
15.952	0.603
15.9929	0.6
