Infrared Spectrum: 3-MethylPiperidine hydrochloride
Formula: C6 H14 Cl N
CAS: 58531-29-6
State: SOLID (KBr DISC, 0.9% WT.)
Class: COBLENTZ III
Instrument: PERKIN-ELMER 157
Sampling: TRANSMISSION
Resolution: 2
Origin: BRITISH PETROLEUM CO. LTD., ENGLAND
1/CM	TRANSMITTANCE
667	0.9559
676	0.9315
685	0.9147
694	0.897
703	0.8821
712	0.8661
721	0.8585
730	0.8478
739	0.8386
748	0.827
757	0.8175
766	0.8079
775	0.7947
784	0.7643
793	0.7913
802	0.79
811	0.7796
820	0.7635
829	0.7327
838	0.7205
847	0.5699
856	0.6982
865	0.7389
874	0.6867
883	0.3624
892	0.6965
901	0.7296
910	0.7287
919	0.7135
928	0.7106
937	0.6642
946	0.2539
955	0.7102
964	0.7085
973	0.58
982	0.4195
991	0.6084
1000	0.3351
1009	0.6854
1018	0.6933
1027	0.6566
1036	0.3693
1045	0.6572
1054	0.6484
1063	0.4215
1072	0.2783
1081	0.6388
1090	0.6448
1099	0.6181
1108	0.6777
1117	0.6796
1126	0.6783
1135	0.6803
1144	0.6444
1153	0.6781
1162	0.6646
1171	0.6308
1180	0.5466
1189	0.65
1198	0.6628
1207	0.6615
1216	0.6549
1225	0.6197
1234	0.6396
1243	0.643
1252	0.6427
1261	0.6345
1270	0.6215
1279	0.5893
1288	0.5143
1297	0.5771
1306	0.4994
1315	0.3188
1324	0.582
1333	0.575
1342	0.4464
1351	0.4275
1360	0.4761
1369	0.4748
1378	0.3347
1387	0.2565
1396	0.4552
1405	0.4559
1414	0.3926
1423	0.37
1432	0.253
1441	0.1395
1450	0.104
1459	0.0831
1468	0.1051
1477	0.3271
1486	0.4689
1495	0.4934
1504	0.507
1513	0.5124
1522	0.5229
1531	0.532
1540	0.556
1549	0.5574
1558	0.5453
1567	0.5107
1576	0.3491
1585	0.1004
1594	0.3169
1603	0.4279
1612	0.5378
1621	0.5401
1630	0.5392
1639	0.5378
1648	0.5387
1657	0.5494
1666	0.5962
1675	0.6102
1684	0.6123
1693	0.6125
1702	0.6115
1711	0.6172
1720	0.612
1729	0.6136
1738	0.6116
1747	0.61
1756	0.609
1765	0.6093
1774	0.6149
1783	0.6189
1792	0.612
1801	0.6009
1810	0.5812
1819	0.5598
1828	0.5611
1837	0.5614
1846	0.5442
1855	0.5355
1864	0.575
1873	0.5763
1882	0.5751
1891	0.578
1900	0.5763
1909	0.5646
1918	0.5175
1927	0.4722
1936	0.4118
1945	0.4398
1954	0.5275
1963	0.565
1972	0.5667
1981	0.565
1990	0.5563
1999	0.5427
2008	0.5303
2017	0.5606
2026	0.5627
2035	0.5516
2044	0.5413
2053	0.559
2062	0.5637
2071	0.5635
2080	0.5619
2089	0.557
2098	0.5543
2107	0.5514
2116	0.5292
2125	0.5149
2134	0.4993
2143	0.4609
2152	0.3651
2161	0.4023
2170	0.479
2179	0.5216
2188	0.5202
2197	0.5152
2206	0.505
2215	0.4943
2224	0.4836
2233	0.4802
2242	0.4792
2251	0.478
2260	0.4722
2269	0.4582
2278	0.4483
2287	0.446
2296	0.4428
2305	0.4306
2314	0.4075
2323	0.3849
2332	0.3572
2341	0.3377
2350	0.3075
2359	0.2877
2368	0.2709
2377	0.252
2386	0.2248
2395	0.1579
2404	0.0923
2413	0.1363
2422	0.2897
2431	0.312
2440	0.3135
2449	0.3073
2458	0.2753
2467	0.2618
2476	0.2468
2485	0.2315
2494	0.2052
2503	0.1336
2512	0.0674
2521	0.056
2530	0.0689
2539	0.0817
2548	0.0767
2557	0.0659
2566	0.0731
2575	0.1058
2584	0.1382
2593	0.1592
2602	0.1597
2611	0.1444
2620	0.1292
2629	0.1181
2638	0.1115
2647	0.0617
2656	0.0438
2665	0.0341
2674	0.0285
2683	0.024
2692	0.0208
2701	0.0187
2710	0.0176
2719	0.0172
2728	0.0172
2737	0.0173
2746	0.0176
2755	0.0181
2764	0.0188
2773	0.0198
2782	0.0213
2791	0.0236
2800	0.0264
2809	0.0286
2818	0.0303
2827	0.0311
2836	0.0315
2845	0.0319
2854	0.032
2863	0.032
2872	0.0316
2881	0.0309
2890	0.0302
2899	0.0292
2908	0.028
2917	0.0279
2926	0.0289
2935	0.0299
2944	0.0304
2953	0.0311
2962	0.0317
2971	0.0323
2980	0.0335
2989	0.04
2998	0.0583
3007	0.0703
3016	0.0807
3025	0.0867
3034	0.0932
3043	0.1063
3052	0.1193
3061	0.1323
3070	0.1465
3079	0.1704
3088	0.1853
3097	0.2076
3106	0.2146
3115	0.2156
3124	0.2161
3133	0.2163
3142	0.2164
3151	0.22
3160	0.2287
3169	0.2401
3178	0.2791
3187	0.2918
3196	0.2967
3205	0.3005
3214	0.3036
3223	0.3057
3232	0.3074
3241	0.3087
3250	0.31
3259	0.3118
3268	0.3157
3277	0.3195
3286	0.3198
3295	0.3197
3304	0.3196
3313	0.3194
3322	0.3193
3331	0.3192
3340	0.3191
3349	0.3193
3358	0.3195
3367	0.3197
3376	0.32
3385	0.3204
3394	0.3211
3403	0.3218
3412	0.3227
3421	0.3237
3430	0.3246
3439	0.326
3448	0.3274
3457	0.3289
3466	0.3314
3475	0.3341
3484	0.3364
3493	0.3374
3502	0.3379
3511	0.3381
3520	0.3384
3529	0.3387
3538	0.3389
3547	0.3391
3556	0.3391
3565	0.3393
3574	0.3394
3583	0.3395
3592	0.3395
3601	0.3394
3610	0.3394
3619	0.3393
3628	0.3393
3637	0.3388
3646	0.3377
3655	0.3364
3664	0.3349
3673	0.3329
3682	0.3307
3691	0.3279
3700	0.3252
3709	0.3222
3718	0.3193
3727	0.3162
3736	0.3128
3745	0.3116
3754	0.3113
3763	0.3115
3772	0.3122
3781	0.313
3790	0.3134
3799	0.3134
3808	0.3132
3817	0.3127
3826	0.3124
3835	0.3119
3844	0.3115
3853	0.311
3862	0.3104
3871	0.3099
3880	0.3089
3889	0.3078
3898	0.3058
3907	0.3036
3916	0.3022
3925	0.3014
3934	0.3008
3943	0.3003
3952	0.2997
3961	0.2991
3970	0.2984
3979	0.2979
3988	0.2973
3997	0.2969
