Infrared Spectrum: 2,4,6-Trifluorobenzaldehyde
Formula: C 7 H 3 F 3 O
CAS: 58551-83-0
State: gas
Origin: EPA-IR VAPOR PHASE LIBRARY
1/CM	ABSORBANCE
549.8	0.00437
559.445	0.00269
569.09	0.00263
578.734	0.00224
588.379	0.00263
598.024	0.0019126
607.669	0.0049
617.313	0.01153
626.958	0.01233
636.603	0.01103
646.248	0.00894
655.893	0.00831
665.537	0.00614
675.182	0.00335
684.827	0.00318
694.472	0.00295
704.116	0.00327
713.761	0.00355
723.406	0.00243
733.051	0.002016
742.695	0.0018576
752.34	0.00232
761.985	0.00374
771.63	0.00663
781.275	0.01361
790.919	0.03037
800.564	0.03222
810.209	0.01384
819.854	0.00828
829.498	0.02313
839.143	0.06243
848.788	0.11106
858.433	0.04563
868.078	0.0128
877.722	0.00461
887.367	0.00217
897.012	0.00226
906.657	0.0018511
916.301	0.00214
925.946	0.00289
935.591	0.0026
945.236	0.00298
954.88	0.0035
964.525	0.00411
974.17	0.00472
983.815	0.00955
993.46	0.03653
1003.1	0.05077
1012.75	0.02969
1022.39	0.01939
1032.04	0.03049
1041.68	0.04903
1051.33	0.09451
1060.97	0.10596
1070.62	0.05787
1080.26	0.01971
1089.91	0.01337
1099.55	0.01193
1109.2	0.02422
1118.84	0.11453
1128.49	0.19099
1138.13	0.10558
1147.78	0.03256
1157.42	0.05176
1167.07	0.10231
1176.71	0.12335
1186.36	0.08989
1196	0.07442
1205.64	0.04743
1215.29	0.0159
1224.93	0.00764
1234.58	0.00534
1244.22	0.00622
1253.87	0.00624
1263.51	0.00761
1273.16	0.00828
1282.8	0.01093
1292.45	0.01298
1302.09	0.01272
1311.74	0.01072
1321.38	0.01002
1331.03	0.01156
1340.67	0.0242
1350.32	0.03993
1359.96	0.02837
1369.61	0.00766
1379.25	0.00733
1388.9	0.0131
1398.54	0.03541
1408.18	0.05964
1417.83	0.06249
1427.47	0.06364
1437.12	0.09363
1446.76	0.09766
1456.41	0.06234
1466.05	0.02916
1475.7	0.0186
1485.34	0.01897
1494.99	0.02028
1504.63	0.01517
1514.28	0.01364
1523.92	0.01087
1533.57	0.00814
1543.21	0.00965
1552.86	0.0149
1562.5	0.02808
1572.15	0.06019
1581.79	0.11659
1591.44	0.17414
1601.08	0.21476
1610.73	0.23954
1620.37	0.255
1630.01	0.27889
1639.66	0.24306
1649.3	0.12391
1658.95	0.05513
1668.59	0.03518
1678.24	0.02831
1687.88	0.03288
1697.53	0.04164
1707.17	0.06877
1716.82	0.21236
1726.46	0.29645
1736.11	0.14745
1745.75	0.0268
1755.4	0.01244
1765.04	0.00977
1774.69	0.01063
1784.33	0.01031
1793.98	0.00695
1803.62	0.00491
1813.27	0.00432
1822.91	0.00378
1832.55	0.00368
1842.2	0.00352
1851.84	0.00284
1861.49	0.00252
1871.13	0.00229
1880.78	0.0020426
1890.42	0.0018988
1900.07	0.0019955
1909.71	0.0019341
1919.36	0.00238
1929	0.0027
1938.65	0.00263
1948.29	0.0023
1957.94	0.00272
1967.58	0.00309
1977.23	0.00273
1986.87	0.00273
1996.52	0.00251
2006.16	0.00239
2015.81	0.0020904
2025.45	0.0016211
2035.1	0.0018291
2044.74	0.0015033
2054.38	0.0017545
2064.03	0.0017557
2073.67	0.0016487
2083.32	0.0016439
2092.96	0.0019927
2102.61	0.0018936
2112.25	0.0018825
2121.9	0.00246
2131.54	0.00275
2141.19	0.00216
2150.83	0.0021031
2160.48	0.00287
2170.12	0.00343
2179.77	0.00372
2189.41	0.00358
2199.06	0.00333
2208.7	0.00319
2218.35	0.00232
2227.99	0.0020062
2237.64	0.0017482
2247.28	0.00232
2256.92	0.00252
2266.57	0.0016841
2276.21	0.0015891
2285.86	0.0017817
2295.5	0.0015246
2305.15	0.0014676
2314.79	0.001601
2324.44	0.0020141
2334.08	0.0020975
2343.73	0.00232
2353.37	0.00262
2363.02	0.00248
2372.66	0.00262
2382.31	0.00285
2391.95	0.00299
2401.6	0.00309
2411.24	0.00305
2420.89	0.00229
2430.53	0.0018443
2440.18	0.0019765
2449.82	0.0020859
2459.47	0.00325
2469.11	0.00439
2478.75	0.00451
2488.4	0.00305
2498.04	0.00269
2507.69	0.00241
2517.33	0.00256
2526.98	0.00226
2536.62	0.00214
2546.27	0.0015817
2555.91	0.0018284
2565.56	0.0020652
2575.2	0.00254
2584.85	0.00269
2594.49	0.00273
2604.14	0.00262
2613.78	0.00272
2623.43	0.00279
2633.07	0.00247
2642.72	0.00286
2652.36	0.00264
2662.01	0.00265
2671.65	0.00243
2681.29	0.00232
2690.94	0.00265
2700.58	0.0034
2710.23	0.00404
2719.87	0.005
2729.52	0.00624
2739.16	0.00825
2748.81	0.01026
2758.45	0.01162
2768.1	0.01514
2777.74	0.02019
2787.39	0.01804
2797.03	0.01108
2806.68	0.00777
2816.32	0.00658
2825.97	0.00689
2835.61	0.00913
2845.26	0.01257
2854.9	0.02067
2864.55	0.0332
2874.19	0.03509
2883.84	0.02
2893.48	0.00885
2903.12	0.00537
2912.77	0.00472
2922.41	0.00458
2932.06	0.0038
2941.7	0.00233
2951.35	0.0021121
2960.99	0.0014513
2970.64	0.0019347
2980.28	0.0018242
2989.93	0.0018875
2999.57	0.0020737
3009.22	0.0019079
3018.86	0.0015625
3028.51	0.0012513
3038.15	0.0010693
3047.8	0.0015931
3057.44	0.0013201
3067.09	0.0016415
3076.73	0.0015872
3086.38	0.00256
3096.02	0.00352
3105.67	0.00459
3115.31	0.00433
3124.95	0.00256
3134.6	0.0014924
3144.24	0.00115831
3153.89	0.000791
3163.53	0.00120792
3173.18	0.0014327
3182.82	0.0014671
3192.47	0.0011245
3202.11	0.0014063
3211.76	0.0014625
3221.4	0.0016053
3231.05	0.000979
3240.69	0.0020781
3250.34	0.001398
3259.98	0.0017027
3269.63	0.0012741
3279.27	0.0013323
3288.92	0.0014741
3298.56	0.00122985
3308.21	0.00117494
3317.85	0.000818
3327.49	0.001443
3337.14	0.0015118
3346.78	0.0017771
3356.43	0.000907
3366.07	0.001426
3375.72	0.0015812
3385.36	0.0014319
3395.01	0.0018572
3404.65	0.0017189
3414.3	0.00395
3423.94	0.0055
3433.59	0.00707
3443.23	0.00437
3452.88	0.00225
3462.52	0.00095
3472.17	0.0015534
3481.81	0.0016296
3491.46	0.0011196
3501.1	0.000575
3510.75	0.000865
3520.39	0.000675
3530.04	0.000725
3539.68	0.00117975
3549.32	0.0010493
3558.97	0.00122237
3568.61	0.00118671
3578.26	0.0011183
3587.9	0.0012724
3597.55	0.000875
3607.19	0.000714
3616.84	0.000791
3626.48	0.00117412
3636.13	0.0015243
3645.77	0.0013624
3655.42	0.0013251
3665.06	0.000705
3674.71	0.000877
3684.35	0.000985
3694	0.0010717
3703.64	0.000839
3713.29	0.000961
3722.93	0.000353
3732.58	0.0012537
3742.22	0.00114221
3751.86	0.001347
3761.51	0.00121593
3771.15	0.0010558
3780.8	0.000751
3790.44	0.00097
3800.09	0.000341
3809.73	0.000958
3819.38	0.000461
3829.02	0.0010596
3838.67	0.0014247
3848.31	0.000703
3857.96	0.000956
3867.6	0.000614
3877.25	0.000618
3886.89	0.000609
3896.54	0.000383
3906.18	0.0013083
3915.83	0.001036
3925.47	0.000969
3935.12	0.000809
3944.76	0.000535
3954.41	0.000931
3964.05	0.000241
3973.69	0.0010689
3983.34	0.000874
3992.98	0.001013
