Infrared Spectrum: Diethyl 2-isothiocyanatoglutarate
Formula: C 10 H 15 N O 4 S
CAS: 58560-28-4
State: gas
Origin: EPA-IR VAPOR PHASE LIBRARY
1/CM	ABSORBANCE
549.8	0.00817
559.445	0.00676
569.09	0.00585
578.734	0.0055
588.379	0.00485
598.024	0.00457
607.669	0.00435
617.313	0.00432
626.958	0.0043
636.603	0.00416
646.248	0.00426
655.893	0.00405
665.537	0.00435
675.182	0.00421
684.827	0.00441
694.472	0.00513
704.116	0.00541
713.761	0.00588
723.406	0.00618
733.051	0.00576
742.695	0.00582
752.34	0.00586
761.985	0.00664
771.63	0.00765
781.275	0.00844
790.919	0.00848
800.564	0.00831
810.209	0.00771
819.854	0.00706
829.498	0.00696
839.143	0.00892
848.788	0.01174
858.433	0.01335
868.078	0.0118
877.722	0.00868
887.367	0.00744
897.012	0.00726
906.657	0.00714
916.301	0.0077
925.946	0.00798
935.591	0.00842
945.236	0.00915
954.88	0.00921
964.525	0.00978
974.17	0.0103
983.815	0.01017
993.46	0.01136
1003.1	0.0169
1012.75	0.02974
1022.39	0.04873
1032.04	0.05653
1041.68	0.05103
1051.33	0.03917
1060.97	0.03126
1070.62	0.02832
1080.26	0.02733
1089.91	0.02919
1099.55	0.03268
1109.2	0.02898
1118.84	0.02907
1128.49	0.03316
1138.13	0.04236
1147.78	0.06179
1157.42	0.09614
1167.07	0.12876
1176.71	0.14587
1186.36	0.14762
1196	0.12639
1205.64	0.10367
1215.29	0.09019
1224.93	0.08835
1234.58	0.09216
1244.22	0.0937
1253.87	0.08746
1263.51	0.07333
1273.16	0.05669
1282.8	0.04617
1292.45	0.04377
1302.09	0.04508
1311.74	0.04525
1321.38	0.04689
1331.03	0.04262
1340.67	0.03291
1350.32	0.02753
1359.96	0.02481
1369.61	0.03383
1379.25	0.03527
1388.9	0.02123
1398.54	0.01621
1408.18	0.01311
1417.83	0.01242
1427.47	0.01447
1437.12	0.01685
1446.76	0.01968
1456.41	0.01702
1466.05	0.01565
1475.7	0.01418
1485.34	0.00926
1494.99	0.00608
1504.63	0.00454
1514.28	0.00369
1523.92	0.00329
1533.57	0.00302
1543.21	0.00277
1552.86	0.00274
1562.5	0.00258
1572.15	0.00254
1581.79	0.00265
1591.44	0.00243
1601.08	0.00247
1610.73	0.00246
1620.37	0.0025
1630.01	0.0027
1639.66	0.0028
1649.3	0.00306
1658.95	0.00345
1668.59	0.00391
1678.24	0.00459
1687.88	0.00601
1697.53	0.00834
1707.17	0.01248
1716.82	0.01878
1726.46	0.03087
1736.11	0.05967
1745.75	0.12653
1755.4	0.1885
1765.04	0.14159
1774.69	0.08311
1784.33	0.03775
1793.98	0.01986
1803.62	0.01224
1813.27	0.00832
1822.91	0.00608
1832.55	0.00495
1842.2	0.00436
1851.84	0.00422
1861.49	0.0042
1871.13	0.00456
1880.78	0.00522
1890.42	0.00588
1900.07	0.00679
1909.71	0.00798
1919.36	0.00993
1929	0.0127
1938.65	0.01646
1948.29	0.02156
1957.94	0.02857
1967.58	0.03797
1977.23	0.05058
1986.87	0.06746
1996.52	0.09011
2006.16	0.11969
2015.81	0.15668
2025.45	0.19736
2035.1	0.2274
2044.74	0.22523
2054.38	0.19235
2064.03	0.15055
2073.67	0.11661
2083.32	0.0954
2092.96	0.0842
2102.61	0.077
2112.25	0.06915
2121.9	0.05935
2131.54	0.04925
2141.19	0.0399
2150.83	0.03184
2160.48	0.02546
2170.12	0.02048
2179.77	0.0166
2189.41	0.01394
2199.06	0.01207
2208.7	0.01085
2218.35	0.00999
2227.99	0.00941
2237.64	0.00882
2247.28	0.00801
2256.92	0.00716
2266.57	0.0061
2276.21	0.00516
2285.86	0.0043
2295.5	0.0037
2305.15	0.00329
2314.79	0.00301
2324.44	0.00278
2334.08	0.0025
2343.73	0.00233
2353.37	0.00218
2363.02	0.00199
2372.66	0.00185
2382.31	0.00178
2391.95	0.00163
2401.6	0.00155
2411.24	0.00156
2420.89	0.00145
2430.53	0.0014
2440.18	0.0014
2449.82	0.00135
2459.47	0.00131
2469.11	0.00143
2478.75	0.00139
2488.4	0.0014
2498.04	0.00138
2507.69	0.00141
2517.33	0.00159
2526.98	0.00169
2536.62	0.00182
2546.27	0.00205
2555.91	0.00215
2565.56	0.00235
2575.2	0.00245
2584.85	0.00259
2594.49	0.00232
2604.14	0.00202
2613.78	0.00204
2623.43	0.0018
2633.07	0.00158
2642.72	0.00154
2652.36	0.0014
2662.01	0.00149
2671.65	0.00168
2681.29	0.00161
2690.94	0.00175
2700.58	0.00183
2710.23	0.00195
2719.87	0.00217
2729.52	0.00238
2739.16	0.00255
2748.81	0.00258
2758.45	0.00259
2768.1	0.00259
2777.74	0.00267
2787.39	0.00261
2797.03	0.00259
2806.68	0.00264
2816.32	0.0028
2825.97	0.00296
2835.61	0.0031
2845.26	0.00341
2854.9	0.00407
2864.55	0.00529
2874.19	0.00696
2883.84	0.00909
2893.48	0.00987
2903.12	0.01135
2912.77	0.01415
2922.41	0.01606
2932.06	0.02026
2941.7	0.02908
2951.35	0.02956
2960.99	0.02526
2970.64	0.02984
2980.28	0.04361
2989.93	0.05046
2999.57	0.03109
3009.22	0.02063
3018.86	0.01271
3028.51	0.00785
3038.15	0.00519
3047.8	0.00364
3057.44	0.00288
3067.09	0.00218
3076.73	0.00195
3086.38	0.00163
3096.02	0.00162
3105.67	0.00161
3115.31	0.00153
3124.95	0.00143
3134.6	0.0011533
3144.24	0.0011802
3153.89	0.0009494
3163.53	0.0008401
3173.18	0.000852
3182.82	0.0007819
3192.47	0.0005433
3202.11	0.0007082
3211.76	0.0004262
3221.4	0.0005281
3231.05	0.0003783
3240.69	0.0003335
3250.34	0.0003736
3259.98	0.0002402
3269.63	0.0003459
3279.27	0.0001866
3288.92	0.000220042
3298.56	0.0001822
3308.21	0.0003542
3317.85	0.0001
3327.49	0.0004204
3337.14	0.00029962
3346.78	0.0001921
3356.43	0.0002072
3366.07	0.0003466
3375.72	0.00031202
3385.36	0.00030676
3395.01	0.000204
3404.65	0.00029858
3414.3	0.0004744
3423.94	0.0004342
3433.59	0.0003839
3443.23	0.0003747
3452.88	0.0004748
3462.52	0.0008698
3472.17	0.0011686
3481.81	0.0019
3491.46	0.00222
3501.1	0.0017
3510.75	0.00154
3520.39	0.00123
3530.04	0.000713
3539.68	0.0007227
3549.32	0.000377
3558.97	0.00030711
3568.61	0.0003319
3578.26	8.1e-05
3587.9	0.0001673
3597.55	0.0001508
3607.19	9.1e-05
3616.84	0.00027218
3626.48	0.0001687
3636.13	0.0001237
3645.77	0.00021533
3655.42	0.00021341
3665.06	0.00026745
3674.71	0.00027203
3684.35	0.0003286
3694	0.0004086
3703.64	0.00028319
3713.29	9.4e-05
3722.93	0.0001481
3732.58	0.00021137
3742.22	0.0002086
3751.86	0.00027121
3761.51	0.000347
3771.15	0.0003906
3780.8	0.00028591
3790.44	0.000227303
3800.09	0.00024428
3809.73	0.00027768
3819.38	0.0002915
3829.02	0.0003824
3838.67	0.0003911
3848.31	0.00031155
3857.96	0.0004808
3867.6	0.0003842
3877.25	0.0004645
3886.89	0.0003353
3896.54	0.0004965
3906.18	0.0005623
3915.83	0.0006513
3925.47	0.0006246
3935.12	0.0005128
3944.76	0.0009266
3954.41	0.0009759
3964.05	0.0010858
3973.69	0.0011642
3983.34	0.0012152
3992.98	0.00144
