Infrared Spectrum: 2,2,4-Trimethyl-3-pentanone
Formula: C 8 H 16 O
CAS: 5857-36-3
State: gas
Instrument: HP-GC/MS/IRD
Origin: NIST Mass Spectrometry Data Center
1/CM	ABSORBANCE
550	0.0001196
562	0.0006256
574	0.001196
586	0.0009154
598	0.0003772
610	0.000276
622	0.0003174
634	0.0002576
646	0.000322
658	0.0001472
670	0.0002576
682	0.0003404
694	0.000391
706	0.0003128
718	0.0003542
730	0.0003174
742	0.0002484
754	0.000276
766	0.0002622
778	0.000253
790	0.0002668
802	0.0003542
814	0.00046
826	0.000368
838	0.0002852
850	0.0003174
862	0.0005796
874	0.0007314
886	0.0005474
898	0.0004324
910	0.0005152
922	0.0008326
934	0.0012604
946	0.0015226
958	0.0020378
970	0.0041952
982	0.0096692
994	0.0133584
1006	0.0093794
1018	0.0056856
1030	0.0062238
1042	0.0095128
1054	0.0104052
1066	0.00667
1078	0.0038594
1090	0.003289
1102	0.0021942
1114	0.0012144
1126	0.0009062
1138	0.000828
1150	0.0008418
1162	0.0012006
1174	0.0015456
1186	0.0016192
1198	0.001909
1210	0.0019642
1222	0.0015548
1234	0.0011362
1246	0.0009476
1258	0.0008004
1270	0.0006946
1282	0.0006854
1294	0.0007682
1306	0.0009752
1318	0.0015456
1330	0.0026128
1342	0.0034408
1354	0.0046322
1366	0.0077464
1378	0.0093104
1390	0.0080224
1402	0.0046138
1414	0.0020608
1426	0.00184
1438	0.0027094
1450	0.0048852
1462	0.0081282
1474	0.0112194
1486	0.0091218
1498	0.0035926
1510	0.0014306
1522	0.0009292
1534	0.0006762
1546	0.0004968
1558	0.0003174
1570	0.0004232
1582	0.00046
1594	0.0004462
1606	0.0004554
1618	0.0004922
1630	0.0005796
1642	0.0006946
1654	0.0009154
1666	0.0016284
1678	0.0029486
1690	0.006578
1702	0.0161276
1714	0.0256036
1726	0.0177146
1738	0.0054648
1750	0.0019044
1762	0.0010626
1774	0.0006256
1786	0.0005014
1798	0.0004646
1810	0.0004094
1822	0.0003496
1834	0.0002852
1846	0.0002116
1858	0.0002438
1870	0.0002438
1882	0.0002346
1894	0.0001886
1906	0.0001978
1918	0.0002024
1930	0.0001978
1942	0.0001748
1954	0.0001978
1966	0.0001886
1978	0.0001886
1990	0.0001564
2002	0.0001564
2014	0.0001518
2026	0.0001472
2038	0.0001748
2050	0.0001656
2062	0.0001518
2074	0.0001564
2086	0.000138
2098	0.0001196
2110	0.0001334
2122	0.0001242
2134	0.000138
2146	0.000138
2158	0.0001518
2170	0.0001702
2182	0.0001794
2194	0.000161
2206	0.0001518
2218	0.0001564
2230	0.0001886
2242	0.0001702
2254	0.0001472
2266	0.0001518
2278	0.0001564
2290	0.0001748
2302	0.0002254
2314	0.0002208
2326	0.0002392
2338	0.0002438
2350	0.0001932
2362	0.0002852
2374	0.0002254
2386	0.0001932
2398	0.0002162
2410	0.0001748
2422	0.000184
2434	0.0001748
2446	0.0001564
2458	0.0001794
2470	0.0001886
2482	0.0001702
2494	0.0001426
2506	0.0001334
2518	0.0001518
2530	0.0001564
2542	0.0001564
2554	0.0001656
2566	0.0001886
2578	0.0002254
2590	0.0001978
2602	0.00023
2614	0.0002254
2626	0.0002024
2638	0.0002162
2650	0.0002576
2662	0.0002622
2674	0.0002714
2686	0.0003128
2698	0.0003588
2710	0.0004232
2722	0.000552
2734	0.0006026
2746	0.0006118
2758	0.000667
2770	0.000713
2782	0.0007636
2794	0.000874
2806	0.0010442
2818	0.0012834
2830	0.0015548
2842	0.0019872
2854	0.0032752
2866	0.006923
2878	0.0120198
2890	0.0130134
2902	0.0121762
2914	0.0138322
2926	0.0174248
2938	0.0227332
2950	0.027255
2962	0.0371956
2974	0.046
2986	0.034293
2998	0.0153042
3010	0.0056948
3022	0.0027554
3034	0.0017618
3046	0.0012604
3058	0.0010396
3070	0.0008878
3082	0.0008694
3094	0.0008924
3106	0.0008648
3118	0.0008326
3130	0.0007728
3142	0.0007452
3154	0.0007958
3166	0.000828
3178	0.000759
3190	0.0006532
3202	0.000575
3214	0.0005014
3226	0.0004048
3238	0.0003312
3250	0.0002622
3262	0.000207
3274	0.0002116
3286	0.0001748
3298	0.0001472
3310	0.0001702
3322	0.000138
3334	0.0001748
3346	0.0001518
3358	0.00023
3370	0.0002668
3382	0.0003404
3394	0.0004186
3406	0.000575
3418	0.0005382
3430	0.0003404
3442	0.0001748
3454	0.0001518
3466	0.000115
3478	5.06e-05
3490	6.44e-05
3502	5.98e-05
3514	7.36e-05
3526	9.66e-05
3538	8.74e-05
3550	6.9e-05
3562	0.0001012
3574	0.000115
3586	3.22e-05
3598	7.36e-05
3610	9.2e-06
3622	9.66e-05
3634	9.2e-05
3646	2.3e-05
3658	5.52e-05
3670	4.6e-06
3682	5.98e-05
3694	5.06e-05
3706	3.68e-05
3718	6.44e-05
3730	3.68e-05
3742	4.6e-05
3754	6.44e-05
3766	5.52e-05
3778	9.2e-05
3790	0.0001242
3802	0.0001288
3814	0.0001518
3826	0.0001748
3838	0.0001012
