Infrared Spectrum: 4-Ethoxybenzhydrazide
Formula: C 9 H 12 N 2 O 2
CAS: 58586-81-5
State: gas
Origin: EPA-IR VAPOR PHASE LIBRARY
1/CM	ABSORBANCE
549.8	0.0010553
559.445	0.0011306
569.09	0.0007091
578.734	0.0008268
588.379	0.0010284
598.024	0.0010582
607.669	0.001399
617.313	0.001499
626.958	0.0009701
636.603	0.001539
646.248	0.001879
655.893	0.001429
665.537	0.0008138
675.182	0.0008118
684.827	0.0010467
694.472	0.0011948
704.116	0.0007459
713.761	0.000879
723.406	0.0006535
733.051	0.0006441
742.695	0.0007455
752.34	0.0012947
761.985	0.001679
771.63	0.001549
781.275	0.0013631
790.919	0.0011195
800.564	0.0012345
810.209	0.0011624
819.854	0.001489
829.498	0.002079
839.143	0.002809
848.788	0.002669
858.433	0.001899
868.078	0.0011006
877.722	0.0007529
887.367	0.0011571
897.012	0.001719
906.657	0.002809
916.301	0.004069
925.946	0.005839
935.591	0.006269
945.236	0.004909
954.88	0.002589
964.525	0.001619
974.17	0.0009953
983.815	0.0010094
993.46	0.0008412
1003.1	0.0009305
1012.75	0.001439
1022.39	0.001509
1032.04	0.003179
1041.68	0.003979
1051.33	0.004109
1060.97	0.002099
1070.62	0.001345
1080.26	0.0012009
1089.91	0.001589
1099.55	0.001889
1109.2	0.002139
1118.84	0.001799
1128.49	0.001529
1138.13	0.0011293
1147.78	0.0010468
1157.42	0.002799
1167.07	0.006599
1176.71	0.006629
1186.36	0.003739
1196	0.002629
1205.64	0.003089
1215.29	0.004569
1224.93	0.008149
1234.58	0.015599
1244.22	0.023059
1253.87	0.020079
1263.51	0.010059
1273.16	0.008389
1282.8	0.008679
1292.45	0.007959
1302.09	0.006869
1311.74	0.004189
1321.38	0.002419
1331.03	0.001609
1340.67	0.001439
1350.32	0.0013312
1359.96	0.0013271
1369.61	0.001499
1379.25	0.001839
1388.9	0.002769
1398.54	0.003519
1408.18	0.003019
1417.83	0.003349
1427.47	0.005189
1437.12	0.009989
1446.76	0.013779
1456.41	0.009989
1466.05	0.006549
1475.7	0.005269
1485.34	0.004419
1494.99	0.003909
1504.63	0.005259
1514.28	0.005519
1523.92	0.002939
1533.57	0.001679
1543.21	0.001599
1552.86	0.001599
1562.5	0.001699
1572.15	0.002249
1581.79	0.002979
1591.44	0.004479
1601.08	0.009599
1610.73	0.011539
1620.37	0.005779
1630.01	0.004259
1639.66	0.004089
1649.3	0.002929
1658.95	0.002509
1668.59	0.002859
1678.24	0.004249
1687.88	0.008659
1697.53	0.014209
1707.17	0.010319
1716.82	0.004649
1726.46	0.002569
1736.11	0.001679
1745.75	0.0012054
1755.4	0.0009319
1765.04	0.0007379
1774.69	0.0006673
1784.33	0.0005086
1793.98	0.0005857
1803.62	0.0005524
1813.27	0.000503
1822.91	0.0005359
1832.55	0.0004781
1842.2	0.00045869
1851.84	0.0003472
1861.49	0.00042829
1871.13	0.0005117
1880.78	0.00039649
1890.42	0.00046829
1900.07	0.00042146
1909.71	0.00043607
1919.36	0.00042307
1929	0.00045346
1938.65	0.00041632
1948.29	0.00036786
1957.94	0.00036282
1967.58	0.00039784
1977.23	0.0003924
1986.87	0.0003016
1996.52	0.00040252
2006.16	0.0003006
2015.81	0.0003129
2025.45	0.00040678
2035.1	0.00038515
2044.74	0.0002988
2054.38	0.00042098
2064.03	0.0003213
2073.67	0.00038385
2083.32	0.00035916
2092.96	0.000225
2102.61	0.000315
2112.25	0.0002913
2121.9	0.000217
2131.54	0.000266
2141.19	0.0002901
2150.83	0.000241
2160.48	0.000252
2170.12	0.000122
2179.77	0.00015
2189.41	0.000266
2199.06	0.000149
2208.7	0.000195
2218.35	0.000163
2227.99	0.000161
2237.64	0.000194
2247.28	0.0002714
2256.92	0.000281
2266.57	0.0002913
2276.21	0.0002768
2285.86	0.0003379
2295.5	0.000249
2305.15	0.0003206
2314.79	0.000287
2324.44	0.000219
2334.08	0.000158
2343.73	0.0002699
2353.37	0.000227
2363.02	0.000222
2372.66	0.0002807
2382.31	0.000285
2391.95	0.00026
2401.6	0.00044256
2411.24	0.0002837
2420.89	0.000268
2430.53	0.000244
2440.18	0.000373432
2449.82	0.0002691
2459.47	0.00040061
2469.11	0.00044693
2478.75	0.0003018
2488.4	0.0003421
2498.04	0.0003588
2507.69	0.0003646
2517.33	0.0003453
2526.98	0.0004903
2536.62	0.0004794
2546.27	0.00039841
2555.91	0.0004814
2565.56	0.0003445
2575.2	0.0003513
2584.85	0.00039618
2594.49	0.00040885
2604.14	0.000292
2613.78	0.0003093
2623.43	0.000212
2633.07	0.000184
2642.72	9.1e-05
2652.36	0.0003117
2662.01	0.000192
2671.65	0.0002782
2681.29	0.000216
2690.94	0.000147
2700.58	0.0002877
2710.23	0.000239
2719.87	0.000272
2729.52	0.0002875
2739.16	0.0003049
2748.81	0.0003874
2758.45	0.00046624
2768.1	0.00044145
2777.74	0.0005058
2787.39	0.00039451
2797.03	0.00038538
2806.68	0.0004475
2816.32	0.0003765
2825.97	0.000318
2835.61	0.00044659
2845.26	0.00045174
2854.9	0.0006602
2864.55	0.000765
2874.19	0.0011165
2883.84	0.001389
2893.48	0.001709
2903.12	0.001699
2912.77	0.001849
2922.41	0.001839
2932.06	0.001929
2941.7	0.002309
2951.35	0.002039
2960.99	0.001509
2970.64	0.001909
2980.28	0.002949
2989.93	0.003279
2999.57	0.002559
3009.22	0.001479
3018.86	0.001083
3028.51	0.0008373
3038.15	0.0012293
3047.8	0.0012846
3057.44	0.0008712
3067.09	0.0006115
3076.73	0.0011023
3086.38	0.0008417
3096.02	0.0009059
3105.67	0.0006567
3115.31	0.00045472
3124.95	0.0005719
3134.6	0.000378943
3144.24	0.000548
3153.89	0.00040933
3163.53	0.0002901
3173.18	0.00038958
3182.82	0.0003403
3192.47	0.0006181
3202.11	0.000215
3211.76	0.00038415
3221.4	0.000232
3231.05	0.000187
3240.69	0.000217
3250.34	0.00039174
3259.98	0.000234
3269.63	0.00017
3279.27	8.4e-05
3288.92	0.000231
3298.56	0.000259
3308.21	0.000376077
3317.85	0.0003282
3327.49	0.000378049
3337.14	0.000214
3346.78	0.00044978
3356.43	0.000214
3366.07	0.000225
3375.72	0.0005275
3385.36	0.000370251
3395.01	0.00039474
3404.65	0.0005299
3414.3	0.00038437
3423.94	0.0005186
3433.59	0.0006411
3443.23	0.0005969
3452.88	0.0010401
3462.52	0.001569
3472.17	0.001999
3481.81	0.001409
3491.46	0.0009901
3501.1	0.0005001
3510.75	0.000616
3520.39	0.00040945
3530.04	0.0003116
3539.68	0.00037901
3549.32	0.00038354
3558.97	0.000163
3568.61	0.0004149
3578.26	0.000256
3587.9	0.0003008
3597.55	0.0005066
3607.19	0.000173
3616.84	0.000234
3626.48	0.000292
3636.13	9.4e-05
3645.77	0.0002878
3655.42	0.0003019
3665.06	0.0003236
3674.71	0.000267
3684.35	0.0005625
3694	0.0003289
3703.64	0.000249
3713.29	0.000259
3722.93	0.000374896
3732.58	0.00043654
3742.22	0.000264
3751.86	0.000126
3761.51	4.3e-05
3771.15	0.00043559
3780.8	3e-05
3790.44	0.0003156
3800.09	0.00038054
3809.73	0.00044581
3819.38	0.0003342
3829.02	0.0003575
3838.67	0.000261
3848.31	0.0002739
3857.96	0.000232
3867.6	0.000201
3877.25	0.000251
3886.89	0.00017
3896.54	0.0003117
3906.18	0.00042374
3915.83	7.9e-05
3925.47	0.000164
3935.12	0.000118
3944.76	0.0002
3954.41	0.000202
3964.05	0.0002789
3973.69	9.5e-05
3983.34	0.000128
3992.98	0.0004969
