Infrared Spectrum: 3'-Methoxyacetophenone
Formula: C 9 H 10 O 2
CAS: 586-37-8
State: gas
Instrument: HP-GC/MS/IRD
Origin: NIST Mass Spectrometry Data Center
1/CM	ABSORBANCE
550	0.0008008
562	0.002212
574	0.0029344
586	0.0038976
598	0.0034552
610	0.0017248
622	0.000336
634	3.92e-05
646	0.00014
658	0.0003752
670	0.0017808
682	0.0057456
694	0.007756
706	0.003192
718	0.0006104
730	0.0002744
742	0.0002016
754	0.00056
766	0.002296
778	0.0057008
790	0.0058912
802	0.0025144
814	0.0007392
826	0.0007
838	0.0019656
850	0.0050064
862	0.0054992
874	0.0040992
886	0.0027216
898	0.0017248
910	0.001008
922	0.0007728
934	0.0010864
946	0.002128
958	0.0030016
970	0.0026936
982	0.0019712
994	0.00196
1006	0.0023968
1018	0.0040656
1030	0.0083552
1042	0.0129976
1054	0.0115864
1066	0.005572
1078	0.0035112
1090	0.0026096
1102	0.0018032
1114	0.0012208
1126	0.0011368
1138	0.0012712
1150	0.001932
1162	0.0033712
1174	0.005544
1186	0.0066808
1198	0.0084728
1210	0.0137704
1222	0.015596
1234	0.011312
1246	0.0122976
1258	0.0302568
1270	0.0555016
1282	0.0422016
1294	0.0229768
1306	0.0119056
1318	0.009772
1330	0.0081928
1342	0.006496
1354	0.010444
1366	0.010248
1378	0.0040488
1390	0.002828
1402	0.0034608
1414	0.0070896
1426	0.0157976
1438	0.0153664
1450	0.0092736
1462	0.0089376
1474	0.0118272
1486	0.013244
1498	0.0062104
1510	0.0023744
1522	0.001848
1534	0.002016
1546	0.0027552
1558	0.0043568
1570	0.0084896
1582	0.0156352
1594	0.0177128
1606	0.011284
1618	0.0045528
1630	0.0024696
1642	0.0022176
1654	0.0027272
1666	0.0038752
1678	0.0054936
1690	0.0136472
1702	0.031108
1714	0.0232568
1726	0.0061992
1738	0.0034776
1750	0.0029232
1762	0.0016688
1774	0.0010192
1786	0.0007336
1798	0.00056
1810	0.0004816
1822	0.0004088
1834	0.0004312
1846	0.0005544
1858	0.0005936
1870	0.0004592
1882	0.0003472
1894	0.0002856
1906	0.0003472
1918	0.0004592
1930	0.0004536
1942	0.0003696
1954	0.0002912
1966	0.00028
1978	0.0002632
1990	0.0002352
2002	0.0002352
2014	0.00028
2026	0.0003192
2038	0.000364
2050	0.0004088
2062	0.000532
2074	0.0005768
2086	0.0004704
2098	0.0003024
2110	0.0002016
2122	0.0001792
2134	0.0001736
2146	0.0001176
2158	7.84e-05
2170	6.72e-05
2182	5.04e-05
2194	4.48e-05
2206	3.36e-05
2218	6.72e-05
2230	3.36e-05
2242	5.6e-06
2254	1.12e-05
2266	4.48e-05
2278	5.6e-05
2290	8.4e-05
2302	8.96e-05
2314	9.52e-05
2326	0.0001512
2338	0.000168
2350	8.96e-05
2362	4.48e-05
2374	5.6e-05
2386	6.16e-05
2398	5.04e-05
2410	2.24e-05
2422	6.16e-05
2434	0.0001288
2446	0.0001792
2458	0.0001904
2470	0.00014
2482	0.0001736
2494	0.0001904
2506	0.0001736
2518	0.0001064
2530	0.0001344
2542	0.000196
2554	0.0002632
2566	0.000224
2578	0.000224
2590	0.0002464
2602	0.0001736
2614	0.0001288
2626	0.0001232
2638	0.0001232
2650	0.0001232
2662	8.96e-05
2674	7.28e-05
2686	8.96e-05
2698	7.28e-05
2710	7.84e-05
2722	4.48e-05
2734	6.16e-05
2746	0.0001008
2758	0.000168
2770	0.0001904
2782	0.0002408
2794	0.0003696
2806	0.0005768
2818	0.0008736
2830	0.0018312
2842	0.0037016
2854	0.003416
2866	0.0020944
2878	0.0019432
2890	0.0021672
2902	0.0025368
2914	0.0034272
2926	0.0042896
2938	0.0055832
2950	0.0070952
2962	0.0063672
2974	0.0045472
2986	0.0034216
2998	0.0045304
3010	0.0068768
3022	0.0046536
3034	0.002744
3046	0.0024472
3058	0.002464
3070	0.0036792
3082	0.0043288
3094	0.0028168
3106	0.001568
3118	0.00084
3130	0.0005432
3142	0.000364
3154	0.0003528
3166	0.0002968
3178	0.0002352
3190	0.000168
3202	0.0001176
3214	0.0001232
3226	0.000112
3238	6.16e-05
3250	7.28e-05
3262	7.28e-05
3274	7.84e-05
3286	7.28e-05
3298	8.4e-05
3310	4.48e-05
3322	7.84e-05
3334	0.0001456
3346	0.0001232
3358	0.0002128
3370	0.000308
3382	0.0005432
3394	0.000672
3406	0.0004312
3418	0.0002352
3430	0.0002296
3442	0.0001792
3454	0.00014
3466	0.000112
3478	0.0001736
3490	0.0001848
3502	0.0001512
3514	9.52e-05
3526	0.0001848
3538	0.000168
3550	0.0001512
3562	0.0002352
3574	0.0002072
3586	0.0002072
3598	0.0001568
3610	0.000168
3622	0.0001512
3634	0.000196
3646	0.0001792
3658	0.000196
3670	0.0001792
3682	0.0001904
3694	0.0001064
3706	0.000168
3718	0.0001568
3730	0.0002016
3742	0.0001904
3754	0.0001848
3766	0.0001512
3778	0.0002408
3790	0.000196
3802	0.0001904
3814	0.0002184
3826	0.0002016
3838	0.0001904
