Infrared Spectrum: 4-Pyridylcarbinol
Formula: C 6 H 7 N O
CAS: 586-95-8
State: gas
Origin: EPA-IR VAPOR PHASE LIBRARY
1/CM	ABSORBANCE
549.8	0.001662
559.445	0.001372
569.09	0.001972
578.734	0.003462
588.379	0.004402
598.024	0.004692
607.669	0.002942
617.313	0.001622
626.958	0.001672
636.603	0.001452
646.248	0.0011797
655.893	0.0009924
665.537	0.0008643
675.182	0.0010557
684.827	0.0007449
694.472	0.0008457
704.116	0.0008758
713.761	0.0009661
723.406	0.0010922
733.051	0.0012117
742.695	0.001222
752.34	0.001532
761.985	0.002502
771.63	0.004442
781.275	0.006872
790.919	0.009382
800.564	0.008662
810.209	0.006132
819.854	0.003902
829.498	0.002692
839.143	0.001952
848.788	0.001312
858.433	0.0011663
868.078	0.0011374
877.722	0.0006884
887.367	0.0010349
897.012	0.0009329
906.657	0.0011392
916.301	0.0010364
925.946	0.001432
935.591	0.001632
945.236	0.002322
954.88	0.002602
964.525	0.003202
974.17	0.003942
983.815	0.005582
993.46	0.006172
1003.1	0.006912
1012.75	0.007512
1022.39	0.009932
1032.04	0.012792
1041.68	0.012602
1051.33	0.009922
1060.97	0.007222
1070.62	0.005402
1080.26	0.004382
1089.91	0.003792
1099.55	0.002892
1109.2	0.002182
1118.84	0.002042
1128.49	0.001832
1138.13	0.001992
1147.78	0.002512
1157.42	0.002872
1167.07	0.003492
1176.71	0.004082
1186.36	0.005172
1196	0.005942
1205.64	0.006742
1215.29	0.007052
1224.93	0.006162
1234.58	0.004492
1244.22	0.003412
1253.87	0.002782
1263.51	0.002952
1273.16	0.002642
1282.8	0.002682
1292.45	0.002632
1302.09	0.002662
1311.74	0.002882
1321.38	0.003012
1331.03	0.003202
1340.67	0.003382
1350.32	0.003612
1359.96	0.004292
1369.61	0.005302
1379.25	0.006142
1388.9	0.006602
1398.54	0.007622
1408.18	0.008522
1417.83	0.007742
1427.47	0.005572
1437.12	0.002982
1446.76	0.001922
1456.41	0.001882
1466.05	0.001822
1475.7	0.001452
1485.34	0.0010845
1494.99	0.0008329
1504.63	0.000759
1514.28	0.0007313
1523.92	0.0008415
1533.57	0.0011493
1543.21	0.001762
1552.86	0.002892
1562.5	0.003862
1572.15	0.005142
1581.79	0.006082
1591.44	0.009032
1601.08	0.009792
1610.73	0.007272
1620.37	0.003152
1630.01	0.001452
1639.66	0.0011569
1649.3	0.0011397
1658.95	0.0010438
1668.59	0.0009687
1678.24	0.0008261
1687.88	0.0007175
1697.53	0.0006173
1707.17	0.0007209
1716.82	0.0010288
1726.46	0.0012042
1736.11	0.0011781
1745.75	0.0008141
1755.4	0.0006365
1765.04	0.0005589
1774.69	0.0005656
1784.33	0.0004762
1793.98	0.000497
1803.62	0.0004849
1813.27	0.0005108
1822.91	0.0005708
1832.55	0.000671
1842.2	0.0007239
1851.84	0.0006648
1861.49	0.0004551
1871.13	0.000469
1880.78	0.0005078
1890.42	0.0004777
1900.07	0.0005911
1909.71	0.0007954
1919.36	0.000957
1929	0.0010475
1938.65	0.0010235
1948.29	0.000754
1957.94	0.0006128
1967.58	0.0004982
1977.23	0.0003998
1986.87	0.000482
1996.52	0.0004447
2006.16	0.0005155
2015.81	0.0005311
2025.45	0.0005287
2035.1	0.0005327
2044.74	0.0005655
2054.38	0.0005579
2064.03	0.0005974
2073.67	0.0005695
2083.32	0.0005522
2092.96	0.0004658
2102.61	0.0005125
2112.25	0.0004548
2121.9	0.000422
2131.54	0.0003771
2141.19	0.0003922
2150.83	0.0004121
2160.48	0.0004375
2170.12	0.0004461
2179.77	0.0003919
2189.41	0.0004613
2199.06	0.0004844
2208.7	0.0004635
2218.35	0.0004172
2227.99	0.0004691
2237.64	0.0003818
2247.28	0.0005134
2256.92	0.000421
2266.57	0.0004235
2276.21	0.0004604
2285.86	0.0005643
2295.5	0.0005858
2305.15	0.0005261
2314.79	0.0005971
2324.44	0.0005855
2334.08	0.0004536
2343.73	0.0004606
2353.37	0.0005317
2363.02	0.0005228
2372.66	0.0005505
2382.31	0.0004685
2391.95	0.000497
2401.6	0.000518
2411.24	0.000536
2420.89	0.0006014
2430.53	0.0005246
2440.18	0.000471
2449.82	0.0004563
2459.47	0.000391
2469.11	0.0004632
2478.75	0.0003863
2488.4	0.0004217
2498.04	0.000434
2507.69	0.0004999
2517.33	0.0004263
2526.98	0.0004263
2536.62	0.0003534
2546.27	0.0004946
2555.91	0.0004327
2565.56	0.0004116
2575.2	0.0003998
2584.85	0.0003983
2594.49	0.0003836
2604.14	0.0004294
2613.78	0.0003819
2623.43	0.0004022
2633.07	0.0003803
2642.72	0.0004937
2652.36	0.0004417
2662.01	0.0004595
2671.65	0.0004777
2681.29	0.000608
2690.94	0.0004982
2700.58	0.0006237
2710.23	0.0005436
2719.87	0.0004803
2729.52	0.0005956
2739.16	0.0007884
2748.81	0.0006004
2758.45	0.0006906
2768.1	0.000773
2777.74	0.0007953
2787.39	0.0006978
2797.03	0.0010328
2806.68	0.0011572
2816.32	0.001232
2825.97	0.001472
2835.61	0.001892
2845.26	0.002082
2854.9	0.002682
2864.55	0.003582
2874.19	0.004482
2883.84	0.005072
2893.48	0.005232
2903.12	0.004872
2912.77	0.004672
2922.41	0.004672
2932.06	0.004432
2941.7	0.004302
2951.35	0.003912
2960.99	0.003662
2970.64	0.003552
2980.28	0.003452
2989.93	0.003302
2999.57	0.003182
3009.22	0.003462
3018.86	0.004432
3028.51	0.005742
3038.15	0.005992
3047.8	0.006112
3057.44	0.006402
3067.09	0.006822
3076.73	0.006202
3086.38	0.005112
3096.02	0.002662
3105.67	0.001302
3115.31	0.0007453
3124.95	0.0004468
3134.6	0.0003432
3144.24	0.00028483
3153.89	0.00027642
3163.53	0.00022297
3173.18	0.0004405
3182.82	0.0001473
3192.47	0.00026716
3202.11	0.000153
3211.76	0.000219191
3221.4	0.00028567
3231.05	3.8e-05
3240.69	0.0002795
3250.34	8.6e-05
3259.98	0.00023908
3269.63	0.0001793
3279.27	0.000219084
3288.92	0.00027677
3298.56	0.0003455
3308.21	0.0001458
3317.85	0.0002246
3327.49	0.00023704
3337.14	0.0003923
3346.78	5.1e-05
3356.43	0.0001476
3366.07	0.0001924
3375.72	0.00025423
3385.36	0.0002573
3395.01	0.0003714
3404.65	0.0003484
3414.3	0.00023483
3423.94	0.0004754
3433.59	0.0005189
3443.23	0.0001727
3452.88	0.0003322
3462.52	0.0004352
3472.17	0.0005643
3481.81	0.0004866
3491.46	0.0003138
3501.1	0.000472
3510.75	0.0003937
3520.39	0.00023813
3530.04	0.0004214
3539.68	0.000217112
3549.32	0.0004392
3558.97	0.0004232
3568.61	0.0005173
3578.26	0.0003515
3587.9	0.0005207
3597.55	0.0005446
3607.19	0.0007455
3616.84	0.0009362
3626.48	0.001302
3636.13	0.001812
3645.77	0.002662
3655.42	0.003952
3665.06	0.004212
3674.71	0.003772
3684.35	0.002532
3694	0.001582
3703.64	0.0011312
3713.29	0.0008261
3722.93	0.0004381
3732.58	0.0004092
3742.22	0.0005485
3751.86	0.00029128
3761.51	0.00020904
3771.15	0.0003924
3780.8	0.00028723
3790.44	0.0001625
3800.09	0.0004449
3809.73	0.0005101
3819.38	0.0003219
3829.02	0.0004454
3838.67	0.00049
3848.31	0.0004435
3857.96	0.0004521
3867.6	0.0003578
3877.25	0.0004167
3886.89	0.0004722
3896.54	0.0003726
3906.18	0.000452
3915.83	0.0004897
3925.47	0.0003723
3935.12	0.0001599
3944.76	0.00028753
3954.41	0.0003122
3964.05	0
3973.69	0.000354
3983.34	0.00027804
3992.98	0.00024388
