Infrared Spectrum: 4-Bromoisopropylbenzene
Formula: C 9 H 11 Br
CAS: 586-61-8
State: gas
Instrument: HP-GC/MS/IRD
Origin: NIST Mass Spectrometry Data Center
1/CM	ABSORBANCE
550	0.0026622
562	0.0022134
574	0.0014586
586	0.0029784
598	0.004947
610	0.001887
622	0.0006222
634	0.0006834
646	0.0014178
658	0.000357
670	5.1e-05
682	0.0001836
694	0.0005916
706	0.001938
718	0.0035088
730	0.0030192
742	0.0046002
754	0.009231
766	0.0025092
778	0.002244
790	0.0037434
802	0.0091698
814	0.0250512
826	0.0278256
838	0.010557
850	0.0027438
862	0.0011628
874	0.0007956
886	0.000867
898	0.0009384
910	0.0008874
922	0.000867
934	0.0007956
946	0.000663
958	0.000663
970	0.0008976
982	0.0014076
994	0.0049266
1006	0.0340476
1018	0.027183
1030	0.002958
1042	0.003672
1054	0.009588
1066	0.0190842
1078	0.0427074
1090	0.0144126
1102	0.0103734
1114	0.0051102
1126	0.0034884
1138	0.004182
1150	0.002193
1162	0.0007344
1174	0.0007344
1186	0.0010914
1198	0.0009792
1210	0.0012036
1222	0.002244
1234	0.0009996
1246	0.0008058
1258	0.0011322
1270	0.0012546
1282	0.0016932
1294	0.0050082
1306	0.003366
1318	0.0042024
1330	0.004284
1342	0.0040086
1354	0.0049062
1366	0.0062526
1378	0.007242
1390	0.0090576
1402	0.0110364
1414	0.0091392
1426	0.0054366
1438	0.0058038
1450	0.0094146
1462	0.0157182
1474	0.0220218
1486	0.0570384
1498	0.038964
1510	0.0064872
1522	0.0025602
1534	0.0016116
1546	0.0012444
1558	0.0013056
1570	0.0015708
1582	0.0021216
1594	0.0035394
1606	0.0014178
1618	0.001275
1630	0.0023154
1642	0.002754
1654	0.0016422
1666	0.0009588
1678	0.0006936
1690	0.0004182
1702	0.0003162
1714	0.0002448
1726	0.0002856
1738	0.0004794
1750	0.0009894
1762	0.0014484
1774	0.0016116
1786	0.0003876
1798	0.0001122
1810	0.0001428
1822	0.0001632
1834	0.0001938
1846	0.0003162
1858	0.0006018
1870	0.0012546
1882	0.0023766
1894	0.0025092
1906	0.0012138
1918	0.0004794
1930	0.0002448
1942	0.000153
1954	0.000153
1966	0.0001326
1978	8.16e-05
1990	4.08e-05
2002	6.12e-05
2014	6.12e-05
2026	0.000102
2038	5.1e-05
2050	5.1e-05
2062	4.08e-05
2074	6.12e-05
2086	7.14e-05
2098	3.06e-05
2110	1.02e-05
2122	2.04e-05
2134	6.12e-05
2146	6.12e-05
2158	3.06e-05
2170	2.04e-05
2182	2.04e-05
2194	6.12e-05
2206	2.04e-05
2218	7.14e-05
2230	0.0001326
2242	0.0001938
2254	0.0002346
2266	0.0003366
2278	0.0003978
2290	0.0003978
2302	0.000357
2314	0.0002754
2326	0.0001938
2338	0.0001428
2350	0.0001632
2362	0.0001938
2374	0.000306
2386	0.0002958
2398	0.000255
2410	0.000255
2422	0.000204
2434	0.000204
2446	0.0001938
2458	0.000255
2470	0.0002958
2482	0.0002754
2494	0.0002652
2506	0.0002958
2518	0.0002856
2530	0.0003162
2542	0.0003468
2554	0.000408
2566	0.000561
2578	0.000765
2590	0.0009282
2602	0.0009282
2614	0.0006936
2626	0.0004896
2638	0.0003876
2650	0.0004284
2662	0.0004998
2674	0.0005202
2686	0.0004998
2698	0.0005202
2710	0.0006018
2722	0.000918
2734	0.0011322
2746	0.0011016
2758	0.0010506
2770	0.0011832
2782	0.0011934
2794	0.0013566
2806	0.001734
2818	0.0021828
2830	0.0024786
2842	0.0031518
2854	0.0053958
2866	0.0103632
2878	0.0200736
2890	0.022899
2902	0.0225114
2914	0.0231132
2926	0.0241944
2938	0.0306612
2950	0.0339966
2962	0.0688704
2974	0.0961452
2986	0.0331398
2998	0.011934
3010	0.0074562
3022	0.0093534
3034	0.010455
3046	0.008364
3058	0.0069462
3070	0.0065178
3082	0.0081906
3094	0.0078846
3106	0.0040698
3118	0.0019992
3130	0.0015198
3142	0.0012444
3154	0.0012852
3166	0.0013362
3178	0.0012342
3190	0.0011628
3202	0.0011016
3214	0.0009588
3226	0.0007446
3238	0.00051
3250	0.0003366
3262	0.0003264
3274	0.0002142
3286	0.0001938
3298	0.000255
3310	0.000204
3322	0.0002652
3334	0.000357
3346	0.000306
3358	0.0001938
3370	0.0001836
3382	0.0001632
3394	0.0001224
3406	0.0001632
3418	0.000102
3430	0.0001224
3442	0.0002244
3454	0.0001938
3466	0.0001326
3478	8.16e-05
3490	8.16e-05
3502	6.12e-05
3514	6.12e-05
3526	5.1e-05
3538	0.0001428
3550	8.16e-05
3562	7.14e-05
3574	0.0001122
3586	4.08e-05
3598	5.1e-05
3610	6.12e-05
3622	4.08e-05
3634	6.12e-05
3646	0.0001224
3658	8.16e-05
3670	0.0001836
3682	0.0001326
3694	0.000153
3706	0.000153
3718	0.0002652
3730	0.0001326
3742	7.14e-05
3754	6.12e-05
3766	7.14e-05
3778	0.0001428
3790	0.0001632
3802	0.0002346
3814	0.0002244
3826	0.0002958
3838	0.0004692
