Infrared Spectrum: 3-Nitrosostyrene
Formula: C 8 H 7 N O 2
CAS: 586-39-0
State: gas
Origin: EPA-IR VAPOR PHASE LIBRARY
1/CM	ABSORBANCE
549.8	0.0008755
559.445	0.0006791
569.09	0.001739
578.734	0.004119
588.379	0.007409
598.024	0.005769
607.669	0.002659
617.313	0.0012674
626.958	0.0007122
636.603	0.0007071
646.248	0.0006392
655.893	0.001449
665.537	0.003319
675.182	0.006499
684.827	0.010369
694.472	0.013169
704.116	0.011069
713.761	0.007839
723.406	0.007019
733.051	0.012729
742.695	0.015639
752.34	0.013509
761.985	0.012439
771.63	0.008269
781.275	0.003649
790.919	0.001739
800.564	0.001339
810.209	0.001599
819.854	0.002459
829.498	0.003569
839.143	0.004569
848.788	0.004109
858.433	0.003129
868.078	0.002209
877.722	0.001939
887.367	0.001559
897.012	0.001299
906.657	0.001459
916.301	0.002339
925.946	0.004299
935.591	0.007069
945.236	0.012129
954.88	0.019129
964.525	0.021509
974.17	0.012799
983.815	0.004839
993.46	0.002909
1003.1	0.002169
1012.75	0.001459
1022.39	0.002039
1032.04	0.001899
1041.68	0.0011069
1051.33	0.001409
1060.97	0.001669
1070.62	0.001709
1080.26	0.001429
1089.91	0.0011229
1099.55	0.0007927
1109.2	0.0008559
1118.84	0.0007282
1128.49	0.00035048
1138.13	0.0004081
1147.78	0.0004586
1157.42	0.0006731
1167.07	0.001389
1176.71	0.003649
1186.36	0.005279
1196	0.004119
1205.64	0.002179
1215.29	0.0010642
1224.93	0.001289
1234.58	0.001899
1244.22	0.004269
1253.87	0.006499
1263.51	0.003129
1273.16	0.002029
1282.8	0.002239
1292.45	0.002999
1302.09	0.004289
1311.74	0.007389
1321.38	0.012329
1331.03	0.023929
1340.67	0.057799
1350.32	0.086159
1359.96	0.049979
1369.61	0.017729
1379.25	0.009459
1388.9	0.005369
1398.54	0.003029
1408.18	0.001959
1417.83	0.001949
1427.47	0.003299
1437.12	0.005959
1446.76	0.008039
1456.41	0.006779
1466.05	0.004399
1475.7	0.004039
1485.34	0.006169
1494.99	0.010569
1504.63	0.013059
1514.28	0.016319
1523.92	0.027819
1533.57	0.051669
1543.21	0.065709
1552.86	0.055719
1562.5	0.029429
1572.15	0.018659
1581.79	0.013969
1591.44	0.008359
1601.08	0.005289
1610.73	0.004419
1620.37	0.005309
1630.01	0.009479
1639.66	0.016899
1649.3	0.014109
1658.95	0.005149
1668.59	0.003249
1678.24	0.002369
1687.88	0.001989
1697.53	0.001749
1707.17	0.001519
1716.82	0.0011074
1726.46	0.0009562
1736.11	0.0010398
1745.75	0.0010329
1755.4	0.0008338
1765.04	0.0006649
1774.69	0.0008188
1784.33	0.0011513
1793.98	0.001689
1803.62	0.001399
1813.27	0.0009779
1822.91	0.0008199
1832.55	0.0006014
1842.2	0.0005289
1851.84	0.0006121
1861.49	0.0008126
1871.13	0.0010578
1880.78	0.0012572
1890.42	0.001459
1900.07	0.0011491
1909.71	0.0009388
1919.36	0.0009988
1929	0.0011313
1938.65	0.001319
1948.29	0.001359
1957.94	0.001339
1967.58	0.0011586
1977.23	0.0006774
1986.87	0.0004353
1996.52	0.0004649
2006.16	0.000422
2015.81	0.00037385
2025.45	0.00031721
2035.1	0.000287468
2044.74	0.00031936
2054.38	0.00030797
2064.03	0.00037605
2073.67	0.0004055
2083.32	0.0004038
2092.96	0.00034929
2102.61	0.0002618
2112.25	0.00036393
2121.9	0.00032192
2131.54	0.000282765
2141.19	0.00029769
2150.83	0.00033856
2160.48	0.0002928
2170.12	0.00029334
2179.77	0.0002639
2189.41	0.000284324
2199.06	0.00032833
2208.7	0.0003946
2218.35	0.000397
2227.99	0.00035844
2237.64	0.0004332
2247.28	0.0004419
2256.92	0.0003879
2266.57	0.0005013
2276.21	0.0004865
2285.86	0.0005689
2295.5	0.0005543
2305.15	0.0006318
2314.79	0.0007469
2324.44	0.0007253
2334.08	0.0005407
2343.73	0.0004953
2353.37	0.0005015
2363.02	0.0004413
2372.66	0.0003812
2382.31	0.00037141
2391.95	0.00032247
2401.6	0.00033268
2411.24	0.00036797
2420.89	0.000445
2430.53	0.0004115
2440.18	0.0003882
2449.82	0.00036367
2459.47	0.0004094
2469.11	0.00037733
2478.75	0.0004292
2488.4	0.0005427
2498.04	0.0005307
2507.69	0.0005572
2517.33	0.0005706
2526.98	0.0004459
2536.62	0.0005048
2546.27	0.0004841
2555.91	0.000418
2565.56	0.0004319
2575.2	0.0004819
2584.85	0.0006406
2594.49	0.0007502
2604.14	0.0007251
2613.78	0.0006822
2623.43	0.000477
2633.07	0.0004955
2642.72	0.0004575
2652.36	0.0004255
2662.01	0.00036925
2671.65	0.0003885
2681.29	0.0004731
2690.94	0.0005271
2700.58	0.0005677
2710.23	0.0004081
2719.87	0.000376
2729.52	0.0004675
2739.16	0.0004288
2748.81	0.000411
2758.45	0.0004006
2768.1	0.000495
2777.74	0.0004577
2787.39	0.000651
2797.03	0.0006161
2806.68	0.0005571
2816.32	0.0006364
2825.97	0.0008092
2835.61	0.0008316
2845.26	0.0010404
2854.9	0.0012631
2864.55	0.001579
2874.19	0.001849
2883.84	0.001959
2893.48	0.001829
2903.12	0.001469
2912.77	0.001329
2922.41	0.0010209
2932.06	0.0008836
2941.7	0.0008614
2951.35	0.0008075
2960.99	0.000555
2970.64	0.0006942
2980.28	0.0009939
2989.93	0.0010893
2999.57	0.0011804
3009.22	0.001299
3018.86	0.002069
3028.51	0.004199
3038.15	0.005909
3047.8	0.005119
3057.44	0.004729
3067.09	0.008239
3076.73	0.010109
3086.38	0.006979
3096.02	0.006159
3105.67	0.005339
3115.31	0.004729
3124.95	0.002259
3134.6	0.0009474
3144.24	0.0007671
3153.89	0.000751
3163.53	0.0005283
3173.18	0.0004219
3182.82	0.0004471
3192.47	0.0003897
3202.11	0.00033093
3211.76	0.00036377
3221.4	0.0004134
3231.05	0.00036727
3240.69	0.00036186
3250.34	0.00036229
3259.98	0.00034987
3269.63	0.000132
3279.27	0.0002352
3288.92	0.000194
3298.56	0.00031036
3308.21	0.0002397
3317.85	0.000168
3327.49	0.000207
3337.14	0.000136
3346.78	0.0002159
3356.43	0.000104
3366.07	0.00034784
3375.72	0.0002246
3385.36	0.00036106
3395.01	0.00030096
3404.65	0.000286171
3414.3	0.0002598
3423.94	0.00034865
3433.59	0.00032948
3443.23	0.0002351
3452.88	0.0002467
3462.52	0.000162
3472.17	0.0002308
3481.81	0.00029087
3491.46	0.0002356
3501.1	0.0004138
3510.75	8.4e-05
3520.39	0.0002025
3530.04	0.0004646
3539.68	0.0001857
3549.32	8.9e-05
3558.97	0.000175
3568.61	0.0004028
3578.26	0.0002625
3587.9	0.000142
3597.55	0.0002511
3607.19	0.000206
3616.84	0.0002
3626.48	0.000279574
3636.13	0.0002465
3645.77	0.00031884
3655.42	0.0005081
3665.06	0.0002609
3674.71	0.00036639
3684.35	0.000178
3694	0.0004792
3703.64	0.000395
3713.29	0
3722.93	0.00030813
3732.58	0.00036847
3742.22	0.00031459
3751.86	0.0004626
3761.51	0.0001855
3771.15	0.000281022
3780.8	0.0002381
3790.44	0.00027266
3800.09	0.0004153
3809.73	0.00031565
3819.38	0.0002317
3829.02	0.0005055
3838.67	0.000280813
3848.31	0.00032633
3857.96	0.0001
3867.6	0.000165
3877.25	0.0003908
3886.89	0.000415
3896.54	0.0003181
3906.18	0.0002679
3915.83	0.0002347
3925.47	0.0002306
3935.12	0.00027567
3944.76	0.0004162
3954.41	0.0005265
3964.05	0.0004399
3973.69	0.0004908
3983.34	0.00036176
3992.98	0.0004544
