Infrared Spectrum: p-Bromobenzoic acid
Formula: C 7 H 5 Br O 2
CAS: 586-76-5
State: gas
Instrument: HP-GC/MS/IRD
Origin: NIST Mass Spectrometry Data Center
1/CM	ABSORBANCE
550	0.0006714
562	0.001386
574	0.001476
586	0.0008028
598	0.0004284
610	0.0002448
622	0.000279
634	0.000297
646	0.0006912
658	0.001692
670	0.0006246
682	0.0008514
694	0.0007794
706	0.000342
718	0.000207
730	0.0002664
742	0.001107
754	0.0027954
766	0.0046926
778	0.0020142
790	0.0004464
802	0.0002376
814	0.0003006
826	0.0004536
838	0.0006336
850	0.000666
862	0.0002196
874	5.76e-05
886	3.6e-06
898	0.0001134
910	9.18e-05
922	0.0001098
934	0.0001026
946	5.4e-05
958	7.74e-05
970	5.76e-05
982	0.0001332
994	0.0003402
1006	0.0021096
1018	0.0031842
1030	0.0005616
1042	0.0005076
1054	0.0010728
1066	0.0045756
1078	0.011331
1090	0.0057888
1102	0.0015894
1114	0.0009702
1126	0.0008154
1138	0.0007614
1150	0.0012618
1162	0.004599
1174	0.0069948
1186	0.004752
1198	0.001593
1210	0.0009972
1222	0.0011592
1234	0.0011826
1246	0.0015246
1258	0.0014634
1270	0.0008892
1282	0.0008658
1294	0.0010494
1306	0.0014562
1318	0.0025506
1330	0.001485
1342	0.0010494
1354	0.0028602
1366	0.0035172
1378	0.0010674
1390	0.0011916
1402	0.0016002
1414	0.0006858
1426	0.000423
1438	0.0002718
1450	0.0001818
1462	0.0002358
1474	0.0005958
1486	0.001458
1498	0.0004086
1510	0.0002034
1522	0.0002232
1534	0.000216
1546	0.0002628
1558	0.0005148
1570	0.0006084
1582	0.0016542
1594	0.0041652
1606	0.0013968
1618	0.0003006
1630	0.0002304
1642	0.0001926
1654	0.000234
1666	0.0002448
1678	0.0002736
1690	0.0003402
1702	0.00054
1714	0.0007128
1726	0.0009324
1738	0.0020286
1750	0.0071172
1762	0.018
1774	0.0078804
1786	0.0018774
1798	0.000666
1810	0.00054
1822	0.0005148
1834	0.000396
1846	0.0002304
1858	0.0001422
1870	0.0001224
1882	0.0001368
1894	0.0001476
1906	0.0001566
1918	0.0002448
1930	0.000225
1942	0.000171
1954	0.0001044
1966	6.12e-05
1978	5.94e-05
1990	3.96e-05
2002	7.56e-05
2014	6.3e-05
2026	4.86e-05
2038	1.98e-05
2050	2.88e-05
2062	3.06e-05
2074	1.8e-05
2086	4.5e-05
2098	6.3e-05
2110	2.16e-05
2122	5.58e-05
2134	1.08e-05
2146	6.66e-05
2158	4.14e-05
2170	3.6e-05
2182	9e-06
2194	1.8e-06
2206	1.08e-05
2218	9e-06
2230	2.52e-05
2242	3.24e-05
2254	1.62e-05
2266	6.48e-05
2278	5.58e-05
2290	5.94e-05
2302	3.24e-05
2314	3.42e-05
2326	3.24e-05
2338	4.86e-05
2350	5.58e-05
2362	8.1e-05
2374	8.1e-05
2386	5.22e-05
2398	4.14e-05
2410	6.66e-05
2422	6.3e-05
2434	7.56e-05
2446	4.86e-05
2458	5.04e-05
2470	0
2482	2.16e-05
2494	5.4e-05
2506	3.6e-05
2518	7.02e-05
2530	7.02e-05
2542	7.92e-05
2554	0.000108
2566	7.74e-05
2578	9.18e-05
2590	5.4e-05
2602	4.86e-05
2614	5.94e-05
2626	5.4e-05
2638	5.04e-05
2650	4.32e-05
2662	3.6e-05
2674	7.2e-06
2686	5.22e-05
2698	5.94e-05
2710	7.2e-05
2722	9e-05
2734	5.58e-05
2746	6.66e-05
2758	8.28e-05
2770	7.92e-05
2782	3.24e-05
2794	3.6e-05
2806	5.4e-05
2818	4.5e-05
2830	7.56e-05
2842	4.32e-05
2854	8.1e-05
2866	5.94e-05
2878	2.34e-05
2890	5.04e-05
2902	6.66e-05
2914	9e-06
2926	3.06e-05
2938	8.82e-05
2950	5.76e-05
2962	5.4e-05
2974	9e-05
2986	0.0001008
2998	5.76e-05
3010	6.48e-05
3022	0.0001152
3034	8.28e-05
3046	7.92e-05
3058	8.82e-05
3070	0.0001044
3082	0.000198
3094	0.0001656
3106	0.0001188
3118	9.72e-05
3130	0.0001008
3142	4.14e-05
3154	9e-05
3166	0
3178	5.76e-05
3190	0.0001044
3202	8.1e-05
3214	5.04e-05
3226	7.02e-05
3238	0.0001152
3250	3.6e-05
3262	3.96e-05
3274	3.96e-05
3286	4.86e-05
3298	0.000126
3310	0.0001044
3322	6.48e-05
3334	0.000117
3346	0.0001026
3358	0.0001206
3370	8.82e-05
3382	0.0001332
3394	3.6e-05
3406	0.000117
3418	7.92e-05
3430	7.74e-05
3442	0.0001314
3454	0.0001026
3466	8.1e-05
3478	0.0001008
3490	0.0001926
3502	0.000297
3514	0.0002214
3526	0.0002052
3538	0.0001404
3550	0.0001818
3562	0.000558
3574	0.002871
3586	0.006093
3598	0.0009468
3610	0.0002304
3622	0.00018
3634	8.1e-05
3646	0.0001404
3658	0.0001152
3670	0.0001656
3682	9.36e-05
3694	0.0001404
3706	0.0001224
3718	0.000135
3730	0.0001044
3742	0.0001134
3754	0.0001098
3766	4.14e-05
3778	0.0001026
3790	5.04e-05
3802	9e-05
3814	5.76e-05
3826	0.0001314
3838	0.0001206
