Infrared Spectrum: Nitrosobenzene
Formula: C 6 H 5 N O
CAS: 586-96-9
State: gas
Instrument: HP-GC/MS/IRD
Origin: NIST Mass Spectrometry Data Center
1/CM	ABSORBANCE
550	0.0004797
562	0.0002457
574	0.0001677
586	4.29e-05
598	0.0001131
610	7.41e-05
622	0.0002847
634	0.0005811
646	0.0015288
658	0.004173
670	0.0066768
682	0.0097968
694	0.00663
706	0.0050505
718	0.0046215
730	0.0083265
742	0.0137787
754	0.0145821
766	0.0113334
778	0.0070824
790	0.006669
802	0.0094458
814	0.0102024
826	0.0054912
838	0.0035139
850	0.0030108
862	0.0017667
874	0.001014
886	0.0008229
898	0.000897
910	0.0014508
922	0.0017979
934	0.0015678
946	0.000975
958	0.0003978
970	0.000351
982	0.0005889
994	0.0009945
1006	0.0023361
1018	0.0025662
1030	0.0017121
1042	0.0010374
1054	0.0018837
1066	0.0028665
1078	0.0057408
1090	0.0162552
1102	0.0311727
1114	0.0296361
1126	0.0103818
1138	0.0033306
1150	0.0021645
1162	0.0028353
1174	0.0026325
1186	0.0012831
1198	9.75e-05
1210	2.34e-05
1222	0.0001014
1234	0.0003978
1246	0.0006981
1258	0.0009711
1270	0.0013338
1282	0.0015522
1294	0.0022737
1306	0.0042432
1318	0.0041145
1330	0.0014547
1342	0.0007254
1354	0.0006006
1366	0.0004797
1378	0.000507
1390	0.0004953
1402	0.0004797
1414	0.0007527
1426	0.0020163
1438	0.0077649
1450	0.0138099
1462	0.0137904
1474	0.0057291
1486	0.0034944
1498	0.0087087
1510	0.0354159
1522	0.0378846
1534	0.0149643
1546	0.0021255
1558	0.0010257
1570	0.0008853
1582	0.0010179
1594	0.0012402
1606	0.0013026
1618	0.0010725
1630	0.0006552
1642	0.000351
1654	0.0002574
1666	0.0004368
1678	0.0005421
1690	0.0004992
1702	0.00039
1714	0.0002964
1726	0.0002535
1738	0.0002847
1750	0.0004212
1762	0.0005382
1774	0.0005421
1786	0.0005967
1798	0.0008112
1810	0.00078
1822	0.000429
1834	0.0002457
1846	0.0001716
1858	0.0001911
1870	0.0003354
1882	0.0005694
1894	0.0008346
1906	0.0010647
1918	0.0008619
1930	0.000585
1942	0.0006279
1954	0.0008034
1966	0.0008541
1978	0.0005109
1990	0.000195
2002	9.36e-05
2014	7.41e-05
2026	6.24e-05
2038	5.85e-05
2050	3.12e-05
2062	7.8e-06
2074	1.95e-05
2086	3.51e-05
2098	4.29e-05
2110	6.24e-05
2122	3.9e-05
2134	1.95e-05
2146	1.95e-05
2158	4.29e-05
2170	6.24e-05
2182	0.0001248
2194	0.0001833
2206	0.0002496
2218	0.0001872
2230	0.0001248
2242	0.0001287
2254	0.0001287
2266	0.0001677
2278	0.0001287
2290	0.0001248
2302	0.0001794
2314	0.0003471
2326	0.0003939
2338	0.0002769
2350	0.0001443
2362	0.0001911
2374	0.000156
2386	0.0001092
2398	9.75e-05
2410	0.0001248
2422	9.36e-05
2434	8.97e-05
2446	6.63e-05
2458	6.24e-05
2470	4.29e-05
2482	5.46e-05
2494	1.95e-05
2506	3.12e-05
2518	3.9e-05
2530	5.07e-05
2542	1.17e-05
2554	2.73e-05
2566	1.95e-05
2578	8.58e-05
2590	0.0001482
2602	0.0001404
2614	0.0002028
2626	0.0001599
2638	0.0001287
2650	0.000117
2662	8.97e-05
2674	0.0001872
2686	0.0002496
2698	0.0002691
2710	0.0002223
2722	8.58e-05
2734	0.0001131
2746	0.0001404
2758	0.0001482
2770	0.000117
2782	8.97e-05
2794	8.19e-05
2806	5.85e-05
2818	7.8e-05
2830	4.68e-05
2842	9.75e-05
2854	0.0001326
2866	0.0001677
2878	0.0002301
2890	0.0003042
2902	0.0003783
2914	0.0003198
2926	0.0003705
2938	0.0004134
2950	0.0006669
2962	0.0007566
2974	0.0005538
2986	0.000429
2998	0.0005109
3010	0.0008385
3022	0.001287
3034	0.0017355
3046	0.0026676
3058	0.0049023
3070	0.0082602
3082	0.0080769
3094	0.0043056
3106	0.0017784
3118	0.0007683
3130	0.0003471
3142	0.0002418
3154	0.0001911
3166	0.0001794
3178	0.0002067
3190	0.0001872
3202	0.0001326
3214	0.0001092
3226	7.8e-05
3238	7.41e-05
3250	7.41e-05
3262	8.97e-05
3274	2.34e-05
3286	7.41e-05
3298	6.24e-05
3310	0.0001131
3322	3.12e-05
3334	7.41e-05
3346	5.85e-05
3358	2.34e-05
3370	5.07e-05
3382	9.75e-05
3394	7.41e-05
3406	0.0001092
3418	5.85e-05
3430	7.41e-05
3442	8.19e-05
3454	0.0001014
3466	8.19e-05
3478	0.0001014
3490	0.000156
3502	3.12e-05
3514	7.02e-05
3526	5.85e-05
3538	3.9e-06
3550	0.0001092
3562	9.36e-05
3574	6.24e-05
3586	5.85e-05
3598	7.8e-05
3610	0.0001287
3622	0.000117
3634	9.36e-05
3646	9.36e-05
3658	0.000117
3670	0.0001599
3682	0.0001482
3694	0.0001989
3706	0.0001755
3718	0.000156
3730	0.0001677
3742	0.0001638
3754	0.0001209
3766	9.36e-05
3778	0.0001482
3790	0.0001365
3802	0.0001287
3814	6.63e-05
3826	0.0001677
3838	0.0001248
