Infrared Spectrum: 2-Carbamoylnicotinic acid
Formula: C7 H6 N2 O3
CAS: 5860-70-8
State: SOLID (SPLIT MULL), FLUOROLUBE FOR 3800-1330 CM^-^1, NUJOL FOR 1330-460 CM^-^1
Class: COBLENTZ III
Instrument: DOW KBr FOREPRISM-GRATING
Instrument parameters: BLAZED AT 3.5, 12.0, 20.0 MICRON AND CHANGED AT 5.0, 7.5, 14.9 MICRON
Sampling: TRANSMISSION
Resolution: 2
Origin: DOW CHEMICAL COMPANY
1/CM	TRANSMITTANCE
3788	0.6601
3779	0.6631
3770	0.6665
3761	0.6701
3752	0.6734
3743	0.6761
3734	0.6788
3725	0.6814
3716	0.684
3707	0.6865
3698	0.689
3689	0.691
3680	0.6928
3671	0.6946
3662	0.6964
3653	0.6982
3644	0.7
3635	0.7017
3626	0.7028
3617	0.7039
3608	0.7045
3599	0.7048
3590	0.7051
3581	0.7061
3572	0.7074
3563	0.7087
3554	0.7101
3545	0.7118
3536	0.7136
3527	0.7156
3518	0.7176
3509	0.7201
3500	0.7225
3491	0.7245
3482	0.7261
3473	0.7275
3464	0.7289
3455	0.7297
3446	0.7294
3437	0.7198
3428	0.6908
3419	0.6593
3410	0.6292
3401	0.5598
3392	0.4965
3383	0.3794
3374	0.2611
3365	0.304
3356	0.398
3347	0.4736
3338	0.5206
3329	0.5618
3320	0.5773
3311	0.5828
3302	0.5923
3293	0.6049
3284	0.6194
3275	0.6346
3266	0.6445
3257	0.6489
3248	0.6493
3239	0.6368
3230	0.6156
3221	0.5884
3212	0.558
3203	0.5133
3194	0.4794
3185	0.4214
3176	0.3966
3167	0.4458
3158	0.4906
3149	0.5168
3140	0.5353
3131	0.5467
3122	0.549
3113	0.5238
3104	0.3922
3095	0.4212
3086	0.4421
3077	0.4764
3068	0.4966
3059	0.5042
3050	0.5055
3041	0.5037
3032	0.4907
3023	0.4812
3014	0.4791
3005	0.4821
2996	0.4832
2987	0.4816
2978	0.4778
2969	0.4745
2960	0.472
2951	0.471
2942	0.47
2933	0.4693
2924	0.4701
2915	0.4765
2906	0.4795
2897	0.4799
2888	0.4812
2879	0.4847
2870	0.4889
2861	0.4945
2852	0.502
2843	0.511
2834	0.5203
2825	0.5243
2816	0.5248
2807	0.5259
2798	0.5279
2789	0.5307
2780	0.535
2771	0.5426
2762	0.5541
2753	0.5665
2744	0.5821
2735	0.5981
2726	0.6137
2717	0.6267
2708	0.6338
2699	0.637
2690	0.6399
2681	0.6422
2672	0.6441
2663	0.6448
2654	0.6431
2645	0.6358
2636	0.6294
2627	0.6221
2618	0.6192
2609	0.6164
2600	0.6194
2591	0.6252
2582	0.6315
2573	0.6382
2564	0.6403
2555	0.6353
2546	0.6266
2537	0.6185
2528	0.611
2519	0.6039
2510	0.5988
2501	0.5951
2492	0.5925
2483	0.5912
2474	0.5914
2465	0.5927
2456	0.5953
2447	0.598
2438	0.6007
2429	0.604
2420	0.6074
2411	0.6107
2402	0.6145
2393	0.6191
2384	0.6238
2375	0.6287
2366	0.6341
2357	0.6395
2348	0.6451
2339	0.6515
2330	0.6581
2321	0.6646
2312	0.6708
2303	0.6771
2294	0.6834
2285	0.6896
2276	0.6961
2267	0.7028
2258	0.7095
2249	0.7165
2240	0.7238
2231	0.731
2222	0.738
2213	0.7448
2204	0.7515
2195	0.7594
2186	0.7672
2177	0.7745
2168	0.7811
2159	0.7848
2150	0.7867
2141	0.7858
2132	0.7845
2123	0.7843
2114	0.7858
2105	0.7875
2096	0.7905
2087	0.798
2078	0.8068
2069	0.8128
2060	0.8139
2051	0.8125
2042	0.8088
2033	0.8034
2024	0.7969
2015	0.7908
2006	0.7848
1997	0.7741
1988	0.7742
1979	0.7696
1970	0.7649
1961	0.7556
1952	0.7439
1943	0.7325
1934	0.7208
1925	0.7092
1916	0.6978
1907	0.6865
1898	0.6794
1889	0.6768
1880	0.6792
1871	0.6825
1862	0.6871
1853	0.6914
1844	0.6997
1835	0.7071
1826	0.711
1817	0.7175
1808	0.7222
1799	0.7299
1790	0.741
1781	0.75
1772	0.7545
1763	0.7471
1754	0.7182
1745	0.6681
1736	0.6039
1727	0.5224
1718	0.4409
1709	0.3823
1700	0.395
1691	0.381
1682	0.2738
1673	0.1663
1664	0.1618
1655	0.3074
1646	0.455
1637	0.4647
1628	0.3844
1619	0.355
1610	0.3432
1601	0.2463
1592	0.1719
1583	0.1669
1574	0.2609
1565	0.3756
1556	0.4004
1547	0.3939
1538	0.3754
1529	0.355
1520	0.3358
1511	0.3234
1502	0.3153
1493	0.2982
1484	0.2817
1475	0.2639
1466	0.2809
1457	0.298
1448	0.3596
1439	0.3545
1430	0.3155
1421	0.2928
1412	0.2964
1403	0.2959
1394	0.277
1385	0.3089
1376	0.2784
1367	0.1752
1358	0.2548
1349	0.3759
1340	0.4562
1331	0.5034
1322	0.4435
1313	0.281
1304	0.2408
1295	0.1576
1286	0.1421
1277	0.2258
1268	0.2796
1259	0.3373
1250	0.3837
1241	0.4092
1232	0.4517
1223	0.5436
1214	0.6023
1205	0.5967
1196	0.569
1187	0.4853
1178	0.3658
1169	0.4026
1160	0.4951
1151	0.546
1142	0.4027
1133	0.3185
1124	0.3628
1115	0.4644
1106	0.4649
1097	0.3552
1088	0.2062
1079	0.3309
1070	0.3375
1061	0.2717
1052	0.2874
1043	0.2754
1034	0.2828
1025	0.2965
1016	0.2827
1007	0.2831
998	0.358
989	0.4134
980	0.4458
971	0.4351
962	0.4659
953	0.5048
944	0.5556
935	0.6062
926	0.6656
917	0.7147
908	0.75
899	0.7731
890	0.7885
881	0.7996
872	0.7889
863	0.6788
854	0.4321
845	0.5381
836	0.7668
827	0.5973
818	0.7162
809	0.6839
800	0.4528
791	0.274
782	0.279
773	0.3922
764	0.3326
755	0.6761
746	0.7421
737	0.7739
728	0.7654
719	0.7762
710	0.7661
701	0.823
692	0.8252
683	0.7593
674	0.6739
665	0.6433
656	0.4171
647	0.3057
638	0.5124
629	0.5509
620	0.5395
611	0.5822
602	0.4875
593	0.4319
584	0.5426
575	0.6087
566	0.7069
557	0.6443
548	0.803
539	0.8221
530	0.7349
521	0.6991
512	0.7451
503	0.7862
494	0.8218
485	0.8478
476	0.8628
467	0.8439
458	0.8371
