Infrared Spectrum: 2-AMINO-2,4,4-TRIMETHYL PENTANE HYDROCHLORIDE
Formula: C8 H19 N  * H Cl
CAS: 58618-91-0
State: SOLID (0.5% KBr PELLET)
Class: COBLENTZ
Instrument: Not specified, most likely a grating spectrometer.
Sampling: TRANSMISSION
Resolution: 4
Origin: STANDARD OIL OF OHIO
MICROMETERS	TRANSMITTANCE
2.041	0.776
2.07478	0.776
2.10857	0.778
2.14235	0.774
2.17613	0.774
2.20992	0.776
2.2437	0.771
2.27748	0.761
2.31127	0.764
2.34505	0.774
2.37883	0.773
2.41262	0.773
2.4464	0.78
2.48018	0.786
2.51397	0.791
2.54775	0.791
2.58153	0.8
2.61532	0.802
2.6491	0.802
2.68288	0.795
2.71667	0.759
2.75045	0.678
2.78423	0.57
2.81802	0.495
2.8518	0.433
2.88558	0.416
2.91937	0.419
2.95315	0.438
2.98693	0.478
3.02071	0.516
3.0545	0.505
3.08828	0.421
3.12206	0.351
3.15585	0.275
3.18963	0.116
3.22341	0.086
3.2572	0.067
3.29098	0.027
3.32476	0.008
3.35855	0.006
3.39233	0.006
3.42611	0.008
3.4599	0.027
3.49368	0.104
3.52746	0.275
3.56125	0.345
3.59503	0.394
3.62881	0.521
3.6626	0.649
3.69638	0.67
3.73016	0.6
3.76395	0.62
3.79773	0.688
3.83151	0.685
3.8653	0.539
3.89908	0.536
3.93286	0.653
3.96665	0.636
4.00043	0.663
4.03421	0.73
4.068	0.78
4.10178	0.798
4.13556	0.807
4.16935	0.834
4.20313	0.84
4.23691	0.844
4.2707	0.851
4.30448	0.852
4.33826	0.852
4.37205	0.854
4.40583	0.854
4.43961	0.857
4.4734	0.859
4.50718	0.861
4.54096	0.861
4.57475	0.856
4.60853	0.846
4.64231	0.835
4.6761	0.844
4.70988	0.849
4.74366	0.84
4.77745	0.83
4.81123	0.827
4.84501	0.81
4.8788	0.781
4.91258	0.766
4.94636	0.712
4.98014	0.578
5.01393	0.544
5.04771	0.658
5.08149	0.712
5.11528	0.773
5.14906	0.802
5.18284	0.818
5.21663	0.837
5.25041	0.839
5.28419	0.847
5.31798	0.851
5.35176	0.861
5.38554	0.864
5.41933	0.873
5.45311	0.873
5.48689	0.871
5.52068	0.874
5.55446	0.874
5.58824	0.874
5.62203	0.873
5.65581	0.864
5.68959	0.856
5.72338	0.857
5.75716	0.852
5.79094	0.851
5.82473	0.851
5.85851	0.846
5.89229	0.813
5.92608	0.786
5.95986	0.763
5.99364	0.742
6.02743	0.734
6.06121	0.719
6.09499	0.71
6.12878	0.697
6.16256	0.604
6.19634	0.272
6.23013	0.121
6.26391	0.424
6.29769	0.637
6.33148	0.725
6.36526	0.739
6.39904	0.739
6.43283	0.732
6.46661	0.732
6.50039	0.724
6.53418	0.705
6.56796	0.597
6.60174	0.394
6.63553	0.111
6.66931	0.328
6.70309	0.362
6.73688	0.389
6.77066	0.468
6.80444	0.519
6.83822	0.612
6.87201	0.57
6.90579	0.609
6.93957	0.656
6.97336	0.703
7.00714	0.783
7.04092	0.788
7.07471	0.693
7.10849	0.578
7.14227	0.456
7.17606	0.379
7.20984	0.6
7.24362	0.304
7.27741	0.439
7.31119	0.329
7.34497	0.648
7.37876	0.758
7.41254	0.773
7.44632	0.781
7.48011	0.824
7.51389	0.847
7.54767	0.844
7.58146	0.84
7.61524	0.834
7.64902	0.822
7.68281	0.808
7.71659	0.727
7.75037	0.558
7.78416	0.5
7.81794	0.659
7.85172	0.724
7.88551	0.708
7.91929	0.588
7.95307	0.595
7.98686	0.673
8.02064	0.69
8.05442	0.675
8.08821	0.69
8.12199	0.571
8.15577	0.296
8.18956	0.335
8.22334	0.639
8.25712	0.732
8.29091	0.763
8.32469	0.791
8.35847	0.805
8.39226	0.773
8.42604	0.756
8.45982	0.805
8.49361	0.82
8.52739	0.832
8.56117	0.837
8.59496	0.832
8.62874	0.803
8.66252	0.773
8.6963	0.746
8.73009	0.67
8.76387	0.571
8.79765	0.707
8.83144	0.781
8.86522	0.822
8.899	0.844
8.93279	0.851
8.96657	0.854
9.00035	0.861
9.03414	0.876
9.06792	0.883
9.1017	0.886
9.13549	0.888
9.16927	0.893
9.20305	0.896
9.23684	0.896
9.27062	0.866
9.3044	0.844
9.33819	0.852
9.37197	0.878
9.40575	0.886
9.43954	0.876
9.47332	0.874
9.5071	0.883
9.54089	0.895
9.57467	0.901
9.60845	0.903
9.64224	0.903
9.67602	0.901
9.7098	0.891
9.74359	0.886
9.77737	0.881
9.81115	0.873
9.84494	0.878
9.87872	0.883
9.9125	0.886
9.94629	0.884
9.98007	0.859
10.0139	0.852
10.0476	0.866
10.0814	0.881
10.1152	0.884
10.149	0.883
10.1828	0.864
10.2166	0.839
10.2503	0.802
10.2841	0.81
10.3179	0.852
10.3517	0.873
10.3855	0.888
10.4193	0.9
10.453	0.901
10.4868	0.893
10.5206	0.871
10.5544	0.859
10.5882	0.862
10.622	0.876
10.6557	0.879
10.6895	0.869
10.7233	0.835
10.7571	0.754
10.7909	0.768
10.8247	0.813
10.8584	0.852
10.8922	0.812
10.926	0.746
10.9598	0.752
10.9936	0.813
11.0274	0.869
11.0611	0.884
11.0949	0.895
11.1287	0.9
11.1625	0.903
11.1963	0.903
11.2301	0.903
11.2638	0.901
11.2976	0.903
11.3314	0.901
11.3652	0.89
11.399	0.883
11.4328	0.886
11.4665	0.891
11.5003	0.895
11.5341	0.9
11.5679	0.901
11.6017	0.895
11.6354	0.893
11.6692	0.893
11.703	0.891
11.7368	0.891
11.7706	0.89
11.8044	0.888
11.8381	0.884
11.8719	0.883
11.9057	0.881
11.9395	0.879
11.9733	0.879
12.0071	0.881
12.0408	0.879
12.0746	0.883
12.1084	0.881
12.1422	0.879
12.176	0.878
12.2098	0.878
12.2435	0.878
12.2773	0.876
12.3111	0.874
12.3449	0.874
12.3787	0.871
12.4125	0.871
12.4462	0.871
12.48	0.869
12.5138	0.866
12.5476	0.857
12.5814	0.854
12.6152	0.852
12.6489	0.851
12.6827	0.849
12.7165	0.849
12.7503	0.849
12.7841	0.846
12.8179	0.844
12.8516	0.842
12.8854	0.84
12.9192	0.84
12.953	0.839
12.9868	0.84
13.0206	0.839
13.0543	0.832
13.0881	0.834
13.1219	0.835
13.1557	0.837
13.1895	0.84
13.2233	0.842
13.257	0.842
13.2908	0.842
13.3246	0.844
13.3584	0.842
13.3922	0.842
13.426	0.842
13.4597	0.842
13.4935	0.842
13.5273	0.844
13.5611	0.842
13.5949	0.84
13.6287	0.844
13.6624	0.84
13.6962	0.839
13.73	0.839
13.7638	0.84
13.7976	0.84
13.8314	0.842
13.8651	0.844
13.8989	0.844
13.9327	0.844
13.9665	0.842
14.0003	0.842
14.0341	0.84
14.0678	0.84
14.1016	0.84
14.1354	0.84
14.1692	0.842
14.203	0.842
14.2368	0.84
14.2705	0.842
14.3043	0.84
14.3381	0.84
14.3719	0.84
14.4057	0.842
14.4395	0.84
14.4732	0.84
14.507	0.84
14.5408	0.839
14.5746	0.837
14.6084	0.834
14.6422	0.832
14.6759	0.832
14.7097	0.832
14.7435	0.832
14.7773	0.832
14.8111	0.835
14.8449	0.837
14.8786	0.837
14.9124	0.835
14.9462	0.832
14.98	0.829
15.0138	0.829
15.0476	0.83
15.0813	0.83
15.1151	0.834
15.1489	0.834
15.1827	0.832
15.2165	0.829
15.2503	0.824
15.284	0.825
