Infrared Spectrum: Acetic acid, 2-mercaptoethyl ester
Formula: C4 H8 O2 S
CAS: 5862-40-8
State: SOLUTION (10% CCl4 FOR 3800-1330, 10% CS2 FOR 1330-400 CM^-^1)
Boiling point: 57 C AT 10 mmHg
Class: COBLENTZ III
Instrument: DOW KBr FOREPRISM-GRATING
Instrument parameters: BLAZED AT 3.5, 12.0, 20.0 MICRON AND CHANGED AT 5.0, 7.5, 14.9 MICRON
Sampling: TRANSMISSION
Path length: 0.012 CM, 0.011 CM
Resolution: 2
Origin: DOW CHEMICAL COMPANY
1/CM	TRANSMITTANCE
3800	0.9265
3791	0.928
3782	0.927
3773	0.9285
3764	0.9287
3755	0.9288
3746	0.9284
3737	0.9284
3728	0.9268
3719	0.9234
3710	0.9234
3701	0.9202
3692	0.9066
3683	0.8996
3674	0.9006
3665	0.9056
3656	0.9058
3647	0.905
3638	0.9043
3629	0.9041
3620	0.9053
3611	0.9054
3602	0.9052
3593	0.9056
3584	0.9017
3575	0.8954
3566	0.8903
3557	0.8865
3548	0.8848
3539	0.8815
3530	0.8797
3521	0.8768
3512	0.8777
3503	0.8788
3494	0.8784
3485	0.8613
3476	0.8366
3467	0.8315
3458	0.8364
3449	0.8486
3440	0.8602
3431	0.8696
3422	0.877
3413	0.8815
3404	0.8857
3395	0.8876
3386	0.8889
3377	0.8897
3368	0.8899
3359	0.8898
3350	0.8897
3341	0.8891
3332	0.8883
3323	0.8877
3314	0.8873
3305	0.8882
3296	0.8866
3287	0.8861
3278	0.8865
3269	0.8865
3260	0.886
3251	0.8859
3242	0.8858
3233	0.8857
3224	0.8854
3215	0.8851
3206	0.8836
3197	0.8846
3188	0.8852
3179	0.8842
3170	0.8844
3161	0.8852
3152	0.8858
3143	0.8843
3134	0.885
3125	0.8832
3116	0.8811
3107	0.8796
3098	0.8793
3089	0.8781
3080	0.8731
3071	0.8711
3062	0.8644
3053	0.8575
3044	0.853
3035	0.8442
3026	0.8229
3017	0.8121
3008	0.7927
2999	0.7507
2990	0.6915
2981	0.6329
2972	0.6196
2963	0.5126
2954	0.4988
2945	0.4755
2936	0.5644
2927	0.7083
2918	0.7774
2909	0.7887
2900	0.7899
2891	0.7289
2882	0.7454
2873	0.7941
2864	0.8224
2855	0.8332
2846	0.8374
2837	0.8464
2828	0.8528
2819	0.8553
2810	0.8633
2801	0.8741
2792	0.8803
2783	0.8832
2774	0.8861
2765	0.8875
2756	0.8872
2747	0.887
2738	0.8857
2729	0.8828
2720	0.8796
2711	0.8808
2702	0.8849
2693	0.8875
2684	0.8875
2675	0.8849
2666	0.8861
2657	0.8885
2648	0.889
2639	0.8889
2630	0.8891
2621	0.8892
2612	0.8871
2603	0.8808
2594	0.8729
2585	0.8629
2576	0.8539
2567	0.8549
2558	0.8671
2549	0.8748
2540	0.8804
2531	0.8845
2522	0.8881
2513	0.8909
2504	0.8924
2495	0.8915
2486	0.8891
2477	0.8882
2468	0.8864
2459	0.8845
2450	0.883
2441	0.8853
2432	0.8889
2423	0.8924
2414	0.894
2405	0.8962
2396	0.8975
2387	0.9004
2378	0.9193
2369	0.9255
2360	0.9279
2351	0.9294
2342	0.9243
2333	0.9192
2324	0.9161
2315	0.9016
2306	0.8995
2297	0.8992
2288	0.8926
2279	0.8944
2270	0.894
2261	0.8938
2252	0.8929
2243	0.8916
2234	0.8915
2225	0.8921
2216	0.8909
2207	0.8923
2198	0.895
2189	0.8948
2180	0.8951
2171	0.8957
2162	0.8922
2153	0.8897
2144	0.887
2135	0.8836
2126	0.8806
2117	0.8777
2108	0.8746
2099	0.8738
2090	0.8746
2081	0.8729
2072	0.8675
2063	0.8662
2054	0.8694
2045	0.8723
2036	0.8764
2027	0.8774
2018	0.8754
2009	0.8716
2000	0.8674
1991	0.8516
1982	0.857
1973	0.858
1964	0.8591
1955	0.8654
1946	0.8565
1937	0.8569
1928	0.8572
1919	0.8575
1910	0.8575
1901	0.8584
1892	0.8558
1883	0.8448
1874	0.8348
1865	0.831
1856	0.8265
1847	0.8217
1838	0.818
1829	0.8082
1820	0.7925
1811	0.7725
1802	0.7479
1793	0.7222
1784	0.6733
1775	0.5301
1766	0.3189
1757	0.0812
1748	0.0026
1739	0.0011
1730	0.0222
1721	0.2502
1712	0.4339
1703	0.4754
1694	0.5495
1685	0.6714
1676	0.7265
1667	0.7582
1658	0.7667
1649	0.7609
1640	0.7725
1631	0.801
1622	0.8081
1613	0.814
1604	0.8264
1595	0.8035
1586	0.763
1577	0.7532
1568	0.7466
1559	0.7089
1550	0.6888
1541	0.6818
1532	0.6988
1523	0.7139
1514	0.7257
1505	0.7233
1496	0.725
1487	0.7295
1478	0.7166
1469	0.594
1460	0.4635
1451	0.4123
1442	0.4554
1433	0.4671
1424	0.4591
1415	0.5405
1406	0.6123
1397	0.5649
1388	0.2022
1379	0.1446
1370	0.3258
1361	0.1095
1352	0.5552
1343	0.7216
1334	0.7455
1325	0.7355
1316	0.6824
1307	0.4963
1298	0.3336
1289	0.3953
1280	0.4626
1271	0.3805
1262	0.1423
1253	0.0622
1244	0.0133
1235	0.0067
1226	0.0048
1217	0.0095
1208	0.097
1199	0.2755
1190	0.5192
1181	0.6208
1172	0.7074
1163	0.7646
1154	0.7856
1145	0.7963
1136	0.8064
1127	0.8086
1118	0.8064
1109	0.7901
1100	0.7526
1091	0.6679
1082	0.4553
1073	0.3401
1064	0.2654
1055	0.207
1046	0.1204
1037	0.0655
1028	0.0824
1019	0.2736
1010	0.4992
1001	0.6078
992	0.666
983	0.6879
974	0.5444
965	0.6855
956	0.7709
947	0.7587
938	0.6775
929	0.7919
920	0.8023
911	0.7943
902	0.7656
893	0.7999
884	0.8109
875	0.7527
866	0.763
857	0.7824
848	0.7697
839	0.7688
830	0.7962
821	0.8625
812	0.8946
803	0.9043
794	0.905
785	0.897
776	0.8748
767	0.8492
758	0.8228
749	0.8367
740	0.8629
731	0.8815
722	0.8601
713	0.905
704	0.936
695	0.9461
686	0.9473
677	0.9142
668	0.8497
659	0.8819
650	0.866
641	0.7782
632	0.6871
623	0.8548
614	0.8421
605	0.5638
596	0.8338
587	0.8973
578	0.9167
569	0.9185
560	0.9165
551	0.9113
542	0.9063
533	0.9051
524	0.9034
515	0.8997
506	0.8947
497	0.887
488	0.8764
479	0.8437
470	0.6509
461	0.7422
452	0.7917
443	0.7893
434	0.7679
425	0.683
416	0.5128
407	0.2927
398	0.2337
389	0.1969
