Infrared Spectrum: Pyridine, 2-(allylamino)-
Formula: C8 H10 N2
CAS: 5866-28-4
State: LIQUID (NEAT)
Class: COBLENTZ III
Instrument: BECKMAN IR-9 (GRATING)
Instrument parameters: ORDER CHANGES: 670, 1200, 2000 CM^-^1
Sampling: TRANSMISSION
Path length: CAPILLARY
Resolution: 2
Origin: DOW CHEMICAL COMPANY
1/CM	TRANSMITTANCE
403	0.5415
412	0.4013
421	0.349
430	0.3371
439	0.343
448	0.3937
457	0.4244
466	0.4364
475	0.4388
484	0.4453
493	0.4558
502	0.4525
511	0.3973
520	0.3145
529	0.3572
538	0.4147
547	0.4391
556	0.4415
565	0.4657
574	0.457
583	0.4461
592	0.4485
601	0.4489
610	0.4428
619	0.4215
628	0.3967
637	0.4239
646	0.4264
655	0.4196
664	0.4177
673	0.4183
682	0.422
691	0.428
700	0.4267
709	0.4251
718	0.4229
727	0.3757
736	0.2055
745	0.3078
754	0.3796
763	0.2347
772	0.0627
781	0.1233
790	0.3159
799	0.4518
808	0.5155
817	0.5452
826	0.5524
835	0.5514
844	0.5229
853	0.5229
862	0.5341
871	0.5826
880	0.631
889	0.6374
898	0.634
907	0.533
916	0.4142
925	0.3989
934	0.485
943	0.5855
952	0.5899
961	0.5801
970	0.5592
979	0.4252
988	0.3213
997	0.4019
1006	0.5383
1015	0.621
1024	0.5972
1033	0.5873
1042	0.5181
1051	0.5008
1060	0.5721
1069	0.5746
1078	0.5265
1087	0.5053
1096	0.573
1105	0.6015
1114	0.5867
1123	0.5435
1132	0.5267
1141	0.4759
1150	0.2136
1159	0.346
1168	0.5199
1177	0.5755
1186	0.5832
1195	0.6288
1204	0.643
1213	0.6448
1222	0.6352
1231	0.5853
1240	0.5118
1249	0.4425
1258	0.3953
1267	0.3707
1276	0.3198
1285	0.2825
1294	0.2353
1303	0.3822
1312	0.2948
1321	0.1665
1330	0.2033
1339	0.3321
1348	0.4507
1357	0.4937
1366	0.523
1375	0.557
1384	0.549
1393	0.5222
1402	0.4831
1411	0.3497
1420	0.2604
1429	0.2585
1438	0.077
1447	0.0829
1456	0.1756
1465	0.2397
1474	0.2119
1483	0.0638
1492	0.0733
1501	0.1004
1510	0.1053
1519	0.1093
1528	0.1828
1537	0.2333
1546	0.3165
1555	0.2743
1564	0.1428
1573	0.1053
1582	0.2003
1591	0.0976
1600	0.0593
1609	0.0601
1618	0.0679
1627	0.0829
1636	0.1087
1645	0.1339
1654	0.2502
1663	0.3691
1672	0.4436
1681	0.4892
1690	0.5348
1699	0.5834
1708	0.6246
1717	0.6734
1726	0.7248
1735	0.7549
1744	0.776
1753	0.7927
1762	0.8049
1771	0.81
1780	0.8126
1789	0.8116
1798	0.8081
1807	0.8027
1816	0.796
1825	0.789
1834	0.7758
1843	0.785
1852	0.7987
1861	0.8099
1870	0.8167
1879	0.8207
1888	0.8166
1897	0.808
1906	0.8016
1915	0.8039
1924	0.8101
1933	0.8101
1942	0.8064
1951	0.8056
1960	0.8072
1969	0.8119
1978	0.8201
1987	0.8285
1996	0.8317
2005	0.8373
2014	0.8422
2023	0.8423
2032	0.8412
2041	0.8386
2050	0.8364
2059	0.8344
2068	0.8326
2077	0.8304
2086	0.8287
2095	0.829
2104	0.8296
2113	0.8305
2122	0.8324
2131	0.833
2140	0.8328
2149	0.8312
2158	0.8293
2167	0.8254
2176	0.8248
2185	0.8256
2194	0.8276
2203	0.8262
2212	0.8072
2221	0.8154
2230	0.8307
2239	0.8351
2248	0.8357
2257	0.8348
2266	0.8332
2275	0.8313
2284	0.8285
2293	0.8249
2302	0.8209
2311	0.8167
2320	0.8128
2329	0.8128
2338	0.8195
2347	0.8284
2356	0.834
2365	0.836
2374	0.8359
2383	0.8344
2392	0.833
2401	0.8307
2410	0.8285
2419	0.826
2428	0.824
2437	0.822
2446	0.8202
2455	0.8184
2464	0.8167
2473	0.8151
2482	0.8136
2491	0.814
2500	0.8152
2509	0.8164
2518	0.8168
2527	0.8165
2536	0.8162
2545	0.8163
2554	0.8172
2563	0.8153
2572	0.8103
2581	0.8042
2590	0.8001
2599	0.7978
2608	0.7993
2617	0.8008
2626	0.7993
2635	0.7956
2644	0.7897
2653	0.7832
2662	0.7773
2671	0.7731
2680	0.7697
2689	0.7669
2698	0.7649
2707	0.7642
2716	0.7639
2725	0.7641
2734	0.7649
2743	0.7599
2752	0.7463
2761	0.7363
2770	0.7326
2779	0.7304
2788	0.7295
2797	0.7289
2806	0.7198
2815	0.7016
2824	0.6756
2833	0.6466
2842	0.6195
2851	0.6009
2860	0.5894
2869	0.5808
2878	0.5756
2887	0.5721
2896	0.5544
2905	0.5343
2914	0.5189
2923	0.5102
2932	0.5133
2941	0.5215
2950	0.5236
2959	0.5107
2968	0.4827
2977	0.4437
2986	0.4474
2995	0.4573
3004	0.4086
3013	0.3531
3022	0.3412
3031	0.3697
3040	0.3897
3049	0.3821
3058	0.3692
3067	0.3553
3076	0.3327
3085	0.3284
3094	0.338
3103	0.3613
3112	0.37
3121	0.3641
3130	0.3455
3139	0.3247
3148	0.3052
3157	0.2846
3166	0.2625
3175	0.2484
3184	0.2395
3193	0.2363
3202	0.2394
3211	0.2474
3220	0.2578
3229	0.2602
3238	0.2616
3247	0.2616
3256	0.2602
3265	0.2565
3274	0.2501
3283	0.2403
3292	0.2274
3301	0.2152
3310	0.2069
3319	0.2058
3328	0.2058
3337	0.2097
3346	0.2161
3355	0.2238
3364	0.233
3373	0.2445
3382	0.2553
3391	0.2661
3400	0.2895
3409	0.3088
3418	0.3188
3427	0.3267
3436	0.3461
3445	0.3694
3454	0.3791
3463	0.3831
3472	0.3881
3481	0.4097
3490	0.4673
3499	0.5399
3508	0.6117
3517	0.6702
3526	0.7019
3535	0.7242
3544	0.7412
3553	0.7523
3562	0.7629
3571	0.7732
3580	0.7831
3589	0.7929
3598	0.7995
3607	0.8045
3616	0.8067
3625	0.8084
3634	0.8098
3643	0.8112
3652	0.8129
3661	0.8153
3670	0.8242
3679	0.8347
3688	0.8438
3697	0.8502
3706	0.8533
3715	0.8552
3724	0.8565
3733	0.8572
3742	0.8576
3751	0.8576
3760	0.857
3769	0.8571
3778	0.8576
3787	0.8571
3796	0.8567
