Infrared Spectrum: DIPHENYL MERCURY
Formula: C12 H10 Hg
CAS: 587-85-9
State: SOLID (MINERAL OIL MULL)
Class: COBLENTZ
Instrument: Not specified, most likely a prism, grating, or hybrid spectrometer.
Sampling: TRANSMISSION
Resolution: 4
Origin: WYANDOTTE CHEMICALS CORP., WYANDOTTE, MICHIGAN, USA
MICROMETERS	TRANSMITTANCE
2.014	0.192
2.05484	0.196
2.09567	0.197
2.13651	0.208
2.17734	0.203
2.21818	0.201
2.25901	0.204
2.29985	0.209
2.34068	0.213
2.38152	0.218
2.42235	0.225
2.46319	0.238
2.50402	0.235
2.54486	0.244
2.58569	0.249
2.62653	0.25
2.66736	0.261
2.7082	0.266
2.74903	0.267
2.78987	0.271
2.8307	0.271
2.87154	0.271
2.91237	0.274
2.95321	0.279
2.99404	0.276
3.03488	0.279
3.07571	0.281
3.11655	0.29
3.15738	0.286
3.19822	0.29
3.23905	0.288
3.27989	0.226
3.32072	0.192
3.36156	0.061
3.40239	0.035
3.44323	0.042
3.48406	0.068
3.5249	0.129
3.56573	0.383
3.60657	0.416
3.6474	0.418
3.68824	0.414
3.72907	0.412
3.76991	0.416
3.81074	0.419
3.85158	0.424
3.89241	0.438
3.93325	0.445
3.97408	0.45
4.01492	0.455
4.05575	0.457
4.09659	0.465
4.13742	0.472
4.17826	0.47
4.21909	0.472
4.25993	0.467
4.30076	0.469
4.3416	0.482
4.38243	0.498
4.42327	0.517
4.4641	0.513
4.50494	0.518
4.54577	0.52
4.58661	0.537
4.62744	0.539
4.66828	0.544
4.70911	0.546
4.74995	0.561
4.79078	0.568
4.83162	0.581
4.87245	0.583
4.91329	0.59
4.95412	0.597
4.99496	0.6
5.03579	0.605
5.07663	0.607
5.11746	0.619
5.1583	0.626
5.19913	0.609
5.23997	0.622
5.2808	0.646
5.32164	0.66
5.36247	0.636
5.40331	0.621
5.44414	0.651
5.48498	0.672
5.52581	0.67
5.56665	0.651
5.60748	0.672
5.64832	0.686
5.68915	0.689
5.72999	0.68
5.77082	0.696
5.81166	0.709
5.8525	0.711
5.89333	0.715
5.93417	0.723
5.975	0.728
6.01584	0.73
6.05667	0.742
6.09751	0.728
6.13834	0.732
6.17918	0.744
6.22001	0.749
6.26085	0.757
6.30168	0.713
6.34252	0.723
6.38335	0.74
6.42419	0.747
6.46502	0.75
6.50586	0.762
6.54669	0.757
6.58753	0.759
6.62836	0.754
6.6692	0.738
6.71003	0.706
6.75087	0.515
6.7917	0.37
6.83254	0.339
6.87337	0.457
6.91421	0.585
6.95504	0.604
6.99588	0.431
7.03671	0.735
7.07755	0.761
7.11838	0.771
7.15922	0.761
7.20005	0.697
7.24089	0.551
7.28172	0.595
7.32256	0.674
7.36339	0.752
7.40423	0.769
7.44506	0.776
7.4859	0.791
7.52673	0.798
7.56757	0.805
7.6084	0.802
7.64924	0.802
7.69007	0.81
7.73091	0.8
7.77174	0.819
7.81258	0.82
7.85341	0.822
7.89425	0.825
7.93508	0.827
7.97592	0.82
8.01675	0.831
8.05759	0.832
8.09842	0.841
8.13926	0.851
8.18009	0.854
8.22093	0.858
8.26176	0.858
8.3026	0.86
8.34343	0.854
8.38427	0.827
8.4251	0.863
8.46594	0.872
8.50677	0.878
8.54761	0.872
8.58844	0.87
8.62928	0.87
8.67011	0.873
8.71095	0.887
8.75178	0.897
8.79262	0.904
8.83345	0.906
8.87429	0.912
8.91512	0.911
8.95596	0.907
8.99679	0.911
9.03763	0.912
9.07846	0.911
9.1193	0.901
9.16013	0.901
9.20097	0.906
9.2418	0.67
9.28264	0.796
9.32347	0.837
9.36431	0.813
9.40514	0.827
9.44598	0.851
9.48681	0.873
9.52765	0.88
9.56848	0.892
9.60932	0.899
9.65016	0.907
9.69099	0.921
9.73183	0.901
9.77266	0.54
9.8135	0.749
9.85433	0.832
9.89517	0.853
9.936	0.866
9.97684	0.885
10.0177	0.807
10.0585	0.759
10.0993	0.848
10.1402	0.865
10.181	0.844
10.2218	0.841
10.2627	0.868
10.3035	0.875
10.3444	0.88
10.3852	0.88
10.426	0.885
10.4669	0.889
10.5077	0.897
10.5485	0.902
10.5894	0.902
10.6302	0.901
10.671	0.901
10.7119	0.897
10.7527	0.897
10.7935	0.897
10.8344	0.897
10.8752	0.901
10.916	0.907
10.9569	0.909
10.9977	0.911
11.0385	0.87
11.0794	0.836
11.1202	0.889
11.1611	0.904
11.2019	0.904
11.2427	0.906
11.2836	0.907
11.3244	0.907
11.3652	0.907
11.4061	0.916
11.4469	0.911
11.4877	0.912
11.5286	0.912
11.5694	0.911
11.6102	0.911
11.6511	0.911
11.6919	0.912
11.7327	0.909
11.7736	0.868
11.8144	0.895
11.8552	0.911
11.8961	0.914
11.9369	0.909
11.9778	0.919
12.0186	0.918
12.0594	0.923
12.1003	0.921
12.1411	0.921
12.1819	0.923
12.2228	0.928
12.2636	0.923
12.3044	0.923
12.3453	0.924
12.3861	0.924
12.4269	0.924
12.4678	0.921
12.5086	0.923
12.5494	0.928
12.5903	0.923
12.6311	0.921
12.6719	0.924
12.7128	0.926
12.7536	0.924
12.7945	0.923
12.8353	0.923
12.8761	0.924
12.917	0.926
12.9578	0.926
12.9986	0.923
13.0395	0.923
13.0803	0.924
13.1211	0.93
13.162	0.93
13.2028	0.928
13.2436	0.923
13.2845	0.912
13.3253	0.901
13.3661	0.887
13.407	0.865
13.4478	0.831
13.4887	0.766
13.5295	0.643
13.5703	0.455
13.6112	0.259
13.652	0.184
13.6928	0.186
13.7337	0.145
13.7745	0.244
13.8153	0.462
13.8562	0.614
13.897	0.687
13.9378	0.745
13.9787	0.798
14.0195	0.844
14.0603	0.856
14.1012	0.865
14.142	0.856
14.1828	0.827
14.2237	0.786
14.2645	0.723
14.3054	0.646
14.3462	0.518
14.387	0.382
14.4279	0.238
14.4687	0.192
14.5095	0.218
14.5504	0.325
14.5912	0.46
14.632	0.559
14.6729	0.617
14.7137	0.653
14.7545	0.679
14.7954	0.689
14.8362	0.692
14.877	0.692
14.9179	0.692
14.9587	0.691
14.9995	0.674
15.0404	0.631
15.0812	0.616
15.1221	0.638
15.1629	0.684
15.2037	0.686
15.2446	0.658
15.2854	0.648
15.3262	0.638
15.3671	0.633
15.4079	0.626
15.4487	0.614
15.4896	0.602
15.5304	0.585
15.5712	0.578
15.6121	0.571
15.6529	0.556
15.6937	0.551
15.7346	0.537
15.7754	0.522
15.8162	0.51
15.8571	0.501
15.8979	0.482
15.9388	0.469
15.9796	0.459
