Infrared Spectrum: 3-Ethylaniline
Formula: C 8 H 11 N
CAS: 587-02-0
State: gas
Instrument: HP-GC/MS/IRD
Origin: NIST Mass Spectrometry Data Center
1/CM	ABSORBANCE
550	0.0010689
562	0.0012369
574	0.0012411
586	0.0012894
598	0.0012999
610	0.0013839
622	0.0015582
634	0.002268
646	0.0040698
658	0.0076272
670	0.0096621
682	0.0086184
694	0.0076566
706	0.0047397
718	0.0029694
730	0.0027237
742	0.0029505
754	0.0040236
766	0.0059073
778	0.0068523
790	0.0042084
802	0.0020601
814	0.0012432
826	0.0011298
838	0.0015372
850	0.0026565
862	0.0030366
874	0.0019635
886	0.0015645
898	0.0025326
910	0.0023079
922	0.0006531
934	0.0002478
946	0.0002562
958	0.0003255
970	0.0004809
982	0.0005859
994	0.0006636
1006	0.0005187
1018	0.0002688
1030	0.0004578
1042	0.0008988
1054	0.0014637
1066	0.0017703
1078	0.0017388
1090	0.0014091
1102	0.0006993
1114	0.0002898
1126	0.0001764
1138	0.0002394
1150	0.0007413
1162	0.0021777
1174	0.0020202
1186	0.0003507
1198	0
1210	3.36e-05
1222	0.0001281
1234	0.0003801
1246	0.0008484
1258	0.0018543
1270	0.0041139
1282	0.0061803
1294	0.0054432
1306	0.0034272
1318	0.0032424
1330	0.002709
1342	0.0013272
1354	0.0004599
1366	0.0003822
1378	0.000567
1390	0.0006468
1402	0.0007056
1414	0.0008379
1426	0.0012894
1438	0.002646
1450	0.0055608
1462	0.0067221
1474	0.005082
1486	0.0056889
1498	0.0057876
1510	0.0030366
1522	0.0016842
1534	0.0014322
1546	0.0016338
1558	0.0021462
1570	0.0036246
1582	0.0074634
1594	0.0136101
1606	0.0180159
1618	0.021
1630	0.0171003
1642	0.0072975
1654	0.0026124
1666	0.0014259
1678	0.0009555
1690	0.0008589
1702	0.0010059
1714	0.0009912
1726	0.0007728
1738	0.0005187
1750	0.0003318
1762	0.0002247
1774	0.000189
1786	0.0001869
1798	0.0002751
1810	0.0004347
1822	0.0004578
1834	0.0003549
1846	0.0002604
1858	0.0001932
1870	0.0002037
1882	0.0002835
1894	0.0004809
1906	0.0006069
1918	0.0004851
1930	0.0002688
1942	0.0002226
1954	0.000231
1966	0.0001911
1978	0.0001827
1990	0.0001764
2002	0.0002184
2014	0.0002184
2026	0.000273
2038	0.0002541
2050	0.0003003
2062	0.000273
2074	0.0002562
2086	0.00021
2098	0.000189
2110	0.0002058
2122	0.0002268
2134	0.0002226
2146	0.0002436
2158	0.0002352
2170	0.0002163
2182	0.0002457
2194	0.00021
2206	0.0001953
2218	0.0001974
2230	0.000189
2242	0.0002268
2254	0.00021
2266	0.0002604
2278	0.0002772
2290	0.0002268
2302	0.0002205
2314	0.0002457
2326	0.0003003
2338	0.0002898
2350	0.0002898
2362	0.0002772
2374	0.0002667
2386	0.0002226
2398	0.0001869
2410	0.0001995
2422	0.0002226
2434	0.0002457
2446	0.0002562
2458	0.0002205
2470	0.0002205
2482	0.000231
2494	0.0002394
2506	0.0002163
2518	0.0001953
2530	0.0002205
2542	0.0002331
2554	0.0002247
2566	0.0002688
2578	0.0002415
2590	0.0002604
2602	0.0002646
2614	0.0002793
2626	0.0002856
2638	0.0002646
2650	0.0002898
2662	0.0002583
2674	0.0002877
2686	0.0002688
2698	0.0002835
2710	0.0003297
2722	0.0003612
2734	0.0004599
2746	0.000483
2758	0.000462
2770	0.0004662
2782	0.0005397
2794	0.0005691
2806	0.0005985
2818	0.0007161
2830	0.0009681
2842	0.0012726
2854	0.0019236
2866	0.0031038
2878	0.0044646
2890	0.0050106
2902	0.0048468
2914	0.0047061
2926	0.0057603
2938	0.0081207
2950	0.0082026
2962	0.0096474
2974	0.0121443
2986	0.0075012
2998	0.0042798
3010	0.0049476
3022	0.0059661
3034	0.0069951
3046	0.0066549
3058	0.0049917
3070	0.0038136
3082	0.0026649
3094	0.0017283
3106	0.0012831
3118	0.0009702
3130	0.0006972
3142	0.0005565
3154	0.0005082
3166	0.0004368
3178	0.0004557
3190	0.0004053
3202	0.0004431
3214	0.0005355
3226	0.0005523
3238	0.0004809
3250	0.0003801
3262	0.000378
3274	0.0002856
3286	0.0002919
3298	0.0002289
3310	0.0002541
3322	0.0001974
3334	0.0002205
3346	0.0002121
3358	0.0003108
3370	0.0003864
3382	0.0006615
3394	0.0012054
3406	0.0016422
3418	0.0014028
3430	0.0009051
3442	0.0005964
3454	0.0005733
3466	0.0007728
3478	0.0013083
3490	0.0015162
3502	0.0012621
3514	0.0008379
3526	0.0004914
3538	0.0003024
3550	0.0002646
3562	0.0002604
3574	0.0002814
3586	0.0002604
3598	0.0002478
3610	0.0002352
3622	0.0002625
3634	0.0002331
3646	0.0002352
3658	0.0002415
3670	0.0002667
3682	0.0002772
3694	0.0002919
3706	0.0002667
3718	0.0003045
3730	0.0003276
3742	0.0003591
3754	0.0003171
3766	0.0003423
3778	0.0003318
3790	0.0002625
3802	0.0003402
3814	0.0002793
3826	0.0003255
3838	0.0003024
