Infrared Spectrum: PYRIDINE ACETIC ACID, 3,5-DIIODO-4-OXO-1(4H)-, PROPYL ESTER
Formula: C10 H11 I2 N O3
CAS: 587-61-1
State: SOLID (SPLIT MULL), FLUOROLUBE FOR 3800-1330 CM^-^1, NUJOL FOR 1330-400 CM^-^1
Melting point: 186 C
Class: COBLENTZ III
Instrument: BECKMAN IR-9 (GRATING)
Instrument parameters: ORDER CHANGES: 670, 1200, 2000 CM^-^1
Sampling: TRANSMISSION
Resolution: 2
Origin: DOW CHEMICAL COMPANY
1/CM	TRANSMITTANCE
400	0.6187
409	0.6017
418	0.615
427	0.6957
436	0.735
445	0.7687
454	0.7993
463	0.8161
472	0.8295
481	0.8393
490	0.8432
499	0.8438
508	0.8444
517	0.8435
526	0.8146
535	0.8605
544	0.8595
553	0.8441
562	0.6324
571	0.8304
580	0.8596
589	0.865
598	0.6174
607	0.8628
616	0.8794
625	0.8896
634	0.8913
643	0.8868
652	0.8818
661	0.8771
670	0.8715
679	0.8845
688	0.886
697	0.8595
706	0.8139
715	0.6309
724	0.5984
733	0.7644
742	0.7889
751	0.3198
760	0.7889
769	0.8188
778	0.8364
787	0.8474
796	0.8524
805	0.8528
814	0.8515
823	0.844
832	0.8025
841	0.8495
850	0.8487
859	0.8439
868	0.8323
877	0.7949
886	0.7815
895	0.6385
904	0.7939
913	0.7831
922	0.7968
931	0.7215
940	0.7714
949	0.6241
958	0.7717
967	0.7332
976	0.7675
985	0.5757
994	0.8075
1003	0.8228
1012	0.8251
1021	0.8239
1030	0.8211
1039	0.8138
1048	0.796
1057	0.729
1066	0.7467
1075	0.7824
1084	0.7378
1093	0.7671
1102	0.7903
1111	0.7871
1120	0.7811
1129	0.7649
1138	0.6771
1147	0.6097
1156	0.7049
1165	0.6989
1174	0.6732
1183	0.6436
1192	0.5844
1201	0.5056
1210	0.3176
1219	0.0718
1228	0.1699
1237	0.2269
1246	0.5533
1255	0.3929
1264	0.5842
1273	0.7018
1282	0.7611
1291	0.7711
1300	0.7746
1309	0.764
1318	0.7731
1327	0.7539
1336	0.7201
1345	0.693
1354	0.6803
1363	0.6532
1372	0.569
1381	0.6941
1390	0.7069
1399	0.6056
1408	0.784
1417	0.7858
1426	0.7458
1435	0.7511
1444	0.7451
1453	0.6095
1462	0.5966
1471	0.7278
1480	0.8014
1489	0.8083
1498	0.7658
1507	0.7715
1516	0.7748
1525	0.7844
1534	0.7793
1543	0.7511
1552	0.7076
1561	0.6796
1570	0.6065
1579	0.2027
1588	0.2257
1597	0.4528
1606	0.7062
1615	0.6072
1624	0.3648
1633	0.7861
1642	0.8606
1651	0.8621
1660	0.856
1669	0.8475
1678	0.8351
1687	0.8136
1696	0.7935
1705	0.7786
1714	0.7411
1723	0.6578
1732	0.0904
1741	0.4558
1750	0.7415
1759	0.8385
1768	0.8643
1777	0.8642
1786	0.8618
1795	0.86
1804	0.8607
1813	0.8598
1822	0.8581
1831	0.8554
1840	0.8527
1849	0.848
1858	0.8415
1867	0.8396
1876	0.8388
1885	0.8345
1894	0.8295
1903	0.8393
1912	0.8416
1921	0.8411
1930	0.8401
1939	0.8382
1948	0.8364
1957	0.8349
1966	0.8338
1975	0.8321
1984	0.8304
1993	0.8293
2002	0.8223
2011	0.828
2020	0.8286
2029	0.8281
2038	0.827
2047	0.8244
2056	0.8217
2065	0.8191
2074	0.8168
2083	0.8145
2092	0.8122
2101	0.8096
2110	0.8068
2119	0.804
2128	0.8012
2137	0.7986
2146	0.796
2155	0.7933
2164	0.791
2173	0.7888
2182	0.7868
2191	0.7847
2200	0.7821
2209	0.7796
2218	0.7769
2227	0.7745
2236	0.7717
2245	0.769
2254	0.7661
2263	0.763
2272	0.7594
2281	0.7557
2290	0.7521
2299	0.7501
2308	0.7488
2317	0.7475
2326	0.7465
2335	0.7455
2344	0.7445
2353	0.7435
2362	0.7424
2371	0.7411
2380	0.74
2389	0.7383
2398	0.7365
2407	0.735
2416	0.7343
2425	0.7337
2434	0.7331
2443	0.7324
2452	0.7312
2461	0.7301
2470	0.729
2479	0.7262
2488	0.7192
2497	0.7151
2506	0.7191
2515	0.7212
2524	0.7226
2533	0.7233
2542	0.7222
2551	0.7211
2560	0.7196
2569	0.7178
2578	0.7162
2587	0.7146
2596	0.7128
2605	0.7111
2614	0.7098
2623	0.7083
2632	0.7069
2641	0.7055
2650	0.7041
2659	0.7022
2668	0.7006
2677	0.6988
2686	0.6969
2695	0.6951
2704	0.6933
2713	0.6914
2722	0.6888
2731	0.6858
2740	0.6828
2749	0.6798
2758	0.6768
2767	0.6738
2776	0.6708
2785	0.6678
2794	0.6653
2803	0.6626
2812	0.659
2821	0.654
2830	0.649
2839	0.6428
2848	0.6337
2857	0.6224
2866	0.6158
2875	0.5903
2884	0.5933
2893	0.6027
2902	0.5997
2911	0.5952
2920	0.5827
2929	0.5542
2938	0.541
2947	0.547
2956	0.4979
2965	0.4274
2974	0.4283
2983	0.4982
2992	0.562
3001	0.5428
3010	0.5184
3019	0.5877
3028	0.5733
3037	0.3779
3046	0.6029
3055	0.6164
3064	0.5596
3073	0.5188
3082	0.655
3091	0.6557
3100	0.6531
3109	0.6478
3118	0.6411
3127	0.6332
3136	0.6223
3145	0.6317
3154	0.6348
3163	0.6362
3172	0.6367
3181	0.6351
3190	0.633
3199	0.6314
3208	0.6298
3217	0.6275
3226	0.6252
3235	0.6227
3244	0.6203
3253	0.6178
3262	0.6158
3271	0.6138
3280	0.6118
3289	0.6097
3298	0.6075
3307	0.6053
3316	0.6032
3325	0.6014
3334	0.6002
3343	0.5988
3352	0.5975
3361	0.5964
3370	0.5956
3379	0.5948
3388	0.594
3397	0.5932
3406	0.5924
3415	0.5918
3424	0.5912
3433	0.5906
3442	0.59
3451	0.5895
3460	0.5891
3469	0.5887
3478	0.5883
3487	0.5878
3496	0.5876
3505	0.5875
3514	0.5874
3523	0.5873
3532	0.5872
3541	0.5869
3550	0.5866
3559	0.5862
3568	0.5859
3577	0.5848
3586	0.5838
3595	0.5827
3604	0.5816
3613	0.5806
3622	0.5795
3631	0.5785
3640	0.5775
3649	0.5768
3658	0.576
3667	0.5752
3676	0.5743
3685	0.5734
3694	0.5721
3703	0.5701
3712	0.5681
3721	0.5665
3730	0.5651
3739	0.5637
3748	0.5624
3757	0.561
3766	0.5599
3775	0.5591
3784	0.5583
3793	0.5575
