Infrared Spectrum: 1-Iodo-3,4-methylenedioxybenzene
Formula: C 7 H 5 I O 2
CAS: 5876-51-7
State: gas
Origin: EPA-IR VAPOR PHASE LIBRARY
1/CM	ABSORBANCE
549.8	0.001813
559.445	0.008813
569.09	0.017663
578.734	0.006003
588.379	0.001793
598.024	0.0006377
607.669	0.0005196
617.313	0.0011569
626.958	0.001643
636.603	0.002033
646.248	0.001633
655.893	0.005423
665.537	0.008753
675.182	0.002293
684.827	0.000779
694.472	0.0004732
704.116	0.0005423
713.761	0.002633
723.406	0.003413
733.051	0.0004762
742.695	0.0004695
752.34	0.0004626
761.985	0.0009411
771.63	0.002503
781.275	0.009973
790.919	0.027693
800.564	0.039163
810.209	0.020623
819.854	0.008183
829.498	0.006583
839.143	0.009673
848.788	0.017153
858.433	0.031273
868.078	0.036243
877.722	0.008853
887.367	0.004033
897.012	0.003753
906.657	0.004913
916.301	0.008633
925.946	0.016563
935.591	0.029873
945.236	0.037283
954.88	0.025443
964.525	0.009763
974.17	0.004713
983.815	0.004303
993.46	0.004893
1003.1	0.007173
1012.75	0.012353
1022.39	0.026683
1032.04	0.049373
1041.68	0.073093
1051.33	0.072513
1060.97	0.045723
1070.62	0.022463
1080.26	0.012703
1089.91	0.015273
1099.55	0.025593
1109.2	0.025473
1118.84	0.018643
1128.49	0.013053
1138.13	0.010623
1147.78	0.016223
1157.42	0.023203
1167.07	0.009073
1176.71	0.004493
1186.36	0.005233
1196	0.010593
1205.64	0.029563
1215.29	0.097853
1224.93	0.240853
1234.58	0.158843
1244.22	0.043223
1253.87	0.024833
1263.51	0.012063
1273.16	0.008303
1282.8	0.007023
1292.45	0.006413
1302.09	0.005563
1311.74	0.010993
1321.38	0.025903
1331.03	0.031833
1340.67	0.010553
1350.32	0.003793
1359.96	0.004353
1369.61	0.005353
1379.25	0.004623
1388.9	0.008513
1398.54	0.016293
1408.18	0.017833
1417.83	0.036083
1427.47	0.030363
1437.12	0.015233
1446.76	0.018203
1456.41	0.051093
1466.05	0.163663
1475.7	0.303393
1485.34	0.124693
1494.99	0.041543
1504.63	0.031123
1514.28	0.017593
1523.92	0.007853
1533.57	0.005933
1543.21	0.002903
1552.86	0.001943
1562.5	0.002023
1572.15	0.003143
1581.79	0.005343
1591.44	0.007083
1601.08	0.006853
1610.73	0.005213
1620.37	0.003583
1630.01	0.002743
1639.66	0.002233
1649.3	0.001893
1658.95	0.001433
1668.59	0.001393
1678.24	0.001543
1687.88	0.002443
1697.53	0.003593
1707.17	0.003303
1716.82	0.002303
1726.46	0.002763
1736.11	0.002653
1745.75	0.001823
1755.4	0.002133
1765.04	0.002373
1774.69	0.002073
1784.33	0.001763
1793.98	0.001853
1803.62	0.002073
1813.27	0.002733
1822.91	0.003453
1832.55	0.003443
1842.2	0.002523
1851.84	0.002003
1861.49	0.002033
1871.13	0.002303
1880.78	0.002793
1890.42	0.002683
1900.07	0.001633
1909.71	0.0008261
1919.36	0.0007233
1929	0.0006801
1938.65	0.0006275
1948.29	0.0008384
1957.94	0.001193
1967.58	0.001513
1977.23	0.001293
1986.87	0.001163
1996.52	0.0010733
2006.16	0.001603
2015.81	0.002403
2025.45	0.002673
2035.1	0.002143
2044.74	0.001913
2054.38	0.001683
2064.03	0.001383
2073.67	0.001173
2083.32	0.001223
2092.96	0.0010478
2102.61	0.0009112
2112.25	0.0008106
2121.9	0.0008079
2131.54	0.0007832
2141.19	0.0008205
2150.83	0.0005675
2160.48	0.0005096
2170.12	0.0006729
2179.77	0.0006653
2189.41	0.0008939
2199.06	0.0008411
2208.7	0.0007743
2218.35	0.0008823
2227.99	0.0009378
2237.64	0.000692
2247.28	0.0009214
2256.92	0.001433
2266.57	0.001693
2276.21	0.001743
2285.86	0.001583
2295.5	0.001413
2305.15	0.001443
2314.79	0.001203
2324.44	0.0008769
2334.08	0.0007379
2343.73	0.0007
2353.37	0.0006761
2363.02	0.0006841
2372.66	0.0006289
2382.31	0.0005268
2391.95	0.0005734
2401.6	0.0004927
2411.24	0.0005081
2420.89	0.0006016
2430.53	0.0007226
2440.18	0.0009997
2449.82	0.001343
2459.47	0.001683
2469.11	0.001663
2478.75	0.0011398
2488.4	0.000934
2498.04	0.0007839
2507.69	0.000861
2517.33	0.0009615
2526.98	0.0010018
2536.62	0.001493
2546.27	0.001873
2555.91	0.002033
2565.56	0.001743
2575.2	0.0011388
2584.85	0.0010139
2594.49	0.0006938
2604.14	0.0008449
2613.78	0.0007933
2623.43	0.0010585
2633.07	0.0011257
2642.72	0.001183
2652.36	0.0011122
2662.01	0.0010414
2671.65	0.0009846
2681.29	0.001173
2690.94	0.001493
2700.58	0.001473
2710.23	0.001213
2719.87	0.001293
2729.52	0.001433
2739.16	0.001673
2748.81	0.002243
2758.45	0.003473
2768.1	0.006813
2777.74	0.008393
2787.39	0.004063
2797.03	0.002843
2806.68	0.003303
2816.32	0.003913
2825.97	0.004793
2835.61	0.005813
2845.26	0.007293
2854.9	0.010293
2864.55	0.015643
2874.19	0.021093
2883.84	0.024773
2893.48	0.024843
2903.12	0.023433
2912.77	0.025113
2922.41	0.022693
2932.06	0.019993
2941.7	0.017693
2951.35	0.015283
2960.99	0.012723
2970.64	0.010773
2980.28	0.009743
2989.93	0.007903
2999.57	0.006263
3009.22	0.007953
3018.86	0.011563
3028.51	0.008383
3038.15	0.005313
3047.8	0.004043
3057.44	0.003173
3067.09	0.002803
3076.73	0.004323
3086.38	0.004593
3096.02	0.002483
3105.67	0.001223
3115.31	0.0008181
3124.95	0.0006473
3134.6	0.0005248
3144.24	0.00020013
3153.89	0.00020043
3163.53	0.0002775
3173.18	0.000421
3182.82	0.0003755
3192.47	0.0004067
3202.11	0.0002856
3211.76	0.0004057
3221.4	0.0005346
3231.05	0.0004576
3240.69	0.0002638
3250.34	0.0001363
3259.98	0.000163489
3269.63	0.0003007
3279.27	0.00021012
3288.92	0.0001432
3298.56	0.000137
3308.21	0.00022574
3317.85	0.0003584
3327.49	0.0001165
3337.14	0.00019849
3346.78	0.0002801
3356.43	0.000288
3366.07	0.00023176
3375.72	0.00013
3385.36	0.00023443
3395.01	0.00022675
3404.65	0.0001237
3414.3	0.000167491
3423.94	0.00023199
3433.59	0.00020493
3443.23	0.0001231
3452.88	0.0003308
3462.52	0.0002184
3472.17	0.0002983
3481.81	0.0002552
3491.46	0.00018489
3501.1	0.0002979
3510.75	0.0002899
3520.39	5.6e-05
3530.04	0.0001115
3539.68	0.00023428
3549.32	0.0001292
3558.97	0.00017847
3568.61	0.0002749
3578.26	0.0003191
3587.9	0.00018177
3597.55	0.00024891
3607.19	0.0005003
3616.84	0.000494
3626.48	0.00024102
3636.13	0.00022682
3645.77	0.0003742
3655.42	0.0001381
3665.06	0.00018699
3674.71	0.0001303
3684.35	0.0003225
3694	0.0004505
3703.64	0.0002636
3713.29	0.0005349
3722.93	0.0001022
3732.58	0.00024776
3742.22	0.0003686
3751.86	0.00018637
3761.51	0.000171834
3771.15	0.0004481
3780.8	0.000304
3790.44	0.00022508
3800.09	0.0003354
3809.73	0.0001251
3819.38	0.0003086
3829.02	0.0005371
3838.67	0.0002795
3848.31	0.000142
3857.96	0.0005555
3867.6	0.0003097
3877.25	0.0003478
3886.89	0.0005399
3896.54	0.0004183
3906.18	0.000403
3915.83	0.0006206
3925.47	0.0007564
3935.12	0.0009697
3944.76	0.000887
3954.41	0.0010341
3964.05	0.0006467
3973.69	0.0005993
3983.34	0.0005392
3992.98	0.0003244
