Infrared Spectrum: 1,11-Dodecadiene
Formula: C 12 H 22
CAS: 5876-87-9
State: gas
Instrument: HP-GC/MS/IRD
Origin: NIST Mass Spectrometry Data Center
1/CM	ABSORBANCE
550	0.000516
562	0.0002021
574	3.44e-05
586	0.0001075
598	0.0002623
610	0.0004945
622	0.0009546
634	0.0010406
646	0.0006966
658	0.000473
670	0.0001978
682	0.0001806
694	0.0001978
706	0.0003139
718	0.0004902
730	0.00043
742	0.0003483
754	0.0002537
766	0.0001806
778	0.000172
790	0.0001462
802	0.0001419
814	0.0002193
826	0.0002236
838	0.0004214
850	0.0006063
862	0.0008557
874	0.0012384
886	0.0019092
898	0.0039517
910	0.0085312
922	0.0063382
934	0.0030573
946	0.0020468
958	0.0017071
970	0.0018318
982	0.0029025
994	0.0038055
1006	0.0024295
1018	0.0014147
1030	0.0009976
1042	0.0007224
1054	0.0005289
1066	0.0003784
1078	0.0003311
1090	0.0002795
1102	0.0002838
1114	0.0002236
1126	0.0002193
1138	0.0001634
1150	0.0001548
1162	0.0001591
1174	0.0001849
1186	0.0001677
1198	0.0001462
1210	0.0001548
1222	0.0002021
1234	0.0002193
1246	0.0002451
1258	0.0003225
1270	0.0003827
1282	0.0005031
1294	0.0006751
1306	0.0007224
1318	0.0006837
1330	0.0007396
1342	0.0010062
1354	0.001204
1366	0.0008815
1378	0.0005762
1390	0.0004644
1402	0.0006192
1414	0.0009804
1426	0.0012986
1438	0.0022059
1450	0.003225
1462	0.0029756
1474	0.0015652
1486	0.0006063
1498	0.0002838
1510	0.0001806
1522	0.0001505
1534	0.0001763
1546	0.0001419
1558	9.46e-05
1570	0.0001462
1582	0.0001677
1594	0.0002494
1606	0.0005074
1618	0.0010363
1630	0.0023865
1642	0.0037711
1654	0.0014706
1666	0.0004601
1678	0.000215
1690	0.0001032
1702	3.87e-05
1714	1.29e-05
1726	1.29e-05
1738	0
1750	2.15e-05
1762	1.29e-05
1774	1.72e-05
1786	7.74e-05
1798	0.0001333
1810	0.0003182
1822	0.0007482
1834	0.0007912
1846	0.0003612
1858	0.0001548
1870	7.74e-05
1882	7.74e-05
1894	5.16e-05
1906	1.72e-05
1918	2.15e-05
1930	2.15e-05
1942	8.6e-06
1954	4.3e-05
1966	9.03e-05
1978	0.0001032
1990	6.88e-05
2002	5.16e-05
2014	6.02e-05
2026	3.87e-05
2038	6.02e-05
2050	6.88e-05
2062	6.45e-05
2074	5.59e-05
2086	5.59e-05
2098	6.45e-05
2110	4.3e-05
2122	5.16e-05
2134	5.59e-05
2146	5.16e-05
2158	5.16e-05
2170	3.87e-05
2182	7.31e-05
2194	6.88e-05
2206	5.59e-05
2218	7.31e-05
2230	7.31e-05
2242	7.74e-05
2254	6.88e-05
2266	7.31e-05
2278	9.46e-05
2290	7.74e-05
2302	6.88e-05
2314	7.31e-05
2326	5.59e-05
2338	5.16e-05
2350	6.45e-05
2362	5.16e-05
2374	6.88e-05
2386	6.02e-05
2398	4.3e-05
2410	6.02e-05
2422	3.01e-05
2434	6.02e-05
2446	6.45e-05
2458	5.16e-05
2470	3.44e-05
2482	5.59e-05
2494	6.88e-05
2506	9.03e-05
2518	0.000129
2530	0.0001247
2542	0.0001204
2554	0.0001204
2566	0.0001376
2578	0.000172
2590	0.0001376
2602	0.0001892
2614	0.0002107
2626	0.0002408
2638	0.000258
2650	0.0002881
2662	0.0003268
2674	0.0003999
2686	0.0003784
2698	0.0003784
2710	0.0003354
2722	0.0003354
2734	0.0003397
2746	0.0003827
2758	0.0004816
2770	0.0005504
2782	0.0006794
2794	0.0008557
2806	0.0011868
2818	0.0016899
2830	0.0026488
2842	0.0050052
2854	0.0109392
2866	0.0147275
2878	0.0098814
2890	0.0081184
2902	0.0113864
2914	0.0196252
2926	0.035819
2938	0.0403598
2950	0.020167
2962	0.0088666
2974	0.0061103
2986	0.0056803
2998	0.0049278
3010	0.0043086
3022	0.0026187
3034	0.0019436
3046	0.0018834
3058	0.0023134
3070	0.0034873
3082	0.0057577
3094	0.0040377
3106	0.0014964
3118	0.0008557
3130	0.0005934
3142	0.0004128
3154	0.0003397
3166	0.0002623
3178	0.000215
3190	0.0001548
3202	0.0001806
3214	0.0001376
3226	0.0001118
3238	0.0001376
3250	0.0001247
3262	6.88e-05
3274	0.0001161
3286	8.17e-05
3298	7.74e-05
3310	6.02e-05
3322	7.74e-05
3334	3.44e-05
3346	0.0001333
3358	0.0001204
3370	9.03e-05
3382	9.89e-05
3394	0.0001118
3406	9.03e-05
3418	9.03e-05
3430	5.59e-05
3442	6.02e-05
3454	9.03e-05
3466	6.88e-05
3478	3.44e-05
3490	6.88e-05
3502	7.74e-05
3514	0.0001118
3526	6.02e-05
3538	4.3e-05
3550	6.88e-05
3562	5.59e-05
3574	6.02e-05
3586	6.45e-05
3598	9.03e-05
3610	8.6e-05
3622	0.0001118
3634	9.89e-05
3646	0.0001075
3658	9.46e-05
3670	9.46e-05
3682	9.03e-05
3694	0.0001032
3706	0.0001075
3718	9.89e-05
3730	9.89e-05
3742	0.0001118
3754	8.6e-05
3766	0.000129
3778	0.0001333
3790	0.000129
3802	9.46e-05
3814	0.0001333
3826	0.0001075
3838	9.03e-05
