Infrared Spectrum: 4-ETHYL-1-OCTYN-3-OL
Formula: C10 H18 O
CAS: 5877-42-9
Class: COBLENTZ
Instrument: Not specified, most likely a prism, grating, or hybrid spectrometer.
Sampling: TRANSMISSION
Path length: SMEAR
Resolution: 4
Origin: TENNESSEE EASTMAN COMPANY, RESEARCH LABORATORIES
MICROMETERS	TRANSMITTANCE
2.048	0.943
2.08889	0.943
2.12979	0.94
2.17068	0.941
2.21158	0.94
2.25247	0.912
2.29336	0.865
2.33426	0.856
2.37515	0.856
2.41605	0.858
2.45694	0.86
2.49783	0.865
2.53873	0.858
2.57962	0.863
2.62052	0.875
2.66141	0.883
2.70231	0.878
2.7432	0.723
2.78409	0.488
2.82499	0.32
2.86588	0.206
2.90678	0.112
2.94767	0.073
2.98856	0.066
3.02946	0.037
3.07035	0.08
3.11125	0.215
3.15214	0.426
3.19303	0.556
3.23393	0.66
3.27482	0.684
3.31572	0.633
3.35661	0.172
3.3975	0.017
3.4384	0.037
3.47929	0.056
3.52019	0.441
3.56108	0.619
3.60198	0.713
3.64287	0.732
3.68376	0.735
3.72466	0.757
3.76555	0.764
3.80645	0.793
3.84734	0.808
3.88823	0.822
3.92913	0.839
3.97002	0.858
4.01092	0.868
4.05181	0.885
4.0927	0.894
4.1336	0.897
4.17449	0.901
4.21539	0.902
4.25628	0.907
4.29717	0.907
4.33807	0.907
4.37896	0.916
4.41986	0.923
4.46075	0.923
4.50165	0.926
4.54254	0.928
4.58343	0.93
4.62433	0.928
4.66522	0.918
4.70612	0.827
4.74701	0.883
4.7879	0.911
4.8288	0.921
4.86969	0.919
4.91059	0.919
4.95148	0.921
4.99237	0.928
5.03327	0.938
5.07416	0.938
5.11506	0.94
5.15595	0.941
5.19684	0.941
5.23774	0.945
5.27863	0.947
5.31953	0.948
5.36042	0.948
5.40132	0.948
5.44221	0.948
5.4831	0.947
5.524	0.947
5.56489	0.945
5.60579	0.94
5.64668	0.926
5.68757	0.918
5.72847	0.882
5.76936	0.831
5.81026	0.827
5.85115	0.808
5.89204	0.82
5.93294	0.815
5.97383	0.788
6.01473	0.805
6.05562	0.82
6.09651	0.822
6.13741	0.824
6.1783	0.829
6.2192	0.841
6.26009	0.856
6.30099	0.866
6.34188	0.866
6.38277	0.861
6.42367	0.846
6.46456	0.844
6.50546	0.834
6.54635	0.824
6.58724	0.805
6.62814	0.788
6.66903	0.761
6.70993	0.696
6.75082	0.505
6.79171	0.17
6.83261	0.102
6.8735	0.233
6.9144	0.349
6.95529	0.438
6.99618	0.46
7.03708	0.44
7.07797	0.423
7.11887	0.409
7.15976	0.394
7.20066	0.315
7.24155	0.199
7.28244	0.303
7.32334	0.411
7.36423	0.457
7.40513	0.472
7.44602	0.467
7.48691	0.447
7.52781	0.416
7.5687	0.416
7.6096	0.414
7.65049	0.411
7.69138	0.411
7.73228	0.411
7.77317	0.411
7.81407	0.411
7.85496	0.411
7.89585	0.409
7.93675	0.406
7.97764	0.399
8.01854	0.39
8.05943	0.402
8.10033	0.423
8.14122	0.447
8.18211	0.5
8.22301	0.558
8.2639	0.578
8.3048	0.605
8.34569	0.639
8.38658	0.675
8.42748	0.699
8.46837	0.708
8.50927	0.709
8.55016	0.701
8.59105	0.674
8.63195	0.638
8.67284	0.619
8.71374	0.617
8.75463	0.58
8.79552	0.501
8.83642	0.452
8.87731	0.479
8.91821	0.556
8.9591	0.559
9	0.558
9.04089	0.559
9.08178	0.571
9.12268	0.604
9.16357	0.621
9.20447	0.588
9.24536	0.547
9.28625	0.525
9.32715	0.5
9.36804	0.438
9.40894	0.358
9.44983	0.303
9.49072	0.223
9.53162	0.146
9.57251	0.107
9.61341	0.08
9.6543	0.059
9.69519	0.058
9.73609	0.059
9.77698	0.064
9.81788	0.076
9.85877	0.107
9.89967	0.129
9.94056	0.167
9.98145	0.221
10.0223	0.291
10.0632	0.344
10.1041	0.383
10.145	0.419
10.1859	0.447
10.2268	0.479
10.2677	0.523
10.3086	0.552
10.3495	0.575
10.3904	0.597
10.4313	0.605
10.4722	0.607
10.5131	0.607
10.554	0.604
10.5949	0.578
10.6358	0.544
10.6767	0.508
10.7175	0.494
10.7584	0.537
10.7993	0.595
10.8402	0.626
10.8811	0.629
10.922	0.634
10.9629	0.646
11.0038	0.67
11.0447	0.677
11.0856	0.691
11.1265	0.697
11.1674	0.706
11.2083	0.709
11.2492	0.708
11.2901	0.694
11.331	0.674
11.3719	0.675
11.4127	0.684
11.4536	0.699
11.4945	0.72
11.5354	0.749
11.5763	0.779
11.6172	0.793
11.6581	0.795
11.699	0.795
11.7399	0.795
11.7808	0.8
11.8217	0.798
11.8626	0.795
11.9035	0.786
11.9444	0.779
11.9853	0.773
12.0262	0.766
12.0671	0.755
12.1079	0.752
12.1488	0.75
12.1897	0.755
12.2306	0.757
12.2715	0.757
12.3124	0.757
12.3533	0.757
12.3942	0.757
12.4351	0.755
12.476	0.749
12.5169	0.738
12.5578	0.72
12.5987	0.706
12.6396	0.677
12.6805	0.655
12.7214	0.634
12.7623	0.619
12.8031	0.621
12.844	0.621
12.8849	0.621
12.9258	0.607
12.9667	0.58
13.0076	0.554
13.0485	0.546
13.0894	0.549
13.1303	0.58
13.1712	0.607
13.2121	0.631
13.253	0.645
13.2939	0.648
13.3348	0.651
13.3757	0.645
13.4166	0.634
13.4575	0.619
13.4983	0.605
13.5392	0.578
13.5801	0.559
13.621	0.522
13.6619	0.493
13.7028	0.472
13.7437	0.47
13.7846	0.494
13.8255	0.529
13.8664	0.549
13.9073	0.558
13.9482	0.559
13.9891	0.563
14.03	0.559
14.0709	0.556
14.1118	0.547
14.1527	0.537
14.1935	0.529
14.2344	0.518
14.2753	0.506
14.3162	0.496
14.3571	0.482
14.398	0.472
14.4389	0.46
14.4798	0.45
14.5207	0.436
14.5616	0.424
14.6025	0.411
14.6434	0.399
14.6843	0.387
14.7252	0.372
14.7661	0.361
14.807	0.349
14.8478	0.336
14.8887	0.324
14.9296	0.32
14.9705	0.317
15.0114	0.313
15.0523	0.286
15.0932	0.264
15.1341	0.247
15.175	0.244
15.2159	0.244
15.2568	0.247
15.2977	0.247
15.3386	0.257
15.3795	0.269
15.4204	0.284
15.4613	0.302
15.5022	0.315
15.543	0.329
15.5839	0.336
15.6248	0.346
15.6657	0.356
15.7066	0.363
15.7475	0.373
15.7884	0.38
15.8293	0.385
15.8702	0.394
15.9111	0.399
15.952	0.402
15.9929	0.407
