Infrared Spectrum: 3,4,5-TRIMETHOXYBENZYL METHYLAMINE
Formula: C11 H17 N O3
CAS: 58780-82-8
State: LIQUID
Class: COBLENTZ
Instrument: PERKIN-ELMER
Sampling: TRANSMISSION
Path length: CAPILLARY
Resolution: 4
Origin: ABBOTT LABORATORIES - WASHBURN
MICROMETERS	TRANSMITTANCE
2.012	0.895
2.04614	0.895
2.08029	0.897
2.11443	0.8953
2.14857	0.8966
2.18271	0.897
2.21686	0.895
2.251	0.892
2.28514	0.8771
2.31929	0.8751
2.35343	0.8861
2.38757	0.885
2.42171	0.885
2.45586	0.885
2.49	0.885
2.52414	0.889
2.55829	0.8945
2.59243	0.904
2.62657	0.8948
2.66071	0.8995
2.69486	0.8962
2.729	0.8799
2.76314	0.8614
2.79729	0.8475
2.83143	0.8566
2.86557	0.852
2.89972	0.8405
2.93386	0.8277
2.968	0.7615
3.00214	0.7445
3.03629	0.7794
3.07043	0.798
3.10457	0.817
3.13872	0.8182
3.17286	0.83
3.207	0.8324
3.24114	0.8121
3.27529	0.7964
3.30943	0.6155
3.34357	0.4427
3.37772	0.3096
3.41186	0.3373
3.446	0.4172
3.48014	0.4686
3.51429	0.3933
3.54843	0.5494
3.58257	0.5486
3.61672	0.7461
3.65086	0.8246
3.685	0.8489
3.71914	0.856
3.75329	0.8686
3.78743	0.8755
3.82157	0.8788
3.85572	0.8812
3.88986	0.88
3.924	0.882
3.95814	0.894
3.99229	0.8963
4.02643	0.894
4.06057	0.89
4.09472	0.8872
4.12886	0.887
4.163	0.8872
4.19715	0.8923
4.23129	0.897
4.26543	0.899
4.29957	0.897
4.33372	0.895
4.36786	0.8852
4.402	0.8828
4.43615	0.8802
4.47029	0.8701
4.50443	0.8751
4.53857	0.882
4.57272	0.88
4.60686	0.8666
4.641	0.8615
4.67515	0.868
4.70929	0.8703
4.74343	0.8668
4.77757	0.861
4.81172	0.862
4.84586	0.859
4.88	0.8627
4.91415	0.865
4.94829	0.8488
4.98243	0.835
5.01657	0.8461
5.05072	0.8548
5.08486	0.8571
5.119	0.8429
5.15315	0.8567
5.18729	0.8634
5.22143	0.871
5.25557	0.8718
5.28972	0.873
5.32386	0.8719
5.358	0.874
5.39215	0.875
5.42629	0.873
5.46043	0.871
5.49458	0.868
5.52872	0.868
5.56286	0.8705
5.597	0.8678
5.63115	0.8687
5.66529	0.863
5.69943	0.8636
5.73358	0.8572
5.76772	0.8492
5.80186	0.8403
5.836	0.84
5.87015	0.834
5.90429	0.8255
5.93843	0.8142
5.97258	0.791
6.00672	0.774
6.04086	0.77
6.075	0.7671
6.10915	0.7555
6.14329	0.7406
6.17743	0.6975
6.21158	0.5227
6.24572	0.2187
6.27986	0.1015
6.314	0.3009
6.34815	0.5298
6.38229	0.663
6.41643	0.7028
6.45058	0.7316
6.48472	0.735
6.51886	0.7165
6.553	0.6814
6.58715	0.5582
6.62129	0.2871
6.65543	0.1638
6.68958	0.326
6.72372	0.4324
6.75786	0.3888
6.79201	0.2741
6.82615	0.1295
6.86029	0.1164
6.89443	0.1299
6.92858	0.2156
6.96272	0.309
6.99686	0.2601
7.03101	0.1611
7.06515	0.1435
7.09929	0.3023
7.13343	0.5311
7.16758	0.6558
7.20172	0.7049
7.23586	0.714
7.27001	0.7105
7.30415	0.6777
7.33829	0.5887
7.37243	0.3151
7.40658	0.343
7.44072	0.4084
7.47486	0.4515
7.50901	0.3631
7.54315	0.2021
7.57729	0.271
7.61143	0.5163
7.64558	0.598
7.67972	0.6693
7.71386	0.6951
7.74801	0.7115
7.78215	0.717
7.81629	0.717
7.85043	0.7102
7.88458	0.687
7.91872	0.639
7.95286	0.5655
7.98701	0.4379
8.02115	0.3269
8.05529	0.1815
8.08944	0.1361
8.12358	0.0912
8.15772	0.1018
8.19186	0.2223
8.22601	0.3892
8.26015	0.5241
8.29429	0.5952
8.32844	0.6435
8.36258	0.6407
8.39672	0.6028
8.43086	0.5446
8.46501	0.4668
8.49915	0.4854
8.53329	0.5432
8.56744	0.565
8.60158	0.508
8.63572	0.4355
8.66986	0.3604
8.70401	0.2861
8.73815	0.2502
8.77229	0.2062
8.80644	0.1133
8.84058	0.0179
8.87472	0.0092
8.90886	0.005
8.94301	0.008
8.97715	0.0469
9.01129	0.1266
9.04544	0.159
9.07958	0.19
9.11372	0.2331
9.14786	0.347
9.18201	0.4677
9.21615	0.5643
9.25029	0.6451
9.28444	0.6819
9.31858	0.7114
9.35272	0.7284
9.38686	0.731
9.42101	0.736
9.45515	0.745
9.48929	0.747
9.52344	0.7368
9.55758	0.6916
9.59172	0.6565
9.62587	0.6158
9.66001	0.61
9.69415	0.6209
9.72829	0.6479
9.76244	0.6494
9.79658	0.5936
9.83072	0.474
9.86487	0.3099
9.89901	0.229
9.93315	0.2004
9.96729	0.2495
10.0014	0.3581
10.0356	0.461
10.0697	0.5422
10.1039	0.5801
10.138	0.596
10.1722	0.5972
10.2063	0.5612
10.2404	0.523
10.2746	0.5513
10.3087	0.6132
10.3429	0.6663
10.377	0.68
10.4112	0.682
10.4453	0.6824
10.4794	0.6958
10.5136	0.727
10.5477	0.7692
10.5819	0.7764
10.616	0.786
10.6502	0.793
10.6843	0.793
10.7184	0.7884
10.7526	0.7789
10.7867	0.767
10.8209	0.7427
10.855	0.7285
10.8892	0.7236
10.9233	0.7267
10.9574	0.7318
10.9916	0.7338
11.0257	0.7459
11.0599	0.7548
11.094	0.7764
11.1282	0.791
11.1623	0.7948
11.1964	0.8004
11.2306	0.803
11.2647	0.8
11.2989	0.7951
11.333	0.7901
11.3672	0.7853
11.4013	0.7803
11.4354	0.7682
11.4696	0.762
11.5037	0.7552
11.5379	0.7476
11.572	0.734
11.6062	0.713
11.6403	0.6989
11.6744	0.6792
11.7086	0.6647
11.7427	0.6445
11.7769	0.6211
11.811	0.5917
11.8452	0.5733
11.8793	0.5526
11.9134	0.524
11.9476	0.5082
11.9817	0.4867
12.0159	0.4612
12.05	0.4405
12.0842	0.426
12.1183	0.4155
12.1524	0.4118
12.1866	0.4233
12.2207	0.4435
12.2549	0.4635
12.289	0.4848
12.3232	0.5128
12.3573	0.5391
12.3914	0.5488
12.4256	0.5628
12.4597	0.569
12.4939	0.5703
12.528	0.577
12.5622	0.579
12.5963	0.5752
12.6304	0.564
12.6646	0.5567
12.6987	0.5429
12.7329	0.5157
12.767	0.4798
12.8012	0.4558
12.8353	0.442
12.8694	0.4448
12.9036	0.4618
12.9377	0.4813
12.9719	0.4979
13.006	0.5105
13.0402	0.5254
13.0743	0.54
13.1084	0.5511
13.1426	0.5559
13.1767	0.5658
13.2109	0.574
13.245	0.5849
13.2792	0.596
13.3133	0.596
13.3474	0.5968
13.3816	0.6
13.4157	0.596
13.4499	0.594
13.484	0.594
13.5182	0.595
13.5523	0.5968
13.5864	0.5988
13.6206	0.608
13.6547	0.6104
13.6889	0.618
13.723	0.6241
13.7572	0.625
13.7913	0.63
13.8254	0.6352
13.8596	0.6398
13.8937	0.6429
13.9279	0.6499
13.962	0.657
13.9962	0.661
14.0303	0.6584
14.0644	0.664
14.0986	0.666
14.1327	0.666
14.1669	0.666
14.201	0.664
14.2352	0.664
14.2693	0.666
14.3034	0.666
14.3376	0.664
14.3717	0.6636
14.4059	0.663
14.44	0.655
14.4742	0.6475
14.5083	0.6362
14.5424	0.6255
14.5766	0.6067
14.6107	0.5936
14.6449	0.5826
14.679	0.5656
14.7132	0.553
14.7473	0.55
14.7814	0.55
14.8156	0.553
14.8497	0.552
14.8839	0.552
14.918	0.554
14.9522	0.564
14.9863	0.567
15.0204	0.5708
15.0546	0.5779
15.0887	0.5828
15.1229	0.584
15.157	0.586
15.1912	0.598
15.2253	0.5966
15.2594	0.596
15.2936	0.6006
15.3277	0.5991
15.3619	0.596
15.396	0.593
15.4302	0.5861
15.4643	0.5816
15.4984	0.5745
