Infrared Spectrum: 5-Tridecanol
Formula: C 13 H 28 O
CAS: 58783-82-7
State: gas
Instrument: HP-GC/MS/IRD
Origin: NIST Mass Spectrometry Data Center
1/CM	ABSORBANCE
550	0.000217
562	0.0001054
574	6.2e-05
586	0.0001488
598	9.92e-05
610	0.0001302
622	8.68e-05
634	7.44e-05
646	6.2e-06
658	0.0001736
670	2.48e-05
682	0.0001116
694	0.0002232
706	0.0005394
718	0.0007812
730	0.0008618
742	0.000775
754	0.0006882
766	0.000651
778	0.0006386
790	0.0006076
802	0.0006386
814	0.0005332
826	0.0005022
838	0.0005828
850	0.0006324
862	0.0007254
874	0.0008804
886	0.0010168
898	0.0011594
910	0.0011594
922	0.001147
934	0.0012586
946	0.0012772
958	0.001395
970	0.0017732
982	0.002356
994	0.0033418
1006	0.0040734
1018	0.0038316
1030	0.0034782
1042	0.0035464
1054	0.0033852
1066	0.0029822
1078	0.0026226
1090	0.002325
1102	0.002325
1114	0.0025358
1126	0.0026846
1138	0.0021824
1150	0.0016244
1162	0.001519
1174	0.0016492
1186	0.0017856
1198	0.0019158
1210	0.0020274
1222	0.0021638
1234	0.0022816
1246	0.002449
1258	0.0025048
1270	0.0022754
1282	0.0021018
1294	0.0021018
1306	0.0020336
1318	0.0018972
1330	0.0020088
1342	0.0026102
1354	0.003069
1366	0.0034472
1378	0.0039246
1390	0.0035526
1402	0.0023746
1414	0.001767
1426	0.0018104
1438	0.0027342
1450	0.004247
1462	0.0054622
1474	0.0037634
1486	0.0016802
1498	0.0009548
1510	0.000651
1522	0.000496
1534	0.0003844
1546	0.000279
1558	0.0002356
1570	0.0002108
1582	0.000155
1594	0.000124
1606	0.0001364
1618	0.000124
1630	0.0001054
1642	8.68e-05
1654	0.0001116
1666	8.68e-05
1678	8.68e-05
1690	8.06e-05
1702	8.06e-05
1714	6.2e-05
1726	5.58e-05
1738	4.96e-05
1750	2.48e-05
1762	2.48e-05
1774	2.48e-05
1786	1.24e-05
1798	1.86e-05
1810	3.72e-05
1822	3.1e-05
1834	3.1e-05
1846	3.72e-05
1858	3.72e-05
1870	3.72e-05
1882	2.48e-05
1894	3.1e-05
1906	3.1e-05
1918	3.1e-05
1930	1.24e-05
1942	0
1954	1.24e-05
1966	1.86e-05
1978	6.2e-06
1990	2.48e-05
2002	2.48e-05
2014	4.96e-05
2026	4.96e-05
2038	7.44e-05
2050	7.44e-05
2062	5.58e-05
2074	4.34e-05
2086	3.72e-05
2098	2.48e-05
2110	1.24e-05
2122	3.1e-05
2134	1.86e-05
2146	1.24e-05
2158	1.86e-05
2170	1.86e-05
2182	1.24e-05
2194	1.86e-05
2206	2.48e-05
2218	1.86e-05
2230	1.86e-05
2242	1.24e-05
2254	1.24e-05
2266	2.48e-05
2278	0
2290	1.24e-05
2302	6.2e-05
2314	4.96e-05
2326	4.34e-05
2338	3.72e-05
2350	4.96e-05
2362	6.2e-05
2374	5.58e-05
2386	6.2e-05
2398	6.82e-05
2410	8.06e-05
2422	8.06e-05
2434	6.82e-05
2446	6.2e-05
2458	6.82e-05
2470	5.58e-05
2482	4.96e-05
2494	9.92e-05
2506	0.0001178
2518	0.000124
2530	0.0001488
2542	0.000186
2554	0.0002108
2566	0.000217
2578	0.0002666
2590	0.0003038
2602	0.0003472
2614	0.0003906
2626	0.0004402
2638	0.000527
2650	0.0005766
2662	0.0006944
2674	0.0007626
2686	0.0007626
2698	0.000744
2710	0.000744
2722	0.000806
2734	0.000899
2746	0.0010106
2758	0.001054
2770	0.001147
2782	0.001364
2794	0.001736
2806	0.0022072
2818	0.0029946
2830	0.0043772
2842	0.007533
2854	0.0157108
2866	0.0239878
2878	0.0214706
2890	0.018197
2902	0.0202368
2914	0.0311488
2926	0.0519126
2938	0.0604004
2950	0.0385516
2962	0.0300824
2974	0.0234174
2986	0.0098332
2998	0.0052948
3010	0.0034038
3022	0.0024614
3034	0.0018786
3046	0.0014508
3058	0.0011718
3070	0.0010106
3082	0.0008432
3094	0.0007316
3106	0.0006138
3118	0.0005828
3130	0.0004898
3142	0.0004216
3154	0.0003782
3166	0.000372
3178	0.0003038
3190	0.0002666
3202	0.0002108
3214	0.0001922
3226	0.000155
3238	0.0001178
3250	8.06e-05
3262	6.82e-05
3274	4.34e-05
3286	6.2e-05
3298	3.72e-05
3310	4.96e-05
3322	2.48e-05
3334	3.1e-05
3346	4.96e-05
3358	9.3e-05
3370	8.06e-05
3382	8.06e-05
3394	6.2e-05
3406	0.0001178
3418	0.0001736
3430	0.0001116
3442	0.0001302
3454	8.06e-05
3466	9.92e-05
3478	6.2e-05
3490	5.58e-05
3502	3.1e-05
3514	6.2e-05
3526	3.72e-05
3538	3.72e-05
3550	2.48e-05
3562	6.82e-05
3574	7.44e-05
3586	0.0001116
3598	0.0001178
3610	0.0002108
3622	0.0004154
3634	0.0007874
3646	0.0014322
3658	0.0016492
3670	0.0007502
3682	0.000341
3694	0.0001984
3706	0.000155
3718	0.000155
3730	0.000124
3742	0.0001488
3754	0.000124
3766	0.0001364
3778	0.0001612
3790	0.000155
3802	0.0001488
3814	0.000186
3826	0.000186
3838	0.0001984
