Infrared Spectrum: N,N'-Dibenzalhydrazone
Formula: C 14 H 12 N 2
CAS: 588-68-1
State: gas
Origin: EPA-IR VAPOR PHASE LIBRARY
1/CM	ABSORBANCE
501.5	0.0103049
513.074	0.0081949
524.648	0.0061549
536.222	0.0049749
547.796	0.0029749
559.37	0.0017649
570.944	0.0021949
582.518	0.0025849
594.092	0.0018549
605.666	0.0020049
617.24	0.0024649
628.814	0.0029549
640.388	0.0046349
651.962	0.0081649
663.536	0.0195149
675.11	0.0450549
686.684	0.0735949
698.258	0.0541549
709.832	0.0286649
721.406	0.0199449
732.98	0.0303749
744.554	0.0456149
756.128	0.0416649
767.702	0.0226549
779.276	0.0089949
790.85	0.0045449
802.423	0.0029449
813.997	0.0024149
825.571	0.0026949
837.145	0.0042349
848.719	0.0099649
860.293	0.0298149
871.867	0.0114249
883.441	0.0049349
895.015	0.0040349
906.589	0.0030649
918.163	0.0033349
929.737	0.0054249
941.311	0.0091849
952.885	0.0170449
964.459	0.0162449
976.033	0.0100949
987.607	0.0067749
999.181	0.0073949
1010.76	0.0075749
1022.33	0.0144749
1033.9	0.0064149
1045.48	0.0027949
1057.05	0.0045049
1068.63	0.0059649
1080.2	0.0041549
1091.77	0.0026249
1103.35	0.0021249
1114.92	0.0012749
1126.49	0.0011549
1138.07	0.0014449
1149.64	0.0022549
1161.22	0.0051249
1172.79	0.0213449
1184.36	0.0075449
1195.94	0.0061549
1207.51	0.0161549
1219.09	0.0075849
1230.66	0.0028049
1242.23	0.0022249
1253.81	0.0025549
1265.38	0.0037749
1276.96	0.0073649
1288.53	0.0110049
1300.1	0.0214949
1311.68	0.0190549
1323.25	0.0124949
1334.83	0.0080849
1346.4	0.0048349
1357.97	0.0031649
1369.55	0.0026449
1381.12	0.0023649
1392.7	0.0019549
1404.27	0.0019049
1415.84	0.0023049
1427.42	0.0044449
1438.99	0.0108149
1450.57	0.0186049
1462.14	0.0075349
1473.71	0.0053049
1485.29	0.0113749
1496.86	0.0149249
1508.44	0.0051249
1520.01	0.0029949
1531.58	0.0029949
1543.16	0.0031649
1554.73	0.0040449
1566.31	0.0085349
1577.88	0.0217249
1589.45	0.0131349
1601.03	0.0162549
1612.6	0.0350149
1624.18	0.0762249
1635.75	0.0499349
1647.32	0.0174749
1658.9	0.0136349
1670.47	0.0094749
1682.05	0.0049449
1693.62	0.0030449
1705.19	0.0024149
1716.77	0.0025449
1728.34	0.0029449
1739.92	0.0029549
1751.49	0.0027249
1763.06	0.0021449
1774.64	0.0024749
1786.21	0.0025649
1797.79	0.0058049
1809.36	0.0054849
1820.93	0.0040849
1832.51	0.0024049
1844.08	0.0021049
1855.66	0.0025449
1867.23	0.0036449
1878.8	0.0045949
1890.38	0.0057849
1901.95	0.0037049
1913.53	0.0034849
1925.1	0.0051249
1936.67	0.0052649
1948.25	0.0060949
1959.82	0.0050649
1971.4	0.0029949
1982.97	0.0011249
1994.54	0.0008545
2006.12	0.0008863
2017.69	0.0008346
2029.27	0.0006389
2040.84	0.0006606
2052.41	0.0005645
2063.99	0.0005505
2075.56	0.0005123
2087.14	0.0003834
2098.71	0.0003051
2110.28	0.0002432
2121.86	0.000229
2133.43	0.0002193
2145.01	0.0002211
2156.58	0.000287
2168.15	0.0003455
2179.73	0.0003635
2191.3	0.0003441
2202.88	0.0003278
2214.45	0.0003726
2226.02	0.0005204
2237.6	0.0005793
2249.17	0.0006003
2260.74	0.0006039
2272.32	0.0007316
2283.89	0.0006997
2295.47	0.0006152
2307.04	0.0009232
2318.61	0.0017149
2330.19	0.0009094
2341.76	0.0007889
2353.34	0.0006223
2364.91	0.0004768
2376.48	0.0005027
2388.06	0.0004906
2399.63	0.0004022
2411.21	0.0005385
2422.78	0.0006385
2434.35	0.0004522
2445.93	0.0004508
2457.5	0.0003657
2469.08	0.0003245
2480.65	0.0003479
2492.22	0.000369
2503.8	0.0003712
2515.37	0.0004518
2526.95	0.0003938
2538.52	0.0003667
2550.09	0.0004095
2561.67	0.0003888
2573.24	0.0004616
2584.82	0.0006112
2596.39	0.0009105
2607.96	0.0006447
2619.54	0.0005527
2631.11	0.0004817
2642.69	0.0003945
2654.26	0.0003864
2665.83	0.0002965
2677.41	0.0003575
2688.98	0.0004248
2700.56	0.0005023
2712.13	0.0004499
2723.7	0.0003754
2735.28	0.0004014
2746.85	0.0003958
2758.43	0.0005641
2770	0.0008308
2781.57	0.0009303
2793.15	0.0010349
2804.72	0.0013649
2816.3	0.0013849
2827.87	0.0012749
2839.44	0.0016349
2851.02	0.0022849
2862.59	0.0033449
2874.17	0.0045149
2885.74	0.0056949
2897.31	0.0065149
2908.89	0.0072549
2920.46	0.0091349
2932.04	0.0126349
2943.61	0.0143949
2955.18	0.0105449
2966.76	0.0067249
2978.33	0.0066449
2989.91	0.0080149
3001.48	0.0095749
3013.05	0.0123749
3024.63	0.0227949
3036.2	0.0312749
3047.78	0.0220049
3059.35	0.0336449
3070.92	0.0738449
3082.5	0.0347249
3094.07	0.0247349
3105.65	0.0157349
3117.22	0.0075949
3128.79	0.0039249
3140.37	0.0036349
3151.94	0.0025849
3163.52	0.0019649
3175.09	0.0023249
3186.66	0.0022749
3198.24	0.0017149
3209.81	0.0014949
3221.39	0.0014949
3232.96	0.00099
3244.53	0.0005957
3256.11	0.0004249
3267.68	0.000319
3279.26	0.0002146
3290.83	0.0001827
3302.4	0.0001942
3313.98	0.0001389
3325.55	0.00010393
3337.13	8.654e-05
3348.7	4.1e-06
3360.27	4.958e-05
3371.85	0.0001176
3383.42	0.0001827
3395	0.00010461
3406.57	0.0001654
3418.14	0.0001426
3429.72	0.0001398
3441.29	8.315e-05
3452.86	0.0001368
3464.44	0.0001293
3476.01	0.000157
3487.59	0.0001537
3499.16	0.00010321
3510.73	0.0001426
3522.31	0.0001828
3533.88	0.0001609
3545.46	0.0001257
3557.03	0.0001314
3568.6	0.0001182
3580.18	9.326e-05
3591.75	0.00010573
3603.33	6.924e-05
3614.9	0.0001282
3626.47	0.0001411
3638.05	0.0003158
3649.62	0.0005129
3661.2	0.0003723
3672.77	0.0003754
3684.34	0.0003951
3695.92	0.0005064
3707.49	0.0004738
3719.07	0.0003867
3730.64	0.0002489
3742.21	0.0003605
3753.79	0.0002888
3765.36	0.0002168
3776.94	0.0002195
3788.51	0.0001594
3800.08	0.0002268
3811.66	0.0002188
3823.23	0.0002503
3834.81	0.0002874
3846.38	0.0003012
3857.95	0.0002184
3869.53	0.0002566
3881.1	0.000258
3892.68	0.0003155
3904.25	0.0003757
3915.82	0.0005912
3927.4	0.0006358
3938.97	0.0005304
3950.55	0.0003935
3962.12	0.0002808
3973.69	0.000342
3985.27	0.0003053
3996.84	0.0004453
