Infrared Spectrum: ETHER, BENZYL n-BUTYL
Formula: C11 H16 O
CAS: 588-67-0
State: SOLUTION (10% CCl4 FOR 3800-1330, 10% CS2 FOR 1330-400 CM^-^1)
Class: COBLENTZ III
Instrument: DOW KBr FOREPRISM-GRATING
Instrument parameters: BLAZED AT 3.5, 12.0, 20.0 MICRON AND CHANGED AT 5.0, 7.5, 14.9 MICRON
Sampling: TRANSMISSION
Path length: 0.011 CM, 0.010 CM
Resolution: 2
Origin: DOW CHEMICAL COMPANY
1/CM	TRANSMITTANCE
3800	0.873
3791	0.8743
3782	0.8724
3773	0.8736
3764	0.8732
3755	0.8727
3746	0.8722
3737	0.8732
3728	0.8726
3719	0.8704
3710	0.872
3701	0.8725
3692	0.8703
3683	0.8682
3674	0.8679
3665	0.8676
3656	0.8661
3647	0.8643
3638	0.8625
3629	0.8602
3620	0.8642
3611	0.8699
3602	0.8719
3593	0.8609
3584	0.8693
3575	0.873
3566	0.873
3557	0.8726
3548	0.8721
3539	0.869
3530	0.8668
3521	0.8621
3512	0.8592
3503	0.8577
3494	0.8566
3485	0.8565
3476	0.8568
3467	0.8571
3458	0.8579
3449	0.8592
3440	0.8606
3431	0.862
3422	0.8634
3413	0.865
3404	0.8666
3395	0.8681
3386	0.8695
3377	0.8703
3368	0.8714
3359	0.8723
3350	0.8729
3341	0.8727
3332	0.8723
3323	0.8719
3314	0.8717
3305	0.8728
3296	0.8711
3287	0.8709
3278	0.8718
3269	0.872
3260	0.872
3251	0.8719
3242	0.8717
3233	0.8702
3224	0.8689
3215	0.8674
3206	0.8646
3197	0.8643
3188	0.8635
3179	0.8611
3170	0.8614
3161	0.867
3152	0.8678
3143	0.8574
3134	0.8547
3125	0.8398
3116	0.8089
3107	0.7883
3098	0.6781
3089	0.653
3080	0.7012
3071	0.5483
3062	0.6481
3053	0.6781
3044	0.5414
3035	0.4415
3026	0.6647
3017	0.6955
3008	0.6979
2999	0.6577
2990	0.543
2981	0.2354
2972	0.0545
2963	0.0992
2954	0.1675
2945	0.0817
2936	0.1219
2927	0.2074
2918	0.2313
2909	0.293
2900	0.3055
2891	0.1951
2882	0.0875
2873	0.0897
2864	0.1101
2855	0.2465
2846	0.3747
2837	0.4935
2828	0.6344
2819	0.6732
2810	0.6767
2801	0.635
2792	0.6039
2783	0.7356
2774	0.7668
2765	0.7867
2756	0.7933
2747	0.7844
2738	0.7961
2729	0.8059
2720	0.8055
2711	0.8177
2702	0.8329
2693	0.8449
2684	0.8526
2675	0.8604
2666	0.8683
2657	0.8764
2648	0.878
2639	0.8772
2630	0.8771
2621	0.8781
2612	0.878
2603	0.878
2594	0.8791
2585	0.8837
2576	0.8895
2567	0.8949
2558	0.8981
2549	0.9002
2540	0.9023
2531	0.9029
2522	0.9029
2513	0.9029
2504	0.9028
2495	0.9027
2486	0.9027
2477	0.9042
2468	0.9042
2459	0.9041
2450	0.9028
2441	0.9041
2432	0.9041
2423	0.9039
2414	0.9036
2405	0.9047
2396	0.9039
2387	0.9017
2378	0.8914
2369	0.873
2360	0.8722
2351	0.8793
2342	0.8842
2333	0.8886
2324	0.8969
2315	0.9001
2306	0.9013
2297	0.9026
2288	0.9011
2279	0.9014
2270	0.9017
2261	0.9032
2252	0.9038
2243	0.9029
2234	0.902
2225	0.9027
2216	0.9019
2207	0.9029
2198	0.9038
2189	0.9029
2180	0.9034
2171	0.9052
2162	0.9036
2153	0.9031
2144	0.902
2135	0.8991
2126	0.8962
2117	0.8931
2108	0.89
2099	0.8879
2090	0.8868
2081	0.8858
2072	0.8853
2063	0.8849
2054	0.8862
2045	0.8842
2036	0.8843
2027	0.886
2018	0.887
2009	0.8865
2000	0.875
1991	0.88
1982	0.8779
1973	0.8729
1964	0.8538
1955	0.8412
1946	0.8242
1937	0.8754
1928	0.8901
1919	0.8886
1910	0.8886
1901	0.8837
1892	0.8728
1883	0.8626
1874	0.8463
1865	0.8577
1856	0.884
1847	0.892
1838	0.8868
1829	0.8761
1820	0.8694
1811	0.8357
1802	0.8595
1793	0.8925
1784	0.8908
1775	0.8913
1766	0.8888
1757	0.8721
1748	0.8623
1739	0.8713
1730	0.8764
1721	0.8771
1712	0.8761
1703	0.8833
1694	0.8885
1685	0.8865
1676	0.8822
1667	0.8792
1658	0.8742
1649	0.8703
1640	0.8675
1631	0.8649
1622	0.8487
1613	0.8268
1604	0.7821
1595	0.7768
1586	0.7878
1577	0.8053
1568	0.7808
1559	0.7566
1550	0.84
1541	0.8895
1532	0.8855
1523	0.8651
1514	0.8531
1505	0.7926
1496	0.4723
1487	0.7122
1478	0.6635
1469	0.414
1460	0.1864
1451	0.6109
1442	0.7167
1433	0.7249
1424	0.8096
1415	0.7605
1406	0.7576
1397	0.7265
1388	0.6655
1379	0.5845
1370	0.4374
1361	0.3801
1352	0.6813
1343	0.7612
1334	0.7855
1325	0.7904
1316	0.744
1307	0.6996
1298	0.7746
1289	0.7978
1280	0.7822
1271	0.7515
1262	0.7653
1253	0.7471
1244	0.7421
1235	0.7455
1226	0.7916
1217	0.7297
1208	0.6322
1199	0.6807
1190	0.8235
1181	0.8059
1172	0.7629
1163	0.7139
1154	0.6151
1145	0.6036
1136	0.455
1127	0.1989
1118	0.0799
1109	0.0657
1100	0.0521
1091	0.2091
1082	0.4169
1073	0.4949
1064	0.5654
1055	0.5445
1046	0.6805
1037	0.7758
1028	0.3731
1019	0.6614
1010	0.6653
1001	0.6563
992	0.6842
983	0.7339
974	0.7532
965	0.7335
956	0.7896
947	0.7892
938	0.7445
929	0.8292
920	0.8607
911	0.8283
902	0.7413
893	0.8595
884	0.8899
875	0.8947
866	0.8821
857	0.852
848	0.8857
839	0.8168
830	0.7938
821	0.8204
812	0.8626
803	0.8784
794	0.9099
785	0.918
776	0.896
767	0.8627
758	0.7053
749	0.3576
740	0.2041
731	0.1179
722	0.4959
713	0.7177
704	0.4786
695	0.1478
686	0.744
677	0.8618
668	0.9282
659	0.9088
650	0.9158
641	0.927
632	0.9076
623	0.8305
614	0.7288
605	0.8007
596	0.8635
587	0.9089
578	0.9167
569	0.9183
560	0.9098
551	0.8846
542	0.8823
533	0.8867
524	0.8779
515	0.8668
506	0.8555
497	0.8436
488	0.8257
479	0.7577
470	0.6734
461	0.6653
452	0.6969
443	0.671
434	0.5963
425	0.528
416	0.2241
407	0.0961
398	0.0886
389	0.0806
