Infrared Spectrum: 3-BROMOPROPYL PHENYL ETHER
Formula: C9 H11 Br O
CAS: 588-63-6
State: LIQUID
Melting point: 10-11.5 C
Class: COBLENTZ
Instrument: Not specified, most likely a prism, grating, or hybrid spectrometer.
Sampling: TRANSMISSION
Path length: 0.003 CM
Resolution: 4
Origin: WYANDOTTE CHEMICALS CORP., WYANDOTTE, MICHIGAN, USA
MICROMETERS	TRANSMITTANCE
2.054	0.971
2.09395	0.963
2.13391	0.97
2.17386	0.968
2.21381	0.953
2.25377	0.96
2.29372	0.95
2.33367	0.958
2.37363	0.953
2.41358	0.948
2.45353	0.961
2.49348	0.958
2.53344	0.96
2.57339	0.963
2.61334	0.965
2.6533	0.968
2.69325	0.975
2.7332	0.963
2.77316	0.953
2.81311	0.93
2.85306	0.935
2.89302	0.951
2.93297	0.958
2.97292	0.951
3.01288	0.96
3.05283	0.961
3.09278	0.966
3.13273	0.961
3.17269	0.95
3.21264	0.943
3.25259	0.799
3.29255	0.689
3.3325	0.84
3.37245	0.586
3.41241	0.534
3.45236	0.659
3.49231	0.649
3.53227	0.86
3.57222	0.931
3.61217	0.941
3.65213	0.938
3.69208	0.95
3.73203	0.966
3.77198	0.968
3.81194	0.965
3.85189	0.97
3.89184	0.968
3.9318	0.963
3.97175	0.943
4.0117	0.96
4.05166	0.943
4.09161	0.933
4.13156	0.95
4.17152	0.95
4.21147	0.951
4.25142	0.966
4.29138	0.973
4.33133	0.963
4.37128	0.958
4.41123	0.958
4.45119	0.961
4.49114	0.96
4.53109	0.965
4.57105	0.965
4.611	0.981
4.65095	0.971
4.69091	0.976
4.73086	0.978
4.77081	0.966
4.81077	0.961
4.85072	0.951
4.89067	0.936
4.93063	0.933
4.97058	0.948
5.01053	0.953
5.05048	0.953
5.09044	0.953
5.13039	0.946
5.17034	0.93
5.2103	0.897
5.25025	0.918
5.2902	0.963
5.33016	0.963
5.37011	0.961
5.41006	0.945
5.45002	0.935
5.48997	0.92
5.52992	0.963
5.56988	0.953
5.60983	0.945
5.64978	0.933
5.68973	0.941
5.72969	0.955
5.76964	0.951
5.80959	0.933
5.84955	0.91
5.8895	0.908
5.92945	0.921
5.96941	0.941
6.00936	0.933
6.04931	0.905
6.08927	0.883
6.12922	0.827
6.16917	0.481
6.20913	0.034
6.24908	0.162
6.28903	0.521
6.32898	0.772
6.36894	0.85
6.40889	0.9
6.44884	0.885
6.4888	0.882
6.52875	0.857
6.5687	0.74
6.60866	0.471
6.64861	0.034
6.68856	0.151
6.72852	0.345
6.76847	0.126
6.80842	0.478
6.84838	0.642
6.88833	0.601
6.92828	0.498
6.96823	0.622
7.00819	0.661
7.04814	0.76
7.08809	0.785
7.12805	0.745
7.168	0.586
7.20795	0.553
7.24791	0.757
7.28786	0.863
7.32781	0.847
7.36777	0.828
7.40772	0.795
7.44767	0.722
7.48763	0.722
7.52758	0.73
7.56753	0.724
7.60748	0.647
7.64744	0.398
7.68739	0.294
7.72734	0.282
7.7673	0.265
7.80725	0.46
7.8472	0.473
7.88716	0.299
7.92711	0.117
7.96706	0.053
8.00702	0.011
8.04697	0.014
8.08692	0.019
8.12688	0.044
8.16683	0.131
8.20678	0.229
8.24673	0.224
8.28669	0.27
8.32664	0.35
8.36659	0.583
8.40655	0.71
8.4465	0.652
8.48645	0.393
8.52641	0.177
8.56636	0.49
8.60631	0.626
8.64627	0.528
8.68622	0.676
8.72617	0.845
8.76613	0.911
8.80608	0.93
8.84603	0.938
8.88598	0.933
8.92594	0.903
8.96589	0.868
9.00584	0.872
9.0458	0.862
9.08575	0.792
9.1257	0.659
9.16566	0.586
9.20561	0.466
9.24556	0.368
9.28552	0.554
9.32547	0.676
9.36542	0.637
9.40538	0.533
9.44533	0.453
9.48528	0.406
9.52523	0.318
9.56519	0.179
9.60514	0.089
9.64509	0.083
9.68505	0.232
9.725	0.382
9.76495	0.433
9.80491	0.541
9.84486	0.684
9.88481	0.752
9.92477	0.794
9.96472	0.79
10.0047	0.737
10.0446	0.755
10.0846	0.808
10.1245	0.827
10.1645	0.838
10.2044	0.848
10.2444	0.857
10.2843	0.875
10.3243	0.885
10.3643	0.883
10.4042	0.877
10.4442	0.865
10.4841	0.87
10.5241	0.862
10.564	0.855
10.604	0.832
10.6439	0.797
10.6839	0.73
10.7238	0.634
10.7638	0.551
10.8037	0.5
10.8437	0.524
10.8836	0.634
10.9236	0.722
10.9635	0.782
11.0035	0.818
11.0435	0.827
11.0834	0.835
11.1234	0.827
11.1633	0.805
11.2033	0.762
11.2432	0.699
11.2832	0.607
11.3231	0.551
11.3631	0.589
11.403	0.687
11.443	0.779
11.4829	0.848
11.5229	0.867
11.5628	0.882
11.6028	0.89
11.6428	0.9
11.6827	0.903
11.7227	0.901
11.7626	0.895
11.8026	0.882
11.8425	0.878
11.8825	0.875
11.9224	0.867
11.9624	0.86
12.0023	0.84
12.0423	0.807
12.0822	0.789
12.1222	0.784
12.1621	0.775
12.2021	0.759
12.242	0.7
12.282	0.606
12.322	0.561
12.3619	0.646
12.4019	0.742
12.4418	0.812
12.4818	0.845
12.5217	0.858
12.5617	0.862
12.6016	0.855
12.6416	0.833
12.6815	0.802
12.7215	0.779
12.7614	0.752
12.8014	0.729
12.8413	0.697
12.8813	0.654
12.9213	0.612
12.9612	0.579
13.0012	0.534
13.0411	0.46
13.0811	0.317
13.121	0.196
13.161	0.093
13.2009	0.046
13.2409	0.029
13.2808	0.028
13.3208	0.049
13.3607	0.107
13.4007	0.242
13.4406	0.373
13.4806	0.518
13.5205	0.632
13.5605	0.709
13.6005	0.765
13.6404	0.82
13.6804	0.838
13.7203	0.857
13.7603	0.872
13.8002	0.88
13.8402	0.887
13.8801	0.887
13.9201	0.9
13.96	0.897
14	0.897
14.0399	0.897
14.0799	0.89
14.1198	0.882
14.1598	0.875
14.1998	0.855
14.2397	0.825
14.2797	0.792
14.3196	0.72
14.3596	0.602
14.3995	0.475
14.4395	0.343
14.4794	0.22
14.5194	0.177
14.5593	0.21
14.5993	0.327
14.6392	0.503
14.6792	0.639
14.7191	0.725
14.7591	0.78
14.799	0.802
14.839	0.825
14.879	0.833
14.9189	0.828
14.9589	0.82
14.9988	0.789
15.0388	0.772
15.0787	0.777
15.1187	0.777
15.1586	0.767
15.1986	0.762
15.2385	0.752
15.2785	0.744
15.3184	0.747
15.3584	0.75
15.3983	0.76
15.4383	0.769
15.4783	0.782
15.5182	0.789
15.5582	0.795
15.5981	0.799
15.6381	0.802
15.678	0.8
15.718	0.797
15.7579	0.795
15.7979	0.792
15.8378	0.787
15.8778	0.782
15.9177	0.779
15.9577	0.779
15.9976	0.777
