Infrared Spectrum: m-Hydroxycinnamic acid
Formula: C 9 H 8 O 3
CAS: 588-30-7
State: gas
Origin: EPA-IR VAPOR PHASE LIBRARY
1/CM	ABSORBANCE
501.5	0.003546
513.074	0.005156
524.648	0.007346
536.222	0.008316
547.796	0.008796
559.37	0.011526
570.944	0.014836
582.518	0.012266
594.092	0.006116
605.666	0.003136
617.24	0.002056
628.814	0.002136
640.388	0.003826
651.962	0.005606
663.536	0.006796
675.11	0.008116
686.684	0.005786
698.258	0.002386
709.832	0.001306
721.406	0.001236
732.98	0.001336
744.554	0.001756
756.128	0.003006
767.702	0.007076
779.276	0.009486
790.85	0.005386
802.423	0.002186
813.997	0.001206
825.571	0.001466
837.145	0.003076
848.719	0.004616
860.293	0.004556
871.867	0.003506
883.441	0.002946
895.015	0.003036
906.589	0.002536
918.163	0.002136
929.737	0.003046
941.311	0.004296
952.885	0.004696
964.459	0.007236
976.033	0.010236
987.607	0.007266
999.181	0.004326
1010.76	0.002206
1022.33	0.001646
1033.9	0.001686
1045.48	0.001836
1057.05	0.002236
1068.63	0.004086
1080.2	0.006606
1091.77	0.009146
1103.35	0.021736
1114.92	0.052096
1126.49	0.037226
1138.07	0.024336
1149.64	0.039176
1161.22	0.036216
1172.79	0.020656
1184.36	0.019186
1195.94	0.017666
1207.51	0.011466
1219.09	0.008366
1230.66	0.009636
1242.23	0.010586
1253.81	0.012756
1265.38	0.015836
1276.96	0.016866
1288.53	0.015566
1300.1	0.012776
1311.68	0.010346
1323.25	0.008606
1334.83	0.007046
1346.4	0.009636
1357.97	0.015346
1369.55	0.010466
1381.12	0.004386
1392.7	0.002976
1404.27	0.002396
1415.84	0.002286
1427.42	0.003286
1438.99	0.006636
1450.57	0.008546
1462.14	0.005636
1473.71	0.004776
1485.29	0.006206
1496.86	0.005346
1508.44	0.002716
1520.01	0.001926
1531.58	0.001996
1543.16	0.002096
1554.73	0.002876
1566.31	0.005556
1577.88	0.012136
1589.45	0.016516
1601.03	0.013796
1612.6	0.010026
1624.18	0.008836
1635.75	0.015386
1647.32	0.016806
1658.9	0.004996
1670.47	0.003106
1682.05	0.002756
1693.62	0.003176
1705.19	0.005056
1716.77	0.008136
1728.34	0.013336
1739.92	0.027396
1751.49	0.058946
1763.06	0.047186
1774.64	0.018606
1786.21	0.011936
1797.79	0.007366
1809.36	0.003406
1820.93	0.002136
1832.51	0.001776
1844.08	0.001616
1855.66	0.001246
1867.23	0.0009286
1878.8	0.000819
1890.38	0.0007637
1901.95	0.0007049
1913.53	0.0008372
1925.1	0.0009125
1936.67	0.0007058
1948.25	0.000534
1959.82	0.0004697
1971.4	0.0004084
1982.97	0.0002968
1994.54	0.0002459
2006.12	0.000303
2017.69	0.0003331
2029.27	0.0004214
2040.84	0.0005513
2052.41	0.0006411
2063.99	0.0004917
2075.56	0.0003578
2087.14	0.0002858
2098.71	0.0002595
2110.28	0.00022043
2121.86	0.00021736
2133.43	0.000239
2145.01	0.00017689
2156.58	0.00019492
2168.15	0.00018908
2179.73	0.00019803
2191.3	0.00022352
2202.88	0.00021472
2214.45	0.0002969
2226.02	0.0003242
2237.6	0.0003026
2249.17	0.00022157
2260.74	0.0002505
2272.32	0.0002414
2283.89	0.00023017
2295.47	0.0002847
2307.04	0.0003946
2318.61	0.0004163
2330.19	0.0003769
2341.76	0.0004112
2353.34	0.0003897
2364.91	0.0004226
2376.48	0.0003072
2388.06	0.0002756
2399.63	0.0002876
2411.21	0.0002753
2422.78	0.0002874
2434.35	0.0003108
2445.93	0.0003289
2457.5	0.0004083
2469.08	0.0003869
2480.65	0.0003556
2492.22	0.0003511
2503.8	0.0002586
2515.37	0.0002627
2526.95	0.00022021
2538.52	0.0002415
2550.09	0.00022584
2561.67	0.0002841
2573.24	0.0002691
2584.82	0.0002592
2596.39	0.000244
2607.96	0.00019483
2619.54	0.0002536
2631.11	0.00019025
2642.69	0.00021347
2654.26	0.00015364
2665.83	0.00013195
2677.41	0.0001788
2688.98	0.00015712
2700.56	0.00016731
2712.13	0.000136925
2723.7	0.0001148
2735.28	0.00020283
2746.85	0.0001939
2758.43	0.00019287
2770	0.00018481
2781.57	0.00018557
2793.15	0.00019906
2804.72	0.000139324
2816.3	0.0001152
2827.87	7.4e-05
2839.44	6.24e-05
2851.02	0.000143959
2862.59	0.00013088
2874.17	0.00022026
2885.74	0.0002582
2897.31	0.0003001
2908.89	0.0002546
2920.46	0.0003171
2932.04	0.0003424
2943.61	0.0003121
2955.18	0.0002445
2966.76	0.0003133
2978.33	0.0003915
2989.91	0.0004985
3001.48	0.0006823
3013.05	0.001146
3024.63	0.001886
3036.2	0.002306
3047.78	0.003056
3059.35	0.002966
3070.92	0.003006
3082.5	0.002396
3094.07	0.001476
3105.65	0.0009927
3117.22	0.000646
3128.79	0.0004455
3140.37	0.0003993
3151.94	0.0002729
3163.52	0.00021853
3175.09	0.0002911
3186.66	0.0002905
3198.24	0.0002449
3209.81	0.00020679
3221.39	0.0002516
3232.96	0.00016512
3244.53	0.0002658
3256.11	0.00021871
3267.68	0.0002455
3279.26	0.0003346
3290.83	0.0003686
3302.4	0.0003155
3313.98	0.0003301
3325.55	0.0003359
3337.13	0.0004151
3348.7	0.0004744
3360.27	0.0005425
3371.85	0.00047
3383.42	0.0005113
3395	0.0005478
3406.57	0.0004166
3418.14	0.0004786
3429.72	0.0003752
3441.29	0.0003654
3452.86	0.0005291
3464.44	0.0006334
3476.01	0.0006701
3487.59	0.0008231
3499.16	0.0009052
3510.73	0.0007647
3522.31	0.0005537
3533.88	0.0004841
3545.46	0.0006912
3557.03	0.0010275
3568.6	0.003956
3580.18	0.022496
3591.75	0.013476
3603.33	0.001816
3614.9	0.0011106
3626.47	0.001726
3638.05	0.005526
3649.62	0.014196
3661.2	0.007146
3672.77	0.001226
3684.34	0.0004236
3695.92	0.00033
3707.49	0.0002985
3719.07	0.00016945
3730.64	0.00021334
3742.21	0.0002362
3753.79	0.0001183
3765.36	0.0001074
3776.94	0.00021859
3788.51	0.0001167
3800.08	0.00020894
3811.66	0.00022137
3823.23	0.00021576
3834.81	0.00021827
3846.38	0.00020711
3857.95	0.0003079
3869.53	0.0002366
3881.1	0.00018857
3892.68	0.0002645
3904.25	0.00020895
3915.82	0.0002783
3927.4	0.00021921
3938.97	0.00021702
3950.55	0.0002386
3962.12	0.00019474
3973.69	0.0001009
3985.27	0.000139834
3996.84	8.94e-05
