Infrared Spectrum: 4-(Trifluoroacetyl)benzoic acid
Formula: C 9 H 5 F 3 O 3
CAS: 58808-59-6
State: gas
Origin: EPA-IR VAPOR PHASE LIBRARY
1/CM	ABSORBANCE
549.8	0.00322
559.445	0.00364
569.09	0.00542
578.734	0.00407
588.379	0.00426
598.024	0.00324
607.669	0.00384
617.313	0.00489
626.958	0.00359
636.603	0.00331
646.248	0.00393
655.893	0.00318
665.537	0.0034
675.182	0.00232
684.827	0.00286
694.472	0.00254
704.116	0.00378
713.761	0.00259
723.406	0.00548
733.051	0.00949
742.695	0.00539
752.34	0.00358
761.985	0.00213
771.63	0.00301
781.275	0.00287
790.919	0.00274
800.564	0.00247
810.209	0.00278
819.854	0.00377
829.498	0.00345
839.143	0.0025
848.788	0.00203
858.433	0.00278
868.078	0.00252
877.722	0.00236
887.367	0.00179
897.012	0.00182
906.657	0.00221
916.301	0.00235
925.946	0.00312
935.591	0.00611
945.236	0.00805
954.88	0.00418
964.525	0.00311
974.17	0.00273
983.815	0.00246
993.46	0.00218
1003.1	0.00253
1012.75	0.00252
1022.39	0.00236
1032.04	0.00207
1041.68	0.00367
1051.33	0.00335
1060.97	0.00273
1070.62	0.00437
1080.26	0.00898
1089.91	0.00881
1099.55	0.00623
1109.2	0.00359
1118.84	0.00497
1128.49	0.00526
1138.13	0.00656
1147.78	0.01095
1157.42	0.01424
1167.07	0.01652
1176.71	0.01981
1186.36	0.02141
1196	0.01162
1205.64	0.01253
1215.29	0.01614
1224.93	0.01069
1234.58	0.00634
1244.22	0.00551
1253.87	0.0062
1263.51	0.00469
1273.16	0.00391
1282.8	0.00376
1292.45	0.004
1302.09	0.00402
1311.74	0.00409
1321.38	0.00397
1331.03	0.00392
1340.67	0.00401
1350.32	0.00493
1359.96	0.00386
1369.61	0.00408
1379.25	0.00377
1388.9	0.003
1398.54	0.00286
1408.18	0.00355
1417.83	0.00316
1427.47	0.00294
1437.12	0.00311
1446.76	0.00249
1456.41	0.00275
1466.05	0.00264
1475.7	0.00281
1485.34	0.00268
1494.99	0.00259
1504.63	0.003
1514.28	0.00261
1523.92	0.00271
1533.57	0.00222
1543.21	0.00292
1552.86	0.00273
1562.5	0.00265
1572.15	0.00274
1581.79	0.00302
1591.44	0.00268
1601.08	0.00263
1610.73	0.00284
1620.37	0.00246
1630.01	0.00246
1639.66	0.0024
1649.3	0.00232
1658.95	0.0025
1668.59	0.00258
1678.24	0.0027
1687.88	0.00238
1697.53	0.00297
1707.17	0.00304
1716.82	0.00391
1726.46	0.00619
1736.11	0.00927
1745.75	0.00744
1755.4	0.00792
1765.04	0.01477
1774.69	0.00858
1784.33	0.00409
1793.98	0.00309
1803.62	0.00291
1813.27	0.00299
1822.91	0.00279
1832.55	0.00253
1842.2	0.00257
1851.84	0.00221
1861.49	0.0025
1871.13	0.00222
1880.78	0.00233
1890.42	0.00239
1900.07	0.00246
1909.71	0.00228
1919.36	0.00242
1929	0.00238
1938.65	0.00261
1948.29	0.00253
1957.94	0.00247
1967.58	0.00239
1977.23	0.00255
1986.87	0.00225
1996.52	0.00214
2006.16	0.00238
2015.81	0.00206
2025.45	0.00212
2035.1	0.00216
2044.74	0.00221
2054.38	0.00213
2064.03	0.0022
2073.67	0.00234
2083.32	0.00222
2092.96	0.00212
2102.61	0.00248
2112.25	0.00209
2121.9	0.00185
2131.54	0.00234
2141.19	0.00211
2150.83	0.00213
2160.48	0.00221
2170.12	0.00227
2179.77	0.00185
2189.41	0.00179
2199.06	0.00239
2208.7	0.00207
2218.35	0.00216
2227.99	0.00194
2237.64	0.00221
2247.28	0.00204
2256.92	0.00156
2266.57	0.00186
2276.21	0.00193
2285.86	0.00213
2295.5	0.00162
2305.15	0.00225
2314.79	0.00169
2324.44	0.00199
2334.08	0.00182
2343.73	0.00195
2353.37	0.00184
2363.02	0.00197
2372.66	0.00207
2382.31	0.00207
2391.95	0.00211
2401.6	0.00174
2411.24	0.00195
2420.89	0.00221
2430.53	0.00179
2440.18	0.00244
2449.82	0.00192
2459.47	0.00206
2469.11	0.00205
2478.75	0.00216
2488.4	0.00207
2498.04	0.00159
2507.69	0.00213
2517.33	0.00205
2526.98	0.00138
2536.62	0.00221
2546.27	0.00217
2555.91	0.0018
2565.56	0.00179
2575.2	0.00186
2584.85	0.00199
2594.49	0.00187
2604.14	0.00165
2613.78	0.00225
2623.43	0.00183
2633.07	0.00223
2642.72	0.0021
2652.36	0.00157
2662.01	0.00224
2671.65	0.00209
2681.29	0.00166
2690.94	0.00193
2700.58	0.00184
2710.23	0.00179
2719.87	0.00173
2729.52	0.00233
2739.16	0.00202
2748.81	0.00173
2758.45	0.00173
2768.1	0.00181
2777.74	0.0021
2787.39	0.00212
2797.03	0.002
2806.68	0.00199
2816.32	0.00159
2825.97	0.00206
2835.61	0.00191
2845.26	0.00194
2854.9	0.00208
2864.55	0.00188
2874.19	0.00206
2883.84	0.00193
2893.48	0.00172
2903.12	0.00227
2912.77	0.00236
2922.41	0.00176
2932.06	0.00197
2941.7	0.00112
2951.35	0.00197
2960.99	0.00156
2970.64	0.00213
2980.28	0.00203
2989.93	0.00222
2999.57	0.00245
3009.22	0.00165
3018.86	0.00225
3028.51	0.00161
3038.15	0.00204
3047.8	0.0029
3057.44	0.00225
3067.09	0.00252
3076.73	0.00324
3086.38	0.00199
3096.02	0.00232
3105.67	0.00142
3115.31	0.00122
3124.95	0.00286
3134.6	0.00222
3144.24	0.00218
3153.89	0.00193
3163.53	0.00225
3173.18	0.00203
3182.82	0.00235
3192.47	0.00206
3202.11	0.00232
3211.76	0.00198
3221.4	0.00237
3231.05	0.00175
3240.69	0.00225
3250.34	0.00183
3259.98	0.00229
3269.63	0.0024
3279.27	0.00227
3288.92	0.00185
3298.56	0.00187
3308.21	0.00177
3317.85	0.00191
3327.49	0.00187
3337.14	0.00123
3346.78	0.00225
3356.43	0.00253
3366.07	0.00203
3375.72	0.00213
3385.36	0.00161
3395.01	0.00268
3404.65	0.00224
3414.3	0.00211
3423.94	0.00291
3433.59	0.00219
3443.23	0.00215
3452.88	0.00261
3462.52	0.00184
3472.17	0.0016
3481.81	0.00265
3491.46	0.0024
3501.1	0.00236
3510.75	0.00204
3520.39	0.00185
3530.04	0.00254
3539.68	0.00322
3549.32	0.00218
3558.97	0.002
3568.61	0.00337
3578.26	0.00658
3587.9	0.00468
3597.55	0.00276
3607.19	0.00302
3616.84	0.00214
3626.48	0.0018
3636.13	0.00292
3645.77	0.00191
3655.42	0.00163
3665.06	0.00182
3674.71	0.00304
3684.35	0.00222
3694	0.00181
3703.64	0.00217
3713.29	0.0011
3722.93	0.00175
3732.58	0.00257
3742.22	0.0016
3751.86	0.0016
3761.51	0.00183
3771.15	0.00264
3780.8	0.00297
3790.44	0.00166
3800.09	0.00182
3809.73	0.00178
3819.38	0.00256
3829.02	0.00209
3838.67	0.0019
3848.31	0.00152
3857.96	0.00253
3867.6	0.0016
3877.25	0.00248
3886.89	0.00211
3896.54	0.00208
3906.18	0.00206
3915.83	0.00224
3925.47	0.0019
3935.12	0.00166
3944.76	0.00139
3954.41	0.00157
3964.05	0.00167
3973.69	0.00206
3983.34	0.00308
3992.98	0.00252
