Infrared Spectrum: 3-Ethyloctane
Formula: C 10 H 22
CAS: 5881-17-4
State: gas
Instrument: HP-GC/MS/IRD
Origin: NIST Mass Spectrometry Data Center
1/CM	ABSORBANCE
550	0.0004347
562	0.0002058
574	3.15e-05
586	0.0001995
598	0.0001323
610	8.4e-05
622	3.36e-05
634	0.0001008
646	6.72e-05
658	5.88e-05
670	0.0002142
682	0.0001134
694	0.0001155
706	0.0001449
718	0.0002058
730	0.0002982
742	0.0003108
754	0.0003024
766	0.0003486
778	0.0003759
790	0.0002772
802	0.0001281
814	0.000168
826	0.0002583
838	0.0001596
850	9.87e-05
862	0.0001659
874	0.0001974
886	0.0001743
898	0.0003066
910	0.0002814
922	0.0001701
934	0.0001407
946	0.0001218
958	0.0001428
970	0.0001743
982	0.0001638
994	0.0001701
1006	0.0001932
1018	0.0002184
1030	0.0001785
1042	0.0001449
1054	0.000168
1066	0.0001722
1078	0.0001554
1090	0.0001764
1102	9.24e-05
1114	7.77e-05
1126	0.0001281
1138	0.0001323
1150	0.0001638
1162	0.0001449
1174	0.0001218
1186	0.000168
1198	0.000126
1210	0.0001407
1222	0.0001848
1234	0.0001848
1246	0.0002121
1258	0.0002394
1270	0.0002583
1282	0.000336
1294	0.0004074
1306	0.0004284
1318	0.0004158
1330	0.0004221
1342	0.000546
1354	0.0005901
1366	0.0007308
1378	0.0012894
1390	0.0012453
1402	0.0005964
1414	0.0004557
1426	0.0005481
1438	0.0008757
1450	0.0017703
1462	0.0027678
1474	0.0021672
1486	0.0009765
1498	0.0005292
1510	0.0004599
1522	0.0003528
1534	0.0002835
1546	0.000252
1558	0.000252
1570	0.0001596
1582	0.0001281
1594	0.000147
1606	0.0001155
1618	0.0001449
1630	0.0001407
1642	0.0001365
1654	0.0001701
1666	8.61e-05
1678	0.0001449
1690	8.4e-05
1702	0.0001449
1714	0.0001092
1726	7.56e-05
1738	7.98e-05
1750	0.0001092
1762	6.93e-05
1774	8.61e-05
1786	5.04e-05
1798	7.35e-05
1810	6.09e-05
1822	6.51e-05
1834	5.88e-05
1846	6.3e-05
1858	5.88e-05
1870	3.36e-05
1882	3.78e-05
1894	5.88e-05
1906	4.83e-05
1918	5.88e-05
1930	1.68e-05
1942	4.2e-05
1954	6.72e-05
1966	2.31e-05
1978	3.36e-05
1990	5.25e-05
2002	3.78e-05
2014	4.41e-05
2026	2.73e-05
2038	2.73e-05
2050	4.83e-05
2062	5.04e-05
2074	2.73e-05
2086	2.73e-05
2098	3.78e-05
2110	1.47e-05
2122	2.1e-05
2134	1.68e-05
2146	2.31e-05
2158	2.1e-06
2170	4.83e-05
2182	5.04e-05
2194	4.2e-05
2206	2.1e-05
2218	4.41e-05
2230	4.83e-05
2242	3.78e-05
2254	3.78e-05
2266	2.73e-05
2278	2.31e-05
2290	3.36e-05
2302	2.52e-05
2314	3.57e-05
2326	5.67e-05
2338	3.15e-05
2350	1.68e-05
2362	7.35e-05
2374	5.88e-05
2386	3.57e-05
2398	4.41e-05
2410	4.41e-05
2422	3.99e-05
2434	5.67e-05
2446	1.68e-05
2458	4.2e-05
2470	1.47e-05
2482	1.68e-05
2494	0
2506	1.47e-05
2518	2.94e-05
2530	4.62e-05
2542	7.56e-05
2554	0.0001008
2566	0.0001071
2578	0.0001092
2590	0.0001554
2602	0.0001449
2614	0.0001659
2626	0.0001365
2638	0.0001302
2650	0.0001659
2662	0.0002289
2674	0.0002436
2686	0.0002415
2698	0.0002352
2710	0.0002961
2722	0.0003192
2734	0.0003654
2746	0.0004536
2758	0.0004368
2770	0.0004389
2782	0.0005397
2794	0.0006909
2806	0.0008421
2818	0.0010983
2830	0.0015057
2842	0.0024381
2854	0.0051849
2866	0.0089523
2878	0.0100989
2890	0.0088977
2902	0.008547
2914	0.0128121
2926	0.0194691
2938	0.0202251
2950	0.015225
2962	0.0169134
2974	0.0157521
2986	0.0063063
2998	0.0028413
3010	0.0017745
3022	0.0012621
3034	0.0010416
3046	0.0007749
3058	0.000651
3070	0.000567
3082	0.0005355
3094	0.0004914
3106	0.0004053
3118	0.0003843
3130	0.0003234
3142	0.0003507
3154	0.000252
3166	0.0002457
3178	0.000189
3190	0.0001659
3202	0.0001911
3214	0.0001764
3226	0.000105
3238	8.82e-05
3250	8.82e-05
3262	0.0001071
3274	7.98e-05
3286	7.56e-05
3298	2.1e-05
3310	5.46e-05
3322	6.51e-05
3334	3.78e-05
3346	2.94e-05
3358	6.3e-05
3370	2.1e-05
3382	1.89e-05
3394	3.57e-05
3406	7.14e-05
3418	2.73e-05
3430	2.52e-05
3442	4.41e-05
3454	5.88e-05
3466	7.35e-05
3478	7.56e-05
3490	2.1e-06
3502	0.0001029
3514	3.57e-05
3526	9.03e-05
3538	5.88e-05
3550	7.35e-05
3562	9.45e-05
3574	5.04e-05
3586	0.0001113
3598	9.24e-05
3610	0.0001743
3622	0.000105
3634	6.3e-05
3646	0.0001743
3658	0.0001365
3670	0.0001533
3682	0.0001512
3694	0.0001386
3706	9.87e-05
3718	9.03e-05
3730	0.0001512
3742	0.0001932
3754	0.0001197
3766	0.0001071
3778	9.66e-05
3790	0.0001134
3802	8.19e-05
3814	0.000105
3826	0.0001092
3838	0.0001575
