Infrared Spectrum: 1-(4-Chlorophenyl)cyclohexane-1-carboxylic acid
Formula: C 13 H 15 Cl O 2
CAS: 58880-37-8
State: gas
Origin: EPA-IR VAPOR PHASE LIBRARY
1/CM	ABSORBANCE
549.9	0.009278
559.547	0.008938
569.193	0.012008
578.84	0.013808
588.486	0.008838
598.133	0.005048
607.779	0.003368
617.426	0.002578
627.072	0.002298
636.719	0.002168
646.365	0.002918
656.012	0.007268
665.658	0.007258
675.305	0.005998
684.951	0.003558
694.598	0.002198
704.245	0.002838
713.891	0.005078
723.538	0.005498
733.184	0.003728
742.831	0.004298
752.477	0.010348
762.124	0.007068
771.77	0.002638
781.417	0.002138
791.063	0.002188
800.71	0.003518
810.356	0.006748
820.003	0.009338
829.649	0.007178
839.296	0.003378
848.943	0.0017879
858.589	0.0013177
868.236	0.001081
877.882	0.0011446
887.529	0.0012812
897.175	0.002248
906.822	0.003998
916.468	0.003158
926.115	0.002278
935.761	0.002278
945.408	0.001868
955.054	0.0013851
964.701	0.0012639
974.347	0.0012057
983.994	0.0012417
993.64	0.0016089
1003.29	0.005338
1012.93	0.017148
1022.58	0.007168
1032.23	0.004768
1041.87	0.005838
1051.52	0.005398
1061.17	0.006338
1070.81	0.008588
1080.46	0.010808
1090.11	0.022178
1099.75	0.048788
1109.4	0.047298
1119.05	0.018858
1128.69	0.010868
1138.34	0.015368
1147.99	0.017208
1157.63	0.014888
1167.28	0.013928
1176.92	0.008248
1186.57	0.005868
1196.22	0.006408
1205.86	0.005818
1215.51	0.003968
1225.16	0.002968
1234.8	0.002858
1244.45	0.002978
1254.1	0.002998
1263.74	0.003288
1273.39	0.003848
1283.04	0.004558
1292.68	0.004628
1302.33	0.004288
1311.98	0.004108
1321.62	0.003998
1331.27	0.003388
1340.92	0.002958
1350.56	0.003368
1360.21	0.003198
1369.86	0.002238
1379.5	0.001645
1389.15	0.0018218
1398.79	0.002688
1408.44	0.002288
1418.09	0.0017657
1427.73	0.002148
1437.38	0.003268
1447.03	0.006508
1456.67	0.011088
1466.32	0.009438
1475.97	0.008018
1485.61	0.013328
1495.26	0.025058
1504.91	0.009718
1514.55	0.002658
1524.2	0.0017581
1533.85	0.0013039
1543.49	0.0011079
1553.14	0.0008447
1562.79	0.0008161
1572.43	0.00095386
1582.08	0.0011727
1591.73	0.001958
1601.37	0.0015738
1611.02	0.00096533
1620.67	0.0012058
1630.31	0.001283
1639.96	0.0012899
1649.6	0.0012095
1659.25	0.0011194
1668.9	0.0010899
1678.54	0.0011508
1688.19	0.0014767
1697.84	0.002268
1707.48	0.003188
1717.13	0.004338
1726.78	0.005578
1736.42	0.008258
1746.07	0.017158
1755.72	0.050598
1765.36	0.065578
1775.01	0.022128
1784.66	0.008968
1794.3	0.005528
1803.95	0.003718
1813.6	0.003078
1823.24	0.002548
1832.89	0.0015738
1842.54	0.001231
1852.18	0.0009876
1861.83	0.0009906
1871.47	0.0010794
1881.12	0.0011718
1890.77	0.0012377
1900.41	0.0010801
1910.06	0.0008571
1919.71	0.000763
1929.35	0.000638
1939	0.000625
1948.65	0.000651
1958.29	0.00059
1967.94	0.000574
1977.59	0.000602
1987.23	0.000595
1996.88	0.000566
2006.53	0.000561
2016.17	0.000517
2025.82	0.000507
2035.47	0.00055
2045.11	0.000548
2054.76	0.000529
2064.41	0.000525
2074.05	0.000535
2083.7	0.000463
2093.35	0.000458
2102.99	0.000472
2112.64	0.000501
2122.28	0.000518
2131.93	0.00049
2141.58	0.000473
2151.22	0.000485
2160.87	0.00051
2170.52	0.000554
2180.16	0.000575
2189.81	0.00059
2199.46	0.000621
2209.1	0.00067
2218.75	0.000603
2228.4	0.0006
2238.04	0.000598
2247.69	0.000633
2257.34	0.000627
2266.98	0.000621
2276.63	0.000626
2286.28	0.000701
2295.92	0.000706
2305.57	0.0007904
2315.22	0.000877074
2324.86	0.00093851
2334.51	0.00092271
2344.16	0.0008304
2353.8	0.00088682
2363.45	0.0011246
2373.09	0.0009791
2382.74	0.00072
2392.39	0.000595
2402.03	0.000609
2411.68	0.00059
2421.33	0.000611
2430.97	0.000545
2440.62	0.000497
2450.27	0.000597
2459.91	0.00052
2469.56	0.000529
2479.21	0.000589
2488.85	0.00055
2498.5	0.000552
2508.15	0.000577
2517.79	0.000601
2527.44	0.000476
2537.09	0.000514
2546.73	0.000464
2556.38	0.000582
2566.03	0.000573
2575.67	0.000538
2585.32	0.000647
2594.96	0.000611
2604.61	0.00063
2614.26	0.000642
2623.9	0.000644
2633.55	0.000719
2643.2	0.000773
2652.84	0.0008579
2662.49	0.00089704
2672.14	0.0010254
2681.78	0.000882814
2691.43	0.000772
2701.08	0.000664
2710.72	0.000667
2720.37	0.000586
2730.02	0.000523
2739.66	0.000605
2749.31	0.000656
2758.96	0.000635
2768.6	0.000702
2778.25	0.0007891
2787.9	0.0008307
2797.54	0.00097741
2807.19	0.0011108
2816.84	0.0012447
2826.48	0.0014792
2836.13	0.0016548
2845.77	0.002508
2855.42	0.006718
2865.07	0.015028
2874.71	0.015208
2884.36	0.009198
2894.01	0.006308
2903.65	0.007168
2913.3	0.009448
2922.95	0.013978
2932.59	0.031688
2942.24	0.057048
2951.89	0.040258
2961.53	0.017458
2971.18	0.012408
2980.83	0.005298
2990.47	0.002258
3000.12	0.00168
3009.77	0.0013055
3019.41	0.0010811
3029.06	0.0012317
3038.71	0.0015212
3048.35	0.0016054
3058	0.0013585
3067.64	0.0013198
3077.29	0.0014419
3086.94	0.002068
3096.58	0.002508
3106.23	0.0016631
3115.88	0.000929
3125.52	0.00058
3135.17	0.000467
3144.82	0.000473
3154.46	0.000369
3164.11	0.000404
3173.76	0.000306
3183.4	0.000268
3193.05	0.000303
3202.7	0.000423
3212.34	0.000171
3221.99	7.7e-05
3231.64	0.000126
3241.28	0.000409
3250.93	0.000388
3260.58	0.000186
3270.22	0.000388
3279.87	0.000158
3289.52	0.000281
3299.16	0.000237
3308.81	0.000112
3318.45	0.000111
3328.1	0.000308
3337.75	0.000374
3347.39	0.000242
3357.04	8.4e-05
3366.69	0.000316
3376.33	0.000206
3385.98	0.000239
3395.63	0.000345
3405.27	0.000199
3414.92	0.000296
3424.57	0.000371
3434.21	0.000326
3443.86	0.000366
3453.51	0.000556
3463.15	0.000433
3472.8	0.000409
3482.45	0.000515
3492.09	0.00073
3501.74	0.00092095
3511.39	0.0008509
3521.03	0.000793
3530.68	0.000751
3540.33	0.0011861
3549.97	0.002188
3559.62	0.010228
3569.26	0.026078
3578.91	0.014288
3588.56	0.002638
3598.2	0.0011217
3607.85	0.0008399
3617.5	0.000678
3627.14	0.0006
3636.79	0.000537
3646.44	0.000458
3656.08	0.000374
3665.73	0.000452
3675.38	0.000387
3685.02	0.000365
3694.67	0.000513
3704.32	0.000477
3713.96	0.000459
3723.61	0.000507
3733.26	0.000652
3742.9	0.000499
3752.55	0.000561
3762.2	0.000595
3771.84	0.000571
3781.49	0.000515
3791.13	0.000653
3800.78	0.000534
3810.43	0.000517
3820.07	0.000377
3829.72	0.000378
3839.37	0.000464
3849.01	0.000412
3858.66	0.000511
3868.31	0.000521
3877.95	0.000577
3887.6	0.000516
3897.25	0.000446
3906.89	0.000533
3916.54	0.000499
3926.19	0.00046
3935.83	0.000358
3945.48	0.000562
3955.13	0.000478
3964.77	0.000512
3974.42	0.000531
3984.07	0.000691
3993.71	0.000535
