Infrared Spectrum: 1,2-Dimethoxy-4-propylbenzene
Formula: C 11 H 16 O 2
CAS: 5888-52-8
State: gas
Origin: EPA-IR VAPOR PHASE LIBRARY
1/CM	ABSORBANCE
549.8	0.00157
559.445	0.00184
569.09	0.00177
578.734	0.00152
588.379	0.00156
598.024	0.00125
607.669	0.00172
617.313	0.00208
626.958	0.00282
636.603	0.00276
646.248	0.00225
655.893	0.00128
665.537	0.0011319
675.182	0.0010037
684.827	0.001141
694.472	0.00174
704.116	0.00189
713.761	0.00138
723.406	0.00235
733.051	0.00374
742.695	0.00593
752.34	0.00837
761.985	0.00818
771.63	0.00531
781.275	0.00528
790.919	0.00709
800.564	0.00896
810.209	0.01053
819.854	0.0097
829.498	0.00605
839.143	0.00429
848.788	0.00373
858.433	0.0039
868.078	0.00431
877.722	0.00415
887.367	0.0037
897.012	0.00293
906.657	0.00228
916.301	0.00293
925.946	0.00383
935.591	0.00404
945.236	0.00291
954.88	0.00277
964.525	0.00259
974.17	0.00358
983.815	0.00461
993.46	0.00682
1003.1	0.01137
1012.75	0.02219
1022.39	0.03719
1032.04	0.04297
1041.68	0.03227
1051.33	0.01653
1060.97	0.0089
1070.62	0.007
1080.26	0.00695
1089.91	0.00668
1099.55	0.00717
1109.2	0.00957
1118.84	0.01987
1128.49	0.02986
1138.13	0.03037
1147.78	0.02864
1157.42	0.02482
1167.07	0.01567
1176.71	0.01188
1186.36	0.01208
1196	0.01178
1205.64	0.01687
1215.29	0.02693
1224.93	0.03982
1234.58	0.04399
1244.22	0.04143
1253.87	0.04842
1263.51	0.07365
1273.16	0.08654
1282.8	0.06564
1292.45	0.04216
1302.09	0.025
1311.74	0.01541
1321.38	0.01089
1331.03	0.0101
1340.67	0.01079
1350.32	0.00739
1359.96	0.00505
1369.61	0.00486
1379.25	0.00599
1388.9	0.00702
1398.54	0.00946
1408.18	0.01683
1417.83	0.01894
1427.47	0.01394
1437.12	0.01615
1446.76	0.02033
1456.41	0.02294
1466.05	0.02538
1475.7	0.02295
1485.34	0.02298
1494.99	0.04256
1504.63	0.08303
1514.28	0.08055
1523.92	0.03366
1533.57	0.01359
1543.21	0.00833
1552.86	0.00699
1562.5	0.00778
1572.15	0.01085
1581.79	0.01295
1591.44	0.01104
1601.08	0.00948
1610.73	0.00838
1620.37	0.0056
1630.01	0.00328
1639.66	0.00253
1649.3	0.00207
1658.95	0.00195
1668.59	0.00169
1678.24	0.00168
1687.88	0.00164
1697.53	0.00161
1707.17	0.0015
1716.82	0.00144
1726.46	0.00136
1736.11	0.00146
1745.75	0.00139
1755.4	0.00143
1765.04	0.0013
1774.69	0.00128
1784.33	0.0011751
1793.98	0.0011716
1803.62	0.00127
1813.27	0.0011606
1822.91	0.0011908
1832.55	0.00137
1842.2	0.00146
1851.84	0.00149
1861.49	0.00156
1871.13	0.00163
1880.78	0.00125
1890.42	0.0011252
1900.07	0.0010288
1909.71	0.0010592
1919.36	0.0009875
1929	0.0010369
1938.65	0.0010682
1948.29	0.00128
1957.94	0.00143
1967.58	0.00147
1977.23	0.00141
1986.87	0.00155
1996.52	0.00154
2006.16	0.00178
2015.81	0.0022
2025.45	0.00256
2035.1	0.0027
2044.74	0.00231
2054.38	0.00201
2064.03	0.00191
2073.67	0.00164
2083.32	0.00148
2092.96	0.001184
2102.61	0.0010748
2112.25	0.0008704
2121.9	0.000805
2131.54	0.0008703
2141.19	0.0008218
2150.83	0.0008592
2160.48	0.0009866
2170.12	0.0010847
2179.77	0.0009188
2189.41	0.0009158
2199.06	0.0010794
2208.7	0.0009643
2218.35	0.0009177
2227.99	0.0008224
2237.64	0.001035
2247.28	0.0011978
2256.92	0.0010522
2266.57	0.0011873
2276.21	0.0011402
2285.86	0.0010469
2295.5	0.001013
2305.15	0.0008831
2314.79	0.0007334
2324.44	0.0007083
2334.08	0.0008824
2343.73	0.0009005
2353.37	0.0007639
2363.02	0.000889
2372.66	0.0008702
2382.31	0.0008797
2391.95	0.0008586
2401.6	0.0008048
2411.24	0.0008627
2420.89	0.0007726
2430.53	0.0008778
2440.18	0.0009481
2449.82	0.0008874
2459.47	0.0008097
2469.11	0.0007697
2478.75	0.0007815
2488.4	0.0009984
2498.04	0.0011406
2507.69	0.00122
2517.33	0.00121
2526.98	0.00122
2536.62	0.00142
2546.27	0.00135
2555.91	0.00144
2565.56	0.00141
2575.2	0.00134
2584.85	0.00137
2594.49	0.00125
2604.14	0.00128
2613.78	0.0012005
2623.43	0.001113
2633.07	0.0010669
2642.72	0.0011675
2652.36	0.00122
2662.01	0.00127
2671.65	0.00124
2681.29	0.00128
2690.94	0.0010653
2700.58	0.00109
2710.23	0.0013
2719.87	0.00125
2729.52	0.00152
2739.16	0.0017
2748.81	0.0019
2758.45	0.00193
2768.1	0.00218
2777.74	0.00234
2787.39	0.00288
2797.03	0.00371
2806.68	0.00493
2816.32	0.00731
2825.97	0.01193
2835.61	0.02042
2845.26	0.02287
2854.9	0.02012
2864.55	0.0214
2874.19	0.02507
2883.84	0.02663
2893.48	0.02314
2903.12	0.02464
2912.77	0.03206
2922.41	0.04212
2932.06	0.05759
2941.7	0.06518
2951.35	0.05405
2960.99	0.04935
2970.64	0.04927
2980.28	0.03553
2989.93	0.02653
2999.57	0.02869
3009.22	0.02358
3018.86	0.01452
3028.51	0.01301
3038.15	0.013
3047.8	0.01198
3057.44	0.01035
3067.09	0.0082
3076.73	0.00635
3086.38	0.00518
3096.02	0.00406
3105.67	0.00342
3115.31	0.00298
3124.95	0.00261
3134.6	0.00208
3144.24	0.00156
3153.89	0.00143
3163.53	0.00142
3173.18	0.0011903
3182.82	0.0009825
3192.47	0.0008783
3202.11	0.0009369
3211.76	0.0008548
3221.4	0.000675
3231.05	0.0008067
3240.69	0.0004537
3250.34	0.0007774
3259.98	0.0006979
3269.63	0.0005784
3279.27	0.0006019
3288.92	0.0005185
3298.56	0.0006865
3308.21	0.0004258
3317.85	0.0005339
3327.49	0.0006317
3337.14	0.0003941
3346.78	0.0004188
3356.43	0.0004753
3366.07	0.0005397
3375.72	0.0007625
3385.36	0.0004716
3395.01	0.0005008
3404.65	0.0003218
3414.3	0.0003435
3423.94	0.0004832
3433.59	0.0004526
3443.23	0.000209373
3452.88	0.0005491
3462.52	0.0003124
3472.17	0.0005734
3481.81	0.0006355
3491.46	0.0004572
3501.1	0.0003763
3510.75	0.0005343
3520.39	0.0003377
3530.04	0.0004619
3539.68	0.0004782
3549.32	0.0004659
3558.97	0.0005479
3568.61	0.0005601
3578.26	0.0004064
3587.9	0.0003719
3597.55	0.00028916
3607.19	0.0003509
3616.84	0.0003944
3626.48	0.000441
3636.13	0.0005581
3645.77	0.0004205
3655.42	0.0003853
3665.06	0.0006164
3674.71	0.0004134
3684.35	0
3694	0.0005007
3703.64	0.0001928
3713.29	0.000416
3722.93	0.0006491
3732.58	0.0005334
3742.22	0.0006528
3751.86	0.0005774
3761.51	0.0006457
3771.15	0.0005023
3780.8	0.0004708
3790.44	0.0003527
3800.09	0.0007424
3809.73	0.0003578
3819.38	0.0003814
3829.02	0.0005503
3838.67	0.0004397
3848.31	0.0008636
3857.96	0.0006347
3867.6	0.0008096
3877.25	0.0006664
3886.89	0.0008169
3896.54	0.0007488
3906.18	0.0005196
3915.83	0.000833
3925.47	0.0006704
3935.12	0.0006096
3944.76	0.000652
3954.41	0.0011131
3964.05	0.0009821
3973.69	0.0006681
3983.34	0.00124
3992.98	0.0009778
