Infrared Spectrum: 3-Methylheptane
Formula: C 8 H 18
CAS: 589-81-1
State: gas
Instrument: HP-GC/MS/IRD
Origin: NIST Mass Spectrometry Data Center
1/CM	ABSORBANCE
550	0.0003854
562	0.0003008
574	0.0002303
586	0.0002068
598	0.0001269
610	0.0001457
622	0.0001222
634	7.05e-05
646	0.0001457
658	0.0002068
670	7.52e-05
682	0.0001269
694	0.0001034
706	0.0002209
718	0.0003666
730	0.0004559
742	0.0004324
754	0.0004136
766	0.0005123
778	0.0005828
790	0.0003666
802	0.000235
814	0.0001833
826	6.11e-05
838	7.99e-05
850	3.76e-05
862	9.4e-05
874	8.46e-05
886	0.0002021
898	0.0002256
910	0.0002538
922	0.0001927
934	0.0001504
946	0.0002162
958	0.0003995
970	0.0005264
982	0.0004042
994	0.0003666
1006	0.0003478
1018	0.0003102
1030	0.000235
1042	0.0001786
1054	0.0002491
1066	0.0002726
1078	0.000329
1090	0.0002256
1102	0.0001974
1114	0.0002773
1126	0.0004418
1138	0.0006251
1150	0.0006768
1162	0.0005593
1174	0.0004089
1186	0.0003384
1198	0.0003901
1210	0.0004841
1222	0.000564
1234	0.0005687
1246	0.0006204
1258	0.0006204
1270	0.0006439
1282	0.0007473
1294	0.0008789
1306	0.000893
1318	0.0008648
1330	0.0010857
1342	0.0013536
1354	0.0016826
1366	0.0023124
1378	0.0037882
1390	0.0036754
1402	0.0017014
1414	0.0010669
1426	0.0012126
1438	0.0020774
1450	0.0042441
1462	0.0061852
1474	0.0049773
1486	0.0024393
1498	0.0011092
1510	0.0004747
1522	0.0003807
1534	0.0003619
1546	0.0002632
1558	0.0002162
1570	0.0003055
1582	0.0002961
1594	0.0002867
1606	0.0002632
1618	0.0002209
1630	0.0002444
1642	0.0002209
1654	0.000141
1666	0.0002209
1678	0.0001692
1690	0.0001692
1702	7.99e-05
1714	6.58e-05
1726	0.0001222
1738	5.17e-05
1750	9.4e-06
1762	6.11e-05
1774	4.7e-05
1786	3.29e-05
1798	5.17e-05
1810	6.58e-05
1822	7.05e-05
1834	5.17e-05
1846	2.82e-05
1858	7.99e-05
1870	1.41e-05
1882	6.58e-05
1894	6.58e-05
1906	4.23e-05
1918	4.23e-05
1930	6.11e-05
1942	3.29e-05
1954	3.76e-05
1966	4.7e-05
1978	3.76e-05
1990	1.41e-05
2002	2.82e-05
2014	4.7e-05
2026	5.17e-05
2038	6.58e-05
2050	4.7e-05
2062	7.05e-05
2074	6.58e-05
2086	5.17e-05
2098	4.7e-05
2110	6.58e-05
2122	2.35e-05
2134	5.17e-05
2146	4.23e-05
2158	6.11e-05
2170	4.23e-05
2182	4.7e-05
2194	3.76e-05
2206	3.29e-05
2218	2.82e-05
2230	4.23e-05
2242	2.82e-05
2254	4.7e-05
2266	3.29e-05
2278	2.82e-05
2290	2.35e-05
2302	1.41e-05
2314	3.76e-05
2326	1.41e-05
2338	9.4e-06
2350	5.17e-05
2362	4.7e-05
2374	6.11e-05
2386	7.99e-05
2398	9.87e-05
2410	0.0001034
2422	8.93e-05
2434	6.58e-05
2446	7.99e-05
2458	6.58e-05
2470	5.64e-05
2482	7.05e-05
2494	7.99e-05
2506	7.05e-05
2518	0.0001128
2530	0.0001269
2542	0.000141
2554	0.0001739
2566	0.0002303
2578	0.0002632
2590	0.0003055
2602	0.0003478
2614	0.0003901
2626	0.0003854
2638	0.0004136
2650	0.000423
2662	0.0004559
2674	0.0005217
2686	0.0005452
2698	0.0005358
2710	0.0006298
2722	0.0007285
2734	0.0008789
2746	0.0009588
2758	0.00094
2770	0.0009729
2782	0.0011797
2794	0.0014852
2806	0.0018659
2818	0.0024769
2830	0.0034639
2842	0.0058844
2854	0.0113928
2866	0.0185415
2878	0.0234577
2890	0.022419
2902	0.0221887
2914	0.0309213
2926	0.041266
2938	0.0424034
2950	0.0376517
2962	0.0451341
2974	0.0405657
2986	0.0174041
2998	0.0070359
3010	0.0041783
3022	0.0030315
3034	0.0023782
3046	0.0019787
3058	0.0016779
3070	0.0014805
3082	0.001316
3094	0.0012126
3106	0.0009729
3118	0.0008554
3130	0.0007614
3142	0.0006674
3154	0.0006345
3166	0.000611
3178	0.0005123
3190	0.0004512
3202	0.0003243
3214	0.0002632
3226	0.0001645
3238	0.0001645
3250	0.000141
3262	0.0001269
3274	0.0001034
3286	8.93e-05
3298	6.58e-05
3310	7.99e-05
3322	7.05e-05
3334	7.05e-05
3346	0.0001269
3358	0.0001081
3370	0.0001363
3382	9.4e-05
3394	7.99e-05
3406	0.0001128
3418	8.93e-05
3430	9.4e-05
3442	7.05e-05
3454	7.99e-05
3466	4.7e-05
3478	6.58e-05
3490	8.46e-05
3502	9.4e-06
3514	0.0001551
3526	5.17e-05
3538	8.93e-05
3550	6.58e-05
3562	6.58e-05
3574	0.0001269
3586	4.7e-05
3598	0.0001363
3610	4.7e-05
3622	9.87e-05
3634	0.0001551
3646	9.87e-05
3658	0.0002115
3670	0.0001316
3682	0.0001645
3694	0.000188
3706	0.0002162
3718	0.0001692
3730	0.0001128
3742	0.0001034
3754	0.0001739
3766	0.0002303
3778	0.0002444
3790	0.0002256
3802	0.0002068
3814	0.000235
3826	0.0002444
3838	0.0002162
