Infrared Spectrum: Butyl octanoate
Formula: C 12 H 24 O 2
CAS: 589-75-3
State: gas
Instrument: HP-GC/MS/IRD
Origin: NIST Mass Spectrometry Data Center
1/CM	ABSORBANCE
550	0.000165
562	8.25e-05
574	9.9e-05
586	0.0005115
598	0.00099
610	0.001023
622	0.0010395
634	0.001056
646	0.0009075
658	0.0008085
670	0.0007425
682	0.000957
694	0.0013035
706	0.0020295
718	0.003267
730	0.0038775
742	0.003762
754	0.0034815
766	0.003102
778	0.00297
790	0.002937
802	0.002937
814	0.003003
826	0.0033165
838	0.0037785
850	0.0037125
862	0.0036465
874	0.0037455
886	0.003795
898	0.0041415
910	0.004587
922	0.005049
934	0.005973
946	0.0081015
958	0.010494
970	0.011154
982	0.0099495
994	0.010758
1006	0.0151305
1018	0.0194205
1030	0.0193545
1042	0.0159885
1054	0.0174075
1066	0.0226215
1078	0.0216315
1090	0.0252285
1102	0.036069
1114	0.038379
1126	0.034353
1138	0.0429825
1150	0.0753225
1162	0.106128
1174	0.0881265
1186	0.068112
1198	0.061446
1210	0.0587895
1222	0.0595815
1234	0.059334
1246	0.0567765
1258	0.0477345
1270	0.0376035
1282	0.029832
1294	0.026928
1306	0.025872
1318	0.0231495
1330	0.022209
1342	0.0252945
1354	0.026103
1366	0.0207075
1378	0.0170445
1390	0.01749
1402	0.011121
1414	0.009273
1426	0.0121935
1438	0.016038
1450	0.0208065
1462	0.0262185
1474	0.019767
1486	0.0100485
1498	0.0054615
1510	0.0036135
1522	0.0027555
1534	0.0021945
1546	0.001815
1558	0.0015345
1570	0.001419
1582	0.001386
1594	0.00132
1606	0.001353
1618	0.0014025
1630	0.001485
1642	0.0016335
1654	0.0018975
1666	0.002343
1678	0.003168
1690	0.0048345
1702	0.0084975
1714	0.0150315
1726	0.0279345
1738	0.0660165
1750	0.13398
1762	0.0910635
1774	0.0319935
1786	0.0142395
1798	0.0073095
1810	0.004224
1822	0.002739
1834	0.001947
1846	0.001452
1858	0.001188
1870	0.0010395
1882	0.000924
1894	0.000891
1906	0.000858
1918	0.000825
1930	0.0008085
1942	0.000792
1954	0.000825
1966	0.000825
1978	0.0008085
1990	0.000825
2002	0.0008415
2014	0.000891
2026	0.000924
2038	0.0009075
2050	0.000858
2062	0.0007755
2074	0.000726
2086	0.0006435
2098	0.0005775
2110	0.0004785
2122	0.0004455
2134	0.0003465
2146	0.000363
2158	0.0003135
2170	0.000297
2182	0.000297
2194	0.000264
2206	0.000264
2218	0.000231
2230	0.000231
2242	0.000231
2254	0.000297
2266	0.0002475
2278	0.000264
2290	0.0002475
2302	0.000297
2314	0.000297
2326	0.0003135
2338	0.0003465
2350	0.000297
2362	0.0002475
2374	0.000297
2386	0.0003135
2398	0.0002805
2410	0.000231
2422	0.0001815
2434	0.000165
2446	0.000132
2458	0.000132
2470	6.6e-05
2482	8.25e-05
2494	8.25e-05
2506	4.95e-05
2518	8.25e-05
2530	0.0001155
2542	0.0002475
2554	0.000264
2566	0.000396
2578	0.000462
2590	0.0005775
2602	0.000627
2614	0.000726
2626	0.0008415
2638	0.000957
2650	0.001155
2662	0.0013695
2674	0.001617
2686	0.0017325
2698	0.0017325
2710	0.0017325
2722	0.0019305
2734	0.00231
2746	0.002805
2758	0.002904
2770	0.0031185
2782	0.003696
2794	0.0046365
2806	0.00594
2818	0.008052
2830	0.0115665
2842	0.018645
2854	0.037125
2866	0.060027
2878	0.0655215
2890	0.060324
2902	0.0610335
2914	0.087054
2926	0.133535
2938	0.165
2950	0.143253
2962	0.138055
2974	0.121688
2986	0.05808
2998	0.028149
3010	0.0158895
3022	0.01056
3034	0.0077715
3046	0.0056595
3058	0.00429
3070	0.0034485
3082	0.002937
3094	0.002574
3106	0.0022275
3118	0.001947
3130	0.00165
3142	0.0015015
3154	0.001287
3166	0.0012045
3178	0.001122
3190	0.000924
3202	0.0007755
3214	0.000594
3226	0.0004455
3238	0.000297
3250	0.000198
3262	0.000165
3274	0.000165
3286	9.9e-05
3298	0.0001155
3310	9.9e-05
3322	0.0001155
3334	8.25e-05
3346	3.3e-05
3358	3.3e-05
3370	9.9e-05
3382	6.6e-05
3394	4.95e-05
3406	0.000198
3418	0.000165
3430	0.000198
3442	0.000264
3454	0.0003795
3466	0.000693
3478	0.0012375
3490	0.0013035
3502	0.0009075
3514	0.0004785
3526	0.00033
3538	0.0001155
3550	6.6e-05
3562	8.25e-05
3574	6.6e-05
3586	6.6e-05
3598	6.6e-05
3610	3.3e-05
3622	8.25e-05
3634	0.000165
3646	0.000198
3658	0.0002145
3670	0.0001815
3682	0.000198
3694	0.000198
3706	0.000231
3718	0.0002145
3730	0.0002475
3742	0.0002145
3754	0.0002475
3766	0.000264
3778	0.0002475
3790	0.0002805
3802	0.000297
3814	0.0003465
3826	0.0002805
3838	0.0003795
