Infrared Spectrum: 3-Hexanone
Formula: C 6 H 12 O
CAS: 589-38-8
State: gas
Instrument: HP-GC/MS/IRD
Origin: NIST Mass Spectrometry Data Center
1/CM	ABSORBANCE
550	0.0005456
562	0.0002432
574	0.000272
586	0.0002352
598	0.0001488
610	0.0001904
622	0.00024
634	0.000208
646	9.6e-05
658	5.44e-05
670	9.92e-05
682	2.24e-05
694	5.6e-05
706	7.36e-05
718	8.8e-05
730	0.0001872
742	0.0002208
754	0.0003664
766	0.0004048
778	0.0003712
790	0.0004432
802	0.000544
814	0.0005648
826	0.0005952
838	0.0005312
850	0.0004896
862	0.0005264
874	0.000656
886	0.0009104
898	0.0008384
910	0.0004128
922	0.000312
934	0.000392
946	0.0007312
958	0.0012448
970	0.0015248
982	0.0015648
994	0.0014112
1006	0.0014832
1018	0.0017872
1030	0.0016544
1042	0.0012736
1054	0.0010704
1066	0.0009632
1078	0.0010944
1090	0.0017232
1102	0.0023584
1114	0.003024
1126	0.0037216
1138	0.0038032
1150	0.0035696
1162	0.0037152
1174	0.0030416
1186	0.0018752
1198	0.001152
1210	0.000976
1222	0.0011248
1234	0.0010864
1246	0.0011088
1258	0.00132
1270	0.001512
1282	0.0015248
1294	0.001376
1306	0.0014928
1318	0.0019424
1330	0.0026352
1342	0.0036432
1354	0.0044144
1366	0.0041216
1378	0.003272
1390	0.0026416
1402	0.002344
1414	0.0025456
1426	0.0028064
1438	0.00292
1450	0.0033008
1462	0.0035584
1474	0.0028416
1486	0.0016384
1498	0.0009472
1510	0.0006688
1522	0.0004832
1534	0.0003856
1546	0.000272
1558	0.0003088
1570	0.0002432
1582	0.0002304
1594	0.0002464
1606	0.000256
1618	0.0003136
1630	0.0003456
1642	0.000432
1654	0.0005552
1666	0.0008112
1678	0.0013936
1690	0.0027216
1702	0.0062128
1714	0.0120672
1726	0.016
1738	0.0135552
1750	0.0066432
1762	0.0024064
1774	0.0010656
1786	0.0005632
1798	0.0003792
1810	0.0002704
1822	0.0002064
1834	0.0001616
1846	0.0001312
1858	0.0001104
1870	9.76e-05
1882	6.88e-05
1894	0.0001072
1906	9.12e-05
1918	7.04e-05
1930	6.24e-05
1942	5.76e-05
1954	5.6e-05
1966	3.2e-05
1978	5.28e-05
1990	2.4e-05
2002	5.6e-05
2014	5.28e-05
2026	6.4e-05
2038	6.08e-05
2050	3.04e-05
2062	3.52e-05
2074	1.6e-05
2086	3.84e-05
2098	5.44e-05
2110	3.04e-05
2122	3.04e-05
2134	2.88e-05
2146	4.64e-05
2158	5.44e-05
2170	1.28e-05
2182	4.64e-05
2194	1.6e-05
2206	1.92e-05
2218	2.08e-05
2230	2.56e-05
2242	0
2254	3.52e-05
2266	7.2e-05
2278	5.76e-05
2290	3.52e-05
2302	6.08e-05
2314	5.92e-05
2326	8e-05
2338	7.36e-05
2350	9.76e-05
2362	0.0001216
2374	0.0001072
2386	8.8e-05
2398	8e-05
2410	5.76e-05
2422	9.76e-05
2434	6.88e-05
2446	8e-05
2458	6.4e-05
2470	7.68e-05
2482	7.04e-05
2494	7.04e-05
2506	4.48e-05
2518	4.32e-05
2530	6.08e-05
2542	2.72e-05
2554	5.12e-05
2566	7.04e-05
2578	5.28e-05
2590	6.4e-05
2602	0.0001104
2614	9.12e-05
2626	8.8e-05
2638	9.28e-05
2650	0.0001184
2662	0.0001456
2674	0.0001472
2686	0.0001808
2698	0.0001952
2710	0.00016
2722	0.0002208
2734	0.0003232
2746	0.0003904
2758	0.0003712
2770	0.0004288
2782	0.000464
2794	0.000608
2806	0.0007792
2818	0.000984
2830	0.0012656
2842	0.0015536
2854	0.002152
2866	0.0034496
2878	0.0059664
2890	0.007888
2902	0.0085696
2914	0.0090416
2926	0.0097536
2938	0.0117024
2950	0.013376
2962	0.0146992
2974	0.0156912
2986	0.0129472
2998	0.0075184
3010	0.0038592
3022	0.002256
3034	0.0014464
3046	0.0010496
3058	0.000792
3070	0.0006576
3082	0.0005696
3094	0.0005024
3106	0.0004496
3118	0.0003968
3130	0.0003296
3142	0.0003056
3154	0.000264
3166	0.0002416
3178	0.000256
3190	0.0001952
3202	0.0001344
3214	8.48e-05
3226	0.0001056
3238	7.52e-05
3250	0.0001008
3262	4.32e-05
3274	7.52e-05
3286	4.64e-05
3298	5.44e-05
3310	4e-05
3322	9.76e-05
3334	8.32e-05
3346	0.0001008
3358	0.0001264
3370	0.0001168
3382	0.0001168
3394	0.0001792
3406	0.0001936
3418	0.000336
3430	0.0003984
3442	0.00044
3454	0.0002464
3466	0.0001872
3478	0.0001568
3490	0.0001728
3502	0.0001024
3514	0.0001536
3526	9.6e-05
3538	0.0001024
3550	0.0001488
3562	9.28e-05
3574	0.0001264
3586	0.0001008
3598	0.0001184
3610	8.16e-05
3622	6.4e-05
3634	0.0001616
3646	0.0001632
3658	0.0001104
3670	0.0001872
3682	0.0001632
3694	0.0001728
3706	0.000168
3718	0.0001184
3730	5.92e-05
3742	0.0001952
3754	0.00016
3766	0.000112
3778	0.000144
3790	0.0002176
3802	0.000144
3814	0.0001456
3826	0.0001584
3838	0.000144
