Infrared Spectrum: BENZENE, 1-BROMO-4-IODO-
Formula: C6 H4 Br I
CAS: 589-87-7
State: SOLUTION (CCl4 FOR 2-10.2, CS2 FOR 9.7-16 MICRON) VS SOLVENT
Melting point: 91-93 C
Class: COBLENTZ III
Instrument: BAIRD (GRATING)
Instrument parameters: NaCl PRISM
Sampling: TRANSMISSION
Path length: 0.01 CM, AND 0.01 CM , REFERENCE CELLS : 0.005 CM
Resolution: 2
Origin: WYANDOTTE CHEMICALS CORP.
1/CM	TRANSMITTANCE
4000	0.9613
3991	0.9613
3982	0.962
3973	0.9631
3964	0.9644
3955	0.9664
3946	0.9686
3937	0.9697
3928	0.9701
3919	0.9705
3910	0.9688
3901	0.9659
3892	0.9633
3883	0.9608
3874	0.9615
3865	0.9625
3856	0.9637
3847	0.9647
3838	0.9655
3829	0.9663
3820	0.9668
3811	0.9668
3802	0.9668
3793	0.9668
3784	0.9668
3775	0.9668
3766	0.9668
3757	0.9673
3748	0.9677
3739	0.9681
3730	0.9691
3721	0.9717
3712	0.9743
3703	0.9761
3694	0.9773
3685	0.9783
3676	0.9789
3667	0.9791
3658	0.9794
3649	0.9797
3640	0.9798
3631	0.9797
3622	0.9785
3613	0.9773
3604	0.9764
3595	0.9757
3586	0.9751
3577	0.9752
3568	0.9759
3559	0.9766
3550	0.9777
3541	0.979
3532	0.98
3523	0.9808
3514	0.9816
3505	0.9824
3496	0.9825
3487	0.9816
3478	0.9806
3469	0.9797
3460	0.9787
3451	0.9777
3442	0.9768
3433	0.976
3424	0.9758
3415	0.9771
3406	0.9786
3397	0.98
3388	0.9817
3379	0.9838
3370	0.9859
3361	0.9865
3352	0.987
3343	0.9852
3334	0.9831
3325	0.9812
3316	0.9799
3307	0.9786
3298	0.9788
3289	0.9808
3280	0.9828
3271	0.9848
3262	0.9868
3253	0.9875
3244	0.9861
3235	0.9831
3226	0.9796
3217	0.976
3208	0.9725
3199	0.9694
3190	0.9663
3181	0.9646
3172	0.9634
3163	0.9648
3154	0.9656
3145	0.9659
3136	0.9663
3127	0.9654
3118	0.959
3109	0.9488
3100	0.9387
3091	0.9261
3082	0.9182
3073	0.9167
3064	0.923
3055	0.9324
3046	0.9414
3037	0.951
3028	0.9602
3019	0.9662
3010	0.9687
3001	0.9697
2992	0.97
2983	0.9698
2974	0.9702
2965	0.9736
2956	0.9774
2947	0.9811
2938	0.9849
2929	0.9888
2920	0.9921
2911	0.9935
2902	0.9941
2893	0.991
2884	0.9875
2875	0.9825
2866	0.9773
2857	0.9718
2848	0.9686
2839	0.966
2830	0.964
2821	0.9643
2812	0.9645
2803	0.9699
2794	0.9781
2785	0.9853
2776	0.9864
2767	0.9851
2758	0.9838
2749	0.9825
2740	0.9818
2731	0.9813
2722	0.9806
2713	0.9814
2704	0.9834
2695	0.9868
2686	0.9908
2677	0.9945
2668	0.9983
2659	1.0003
2650	0.9978
2641	0.9933
2632	0.9875
2623	0.9846
2614	0.9832
2605	0.9827
2596	0.9827
2587	0.9827
2578	0.9827
2569	0.9825
2560	0.9818
2551	0.9799
2542	0.9785
2533	0.9842
2524	0.9885
2515	0.9896
2506	0.9882
2497	0.9865
2488	0.9838
2479	0.9814
2470	0.9796
2461	0.9778
2452	0.9798
2443	0.9835
2434	0.9905
2425	0.9962
2416	1.001
2407	1.0034
2398	1.0048
2389	1.0039
2380	0.9996
2371	0.9935
2362	0.9884
2353	0.9866
2344	0.9868
2335	0.9898
2326	0.9928
2317	0.996
2308	0.9998
2299	1.0033
2290	1.0058
2281	1.003
2272	0.9925
2263	0.9796
2254	0.966
2245	0.9655
2236	0.9683
2227	0.9703
2218	0.9707
2209	0.9751
2200	0.9818
2191	0.9895
2182	0.9978
2173	1.0053
2164	1.0113
2155	1.0128
2146	1.0117
2137	1.0093
2128	1.0049
2119	1.0002
2110	0.9964
2101	0.9951
2092	0.9954
2083	0.9987
2074	1.0041
2065	1.0098
2056	1.0144
2047	1.0152
2038	1.0142
2029	1.0132
2020	1.0123
2011	1.0109
2002	1.0082
1993	1.0006
1984	0.9936
1975	0.9885
1966	0.9936
1957	1.0011
1948	1.0062
1939	1.008
1930	1.0084
1921	1.007
1912	1.0039
1903	0.9959
1894	0.9668
1885	0.8228
1876	0.8239
1867	0.9163
1858	0.9612
1849	0.9873
1840	1.001
1831	1.0092
1822	1.013
1813	1.013
1804	1.0087
1795	1.0001
1786	0.9813
1777	0.9549
1768	0.9237
1759	0.9328
1750	0.958
1741	0.9793
1732	0.9955
1723	1.0085
1714	1.0146
1705	1.0146
1696	1.0112
1687	1.0044
1678	0.9917
1669	0.9837
1660	0.9801
1651	0.9621
1642	0.8609
1633	0.8086
1624	0.8925
1615	0.9283
1606	0.8765
1597	0.7891
1588	0.781
1579	0.743
1570	0.6733
1561	0.6385
1552	0.6612
1543	0.715
1534	0.7434
1525	0.765
1516	0.8412
1507	0.8775
1498	0.8278
1489	0.5324
1480	0.071
1471	0.39
1462	0.4393
1453	0.855
1444	0.9337
1435	0.9651
1426	0.9663
1417	0.8742
1408	0.7658
1399	0.8813
1390	0.5803
1381	0.3308
1372	0.8418
1363	0.948
1354	0.9774
1345	0.9733
1336	0.9586
1327	0.975
1318	0.9639
1309	0.9383
1300	0.9287
1291	0.8907
1282	0.9199
1273	0.9307
1264	0.8907
1255	0.7171
1246	0.8098
1237	0.8797
1228	0.8544
1219	0.7625
1210	0.8003
1201	0.8038
1192	0.8132
1183	0.8517
1174	0.8751
1165	0.8585
1156	0.9118
1147	0.9656
1138	0.9877
1129	0.9921
1120	0.9778
1111	0.8473
1102	0.4341
1093	0.8203
1084	0.7221
1075	0.1011
1066	0.2298
1057	0.7151
1048	0.8831
1039	0.9335
1030	0.9516
1021	0.9189
1012	0.769
1003	0.0725
994	0.1491
985	0.7319
976	0.8701
967	0.8968
958	0.8649
949	0.8532
940	0.8848
931	0.8693
922	0.9153
913	0.9355
904	0.9455
895	0.9521
886	0.9518
877	0.934
868	0.9138
859	0.8891
850	0.8745
841	0.8927
832	0.9002
823	0.8245
814	0.5598
805	0.1098
796	0.1287
787	0.658
778	0.834
769	0.9034
760	0.917
751	0.8685
742	0.9208
733	0.9125
724	0.8678
715	0.9178
706	0.9271
697	0.8964
688	0.8799
679	0.8804
670	0.8761
661	0.8685
652	0.8528
643	0.8528
634	0.8552
625	0.8464
