Infrared Spectrum: 1-n-Butylpyrrole
Formula: C 8 H 13 N
CAS: 589-33-3
State: gas
Instrument: HP-GC/MS/IRD
Origin: NIST Mass Spectrometry Data Center
1/CM	ABSORBANCE
550	0.000152
562	1e-05
574	0.000178
586	0.000132
598	0.000668
610	0.001277
622	0.001101
634	0.000643
646	0.000521
658	0.000564
670	0.000675
682	0.001033
694	0.002159
706	0.006405
718	0.01
730	0.005255
742	0.001863
754	0.001199
766	0.000813
778	0.000564
790	0.000369
802	0.000319
814	0.000277
826	0.000202
838	0.000215
850	0.000136
862	0.000181
874	0.000256
886	0.000323
898	0.000191
910	0.000195
922	0.000188
934	0.000239
946	0.000418
958	0.000757
970	0.000879
982	0.000584
994	0.00038
1006	0.000286
1018	0.000225
1030	0.000329
1042	0.000709
1054	0.001313
1066	0.001596
1078	0.002541
1090	0.004281
1102	0.00192
1114	0.000542
1126	0.000262
1138	0.00015
1150	0.000164
1162	0.000153
1174	0.000165
1186	0.000143
1198	0.000174
1210	0.000313
1222	0.000335
1234	0.00062
1246	0.000989
1258	0.001627
1270	0.003299
1282	0.004327
1294	0.002927
1306	0.001517
1318	0.000923
1330	0.000965
1342	0.001212
1354	0.001562
1366	0.001914
1378	0.001829
1390	0.001625
1402	0.001336
1414	0.000978
1426	0.000863
1438	0.001288
1450	0.001961
1462	0.002129
1474	0.001701
1486	0.002506
1498	0.003635
1510	0.002145
1522	0.001847
1534	0.002318
1546	0.00156
1558	0.000658
1570	0.000317
1582	0.000222
1594	0.000213
1606	0.000233
1618	0.000217
1630	0.000194
1642	0.000194
1654	0.00025
1666	0.000347
1678	0.000338
1690	0.000202
1702	0.000308
1714	0.000396
1726	0.000159
1738	9.5e-05
1750	9.2e-05
1762	7e-05
1774	0.000114
1786	0.00011
1798	0.000115
1810	7.8e-05
1822	8.3e-05
1834	6.2e-05
1846	7.2e-05
1858	7.5e-05
1870	0.000108
1882	8.1e-05
1894	5.4e-05
1906	7.5e-05
1918	9.5e-05
1930	7.4e-05
1942	9.2e-05
1954	8.1e-05
1966	7.9e-05
1978	5.9e-05
1990	0.000105
2002	7e-05
2014	7.8e-05
2026	2.8e-05
2038	4.5e-05
2050	4.9e-05
2062	4e-05
2074	5.1e-05
2086	3.5e-05
2098	1.2e-05
2110	7.2e-05
2122	6.7e-05
2134	5.3e-05
2146	5.7e-05
2158	8.1e-05
2170	4e-05
2182	4.1e-05
2194	7.4e-05
2206	6.6e-05
2218	6.3e-05
2230	8.9e-05
2242	9.2e-05
2254	8.7e-05
2266	8e-05
2278	4.9e-05
2290	7e-06
2302	2.4e-05
2314	4.5e-05
2326	4.6e-05
2338	5.3e-05
2350	7.1e-05
2362	3.6e-05
2374	4.3e-05
2386	6.3e-05
2398	7e-05
2410	9.6e-05
2422	8.1e-05
2434	0.000112
2446	0.000149
2458	0.000156
2470	0.00014
2482	0.00012
2494	0.000137
2506	0.000109
2518	8.1e-05
2530	0.000123
2542	9.6e-05
2554	0.000151
2566	0.000116
2578	0.000167
2590	0.000167
2602	0.000162
2614	0.000123
2626	0.000116
2638	0.000183
2650	0.000176
2662	0.000183
2674	0.00019
2686	0.000227
2698	0.000204
2710	0.000242
2722	0.000207
2734	0.000248
2746	0.000271
2758	0.000331
2770	0.000342
2782	0.00041
2794	0.000494
2806	0.000488
2818	0.000532
2830	0.000634
2842	0.000909
2854	0.0015
2866	0.002453
2878	0.003558
2890	0.003598
2902	0.003076
2914	0.003845
2926	0.005446
2938	0.007099
2950	0.007419
2962	0.00757
2974	0.006754
2986	0.00344
2998	0.001492
3010	0.000856
3022	0.000656
3034	0.000552
3046	0.000423
3058	0.000362
3070	0.000309
3082	0.000332
3094	0.00043
3106	0.00086
3118	0.001284
3130	0.00097
3142	0.000621
3154	0.000341
3166	0.000216
3178	0.000239
3190	0.00016
3202	0.000179
3214	0.000141
3226	0.000125
3238	0.000107
3250	0.000163
3262	0.000123
3274	0.000118
3286	4.6e-05
3298	0.000117
3310	0.000196
3322	0.000117
3334	0.000108
3346	0.000191
3358	0.000105
3370	0.000101
3382	0.000111
3394	0.000144
3406	0.000147
3418	0.000108
3430	9.8e-05
3442	0.000151
3454	6.2e-05
3466	0.00014
3478	0.00015
3490	0.000104
3502	0.000139
3514	0.000107
3526	0.000109
3538	9.2e-05
3550	3.1e-05
3562	6.8e-05
3574	0.000108
3586	2.5e-05
3598	0.000174
3610	6.3e-05
3622	0.000129
3634	5.9e-05
3646	0.000117
3658	8.7e-05
3670	6.9e-05
3682	2.6e-05
3694	0.000122
3706	0.000112
3718	3e-05
3730	0.000117
3742	0.000103
3754	0.000151
3766	0.00014
3778	6.3e-05
3790	0.000107
3802	7.7e-05
3814	0.000108
3826	0.000126
3838	0.000187
