Infrared Spectrum: 4-Bromobenzyl chloride
Formula: C 7 H 6 Br Cl
CAS: 589-17-3
State: gas
Origin: EPA-IR VAPOR PHASE LIBRARY
1/CM	ABSORBANCE
549.8	0.002001
559.445	0.001951
569.09	0.0012259
578.734	0.001901
588.379	0.003161
598.024	0.002751
607.669	0.006541
617.313	0.008661
626.958	0.005711
636.603	0.004561
646.248	0.006231
655.893	0.008411
665.537	0.013881
675.182	0.021361
684.827	0.028351
694.472	0.023171
704.116	0.018891
713.761	0.026011
723.406	0.044291
733.051	0.059831
742.695	0.043071
752.34	0.025061
761.985	0.018321
771.63	0.014861
781.275	0.018081
790.919	0.035701
800.564	0.051921
810.209	0.083781
819.854	0.078771
829.498	0.049191
839.143	0.023041
848.788	0.010551
858.433	0.005601
868.078	0.004541
877.722	0.003921
887.367	0.004101
897.012	0.004351
906.657	0.004221
916.301	0.003661
925.946	0.003831
935.591	0.003661
945.236	0.003171
954.88	0.003871
964.525	0.004611
974.17	0.005131
983.815	0.004311
993.46	0.005431
1003.1	0.022031
1012.75	0.080931
1022.39	0.025541
1032.04	0.004571
1041.68	0.004421
1051.33	0.004811
1060.97	0.019781
1070.62	0.102811
1080.26	0.053461
1089.91	0.014241
1099.55	0.011221
1109.2	0.009821
1118.84	0.006551
1128.49	0.003961
1138.13	0.003581
1147.78	0.003921
1157.42	0.003121
1167.07	0.003741
1176.71	0.004771
1186.36	0.004841
1196	0.004881
1205.64	0.005811
1215.29	0.008731
1224.93	0.009951
1234.58	0.008651
1244.22	0.011171
1253.87	0.021621
1263.51	0.054721
1273.16	0.049531
1282.8	0.021641
1292.45	0.014401
1302.09	0.009001
1311.74	0.006401
1321.38	0.004931
1331.03	0.004071
1340.67	0.003931
1350.32	0.004001
1359.96	0.004111
1369.61	0.005201
1379.25	0.008181
1388.9	0.012501
1398.54	0.016721
1408.18	0.016591
1417.83	0.013181
1427.47	0.011531
1437.12	0.011071
1446.76	0.012561
1456.41	0.011271
1466.05	0.012211
1475.7	0.030471
1485.34	0.092951
1494.99	0.086031
1504.63	0.017371
1514.28	0.007061
1523.92	0.004391
1533.57	0.003791
1543.21	0.003821
1552.86	0.003911
1562.5	0.005181
1572.15	0.006611
1581.79	0.013461
1591.44	0.026781
1601.08	0.017831
1610.73	0.005801
1620.37	0.006331
1630.01	0.005751
1639.66	0.005621
1649.3	0.004751
1658.95	0.003401
1668.59	0.002501
1678.24	0.002541
1687.88	0.003101
1697.53	0.001881
1707.17	0.001811
1716.82	0.001791
1726.46	0.001961
1736.11	0.002231
1745.75	0.002131
1755.4	0.002861
1765.04	0.003981
1774.69	0.005291
1784.33	0.002641
1793.98	0.0016185
1803.62	0.001334
1813.27	0.0010031
1822.91	0.0012006
1832.55	0.0013035
1842.2	0.0014639
1851.84	0.001671
1861.49	0.001891
1871.13	0.003001
1880.78	0.004731
1890.42	0.005871
1900.07	0.005311
1909.71	0.003811
1919.36	0.002531
1929	0.0014909
1938.65	0.001352
1948.29	0.0014216
1957.94	0.0012114
1967.58	0.0012168
1977.23	0.0010278
1986.87	0.0010774
1996.52	0.0010068
2006.16	0.0011109
2015.81	0.0011643
2025.45	0.0013703
2035.1	0.0013072
2044.74	0.0010914
2054.38	0.0013443
2064.03	0.0013986
2073.67	0.0014325
2083.32	0.0013068
2092.96	0.0012314
2102.61	0.0013583
2112.25	0.000983
2121.9	0.0009483
2131.54	0.0010252
2141.19	0.0010144
2150.83	0.0010452
2160.48	0.0008139
2170.12	0.00062828
2179.77	0.0008054
2189.41	0.0009693
2199.06	0.0007695
2208.7	0.00068181
2218.35	0.0009998
2227.99	0.0008585
2237.64	0.0009172
2247.28	0.0010162
2256.92	0.0012857
2266.57	0.0013261
2276.21	0.0016
2285.86	0.001811
2295.5	0.001761
2305.15	0.0013629
2314.79	0.001721
2324.44	0.0011695
2334.08	0.001661
2343.73	0.0015774
2353.37	0.001691
2363.02	0.0012899
2372.66	0.001305
2382.31	0.0012369
2391.95	0.0013755
2401.6	0.0012353
2411.24	0.0013769
2420.89	0.0010486
2430.53	0.0009344
2440.18	0.0009126
2449.82	0.0010503
2459.47	0.001196
2469.11	0.0011246
2478.75	0.0010753
2488.4	0.0008829
2498.04	0.0010065
2507.69	0.0008369
2517.33	0.000893
2526.98	0.0008682
2536.62	0.001443
2546.27	0.0013785
2555.91	0.001691
2565.56	0.0015099
2575.2	0.0013763
2584.85	0.0012657
2594.49	0.0015905
2604.14	0.001621
2613.78	0.0011966
2623.43	0.001196
2633.07	0.0010614
2642.72	0.0008069
2652.36	0.0011615
2662.01	0.0011277
2671.65	0.0013456
2681.29	0.0011716
2690.94	0.0014449
2700.58	0.001354
2710.23	0.0013523
2719.87	0.0015227
2729.52	0.0012843
2739.16	0.0007358
2748.81	0.00071201
2758.45	0.0011571
2768.1	0.0009922
2777.74	0.0013279
2787.39	0.0013537
2797.03	0.001731
2806.68	0.0011539
2816.32	0.0011115
2825.97	0.0012637
2835.61	0.001821
2845.26	0.0013831
2854.9	0.002311
2864.55	0.002731
2874.19	0.003201
2883.84	0.002941
2893.48	0.002881
2903.12	0.002171
2912.77	0.001761
2922.41	0.001661
2932.06	0.003631
2941.7	0.006141
2951.35	0.009791
2960.99	0.013941
2970.64	0.016241
2980.28	0.013381
2989.93	0.010131
2999.57	0.008391
3009.22	0.008331
3018.86	0.009201
3028.51	0.012371
3038.15	0.015051
3047.8	0.011181
3057.44	0.009001
3067.09	0.007781
3076.73	0.007541
3086.38	0.009461
3096.02	0.009281
3105.67	0.005471
3115.31	0.002951
3124.95	0.001671
3134.6	0.0007667
3144.24	0.0014308
3153.89	0.0009458
3163.53	0.0010506
3173.18	0.0010366
3182.82	0.0012314
3192.47	0.000396
3202.11	0.000281
3211.76	0.0008639
3221.4	0.0005661
3231.05	0.0011826
3240.69	0.0010496
3250.34	0.00037
3259.98	0.0007847
3269.63	0.000503
3279.27	0.0005822
3288.92	0.0011006
3298.56	0.001085
3308.21	0.0010741
3317.85	0.0008887
3327.49	0.0009864
3337.14	0.0007249
3346.78	0.000347
3356.43	0.0005625
3366.07	0
3375.72	0.000225
3385.36	0.00071457
3395.01	0.000436
3404.65	0.0010453
3414.3	0.0011383
3423.94	0.00070731
3433.59	0.0009837
3443.23	0.0007633
3452.88	0.00112
3462.52	0.0007105
3472.17	0.0008394
3481.81	0.0005502
3491.46	0.0006028
3501.1	0.00069206
3510.75	0.000494
3520.39	0.0011715
3530.04	0.0012527
3539.68	0.0008658
3549.32	0.0010906
3558.97	0.0010879
3568.61	0.0010375
3578.26	0.000905
3587.9	0.0008467
3597.55	0.0010685
3607.19	0.0008663
3616.84	0.0013182
3626.48	0.001159
3636.13	0.00061799
3645.77	0.0008783
3655.42	0.001404
3665.06	0.001604
3674.71	0.0014867
3684.35	0.001711
3694	0.0012584
3703.64	0.001671
3713.29	0.0014223
3722.93	0.0013153
3732.58	0.0010776
3742.22	0.0009074
3751.86	0.0010185
3761.51	0.0008067
3771.15	0.0005746
3780.8	0.0009973
3790.44	0.000464
3800.09	0.0005841
3809.73	0.00064307
3819.38	0.000421
3829.02	0.0010754
3838.67	0.0009136
3848.31	0.0005848
3857.96	0.0014359
3867.6	0.001651
3877.25	0.0010946
3886.89	0.001671
3896.54	0.0011747
3906.18	0.00067107
3915.83	0.00061358
3925.47	0.0013077
3935.12	0.000732
3944.76	0.0010173
3954.41	0.000356
3964.05	0.001801
3973.69	0.000541
3983.34	0.000625239
3992.98	0.0008117
