Infrared Spectrum: N-Methylphenethylamine
Formula: C 9 H 13 N
CAS: 589-08-2
State: gas
Instrument: HP-GC/MS/IRD
Origin: NIST Mass Spectrometry Data Center
1/CM	ABSORBANCE
550	0.0006489
562	0.0006066
574	0.0008379
586	0.0010062
598	0.0007236
610	0.0003987
622	0.0006399
634	0.0009603
646	0.0013815
658	0.0018873
670	0.0028377
682	0.0045297
694	0.0070371
706	0.0063459
718	0.004518
730	0.004653
742	0.0050625
754	0.0034821
766	0.0017361
778	0.0009324
790	0.0005841
802	0.000369
814	0.0002367
826	0.0001809
838	0.0001116
850	6.84e-05
862	1.26e-05
874	5.94e-05
886	4.41e-05
898	0.0001431
910	0.0002007
922	0.0001377
934	0.0002259
946	0.0002574
958	0.0003321
970	0.0003474
982	0.0004446
994	0.0006345
1006	0.000819
1018	0.001026
1030	0.0011844
1042	0.0005697
1054	0.0003474
1066	0.0006246
1078	0.000819
1090	0.0010386
1102	0.0018909
1114	0.0031248
1126	0.0037584
1138	0.0030213
1150	0.0025686
1162	0.0019539
1174	0.0009342
1186	0.0006426
1198	0.0005706
1210	0.0003726
1222	0.0002052
1234	0.0001368
1246	0.0001287
1258	0.0001377
1270	0.0001377
1282	8.46e-05
1294	0.0001431
1306	0.0001836
1318	0.000315
1330	0.0004347
1342	0.0007614
1354	0.0013113
1366	0.0012204
1378	0.0006633
1390	0.0003897
1402	0.0003654
1414	0.0005607
1426	0.0010431
1438	0.0021852
1450	0.0035289
1462	0.0034092
1474	0.0032769
1486	0.0029664
1498	0.0027099
1510	0.0010737
1522	0.0004104
1534	0.0002817
1546	0.0002403
1558	0.0002133
1570	0.0003024
1582	0.0005625
1594	0.0010539
1606	0.0011565
1618	0.0004572
1630	0.0001926
1642	0.0002151
1654	0.0001863
1666	0.00018
1678	0.0001251
1690	3.42e-05
1702	1.35e-05
1714	7.11e-05
1726	8.19e-05
1738	9.09e-05
1750	8.46e-05
1762	6.75e-05
1774	0.0001152
1786	0.0002853
1798	0.0003222
1810	0.0001935
1822	0.0001341
1834	0.0001116
1846	0.0001665
1858	0.0002331
1870	0.0002745
1882	0.0002043
1894	9.45e-05
1906	7.65e-05
1918	0.0001629
1930	0.0002817
1942	0.0003501
1954	0.0002682
1966	9.36e-05
1978	3.15e-05
1990	2.79e-05
2002	3.6e-05
2014	1.62e-05
2026	0
2038	2.43e-05
2050	1.62e-05
2062	3.78e-05
2074	4.77e-05
2086	6.75e-05
2098	5.04e-05
2110	6.12e-05
2122	2.88e-05
2134	3.42e-05
2146	4.23e-05
2158	2.16e-05
2170	4.41e-05
2182	6.3e-05
2194	1.53e-05
2206	7.2e-05
2218	5.49e-05
2230	6.39e-05
2242	5.4e-05
2254	8.1e-05
2266	4.23e-05
2278	8.28e-05
2290	7.29e-05
2302	0.0001161
2314	0.0001566
2326	9.63e-05
2338	0.0001161
2350	0.0001431
2362	0.0001206
2374	0.0001071
2386	8.55e-05
2398	0.000108
2410	7.92e-05
2422	9.45e-05
2434	0.0001296
2446	0.0001278
2458	0.000135
2470	0.000126
2482	0.0001323
2494	0.000108
2506	0.0001134
2518	0.0001017
2530	0.0001422
2542	0.0001737
2554	0.0001881
2566	0.0002196
2578	0.0002574
2590	0.0002736
2602	0.000261
2614	0.000297
2626	0.0003627
2638	0.0003438
2650	0.0003825
2662	0.000459
2674	0.0005184
2686	0.0006507
2698	0.0007875
2710	0.0007776
2722	0.0007803
2734	0.0008532
2746	0.0010449
2758	0.0014148
2770	0.002151
2782	0.003609
2794	0.005985
2806	0.0068301
2818	0.0057177
2830	0.0050256
2842	0.0049914
2854	0.0056475
2866	0.0055314
2878	0.0050985
2890	0.0055926
2902	0.0062694
2914	0.0068247
2926	0.007947
2938	0.0089559
2950	0.0085365
2962	0.0062784
2974	0.004788
2986	0.0032274
2998	0.0020358
3010	0.0023121
3022	0.0038277
3034	0.0051408
3046	0.0036909
3058	0.0034425
3070	0.0047574
3082	0.0036027
3094	0.0024174
3106	0.0014499
3118	0.0007983
3130	0.0004527
3142	0.0002736
3154	0.0002502
3166	0.0002421
3178	0.0001908
3190	0.0001287
3202	0.0002052
3214	0.0001386
3226	6.57e-05
3238	6.12e-05
3250	9.45e-05
3262	0.000117
3274	6.57e-05
3286	7.47e-05
3298	5.49e-05
3310	4.23e-05
3322	8.28e-05
3334	6.75e-05
3346	0.0001449
3358	0.0001476
3370	0.0001485
3382	8.55e-05
3394	8.28e-05
3406	6.21e-05
3418	8.46e-05
3430	5.49e-05
3442	8.19e-05
3454	6.39e-05
3466	9.9e-05
3478	0.0001251
3490	7.38e-05
3502	8.37e-05
3514	0.0001179
3526	2.97e-05
3538	5.4e-05
3550	8.91e-05
3562	5.31e-05
3574	5.76e-05
3586	7.29e-05
3598	1.08e-05
3610	0.0001044
3622	8.46e-05
3634	3.42e-05
3646	0.0001539
3658	0.0001143
3670	0.0001062
3682	8.19e-05
3694	0.0001503
3706	0.0001206
3718	6.93e-05
3730	0.0001089
3742	8.01e-05
3754	9.36e-05
3766	0.0001188
3778	6.03e-05
3790	0.0001593
3802	2.79e-05
3814	7.65e-05
3826	0.0001539
3838	3.69e-05
