Infrared Spectrum: s-Butyl formate
Formula: C 5 H 10 O 2
CAS: 589-40-2
State: gas
Instrument: HP-GC/MS/IRD
Origin: NIST Mass Spectrometry Data Center
1/CM	ABSORBANCE
550	0.000135
562	0.0001485
574	0.0002325
586	0.0001185
598	3.6e-05
610	6.9e-05
622	9.15e-05
634	0.0001575
646	0.000108
658	0.0001395
670	0.0001455
682	2.25e-05
694	0.000105
706	0.0001605
718	0.000183
730	0.0001395
742	0.0002175
754	0.000255
766	0.000234
778	0.0002265
790	0.0002355
802	0.000204
814	0.0002265
826	0.0003375
838	0.0006195
850	0.000702
862	0.0006975
874	0.000603
886	0.000411
898	0.000204
910	0.000252
922	0.000258
934	0.0002205
946	0.0002805
958	0.000492
970	0.000645
982	0.000675
994	0.0006675
1006	0.0005625
1018	0.000516
1030	0.000387
1042	0.000399
1054	0.0004635
1066	0.000411
1078	0.000915
1090	0.001575
1102	0.0022785
1114	0.002415
1126	0.002559
1138	0.002622
1150	0.0038625
1162	0.008091
1174	0.0142305
1186	0.013944
1198	0.006414
1210	0.0014535
1222	0.0007305
1234	0.000501
1246	0.0004065
1258	0.0003765
1270	0.0003525
1282	0.000282
1294	0.0002595
1306	0.000234
1318	0.00024
1330	0.0003135
1342	0.0004275
1354	0.000504
1366	0.0006645
1378	0.0009225
1390	0.000945
1402	0.0006195
1414	0.0003285
1426	0.0003075
1438	0.000462
1450	0.000678
1462	0.000828
1474	0.00069
1486	0.000459
1498	0.0002505
1510	0.00021
1522	0.0002145
1534	0.000183
1546	0.0001665
1558	0.000204
1570	0.0001695
1582	0.00021
1594	0.0002295
1606	0.000219
1618	0.000183
1630	0.0002295
1642	0.0002175
1654	0.000246
1666	0.0002595
1678	0.000363
1690	0.0005955
1702	0.0009465
1714	0.001884
1726	0.005655
1738	0.01119
1750	0.010812
1762	0.004542
1774	0.0018195
1786	0.001314
1798	0.00057
1810	0.000294
1822	0.000198
1834	0.00015
1846	0.000165
1858	0.0001185
1870	9.3e-05
1882	0.0001185
1894	0.000126
1906	0.000126
1918	0.0001185
1930	0.0001335
1942	0.0001545
1954	0.000144
1966	0.0001485
1978	0.00012
1990	0.0001425
2002	0.0001545
2014	0.0001455
2026	0.000192
2038	0.000147
2050	0.000111
2062	8.7e-05
2074	9.15e-05
2086	7.8e-05
2098	6.45e-05
2110	9.9e-05
2122	6.3e-05
2134	8.25e-05
2146	6.45e-05
2158	8.4e-05
2170	9.75e-05
2182	6.75e-05
2194	7.05e-05
2206	6.15e-05
2218	7.95e-05
2230	0.000111
2242	7.05e-05
2254	6.9e-05
2266	0.000105
2278	0.000102
2290	9.9e-05
2302	0.000123
2314	0.000156
2326	0.0001575
2338	0.0002535
2350	0.0002385
2362	0.000156
2374	0.000123
2386	7.2e-05
2398	8.25e-05
2410	3.75e-05
2422	6.15e-05
2434	0.0001035
2446	3.9e-05
2458	8.7e-05
2470	7.2e-05
2482	7.5e-05
2494	6.45e-05
2506	8.55e-05
2518	7.05e-05
2530	0.0001215
2542	0.0001125
2554	6.15e-05
2566	7.95e-05
2578	7.05e-05
2590	5.25e-05
2602	4.05e-05
2614	3.15e-05
2626	4.65e-05
2638	3.45e-05
2650	5.85e-05
2662	4.2e-05
2674	0.000117
2686	0.0001005
2698	0.0001005
2710	7.05e-05
2722	0.0001605
2734	0.000156
2746	0.000141
2758	0.0001545
2770	0.000102
2782	6e-05
2794	0.0001335
2806	0.0001575
2818	0.000144
2830	0.0002415
2842	0.0002715
2854	0.000405
2866	0.00063
2878	0.0009465
2890	0.001566
2902	0.002349
2914	0.002961
2926	0.003015
2938	0.0027
2950	0.0023505
2962	0.0023985
2974	0.003069
2986	0.003492
2998	0.002124
3010	0.000858
3022	0.0003615
3034	0.0002325
3046	0.0001875
3058	0.0001575
3070	0.000147
3082	0.0001905
3094	0.000264
3106	0.000198
3118	0.0001725
3130	0.0001245
3142	0.0001785
3154	0.0001155
3166	0.000159
3178	0.0001575
3190	0.0001725
3202	0.000108
3214	5.85e-05
3226	6.15e-05
3238	7.5e-05
3250	0.000114
3262	6.6e-05
3274	2.7e-05
3286	8.25e-05
3298	0.0001245
3310	4.35e-05
3322	4.2e-05
3334	6.9e-05
3346	0.000114
3358	6.6e-05
3370	9.6e-05
3382	0.000162
3394	2.25e-05
3406	6.3e-05
3418	8.1e-05
3430	9.6e-05
3442	0.0001215
3454	0.000144
3466	0.000309
3478	0.000279
3490	0.000162
3502	0.000159
3514	8.1e-05
3526	3.45e-05
3538	9.6e-05
3550	3.9e-05
3562	9.75e-05
3574	9e-05
3586	3.15e-05
3598	5.85e-05
3610	0.0001365
3622	0.000171
3634	0.0001455
3646	3e-05
3658	0.0001275
3670	0.000186
3682	0.0001365
3694	0.0001185
3706	0.000126
3718	5.4e-05
3730	7.5e-05
3742	0.0001605
3754	8.55e-05
3766	0.0001215
3778	8.7e-05
3790	0.0001695
3802	0.000123
3814	6.75e-05
3826	8.1e-05
3838	0.0001335
