Infrared Spectrum: 4-Methylheptane
Formula: C 8 H 18
CAS: 589-53-7
State: gas
Instrument: HP-GC/MS/IRD
Origin: NIST Mass Spectrometry Data Center
1/CM	ABSORBANCE
550	0.00035
562	6e-05
574	3.5e-05
586	0.00012
598	7e-05
610	0.00013
622	0.00019
634	0.00013
646	0.00016
658	0.000235
670	0.00018
682	0.000285
694	0.000305
706	0.000295
718	0.00044
730	0.000715
742	0.00093
754	0.000815
766	0.000535
778	0.000385
790	0.00033
802	0.000365
814	0.00035
826	0.00036
838	0.000375
850	0.000365
862	0.0004
874	0.00045
886	0.00053
898	0.00057
910	0.000485
922	0.00049
934	0.000715
946	0.001015
958	0.00083
970	0.000395
982	0.000275
994	0.000265
1006	0.00025
1018	0.00023
1030	0.000245
1042	0.000345
1054	0.000345
1066	0.00039
1078	0.0004
1090	0.000335
1102	0.000285
1114	0.000345
1126	0.00053
1138	0.000815
1150	0.00107
1162	0.000885
1174	0.000525
1186	0.000315
1198	0.00029
1210	0.000415
1222	0.000515
1234	0.00057
1246	0.000615
1258	0.00063
1270	0.00064
1282	0.000695
1294	0.0007
1306	0.000775
1318	0.00087
1330	0.001115
1342	0.00128
1354	0.001645
1366	0.00233
1378	0.003575
1390	0.003495
1402	0.001805
1414	0.00116
1426	0.00133
1438	0.00217
1450	0.004345
1462	0.006005
1474	0.004935
1486	0.002575
1498	0.0012
1510	0.000545
1522	0.00047
1534	0.000455
1546	0.000365
1558	0.00022
1570	0.000335
1582	0.000355
1594	0.00032
1606	0.000325
1618	0.000255
1630	0.000265
1642	0.000235
1654	0.000125
1666	0.00022
1678	0.000155
1690	0.00019
1702	8e-05
1714	8.5e-05
1726	0.000125
1738	7e-05
1750	3e-05
1762	9e-05
1774	9e-05
1786	8.5e-05
1798	7e-05
1810	0.000115
1822	0.000105
1834	0.0001
1846	6e-05
1858	0.00012
1870	8.5e-05
1882	0.00011
1894	9.5e-05
1906	0.0001
1918	6.5e-05
1930	9.5e-05
1942	8e-05
1954	8e-05
1966	7e-05
1978	9.5e-05
1990	8e-05
2002	8.5e-05
2014	9.5e-05
2026	0.000115
2038	0.000115
2050	0.000135
2062	0.00012
2074	0.0001
2086	9e-05
2098	0.00011
2110	0.0001
2122	8.5e-05
2134	9e-05
2146	0.00011
2158	0.00012
2170	0.00012
2182	0.00014
2194	0.00014
2206	0.00014
2218	0.00012
2230	0.00012
2242	0.000105
2254	0.000105
2266	0.000115
2278	0.00012
2290	9.5e-05
2302	6.5e-05
2314	3.5e-05
2326	4.5e-05
2338	8e-05
2350	9.5e-05
2362	6e-05
2374	8e-05
2386	0.00014
2398	0.00021
2410	0.000195
2422	0.00018
2434	0.00017
2446	0.00016
2458	0.00016
2470	0.000155
2482	0.00017
2494	0.000175
2506	0.000215
2518	0.00024
2530	0.00024
2542	0.000245
2554	0.00029
2566	0.000385
2578	0.000395
2590	0.00045
2602	0.00048
2614	0.000495
2626	0.00053
2638	0.00055
2650	0.00057
2662	0.000595
2674	0.000625
2686	0.00065
2698	0.000685
2710	0.000795
2722	0.000925
2734	0.00109
2746	0.00119
2758	0.00109
2770	0.00117
2782	0.001375
2794	0.00169
2806	0.00215
2818	0.002755
2830	0.003895
2842	0.006745
2854	0.011415
2866	0.016485
2878	0.023065
2890	0.023995
2902	0.02507
2914	0.031245
2926	0.03682
2938	0.03837
2950	0.0378
2962	0.048515
2974	0.04108
2986	0.01602
2998	0.006695
3010	0.00433
3022	0.003365
3034	0.002755
3046	0.00217
3058	0.001765
3070	0.001525
3082	0.001415
3094	0.00127
3106	0.00117
3118	0.001025
3130	0.00091
3142	0.000905
3154	0.000835
3166	0.00073
3178	0.00072
3190	0.00061
3202	0.00057
3214	0.00043
3226	0.00041
3238	0.000295
3250	0.000255
3262	0.00025
3274	0.000255
3286	0.00026
3298	0.000285
3310	0.00024
3322	0.00022
3334	0.000255
3346	0.00024
3358	0.00023
3370	0.00024
3382	0.000225
3394	0.0002
3406	0.00023
3418	0.00018
3430	0.00021
3442	0.0002
3454	0.000185
3466	0.00015
3478	0.00019
3490	0.00018
3502	0.000125
3514	0.000155
3526	0.000115
3538	9e-05
3550	0.000105
3562	0.00012
3574	0.00016
3586	0.00012
3598	0.00017
3610	7.5e-05
3622	0.000155
3634	0.00022
3646	0.000155
3658	0.00017
3670	0.00019
3682	0.000235
3694	0.0002
3706	0.000195
3718	0.00023
3730	0.000165
3742	0.00014
3754	0.00021
3766	0.00024
3778	0.00032
3790	0.000325
3802	0.00024
3814	0.000265
3826	0.000255
3838	0.000225
