Infrared Spectrum: 3-Methylhexane
Formula: C 7 H 16
CAS: 589-34-4
State: gas
Instrument: HP-GC/MS/IRD
Origin: NIST Mass Spectrometry Data Center
1/CM	ABSORBANCE
550	0.0007375
562	0.0004375
574	0.000215
586	0.0003375
598	0.0001625
610	0.0001125
622	3.5e-05
634	0.0001375
646	0.0002275
658	0.000165
670	0.0001125
682	0.000105
694	8e-05
706	0.0001525
718	0.0002325
730	0.000205
742	0.000335
754	0.0003075
766	0.00028
778	0.0003425
790	0.000225
802	0.000185
814	0.0001275
826	0.00017
838	0.000115
850	0.00012
862	0.0001425
874	0.00015
886	0.00018
898	6.25e-05
910	0.0001325
922	0.00018
934	0.0001425
946	0.0001275
958	0.000225
970	0.0002925
982	0.0003
994	0.0002375
1006	0.0002175
1018	0.0002175
1030	0.00023
1042	0.000205
1054	0.0001375
1066	0.0001675
1078	0.0001125
1090	8.75e-05
1102	9e-05
1114	0.000155
1126	0.0003
1138	0.0003825
1150	0.0005025
1162	0.0003825
1174	0.0003025
1186	0.000235
1198	0.00023
1210	0.0002275
1222	0.00029
1234	0.00034
1246	0.000295
1258	0.0003375
1270	0.0003825
1282	0.00038
1294	0.0004075
1306	0.0004175
1318	0.00043
1330	0.0004725
1342	0.000595
1354	0.0007925
1366	0.001295
1378	0.00195
1390	0.001975
1402	0.0009925
1414	0.00059
1426	0.00064
1438	0.0011175
1450	0.0022575
1462	0.0031225
1474	0.0026225
1486	0.0014275
1498	0.0006575
1510	0.0003775
1522	0.00028
1534	0.00024
1546	0.0002
1558	0.0001725
1570	0.000185
1582	0.0001375
1594	0.0001225
1606	0.000155
1618	0.0001575
1630	0.0001425
1642	0.000165
1654	0.0001475
1666	0.00012
1678	0.00015
1690	0.000135
1702	0.0001075
1714	0.0001125
1726	9.5e-05
1738	9.25e-05
1750	9e-05
1762	9.75e-05
1774	9.25e-05
1786	7e-05
1798	8.5e-05
1810	7e-05
1822	7.75e-05
1834	6.5e-05
1846	6.25e-05
1858	6.75e-05
1870	5.5e-05
1882	6.25e-05
1894	5.5e-05
1906	5e-05
1918	4.5e-05
1930	4.25e-05
1942	3.5e-05
1954	3.5e-05
1966	2.75e-05
1978	5e-05
1990	2.75e-05
2002	5.5e-05
2014	4.25e-05
2026	3.25e-05
2038	7e-05
2050	6e-05
2062	6.5e-05
2074	4e-05
2086	1.25e-05
2098	3e-05
2110	1.5e-05
2122	2e-05
2134	3e-05
2146	1.75e-05
2158	2.75e-05
2170	1e-05
2182	3e-05
2194	5e-05
2206	2.75e-05
2218	1e-05
2230	4e-05
2242	1.75e-05
2254	4.25e-05
2266	3.5e-05
2278	3.25e-05
2290	4.25e-05
2302	4e-05
2314	3.5e-05
2326	3e-05
2338	6.25e-05
2350	4.5e-05
2362	6.25e-05
2374	5.5e-05
2386	5.5e-05
2398	5.75e-05
2410	4e-05
2422	4.5e-05
2434	5e-05
2446	1e-05
2458	2.25e-05
2470	2.5e-05
2482	3.75e-05
2494	4e-05
2506	4.25e-05
2518	2.5e-06
2530	2.5e-05
2542	1.25e-05
2554	4e-05
2566	5.25e-05
2578	8.5e-05
2590	0.000115
2602	0.000135
2614	0.000155
2626	0.00015
2638	0.000155
2650	0.00015
2662	0.0001475
2674	0.000185
2686	0.0002175
2698	0.0001975
2710	0.0002525
2722	0.00035
2734	0.0004175
2746	0.0004575
2758	0.0004125
2770	0.00043
2782	0.000535
2794	0.0006625
2806	0.000855
2818	0.00114
2830	0.0016525
2842	0.00283
2854	0.0051
2866	0.0082725
2878	0.011595
2890	0.0121025
2902	0.012155
2914	0.01498
2926	0.0179375
2938	0.0184725
2950	0.0189825
2962	0.0242675
2974	0.02188
2986	0.0103925
2998	0.0037975
3010	0.0020525
3022	0.00152
3034	0.001235
3046	0.00104
3058	0.0008475
3070	0.00073
3082	0.000675
3094	0.0006
3106	0.0004975
3118	0.00043
3130	0.0003925
3142	0.00035
3154	0.000295
3166	0.0002275
3178	0.0002775
3190	0.000245
3202	0.0001975
3214	0.000135
3226	8e-05
3238	6.75e-05
3250	9.75e-05
3262	6.75e-05
3274	4e-05
3286	4.25e-05
3298	8.25e-05
3310	6.25e-05
3322	0.0001275
3334	0.00011
3346	4.5e-05
3358	6.75e-05
3370	6e-05
3382	6e-05
3394	9.75e-05
3406	8.75e-05
3418	9.5e-05
3430	5.5e-05
3442	9.25e-05
3454	7e-05
3466	7.25e-05
3478	8.5e-05
3490	9.75e-05
3502	7.25e-05
3514	9.75e-05
3526	0.0001175
3538	7.75e-05
3550	0.0001025
3562	0.00016
3574	0.0001125
3586	9.75e-05
3598	0.00014
3610	0.000175
3622	0.00013
3634	0.0001075
3646	0.0001425
3658	0.0002275
3670	0.00016
3682	0.0001125
3694	0.000135
3706	0.000135
3718	0.0001275
3730	0.000125
3742	0.000155
3754	0.00011
3766	4.75e-05
3778	6e-05
3790	0.00016
3802	0.000115
3814	0.0001125
3826	0.000105
3838	0.0001625
