Infrared Spectrum: N-Allylaniline
Formula: C 9 H 11 N
CAS: 589-09-3
State: gas
Instrument: HP-GC/MS/IRD
Origin: NIST Mass Spectrometry Data Center
1/CM	ABSORBANCE
550	0.0015372
562	0.0006748
574	0.0007364
586	0.0009996
598	0.000882
610	0.0008372
622	0.0011172
634	0.0014784
646	0.001666
658	0.0020748
670	0.003318
682	0.0058688
694	0.0066192
706	0.004242
718	0.0030296
730	0.0052948
742	0.0097524
754	0.0084112
766	0.0034216
778	0.0010136
790	0.000406
802	0.0002044
814	0.0001456
826	0.0002828
838	0.0002772
850	0.000126
862	0.0004816
874	0.0006916
886	0.0007364
898	0.0013216
910	0.003444
922	0.0054292
934	0.0035168
946	0.0016884
958	0.0013076
970	0.0015372
982	0.0025088
994	0.0032452
1006	0.0021056
1018	0.0012068
1030	0.0014028
1042	0.001288
1054	0.0015652
1066	0.0019992
1078	0.0018088
1090	0.0019768
1102	0.0017584
1114	0.0016856
1126	0.0014112
1138	0.001134
1150	0.0010808
1162	0.0010136
1174	0.0020076
1186	0.0022988
1198	0.001372
1210	0.0014392
1222	0.0023408
1234	0.0051912
1246	0.0117684
1258	0.0128576
1270	0.0079744
1282	0.00532
1294	0.006734
1306	0.0105504
1318	0.0094808
1330	0.0043456
1342	0.002128
1354	0.0014224
1366	0.0010584
1378	0.0007784
1390	0.0008316
1402	0.0014112
1414	0.0028476
1426	0.0049952
1438	0.004522
1450	0.0028896
1462	0.003892
1474	0.0054432
1486	0.0100716
1498	0.0255332
1510	0.0226576
1522	0.0064652
1534	0.0026208
1546	0.0020804
1558	0.0023548
1570	0.0029176
1582	0.0067732
1594	0.019334
1606	0.0235508
1618	0.0106092
1630	0.00434
1642	0.0029036
1654	0.001918
1666	0.0008736
1678	0.0005684
1690	0.0002744
1702	0.0002464
1714	3.92e-05
1726	8.4e-06
1738	8.12e-05
1750	0.0002156
1762	0.0001792
1774	6.44e-05
1786	5.6e-06
1798	0.0001092
1810	0.0002912
1822	0.000448
1834	0.000532
1846	0.0005852
1858	0.000406
1870	0.00021
1882	0.0001736
1894	0.0002884
1906	0.0005264
1918	0.0005768
1930	0.0004144
1942	0.0001736
1954	0.000112
1966	0.000112
1978	0.0001176
1990	8.4e-05
2002	0.000112
2014	0.000126
2026	0.0001512
2038	0.0001792
2050	0.0001792
2062	0.0001624
2074	0.0001988
2086	0.0002184
2098	0.0002744
2110	0.0002772
2122	0.0002688
2134	0.000294
2146	0.0002576
2158	0.0002408
2170	0.0002296
2182	0.0002016
2194	0.0002016
2206	0.000168
2218	0.0001428
2230	0.0001736
2242	0.0001876
2254	0.0001624
2266	0.0001344
2278	0.0001792
2290	0.0001512
2302	0.0001568
2314	0.0001568
2326	6.44e-05
2338	0.0001288
2350	8.96e-05
2362	7.56e-05
2374	5.04e-05
2386	0.0001484
2398	0.0002044
2410	0.0001652
2422	0.0001232
2434	0.0001316
2446	0.0001288
2458	0.0001036
2470	8.12e-05
2482	0.00014
2494	0.0001876
2506	0.0001316
2518	0.0001484
2530	0.0001904
2542	0.0002436
2554	0.0003528
2566	0.0004032
2578	0.0003332
2590	0.000252
2602	0.0001988
2614	0.0002016
2626	0.0001512
2638	0.0001932
2650	0.000238
2662	0.0002436
2674	0.0002632
2686	0.0002604
2698	0.0002128
2710	0.000224
2722	0.0002268
2734	0.0002296
2746	0.0003528
2758	0.0003864
2770	0.000462
2782	0.00056
2794	0.0007056
2806	0.0009352
2818	0.0013748
2830	0.0019908
2842	0.0026796
2854	0.0033628
2866	0.003458
2878	0.0031416
2890	0.0028784
2902	0.0028868
2914	0.0034384
2926	0.0037352
2938	0.0029708
2950	0.002156
2962	0.0018088
2974	0.001932
2986	0.0025816
2998	0.003024
3010	0.0044632
3022	0.0059248
3034	0.0053284
3046	0.0058016
3058	0.0078596
3070	0.0071596
3082	0.0068096
3094	0.0062692
3106	0.0033796
3118	0.0015568
3130	0.0007812
3142	0.0003612
3154	0.0002548
3166	0.0001932
3178	0.0002072
3190	0.0002044
3202	0.0001512
3214	0.0002156
3226	0.0001372
3238	0.0001288
3250	0.000126
3262	0.0001344
3274	0.000154
3286	7.56e-05
3298	6.44e-05
3310	0.0001092
3322	0.000112
3334	5.88e-05
3346	0.0001288
3358	8.68e-05
3370	0.0001456
3382	0.0002072
3394	0.0003696
3406	0.0005824
3418	0.0009856
3430	0.0013104
3442	0.0012432
3454	0.0010024
3466	0.0007252
3478	0.0004984
3490	0.0002996
3502	0.0002268
3514	0.00021
3526	0.000126
3538	0.0001568
3550	0.000182
3562	0.0002044
3574	0.000112
3586	0.000126
3598	0.0001988
3610	0.0001316
3622	8.68e-05
3634	8.4e-05
3646	0.000126
3658	0.0001204
3670	0.0002156
3682	0.0001232
3694	0.0001148
3706	0.0001512
3718	0.0001624
3730	0.0001344
3742	0.0002044
3754	0.00028
3766	0.0002212
3778	0.00021
3790	0.000196
3802	0.0002464
3814	0.000238
3826	0.0002128
3838	0.000266
