Infrared Spectrum: 4-Heptanol
Formula: C 7 H 16 O
CAS: 589-55-9
State: gas
Instrument: HP-GC/MS/IRD
Origin: NIST Mass Spectrometry Data Center
1/CM	ABSORBANCE
550	0.0003894
562	0.0002442
574	0.0002068
586	9.9e-05
598	0.0001848
610	0.0001144
622	0.0001188
634	8.14e-05
646	0.0001122
658	1.32e-05
670	0.000132
682	4.84e-05
694	6.6e-05
706	7.26e-05
718	0.0001254
730	0.0002112
742	0.0003388
754	0.0004796
766	0.0003894
778	0.0003366
790	0.0002926
802	0.000352
814	0.0004334
826	0.0007326
838	0.0010956
850	0.0011902
862	0.0010296
874	0.0008294
886	0.0008492
898	0.0008492
910	0.0007986
922	0.0007942
934	0.000902
946	0.000902
958	0.000902
970	0.0013486
982	0.002519
994	0.0041118
1006	0.0045122
1018	0.00308
1030	0.001815
1042	0.0015532
1054	0.0018172
1066	0.0020438
1078	0.002167
1090	0.0022418
1102	0.0023738
1114	0.0027544
1126	0.0032934
1138	0.0031658
1150	0.0022044
1162	0.001342
1174	0.0011506
1186	0.0012936
1198	0.0016302
1210	0.001947
1222	0.0019932
1234	0.0018876
1246	0.0018326
1258	0.0019118
1270	0.0019338
1282	0.0017182
1294	0.0014124
1306	0.001254
1318	0.001221
1330	0.001331
1342	0.0015752
1354	0.0019008
1366	0.002431
1378	0.0029458
1390	0.0027456
1402	0.0019316
1414	0.0013376
1426	0.0012848
1438	0.001738
1450	0.002431
1462	0.0028798
1474	0.0023122
1486	0.0012188
1498	0.000649
1510	0.0004136
1522	0.0002904
1534	0.0002706
1546	0.0002222
1558	0.0001276
1570	0.0001408
1582	0.0001386
1594	0.000121
1606	9.46e-05
1618	6.82e-05
1630	9.9e-05
1642	5.28e-05
1654	4.84e-05
1666	7.92e-05
1678	6.82e-05
1690	7.92e-05
1702	3.52e-05
1714	9.46e-05
1726	9.46e-05
1738	8.58e-05
1750	4.84e-05
1762	2.64e-05
1774	2.86e-05
1786	2.86e-05
1798	4.62e-05
1810	4.18e-05
1822	5.06e-05
1834	3.52e-05
1846	3.74e-05
1858	3.52e-05
1870	1.98e-05
1882	2.42e-05
1894	2.64e-05
1906	2.2e-06
1918	1.1e-05
1930	4.4e-05
1942	3.52e-05
1954	4.18e-05
1966	4.62e-05
1978	4.4e-05
1990	2.86e-05
2002	3.52e-05
2014	3.3e-05
2026	2.42e-05
2038	3.96e-05
2050	3.74e-05
2062	4.18e-05
2074	3.74e-05
2086	4.18e-05
2098	3.52e-05
2110	3.3e-05
2122	4.84e-05
2134	3.52e-05
2146	1.98e-05
2158	4.18e-05
2170	1.98e-05
2182	4.4e-05
2194	3.08e-05
2206	2.2e-05
2218	3.3e-05
2230	3.52e-05
2242	1.54e-05
2254	3.74e-05
2266	5.06e-05
2278	5.28e-05
2290	4.18e-05
2302	3.08e-05
2314	6.82e-05
2326	3.96e-05
2338	3.52e-05
2350	7.04e-05
2362	6.38e-05
2374	8.14e-05
2386	8.58e-05
2398	8.14e-05
2410	6.82e-05
2422	7.26e-05
2434	6.6e-05
2446	5.5e-05
2458	7.04e-05
2470	5.94e-05
2482	6.82e-05
2494	5.5e-05
2506	3.52e-05
2518	7.7e-05
2530	7.92e-05
2542	9.24e-05
2554	0.0001166
2566	0.000143
2578	0.0001474
2590	0.0001914
2602	0.0002244
2614	0.0002222
2626	0.0002178
2638	0.000253
2650	0.0002706
2662	0.0003498
2674	0.0003718
2686	0.0003542
2698	0.0003916
2710	0.0004026
2722	0.0004334
2734	0.0005214
2746	0.0006248
2758	0.000605
2770	0.0006732
2782	0.0007832
2794	0.000902
2806	0.0011066
2818	0.0014476
2830	0.0020878
2842	0.003465
2854	0.0054406
2866	0.0080146
2878	0.011308
2890	0.0114114
2902	0.0106172
2914	0.01375
2926	0.0185394
2938	0.0213334
2950	0.0194744
2962	0.021175
2974	0.0192566
2986	0.008789
2998	0.0037422
3010	0.0022748
3022	0.0016962
3034	0.001342
3046	0.001056
3058	0.0008052
3070	0.0006688
3082	0.0005676
3094	0.0005258
3106	0.0004224
3118	0.0003828
3130	0.0003454
3142	0.0003014
3154	0.0002816
3166	0.0002728
3178	0.0002156
3190	0.0002222
3202	0.0002002
3214	9.46e-05
3226	0.0001144
3238	6.6e-05
3250	5.94e-05
3262	0.0001034
3274	3.96e-05
3286	3.3e-05
3298	4.4e-05
3310	3.08e-05
3322	5.72e-05
3334	3.52e-05
3346	8.14e-05
3358	6.16e-05
3370	6.16e-05
3382	7.7e-05
3394	7.26e-05
3406	9.02e-05
3418	7.26e-05
3430	0.00011
3442	0.0001166
3454	0.0001122
3466	0.0001034
3478	5.72e-05
3490	6.16e-05
3502	5.5e-05
3514	0.0001122
3526	1.1e-05
3538	1.76e-05
3550	5.28e-05
3562	7.7e-05
3574	6.82e-05
3586	8.14e-05
3598	9.68e-05
3610	0.0001892
3622	0.0003586
3634	0.0006666
3646	0.0012188
3658	0.0013398
3670	0.0008404
3682	0.0003872
3694	0.0001958
3706	8.36e-05
3718	9.9e-05
3730	4.84e-05
3742	9.24e-05
3754	8.36e-05
3766	0.0001034
3778	0.0001232
3790	7.26e-05
3802	7.26e-05
3814	7.48e-05
3826	5.72e-05
3838	0.00011
