Infrared Spectrum: 4-Ethylaniline
Formula: C 8 H 11 N
CAS: 589-16-2
State: gas
Instrument: HP-GC/MS/IRD
Origin: NIST Mass Spectrometry Data Center
1/CM	ABSORBANCE
550	0.0016834
562	0.0014516
574	0.0012388
586	0.0013072
598	0.0014041
610	0.0015599
622	0.0023256
634	0.0039748
646	0.0067526
658	0.0072542
670	0.0053789
682	0.0039292
694	0.003135
706	0.0025916
718	0.0023047
730	0.0018468
742	0.0014687
754	0.0014117
766	0.0014668
778	0.0019095
790	0.0030305
802	0.0050369
814	0.0072371
826	0.0066595
838	0.0040432
850	0.0018848
862	0.0010507
874	0.000627
886	0.0005035
898	0.0003439
910	0.0002983
922	0.0002565
934	0.0002109
946	0.0002223
958	0.0003971
970	0.0005738
982	0.0005054
994	0.000418
1006	0.0005073
1018	0.0005358
1030	0.0006365
1042	0.0008664
1054	0.0013262
1066	0.0014649
1078	0.0012977
1090	0.0011058
1102	0.0010298
1114	0.0012996
1126	0.0012901
1138	0.0008664
1150	0.0003401
1162	0.0002128
1174	0.0015409
1186	0.0016055
1198	0.0001026
1210	1.71e-05
1222	0.000247
1234	0.0008854
1246	0.002945
1258	0.0095437
1270	0.0129789
1282	0.0059508
1294	0.0018905
1306	0.0012673
1318	0.0014611
1330	0.001387
1342	0.0008265
1354	0.0004826
1366	0.0004085
1378	0.000532
1390	0.0005795
1402	0.0005681
1414	0.0007182
1426	0.0010336
1438	0.001368
1450	0.0017518
1462	0.0018905
1474	0.0016682
1486	0.0018544
1498	0.0053219
1510	0.0172235
1522	0.0168511
1534	0.004446
1546	0.001539
1558	0.0010507
1570	0.0012065
1582	0.0017271
1594	0.0028899
1606	0.005814
1618	0.011666
1630	0.0131613
1642	0.006612
1654	0.0022762
1666	0.001178
1678	0.0007904
1690	0.0006213
1702	0.0005738
1714	0.0005529
1726	0.0004636
1738	0.0005301
1750	0.0004921
1762	0.0003249
1774	0.0001786
1786	0.0001786
1798	0.0001881
1810	0.0001824
1822	0.0002242
1834	0.0003154
1846	0.0005377
1858	0.0008208
1870	0.0008284
1882	0.0005491
1894	0.0003705
1906	0.0003249
1918	0.0003572
1930	0.0003667
1942	0.0002812
1954	0.0002622
1966	0.0002451
1978	0.0002394
1990	0.0002375
2002	0.0002356
2014	0.0002584
2026	0.0002964
2038	0.0002584
2050	0.0002888
2062	0.000323
2074	0.0003363
2086	0.0003268
2098	0.0003249
2110	0.000304
2122	0.0002489
2134	0.0002128
2146	0.0002033
2158	0.0002242
2170	0.000209
2182	0.0002356
2194	0.0002242
2206	0.0002261
2218	0.0001938
2230	0.0002242
2242	0.0002413
2254	0.0002584
2266	0.000247
2278	0.0002755
2290	0.0002907
2302	0.0003021
2314	0.0003097
2326	0.000323
2338	0.0003249
2350	0.0003097
2362	0.0002869
2374	0.0002356
2386	0.0001976
2398	0.0002394
2410	0.0002603
2422	0.0002565
2434	0.0002527
2446	0.0002831
2458	0.0002717
2470	0.0002603
2482	0.0002527
2494	0.0002147
2506	0.0002337
2518	0.0002907
2530	0.0003344
2542	0.0003097
2554	0.0002679
2566	0.0002679
2578	0.0003059
2590	0.0002983
2602	0.0003211
2614	0.0003534
2626	0.000323
2638	0.0003401
2650	0.0003097
2662	0.000304
2674	0.0002926
2686	0.0003249
2698	0.000342
2710	0.000361
2722	0.0003515
2734	0.0004275
2746	0.0004864
2758	0.0005054
2770	0.0005263
2782	0.0005795
2794	0.0005662
2806	0.0006137
2818	0.0007277
2830	0.0010165
2842	0.0015029
2854	0.0023883
2866	0.0037411
2878	0.0049913
2890	0.0050825
2902	0.0047291
2914	0.0048526
2926	0.0060116
2938	0.0081947
2950	0.0080617
2962	0.0101574
2974	0.0117116
2986	0.0067222
2998	0.0056259
3010	0.0065284
3022	0.0070661
3034	0.0072504
3046	0.004883
3058	0.0033402
3070	0.0025061
3082	0.0017879
3094	0.0015162
3106	0.0012958
3118	0.0009956
3130	0.0007695
3142	0.0006308
3154	0.0005643
3166	0.0004902
3178	0.0005187
3190	0.0004845
3202	0.0005168
3214	0.0005244
3226	0.0004693
3238	0.000532
3250	0.0004579
3262	0.0003857
3274	0.0003211
3286	0.0002888
3298	0.000323
3310	0.0003401
3322	0.000266
3334	0.0002964
3346	0.0002869
3358	0.0002641
3370	0.0004104
3382	0.0005928
3394	0.0011989
3406	0.001767
3418	0.001273
3430	0.0006479
3442	0.0005624
3454	0.0006232
3466	0.0008721
3478	0.0011476
3490	0.0012578
3502	0.0010165
3514	0.0006745
3526	0.0004256
3538	0.0003059
3550	0.0002774
3562	0.0002622
3574	0.0002223
3586	0.0002299
3598	0.0002052
3610	0.0002109
3622	0.0001957
3634	0.0002242
3646	0.0002793
3658	0.0002831
3670	0.0003078
3682	0.0003344
3694	0.0003059
3706	0.0002983
3718	0.0003534
3730	0.000342
3742	0.0003154
3754	0.0003078
3766	0.0003268
3778	0.0002926
3790	0.0002641
3802	0.0003382
3814	0.0002983
3826	0.0003439
3838	0.0003458
