Infrared Spectrum: 5-Chloro-2-pentanone
Formula: C 5 H 9 Cl O
CAS: 5891-21-4
State: gas
Instrument: HP-GC/MS/IRD
Origin: NIST Mass Spectrometry Data Center
1/CM	ABSORBANCE
550	0.0006253
562	8.32e-05
574	0.0003315
586	0.0007033
598	0.0006045
610	0.0001898
622	6.76e-05
634	0.0001755
646	0.0006344
658	0.0011687
670	0.0012168
682	0.0005993
694	0.0005096
706	0.0007293
718	0.0013962
730	0.0017862
742	0.0019123
754	0.0012402
766	0.0005785
778	0.0004719
790	0.0005642
802	0.0006565
814	0.0005382
826	0.0004394
838	0.0004212
850	0.0003952
862	0.0005343
874	0.0007202
886	0.0010062
898	0.0012155
910	0.0014989
922	0.001391
934	0.0013819
946	0.0014469
958	0.001482
970	0.0013208
982	0.0010426
994	0.0011271
1006	0.0012012
1018	0.0009204
1030	0.0007358
1042	0.0007072
1054	0.0006513
1066	0.0006071
1078	0.0003497
1090	0.000286
1102	0.0003549
1114	0.0005499
1126	0.0011076
1138	0.0023868
1150	0.0040001
1162	0.0047931
1174	0.0047476
1186	0.0042146
1198	0.0036296
1210	0.0031278
1222	0.0026234
1234	0.0022594
1246	0.0019708
1258	0.0019604
1270	0.0019799
1282	0.0021554
1294	0.0027599
1306	0.0033436
1318	0.0028795
1330	0.0024193
1342	0.0031642
1354	0.0053001
1366	0.0065572
1378	0.0043693
1390	0.0023569
1402	0.0020462
1414	0.002301
1426	0.0025454
1438	0.0026715
1450	0.0023907
1462	0.0015717
1474	0.0008008
1486	0.0003848
1498	0.0002444
1510	0.0002197
1522	0.0001703
1534	0.0001196
1546	0.00013
1558	0.0001092
1570	0.0001391
1582	0.0001625
1594	0.0002574
1606	0.0003328
1618	0.0003692
1630	0.0004693
1642	0.0006292
1654	0.0010374
1666	0.0015509
1678	0.002002
1690	0.0025701
1702	0.0037076
1714	0.0070512
1726	0.0119951
1738	0.012428
1750	0.007358
1762	0.0031486
1774	0.0014365
1786	0.0008333
1798	0.0004823
1810	0.0003263
1822	0.0002288
1834	0.0001755
1846	0.0001534
1858	0.0001352
1870	0.0001404
1882	0.0001053
1894	9.75e-05
1906	0.0001196
1918	0.0001235
1930	0.0001001
1942	0.0001001
1954	7.54e-05
1966	9.88e-05
1978	4.55e-05
1990	4.68e-05
2002	5.98e-05
2014	6.63e-05
2026	8.71e-05
2038	6.89e-05
2050	6.5e-05
2062	6.11e-05
2074	9.75e-05
2086	9.62e-05
2098	9.88e-05
2110	8.19e-05
2122	9.1e-05
2134	8.32e-05
2146	7.41e-05
2158	6.89e-05
2170	0.0001027
2182	6.11e-05
2194	4.03e-05
2206	6.5e-05
2218	7.93e-05
2230	6.76e-05
2242	5.07e-05
2254	7.93e-05
2266	7.67e-05
2278	5.59e-05
2290	7.67e-05
2302	9.88e-05
2314	8.45e-05
2326	7.02e-05
2338	4.03e-05
2350	5.85e-05
2362	6.37e-05
2374	4.68e-05
2386	7.41e-05
2398	9.23e-05
2410	4.81e-05
2422	5.59e-05
2434	4.29e-05
2446	6.11e-05
2458	7.28e-05
2470	7.8e-05
2482	6.5e-05
2494	6.76e-05
2506	8.45e-05
2518	8.06e-05
2530	6.76e-05
2542	3.9e-05
2554	3.77e-05
2566	6.63e-05
2578	5.98e-05
2590	4.94e-05
2602	6.11e-05
2614	7.93e-05
2626	9.23e-05
2638	7.41e-05
2650	0.0001066
2662	9.36e-05
2674	0.0001157
2686	0.0001339
2698	0.0001482
2710	0.0001729
2722	0.0001729
2734	0.0002041
2746	0.0002067
2758	0.0001833
2770	0.0001989
2782	0.0002665
2794	0.0003315
2806	0.0003458
2818	0.0004927
2830	0.0005824
2842	0.0008684
2854	0.0011791
2866	0.0016666
2878	0.0021359
2890	0.0025818
2902	0.003042
2914	0.0036569
2926	0.0043316
2938	0.0045045
2950	0.0049738
2962	0.0054522
2974	0.0048386
2986	0.0039104
2998	0.0029913
3010	0.0023946
3022	0.0016055
3034	0.0009555
3046	0.0007579
3058	0.0006487
3070	0.0006409
3082	0.0005226
3094	0.0005317
3106	0.000481
3118	0.0004368
3130	0.000338
3142	0.0002327
3154	0.0002431
3166	0.0001846
3178	0.0002145
3190	0.0002119
3202	0.0002145
3214	0.0001716
3226	0.0001755
3238	0.0001664
3250	0.0001469
3262	0.0001261
3274	0.0001989
3286	0.0001703
3298	0.0001703
3310	0.0001482
3322	0.0001664
3334	0.0001729
3346	0.0001586
3358	0.0001287
3370	0.0001963
3382	0.000143
3394	0.0002158
3406	0.0002496
3418	0.0002782
3430	0.0003276
3442	0.0003432
3454	0.000364
3466	0.0003237
3478	0.0001898
3490	0.0001547
3502	8.45e-05
3514	8.84e-05
3526	9.1e-05
3538	9.1e-05
3550	0.0001183
3562	0.0001144
3574	0.0001521
3586	0.0001222
3598	0.0001066
3610	8.19e-05
3622	9.62e-05
3634	6.37e-05
3646	8.32e-05
3658	6.5e-05
3670	8.58e-05
3682	5.98e-05
3694	8.19e-05
3706	9.23e-05
3718	0.0001118
3730	0.0001092
3742	0.0001196
3754	6.76e-05
3766	8.32e-05
3778	5.46e-05
3790	0.000117
3802	6.24e-05
3814	0.0001183
3826	0.0001378
3838	0.000104
