Infrared Spectrum: N-t-Butylbenzamide
Formula: C 11 H 15 N O
CAS: 5894-65-5
State: gas
Origin: EPA-IR VAPOR PHASE LIBRARY
1/CM	ABSORBANCE
549.8	0.00231
559.445	0.0012
569.09	0.0014
578.734	0.00145
588.379	0.0007285
598.024	0.0009362
607.669	0.0009899
617.313	0.0010959
626.958	0.000939
636.603	0.0009387
646.248	0.0014
655.893	0.00276
665.537	0.01
675.182	0.0117
684.827	0.01116
694.472	0.01819
704.116	0.02792
713.761	0.02664
723.406	0.01403
733.051	0.00658
742.695	0.00409
752.34	0.00268
761.985	0.00177
771.63	0.0016
781.275	0.00202
790.919	0.00249
800.564	0.00236
810.209	0.00248
819.854	0.00249
829.498	0.00291
839.143	0.00338
848.788	0.00355
858.433	0.00392
868.078	0.00528
877.722	0.00572
887.367	0.00515
897.012	0.0043
906.657	0.00342
916.301	0.00264
925.946	0.00267
935.591	0.00323
945.236	0.00331
954.88	0.00305
964.525	0.00311
974.17	0.00262
983.815	0.00247
993.46	0.0027
1003.1	0.0025
1012.75	0.00238
1022.39	0.00617
1032.04	0.00515
1041.68	0.00215
1051.33	0.00258
1060.97	0.00291
1070.62	0.00374
1080.26	0.00281
1089.91	0.00202
1099.55	0.00281
1109.2	0.00258
1118.84	0.0031
1128.49	0.00398
1138.13	0.00354
1147.78	0.00247
1157.42	0.00332
1167.07	0.00448
1176.71	0.00936
1186.36	0.01153
1196	0.01452
1205.64	0.02628
1215.29	0.03294
1224.93	0.03219
1234.58	0.02683
1244.22	0.0149
1253.87	0.01289
1263.51	0.02212
1273.16	0.04434
1282.8	0.05466
1292.45	0.03399
1302.09	0.01594
1311.74	0.00831
1321.38	0.00595
1331.03	0.0049
1340.67	0.00473
1350.32	0.00668
1359.96	0.01381
1369.61	0.02218
1379.25	0.01596
1388.9	0.0179
1398.54	0.02188
1408.18	0.01008
1417.83	0.00797
1427.47	0.00952
1437.12	0.01631
1446.76	0.02945
1456.41	0.0419
1466.05	0.04078
1475.7	0.05713
1485.34	0.08115
1494.99	0.0675
1504.63	0.07656
1514.28	0.05736
1523.92	0.03142
1533.57	0.0171
1543.21	0.01191
1552.86	0.00968
1562.5	0.00766
1572.15	0.00686
1581.79	0.00704
1591.44	0.00586
1601.08	0.00546
1610.73	0.00438
1620.37	0.00368
1630.01	0.00377
1639.66	0.0042
1649.3	0.00538
1658.95	0.00736
1668.59	0.0118
1678.24	0.02639
1687.88	0.06599
1697.53	0.09006
1707.17	0.05438
1716.82	0.01979
1726.46	0.00922
1736.11	0.00608
1745.75	0.00475
1755.4	0.00363
1765.04	0.00286
1774.69	0.00263
1784.33	0.00267
1793.98	0.00286
1803.62	0.00272
1813.27	0.00186
1822.91	0.00129
1832.55	0.0009866
1842.2	0.0007638
1851.84	0.0007004
1861.49	0.0007458
1871.13	0.0009848
1880.78	0.0010454
1890.42	0.00131
1900.07	0.00121
1909.71	0.0011023
1919.36	0.0007702
1929	0.0008577
1938.65	0.00118
1948.29	0.00142
1957.94	0.00143
1967.58	0.00117
1977.23	0.0006468
1986.87	0.0003959
1996.52	0.0003435
2006.16	0.0003279
2015.81	0.0003793
2025.45	0.0003807
2035.1	0.0003975
2044.74	0.0003956
2054.38	0.0003626
2064.03	0.0002947
2073.67	0.0002678
2083.32	0.00023851
2092.96	0.0002454
2102.61	0.0003034
2112.25	0.0002572
2121.9	0.0003957
2131.54	0.0003975
2141.19	0.0005329
2150.83	0.0004636
2160.48	0.0002879
2170.12	0.0003739
2179.77	0.0002805
2189.41	0.0002676
2199.06	0.00022163
2208.7	0.0002364
2218.35	0.00017291
2227.99	0.0002667
2237.64	0.0002707
2247.28	0.0003188
2256.92	0.0003203
2266.57	0.000255
2276.21	0.0004247
2285.86	0.0003535
2295.5	0.0003908
2305.15	0.0003129
2314.79	0.000507
2324.44	0.000509
2334.08	0.0004417
2343.73	0.0005004
2353.37	0.0005608
2363.02	0.0004688
2372.66	0.0004113
2382.31	0.0004602
2391.95	0.000429
2401.6	0.0006131
2411.24	0.0005764
2420.89	0.0004762
2430.53	0.0003964
2440.18	0.0002798
2449.82	0.000364
2459.47	0.00022933
2469.11	0.0002408
2478.75	0.000321
2488.4	0.00021831
2498.04	0.0002981
2507.69	0.00023639
2517.33	0.0002569
2526.98	0.00021241
2536.62	0.0003695
2546.27	0.0003368
2555.91	0.0003067
2565.56	0.0004284
2575.2	0.000431
2584.85	0.0005265
2594.49	0.0005971
2604.14	0.0005341
2613.78	0.0003868
2623.43	0.0006212
2633.07	0.0004962
2642.72	0.000556
2652.36	0.0003932
2662.01	0.0003906
2671.65	0.0004967
2681.29	0.0004917
2690.94	0.0005325
2700.58	0.0005156
2710.23	0.0006368
2719.87	0.0008494
2729.52	0.001042
2739.16	0.0009079
2748.81	0.0008509
2758.45	0.0008905
2768.1	0.0009039
2777.74	0.0008602
2787.39	0.0011105
2797.03	0.0010562
2806.68	0.0010678
2816.32	0.00133
2825.97	0.00158
2835.61	0.00193
2845.26	0.00241
2854.9	0.00362
2864.55	0.00599
2874.19	0.00884
2883.84	0.01061
2893.48	0.01105
2903.12	0.0119
2912.77	0.01393
2922.41	0.01716
2932.06	0.01959
2941.7	0.01906
2951.35	0.02063
2960.99	0.03176
2970.64	0.04292
2980.28	0.0412
2989.93	0.01829
2999.57	0.00993
3009.22	0.00849
3018.86	0.00653
3028.51	0.00875
3038.15	0.00864
3047.8	0.0056
3057.44	0.00746
3067.09	0.01387
3076.73	0.01396
3086.38	0.00898
3096.02	0.00599
3105.67	0.00394
3115.31	0.00266
3124.95	0.00155
3134.6	0.0010594
3144.24	0.0010978
3153.89	0.001106
3163.53	0.00124
3173.18	0.0010838
3182.82	0.0009973
3192.47	0.0009762
3202.11	0.0009241
3211.76	0.0008203
3221.4	0.0007499
3231.05	0.0007056
3240.69	0.0006199
3250.34	0.0004461
3259.98	0.0005456
3269.63	0.0004043
3279.27	0.0003529
3288.92	0.00020748
3298.56	0.0003251
3308.21	0.0004795
3317.85	0.0005072
3327.49	0.0002965
3337.14	0.0007027
3346.78	0.0005007
3356.43	0.0007477
3366.07	0.00118
3375.72	0.00125
3385.36	0.0009465
3395.01	0.000655
3404.65	0.000729
3414.3	0.000795
3423.94	0.0009875
3433.59	0.00169
3443.23	0.00299
3452.88	0.00482
3462.52	0.00494
3472.17	0.00294
3481.81	0.001094
3491.46	0.0008255
3501.1	0.0005993
3510.75	0.0004542
3520.39	0.0002404
3530.04	0.0002909
3539.68	0.00023211
3549.32	0.00023432
3558.97	0.0003151
3568.61	0.0003198
3578.26	0.00013657
3587.9	0.00021401
3597.55	0.0002938
3607.19	0.00013517
3616.84	0.0004133
3626.48	0.00022141
3636.13	0.00019586
3645.77	0.000257
3655.42	0.0004193
3665.06	0.000139016
3674.71	0.0002337
3684.35	0.0002836
3694	0.00015611
3703.64	0.0003203
3713.29	0.000271
3722.93	0.0003809
3732.58	0.0002427
3742.22	0.0001271
3751.86	0.00015809
3761.51	0.00017053
3771.15	9.86e-05
3780.8	0.00015914
3790.44	0.00022466
3800.09	0.0002956
3809.73	7.3e-05
3819.38	0.00019139
3829.02	0.0003621
3838.67	0.00023171
3848.31	0.00017945
3857.96	0.0003278
3867.6	0.0002427
3877.25	0.000406
3886.89	0.0002735
3896.54	0.00018613
3906.18	0.00022344
3915.83	0.00021391
3925.47	0.0005036
3935.12	0.0002478
3944.76	0.0002948
3954.41	0.0003566
3964.05	0.0002761
3973.69	0.0003814
3983.34	0.0004967
3992.98	0.0002947
