Infrared Spectrum: Hydrazine, 1,1-dibenzyl-, hydrochloride
Formula: C14 H17 Cl N2
CAS: 5896-62-8
State: SOLID (0.6 mg / 650 mg KBr DISC)
Class: COBLENTZ III
Instrument: PERKIN-ELMER 21 (GRATING)
Instrument parameters: FILTER CHANGE ABOUT 1090 CM^-^1
Sampling: TRANSMISSION
Resolution: 2
Origin: SOUTHERN RESEARCH INSTITUTE
1/CM	TRANSMITTANCE
602.74	1.0181
611.754	1.0178
620.768	1.0171
629.782	1.0154
638.796	1.0164
647.81	1.0135
656.824	1.0131
665.838	1.0122
674.851	1.0015
683.865	0.9761
692.879	0.9011
701.893	0.9159
710.907	0.9689
719.921	0.9451
728.935	0.9109
737.949	0.8792
746.963	0.867
755.977	0.845
764.991	0.912
774.005	0.9058
783.019	0.8986
792.033	0.8913
801.047	0.8883
810.061	0.8875
819.074	0.8859
828.088	0.8808
837.102	0.8732
846.116	0.869
855.13	0.8655
864.144	0.8632
873.158	0.8596
882.172	0.8495
891.186	0.8459
900.2	0.8259
909.214	0.8147
918.228	0.7964
927.242	0.7746
936.256	0.7486
945.27	0.6405
954.283	0.5843
963.297	0.5347
972.311	0.3092
981.325	0.7327
990.339	0.7927
999.353	0.7995
1008.37	0.7954
1017.38	0.7749
1026.39	0.7627
1035.41	0.7479
1044.42	0.739
1053.44	0.7028
1062.45	0.6287
1071.46	0.5184
1080.48	0.3174
1089.49	0.2092
1098.51	0.2859
1107.52	0.1048
1116.53	0.1714
1125.55	0.4529
1134.56	0.6298
1143.58	0.6923
1152.59	0.7314
1161.6	0.7493
1170.62	0.7587
1179.63	0.7691
1188.65	0.7666
1197.66	0.7633
1206.67	0.7596
1215.69	0.7551
1224.7	0.7406
1233.72	0.6993
1242.73	0.5855
1251.74	0.518
1260.76	0.7315
1269.77	0.7781
1278.79	0.7915
1287.8	0.8091
1296.81	0.8011
1305.83	0.7939
1314.84	0.786
1323.85	0.7861
1332.87	0.7891
1341.88	0.7847
1350.9	0.7734
1359.91	0.7681
1368.92	0.7689
1377.94	0.7602
1386.95	0.7408
1395.97	0.7155
1404.98	0.6727
1413.99	0.6166
1423.01	0.5965
1432.02	0.7026
1441.04	0.6972
1450.05	0.6887
1459.06	0.6387
1468.08	0.6372
1477.09	0.622
1486.11	0.5337
1495.12	0.285
1504.13	0.2124
1513.15	0.4625
1522.16	0.5746
1531.18	0.6116
1540.19	0.6228
1549.2	0.6067
1558.22	0.5702
1567.23	0.504
1576.25	0.4224
1585.26	0.4096
1594.27	0.4652
1603.29	0.4676
1612.3	0.4698
1621.31	0.4831
1630.33	0.4518
1639.34	0.5587
1648.36	0.6356
1657.37	0.6693
1666.38	0.6918
1675.4	0.7197
1684.41	0.7376
1693.43	0.7502
1702.44	0.755
1711.45	0.7571
1720.47	0.7593
1729.48	0.7644
1738.5	0.7683
1747.51	0.7747
1756.52	0.7837
1765.54	0.7922
1774.55	0.7961
1783.57	0.7964
1792.58	0.7961
1801.59	0.7949
1810.61	0.7954
1819.62	0.7978
1828.64	0.7988
1837.65	0.7992
1846.66	0.7998
1855.68	0.8003
1864.69	0.7983
1873.7	0.7956
1882.72	0.7929
1891.73	0.7862
1900.75	0.7823
1909.76	0.7756
1918.77	0.7646
1927.79	0.7518
1936.8	0.7524
1945.82	0.7523
1954.83	0.7474
1963.84	0.7389
1972.86	0.7374
1981.87	0.7381
1990.89	0.7393
1999.9	0.7432
2008.91	0.7479
2017.93	0.7521
2026.94	0.7572
2035.96	0.7651
2044.97	0.7669
2053.98	0.7654
2063	0.767
2072.01	0.7712
2081.03	0.7765
2090.04	0.7818
2099.05	0.7867
2108.07	0.7801
2117.08	0.771
2126.1	0.7769
2135.11	0.7875
2144.12	0.7967
2153.14	0.7995
2162.15	0.7991
2171.16	0.8023
2180.18	0.806
2189.19	0.8064
2198.21	0.8046
2207.22	0.8021
2216.23	0.801
2225.25	0.8013
2234.26	0.804
2243.28	0.8063
2252.29	0.8046
2261.3	0.8005
2270.32	0.7972
2279.33	0.7949
2288.35	0.7917
2297.36	0.7874
2306.37	0.7815
2315.39	0.7748
2324.4	0.7682
2333.42	0.7604
2342.43	0.7602
2351.44	0.76
2360.46	0.7573
2369.47	0.7532
2378.49	0.7561
2387.5	0.7588
2396.51	0.7593
2405.53	0.7543
2414.54	0.7504
2423.56	0.7484
2432.57	0.7355
2441.58	0.7279
2450.6	0.712
2459.61	0.6954
2468.62	0.6867
2477.64	0.6807
2486.65	0.6737
2495.67	0.6666
2504.68	0.6535
2513.69	0.6376
2522.71	0.6202
2531.72	0.5998
2540.74	0.5735
2549.75	0.5458
2558.76	0.5096
2567.78	0.4664
2576.79	0.414
2585.81	0.3946
2594.82	0.4004
2603.83	0.4475
2612.85	0.4671
2621.86	0.4764
2630.88	0.4745
2639.89	0.4632
2648.9	0.4316
2657.92	0.4221
2666.93	0.3915
2675.95	0.3581
2684.96	0.343
2693.97	0.3366
2702.99	0.3341
2712	0.3345
2721.01	0.3366
2730.03	0.3392
2739.04	0.3423
2748.06	0.3456
2757.07	0.347
2766.08	0.3383
2775.1	0.3127
2784.11	0.2855
2793.13	0.2615
2802.14	0.243
2811.15	0.2259
2820.17	0.2102
2829.18	0.2039
2838.2	0.1988
2847.21	0.1946
2856.22	0.1911
2865.24	0.1809
2874.25	0.1664
2883.27	0.1576
2892.28	0.1492
2901.29	0.129
2910.31	0.1216
2919.32	0.1068
2928.34	0.0966
2937.35	0.0905
2946.36	0.0763
2955.38	0.0686
2964.39	0.0592
2973.41	0.0518
2982.42	0.0408
2991.43	0.0413
3000.45	0.0409
3009.46	0.0492
3018.47	0.0476
3027.49	0.0423
3036.5	0.04
3045.52	0.0386
3054.53	0.0361
3063.54	0.0433
3072.56	0.0529
3081.57	0.0648
3090.59	0.0769
3099.6	0.087
3108.61	0.0945
3117.63	0.0969
3126.64	0.0935
3135.66	0.091
3144.67	0.0953
3153.68	0.1132
3162.7	0.121
3171.71	0.1334
3180.73	0.1423
3189.74	0.143
3198.75	0.1428
3207.77	0.1423
3216.78	0.1415
3225.8	0.1317
3234.81	0.1124
3243.82	0.0846
3252.84	0.0704
3261.85	0.0784
3270.87	0.1129
3279.88	0.1574
3288.89	0.1998
3297.91	0.2289
3306.92	0.2634
3315.93	0.2883
3324.95	0.3155
3333.96	0.3492
3342.98	0.3789
3351.99	0.4043
3361	0.4274
3370.02	0.448
3379.03	0.4641
3388.05	0.466
3397.06	0.4609
3406.07	0.4545
3415.09	0.449
3424.1	0.4455
3433.12	0.445
3442.13	0.4453
3451.14	0.4474
3460.16	0.4522
3469.17	0.4574
3478.19	0.4625
3487.2	0.4682
3496.21	0.475
3505.23	0.4847
3514.24	0.5006
3523.26	0.5084
3532.27	0.521
3541.28	0.5306
3550.3	0.5405
3559.31	0.5526
3568.32	0.5634
3577.34	0.5733
3586.35	0.5832
3595.37	0.6047
3604.38	0.6308
3613.39	0.6507
3622.41	0.6677
3631.42	0.6846
3640.44	0.6915
3649.45	0.7013
3658.46	0.7156
3667.48	0.725
3676.49	0.7335
3685.51	0.7401
3694.52	0.7438
3703.53	0.7455
3712.55	0.7557
3721.56	0.7599
3730.58	0.7626
3739.59	0.7643
3748.6	0.7656
3757.62	0.7665
3766.63	0.7665
3775.65	0.7615
3784.66	0.7579
3793.67	0.7598
3802.69	0.7638
3811.7	0.7658
3820.72	0.7656
3829.73	0.7656
3838.74	0.7667
3847.76	0.7678
3856.77	0.7693
3865.78	0.7659
3874.8	0.7613
3883.81	0.7632
3892.83	0.7615
3901.84	0.7595
3910.85	0.7596
3919.87	0.7605
3928.88	0.7617
3937.9	0.7629
3946.91	0.7625
3955.92	0.7622
3964.94	0.7642
3973.95	0.7661
3982.97	0.7691
3991.98	0.7751
4000.99	0.7783
