Infrared Spectrum: 2-CHLOROBENZOIC ACID, 2,4-DICHLOROPHENYL ESTER
Formula: C13 H7 Cl3 O2
CAS: 58979-27-4
State: SOLUTION (10% IN CCl4 FOR 5000-1350 CM^-^1, 10% IN CS2 FOR 1350-625 CM^-^1)
Class: COBLENTZ
Instrument: Not specified, most likely a prism, grating, or hybrid spectrometer.
Sampling: TRANSMISSION
Path length: 0.01 CM, 0.01 CM
Resolution: 4
Origin: DOW CHEMICAL COMPANY
MICROMETERS	TRANSMITTANCE
2.015	0.899
2.05416	0.899
2.09331	0.9
2.13247	0.9
2.17162	0.902
2.21078	0.902
2.24993	0.902
2.28909	0.902
2.32825	0.9
2.3674	0.9
2.40656	0.902
2.44571	0.905
2.48487	0.905
2.52403	0.902
2.56318	0.902
2.60234	0.902
2.64149	0.902
2.68065	0.904
2.7198	0.907
2.75896	0.908
2.79812	0.904
2.83727	0.902
2.87643	0.908
2.91558	0.913
2.95474	0.913
2.99389	0.91
3.03305	0.913
3.07221	0.91
3.11136	0.902
3.15052	0.889
3.18967	0.869
3.22883	0.84
3.26799	0.856
3.30714	0.894
3.3463	0.9
3.38545	0.905
3.42461	0.907
3.46376	0.905
3.50292	0.904
3.54208	0.913
3.58123	0.915
3.62039	0.913
3.65954	0.912
3.6987	0.913
3.73785	0.918
3.77701	0.92
3.81617	0.92
3.85532	0.915
3.89448	0.915
3.93363	0.918
3.97279	0.92
4.01195	0.918
4.0511	0.912
4.09026	0.915
4.12941	0.923
4.16857	0.923
4.20772	0.907
4.24688	0.892
4.28604	0.887
4.32519	0.895
4.36435	0.905
4.4035	0.915
4.44266	0.923
4.48181	0.931
4.52097	0.931
4.56013	0.928
4.59928	0.928
4.63844	0.931
4.67759	0.925
4.71675	0.912
4.7559	0.912
4.79506	0.908
4.83422	0.912
4.87337	0.913
4.91253	0.917
4.95168	0.917
4.99084	0.915
5.03	0.907
5.06915	0.891
5.10831	0.902
5.14746	0.882
5.18662	0.902
5.22577	0.897
5.26493	0.881
5.30409	0.881
5.34324	0.9
5.3824	0.891
5.42155	0.882
5.46071	0.855
5.49986	0.835
5.53902	0.78
5.57818	0.632
5.61733	0.352
5.65649	0.079
5.69564	0.216
5.7348	0.382
5.77396	0.647
5.81311	0.808
5.85227	0.84
5.89142	0.866
5.93058	0.879
5.96973	0.884
6.00889	0.891
6.04805	0.9
6.0872	0.881
6.12636	0.848
6.16551	0.782
6.20467	0.637
6.24382	0.398
6.28298	0.36
6.32214	0.439
6.36129	0.466
6.40045	0.456
6.4396	0.448
6.47876	0.546
6.51792	0.59
6.55707	0.614
6.59623	0.621
6.63538	0.58
6.67454	0.557
6.71369	0.344
6.75285	0.092
6.79201	0.331
6.83116	0.637
6.87032	0.637
6.90947	0.5
6.94863	0.544
6.98778	0.699
7.02694	0.832
7.0661	0.83
7.10525	0.801
7.14441	0.721
7.18356	0.63
7.22272	0.757
7.26188	0.852
7.30103	0.871
7.34019	0.878
7.37934	0.881
7.4185	0.879
7.45765	0.871
7.49681	0.852
7.53597	0.822
7.57512	0.791
7.61428	0.734
7.65343	0.627
7.69259	0.478
7.73174	0.352
7.7709	0.24
7.81006	0.271
7.84921	0.325
7.88837	0.466
7.92752	0.453
7.96668	0.331
8.00584	0.157
8.04499	0.055
8.08415	0.058
8.1233	0.084
8.16246	0.042
8.20161	0.022
8.24077	0.071
8.27993	0.347
8.31908	0.551
8.35824	0.671
8.39739	0.713
8.43655	0.731
8.4757	0.712
8.51486	0.674
8.55402	0.626
8.59317	0.622
8.63233	0.72
8.67148	0.707
8.71064	0.648
8.7498	0.518
8.78895	0.442
8.82811	0.593
8.86726	0.671
8.90642	0.663
8.94557	0.626
8.98473	0.58
9.02389	0.473
9.06304	0.304
9.1022	0.095
9.14135	0.045
9.18051	0.045
9.21966	0.113
9.25882	0.393
9.29798	0.538
9.33713	0.56
9.37629	0.508
9.41544	0.38
9.4546	0.282
9.49376	0.489
9.53291	0.489
9.57207	0.406
9.61122	0.336
9.65038	0.204
9.68953	0.073
9.72869	0.024
9.76785	0.034
9.807	0.147
9.84616	0.36
9.88531	0.567
9.92447	0.682
9.96362	0.744
10.0028	0.775
10.0419	0.786
10.0811	0.798
10.1202	0.808
10.1594	0.816
10.1986	0.826
10.2377	0.832
10.2769	0.835
10.316	0.837
10.3552	0.83
10.3943	0.817
10.4335	0.782
10.4726	0.762
10.5118	0.78
10.551	0.791
10.5901	0.783
10.6293	0.783
10.6684	0.821
10.7076	0.834
10.7467	0.835
10.7859	0.839
10.8251	0.84
10.8642	0.842
10.9034	0.842
10.9425	0.84
10.9817	0.837
11.0208	0.832
11.06	0.827
11.0991	0.821
11.1383	0.809
11.1775	0.795
11.2166	0.773
11.2558	0.744
11.2949	0.702
11.3341	0.63
11.3732	0.526
11.4124	0.403
11.4515	0.297
11.4907	0.188
11.5299	0.152
11.569	0.239
11.6082	0.321
11.6473	0.336
11.6865	0.356
11.7256	0.417
11.7648	0.5
11.8039	0.58
11.8431	0.648
11.8823	0.717
11.9214	0.754
11.9606	0.77
11.9997	0.782
12.0389	0.788
12.078	0.791
12.1172	0.791
12.1563	0.788
12.1955	0.778
12.2347	0.759
12.2738	0.736
12.313	0.702
12.3521	0.647
12.3913	0.559
12.4304	0.479
12.4696	0.445
12.5088	0.518
12.5479	0.648
12.5871	0.717
12.6262	0.738
12.6654	0.734
12.7045	0.697
12.7437	0.652
12.7828	0.6
12.822	0.588
12.8612	0.617
12.9003	0.643
12.9395	0.65
12.9786	0.643
13.0178	0.616
13.0569	0.556
13.0961	0.46
13.1352	0.37
13.1744	0.326
13.2136	0.346
13.2527	0.382
13.2919	0.398
13.331	0.365
13.3702	0.284
13.4093	0.159
13.4485	0.052
13.4876	0.065
13.5268	0.279
13.566	0.466
13.6051	0.598
13.6443	0.666
13.6834	0.7
13.7226	0.71
13.7617	0.702
13.8009	0.695
13.84	0.692
13.8792	0.692
13.9184	0.687
13.9575	0.66
13.9967	0.617
14.0358	0.56
14.075	0.533
14.1141	0.554
14.1533	0.614
14.1924	0.674
14.2316	0.692
14.2708	0.691
14.3099	0.678
14.3491	0.658
14.3882	0.639
14.4274	0.619
14.4665	0.598
14.5057	0.585
14.5449	0.575
14.584	0.572
14.6232	0.583
14.6623	0.609
14.7015	0.64
14.7406	0.679
14.7798	0.704
14.8189	0.725
14.8581	0.73
14.8973	0.725
14.9364	0.718
14.9756	0.707
15.0147	0.682
15.0539	0.65
15.093	0.603
15.1322	0.572
15.1713	0.56
15.2105	0.569
15.2497	0.59
15.2888	0.606
15.328	0.624
15.3671	0.637
15.4063	0.643
15.4454	0.643
15.4846	0.634
15.5237	0.619
15.5629	0.611
15.6021	0.606
15.6412	0.601
15.6804	0.601
15.7195	0.601
15.7587	0.603
15.7978	0.603
15.837	0.604
15.8761	0.604
