Infrared Spectrum: 2-Quinolinol
Formula: C 9 H 7 N O
CAS: 59-31-4
State: gas
Origin: EPA-IR VAPOR PHASE LIBRARY
1/CM	ABSORBANCE
549.8	0.00022312
559.445	0.0001589
569.09	0.0001748
578.734	0.00027518
588.379	0.0004957
598.024	0.0010324
607.669	0.001803
617.313	0.001903
626.958	0.0010885
636.603	0.0003482
646.248	0.000108
655.893	0.00027861
665.537	0.00029219
675.182	0.0003825
684.827	0.0005784
694.472	0.0005423
704.116	0.0004983
713.761	0.0003751
723.406	0.0008015
733.051	0.001523
742.695	0.002713
752.34	0.002433
761.985	0.001563
771.63	0.0006976
781.275	0.0002113
790.919	0.0003342
800.564	0.00030675
810.209	0.0009962
819.854	0.001863
829.498	0.002423
839.143	0.001383
848.788	0.0007117
858.433	0.0004334
868.078	0.0002634
877.722	8.9e-05
887.367	0.0001754
897.012	0.0003765
906.657	0.0006243
916.301	0.0009008
925.946	0.0006233
935.591	0.0005316
945.236	0.0002249
954.88	0.000116
964.525	0.0001741
974.17	0.00029256
983.815	0.0001495
993.46	0.0001712
1003.1	0
1012.75	0.000107
1022.39	0.0002117
1032.04	4.2e-05
1041.68	0.0001901
1051.33	0.00026902
1060.97	0.000101
1070.62	0.0001445
1080.26	0.00024596
1089.91	0.0001793
1099.55	0.0003945
1109.2	0.0008434
1118.84	0.0009871
1128.49	0.0010867
1138.13	0.0011527
1147.78	0.0011178
1157.42	0.0006711
1167.07	0.0006239
1176.71	0.0004574
1186.36	0.0006073
1196	0.0011737
1205.64	0.001433
1215.29	0.001423
1224.93	0.001098
1234.58	0.001363
1244.22	0.001953
1253.87	0.002473
1263.51	0.001953
1273.16	0.0011474
1282.8	0.0007425
1292.45	0.0009029
1302.09	0.0008879
1311.74	0.0006829
1321.38	0.0009278
1331.03	0.0010809
1340.67	0.0007835
1350.32	0.0004543
1359.96	0.000445
1369.61	0.000468
1379.25	0.0008777
1388.9	0.0010017
1398.54	0.0006887
1408.18	0.0005558
1417.83	0.0006277
1427.47	0.0004806
1437.12	0.0005472
1446.76	0.0006325
1456.41	0.0010827
1466.05	0.001463
1475.7	0.0011587
1485.34	0.0004989
1494.99	0.0004596
1504.63	0.0004683
1514.28	0.0004798
1523.92	0.0004271
1533.57	0.00032322
1543.21	0.00032377
1552.86	0.0004442
1562.5	0.0005938
1572.15	0.0006686
1581.79	0.0007098
1591.44	0.0011411
1601.08	0.002263
1610.73	0.002423
1620.37	0.001943
1630.01	0.001743
1639.66	0.001383
1649.3	0.001323
1658.95	0.001273
1668.59	0.001773
1678.24	0.002653
1687.88	0.004943
1697.53	0.014163
1707.17	0.027113
1716.82	0.022763
1726.46	0.006283
1736.11	0.003403
1745.75	0.003543
1755.4	0.002973
1765.04	0.001483
1774.69	0.001563
1784.33	0.001253
1793.98	0.0008026
1803.62	0.0005927
1813.27	0.0006393
1822.91	0.0006933
1832.55	0.0007198
1842.2	0.0005678
1851.84	0.0004191
1861.49	0.00033153
1871.13	0.0003616
1880.78	0.0003833
1890.42	0.0003814
1900.07	0.0003677
1909.71	0.0003535
1919.36	0.00031479
1929	0.00030481
1938.65	0.00031938
1948.29	0.00030165
1957.94	0.00027633
1967.58	0.00027718
1977.23	0.00026113
1986.87	0.0002193
1996.52	0.00025766
2006.16	0.00023744
2015.81	0.00024902
2025.45	0.0002192
2035.1	0.000232993
2044.74	0.00024476
2054.38	0.00024773
2064.03	0.0002043
2073.67	0.0002048
2083.32	0.00018
2092.96	0.00022543
2102.61	0.00022755
2112.25	0.0002102
2121.9	0.0002119
2131.54	0.00022915
2141.19	0.00023053
2150.83	0.00022325
2160.48	0.0002158
2170.12	0.000196
2179.77	0.00024726
2189.41	0.00024903
2199.06	0.00027023
2208.7	0.00026463
2218.35	0.0002166
2227.99	0.000233392
2237.64	0.00026044
2247.28	0.00025279
2256.92	0.000236869
2266.57	0.00027145
2276.21	0.00026544
2285.86	0.00024658
2295.5	0.00024574
2305.15	0.00024982
2314.79	0.00027017
2324.44	0.0002801
2334.08	0.00026976
2343.73	0.00024536
2353.37	0.00024428
2363.02	0.00026534
2372.66	0.0003521
2382.31	0.00028074
2391.95	0.00026226
2401.6	0.00026825
2411.24	0.00028004
2420.89	0.00027541
2430.53	0.00027297
2440.18	0.00026941
2449.82	0.00032091
2459.47	0.00025047
2469.11	0.00022874
2478.75	0.00032536
2488.4	0.00028785
2498.04	0.0003553
2507.69	0.00030559
2517.33	0.00029897
2526.98	0.0003213
2536.62	0.00032205
2546.27	0.00031659
2555.91	0.0003891
2565.56	0.00033159
2575.2	0.00031397
2584.85	0.00026779
2594.49	0.00027831
2604.14	0.00025077
2613.78	0.00024461
2623.43	0.00028174
2633.07	0.0002155
2642.72	0.00031281
2652.36	0.00032163
2662.01	0.00028962
2671.65	0.0003499
2681.29	0.00030449
2690.94	0.00026392
2700.58	0.00024421
2710.23	0.00033125
2719.87	0.0002207
2729.52	0.00023115
2739.16	0.0002212
2748.81	0.00027456
2758.45	0.000233076
2768.1	0.0002124
2777.74	0.00029185
2787.39	0.0002112
2797.03	0.00026267
2806.68	0.00029103
2816.32	0.00027583
2825.97	0.0003056
2835.61	0.00027281
2845.26	0.00025459
2854.9	0.00030059
2864.55	0.00012
2874.19	0.00025367
2883.84	0.0003066
2893.48	0.00023161
2903.12	0.0003585
2912.77	0.0004049
2922.41	0.0001967
2932.06	0.00030624
2941.7	0.00032497
2951.35	0.00029722
2960.99	0.00028126
2970.64	0.00024522
2980.28	0.00025083
2989.93	0.0003885
2999.57	0.0003517
3009.22	0.000398
3018.86	0.0005106
3028.51	0.0006728
3038.15	0.0009447
3047.8	0.0011601
3057.44	0.0012273
3067.09	0.001313
3076.73	0.0011687
3086.38	0.0009468
3096.02	0.0006512
3105.67	0.0004009
3115.31	0.0004635
3124.95	0.0003894
3134.6	0.0003682
3144.24	0.00024303
3153.89	0.00029335
3163.53	0.00024332
3173.18	0.00027183
3182.82	0.0002236
3192.47	0.0002886
3202.11	0.00030193
3211.76	0.0002022
3221.4	0.00024715
3231.05	0.0003344
3240.69	0.00028213
3250.34	0.0002013
3259.98	0.000132
3269.63	0.0001957
3279.27	0.00025731
3288.92	0.000211
3298.56	0.00030364
3308.21	0.0001823
3317.85	0.000126
3327.49	0.0001718
3337.14	0.00026557
3346.78	0.00024856
3356.43	0.00030394
3366.07	0.0001727
3375.72	0.0002558
3385.36	0.0003393
3395.01	0.0003834
3404.65	0.0007406
3414.3	0.0010753
3423.94	0.001563
3433.59	0.001603
3443.23	0.000958
3452.88	0.0003576
3462.52	0.00025603
3472.17	0.000232341
3481.81	0.00029179
3491.46	0.00027229
3501.1	0.0001777
3510.75	0.00023115
3520.39	0.000122
3530.04	0.00025367
3539.68	0.00026673
3549.32	0.0001814
3558.97	0.0001565
3568.61	0.000175
3578.26	0.0002738
3587.9	0.0003522
3597.55	0.00026762
3607.19	0.0002111
3616.84	0.000237365
3626.48	0.000119
3636.13	0.00026757
3645.77	0.0001828
3655.42	0.00023094
3665.06	0.00023813
3674.71	0.0003527
3684.35	0.000238247
3694	0.00030526
3703.64	0.0002114
3713.29	0.0003649
3722.93	0.000118
3732.58	0.00027593
3742.22	0.00025278
3751.86	0.00025653
3761.51	0.0002223
3771.15	0.0001978
3780.8	0.0001433
3790.44	0.00027851
3800.09	0.000108
3809.73	0.00027473
3819.38	0.00027207
3829.02	0.000127
3838.67	0.0004277
3848.31	0.00024125
3857.96	0.000132
3867.6	0.000203
3877.25	1.5e-05
3886.89	0.00024845
3896.54	0.00027007
3906.18	0.0002462
3915.83	0.00032094
3925.47	0.0001518
3935.12	0.0001524
3944.76	0.0003377
3954.41	0.00024483
3964.05	0.00029538
3973.69	7.5e-05
3983.34	0.00030232
3992.98	0.000237413
