Infrared Spectrum: FOLIC ACID
Formula: C19 H19 N7 O6
CAS: 59-30-3
State: SOLID (0.7 mg / 200 mg KBr DISC)
Class: COBLENTZ III
Instrument: PERKIN-ELMER 21 (GRATING)
Instrument parameters: FILTER AT ABOUT 10 MICRONS
Sampling: TRANSMISSION
Resolution: 2
1/CM	TRANSMITTANCE
4000	0.7674
3991	0.7678
3982	0.7683
3973	0.7684
3964	0.7684
3955	0.7685
3946	0.7686
3937	0.7689
3928	0.7694
3919	0.7698
3910	0.7704
3901	0.7714
3892	0.7731
3883	0.7748
3874	0.7765
3865	0.7784
3856	0.7791
3847	0.7795
3838	0.7797
3829	0.7794
3820	0.7791
3811	0.7787
3802	0.7784
3793	0.7789
3784	0.7796
3775	0.7804
3766	0.7811
3757	0.7821
3748	0.7834
3739	0.7848
3730	0.7864
3721	0.7883
3712	0.7898
3703	0.7905
3694	0.7911
3685	0.7912
3676	0.7915
3667	0.7915
3658	0.7911
3649	0.7907
3640	0.7872
3631	0.7697
3622	0.7508
3613	0.7365
3604	0.7196
3595	0.7024
3586	0.6864
3577	0.6706
3568	0.6411
3559	0.6125
3550	0.5886
3541	0.5539
3532	0.5162
3523	0.4789
3514	0.4415
3505	0.4039
3496	0.3664
3487	0.3506
3478	0.3506
3469	0.3562
3460	0.368
3451	0.3791
3442	0.385
3433	0.3825
3424	0.3716
3415	0.3525
3406	0.3396
3397	0.3248
3388	0.3116
3379	0.3053
3370	0.3057
3361	0.3106
3352	0.3164
3343	0.3232
3334	0.3289
3325	0.3298
3316	0.3246
3307	0.3166
3298	0.3147
3289	0.3144
3280	0.3195
3271	0.3329
3262	0.3516
3253	0.3639
3244	0.3692
3235	0.3718
3226	0.3737
3217	0.3746
3208	0.3755
3199	0.375
3190	0.3736
3181	0.3697
3172	0.363
3163	0.3516
3154	0.3404
3145	0.3324
3136	0.3259
3127	0.3197
3118	0.3153
3109	0.3117
3100	0.3094
3091	0.3079
3082	0.3077
3073	0.3096
3064	0.3134
3055	0.3188
3046	0.3241
3037	0.3294
3028	0.3349
3019	0.3405
3010	0.3462
3001	0.3518
2992	0.355
2983	0.3572
2974	0.358
2965	0.356
2956	0.354
2947	0.3518
2938	0.3502
2929	0.3489
2920	0.3476
2911	0.3464
2902	0.3458
2893	0.3484
2884	0.355
2875	0.3624
2866	0.3698
2857	0.3758
2848	0.3805
2839	0.383
2830	0.3843
2821	0.3856
2812	0.3884
2803	0.3914
2794	0.395
2785	0.4
2776	0.4052
2767	0.411
2758	0.4167
2749	0.4225
2740	0.4287
2731	0.435
2722	0.4412
2713	0.4475
2704	0.4538
2695	0.4592
2686	0.4634
2677	0.4671
2668	0.4697
2659	0.4723
2650	0.4746
2641	0.4768
2632	0.4789
2623	0.4805
2614	0.4818
2605	0.4824
2596	0.4826
2587	0.4826
2578	0.4819
2569	0.4799
2560	0.4774
2551	0.4758
2542	0.476
2533	0.4793
2524	0.4849
2515	0.491
2506	0.4964
2497	0.5017
2488	0.5068
2479	0.5105
2470	0.5141
2461	0.5184
2452	0.5232
2443	0.5283
2434	0.5355
2425	0.5429
2416	0.5506
2407	0.5577
2398	0.564
2389	0.5693
2380	0.5734
2371	0.5769
2362	0.5797
2353	0.5819
2344	0.584
2335	0.5862
2326	0.589
2317	0.5924
2308	0.6026
2299	0.6127
2290	0.622
2281	0.6301
2272	0.6373
2263	0.6425
2254	0.6476
2245	0.6511
2236	0.6548
2227	0.6584
2218	0.6628
2209	0.6675
2200	0.6724
2191	0.6774
2182	0.6824
2173	0.6871
2164	0.6918
2155	0.6965
2146	0.7006
2137	0.7047
2128	0.7057
2119	0.7067
2110	0.7078
2101	0.7091
2092	0.7108
2083	0.7124
2074	0.7139
2065	0.715
2056	0.716
2047	0.7168
2038	0.7175
2029	0.7183
2020	0.7186
2011	0.7189
2002	0.7191
1993	0.7192
1984	0.7185
1975	0.718
1966	0.7164
1957	0.7124
1948	0.7071
1939	0.7033
1930	0.699
1921	0.694
1912	0.6896
1903	0.6858
1894	0.6815
1885	0.6785
1876	0.6758
1867	0.6746
1858	0.6737
1849	0.6725
1840	0.6715
1831	0.6707
1822	0.67
1813	0.6688
1804	0.6668
1795	0.6619
1786	0.654
1777	0.637
1768	0.614
1759	0.5799
1750	0.5232
1741	0.373
1732	0.255
1723	0.1823
1714	0.0938
1705	0.0577
1696	0.0429
1687	0.0452
1678	0.0673
1669	0.0845
1660	0.0952
1651	0.1208
1642	0.1283
1633	0.1683
1624	0.2041
1615	0.1472
1606	0.0656
1597	0.1892
1588	0.3237
1579	0.3306
1570	0.3002
1561	0.3507
1552	0.3568
1543	0.3412
1534	0.3707
1525	0.3626
1516	0.3009
1507	0.299
1498	0.2392
1489	0.1384
1480	0.1041
1471	0.2384
1462	0.3284
1453	0.2678
1444	0.3748
1435	0.3914
1426	0.3459
1417	0.2601
1408	0.2609
1399	0.3007
1390	0.3326
1381	0.3742
1372	0.39
1363	0.3253
1354	0.3048
1345	0.2556
1336	0.24
1327	0.3346
1318	0.368
1309	0.3807
1300	0.344
1291	0.3388
1282	0.3718
1273	0.4112
1264	0.4325
1255	0.4285
1246	0.3802
1237	0.3616
1228	0.3441
1219	0.4451
1210	0.5115
1201	0.4974
1192	0.2418
1183	0.3474
1174	0.4057
1165	0.4806
1156	0.4885
1147	0.5421
1138	0.4702
1129	0.4969
1120	0.5186
1111	0.4997
1102	0.4817
1093	0.5381
1084	0.581
1075	0.6023
1066	0.5985
1057	0.5759
1048	0.5747
1039	0.5337
1030	0.569
1021	0.5967
1012	0.5942
1003	0.586
994	0.5955
985	0.6035
976	0.535
967	0.5525
958	0.5774
949	0.5562
940	0.5442
931	0.504
922	0.4488
913	0.451
904	0.4662
895	0.4942
886	0.5144
877	0.5455
868	0.5536
859	0.5572
850	0.5624
841	0.374
832	0.4826
823	0.5282
814	0.5223
805	0.6145
796	0.6284
787	0.6318
778	0.6168
769	0.4592
760	0.5262
751	0.5859
742	0.5762
733	0.5925
724	0.5769
715	0.5666
706	0.5517
697	0.5102
688	0.5197
679	0.5119
670	0.52
661	0.5502
