Infrared Spectrum: BENZOXAZOLONE
Formula: C7 H5 N O2
CAS: 59-49-4
State: SOLID (MINERAL OIL MULL)
Melting point: 138-140 C
Class: COBLENTZ
Instrument: Not specified, most likely a prism, grating, or hybrid spectrometer.
Sampling: TRANSMISSION
Resolution: 4
Origin: WYANDOTTE CHEMICALS CORP., WYANDOTTE, MICHIGAN, USA
MICROMETERS	TRANSMITTANCE
2.025	0.267
2.06215	0.269
2.0993	0.267
2.13646	0.275
2.17361	0.286
2.21076	0.284
2.24791	0.292
2.28506	0.306
2.32222	0.315
2.35937	0.335
2.39652	0.342
2.43367	0.343
2.47083	0.346
2.50798	0.354
2.54513	0.379
2.58228	0.399
2.61943	0.417
2.65659	0.439
2.69374	0.445
2.73089	0.455
2.76804	0.464
2.80519	0.464
2.84235	0.422
2.8795	0.481
2.91665	0.53
2.9538	0.517
2.99096	0.441
3.02811	0.097
3.06526	0.017
3.10241	0.013
3.13956	0.018
3.17672	0.026
3.21387	0.037
3.25102	0.077
3.28817	0.077
3.32532	0.023
3.36248	0.017
3.39963	0.015
3.43678	0.02
3.47393	0.024
3.51109	0.102
3.54824	0.318
3.58539	0.332
3.62254	0.461
3.65969	0.4
3.69685	0.452
3.734	0.459
3.77115	0.41
3.8083	0.518
3.84545	0.484
3.88261	0.546
3.91976	0.583
3.95691	0.588
3.99406	0.578
4.03121	0.625
4.06837	0.619
4.10552	0.558
4.14267	0.631
4.17982	0.639
4.21698	0.611
4.25413	0.659
4.29128	0.671
4.32843	0.695
4.36558	0.732
4.40274	0.721
4.43989	0.724
4.47704	0.715
4.51419	0.726
4.55134	0.784
4.5885	0.789
4.62565	0.744
4.6628	0.798
4.69995	0.823
4.73711	0.854
4.77426	0.859
4.81141	0.876
4.84856	0.9
4.88571	0.921
4.92287	0.938
4.96002	0.944
4.99717	0.944
5.03432	0.978
5.07147	0.986
5.10863	0.973
5.14578	0.97
5.18293	0.936
5.22008	0.809
5.25724	0.9
5.29439	0.758
5.33154	0.269
5.36869	0.427
5.40584	0.724
5.443	0.554
5.48015	0.434
5.5173	0.373
5.55445	0.119
5.5916	0.029
5.62876	0.012
5.66591	0.013
5.70306	0.012
5.74021	0.015
5.77736	0.017
5.81452	0.012
5.85167	0.023
5.88882	0.038
5.92597	0.055
5.96313	0.069
6.00028	0.13
6.03743	0.195
6.07458	0.252
6.11173	0.157
6.14889	0.266
6.18604	0.325
6.22319	0.306
6.26034	0.371
6.29749	0.445
6.33465	0.478
6.3718	0.512
6.40895	0.524
6.4461	0.529
6.48326	0.554
6.52041	0.501
6.55756	0.498
6.59471	0.549
6.63186	0.513
6.66902	0.241
6.70617	0.01
6.74332	0.017
6.78047	0.02
6.81762	0.03
6.85478	0.058
6.89193	0.102
6.92908	0.187
6.96623	0.256
7.00339	0.266
7.04054	0.289
7.07769	0.148
7.11484	0.041
7.15199	0.051
7.18915	0.094
7.2263	0.086
7.26345	0.108
7.3006	0.174
7.33775	0.27
7.37491	0.3
7.41206	0.356
7.44921	0.371
7.48636	0.27
7.52351	0.303
7.56067	0.4
7.59782	0.116
7.63497	0.032
7.67212	0.134
7.70928	0.295
7.74643	0.388
7.78358	0.469
7.82073	0.469
7.85788	0.247
7.89504	0.035
7.93219	0.023
7.96934	0.013
8.00649	0.065
8.04364	0.176
8.0808	0.269
8.11795	0.329
8.1551	0.36
8.19225	0.396
8.22941	0.41
8.26656	0.416
8.30371	0.459
8.34086	0.461
8.37801	0.456
8.41517	0.478
8.45232	0.49
8.48947	0.49
8.52662	0.498
8.56377	0.498
8.60093	0.476
8.63808	0.261
8.67523	0.08
8.71238	0.078
8.74954	0.318
8.78669	0.47
8.82384	0.551
8.86099	0.582
8.89814	0.592
8.9353	0.605
8.97245	0.62
9.0096	0.62
9.04675	0.442
9.0839	0.465
9.12106	0.583
9.15821	0.64
9.19536	0.657
9.23251	0.671
9.26966	0.673
9.30682	0.684
9.34397	0.685
9.38112	0.693
9.41827	0.688
9.45543	0.691
9.49258	0.688
9.52973	0.688
9.56688	0.69
9.60403	0.699
9.64119	0.693
9.67834	0.698
9.71549	0.699
9.75264	0.698
9.78979	0.676
9.82695	0.583
9.8641	0.314
9.90125	0.06
9.9384	0.369
9.97556	0.551
10.0127	0.614
10.0499	0.654
10.087	0.685
10.1242	0.678
10.1613	0.667
10.1985	0.65
10.2356	0.64
10.2728	0.62
10.3099	0.58
10.3471	0.588
10.3842	0.574
10.4214	0.523
10.4585	0.458
10.4957	0.32
10.5328	0.122
10.57	0.023
10.6071	0.012
10.6443	0.01
10.6814	0.012
10.7186	0.037
10.7558	0.092
10.7929	0.143
10.8301	0.32
10.8672	0.339
10.9044	0.23
10.9415	0.462
10.9787	0.571
11.0158	0.592
11.053	0.611
11.0901	0.606
11.1273	0.51
11.1644	0.205
11.2016	0.147
11.2387	0.377
11.2759	0.547
11.313	0.645
11.3502	0.687
11.3873	0.704
11.4245	0.695
11.4616	0.58
11.4988	0.419
11.5359	0.328
11.5731	0.357
11.6102	0.532
11.6474	0.577
11.6846	0.495
11.7217	0.402
11.7589	0.36
11.796	0.36
11.8332	0.447
11.8703	0.552
11.9075	0.619
11.9446	0.65
11.9818	0.659
12.0189	0.664
12.0561	0.667
12.0932	0.67
12.1304	0.668
12.1675	0.667
12.2047	0.665
12.2418	0.664
12.279	0.667
12.3161	0.665
12.3533	0.668
12.3904	0.668
12.4276	0.667
12.4647	0.66
12.5019	0.657
12.5391	0.645
12.5762	0.637
12.6134	0.626
12.6505	0.611
12.6877	0.6
12.7248	0.586
12.762	0.577
12.7991	0.557
12.8363	0.537
12.8734	0.512
12.9106	0.495
12.9477	0.472
12.9849	0.445
13.022	0.385
13.0592	0.25
13.0963	0.095
13.1335	0.027
13.1706	0.03
13.2078	0.055
13.2449	0.06
13.2821	0.043
13.3192	0.021
13.3564	0.015
13.3936	0.01
13.4307	0.012
13.4679	0.01
13.505	0.01
13.5422	0.007
13.5793	0.02
13.6165	0.06
13.6536	0.083
13.6908	0.072
13.7279	0.052
13.7651	0.03
13.8022	0.023
13.8394	0.02
13.8765	0.017
13.9137	0.021
13.9508	0.024
13.988	0.024
14.0251	0.03
14.0623	0.04
14.0994	0.049
14.1366	0.06
14.1737	0.058
14.2109	0.047
14.248	0.035
14.2852	0.03
14.3224	0.026
14.3595	0.027
14.3967	0.032
14.4338	0.037
14.471	0.04
14.5081	0.049
14.5453	0.057
14.5824	0.072
14.6196	0.086
14.6567	0.1
14.6939	0.119
14.731	0.131
14.7682	0.156
14.8053	0.174
14.8425	0.188
14.8796	0.212
14.9168	0.232
14.9539	0.25
14.9911	0.269
15.0282	0.287
15.0654	0.3
15.1025	0.317
15.1397	0.332
15.1769	0.356
15.214	0.369
15.2512	0.388
15.2883	0.4
15.3255	0.417
15.3626	0.419
15.3998	0.428
15.4369	0.442
15.4741	0.436
15.5112	0.448
15.5484	0.458
15.5855	0.458
15.6227	0.458
15.6598	0.461
15.697	0.465
15.7341	0.465
15.7713	0.459
15.8084	0.461
15.8456	0.456
15.8827	0.456
15.9199	0.455
15.957	0.447
15.9942	0.431
