Infrared Spectrum: MEPHENESIN
Formula: C10 H14 O3
CAS: 59-47-2
State: SOLID (0.93 mg / 200 mg KBr DISC)
Melting point: 70-72 C
Class: COBLENTZ III
Instrument: PERKIN-ELMER 21 (GRATING)
Instrument parameters: FILTER AT ABOUT 10 MICRONS
Sampling: TRANSMISSION
Resolution: 2
1/CM	TRANSMITTANCE
4000	0.7761
3991	0.7761
3982	0.7762
3973	0.7765
3964	0.7765
3955	0.7768
3946	0.7768
3937	0.7771
3928	0.7772
3919	0.7774
3910	0.7775
3901	0.7778
3892	0.7784
3883	0.7789
3874	0.78
3865	0.7814
3856	0.7828
3847	0.7841
3838	0.7855
3829	0.7868
3820	0.7876
3811	0.7882
3802	0.7889
3793	0.7894
3784	0.79
3775	0.7906
3766	0.7911
3757	0.7915
3748	0.7915
3739	0.7917
3730	0.7918
3721	0.7918
3712	0.7919
3703	0.7921
3694	0.7921
3685	0.7921
3676	0.7918
3667	0.7911
3658	0.7904
3649	0.7896
3640	0.7888
3631	0.7878
3622	0.7861
3613	0.7845
3604	0.7828
3595	0.7793
3586	0.7741
3577	0.7687
3568	0.7634
3559	0.7565
3550	0.7478
3541	0.7393
3532	0.7305
3523	0.7195
3514	0.7053
3505	0.6911
3496	0.6783
3487	0.6655
3478	0.6525
3469	0.6299
3460	0.6039
3451	0.5718
3442	0.5353
3433	0.4997
3424	0.471
3415	0.4491
3406	0.4266
3397	0.4038
3388	0.3809
3379	0.3579
3370	0.3348
3361	0.3116
3352	0.2882
3343	0.2647
3334	0.2411
3325	0.2174
3316	0.1604
3307	0.1462
3298	0.1432
3289	0.1392
3280	0.1348
3271	0.1273
3262	0.1194
3253	0.1131
3244	0.1108
3235	0.1094
3226	0.1092
3217	0.113
3208	0.1276
3199	0.1441
3190	0.1596
3181	0.1817
3172	0.2113
3163	0.2587
3154	0.2878
3145	0.3157
3136	0.3437
3127	0.372
3118	0.4003
3109	0.4289
3100	0.4576
3091	0.4817
3082	0.4939
3073	0.5043
3064	0.5143
3055	0.5229
3046	0.5312
3037	0.541
3028	0.5509
3019	0.5619
3010	0.5734
3001	0.5852
2992	0.5946
2983	0.5954
2974	0.5938
2965	0.5838
2956	0.567
2947	0.5437
2938	0.4749
2929	0.3768
2920	0.3398
2911	0.3382
2902	0.3409
2893	0.3566
2884	0.3756
2875	0.3932
2866	0.4077
2857	0.432
2848	0.4766
2839	0.5049
2830	0.529
2821	0.5501
2812	0.566
2803	0.5794
2794	0.596
2785	0.6142
2776	0.6325
2767	0.6508
2758	0.6625
2749	0.666
2740	0.6688
2731	0.67
2722	0.67
2713	0.6689
2704	0.6696
2695	0.6705
2686	0.6733
2677	0.6775
2668	0.6826
2659	0.688
2650	0.6939
2641	0.7005
2632	0.7069
2623	0.7153
2614	0.7237
2605	0.7307
2596	0.7372
2587	0.7425
2578	0.743
2569	0.7426
2560	0.7425
2551	0.7421
2542	0.7418
2533	0.7421
2524	0.7447
2515	0.7511
2506	0.7594
2497	0.7657
2488	0.769
2479	0.7687
2470	0.7684
2461	0.7697
2452	0.7747
2443	0.7798
2434	0.7814
2425	0.7826
2416	0.7858
2407	0.7901
2398	0.7945
2389	0.7987
2380	0.8021
2371	0.805
2362	0.8064
2353	0.8071
2344	0.8068
2335	0.8068
2326	0.8068
2317	0.8069
2308	0.8072
2299	0.8114
2290	0.8192
2281	0.8211
2272	0.8216
2263	0.8221
2254	0.8228
2245	0.8235
2236	0.8244
2227	0.8253
2218	0.8262
2209	0.8263
2200	0.8266
2191	0.8266
2182	0.8265
2173	0.8262
2164	0.8253
2155	0.8254
2146	0.8262
2137	0.827
2128	0.8277
2119	0.8277
2110	0.8261
2101	0.8208
2092	0.8136
2083	0.8088
2074	0.8119
2065	0.8176
2056	0.8224
2047	0.8252
2038	0.8273
2029	0.829
2020	0.8289
2011	0.8283
2002	0.8278
1993	0.828
1984	0.8286
1975	0.8294
1966	0.8307
1957	0.8318
1948	0.8328
1939	0.8237
1930	0.8175
1921	0.8264
1912	0.8324
1903	0.8271
1894	0.813
1885	0.8075
1876	0.8193
1867	0.8291
1858	0.8298
1849	0.8296
1840	0.8318
1831	0.8325
1822	0.8331
1813	0.8334
1804	0.8336
1795	0.8337
1786	0.8325
1777	0.8242
1768	0.8087
1759	0.8119
1750	0.8202
1741	0.822
1732	0.8208
1723	0.8196
1714	0.8184
1705	0.8161
1696	0.8089
1687	0.7961
1678	0.7915
1669	0.7918
1660	0.7887
1651	0.7811
1642	0.7728
1633	0.7658
1624	0.7553
1615	0.7218
1606	0.4571
1597	0.5023
1588	0.6037
1579	0.7434
1570	0.765
1561	0.766
1552	0.7515
1543	0.7471
1534	0.7065
1525	0.6751
1516	0.525
1507	0.4137
1498	0.154
1489	0.3352
1480	0.4721
1471	0.3686
1462	0.3264
1453	0.353
1444	0.4256
1435	0.486
1426	0.6042
1417	0.6558
1408	0.6895
1399	0.7018
1390	0.6116
1381	0.5303
1372	0.6565
1363	0.6701
1354	0.6884
1345	0.6069
1336	0.6136
1327	0.6349
1318	0.621
1309	0.4295
1300	0.5597
1291	0.4305
1282	0.572
1273	0.603
1264	0.4793
1255	0.2156
1246	0.0457
1237	0.2284
1228	0.4788
1219	0.5835
1210	0.6289
1201	0.6283
1192	0.5085
1183	0.612
1174	0.6935
1165	0.6223
1156	0.6532
1147	0.7019
1138	0.6536
1129	0.464
1120	0.2624
1111	0.2989
1102	0.3184
1093	0.4229
1084	0.624
1075	0.6205
1066	0.297
1057	0.3085
1048	0.135
1039	0.1833
1030	0.4571
1021	0.5972
1012	0.6735
1003	0.6837
994	0.38
985	0.4224
976	0.6706
967	0.7055
958	0.5614
949	0.6441
940	0.7191
931	0.6256
922	0.681
913	0.7751
904	0.7933
895	0.8024
886	0.8017
877	0.799
868	0.7976
859	0.7578
850	0.6922
841	0.565
832	0.7193
823	0.6626
814	0.7565
805	0.7805
796	0.7767
787	0.7548
778	0.6815
769	0.6154
760	0.4889
751	0.2181
742	0.333
733	0.6014
724	0.6159
715	0.5557
706	0.5369
697	0.5417
688	0.4944
679	0.4495
670	0.4232
661	0.4175
