Infrared Spectrum: 4-Chloro-3-methylphenol
Formula: C 7 H 7 Cl O
CAS: 59-50-7
State: gas
Instrument: HP-GC/MS/IRD
Origin: NIST Mass Spectrometry Data Center
1/CM	ABSORBANCE
550	0.000522
562	0.0013428
574	0.0011682
586	0.0003744
598	0.0001332
610	0.0001908
622	0.0016488
634	0.0064926
646	0.004824
658	0.0002232
670	0.0002286
682	0.000279
694	0.0003222
706	0.000108
718	1.62e-05
730	0.0002664
742	0.0001206
754	4.14e-05
766	0.0002988
778	0.0010026
790	0.0028044
802	0.0036702
814	0.0027936
826	0.001836
838	0.002619
850	0.002538
862	0.0025848
874	0.0014382
886	0.0006822
898	0.000441
910	0.0003078
922	0.0002664
934	0.0006606
946	0.0011808
958	0.0007398
970	0.0005472
982	0.0008532
994	0.0015606
1006	0.0020268
1018	0.0013698
1030	0.0009396
1042	0.002493
1054	0.005094
1066	0.003186
1078	0.0011268
1090	0.0010044
1102	0.0014058
1114	0.0031176
1126	0.0060894
1138	0.0076554
1150	0.0140328
1162	0.0161964
1174	0.0178794
1186	0.015597
1198	0.0078354
1210	0.003564
1222	0.0025578
1234	0.0044928
1246	0.0053334
1258	0.003402
1270	0.0048942
1282	0.0108432
1294	0.0110088
1306	0.0032022
1318	0.0009684
1330	0.0006102
1342	0.0004266
1354	0.000585
1366	0.000873
1378	0.0012672
1390	0.001305
1402	0.0019386
1414	0.0047304
1426	0.0063486
1438	0.0044604
1450	0.0034704
1462	0.0058356
1474	0.0133236
1486	0.0142398
1498	0.0067338
1510	0.0027
1522	0.0017262
1534	0.0018108
1546	0.0019656
1558	0.0024408
1570	0.0041634
1582	0.0057762
1594	0.0047736
1606	0.0049032
1618	0.004518
1630	0.0021114
1642	0.0006228
1654	0.0004122
1666	0.0002952
1678	0.000333
1690	0.000279
1702	0.0003096
1714	0.000315
1726	0.000315
1738	0.0002754
1750	0.0001476
1762	0.000117
1774	7.02e-05
1786	6.12e-05
1798	6.66e-05
1810	7.38e-05
1822	9.54e-05
1834	0.0002196
1846	0.000306
1858	0.0003042
1870	0.0003384
1882	0.0003078
1894	0.0001944
1906	0.0001242
1918	7.02e-05
1930	8.64e-05
1942	5.04e-05
1954	3.96e-05
1966	7.92e-05
1978	6.48e-05
1990	4.5e-05
2002	2.34e-05
2014	3.06e-05
2026	2.88e-05
2038	3.78e-05
2050	2.34e-05
2062	1.8e-05
2074	4.5e-05
2086	4.86e-05
2098	7.38e-05
2110	9e-05
2122	5.94e-05
2134	6.12e-05
2146	1.44e-05
2158	3.42e-05
2170	5.94e-05
2182	8.1e-05
2194	8.28e-05
2206	0.000108
2218	7.56e-05
2230	9.36e-05
2242	5.94e-05
2254	3.24e-05
2266	1.44e-05
2278	3.78e-05
2290	5.76e-05
2302	5.4e-05
2314	0.0001044
2326	0.0001206
2338	0.0001764
2350	0.0001818
2362	0.0001512
2374	0.0001584
2386	0.0001386
2398	0.0001206
2410	0.000144
2422	0.000198
2434	0.0001962
2446	0.0001908
2458	0.0001782
2470	0.000216
2482	0.000171
2494	0.0001098
2506	0.0001134
2518	9e-05
2530	0.000117
2542	0.0001224
2554	0.0001044
2566	6.3e-05
2578	0.0001044
2590	8.46e-05
2602	5.22e-05
2614	7.38e-05
2626	7.74e-05
2638	0.0001242
2650	9.18e-05
2662	8.82e-05
2674	6.3e-05
2686	6.48e-05
2698	2.34e-05
2710	4.68e-05
2722	0.0001098
2734	0.0001476
2746	0.00018
2758	0.0001674
2770	0.0001314
2782	0.0001278
2794	0.000117
2806	0.000117
2818	0.0001926
2830	0.0002484
2842	0.0003654
2854	0.000576
2866	0.0008316
2878	0.000837
2890	0.000738
2902	0.000837
2914	0.001152
2926	0.0018666
2938	0.0023508
2950	0.0019314
2962	0.0015282
2974	0.0015642
2986	0.0016254
2998	0.0015318
3010	0.0017388
3022	0.0020178
3034	0.0016524
3046	0.0014238
3058	0.0012816
3070	0.0011178
3082	0.0009018
3094	0.0006804
3106	0.0005238
3118	0.0003474
3130	0.0002448
3142	0.000108
3154	0.0001314
3166	9.36e-05
3178	7.74e-05
3190	9e-05
3202	0.0001026
3214	1.26e-05
3226	5.94e-05
3238	7.92e-05
3250	8.28e-05
3262	7.56e-05
3274	5.94e-05
3286	5.58e-05
3298	5.76e-05
3310	7.02e-05
3322	2.34e-05
3334	9.72e-05
3346	0.0001656
3358	0.0002214
3370	0.000207
3382	0.000171
3394	0.0001656
3406	0.0001062
3418	0.0001566
3430	8.28e-05
3442	3.78e-05
3454	3.6e-05
3466	4.68e-05
3478	4.14e-05
3490	0.0001044
3502	5.4e-05
3514	4.14e-05
3526	6.12e-05
3538	3.78e-05
3550	5.22e-05
3562	1.98e-05
3574	0.0001044
3586	0.0001008
3598	0.0001476
3610	0.0003456
3622	0.0007092
3634	0.0026028
3646	0.0100368
3658	0.0100944
3670	0.0020952
3682	0.000297
3694	2.52e-05
3706	3.96e-05
3718	1.8e-05
3730	5.76e-05
3742	5.4e-06
3754	5.4e-05
3766	0.000108
3778	3.06e-05
3790	7.2e-05
3802	0.0001242
3814	5.4e-05
3826	8.46e-05
3838	0.0001044
