Infrared Spectrum: FORMAMIDE, N-[(4-AMINO-2-METHYL-5-PYRIMIDINYL)METHYL]-N-[4-HYDROXY-1-METHYL-2-(PROPYLDITHIO)-1-BUTENYL]-
Formula: C15 H24 N4 O2 S2
CAS: 59-58-5
State: SOLID (SPLIT MULL)
Melting point: 135 C (DECOMP.)
Class: COBLENTZ III
Instrument: DOW KBr FOREPRISM-GRATING
Instrument parameters: BLAZED AT 3.5, 12.0, 20.0 MICRON AND CHANGED AT 5.0, 7.5, 14.9 MICRON
Sampling: TRANSMISSION
Resolution: 2
Origin: DOW CHEMICAL COMPANY
1/CM	TRANSMITTANCE
378	0.8302
387	0.8307
396	0.8324
405	0.8348
414	0.839
423	0.8418
432	0.8431
441	0.8417
450	0.8606
459	0.87
468	0.8656
477	0.8624
486	0.8674
495	0.8628
504	0.842
513	0.8115
522	0.7781
531	0.7314
540	0.7538
549	0.7458
558	0.5612
567	0.619
576	0.6286
585	0.661
594	0.6017
603	0.5814
612	0.7175
621	0.7735
630	0.6403
639	0.7472
648	0.8028
657	0.7799
666	0.7896
675	0.7872
684	0.7743
693	0.7254
702	0.8046
711	0.7932
720	0.7034
729	0.765
738	0.7915
747	0.7904
756	0.7024
765	0.744
774	0.683
783	0.8183
792	0.796
801	0.8203
810	0.5048
819	0.8046
828	0.7722
837	0.8527
846	0.8473
855	0.8678
864	0.8289
873	0.7845
882	0.8584
891	0.8552
900	0.8582
909	0.848
918	0.8024
927	0.7987
936	0.7735
945	0.7492
954	0.7185
963	0.7489
972	0.7321
981	0.6098
990	0.568
999	0.7598
1008	0.7344
1017	0.7431
1026	0.7368
1035	0.6915
1044	0.6417
1053	0.5945
1062	0.4073
1071	0.2516
1080	0.6847
1089	0.7411
1098	0.7551
1107	0.7512
1116	0.7518
1125	0.7478
1134	0.6565
1143	0.7365
1152	0.7441
1161	0.7432
1170	0.7226
1179	0.6728
1188	0.6366
1197	0.6539
1206	0.5812
1215	0.5344
1224	0.4749
1233	0.576
1242	0.5325
1251	0.5526
1260	0.4931
1269	0.3126
1278	0.5207
1287	0.4897
1296	0.5298
1305	0.5712
1314	0.5636
1323	0.5306
1332	0.4612
1341	0.4247
1350	0.3903
1359	0.4671
1368	0.516
1377	0.5128
1386	0.5253
1395	0.6032
1404	0.5328
1413	0.499
1422	0.4439
1431	0.4232
1440	0.4922
1449	0.5139
1458	0.5775
1467	0.6133
1476	0.6065
1485	0.58
1494	0.6162
1503	0.6797
1512	0.6747
1521	0.6626
1530	0.6542
1539	0.6468
1548	0.6232
1557	0.5386
1566	0.5351
1575	0.5886
1584	0.591
1593	0.5382
1602	0.4266
1611	0.5629
1620	0.5132
1629	0.4635
1638	0.4172
1647	0.1509
1656	0.311
1665	0.3932
1674	0.2899
1683	0.617
1692	0.7538
1701	0.7719
1710	0.7754
1719	0.7761
1728	0.7762
1737	0.7753
1746	0.7741
1755	0.7728
1764	0.7712
1773	0.77
1782	0.769
1791	0.7678
1800	0.7661
1809	0.7643
1818	0.7636
1827	0.7622
1836	0.7621
1845	0.761
1854	0.7598
1863	0.7586
1872	0.7568
1881	0.7549
1890	0.7525
1899	0.7508
1908	0.7498
1917	0.7485
1926	0.7471
1935	0.7458
1944	0.7447
1953	0.7475
1962	0.7472
1971	0.74
1980	0.7385
1989	0.7388
1998	0.7424
2007	0.7417
2016	0.7396
2025	0.7374
2034	0.7353
2043	0.7324
2052	0.7301
2061	0.7272
2070	0.7245
2079	0.7218
2088	0.7194
2097	0.7168
2106	0.7144
2115	0.7118
2124	0.7094
2133	0.7069
2142	0.7046
2151	0.7017
2160	0.6989
2169	0.6953
2178	0.6918
2187	0.6901
2196	0.6884
2205	0.6868
2214	0.6865
2223	0.6853
2232	0.6801
2241	0.675
2250	0.6719
2259	0.6698
2268	0.6671
2277	0.6645
2286	0.6617
2295	0.6588
2304	0.656
2313	0.6535
2322	0.6531
2331	0.6538
2340	0.653
2349	0.6512
2358	0.6498
2367	0.6482
2376	0.6465
2385	0.6451
2394	0.6436
2403	0.6421
2412	0.6408
2421	0.6396
2430	0.6384
2439	0.6371
2448	0.6359
2457	0.6347
2466	0.6334
2475	0.632
2484	0.6308
2493	0.6293
2502	0.6275
2511	0.6256
2520	0.6238
2529	0.6217
2538	0.6195
2547	0.6173
2556	0.6152
2565	0.6131
2574	0.6112
2583	0.6091
2592	0.6071
2601	0.6043
2610	0.6015
2619	0.5987
2628	0.5959
2637	0.5929
2646	0.5891
2655	0.5854
2664	0.5816
2673	0.5775
2682	0.5735
2691	0.5706
2700	0.5684
2709	0.566
2718	0.5625
2727	0.558
2736	0.5519
2745	0.5455
2754	0.5388
2763	0.5339
2772	0.53
2781	0.5278
2790	0.5279
2799	0.5286
2808	0.5262
2817	0.5185
2826	0.5085
2835	0.4964
2844	0.4823
2853	0.4664
2862	0.4464
2871	0.4344
2880	0.4484
2889	0.46
2898	0.4657
2907	0.4625
2916	0.4482
2925	0.452
2934	0.4602
2943	0.4647
2952	0.4533
2961	0.4262
2970	0.4515
2979	0.4815
2988	0.479
2997	0.4737
3006	0.4681
3015	0.4626
3024	0.4566
3033	0.4498
3042	0.4427
3051	0.4347
3060	0.425
3069	0.4151
3078	0.4041
3087	0.3927
3096	0.3807
3105	0.3714
3114	0.3639
3123	0.3602
3132	0.36
3141	0.3612
3150	0.3668
3159	0.3798
3168	0.3956
3177	0.4138
3186	0.4275
3195	0.4344
3204	0.4362
3213	0.4358
3222	0.4327
3231	0.4286
3240	0.4243
3249	0.4191
3258	0.4135
3267	0.4078
3276	0.4026
3285	0.3993
3294	0.3978
3303	0.397
3312	0.3897
3321	0.3779
3330	0.362
3339	0.3578
3348	0.3682
3357	0.408
3366	0.4249
3375	0.4259
3384	0.4397
3393	0.5053
3402	0.5273
3411	0.5376
3420	0.5435
3429	0.5471
3438	0.5505
3447	0.5534
3456	0.5555
3465	0.5567
3474	0.558
3483	0.5588
3492	0.5595
3501	0.5595
3510	0.5592
3519	0.5588
3528	0.5584
3537	0.5579
3546	0.5574
3555	0.5569
3564	0.5562
3573	0.5555
3582	0.5547
3591	0.5539
3600	0.5525
3609	0.5509
3618	0.5495
3627	0.5479
3636	0.5464
3645	0.5449
3654	0.5433
3663	0.5417
3672	0.5402
3681	0.5386
3690	0.537
3699	0.5353
3708	0.5335
3717	0.5318
3726	0.53
3735	0.5286
3744	0.5276
3753	0.5265
3762	0.5253
3771	0.5236
3780	0.522
3789	0.5203
3798	0.5187
