Infrared Spectrum: 2-ACETYLAMINO-1,3,4-THIADIAZOLE-5-SULFONAMIDE
Formula: C4 H6 N4 O3 S2
CAS: 59-66-5
State: SOLID (OIL MULL)
Class: COBLENTZ
Instrument: Not specified, most likely a prism, grating, or hybrid spectrometer.
Sampling: TRANSMISSION
Resolution: 4
MICROMETERS	TRANSMITTANCE
1.993	0.545
2.02897	0.553
2.06494	0.56
2.10091	0.57
2.13688	0.579
2.17285	0.591
2.20882	0.602
2.24479	0.606
2.28076	0.607
2.31674	0.611
2.35271	0.618
2.38868	0.627
2.42465	0.641
2.46062	0.65
2.49659	0.657
2.53256	0.667
2.56853	0.671
2.6045	0.681
2.64047	0.697
2.67644	0.71
2.71241	0.724
2.74838	0.729
2.78435	0.727
2.82032	0.734
2.85629	0.743
2.89227	0.747
2.92824	0.722
2.96421	0.604
3.00018	0.36
3.03615	0.219
3.07212	0.36
3.10809	0.36
3.14406	0.252
3.18003	0.252
3.216	0.298
3.25197	0.314
3.28794	0.349
3.32391	0.303
3.35988	0.167
3.39585	0.028
3.43182	0.007
3.4678	0.019
3.50377	0.014
3.53974	0.127
3.57571	0.208
3.61168	0.199
3.64765	0.208
3.68362	0.245
3.71959	0.284
3.75556	0.307
3.79153	0.353
3.8275	0.408
3.86347	0.454
3.89944	0.485
3.93541	0.51
3.97138	0.545
4.00735	0.579
4.04333	0.616
4.0793	0.632
4.11527	0.646
4.15124	0.66
4.18721	0.673
4.22318	0.671
4.25915	0.681
4.29512	0.699
4.33109	0.724
4.36706	0.727
4.40303	0.731
4.439	0.734
4.47497	0.752
4.51094	0.768
4.54691	0.777
4.58288	0.787
4.61886	0.798
4.65483	0.798
4.6908	0.8
4.72677	0.802
4.76274	0.81
4.79871	0.812
4.83468	0.816
4.87065	0.819
4.90662	0.823
4.94259	0.826
4.97856	0.832
5.01453	0.832
5.0505	0.833
5.08647	0.84
5.12244	0.844
5.15841	0.846
5.19439	0.848
5.23036	0.855
5.26633	0.851
5.3023	0.858
5.33827	0.856
5.37424	0.86
5.41021	0.869
5.44618	0.862
5.48215	0.853
5.51812	0.851
5.55409	0.851
5.59006	0.858
5.62603	0.856
5.662	0.862
5.69797	0.863
5.73394	0.874
5.76992	0.856
5.80589	0.798
5.84186	0.673
5.87783	0.567
5.9138	0.265
5.94977	0.125
5.98574	0.204
6.02171	0.416
6.05768	0.464
6.09365	0.521
6.12962	0.575
6.16559	0.588
6.20156	0.581
6.23753	0.471
6.2735	0.369
6.30947	0.277
6.34544	0.219
6.38142	0.199
6.41739	0.153
6.45336	0.123
6.48933	0.169
6.5253	0.295
6.56127	0.39
6.59724	0.461
6.63321	0.508
6.66918	0.553
6.70515	0.572
6.74112	0.583
6.77709	0.537
6.81306	0.316
6.84903	0.25
6.885	0.259
6.92097	0.291
6.95695	0.245
6.99292	0.242
7.02889	0.319
7.06486	0.386
7.10083	0.485
7.1368	0.57
7.17277	0.545
7.20874	0.399
7.24471	0.201
7.28068	0.093
7.31665	0.072
7.35262	0.072
7.38859	0.19
7.42456	0.307
7.46053	0.404
7.4965	0.427
7.53248	0.277
7.56845	0.155
7.60442	0.233
7.64039	0.369
7.67636	0.48
7.71233	0.549
7.7483	0.542
7.78427	0.445
7.82024	0.528
7.85621	0.598
7.89218	0.618
7.92815	0.625
7.96412	0.584
8.00009	0.464
8.03606	0.475
8.07203	0.549
8.10801	0.586
8.14398	0.609
8.17995	0.618
8.21592	0.643
8.25189	0.639
8.28786	0.632
8.32383	0.597
8.3598	0.531
8.39577	0.457
8.43174	0.344
8.46771	0.208
8.50368	0.111
8.53965	0.077
8.57562	0.197
8.61159	0.351
8.64756	0.478
8.68354	0.575
8.71951	0.625
8.75548	0.664
8.79145	0.683
8.82742	0.71
8.86339	0.706
8.89936	0.588
8.93533	0.337
8.9713	0.448
9.00727	0.593
9.04324	0.666
9.07921	0.699
9.11518	0.669
9.15115	0.583
9.18712	0.489
9.22309	0.503
9.25907	0.583
9.29504	0.636
9.33101	0.659
9.36698	0.669
9.40295	0.697
9.43892	0.722
9.47489	0.719
9.51086	0.673
9.54683	0.558
9.5828	0.482
9.61877	0.639
9.65474	0.722
9.69071	0.765
9.72668	0.782
9.76265	0.782
9.79862	0.766
9.8346	0.68
9.87057	0.561
9.90654	0.627
9.94251	0.706
9.97848	0.743
10.0144	0.759
10.0504	0.78
10.0864	0.78
10.1224	0.77
10.1583	0.726
10.1943	0.678
10.2303	0.512
10.2662	0.42
10.3022	0.471
10.3382	0.586
10.3742	0.666
10.4101	0.717
10.4461	0.747
10.4821	0.761
10.518	0.77
10.554	0.775
10.59	0.782
10.6259	0.782
10.6619	0.777
10.6979	0.773
10.7339	0.768
10.7698	0.752
10.8058	0.727
10.8418	0.669
10.8777	0.584
10.9137	0.484
10.9497	0.408
10.9857	0.415
11.0216	0.487
11.0576	0.568
11.0936	0.625
11.1295	0.666
11.1655	0.683
11.2015	0.696
11.2374	0.713
11.2734	0.717
11.3094	0.724
11.3454	0.722
11.3813	0.72
11.4173	0.713
11.4533	0.703
11.4892	0.69
11.5252	0.666
11.5612	0.648
11.5972	0.639
11.6331	0.618
11.6691	0.597
11.7051	0.579
11.741	0.549
11.777	0.521
11.813	0.498
11.8489	0.478
11.8849	0.464
11.9209	0.468
11.9569	0.475
11.9928	0.489
12.0288	0.508
12.0648	0.517
12.1007	0.519
12.1367	0.496
12.1727	0.432
12.2087	0.369
12.2446	0.372
12.2806	0.424
12.3166	0.494
12.3525	0.545
12.3885	0.577
12.4245	0.604
12.4605	0.621
12.4964	0.639
12.5324	0.65
12.5684	0.657
12.6043	0.666
12.6403	0.676
12.6763	0.681
12.7122	0.685
12.7482	0.678
12.7842	0.685
12.8202	0.68
12.8561	0.676
12.8921	0.68
12.9281	0.681
12.964	0.681
13	0.68
13.036	0.676
13.072	0.678
13.1079	0.674
13.1439	0.671
13.1799	0.667
13.2158	0.664
13.2518	0.659
13.2878	0.65
13.3237	0.637
13.3597	0.628
13.3957	0.621
13.4317	0.609
13.4676	0.604
13.5036	0.586
13.5396	0.575
13.5755	0.57
13.6115	0.554
13.6475	0.547
13.6835	0.533
13.7194	0.528
13.7554	0.512
13.7914	0.507
13.8273	0.496
13.8633	0.487
13.8993	0.482
13.9352	0.478
13.9712	0.473
14.0072	0.455
14.0432	0.439
14.0791	0.408
14.1151	0.362
14.1511	0.31
14.187	0.296
14.223	0.296
14.259	0.302
14.295	0.309
14.3309	0.314
14.3669	0.316
14.4029	0.318
14.4388	0.31
14.4748	0.31
14.5108	0.307
14.5467	0.303
14.5827	0.3
14.6187	0.305
14.6547	0.3
14.6906	0.293
14.7266	0.282
14.7626	0.245
14.7985	0.204
14.8345	0.181
14.8705	0.187
14.9065	0.231
14.9424	0.263
14.9784	0.309
15.0144	0.326
15.0503	0.342
15.0863	0.351
15.1223	0.36
15.1582	0.365
15.1942	0.378
15.2302	0.385
15.2662	0.388
15.3021	0.39
15.3381	0.392
15.3741	0.393
15.41	0.392
15.446	0.383
