Infrared Spectrum: PHENYLHYDRAZINE HYDROCHLORIDE
Formula: C6 H9 Cl N2
CAS: 59-88-1
State: SOLID (MINERAL OIL MULL)
Class: COBLENTZ
Instrument: Not specified, most likely a prism, grating, or hybrid spectrometer.
Sampling: TRANSMISSION
Resolution: 4
Origin: DOW CHEMICAL COMPANY
MICROMETERS	TRANSMITTANCE
2.055	0.5
2.09606	0.509
2.13711	0.521
2.17817	0.526
2.21922	0.535
2.26028	0.54
2.30133	0.54
2.34239	0.548
2.38344	0.555
2.4245	0.564
2.46556	0.572
2.50661	0.584
2.54767	0.591
2.58872	0.598
2.62978	0.605
2.67083	0.611
2.71189	0.62
2.75294	0.623
2.794	0.63
2.83506	0.639
2.87611	0.644
2.91717	0.652
2.95822	0.658
2.99928	0.668
3.04033	0.664
3.08139	0.594
3.12245	0.401
3.1635	0.464
3.20456	0.5
3.24561	0.427
3.28667	0.307
3.32772	0.241
3.36878	0.112
3.40983	0.029
3.45089	0.054
3.49195	0.071
3.533	0.188
3.57406	0.35
3.61511	0.41
3.65617	0.386
3.69722	0.312
3.73828	0.323
3.77933	0.367
3.82039	0.452
3.86145	0.517
3.9025	0.562
3.94356	0.586
3.98461	0.608
4.02567	0.627
4.06672	0.635
4.10778	0.646
4.14883	0.654
4.18989	0.652
4.23095	0.647
4.272	0.656
4.31306	0.705
4.35411	0.712
4.39517	0.717
4.43622	0.724
4.47728	0.731
4.51833	0.738
4.55939	0.741
4.60045	0.741
4.6415	0.741
4.68256	0.747
4.72361	0.753
4.76467	0.757
4.80572	0.752
4.84678	0.75
4.88783	0.743
4.92889	0.735
4.96995	0.723
5.011	0.721
5.05206	0.743
5.09311	0.757
5.13417	0.76
5.17522	0.752
5.21628	0.757
5.25734	0.769
5.29839	0.772
5.33945	0.774
5.3805	0.774
5.42156	0.772
5.46261	0.779
5.50367	0.784
5.54472	0.786
5.58578	0.786
5.62684	0.779
5.66789	0.784
5.70895	0.784
5.75	0.782
5.79106	0.781
5.83211	0.776
5.87317	0.776
5.91422	0.779
5.95528	0.781
5.99634	0.781
6.03739	0.774
6.07845	0.777
6.1195	0.757
6.16056	0.663
6.20161	0.5
6.24267	0.521
6.28372	0.476
6.32478	0.576
6.36584	0.651
6.40689	0.731
6.44795	0.747
6.489	0.733
6.53006	0.658
6.57111	0.598
6.61217	0.531
6.65322	0.321
6.69428	0.423
6.73534	0.514
6.77639	0.372
6.81745	0.264
6.8585	0.305
6.89956	0.408
6.94061	0.6
6.98167	0.694
7.02272	0.724
7.06378	0.74
7.10484	0.741
7.14589	0.726
7.18695	0.632
7.228	0.499
7.26906	0.552
7.31011	0.639
7.35117	0.712
7.39223	0.714
7.43328	0.717
7.47434	0.747
7.51539	0.745
7.55645	0.743
7.5975	0.74
7.63856	0.752
7.67961	0.76
7.72067	0.769
7.76173	0.77
7.80278	0.77
7.84384	0.772
7.88489	0.776
7.92595	0.779
7.967	0.779
8.00806	0.757
8.04911	0.716
8.09017	0.723
8.13123	0.767
8.17228	0.748
8.21334	0.747
8.25439	0.776
8.29545	0.777
8.3365	0.765
8.37756	0.758
8.41861	0.752
8.45967	0.724
8.50073	0.658
8.54178	0.608
8.58284	0.629
8.62389	0.695
8.66495	0.723
8.706	0.731
8.74706	0.743
8.78811	0.755
8.82917	0.762
8.87023	0.77
8.91128	0.774
8.95234	0.774
8.99339	0.762
9.03445	0.748
9.0755	0.765
9.11656	0.781
9.15761	0.791
9.19867	0.782
9.23973	0.748
9.28078	0.74
9.32184	0.784
9.36289	0.793
9.40395	0.801
9.445	0.794
9.48606	0.769
9.52712	0.716
9.56817	0.716
9.60923	0.794
9.65028	0.801
9.69134	0.781
9.73239	0.777
9.77345	0.803
9.8145	0.818
9.85556	0.827
9.89662	0.83
9.93767	0.82
9.97873	0.808
10.0198	0.825
10.0608	0.834
10.1019	0.841
10.1429	0.841
10.184	0.837
10.2251	0.834
10.2661	0.825
10.3072	0.81
10.3482	0.817
10.3893	0.823
10.4303	0.811
10.4714	0.827
10.5124	0.827
10.5535	0.82
10.5946	0.817
10.6356	0.808
10.6767	0.796
10.7177	0.791
10.7588	0.786
10.7998	0.774
10.8409	0.767
10.8819	0.755
10.923	0.748
10.9641	0.728
11.0051	0.705
11.0462	0.673
11.0872	0.627
11.1283	0.552
11.1693	0.463
11.2104	0.347
11.2514	0.333
11.2925	0.535
11.3336	0.671
11.3746	0.74
11.4157	0.738
11.4567	0.695
11.4978	0.611
11.5388	0.509
11.5799	0.446
11.6209	0.43
11.662	0.49
11.7031	0.567
11.7441	0.623
11.7852	0.658
11.8262	0.687
11.8673	0.712
11.9083	0.724
11.9494	0.731
11.9904	0.733
12.0315	0.731
12.0726	0.729
12.1136	0.736
12.1547	0.741
12.1957	0.743
12.2368	0.743
12.2778	0.741
12.3189	0.74
12.3599	0.738
12.401	0.738
12.4421	0.736
12.4831	0.738
12.5242	0.74
12.5652	0.74
12.6063	0.74
12.6473	0.733
12.6884	0.724
12.7295	0.702
12.7705	0.678
12.8116	0.627
12.8526	0.548
12.8937	0.456
12.9347	0.309
12.9758	0.246
13.0168	0.234
13.0579	0.304
13.099	0.4
13.14	0.483
13.1811	0.555
13.2221	0.601
13.2632	0.63
13.3042	0.654
13.3453	0.67
13.3863	0.683
13.4274	0.69
13.4685	0.692
13.5095	0.687
13.5506	0.68
13.5916	0.671
13.6327	0.651
13.6737	0.605
13.7148	0.528
13.7558	0.475
13.7969	0.49
13.838	0.574
13.879	0.625
13.9201	0.654
13.9611	0.671
14.0022	0.683
14.0432	0.69
14.0843	0.694
14.1253	0.694
14.1664	0.692
14.2075	0.687
14.2485	0.682
14.2896	0.673
14.3306	0.659
14.3717	0.647
14.4127	0.632
14.4538	0.61
14.4948	0.567
14.5359	0.495
14.577	0.413
14.618	0.335
14.6591	0.307
14.7001	0.343
14.7412	0.408
14.7822	0.475
14.8233	0.514
14.8643	0.535
14.9054	0.545
14.9465	0.56
14.9875	0.574
15.0286	0.579
15.0696	0.576
15.1107	0.574
15.1517	0.572
15.1928	0.567
15.2338	0.565
15.2749	0.56
15.316	0.555
15.357	0.547
15.3981	0.538
15.4391	0.531
15.4802	0.519
15.5212	0.512
15.5623	0.502
15.6033	0.494
15.6444	0.487
15.6855	0.478
15.7265	0.471
15.7676	0.466
15.8086	0.459
15.8497	0.458
15.8907	0.463
