Infrared Spectrum: TOLAZOLINE
Formula: C10 H12 N2
CAS: 59-98-3
State: SOLID (KBr DISC) VS KBr
Class: COBLENTZ III
Instrument: PERKIN-ELMER 21 (GRATING)
Instrument parameters: FILTER AT ABOUT 10 MICRONS
Sampling: TRANSMISSION
Resolution: 2
1/CM	TRANSMITTANCE
4000	0.7221
3991	0.7228
3982	0.7237
3973	0.7245
3964	0.7253
3955	0.726
3946	0.7268
3937	0.7276
3928	0.7285
3919	0.7293
3910	0.7301
3901	0.7311
3892	0.7322
3883	0.7335
3874	0.7346
3865	0.7357
3856	0.7368
3847	0.7381
3838	0.7392
3829	0.7404
3820	0.7417
3811	0.7428
3802	0.7442
3793	0.7455
3784	0.7468
3775	0.7484
3766	0.7501
3757	0.7519
3748	0.7538
3739	0.7556
3730	0.7567
3721	0.7578
3712	0.7587
3703	0.7595
3694	0.7601
3685	0.7608
3676	0.7607
3667	0.76
3658	0.7578
3649	0.7537
3640	0.7467
3631	0.7398
3622	0.7337
3613	0.7303
3604	0.7289
3595	0.7271
3586	0.7238
3577	0.7192
3568	0.7144
3559	0.7068
3550	0.6993
3541	0.6915
3532	0.6839
3523	0.6761
3514	0.6685
3505	0.6606
3496	0.6528
3487	0.645
3478	0.637
3469	0.629
3460	0.621
3451	0.613
3442	0.6049
3433	0.5968
3424	0.5925
3415	0.5906
3406	0.5895
3397	0.5894
3388	0.5899
3379	0.5907
3370	0.5914
3361	0.5916
3352	0.5912
3343	0.5891
3334	0.5838
3325	0.5776
3316	0.5706
3307	0.561
3298	0.5507
3289	0.5391
3280	0.5262
3271	0.5107
3262	0.4983
3253	0.487
3244	0.4778
3235	0.4687
3226	0.4535
3217	0.44
3208	0.4244
3199	0.4062
3190	0.388
3181	0.3696
3172	0.3514
3163	0.339
3154	0.3346
3145	0.3338
3136	0.3334
3127	0.3342
3118	0.3364
3109	0.3396
3100	0.3441
3091	0.3516
3082	0.3618
3073	0.3718
3064	0.3866
3055	0.4043
3046	0.4076
3037	0.4123
3028	0.4224
3019	0.4345
3010	0.4438
3001	0.4488
2992	0.45
2983	0.4449
2974	0.3779
2965	0.3602
2956	0.3496
2947	0.3398
2938	0.3372
2929	0.3391
2920	0.358
2911	0.3804
2902	0.4027
2893	0.4187
2884	0.4179
2875	0.3999
2866	0.382
2857	0.3788
2848	0.4026
2839	0.4326
2830	0.4617
2821	0.4696
2812	0.4719
2803	0.4762
2794	0.4859
2785	0.5033
2776	0.5233
2767	0.5437
2758	0.5623
2749	0.5787
2740	0.5943
2731	0.6085
2722	0.6187
2713	0.6289
2704	0.6369
2695	0.643
2686	0.6493
2677	0.6558
2668	0.663
2659	0.6699
2650	0.6761
2641	0.6824
2632	0.6882
2623	0.694
2614	0.6991
2605	0.7037
2596	0.7083
2587	0.7128
2578	0.7178
2569	0.7235
2560	0.729
2551	0.7347
2542	0.7407
2533	0.7467
2524	0.7528
2515	0.7578
2506	0.7621
2497	0.7662
2488	0.77
2479	0.7737
2470	0.7775
2461	0.7812
2452	0.7851
2443	0.789
2434	0.7932
2425	0.7974
2416	0.8014
2407	0.805
2398	0.8067
2389	0.8078
2380	0.8088
2371	0.8087
2362	0.8085
2353	0.8086
2344	0.8088
2335	0.8098
2326	0.8108
2317	0.8118
2308	0.8158
2299	0.8202
2290	0.8239
2281	0.8266
2272	0.8293
2263	0.8318
2254	0.8346
2245	0.8375
2236	0.8406
2227	0.8434
2218	0.8454
2209	0.8473
2200	0.8495
2191	0.8518
2182	0.854
2173	0.8562
2164	0.8584
2155	0.8606
2146	0.8617
2137	0.8613
2128	0.8621
2119	0.8668
2110	0.8703
2101	0.8711
2092	0.8699
2083	0.8703
2074	0.8725
2065	0.8778
2056	0.8807
2047	0.8806
2038	0.8824
2029	0.8841
2020	0.8859
2011	0.8874
2002	0.8877
1993	0.8878
1984	0.8848
1975	0.8817
1966	0.8782
1957	0.8765
1948	0.8771
1939	0.8785
1930	0.885
1921	0.8915
1912	0.8971
1903	0.8941
1894	0.8918
1885	0.8921
1876	0.893
1867	0.8973
1858	0.9013
1849	0.9028
1840	0.9037
1831	0.903
1822	0.8958
1813	0.8954
1804	0.8997
1795	0.9046
1786	0.9074
1777	0.9093
1768	0.9142
1759	0.923
1750	0.9312
1741	0.9299
1732	0.9231
1723	0.9155
1714	0.9065
1705	0.8953
1696	0.8811
1687	0.8632
1678	0.8453
1669	0.829
1660	0.8087
1651	0.746
1642	0.6883
1633	0.4855
1624	0.341
1615	0.2953
1606	0.1511
1597	0.429
1588	0.4939
1579	0.6143
1570	0.7136
1561	0.743
1552	0.7721
1543	0.7743
1534	0.7518
1525	0.6407
1516	0.4922
1507	0.365
1498	0.2593
1489	0.5131
1480	0.4542
1471	0.4934
1462	0.5305
1453	0.4536
1444	0.5393
1435	0.5528
1426	0.5672
1417	0.6922
1408	0.7265
1399	0.7491
1390	0.7671
1381	0.7758
1372	0.7792
1363	0.7818
1354	0.7371
1345	0.7355
1336	0.7508
1327	0.7564
1318	0.7028
1309	0.6676
1300	0.6655
1291	0.5949
1282	0.567
1273	0.3432
1264	0.4788
1255	0.6556
1246	0.7299
1237	0.7634
1228	0.7714
1219	0.7842
1210	0.814
1201	0.8165
1192	0.7697
1183	0.6271
1174	0.7007
1165	0.7639
1156	0.7346
1147	0.6908
1138	0.7903
1129	0.8397
1120	0.8587
1111	0.8683
1102	0.8667
1093	0.8684
1084	0.8386
1075	0.8
1066	0.8534
1057	0.8556
1048	0.6165
1039	0.7201
1030	0.6808
1021	0.8114
1012	0.7658
1003	0.713
994	0.6081
985	0.4378
976	0.745
967	0.8193
958	0.8696
949	0.881
940	0.876
931	0.7992
922	0.7247
913	0.8415
904	0.8444
895	0.7939
886	0.8225
877	0.8374
868	0.8506
859	0.8331
850	0.8296
841	0.8418
832	0.8209
823	0.8095
814	0.795
805	0.7789
796	0.7697
787	0.7137
778	0.5937
769	0.6506
760	0.6581
751	0.6518
742	0.6383
733	0.5475
724	0.3893
715	0.4176
706	0.34
697	0.4777
688	0.4068
679	0.6212
