Infrared Spectrum: 2-Imidazoline, 2-benzyl-, hydrochloride
Formula: C10 H13 Cl N2
CAS: 59-97-2
State: SOLID (SPLIT MULL), FLUOROLUBE FOR 3800-1330 CM^-^1, NUJOL FOR 1330-400 CM^-^1
Class: COBLENTZ III
Instrument: DOW KBr FOREPRISM-GRATING
Instrument parameters: BLAZED AT 3.5, 12.0, 20.0 MICRON AND CHANGED AT 5.0, 7.5, 14.9 MICRON
Sampling: TRANSMISSION
Resolution: 2
Origin: DOW CHEMICAL COMPANY
1/CM	TRANSMITTANCE
3800	0.6331
3791	0.6359
3782	0.6386
3773	0.6408
3764	0.6434
3755	0.6453
3746	0.6465
3737	0.6475
3728	0.6491
3719	0.6506
3710	0.6522
3701	0.654
3692	0.6558
3683	0.6578
3674	0.6597
3665	0.6617
3656	0.6637
3647	0.6656
3638	0.6675
3629	0.6694
3620	0.6711
3611	0.6728
3602	0.6747
3593	0.6765
3584	0.6783
3575	0.6801
3566	0.6818
3557	0.6838
3548	0.6858
3539	0.688
3530	0.6901
3521	0.6924
3512	0.6949
3503	0.6975
3494	0.7
3485	0.7024
3476	0.7044
3467	0.7064
3458	0.7083
3449	0.7103
3440	0.7124
3431	0.7145
3422	0.7167
3413	0.7189
3404	0.7211
3395	0.7234
3386	0.7257
3377	0.728
3368	0.7305
3359	0.733
3350	0.7355
3341	0.7372
3332	0.7392
3323	0.741
3314	0.7421
3305	0.7432
3296	0.7431
3287	0.7414
3278	0.7383
3269	0.7326
3260	0.7224
3251	0.6758
3242	0.6353
3233	0.6171
3224	0.6159
3215	0.6312
3206	0.6468
3197	0.6551
3188	0.6538
3179	0.6379
3170	0.6152
3161	0.5856
3152	0.5556
3143	0.5312
3134	0.5093
3125	0.4849
3116	0.4521
3107	0.4095
3098	0.3472
3089	0.2925
3080	0.2573
3071	0.2173
3062	0.1925
3053	0.1889
3044	0.2296
3035	0.3057
3026	0.3782
3017	0.3954
3008	0.4062
2999	0.3047
2990	0.2423
2981	0.2071
2972	0.1596
2963	0.1187
2954	0.0989
2945	0.1065
2936	0.1134
2927	0.1068
2918	0.1219
2909	0.132
2900	0.1366
2891	0.1373
2882	0.125
2873	0.1337
2864	0.1636
2855	0.2111
2846	0.2572
2837	0.249
2828	0.2571
2819	0.2917
2810	0.2875
2801	0.2931
2792	0.3434
2783	0.3768
2774	0.3712
2765	0.367
2756	0.4227
2747	0.4491
2738	0.4748
2729	0.4979
2720	0.5147
2711	0.5078
2702	0.496
2693	0.4141
2684	0.3216
2675	0.3111
2666	0.3422
2657	0.4405
2648	0.5181
2639	0.5462
2630	0.5622
2621	0.5648
2612	0.5842
2603	0.6016
2594	0.6149
2585	0.6256
2576	0.6355
2567	0.6445
2558	0.6525
2549	0.6604
2540	0.6671
2531	0.6736
2522	0.6801
2513	0.6868
2504	0.6928
2495	0.6975
2486	0.7011
2477	0.7047
2468	0.7083
2459	0.713
2450	0.7183
2441	0.7218
2432	0.7234
2423	0.7235
2414	0.723
2405	0.7242
2396	0.7269
2387	0.7299
2378	0.7328
2369	0.7345
2360	0.7371
2351	0.7401
2342	0.7437
2333	0.7474
2324	0.7511
2315	0.7549
2306	0.7453
2297	0.7408
2288	0.7431
2279	0.7471
2270	0.7508
2261	0.7565
2252	0.7601
2243	0.7631
2234	0.7658
2225	0.7684
2216	0.7712
2207	0.7745
2198	0.7778
2189	0.781
2180	0.7842
2171	0.7874
2162	0.7906
2153	0.7937
2144	0.7968
2135	0.7997
2126	0.8021
2117	0.8046
2108	0.8069
2099	0.8089
2090	0.8108
2081	0.8128
2072	0.8149
2063	0.8168
2054	0.8191
2045	0.8214
2036	0.8238
2027	0.826
2018	0.8282
2009	0.8298
2000	0.831
1991	0.8292
1982	0.8178
1973	0.8314
1964	0.8409
1955	0.8452
1946	0.844
1937	0.8415
1928	0.8386
1919	0.8396
1910	0.8434
1901	0.8497
1892	0.8503
1883	0.8493
1874	0.8478
1865	0.8491
1856	0.8506
1847	0.8514
1838	0.847
1829	0.8521
1820	0.8557
1811	0.8578
1802	0.8584
1793	0.8508
1784	0.849
1775	0.8499
1766	0.8507
1757	0.852
1748	0.8516
1739	0.8455
1730	0.8387
1721	0.8328
1712	0.8384
1703	0.8418
1694	0.8427
1685	0.8459
1676	0.8535
1667	0.8612
1658	0.8578
1649	0.8621
1640	0.8439
1631	0.7044
1622	0.0634
1613	0.2164
1604	0.5274
1595	0.6098
1586	0.6731
1577	0.7165
1568	0.7408
1559	0.7553
1550	0.7601
1541	0.7617
1532	0.7631
1523	0.7624
1514	0.7591
1505	0.7581
1496	0.528
1487	0.6671
1478	0.6911
1469	0.6469
1460	0.6458
1451	0.5108
1442	0.6417
1433	0.5157
1424	0.4986
1415	0.6059
1406	0.6275
1397	0.6674
1388	0.6893
1379	0.6933
1370	0.689
1361	0.6406
1352	0.6696
1343	0.6425
1334	0.5481
1325	0.6901
1316	0.7075
1307	0.283
1298	0.1401
1289	0.5486
1280	0.6342
1271	0.6528
1262	0.6797
1253	0.7418
1244	0.7521
1235	0.7668
1226	0.7694
1217	0.6661
1208	0.4224
1199	0.4109
1190	0.7025
1181	0.7337
1172	0.7765
1163	0.7926
1154	0.7968
1145	0.7686
1136	0.819
1127	0.8339
1118	0.8449
1109	0.8457
1100	0.8207
1091	0.8438
1082	0.8421
1073	0.7721
1064	0.8183
1055	0.8214
1046	0.5616
1037	0.8101
1028	0.4751
1019	0.8217
1010	0.8187
1001	0.8503
992	0.8495
983	0.8375
974	0.8482
965	0.844
956	0.8377
947	0.8271
938	0.8069
929	0.8368
920	0.8145
911	0.8535
902	0.8584
893	0.8552
884	0.8463
875	0.855
866	0.8351
857	0.8271
848	0.831
839	0.8028
830	0.7405
821	0.6856
812	0.6508
803	0.7355
794	0.6745
785	0.5381
776	0.5514
767	0.3025
758	0.1627
749	0.0475
740	0.3559
731	0.5516
722	0.6495
713	0.7804
704	0.7301
695	0.7985
686	0.8404
677	0.8358
668	0.8782
659	0.927
650	0.9392
641	0.6323
632	0.9162
623	0.9385
614	0.9033
605	0.946
596	0.9505
587	0.953
578	0.9545
569	0.9545
560	0.9546
551	0.9518
542	0.8989
533	0.8571
524	0.5335
515	0.7703
506	0.9199
497	0.9354
488	0.9407
479	0.9393
470	0.7874
461	0.7315
452	0.93
443	0.942
434	0.9435
425	0.9407
416	0.9366
407	0.9321
398	0.9283
389	0.924
