Infrared Spectrum: 1-Butanearsonic acid
Formula: C4 H11 As O3
CAS: 590-72-7
State: SOLID (OIL MULL)
Melting point: 161 C
Class: COBLENTZ III
Instrument: BAIRD (GRATING)
Instrument parameters: NaCl PRISM
Path length: CAPILLARY
Resolution: 2
Origin: WYANDOTTE CHEMICALS CORP.
1/CM	TRANSMITTANCE
625	0.6243
634	0.6768
643	0.716
652	0.7301
661	0.7006
670	0.7109
679	0.7178
688	0.682
697	0.5762
706	0.4298
715	0.3557
724	0.4151
733	0.3915
742	0.333
751	0.2272
760	0.102
769	0.0598
778	0.0772
787	0.1418
796	0.2086
805	0.2795
814	0.3508
823	0.4235
832	0.5194
841	0.5756
850	0.587
859	0.5303
868	0.501
877	0.5885
886	0.5902
895	0.5692
904	0.5341
913	0.403
922	0.247
931	0.1817
940	0.3087
949	0.5353
958	0.613
967	0.7324
976	0.8162
985	0.87
994	0.8976
1003	0.8934
1012	0.9176
1021	0.9171
1030	0.8992
1039	0.876
1048	0.8378
1057	0.7981
1066	0.7907
1075	0.8121
1084	0.8117
1093	0.7685
1102	0.7874
1111	0.7711
1120	0.7295
1129	0.6883
1138	0.6433
1147	0.5713
1156	0.4994
1165	0.4447
1174	0.3715
1183	0.2954
1192	0.2597
1201	0.2818
1210	0.3116
1219	0.3035
1228	0.3716
1237	0.4806
1246	0.5074
1255	0.5052
1264	0.505
1273	0.5367
1282	0.5515
1291	0.5519
1300	0.5735
1309	0.5931
1318	0.6221
1327	0.6049
1336	0.541
1345	0.4907
1354	0.4679
1363	0.3318
1372	0.1594
1381	0.2426
1390	0.4727
1399	0.5165
1408	0.4819
1417	0.4663
1426	0.395
1435	0.2252
1444	0.1165
1453	0.0589
1462	0.0605
1471	0.0823
1480	0.2963
1489	0.416
1498	0.4645
1507	0.4876
1516	0.4998
1525	0.5076
1534	0.5091
1543	0.5095
1552	0.511
1561	0.5167
1570	0.5151
1579	0.5151
1588	0.5175
1597	0.5232
1606	0.5313
1615	0.5438
1624	0.5601
1633	0.5822
1642	0.603
1651	0.6228
1660	0.6345
1669	0.6497
1678	0.6585
1687	0.6669
1696	0.6752
1705	0.6831
1714	0.6884
1723	0.6937
1732	0.6985
1741	0.7025
1750	0.7057
1759	0.7078
1768	0.7085
1777	0.7082
1786	0.7069
1795	0.7061
1804	0.7028
1813	0.6927
1822	0.687
1831	0.6827
1840	0.6775
1849	0.6721
1858	0.6662
1867	0.6586
1876	0.6494
1885	0.6394
1894	0.628
1903	0.616
1912	0.6042
1921	0.5924
1930	0.5808
1939	0.5693
1948	0.5578
1957	0.5463
1966	0.5335
1975	0.519
1984	0.5065
1993	0.4966
2002	0.4854
2011	0.4736
2020	0.463
2029	0.4519
2038	0.438
2047	0.4229
2056	0.4077
2065	0.389
2074	0.3705
2083	0.3482
2092	0.326
2101	0.3053
2110	0.2848
2119	0.2633
2128	0.2452
2137	0.2281
2146	0.2115
2155	0.1959
2164	0.1802
2173	0.1667
2182	0.1553
2191	0.1462
2200	0.1389
2209	0.1339
2218	0.1304
2227	0.1283
2236	0.1283
2245	0.1293
2254	0.1338
2263	0.1393
2272	0.1429
2281	0.1427
2290	0.1411
2299	0.139
2308	0.1362
2317	0.133
2326	0.1297
2335	0.1282
2344	0.1343
2353	0.15
2362	0.1653
2371	0.1775
2380	0.1886
2389	0.2012
2398	0.213
2407	0.2182
2416	0.2202
2425	0.2209
2434	0.2215
2443	0.222
2452	0.2219
2461	0.2207
2470	0.2179
2479	0.2141
2488	0.2092
2497	0.2028
2506	0.196
2515	0.1877
2524	0.1789
2533	0.169
2542	0.1599
2551	0.1516
2560	0.1433
2569	0.1356
2578	0.1286
2587	0.1221
2596	0.1169
2605	0.1118
2614	0.1069
2623	0.1022
2632	0.0992
2641	0.0965
2650	0.0939
2659	0.0916
2668	0.0894
2677	0.0867
2686	0.0835
2695	0.0803
2704	0.0771
2713	0.0737
2722	0.0701
2731	0.0661
2740	0.062
2749	0.0577
2758	0.0534
2767	0.0486
2776	0.0435
2785	0.0387
2794	0.0343
2803	0.0315
2812	0.0293
2821	0.0286
2830	0.0282
2839	0.028
2848	0.0279
2857	0.0278
2866	0.028
2875	0.0282
2884	0.0287
2893	0.0292
2902	0.0297
2911	0.0302
2920	0.0316
2929	0.0362
2938	0.0491
2947	0.0637
2956	0.0781
2965	0.0925
2974	0.1206
2983	0.1479
2992	0.1733
3001	0.1888
3010	0.2031
3019	0.2182
3028	0.2339
3037	0.2548
3046	0.2718
3055	0.2877
3064	0.3036
3073	0.3174
3082	0.331
3091	0.3443
3100	0.3577
3109	0.3734
3118	0.388
3127	0.4087
3136	0.4299
3145	0.4511
3154	0.472
3163	0.4929
3172	0.5136
3181	0.5342
3190	0.5547
3199	0.5752
3208	0.5955
3217	0.6151
3226	0.6382
3235	0.6599
3244	0.6762
3253	0.6921
3262	0.7085
3271	0.7279
3280	0.7414
3289	0.7537
3298	0.765
3307	0.7733
3316	0.7814
3325	0.7891
3334	0.7966
3343	0.8042
3352	0.8121
3361	0.8195
3370	0.8245
3379	0.8294
3388	0.8344
3397	0.8422
3406	0.8504
3415	0.8584
3424	0.8659
3433	0.8715
3442	0.8769
3451	0.8822
3460	0.8868
3469	0.8914
3478	0.896
3487	0.9005
3496	0.9048
3505	0.9089
3514	0.9128
3523	0.916
3532	0.9192
3541	0.9216
3550	0.9238
3559	0.9249
3568	0.9257
3577	0.926
3586	0.926
3595	0.926
3604	0.926
3613	0.9255
3622	0.9248
3631	0.9241
3640	0.9233
3649	0.9224
3658	0.9216
3667	0.9208
3676	0.92
3685	0.9192
3694	0.9184
3703	0.9172
3712	0.9156
3721	0.914
3730	0.9121
3739	0.91
3748	0.9078
3757	0.9053
3766	0.9028
3775	0.9002
3784	0.8981
3793	0.896
3802	0.8951
3811	0.8947
3820	0.8944
3829	0.8939
3838	0.8935
3847	0.8911
3856	0.8876
3865	0.8837
3874	0.8797
3883	0.8766
3892	0.8737
3901	0.8718
3910	0.8704
3919	0.8697
3928	0.8692
3937	0.8687
3946	0.8681
3955	0.8675
3964	0.867
3973	0.8663
3982	0.8653
3991	0.8642
4000	0.8633
