Infrared Spectrum: BETAINE HYDROCHLORIDE
Formula: C5 H12 Cl N O2
CAS: 590-46-5
State: SOLID (2.2 mg / 100 mg KBr DISC) VS. KBr
Class: COBLENTZ III
Instrument: BECKMAN IR-4 (HYBRID PRISM-GRATING)
Sampling: TRANSMISSION
Resolution: 4
Origin: UNIVERSITY OF FLORIDA
MICROMETERS	TRANSMITTANCE
0.974	0.739
1.01065	0.74
1.0473	0.742
1.08394	0.742
1.12059	0.742
1.15724	0.744
1.19389	0.751
1.23054	0.751
1.26719	0.752
1.30383	0.753
1.34048	0.755
1.37713	0.758
1.41378	0.759
1.45043	0.759
1.48707	0.758
1.52372	0.759
1.56037	0.76
1.59702	0.76
1.63367	0.76
1.67032	0.761
1.70696	0.761
1.74361	0.761
1.78026	0.761
1.81691	0.761
1.85356	0.761
1.89021	0.761
1.92685	0.76
1.9635	0.76
2.00015	0.76
2.0368	0.76
2.07345	0.759
2.11009	0.755
2.14674	0.741
2.18339	0.738
2.22004	0.76
2.25669	0.765
2.29334	0.768
2.32998	0.771
2.36663	0.775
2.40328	0.777
2.43993	0.777
2.47658	0.777
2.51322	0.777
2.54987	0.777
2.58652	0.777
2.62317	0.777
2.65982	0.775
2.69647	0.764
2.73311	0.754
2.76976	0.741
2.80641	0.728
2.84306	0.716
2.87971	0.704
2.91636	0.701
2.953	0.7
2.98965	0.7
3.0263	0.697
3.06295	0.691
3.0996	0.68
3.13624	0.66
3.17289	0.64
3.20954	0.613
3.24619	0.586
3.28284	0.544
3.31949	0.53
3.35613	0.443
3.39278	0.464
3.42943	0.479
3.46608	0.469
3.50273	0.46
3.53937	0.44
3.57602	0.433
3.61267	0.406
3.64932	0.402
3.68597	0.42
3.72262	0.451
3.75926	0.425
3.79591	0.434
3.83256	0.453
3.86921	0.445
3.90586	0.478
3.94251	0.459
3.97915	0.394
4.0158	0.397
4.05245	0.417
4.0891	0.421
4.12575	0.454
4.16239	0.456
4.19904	0.516
4.23569	0.585
4.27234	0.596
4.30899	0.601
4.34564	0.61
4.38228	0.629
4.41893	0.64
4.45558	0.663
4.49223	0.663
4.52888	0.684
4.56552	0.7
4.60217	0.722
4.63882	0.73
4.67547	0.731
4.71212	0.731
4.74877	0.734
4.78541	0.737
4.82206	0.76
4.85871	0.765
4.89536	0.764
4.93201	0.761
4.96865	0.771
5.0053	0.778
5.04195	0.777
5.0786	0.777
5.11525	0.775
5.1519	0.771
5.18854	0.76
5.22519	0.758
5.26184	0.745
5.29849	0.726
5.33514	0.72
5.37179	0.716
5.40843	0.698
5.44508	0.677
5.48173	0.668
5.51838	0.638
5.55503	0.589
5.59167	0.539
5.62832	0.441
5.66497	0.44
5.70162	0.401
5.73827	0.26
5.77492	0.242
5.81156	0.394
5.84821	0.451
5.88486	0.584
5.92151	0.607
5.95816	0.647
5.9948	0.668
6.03145	0.7
6.0681	0.729
6.10475	0.742
6.1414	0.756
6.17805	0.779
6.21469	0.781
6.25134	0.782
6.28799	0.78
6.32464	0.786
6.36129	0.795
6.39794	0.798
6.43458	0.797
6.47123	0.796
6.50788	0.791
6.54453	0.764
6.58118	0.738
6.61782	0.667
6.65447	0.622
6.69112	0.514
6.72777	0.448
6.76442	0.458
6.80107	0.643
6.83771	0.586
6.87436	0.609
6.91101	0.66
6.94766	0.595
6.98431	0.573
7.02095	0.544
7.0576	0.547
7.09425	0.473
7.1309	0.496
7.16755	0.697
7.2042	0.787
7.24084	0.8
7.27749	0.819
7.31414	0.843
7.35079	0.844
7.38744	0.831
7.42409	0.762
7.46073	0.735
7.49738	0.762
7.53403	0.815
7.57068	0.806
7.60733	0.801
7.64397	0.782
7.68062	0.755
7.71727	0.713
7.75392	0.701
7.79057	0.706
7.82722	0.678
7.86386	0.654
7.90051	0.618
7.93716	0.552
7.97381	0.502
8.01046	0.439
8.0471	0.548
8.08375	0.633
8.1204	0.627
8.15705	0.538
8.1937	0.472
8.23035	0.361
8.26699	0.251
8.30364	0.211
8.34029	0.273
8.37694	0.358
8.41359	0.409
8.45023	0.452
8.48688	0.497
8.52353	0.526
8.56018	0.54
8.59683	0.557
8.63348	0.582
8.67012	0.6
8.70677	0.619
8.74342	0.637
8.78007	0.637
8.81672	0.492
8.85337	0.538
8.89001	0.608
8.92666	0.639
8.96331	0.654
8.99996	0.666
9.03661	0.679
9.07325	0.684
9.1099	0.69
9.14655	0.697
9.1832	0.703
9.21985	0.709
9.2565	0.712
9.29314	0.711
9.32979	0.704
9.36644	0.707
9.40309	0.74
9.43974	0.747
9.47638	0.75
9.51303	0.761
9.54968	0.764
9.58633	0.769
9.62298	0.775
9.65963	0.779
9.69627	0.779
9.73292	0.779
9.76957	0.781
9.80622	0.782
9.84287	0.781
9.87952	0.776
9.91616	0.769
9.95281	0.759
9.98946	0.746
10.0261	0.708
10.0628	0.539
10.0994	0.427
10.1361	0.508
10.1727	0.618
10.2093	0.684
10.246	0.714
10.2826	0.719
10.3193	0.719
10.3559	0.716
10.3926	0.71
10.4292	0.694
10.4659	0.647
10.5025	0.558
10.5392	0.544
10.5758	0.609
10.6125	0.67
10.6491	0.669
10.6858	0.635
10.7224	0.505
10.7591	0.514
10.7957	0.617
10.8324	0.696
10.869	0.704
10.9057	0.69
10.9423	0.659
10.979	0.617
11.0156	0.525
11.0523	0.441
11.0889	0.415
11.1256	0.43
11.1622	0.468
11.1989	0.507
11.2355	0.497
11.2721	0.448
11.3088	0.344
11.3454	0.322
11.3821	0.395
11.4187	0.464
11.4554	0.512
11.492	0.551
11.5287	0.582
11.5653	0.6
11.602	0.614
11.6386	0.636
11.6753	0.65
11.7119	0.664
11.7486	0.68
11.7852	0.691
11.8219	0.702
11.8585	0.708
11.8952	0.717
11.9318	0.725
11.9685	0.731
12.0051	0.738
12.0418	0.746
12.0784	0.748
12.1151	0.755
12.1517	0.76
12.1884	0.765
12.225	0.769
12.2616	0.775
12.2983	0.78
12.3349	0.783
12.3716	0.788
12.4082	0.793
12.4449	0.798
12.4815	0.801
12.5182	0.802
12.5548	0.804
12.5915	0.807
12.6281	0.809
12.6648	0.813
12.7014	0.815
12.7381	0.818
12.7747	0.818
12.8114	0.814
12.848	0.78
12.8847	0.707
12.9213	0.705
12.958	0.746
12.9946	0.781
13.0313	0.792
13.0679	0.802
13.1046	0.809
13.1412	0.813
13.1779	0.822
13.2145	0.822
13.2512	0.825
13.2878	0.825
13.3244	0.823
13.3611	0.823
13.3977	0.823
13.4344	0.822
13.471	0.827
13.5077	0.827
13.5443	0.829
13.581	0.83
13.6176	0.831
13.6543	0.83
13.6909	0.83
13.7276	0.83
13.7642	0.83
13.8009	0.829
13.8375	0.829
13.8742	0.828
13.9108	0.828
13.9475	0.829
13.9841	0.828
14.0208	0.829
14.0574	0.828
14.0941	0.828
14.1307	0.826
14.1674	0.821
14.204	0.816
14.2407	0.803
14.2773	0.789
14.3139	0.778
14.3506	0.765
14.3872	0.75
14.4239	0.731
14.4605	0.715
14.4972	0.703
14.5338	0.672
14.5705	0.657
14.6071	0.62
14.6438	0.58
14.6804	0.544
14.7171	0.49
14.7537	0.458
14.7904	0.457
14.827	0.466
14.8637	0.493
14.9003	0.51
14.937	0.523
14.9736	0.541
15.0103	0.577
