Infrared Spectrum: BETAINE
Formula: C5 H13 N O3
CAS: 590-47-6
State: SOLID (OIL MULL)
Melting point: 305 C DECOMPOSES
Class: COBLENTZ
Instrument: Not specified, most likely a prism, grating, or hybrid spectrometer.
Sampling: TRANSMISSION
Resolution: 4
Origin: WYANDOTTE CHEMICALS CORP., WYANDOTTE, MICHIGAN, USA
MICROMETERS	TRANSMITTANCE
2.079	0.863
2.11876	0.821
2.15852	0.773
2.19828	0.792
2.23804	0.8
2.2778	0.818
2.31756	0.831
2.35732	0.851
2.39708	0.86
2.43684	0.863
2.4766	0.871
2.51636	0.886
2.55612	0.911
2.59588	0.903
2.63564	0.915
2.6754	0.896
2.71516	0.863
2.75492	0.718
2.79468	0.552
2.83444	0.359
2.8742	0.204
2.91396	0.099
2.95372	0.056
2.99348	0.046
3.03324	0.046
3.073	0.096
3.11276	0.168
3.15252	0.219
3.19228	0.272
3.23204	0.276
3.2718	0.227
3.31156	0.091
3.35132	0.031
3.39108	0.034
3.43084	0.056
3.4706	0.054
3.51036	0.382
3.55012	0.652
3.58989	0.717
3.62965	0.77
3.66941	0.763
3.70917	0.772
3.74893	0.8
3.78869	0.83
3.82845	0.836
3.86821	0.843
3.90797	0.85
3.94773	0.861
3.98749	0.871
4.02725	0.913
4.06701	0.9
4.10677	0.91
4.14653	0.885
4.18629	0.891
4.22605	0.89
4.26581	0.898
4.30557	0.9
4.34533	0.925
4.38509	0.918
4.42485	0.895
4.46461	0.883
4.50437	0.793
4.54413	0.717
4.58389	0.747
4.62365	0.826
4.66341	0.866
4.70317	0.906
4.74293	0.931
4.78269	0.955
4.82245	0.968
4.86221	0.973
4.90197	0.971
4.94173	0.963
4.98149	0.958
5.02125	0.961
5.06101	0.96
5.10077	0.96
5.14053	0.955
5.18029	0.951
5.22005	0.945
5.25981	0.936
5.29957	0.926
5.33933	0.898
5.37909	0.888
5.41885	0.873
5.45861	0.861
5.49837	0.838
5.53813	0.793
5.57789	0.773
5.61765	0.72
5.65741	0.673
5.69717	0.607
5.73693	0.505
5.77669	0.391
5.81645	0.219
5.85621	0.128
5.89597	0.108
5.93573	0.139
5.97549	0.118
6.01525	0.086
6.05501	0.048
6.09477	0.036
6.13453	0.033
6.17429	0.053
6.21405	0.128
6.25381	0.153
6.29357	0.236
6.33333	0.269
6.37309	0.319
6.41285	0.346
6.45261	0.41
6.49237	0.43
6.53213	0.434
6.5719	0.346
6.61166	0.219
6.65142	0.098
6.69118	0.054
6.73094	0.034
6.7707	0.039
6.81046	0.043
6.85022	0.043
6.88998	0.078
6.92974	0.108
6.9695	0.099
7.00926	0.086
7.04902	0.036
7.08878	0.038
7.12854	0.034
7.1683	0.033
7.20806	0.041
7.24782	0.094
7.28758	0.149
7.32734	0.168
7.3671	0.053
7.40686	0.031
7.44662	0.038
7.48638	0.073
7.52614	0.133
7.5659	0.174
7.60566	0.216
7.64542	0.277
7.68518	0.316
7.72494	0.351
7.7647	0.362
7.80446	0.391
7.84422	0.429
7.88398	0.455
7.92374	0.462
7.9635	0.462
8.00326	0.391
8.04302	0.259
8.08278	0.276
8.12254	0.387
8.1623	0.442
8.20206	0.452
8.24182	0.489
8.28158	0.524
8.32134	0.554
8.3611	0.587
8.40086	0.6
8.44062	0.607
8.48038	0.608
8.52014	0.612
8.5599	0.622
8.59966	0.63
8.63942	0.64
8.67918	0.657
8.71894	0.663
8.7587	0.63
8.79846	0.42
8.83822	0.5
8.87798	0.622
8.91774	0.652
8.9575	0.663
8.99726	0.675
9.03702	0.663
9.07678	0.663
9.11654	0.668
9.1563	0.667
9.19606	0.662
9.23582	0.667
9.27558	0.668
9.31534	0.668
9.3551	0.672
9.39486	0.68
9.43462	0.692
9.47438	0.702
9.51414	0.712
9.55391	0.717
9.59367	0.722
9.63343	0.713
9.67319	0.728
9.71295	0.735
9.75271	0.74
9.79247	0.745
9.83223	0.748
9.87199	0.683
9.91175	0.657
9.95151	0.733
9.99127	0.74
10.031	0.743
10.0708	0.718
10.1105	0.67
10.1503	0.575
10.1901	0.359
10.2298	0.149
10.2696	0.168
10.3093	0.319
10.3491	0.424
10.3889	0.439
10.4286	0.414
10.4684	0.339
10.5081	0.266
10.5479	0.291
10.5877	0.4
10.6274	0.287
10.6672	0.099
10.7069	0.064
10.7467	0.256
10.7865	0.487
10.8262	0.617
10.866	0.642
10.9057	0.642
10.9455	0.612
10.9853	0.502
11.025	0.336
11.0648	0.178
11.1046	0.096
11.1443	0.063
11.1841	0.038
11.2238	0.041
11.2636	0.078
11.3034	0.221
11.3431	0.4
11.3829	0.494
11.4226	0.567
11.4624	0.615
11.5022	0.65
11.5419	0.675
11.5817	0.688
11.6214	0.7
11.6612	0.705
11.701	0.71
11.7407	0.717
11.7805	0.717
11.8202	0.712
11.86	0.715
11.8998	0.718
11.9395	0.717
11.9793	0.72
12.019	0.713
12.0588	0.707
12.0986	0.702
12.1383	0.698
12.1781	0.692
12.2178	0.685
12.2576	0.677
12.2974	0.67
12.3371	0.663
12.3769	0.657
12.4166	0.65
12.4564	0.643
12.4962	0.637
12.5359	0.625
12.5757	0.615
12.6154	0.603
12.6552	0.589
12.695	0.562
12.7347	0.517
12.7745	0.469
12.8142	0.472
12.854	0.495
12.8938	0.502
12.9335	0.497
12.9733	0.49
13.013	0.48
13.0528	0.464
13.0926	0.445
13.1323	0.425
13.1721	0.397
13.2118	0.366
13.2516	0.337
13.2914	0.317
13.3311	0.297
13.3709	0.266
13.4106	0.231
13.4504	0.214
13.4902	0.181
13.5299	0.163
13.5697	0.151
13.6094	0.138
13.6492	0.134
13.689	0.139
13.7287	0.146
13.7685	0.151
13.8082	0.153
13.848	0.156
13.8878	0.158
13.9275	0.158
13.9673	0.156
14.007	0.156
14.0468	0.156
14.0866	0.151
14.1263	0.149
14.1661	0.149
14.2058	0.146
14.2456	0.143
14.2854	0.144
14.3251	0.146
14.3649	0.146
14.4046	0.148
14.4444	0.151
14.4842	0.153
14.5239	0.159
14.5637	0.166
14.6034	0.176
14.6432	0.184
14.683	0.202
14.7227	0.216
14.7625	0.239
14.8022	0.254
14.842	0.271
14.8818	0.286
14.9215	0.309
14.9613	0.324
15.001	0.357
15.0408	0.374
15.0806	0.372
15.1203	0.369
15.1601	0.387
15.1998	0.402
15.2396	0.419
15.2794	0.435
15.3191	0.454
15.3589	0.465
15.3986	0.477
15.4384	0.489
15.4782	0.497
15.5179	0.505
15.5577	0.512
15.5974	0.519
15.6372	0.525
15.677	0.532
15.7167	0.539
15.7565	0.542
15.7962	0.544
15.836	0.545
15.8758	0.547
15.9155	0.55
15.9553	0.554
15.995	0.555
