Infrared Spectrum: 2,2-Dimethylpentane
Formula: C 7 H 16
CAS: 590-35-2
State: gas
Instrument: HP-GC/MS/IRD
Origin: NIST Mass Spectrometry Data Center
1/CM	ABSORBANCE
550	0.0001296
562	0.0001152
574	0.0001248
586	0.0001296
598	6.72e-05
610	0.0001056
622	0.00012
634	0.00012
646	0.0001536
658	5.76e-05
670	0.000144
682	0.0001536
694	0.0001728
706	0.0002064
718	0.0002112
730	0.0003072
742	0.0004416
754	0.000312
766	0.000192
778	0.000192
790	9.6e-05
802	0.0001824
814	9.6e-05
826	0.0001056
838	0.0001728
850	0.0001248
862	0.0001296
874	0.00012
886	0.0001536
898	0.0002112
910	0.0003216
922	0.000552
934	0.000648
946	0.000456
958	0.0002688
970	0.00012
982	9.6e-05
994	0.0001056
1006	0.00012
1018	0.0001056
1030	0.0001344
1042	0.0001248
1054	0.0001248
1066	0.0001248
1078	0.0001488
1090	0.0002064
1102	0.0001776
1114	0.0002112
1126	0.0001152
1138	0.000168
1150	0.0002208
1162	0.000264
1174	0.0004224
1186	0.0008448
1198	0.001464
1210	0.0016464
1222	0.0011376
1234	0.0012768
1246	0.0013968
1258	0.001056
1270	0.0006624
1282	0.0004512
1294	0.000384
1306	0.0003648
1318	0.0004176
1330	0.0004992
1342	0.0010416
1354	0.0028032
1366	0.0048048
1378	0.0041616
1390	0.0029232
1402	0.0020016
1414	0.0010704
1426	0.0008832
1438	0.0013488
1450	0.0025392
1462	0.0043296
1474	0.0051504
1486	0.0038064
1498	0.0018
1510	0.0007248
1522	0.000432
1534	0.000312
1546	0.00024
1558	0.000192
1570	0.000192
1582	0.000192
1594	0.0001584
1606	0.000144
1618	0.000144
1630	0.0001584
1642	0.0001296
1654	0.00012
1666	0.0001248
1678	0.0001344
1690	0.0001344
1702	0.0001296
1714	0.0001152
1726	9.6e-05
1738	0.0001008
1750	8.16e-05
1762	8.64e-05
1774	7.2e-05
1786	7.68e-05
1798	6.72e-05
1810	6.24e-05
1822	8.16e-05
1834	5.76e-05
1846	5.28e-05
1858	5.28e-05
1870	4.32e-05
1882	5.76e-05
1894	7.68e-05
1906	3.84e-05
1918	2.88e-05
1930	2.88e-05
1942	4.32e-05
1954	6.24e-05
1966	3.36e-05
1978	3.84e-05
1990	2.4e-05
2002	3.84e-05
2014	3.84e-05
2026	4.32e-05
2038	5.28e-05
2050	4.8e-05
2062	5.28e-05
2074	3.36e-05
2086	0
2098	3.36e-05
2110	6.24e-05
2122	1.44e-05
2134	1.44e-05
2146	9.6e-06
2158	0
2170	2.4e-05
2182	2.88e-05
2194	4.32e-05
2206	1.92e-05
2218	1.44e-05
2230	1.92e-05
2242	2.4e-05
2254	0
2266	3.36e-05
2278	1.92e-05
2290	3.84e-05
2302	3.84e-05
2314	2.88e-05
2326	4.32e-05
2338	3.36e-05
2350	4.8e-05
2362	1.92e-05
2374	5.76e-05
2386	9.6e-05
2398	5.76e-05
2410	4.8e-05
2422	5.76e-05
2434	2.4e-05
2446	2.88e-05
2458	3.36e-05
2470	3.36e-05
2482	3.36e-05
2494	4.8e-06
2506	9.6e-06
2518	2.88e-05
2530	3.84e-05
2542	6.24e-05
2554	7.68e-05
2566	8.64e-05
2578	9.6e-05
2590	9.6e-05
2602	0.0001392
2614	0.0001824
2626	0.0001968
2638	0.000216
2650	0.00024
2662	0.0002496
2674	0.00024
2686	0.0002832
2698	0.0003408
2710	0.0004464
2722	0.0005952
2734	0.000696
2746	0.0007008
2758	0.0006528
2770	0.0006384
2782	0.0007152
2794	0.0009552
2806	0.0013104
2818	0.001872
2830	0.0028608
2842	0.004608
2854	0.0071904
2866	0.0112512
2878	0.0159696
2890	0.0179568
2902	0.0183696
2914	0.0182544
2926	0.019848
2938	0.0266256
2950	0.0387744
2962	0.048
2974	0.035424
2986	0.0137616
2998	0.0048336
3010	0.0026256
3022	0.0019104
3034	0.0015168
3046	0.0011664
3058	0.0009504
3070	0.0009024
3082	0.0007968
3094	0.0007152
3106	0.0006096
3118	0.0005184
3130	0.0005088
3142	0.0004704
3154	0.0005184
3166	0.0005184
3178	0.0004992
3190	0.0005136
3202	0.0004752
3214	0.0004416
3226	0.0003696
3238	0.00024
3250	0.0002016
3262	0.0001344
3274	0.000144
3286	0.0001056
3298	0.0001344
3310	0.0001488
3322	6.72e-05
3334	8.16e-05
3346	8.16e-05
3358	9.12e-05
3370	0.0001008
3382	9.12e-05
3394	6.24e-05
3406	5.76e-05
3418	2.4e-05
3430	4.8e-05
3442	8.16e-05
3454	3.84e-05
3466	5.76e-05
3478	9.6e-06
3490	2.4e-05
3502	3.84e-05
3514	3.84e-05
3526	2.4e-05
3538	3.84e-05
3550	7.2e-05
3562	4.8e-05
3574	6.24e-05
3586	5.28e-05
3598	3.84e-05
3610	7.68e-05
3622	5.76e-05
3634	6.72e-05
3646	0.0001248
3658	8.16e-05
3670	0.0001056
3682	9.6e-05
3694	0.0001008
3706	0.00012
3718	9.6e-05
3730	3.84e-05
3742	0.0001056
3754	9.6e-05
3766	0.0001152
3778	0.00012
3790	0.0001632
3802	0.0001488
3814	0.0002016
3826	0.0001728
3838	0.0001728
