Infrared Spectrum: 2,2-Dimethylhexane
Formula: C 8 H 18
CAS: 590-73-8
State: gas
Origin: EPA-IR VAPOR PHASE LIBRARY
1/CM	ABSORBANCE
501.5	6.3e-05
513.074	1.3e-05
524.648	0.000185
536.222	0.000119
547.796	0.000125
559.37	0.000206
570.944	4.9e-05
582.518	0.000126
594.092	0.000166
605.666	0.000236
617.24	0.000222
628.814	0.000261
640.388	0.000188
651.962	0.00021
663.536	0.000225
675.11	0.0003682
686.684	0.0003983
698.258	0.0004003
709.832	0.0006686
721.406	0.0010265
732.98	0.0012731
744.554	0.0011212
756.128	0.0008911
767.702	0.00091
779.276	0.000804
790.85	0.0007627
802.423	0.0005563
813.997	0.0003658
825.571	0.0003713
837.145	0.0003469
848.719	0.00037
860.293	0.00051414
871.867	0.000815
883.441	0.0013664
895.015	0.001905
906.589	0.001805
918.163	0.0012555
929.737	0.0008692
941.311	0.0007249
952.885	0.00048723
964.459	0.0004184
976.033	0.0004295
987.607	0.0003923
999.181	0.0005543
1010.76	0.0007141
1022.33	0.0007623
1033.9	0.0006885
1045.48	0.000683
1057.05	0.000714
1068.63	0.000991
1080.2	0.0009578
1091.77	0.0013808
1103.35	0.0013114
1114.92	0.0008255
1126.49	0.0006916
1138.07	0.000645
1149.64	0.0007435
1161.22	0.0009589
1172.79	0.001535
1184.36	0.002725
1195.94	0.003905
1207.51	0.003865
1219.09	0.003355
1230.66	0.004695
1242.23	0.006785
1253.81	0.005405
1265.38	0.002665
1276.96	0.001805
1288.53	0.001585
1300.1	0.001795
1311.68	0.002065
1323.25	0.002455
1334.83	0.003725
1346.4	0.006385
1357.97	0.012985
1369.55	0.018925
1381.12	0.014675
1392.7	0.010665
1404.27	0.007005
1415.84	0.003545
1427.42	0.003445
1438.99	0.004965
1450.57	0.009105
1462.14	0.016165
1473.71	0.020145
1485.29	0.014585
1496.86	0.006265
1508.44	0.002895
1520.01	0.001815
1531.58	0.00137
1543.16	0.0011062
1554.73	0.0009143
1566.31	0.0007967
1577.88	0.0007566
1589.45	0.0007124
1601.03	0.0007003
1612.6	0.0007012
1624.18	0.000661
1635.75	0.0006393
1647.32	0.0006333
1658.9	0.0005801
1670.47	0.000608
1682.05	0.0006148
1693.62	0.0005946
1705.19	0.0006073
1716.77	0.0006037
1728.34	0.00050949
1739.92	0.00051335
1751.49	0.00047993
1763.06	0.0004141
1774.64	0.000447138
1786.21	0.000448425
1797.79	0.0004248
1809.36	0.000448326
1820.93	0.0004347
1832.51	0.000444047
1844.08	0.00043945
1855.66	0.00045253
1867.23	0.000444585
1878.8	0.00046693
1890.38	0.000449952
1901.95	0.00044382
1913.53	0.0004593
1925.1	0.0004285
1936.67	0.000454937
1948.25	0.000445265
1959.82	0.0004277
1971.4	0.0004428
1982.97	0.00043908
1994.54	0.000453836
2006.12	0.00045895
2017.69	0.000449685
2029.27	0.00045707
2040.84	0.00050152
2052.41	0.00045676
2063.99	0.00047499
2075.56	0.000452687
2087.14	0.00046902
2098.71	0.00049385
2110.28	0.00049308
2121.86	0.0004917
2133.43	0.00046742
2145.01	0.0004293
2156.58	0.00043996
2168.15	0.0004326
2179.73	0.00043851
2191.3	0.0004127
2202.88	0.000451683
2214.45	0.00047116
2226.02	0.00047007
2237.6	0.00050013
2249.17	0.00047874
2260.74	0.0005452
2272.32	0.00053849
2283.89	0.0005711
2295.47	0.0005827
2307.04	0.00050619
2318.61	0.00050014
2330.19	0.00054062
2341.76	0.0005598
2353.34	0.0006034
2364.91	0.000655
2376.48	0.0006439
2388.06	0.0006672
2399.63	0.0006657
2411.21	0.0006532
2422.78	0.0005816
2434.35	0.0005594
2445.93	0.0005908
2457.5	0.0006
2469.08	0.0005895
2480.65	0.0005653
2492.22	0.0005858
2503.8	0.0006229
2515.37	0.0006464
2526.95	0.0006962
2538.52	0.0007508
2550.09	0.000827
2561.67	0.0008888
2573.24	0.0009377
2584.82	0.000956
2596.39	0.0010039
2607.96	0.0011407
2619.54	0.0012396
2631.11	0.0013626
2642.69	0.001445
2654.26	0.001575
2665.83	0.001745
2677.41	0.001775
2688.98	0.001895
2700.56	0.002095
2712.13	0.002445
2723.7	0.002805
2735.28	0.003005
2746.85	0.003085
2758.43	0.003075
2770	0.003195
2781.57	0.003685
2793.15	0.004525
2804.72	0.005725
2816.3	0.007415
2827.87	0.010385
2839.44	0.016215
2851.02	0.026735
2862.59	0.044255
2874.17	0.061365
2885.74	0.064835
2897.31	0.064155
2908.89	0.070945
2920.46	0.084745
2932.04	0.110445
2943.61	0.136525
2955.18	0.171475
2966.76	0.173185
2978.33	0.090265
2989.91	0.030785
3001.48	0.014435
3013.05	0.009425
3024.63	0.007135
3036.2	0.005645
3047.78	0.004575
3059.35	0.003955
3070.92	0.003595
3082.5	0.003365
3094.07	0.003185
3105.65	0.002945
3117.22	0.002725
3128.79	0.002465
3140.37	0.002335
3151.94	0.002245
3163.52	0.002255
3175.09	0.002295
3186.66	0.002335
3198.24	0.002255
3209.81	0.002155
3221.39	0.001885
3232.96	0.001745
3244.53	0.0013554
3256.11	0.0011851
3267.68	0.0010038
3279.26	0.0009043
3290.83	0.0008645
3302.4	0.0009387
3313.98	0.0008672
3325.55	0.0008822
3337.13	0.0008371
3348.7	0.0008661
3360.27	0.0008079
3371.85	0.0008228
3383.42	0.0008174
3395	0.0006891
3406.57	0.0006953
3418.14	0.0006174
3429.72	0.0006266
3441.29	0.0006056
3452.86	0.0005528
3464.44	0.0005451
3476.01	0.00051227
3487.59	0.00048381
3499.16	0.000364
3510.73	0.0004263
3522.31	0.0003933
3533.88	0.0003762
3545.46	0.0004164
3557.03	0.0004103
3568.6	0.0003929
3580.18	0.00047689
3591.75	0.00044233
3603.33	0.00047093
3614.9	0.00046157
3626.47	0.00053229
3638.05	0.00054186
3649.62	0.0006256
3661.2	0.00052012
3672.77	0.0005734
3684.34	0.00050523
3695.92	0.00052003
3707.49	0.00053042
3719.07	0.000539
3730.64	0.0005853
3742.21	0.0005813
3753.79	0.000645
3765.36	0.0006332
3776.94	0.0006031
3788.51	0.0006502
3800.08	0.0007513
3811.66	0.0008237
3823.23	0.0007971
3834.81	0.0008177
3846.38	0.0007301
3857.95	0.0007451
3869.53	0.0007714
3881.1	0.0008048
3892.68	0.000832
3904.25	0.0007792
3915.82	0.0006709
3927.4	0.0007578
3938.97	0.0006891
3950.55	0.0007456
3962.12	0.0008524
3973.69	0.0008424
3985.27	0.0007828
3996.84	0.0007909
