Infrared Spectrum: 2-PROPENE-1-ARSONIC ACID
Formula: C3 H7 O3 As
CAS: 590-34-1
State: SOLID (MINERAL OIL MULL)
Melting point: 127.5-128 C
Class: COBLENTZ
Instrument: Not specified, most likely a prism, grating, or hybrid spectrometer.
Sampling: TRANSMISSION
Resolution: 4
Origin: WYANDOTTE CHEMICALS CORP., WYANDOTTE, MICHIGAN, USA
MICROMETERS	TRANSMITTANCE
1.994	0.919
2.03118	0.92
2.06837	0.93
2.10555	0.934
2.14274	0.925
2.17992	0.905
2.2171	0.881
2.25429	0.88
2.29147	0.883
2.32866	0.877
2.36584	0.881
2.40302	0.884
2.44021	0.898
2.47739	0.908
2.51458	0.909
2.55176	0.925
2.58894	0.928
2.62613	0.936
2.66331	0.937
2.7005	0.94
2.73768	0.923
2.77487	0.908
2.81205	0.886
2.84923	0.878
2.88642	0.861
2.9236	0.853
2.96079	0.827
2.99797	0.791
3.03515	0.707
3.07234	0.584
3.10952	0.471
3.14671	0.379
3.18389	0.278
3.22107	0.219
3.25826	0.171
3.29544	0.11
3.33263	0.04
3.36981	0.017
3.40699	0.013
3.44418	0.02
3.48136	0.02
3.51855	0.027
3.55573	0.051
3.59291	0.069
3.6301	0.071
3.66728	0.071
3.70447	0.073
3.74165	0.074
3.77883	0.079
3.81602	0.102
3.8532	0.096
3.89039	0.125
3.92757	0.133
3.96475	0.16
4.00194	0.175
4.03912	0.185
4.07631	0.18
4.11349	0.144
4.15067	0.141
4.18786	0.111
4.22504	0.082
4.26223	0.063
4.29941	0.068
4.3366	0.088
4.37378	0.11
4.41096	0.101
4.44815	0.111
4.48533	0.135
4.52252	0.166
4.5597	0.191
4.59688	0.219
4.63407	0.253
4.67125	0.279
4.70844	0.321
4.74562	0.345
4.7828	0.373
4.81999	0.41
4.85717	0.424
4.89436	0.437
4.93154	0.454
4.96872	0.457
5.00591	0.457
5.04309	0.46
5.08028	0.466
5.11746	0.477
5.15464	0.489
5.19183	0.499
5.22901	0.505
5.2662	0.511
5.30338	0.491
5.34056	0.48
5.37775	0.519
5.41493	0.533
5.45212	0.527
5.4893	0.528
5.52648	0.534
5.56367	0.522
5.60085	0.53
5.63804	0.52
5.67522	0.528
5.7124	0.517
5.74959	0.516
5.78677	0.511
5.82396	0.503
5.86114	0.496
5.89833	0.508
5.93551	0.514
5.97269	0.51
6.00988	0.502
6.04706	0.508
6.08425	0.382
6.12143	0.489
6.15861	0.508
6.1958	0.505
6.23298	0.5
6.27017	0.496
6.30735	0.499
6.34453	0.48
6.38172	0.489
6.4189	0.475
6.45609	0.494
6.49327	0.511
6.53045	0.533
6.56764	0.564
6.60482	0.569
6.64201	0.562
6.67919	0.552
6.71637	0.499
6.75356	0.371
6.79074	0.167
6.82793	0.186
6.86511	0.27
6.90229	0.384
6.93948	0.539
6.97666	0.566
7.01385	0.482
7.05103	0.679
7.08821	0.674
7.1254	0.617
7.16258	0.505
7.19977	0.499
7.23695	0.362
7.27414	0.48
7.31132	0.569
7.3485	0.712
7.38569	0.734
7.42287	0.749
7.46006	0.755
7.49724	0.78
7.53442	0.791
7.57161	0.788
7.60879	0.766
7.64598	0.698
7.68316	0.698
7.72034	0.732
7.75753	0.72
7.79471	0.687
7.8319	0.629
7.86908	0.564
7.90626	0.471
7.94345	0.374
7.98063	0.273
8.01782	0.206
8.055	0.167
8.09218	0.143
8.12937	0.161
8.16655	0.209
8.20374	0.269
8.24092	0.307
8.2781	0.36
8.31529	0.443
8.35247	0.491
8.38966	0.524
8.42684	0.589
8.46402	0.642
8.50121	0.665
8.53839	0.682
8.57558	0.696
8.61276	0.73
8.64994	0.738
8.68713	0.768
8.72431	0.796
8.7615	0.818
8.79868	0.83
8.83587	0.849
8.87305	0.856
8.91023	0.863
8.94742	0.878
8.9846	0.884
9.02179	0.9
9.05897	0.909
9.09615	0.914
9.13334	0.917
9.17052	0.919
9.20771	0.92
9.24489	0.914
9.28207	0.903
9.31926	0.891
9.35644	0.833
9.39363	0.751
9.43081	0.67
9.46799	0.738
9.50518	0.808
9.54236	0.838
9.57955	0.844
9.61673	0.838
9.65391	0.847
9.6911	0.856
9.72828	0.863
9.76547	0.863
9.80265	0.861
9.83983	0.846
9.87702	0.827
9.9142	0.797
9.95139	0.684
9.98857	0.409
10.0258	0.343
10.0629	0.564
10.1001	0.665
10.1373	0.698
10.1745	0.696
10.2117	0.678
10.2489	0.639
10.286	0.601
10.3232	0.581
10.3604	0.544
10.3976	0.505
10.4348	0.461
10.472	0.402
10.5091	0.339
10.5463	0.222
10.5835	0.121
10.6207	0.068
10.6579	0.054
10.6951	0.088
10.7323	0.116
10.7694	0.107
10.8066	0.121
10.8438	0.127
10.881	0.101
10.9182	0.097
10.9554	0.097
10.9925	0.102
11.0297	0.118
11.0669	0.141
11.1041	0.169
11.1413	0.188
11.1785	0.208
11.2156	0.227
11.2528	0.241
11.29	0.269
11.3272	0.267
11.3644	0.278
11.4016	0.289
11.4387	0.298
11.4759	0.32
11.5131	0.353
11.5503	0.371
11.5875	0.391
11.6247	0.399
11.6619	0.396
11.699	0.371
11.7362	0.342
11.7734	0.306
11.8106	0.275
11.8478	0.237
11.885	0.213
11.9221	0.197
11.9593	0.18
11.9965	0.174
12.0337	0.164
12.0709	0.152
12.1081	0.127
12.1452	0.111
12.1824	0.09
12.2196	0.082
12.2568	0.079
12.294	0.079
12.3312	0.097
12.3683	0.101
12.4055	0.107
12.4427	0.104
12.4799	0.097
12.5171	0.097
12.5543	0.099
12.5915	0.099
12.6286	0.088
12.6658	0.071
12.703	0.052
12.7402	0.04
12.7774	0.032
12.8146	0.024
12.8517	0.023
12.8889	0.023
12.9261	0.018
12.9633	0.021
13.0005	0.021
13.0377	0.021
13.0748	0.027
13.112	0.048
13.1492	0.068
13.1864	0.097
13.2236	0.13
13.2608	0.153
13.298	0.181
13.3351	0.205
13.3723	0.219
13.4095	0.247
13.4467	0.264
13.4839	0.278
13.5211	0.29
13.5582	0.303
13.5954	0.321
13.6326	0.328
13.6698	0.34
13.707	0.349
13.7442	0.357
13.7813	0.351
13.8185	0.328
13.8557	0.281
13.8929	0.253
13.9301	0.248
13.9673	0.239
14.0044	0.258
14.0416	0.303
14.0788	0.346
14.116	0.413
14.1532	0.454
14.1904	0.488
14.2276	0.524
14.2647	0.538
14.3019	0.556
14.3391	0.578
14.3763	0.592
14.4135	0.597
14.4507	0.614
14.4878	0.622
14.525	0.626
14.5622	0.632
14.5994	0.642
14.6366	0.645
14.6738	0.65
14.7109	0.65
14.7481	0.662
14.7853	0.659
14.8225	0.664
14.8597	0.67
14.8969	0.671
14.934	0.673
14.9712	0.67
15.0084	0.648
15.0456	0.626
15.0828	0.611
15.12	0.64
15.1572	0.657
15.1943	0.667
15.2315	0.679
15.2687	0.687
15.3059	0.685
15.3431	0.687
15.3803	0.687
15.4174	0.682
15.4546	0.682
15.4918	0.676
15.529	0.673
15.5662	0.676
15.6034	0.673
15.6405	0.667
15.6777	0.664
15.7149	0.65
15.7521	0.645
15.7893	0.636
15.8265	0.631
15.8637	0.618
15.9008	0.618
15.938	0.606
15.9752	0.598
