Infrared Spectrum: 4,4-Dimethyl-2-pentanone
Formula: C 7 H 14 O
CAS: 590-50-1
State: gas
Instrument: HP-GC/MS/IRD
Origin: NIST Mass Spectrometry Data Center
1/CM	ABSORBANCE
550	0.000363
562	0.0002728
574	0.0002618
586	0.0008602
598	0.001617
610	0.0011748
622	0.0003916
634	0.0001914
646	0.0001826
658	0.0001848
670	5.5e-05
682	0.0001914
694	7.48e-05
706	0.0001298
718	0.0001628
730	0.0001078
742	0.0001474
754	8.58e-05
766	0.0001518
778	0.0001716
790	0.0001782
802	0.0001452
814	0.0002046
826	0.0001232
838	0.000198
850	0.0002222
862	0.0002398
874	0.0002992
886	0.0004026
898	0.0006182
910	0.0009812
922	0.0011286
934	0.0008008
946	0.0006732
958	0.0008492
970	0.0010802
982	0.0010494
994	0.000759
1006	0.000561
1018	0.0004708
1030	0.0004642
1042	0.000539
1054	0.0005324
1066	0.000495
1078	0.0005104
1090	0.000572
1102	0.0007766
1114	0.0012716
1126	0.0024178
1138	0.0044
1150	0.0052272
1162	0.0041228
1174	0.0030888
1186	0.0031746
1198	0.0037048
1210	0.0044528
1222	0.0044836
1234	0.0034914
1246	0.002332
1258	0.0014762
1270	0.0011814
1282	0.0011858
1294	0.0015994
1306	0.0026224
1318	0.0035728
1330	0.00407
1342	0.0057794
1354	0.0096668
1366	0.0108482
1378	0.0068068
1390	0.0037224
1402	0.0025872
1414	0.0021472
1426	0.0020724
1438	0.0021406
1450	0.0024926
1462	0.0031812
1474	0.003663
1486	0.0029436
1498	0.0016984
1510	0.00088
1522	0.0006798
1534	0.000627
1546	0.0005588
1558	0.0005522
1570	0.0004752
1582	0.000462
1594	0.0004268
1606	0.00044
1618	0.0003982
1630	0.0004422
1642	0.0005258
1654	0.0006446
1666	0.0009372
1678	0.0016632
1690	0.0031658
1702	0.0062018
1714	0.0107822
1726	0.014058
1738	0.0116468
1750	0.0060324
1762	0.0024508
1774	0.0011352
1786	0.0006534
1798	0.000462
1810	0.000385
1822	0.0003212
1834	0.0002684
1846	0.0002288
1858	0.0002068
1870	0.0001804
1882	0.0001672
1894	0.000165
1906	0.000132
1918	0.0001276
1930	0.000132
1942	0.0001276
1954	0.0001364
1966	0.000132
1978	0.0001078
1990	8.8e-05
2002	9.68e-05
2014	8.58e-05
2026	9.02e-05
2038	9.68e-05
2050	8.14e-05
2062	8.14e-05
2074	9.9e-05
2086	9.24e-05
2098	0.0001122
2110	0.0001078
2122	9.68e-05
2134	0.0001034
2146	0.0001034
2158	0.0001056
2170	9.9e-05
2182	7.92e-05
2194	9.02e-05
2206	6.38e-05
2218	5.06e-05
2230	8.36e-05
2242	4.84e-05
2254	4.62e-05
2266	7.04e-05
2278	6.38e-05
2290	8.36e-05
2302	9.46e-05
2314	7.04e-05
2326	4.84e-05
2338	3.3e-05
2350	2.42e-05
2362	2.64e-05
2374	3.74e-05
2386	2.64e-05
2398	6.6e-05
2410	3.74e-05
2422	4.62e-05
2434	2.64e-05
2446	6.6e-06
2458	0
2470	1.1e-05
2482	3.3e-05
2494	2.86e-05
2506	6.38e-05
2518	7.04e-05
2530	8.36e-05
2542	7.48e-05
2554	6.82e-05
2566	8.14e-05
2578	7.7e-05
2590	0.0001078
2602	8.58e-05
2614	8.8e-05
2626	9.24e-05
2638	0.0001166
2650	0.0001166
2662	0.0001606
2674	0.0001606
2686	0.0002024
2698	0.0002134
2710	0.000275
2722	0.0003344
2734	0.0003784
2746	0.0003586
2758	0.000363
2770	0.0003982
2782	0.0004202
2794	0.000517
2806	0.000682
2818	0.0008602
2830	0.0011814
2842	0.0016478
2854	0.002673
2866	0.004983
2878	0.007568
2890	0.0083666
2902	0.0085492
2914	0.0091696
2926	0.0100848
2938	0.0124982
2950	0.0180224
2962	0.022
2974	0.0160138
2986	0.0077154
2998	0.0040172
3010	0.0023606
3022	0.0014718
3034	0.001012
3046	0.0008338
3058	0.0007788
3070	0.0007194
3082	0.0006556
3094	0.0005478
3106	0.000495
3118	0.0004092
3130	0.0003652
3142	0.0003212
3154	0.0003234
3166	0.0003102
3178	0.000319
3190	0.000352
3202	0.0002948
3214	0.0003278
3226	0.0003036
3238	0.0002882
3250	0.0002332
3262	0.000187
3274	0.0001694
3286	0.000154
3298	0.00011
3310	0.0001166
3322	0.0001034
3334	0.0001166
3346	0.0001452
3358	0.0001892
3370	0.000176
3382	0.0002112
3394	0.00022
3406	0.00022
3418	0.000286
3430	0.0003212
3442	0.0002948
3454	0.0002464
3466	0.000253
3478	9.68e-05
3490	9.46e-05
3502	1.54e-05
3514	8.58e-05
3526	6.38e-05
3538	3.08e-05
3550	4.4e-05
3562	7.04e-05
3574	0
3586	5.5e-05
3598	4.84e-05
3610	2.42e-05
3622	2.42e-05
3634	4.62e-05
3646	4.4e-05
3658	3.52e-05
3670	4.84e-05
3682	4.84e-05
3694	5.06e-05
3706	1.98e-05
3718	7.7e-05
3730	5.28e-05
3742	5.94e-05
3754	4.62e-05
3766	3.74e-05
3778	6.38e-05
3790	5.94e-05
3802	8.36e-05
3814	3.3e-05
3826	7.92e-05
3838	9.46e-05
