Infrared Spectrum: 2-Methyl-3-pentyn-2-ol
Formula: C 6 H 10 O
CAS: 590-38-5
State: gas
Instrument: HP-GC/MS/IRD
Origin: NIST Mass Spectrometry Data Center
1/CM	ABSORBANCE
550	0.0017225
562	0.0015132
574	0.0007293
586	0.0003744
598	0.0002548
610	0.0004121
622	0.000806
634	0.0011726
646	0.0008502
658	0.00052
670	0.0004264
682	0.0003523
694	0.0001976
706	9.36e-05
718	7.28e-05
730	7.54e-05
742	7.67e-05
754	2.86e-05
766	9.1e-06
778	4.03e-05
790	1.04e-05
802	4.29e-05
814	0.0001014
826	0.0004459
838	0.0011414
850	0.0018018
862	0.0015262
874	0.0005863
886	0.0004056
898	0.000663
910	0.0014976
922	0.0035048
934	0.0063557
946	0.0069173
958	0.0040326
970	0.0014235
982	0.0005382
994	0.0003809
1006	0.0003354
1018	0.0003861
1030	0.0005148
1042	0.0007423
1054	0.0009165
1066	0.0009048
1078	0.0010751
1090	0.0017472
1102	0.0026195
1114	0.0035763
1126	0.0045422
1138	0.0061256
1150	0.0087022
1162	0.0103779
1174	0.0084383
1186	0.0048412
1198	0.0029549
1210	0.0030641
1222	0.0038831
1234	0.0042523
1246	0.0040508
1258	0.0038831
1270	0.0037258
1282	0.0036283
1294	0.0036582
1306	0.0038805
1318	0.0047424
1330	0.0060801
1342	0.0066768
1354	0.0063973
1366	0.0059163
1378	0.0052351
1390	0.0033826
1402	0.0016653
1414	0.0012857
1426	0.0012571
1438	0.0013273
1450	0.0015886
1462	0.0017043
1474	0.0012766
1486	0.000949
1498	0.0007683
1510	0.0006214
1522	0.0004745
1534	0.0004654
1546	0.0004901
1558	0.0003536
1570	0.0002951
1582	0.0002184
1594	0.0002145
1606	0.0001495
1618	0.0001118
1630	7.54e-05
1642	0.0001027
1654	7.02e-05
1666	6.63e-05
1678	4.94e-05
1690	5.2e-05
1702	3.25e-05
1714	4.42e-05
1726	4.68e-05
1738	6.37e-05
1750	8.71e-05
1762	0.000104
1774	0.0001274
1786	0.00013
1798	0.0001287
1810	6.24e-05
1822	6.24e-05
1834	3.9e-05
1846	4.55e-05
1858	5.2e-05
1870	6.37e-05
1882	5.85e-05
1894	5.46e-05
1906	3.77e-05
1918	1.69e-05
1930	2.08e-05
1942	3.64e-05
1954	1.95e-05
1966	2.47e-05
1978	2.86e-05
1990	4.29e-05
2002	2.99e-05
2014	4.03e-05
2026	4.42e-05
2038	6.11e-05
2050	0.000117
2062	0.000117
2074	5.33e-05
2086	6.24e-05
2098	6.63e-05
2110	6.37e-05
2122	6.37e-05
2134	5.59e-05
2146	1.82e-05
2158	3.64e-05
2170	4.29e-05
2182	8.45e-05
2194	0.0001508
2206	0.0003055
2218	0.0005551
2230	0.0008359
2242	0.0008242
2254	0.0005551
2266	0.0003276
2278	0.0002366
2290	0.0002158
2302	0.0001638
2314	9.75e-05
2326	7.8e-05
2338	6.76e-05
2350	5.59e-05
2362	3.25e-05
2374	5.2e-05
2386	2.99e-05
2398	4.16e-05
2410	3.77e-05
2422	7.28e-05
2434	9.75e-05
2446	6.37e-05
2458	6.5e-05
2470	5.72e-05
2482	7.02e-05
2494	5.07e-05
2506	3.64e-05
2518	3.9e-05
2530	5.72e-05
2542	2.34e-05
2554	9.1e-06
2566	3.12e-05
2578	1.82e-05
2590	3.25e-05
2602	4.42e-05
2614	2.47e-05
2626	2.08e-05
2638	1.69e-05
2650	2.21e-05
2662	1.43e-05
2674	1.82e-05
2686	3.51e-05
2698	2.99e-05
2710	9.1e-05
2722	0.000104
2734	0.000169
2746	0.0002613
2758	0.0002743
2770	0.0001599
2782	0.0001352
2794	0.0001638
2806	0.0002223
2818	0.0002977
2830	0.000429
2842	0.000637
2854	0.0011089
2866	0.0023114
2878	0.0029419
2890	0.0025337
2902	0.0021697
2914	0.0029848
2926	0.0062257
2938	0.0077246
2950	0.0057473
2962	0.0040456
2974	0.0081367
2986	0.013
2998	0.0102375
3010	0.0036543
3022	0.0013052
3034	0.000819
3046	0.000611
3058	0.0004524
3070	0.0004108
3082	0.0003484
3094	0.0003848
3106	0.0002613
3118	0.0001911
3130	0.000156
3142	0.000104
3154	0.0001157
3166	0.0001157
3178	0.0001261
3190	0.0001352
3202	0.0001729
3214	0.0001664
3226	0.0001469
3238	0.0001248
3250	0.0001339
3262	0.0001339
3274	0.0001092
3286	7.15e-05
3298	7.02e-05
3310	5.59e-05
3322	3.9e-05
3334	0.0001092
3346	0.0001261
3358	0.0001261
3370	0.0001313
3382	0.0001027
3394	9.75e-05
3406	6.63e-05
3418	6.89e-05
3430	5.85e-05
3442	7.02e-05
3454	9.1e-05
3466	5.85e-05
3478	7.02e-05
3490	0.0001157
3502	0.0001014
3514	6.76e-05
3526	3.38e-05
3538	8.58e-05
3550	7.54e-05
3562	4.94e-05
3574	4.03e-05
3586	2.73e-05
3598	0.0001027
3610	0.0002626
3622	0.000845
3634	0.0018837
3646	0.0023335
3658	0.0014794
3670	0.0004979
3682	0.000156
3694	3.64e-05
3706	3.12e-05
3718	1.95e-05
3730	1.3e-05
3742	1.56e-05
3754	1.56e-05
3766	2.21e-05
3778	1.56e-05
3790	2.86e-05
3802	6.11e-05
3814	2.73e-05
3826	3.12e-05
3838	5.72e-05
