Infrared Spectrum: Terbacil
Formula: C 9 H 13 Cl N 2 O 2
CAS: 5902-51-2
State: gas
Instrument: HP-GC/MS/IRD
Origin: NIST Mass Spectrometry Data Center
1/CM	ABSORBANCE
550	0.0018235
562	0.00154
574	0.0006755
586	0.0006965
598	0.0008365
610	0.00035
622	0.0001995
634	0.00056
646	0.0007525
658	0.0004165
670	0.0003115
682	0.0001575
694	6.3e-05
706	4.55e-05
718	0.0002275
730	0.00063
742	0.0018865
754	0.002898
766	0.003143
778	0.001547
790	0.0003815
802	0.0001925
814	0.000238
826	0.0003955
838	0.0002485
850	3.85e-05
862	2.1e-05
874	0.000105
886	0.000357
898	8.4e-05
910	0.0001225
922	0.000196
934	0.000112
946	0.000119
958	0.00014
970	0.0002765
982	0.000378
994	0.0003885
1006	0.000651
1018	0.00119
1030	0.001057
1042	0.001001
1054	0.0012425
1066	0.0012775
1078	0.001239
1090	0.0014455
1102	0.003234
1114	0.00518
1126	0.0025515
1138	0.0009205
1150	0.000805
1162	0.001106
1174	0.0021385
1186	0.0042315
1198	0.0038955
1210	0.0015365
1222	0.001253
1234	0.0012075
1246	0.0012005
1258	0.001267
1270	0.0026285
1282	0.002653
1294	0.001477
1306	0.0012145
1318	0.001526
1330	0.0023765
1342	0.003654
1354	0.0068495
1366	0.0131215
1378	0.010409
1390	0.0062405
1402	0.004326
1414	0.0022015
1426	0.0016835
1438	0.001988
1450	0.003038
1462	0.005691
1474	0.005432
1486	0.0036645
1498	0.002114
1510	0.0014875
1522	0.001022
1534	0.000735
1546	0.000616
1558	0.000553
1570	0.000462
1582	0.000469
1594	0.000483
1606	0.0005565
1618	0.0009135
1630	0.00161
1642	0.00322
1654	0.007182
1666	0.008022
1678	0.0079065
1690	0.0198625
1702	0.035
1714	0.015855
1726	0.0105175
1738	0.0226345
1750	0.0134225
1762	0.006188
1774	0.0039515
1786	0.002198
1798	0.0011025
1810	0.0005985
1822	0.0003885
1834	0.000245
1846	0.000203
1858	0.0002205
1870	0.0002135
1882	0.0001995
1894	0.000196
1906	0.000161
1918	0.0001155
1930	9.45e-05
1942	9.45e-05
1954	8.05e-05
1966	5.6e-05
1978	4.9e-05
1990	9.1e-05
2002	8.4e-05
2014	7e-05
2026	0.0001015
2038	8.05e-05
2050	6.3e-05
2062	3.15e-05
2074	1.4e-05
2086	4.9e-05
2098	4.2e-05
2110	4.9e-05
2122	8.05e-05
2134	7.35e-05
2146	3.85e-05
2158	4.55e-05
2170	1.75e-05
2182	3.85e-05
2194	5.95e-05
2206	5.95e-05
2218	4.9e-05
2230	5.25e-05
2242	8.05e-05
2254	9.45e-05
2266	0.0001085
2278	9.45e-05
2290	0.0001085
2302	9.8e-05
2314	8.05e-05
2326	6.65e-05
2338	7.7e-05
2350	7.35e-05
2362	7e-05
2374	8.05e-05
2386	9.8e-05
2398	0.0001015
2410	6.3e-05
2422	5.95e-05
2434	7.35e-05
2446	5.6e-05
2458	5.95e-05
2470	1.75e-05
2482	5.95e-05
2494	5.95e-05
2506	5.95e-05
2518	7e-05
2530	4.9e-05
2542	3.85e-05
2554	5.95e-05
2566	2.1e-05
2578	1.05e-05
2590	3.5e-05
2602	4.9e-05
2614	5.6e-05
2626	5.95e-05
2638	5.25e-05
2650	3.15e-05
2662	2.8e-05
2674	5.25e-05
2686	1.05e-05
2698	2.1e-05
2710	7e-05
2722	0.0001225
2734	0.000161
2746	0.0001645
2758	0.0001295
2770	0.0001365
2782	0.000168
2794	0.0001995
2806	0.0002415
2818	0.0002205
2830	0.0003045
2842	0.000399
2854	0.0005075
2866	0.0006545
2878	0.000924
2890	0.0012145
2902	0.001505
2914	0.00189
2926	0.0025305
2938	0.0031955
2950	0.003003
2962	0.002919
2974	0.004053
2986	0.003906
2998	0.0017115
3010	0.001029
3022	0.0008575
3034	0.0009555
3046	0.000756
3058	0.000504
3070	0.000406
3082	0.000322
3094	0.000273
3106	0.0002275
3118	0.0001855
3130	0.000161
3142	0.0001435
3154	0.000126
3166	0.000119
3178	9.45e-05
3190	9.8e-05
3202	7.35e-05
3214	6.65e-05
3226	9.45e-05
3238	7.35e-05
3250	4.9e-05
3262	4.9e-05
3274	6.65e-05
3286	3.85e-05
3298	3.85e-05
3310	6.65e-05
3322	0.0001225
3334	7.7e-05
3346	0.0001085
3358	0.0001295
3370	0.000119
3382	0.000147
3394	0.0003115
3406	0.0002485
3418	0.000427
3430	0.000924
3442	0.002142
3454	0.0050155
3466	0.003353
3478	0.0009205
3490	0.0003115
3502	0.000154
3514	9.1e-05
3526	0.000126
3538	8.05e-05
3550	2.1e-05
3562	5.25e-05
3574	7.7e-05
3586	4.55e-05
3598	2.45e-05
3610	3.15e-05
3622	3.15e-05
3634	3.5e-05
3646	5.95e-05
3658	8.4e-05
3670	5.25e-05
3682	7e-06
3694	4.9e-05
3706	0
3718	7e-06
3730	3.5e-06
3742	3.15e-05
3754	7e-06
3766	3.5e-05
3778	3.5e-06
3790	1.4e-05
3802	1.05e-05
3814	3.5e-05
3826	4.55e-05
3838	9.8e-05
