Infrared Spectrum: METHYL(N-CYANOMETHYL-N-METHYL)-Beta-AMINOPROPIONATE
Formula: C7 H12 N2 O2
CAS: 59039-83-7
State: LIQUID
Class: COBLENTZ
Instrument: PERKIN-ELMER
Sampling: TRANSMISSION
Path length: CAPILLARY
Resolution: 4
Origin: ABBOTT LABORATORIES - WASHBURN
MICROMETERS	TRANSMITTANCE
2.047	0.908
2.087	0.912
2.127	0.913
2.16701	0.92
2.20701	0.9271
2.24701	0.93
2.28701	0.932
2.32701	0.923
2.36702	0.9297
2.40702	0.93
2.44702	0.934
2.48702	0.93
2.52702	0.934
2.56702	0.939
2.60703	0.934
2.64703	0.934
2.68703	0.937
2.72703	0.9368
2.76703	0.9291
2.80704	0.9199
2.84704	0.913
2.88704	0.908
2.92704	0.9116
2.96704	0.9103
3.00705	0.92
3.04705	0.922
3.08705	0.927
3.12705	0.9302
3.16705	0.9341
3.20705	0.9389
3.24706	0.939
3.28706	0.935
3.32706	0.9107
3.36706	0.8247
3.40706	0.7478
3.44707	0.7433
3.48707	0.824
3.52707	0.8075
3.56707	0.7812
3.60707	0.8041
3.64708	0.8512
3.68708	0.917
3.72708	0.9354
3.76708	0.949
3.80708	0.952
3.84709	0.951
3.88709	0.949
3.92709	0.9438
3.96709	0.9399
4.00709	0.9287
4.04709	0.929
4.0871	0.927
4.1271	0.915
4.1671	0.91
4.2071	0.9079
4.2471	0.903
4.28711	0.908
4.32711	0.8978
4.36711	0.893
4.40711	0.8859
4.44711	0.878
4.48712	0.869
4.52712	0.8586
4.56712	0.869
4.60712	0.8659
4.64712	0.861
4.68713	0.856
4.72713	0.8558
4.76713	0.849
4.80713	0.8469
4.84713	0.844
4.88713	0.841
4.92714	0.844
4.96714	0.8395
5.00714	0.8419
5.04714	0.8406
5.08714	0.839
5.12715	0.8403
5.16715	0.839
5.20715	0.842
5.24715	0.8365
5.28715	0.841
5.32716	0.837
5.36716	0.834
5.40716	0.832
5.44716	0.8314
5.48716	0.828
5.52716	0.8213
5.56717	0.8138
5.60717	0.7971
5.64717	0.7672
5.68717	0.6838
5.72717	0.3391
5.76718	0.1405
5.80718	0.3932
5.84718	0.6738
5.88718	0.7311
5.92718	0.7592
5.96719	0.7846
6.00719	0.798
6.04719	0.804
6.08719	0.81
6.12719	0.81
6.1672	0.8126
6.2072	0.812
6.2472	0.8136
6.2872	0.8177
6.3272	0.8181
6.3672	0.8186
6.40721	0.8183
6.44721	0.8235
6.48721	0.809
6.52721	0.8102
6.56721	0.812
6.60722	0.814
6.64722	0.805
6.68722	0.7963
6.72722	0.7827
6.76722	0.7535
6.80723	0.6614
6.84723	0.5545
6.88723	0.5411
6.92723	0.545
6.96723	0.4706
7.00724	0.5093
7.04724	0.6058
7.08724	0.6703
7.12724	0.7187
7.16724	0.7154
7.20724	0.6856
7.24725	0.687
7.28725	0.6943
7.32725	0.6814
7.36725	0.6351
7.40725	0.6649
7.44726	0.6687
7.48726	0.6294
7.52726	0.5903
7.56726	0.607
7.60726	0.6115
7.64727	0.6256
7.68727	0.646
7.72727	0.6362
7.76727	0.6325
7.80727	0.6133
7.84727	0.5889
7.88728	0.5682
7.92728	0.5365
7.96728	0.5179
8.00728	0.5278
8.04728	0.555
8.08729	0.543
8.12729	0.5142
8.16729	0.4847
8.20729	0.4393
8.24729	0.414
8.2873	0.4031
8.3273	0.4124
8.3673	0.4525
8.4073	0.4848
8.4473	0.5039
8.48731	0.4711
8.52731	0.3999
8.56731	0.4006
8.60731	0.4688
8.64731	0.5718
8.68731	0.6476
8.72732	0.685
8.76732	0.6782
8.80732	0.6522
8.84732	0.6355
8.88732	0.6055
8.92733	0.6169
8.96733	0.6923
9.00733	0.7541
9.04733	0.7763
9.08733	0.7892
9.12734	0.7946
9.16734	0.793
9.20734	0.7978
9.24734	0.7922
9.28734	0.7773
9.32734	0.7538
9.36735	0.7246
9.40735	0.701
9.44735	0.6783
9.48735	0.6482
9.52735	0.6104
9.56736	0.556
9.60736	0.5214
9.64736	0.504
9.68736	0.5408
9.72736	0.6365
9.76737	0.694
9.80737	0.7108
9.84737	0.714
9.88737	0.7127
9.92737	0.712
9.96738	0.7178
10.0074	0.7246
10.0474	0.729
10.0874	0.7258
10.1274	0.731
10.1674	0.7487
10.2074	0.7647
10.2474	0.77
10.2874	0.7723
10.3274	0.7702
10.3674	0.777
10.4074	0.7753
10.4474	0.7653
10.4874	0.7642
10.5274	0.77
10.5674	0.7837
10.6074	0.7905
10.6474	0.7982
10.6874	0.802
10.7274	0.7984
10.7674	0.793
10.8074	0.792
10.8474	0.7938
10.8874	0.8026
10.9274	0.8065
10.9674	0.814
11.0074	0.8091
11.0474	0.8024
11.0874	0.7974
11.1274	0.7812
11.1674	0.7923
11.2074	0.7984
11.2474	0.804
11.2874	0.807
11.3274	0.809
11.3674	0.7985
11.4074	0.7939
11.4474	0.7863
11.4874	0.7568
11.5274	0.7276
11.5675	0.704
11.6075	0.674
11.6475	0.6798
11.6875	0.6933
11.7275	0.708
11.7675	0.706
11.8075	0.6846
11.8475	0.6649
11.8875	0.6679
11.9275	0.6944
11.9675	0.706
12.0075	0.7253
12.0475	0.7441
12.0875	0.7664
12.1275	0.78
12.1675	0.7899
12.2075	0.798
12.2475	0.805
12.2875	0.802
12.3275	0.8
12.3675	0.8013
12.4075	0.8011
12.4475	0.797
12.4875	0.798
12.5275	0.793
12.5675	0.788
12.6075	0.787
12.6475	0.791
12.6875	0.786
12.7275	0.7675
12.7675	0.748
12.8075	0.7395
12.8475	0.7543
12.8875	0.7731
12.9275	0.7908
12.9675	0.804
13.0075	0.8042
13.0475	0.8091
13.0875	0.81
13.1275	0.809
13.1675	0.809
13.2075	0.8045
13.2475	0.803
13.2875	0.8036
13.3275	0.804
13.3675	0.798
13.4075	0.8003
13.4475	0.793
13.4875	0.797
13.5275	0.7926
13.5675	0.7927
13.6075	0.792
13.6475	0.79
13.6876	0.7875
13.7276	0.7854
13.7676	0.78
13.8076	0.7792
13.8476	0.773
13.8876	0.777
13.9276	0.7699
13.9676	0.7662
14.0076	0.7664
14.0476	0.76
14.0876	0.7593
14.1276	0.753
14.1676	0.753
14.2076	0.744
14.2476	0.7411
14.2876	0.743
14.3276	0.739
14.3676	0.741
14.4076	0.743
14.4476	0.738
14.4876	0.7378
14.5276	0.736
14.5676	0.7331
14.6076	0.728
14.6476	0.7271
14.6876	0.7259
14.7276	0.719
14.7676	0.7148
14.8076	0.712
14.8476	0.7111
14.8876	0.704
14.9276	0.6977
14.9676	0.6909
15.0076	0.7014
15.0476	0.6914
15.0876	0.6833
15.1276	0.6748
15.1676	0.672
15.2076	0.667
15.2476	0.6608
15.2876	0.6591
15.3276	0.6513
15.3676	0.65
15.4076	0.6448
