Infrared Spectrum: Cyclododecyl isothiocyanate
Formula: C13 H23 N S
CAS: 59037-64-8
State: gas
Origin: EPA-IR VAPOR PHASE LIBRARY
1/CM	ABSORBANCE
549.8	0.009587
559.445	0.008267
569.09	0.006987
578.734	0.005087
588.379	0.004147
598.024	0.003377
607.669	0.003097
617.313	0.002407
626.958	0.002277
636.603	0.002067
646.248	0.002137
655.893	0.002757
665.537	0.003577
675.182	0.004847
684.827	0.005137
694.472	0.005817
704.116	0.007677
713.761	0.010937
723.406	0.010527
733.051	0.007067
742.695	0.007437
752.34	0.010357
761.985	0.008777
771.63	0.007257
781.275	0.007217
790.919	0.004907
800.564	0.005047
810.209	0.005107
819.854	0.004367
829.498	0.003707
839.143	0.003467
848.788	0.003487
858.433	0.003497
868.078	0.003977
877.722	0.004087
887.367	0.004037
897.012	0.003797
906.657	0.004467
916.301	0.005387
925.946	0.004927
935.591	0.004427
945.236	0.004657
954.88	0.004277
964.525	0.004037
974.17	0.003677
983.815	0.003477
993.46	0.003427
1003.1	0.003287
1012.75	0.003007
1022.39	0.003537
1032.04	0.003957
1041.68	0.003507
1051.33	0.003397
1060.97	0.003357
1070.62	0.002877
1080.26	0.003927
1089.91	0.004307
1099.55	0.005227
1109.2	0.005367
1118.84	0.004907
1128.49	0.003827
1138.13	0.003297
1147.78	0.003217
1157.42	0.003567
1167.07	0.004517
1176.71	0.003967
1186.36	0.004287
1196	0.004677
1205.64	0.005107
1215.29	0.004767
1224.93	0.005057
1234.58	0.005407
1244.22	0.006097
1253.87	0.006597
1263.51	0.007887
1273.16	0.009127
1282.8	0.010977
1292.45	0.015457
1302.09	0.020957
1311.74	0.024447
1321.38	0.027447
1331.03	0.033387
1340.67	0.032997
1350.32	0.033067
1359.96	0.033027
1369.61	0.024837
1379.25	0.013127
1388.9	0.006507
1398.54	0.004327
1408.18	0.003747
1417.83	0.003987
1427.47	0.004957
1437.12	0.010547
1446.76	0.027397
1456.41	0.028497
1466.05	0.027667
1475.7	0.022827
1485.34	0.008337
1494.99	0.003907
1504.63	0.002557
1514.28	0.001847
1523.92	0.001557
1533.57	0.001327
1543.21	0.0011539
1552.86	0.0011124
1562.5	0.0011617
1572.15	0.0011228
1581.79	0.0011113
1591.44	0.0010621
1601.08	0.0010271
1610.73	0.0010465
1620.37	0.0009799
1630.01	0.0009296
1639.66	0.0008722
1649.3	0.0008522
1658.95	0.0008736
1668.59	0.0008486
1678.24	0.0009416
1687.88	0.0008644
1697.53	0.0008134
1707.17	0.0008863
1716.82	0.0009107
1726.46	0.0010524
1736.11	0.0010045
1745.75	0.0011162
1755.4	0.0011618
1765.04	0.0010752
1774.69	0.0010942
1784.33	0.0011319
1793.98	0.0011464
1803.62	0.0012115
1813.27	0.001337
1822.91	0.001377
1832.55	0.001577
1842.2	0.001717
1851.84	0.001987
1861.49	0.002327
1871.13	0.002757
1880.78	0.003557
1890.42	0.004437
1900.07	0.005687
1909.71	0.007317
1919.36	0.009617
1929	0.012787
1938.65	0.017117
1948.29	0.022897
1957.94	0.030827
1967.58	0.041537
1977.23	0.056047
1986.87	0.075217
1996.52	0.100647
2006.16	0.133547
2015.81	0.174377
2025.45	0.221087
2035.1	0.264297
2044.74	0.289997
2054.38	0.288597
2064.03	0.260227
2073.67	0.214977
2083.32	0.176197
2092.96	0.154137
2102.61	0.139367
2112.25	0.125747
2121.9	0.113277
2131.54	0.099327
2141.19	0.082947
2150.83	0.068567
2160.48	0.057427
2170.12	0.048067
2179.77	0.039347
2189.41	0.031377
2199.06	0.024407
2208.7	0.019077
2218.35	0.014887
2227.99	0.011847
2237.64	0.009347
2247.28	0.007497
2256.92	0.006187
2266.57	0.005027
2276.21	0.004167
2285.86	0.003527
2295.5	0.003037
2305.15	0.002707
2314.79	0.002437
2324.44	0.002237
2334.08	0.002057
2343.73	0.001937
2353.37	0.001787
2363.02	0.001627
2372.66	0.001637
2382.31	0.001737
2391.95	0.001657
2401.6	0.001617
2411.24	0.001567
2420.89	0.001537
2430.53	0.001487
2440.18	0.001537
2449.82	0.001507
2459.47	0.001537
2469.11	0.001597
2478.75	0.001617
2488.4	0.001567
2498.04	0.001777
2507.69	0.001967
2517.33	0.002067
2526.98	0.002327
2536.62	0.002547
2546.27	0.002617
2555.91	0.002887
2565.56	0.002937
2575.2	0.002907
2584.85	0.003117
2594.49	0.003037
2604.14	0.003147
2613.78	0.003007
2623.43	0.003087
2633.07	0.003257
2642.72	0.003477
2652.36	0.003787
2662.01	0.004247
2671.65	0.004887
2681.29	0.005207
2690.94	0.005197
2700.58	0.005157
2710.23	0.004997
2719.87	0.004907
2729.52	0.004837
2739.16	0.004637
2748.81	0.004627
2758.45	0.004547
2768.1	0.004627
2777.74	0.004847
2787.39	0.005317
2797.03	0.006027
2806.68	0.006797
2816.32	0.007827
2825.97	0.008857
2835.61	0.010587
2845.26	0.018437
2854.9	0.053897
2864.55	0.085727
2874.19	0.081807
2883.84	0.060627
2893.48	0.047367
2903.12	0.065637
2912.77	0.120797
2922.41	0.170307
2932.06	0.266357
2941.7	0.290277
2951.35	0.198407
2960.99	0.116037
2970.64	0.059707
2980.28	0.033297
2989.93	0.019377
2999.57	0.011807
3009.22	0.007987
3018.86	0.005967
3028.51	0.004667
3038.15	0.003727
3047.8	0.002797
3057.44	0.002477
3067.09	0.002197
3076.73	0.002137
3086.38	0.002007
3096.02	0.001487
3105.67	0.001547
3115.31	0.001457
3124.95	0.001327
3134.6	0.001347
3144.24	0.001297
3153.89	0.0012203
3163.53	0.0011478
3173.18	0.0010815
3182.82	0.0010823
3192.47	0.0010077
3202.11	0.0011409
3211.76	0.0009169
3221.4	0.0008117
3231.05	0.0008188
3240.69	0.0006739
3250.34	0.0006287
3259.98	0.0005524
3269.63	0.0003975
3279.27	0.0003815
3288.92	0.00036311
3298.56	0.000174
3308.21	0.00037134
3317.85	0.0003992
3327.49	0.000282944
3337.14	0.0002646
3346.78	0.0004013
3356.43	0.00033323
3366.07	0.00031128
3375.72	0.00033211
3385.36	0.0004596
3395.01	0.00035617
3404.65	0.0003853
3414.3	0.00032571
3423.94	0.00035556
3433.59	0.00030646
3443.23	0.00032733
3452.88	0.00032887
3462.52	0.000315
3472.17	0.00035718
3481.81	0.00033496
3491.46	0.000148
3501.1	2.8e-05
3510.75	0.000172
3520.39	0.00028821
3530.04	0.0002113
3539.68	0.0002179
3549.32	0.000217
3558.97	0.00033962
3568.61	0.0005245
3578.26	0.00018
3587.9	0.0002162
3597.55	0.0004625
3607.19	0.0004295
3616.84	0.0004223
3626.48	0.000412
3636.13	0.0005098
3645.77	0.0004944
3655.42	0.00032513
3665.06	0.0004249
3674.71	0.00036498
3684.35	0.0005579
3694	0.0004159
3703.64	0.0004234
3713.29	0.0004738
3722.93	0.0006148
3732.58	0.0004082
3742.22	0.0004868
3751.86	0.0004836
3761.51	0.0005667
3771.15	0.0005337
3780.8	0.0006284
3790.44	0.0003945
3800.09	0.00037607
3809.73	0.0005203
3819.38	0.0005788
3829.02	0.0006815
3838.67	0.0006108
3848.31	0.0005953
3857.96	0.0007592
3867.6	0.0007827
3877.25	0.0007697
3886.89	0.0007697
3896.54	0.0008479
3906.18	0.0008287
3915.83	0.0008432
3925.47	0.0011152
3935.12	0.0009111
3944.76	0.001437
3954.41	0.0011909
3964.05	0.001447
3973.69	0.001397
3983.34	0.001637
3992.98	0.001767
