Infrared Spectrum: 1,3-Dimethylcyclohexane
Formula: C 8 H 16
CAS: 591-21-9
State: gas
Instrument: HP-GC/MS/IRD
Origin: NIST Mass Spectrometry Data Center
1/CM	ABSORBANCE
550	0.000232
562	0.0001904
574	0.000144
586	0.0001088
598	0.0002352
610	0.0002032
622	0.0001344
634	0.00016
646	0.0002464
658	0.0001504
670	0.0001344
682	0.0001488
694	0.0001728
706	0.0001936
718	0.0002144
730	0.0001856
742	0.0001088
754	0.0001712
766	0.0002288
778	0.0001872
790	0.0001552
802	0.0001792
814	0.0002896
826	0.0003088
838	0.0002208
850	0.0002848
862	0.000304
874	0.000184
886	0.0002192
898	0.000192
910	0.0001712
922	0.0002336
934	0.0002592
946	0.0003952
958	0.0003472
970	0.000256
982	0.000224
994	0.0002144
1006	0.0001712
1018	0.0002224
1030	0.0001296
1042	0.0002
1054	0.0002208
1066	0.0002256
1078	0.0001872
1090	0.0001392
1102	0.0001536
1114	0.0002128
1126	0.00012
1138	0.0001104
1150	5.76e-05
1162	0.000104
1174	0.0001056
1186	7.52e-05
1198	4.16e-05
1210	2.56e-05
1222	3.2e-05
1234	8.96e-05
1246	0.0001824
1258	0.0002864
1270	0.000312
1282	0.0002448
1294	0.0001552
1306	0.0001808
1318	0.000192
1330	0.0001968
1342	0.0003696
1354	0.0005376
1366	0.0006128
1378	0.0007088
1390	0.0005264
1402	0.0002352
1414	0.000224
1426	0.0003904
1438	0.0009328
1450	0.0017536
1462	0.001728
1474	0.0010096
1486	0.0004528
1498	0.0002304
1510	0.0001728
1522	0.0001408
1534	0.0001216
1546	0.0001296
1558	0.0001024
1570	9.28e-05
1582	0.0001008
1594	8.16e-05
1606	0.000112
1618	8.32e-05
1630	7.36e-05
1642	9.92e-05
1654	8.48e-05
1666	9.28e-05
1678	0.000104
1690	0.0001232
1702	0.000104
1714	7.36e-05
1726	7.04e-05
1738	7.04e-05
1750	8.8e-05
1762	9.76e-05
1774	7.52e-05
1786	6.08e-05
1798	8e-05
1810	7.36e-05
1822	7.36e-05
1834	7.68e-05
1846	8e-05
1858	4e-05
1870	7.2e-05
1882	7.2e-05
1894	6.88e-05
1906	8e-05
1918	7.84e-05
1930	9.76e-05
1942	7.84e-05
1954	3.52e-05
1966	6.88e-05
1978	2.88e-05
1990	4.8e-05
2002	7.68e-05
2014	5.92e-05
2026	5.76e-05
2038	2.72e-05
2050	5.6e-05
2062	2.72e-05
2074	8.48e-05
2086	7.36e-05
2098	4.8e-05
2110	5.92e-05
2122	6.24e-05
2134	6.24e-05
2146	5.76e-05
2158	6.08e-05
2170	7.52e-05
2182	8.96e-05
2194	0.0001088
2206	0.0001056
2218	0.0001024
2230	6.56e-05
2242	4.48e-05
2254	6.24e-05
2266	9.44e-05
2278	9.28e-05
2290	7.36e-05
2302	9.44e-05
2314	7.68e-05
2326	9.44e-05
2338	9.28e-05
2350	9.28e-05
2362	7.52e-05
2374	8.64e-05
2386	7.84e-05
2398	7.84e-05
2410	7.68e-05
2422	7.36e-05
2434	5.44e-05
2446	4.8e-05
2458	5.44e-05
2470	6.24e-05
2482	7.2e-05
2494	5.44e-05
2506	1.92e-05
2518	4.32e-05
2530	2.88e-05
2542	3.68e-05
2554	4.48e-05
2566	9.28e-05
2578	9.92e-05
2590	0.0001424
2602	0.0001296
2614	0.0001744
2626	0.0001648
2638	0.0002016
2650	0.0002048
2662	0.0001744
2674	0.0002048
2686	0.0001488
2698	0.0001664
2710	0.000192
2722	0.0002656
2734	0.0002608
2746	0.000264
2758	0.0002352
2770	0.0002528
2782	0.0003488
2794	0.0004528
2806	0.0005504
2818	0.0007568
2830	0.0013792
2842	0.003136
2854	0.0048176
2866	0.0054624
2878	0.0057536
2890	0.0062448
2902	0.0078848
2914	0.0120064
2926	0.016
2938	0.011848
2950	0.009416
2962	0.0081376
2974	0.0040304
2986	0.0009312
2998	0.0004544
3010	0.000312
3022	0.00028
3034	0.000232
3046	0.0002448
3058	0.000288
3070	0.0003088
3082	0.0002928
3094	0.000248
3106	0.0002384
3118	0.0001664
3130	0.00016
3142	0.0001696
3154	0.0001584
3166	0.0001776
3178	0.0002016
3190	0.0001648
3202	0.0001584
3214	0.0001264
3226	9.76e-05
3238	5.6e-05
3250	5.12e-05
3262	8.64e-05
3274	4e-05
3286	8.16e-05
3298	6.24e-05
3310	0.0001536
3322	0.0001008
3334	8e-05
3346	9.28e-05
3358	5.76e-05
3370	6.4e-05
3382	8.16e-05
3394	5.44e-05
3406	4.64e-05
3418	8e-05
3430	0.0001024
3442	9.6e-05
3454	0.0001376
3466	4.8e-05
3478	0.0001168
3490	8.16e-05
3502	5.12e-05
3514	6.24e-05
3526	6.72e-05
3538	1.44e-05
3550	5.12e-05
3562	9.92e-05
3574	1.44e-05
3586	8.32e-05
3598	7.52e-05
3610	8.64e-05
3622	4.64e-05
3634	4e-05
3646	8.8e-05
3658	6.72e-05
3670	7.2e-05
3682	7.68e-05
3694	2.24e-05
3706	5.12e-05
3718	9.92e-05
3730	0.0001296
3742	5.92e-05
3754	4.16e-05
3766	0.0001088
3778	9.76e-05
3790	1.76e-05
3802	8.96e-05
3814	9.6e-05
3826	6.08e-05
3838	0.0001216
