Infrared Spectrum: Pyrimidine, 4-amino-,
Formula: C4 H5 N3
CAS: 591-54-8
State: SOLID (0.6 mg / 650 mg KBr DISC)
Class: COBLENTZ III
Instrument: PERKIN-ELMER 21 (GRATING)
Instrument parameters: FILTER CHANGE ABOUT 1020 CM^-^1
Resolution: 2
Origin: SOUTHERN RESEARCH INSTITUTE
1/CM	TRANSMITTANCE
603.99	0.6557
613.006	0.6572
622.023	0.6587
631.039	0.6599
640.056	0.6607
649.072	0.6598
658.088	0.6563
667.105	0.647
676.121	0.634
685.137	0.6895
694.154	0.7072
703.17	0.715
712.187	0.7231
721.203	0.7265
730.219	0.7286
739.236	0.7284
748.252	0.7264
757.268	0.722
766.285	0.6975
775.301	0.6767
784.318	0.7131
793.334	0.7462
802.35	0.7384
811.367	0.7109
820.383	0.6301
829.4	0.6061
838.416	0.555
847.432	0.7195
856.449	0.7287
865.465	0.6944
874.481	0.6745
883.498	0.8047
892.514	0.8058
901.531	0.8034
910.547	0.7981
919.563	0.787
928.58	0.7735
937.596	0.7577
946.612	0.7349
955.629	0.7028
964.645	0.6671
973.662	0.6036
982.678	0.2839
991.694	0.3323
1000.71	0.7861
1009.73	0.7962
1018.74	0.8013
1027.76	0.7678
1036.78	0.7558
1045.79	0.734
1054.81	0.7196
1063.83	0.7165
1072.84	0.7186
1081.86	0.7123
1090.87	0.7218
1099.89	0.7219
1108.91	0.7149
1117.92	0.7141
1126.94	0.7147
1135.96	0.7136
1144.97	0.7123
1153.99	0.7087
1163.01	0.697
1172.02	0.6593
1181.04	0.6092
1190.05	0.6993
1199.07	0.7105
1208.09	0.7088
1217.1	0.7073
1226.12	0.7032
1235.14	0.6881
1244.15	0.6081
1253.17	0.4832
1262.19	0.4799
1271.2	0.594
1280.22	0.6572
1289.23	0.6708
1298.25	0.6706
1307.27	0.6575
1316.28	0.614
1325.3	0.5447
1334.32	0.2891
1343.33	0.2325
1352.35	0.4284
1361.37	0.6075
1370.38	0.6783
1379.4	0.6697
1388.42	0.641
1397.43	0.5576
1406.45	0.2687
1415.46	0.2949
1424.48	0.5117
1433.5	0.7187
1442.51	0.7677
1451.53	0.7597
1460.55	0.7455
1469.56	0.7204
1478.58	0.6836
1487.6	0.5703
1496.61	0.3147
1505.63	0.2654
1514.64	0.3354
1523.66	0.5604
1532.68	0.4858
1541.69	0.4561
1550.71	0.4557
1559.73	0.4534
1568.74	0.5396
1577.76	0.2597
1586.78	0.0328
1595.79	0.023
1604.81	0.1744
1613.82	0.2308
1622.84	0.1743
1631.86	0.1578
1640.87	0.1058
1649.89	0.0867
1658.91	0.1795
1667.92	0.4607
1676.94	0.614
1685.96	0.7401
1694.97	0.782
1703.99	0.8085
1713	0.8202
1722.02	0.8287
1731.04	0.8355
1740.05	0.8416
1749.07	0.8472
1758.09	0.8512
1767.1	0.8513
1776.12	0.8523
1785.14	0.855
1794.15	0.8577
1803.17	0.8599
1812.19	0.8596
1821.2	0.8574
1830.22	0.8542
1839.23	0.8494
1848.25	0.8472
1857.27	0.8568
1866.28	0.8647
1875.3	0.8642
1884.32	0.8621
1893.33	0.8592
1902.35	0.8564
1911.37	0.8531
1920.38	0.8494
1929.4	0.8455
1938.41	0.8405
1947.43	0.8356
1956.45	0.8401
1965.46	0.8466
1974.48	0.8509
1983.5	0.8521
1992.51	0.8519
2001.53	0.8497
2010.55	0.8472
2019.56	0.8446
2028.58	0.8431
2037.59	0.8416
2046.61	0.8404
2055.63	0.8394
2064.64	0.8384
2073.66	0.8351
2082.68	0.8324
2091.69	0.8301
2100.71	0.8295
2109.73	0.8297
2118.74	0.8327
2127.76	0.8349
2136.77	0.8355
2145.79	0.8359
2154.81	0.8366
2163.82	0.8374
2172.84	0.8382
2181.86	0.8403
2190.87	0.8413
2199.89	0.841
2208.91	0.838
2217.92	0.8359
2226.94	0.8369
2235.95	0.8388
2244.97	0.8412
2253.99	0.8428
2263	0.842
2272.02	0.8407
2281.04	0.8388
2290.05	0.8363
2299.07	0.8352
2308.09	0.8349
2317.1	0.836
2326.12	0.8374
2335.14	0.839
2344.15	0.8408
2353.17	0.841
2362.18	0.8406
2371.2	0.8392
2380.22	0.8378
2389.23	0.8368
2398.25	0.8359
2407.27	0.8349
2416.28	0.8334
2425.3	0.832
2434.32	0.8304
2443.33	0.8289
2452.35	0.8274
2461.36	0.8253
2470.38	0.8227
2479.4	0.8206
2488.41	0.8207
2497.43	0.8207
2506.45	0.8241
2515.46	0.8309
2524.48	0.8354
2533.5	0.8343
2542.51	0.8325
2551.53	0.831
2560.54	0.8298
2569.56	0.8292
2578.58	0.8293
2587.59	0.8283
2596.61	0.8267
2605.63	0.8246
2614.64	0.8224
2623.66	0.8197
2632.68	0.8167
2641.69	0.8124
2650.71	0.8064
2659.72	0.7999
2668.74	0.7914
2677.76	0.7798
2686.77	0.7677
2695.79	0.7583
2704.81	0.7529
2713.82	0.7549
2722.84	0.7644
2731.86	0.7766
2740.87	0.7856
2749.89	0.7906
2758.91	0.7904
2767.92	0.7863
2776.94	0.7779
2785.95	0.7693
2794.97	0.7614
2803.99	0.7544
2813	0.742
2822.02	0.7346
2831.04	0.7288
2840.05	0.7249
2849.07	0.7216
2858.09	0.7193
2867.1	0.7104
2876.12	0.6985
2885.13	0.6835
2894.15	0.6683
2903.17	0.6545
2912.18	0.6432
2921.2	0.6352
2930.22	0.6268
2939.23	0.6155
2948.25	0.6068
2957.27	0.5926
2966.28	0.5728
2975.3	0.5583
2984.31	0.5422
2993.33	0.5248
3002.35	0.5074
3011.36	0.489
3020.38	0.4721
3029.4	0.455
3038.41	0.4282
3047.43	0.3988
3056.45	0.3619
3065.46	0.3336
3074.48	0.3029
3083.49	0.2774
3092.51	0.2551
3101.53	0.2414
3110.54	0.2363
3119.56	0.2367
3128.58	0.2389
3137.59	0.242
3146.61	0.2432
3155.63	0.2419
3164.64	0.2385
3173.66	0.2346
3182.67	0.2329
3191.69	0.2328
3200.71	0.2383
3209.72	0.2558
3218.74	0.2763
3227.76	0.313
3236.77	0.3309
3245.79	0.3365
3254.81	0.337
3263.82	0.3328
3272.84	0.3193
3281.86	0.2926
3290.87	0.2645
3299.89	0.2339
3308.9	0.2022
3317.92	0.1747
3326.94	0.1613
3335.95	0.1645
3344.97	0.1754
3353.99	0.1895
3363	0.2152
3372.02	0.241
3381.04	0.2545
3390.05	0.2623
3399.07	0.2715
3408.08	0.2833
3417.1	0.2949
3426.12	0.3105
3435.13	0.3286
3444.15	0.3468
3453.17	0.3598
3462.18	0.3714
3471.2	0.3852
3480.22	0.402
3489.23	0.4272
3498.25	0.4487
3507.26	0.4643
3516.28	0.4873
3525.3	0.5166
3534.31	0.5386
3543.33	0.5527
3552.35	0.5717
3561.36	0.5814
3570.38	0.604
3579.4	0.6227
3588.41	0.6551
3597.43	0.6822
3606.44	0.709
3615.46	0.7276
3624.48	0.7448
3633.49	0.7695
3642.51	0.8003
3651.53	0.8092
3660.54	0.8132
3669.56	0.8198
3678.58	0.8247
3687.59	0.8256
3696.61	0.8274
3705.63	0.8268
3714.64	0.8284
3723.66	0.8314
3732.67	0.8346
3741.69	0.8369
3750.71	0.839
3759.72	0.8403
3768.74	0.8425
3777.76	0.8438
3786.77	0.8448
3795.79	0.8448
3804.81	0.8443
3813.82	0.8438
3822.84	0.8426
3831.85	0.8401
3840.87	0.8362
3849.89	0.8338
3858.9	0.8332
3867.92	0.8334
3876.94	0.8338
3885.95	0.834
3894.97	0.8335
3903.99	0.8328
