Infrared Spectrum: .alpha.-Angelic lactone
Formula: C 5 H 6 O 2
CAS: 591-12-8
State: gas
Instrument: HP-GC/MS/IRD
Origin: NIST Mass Spectrometry Data Center
1/CM	ABSORBANCE
550	5.3e-05
562	1.06e-05
574	0.0006254
586	0.0023108
598	0.001908
610	0.0008268
622	3.18e-05
634	1.06e-05
646	0.0001272
658	0.000212
670	0.0004558
682	0.0010494
694	0.0018868
706	0.0036252
718	0.0052258
730	0.0108544
742	0.0055862
754	0.0029786
766	0.0010176
778	0.0009752
790	0.0019504
802	0.003763
814	0.0094976
826	0.0127306
838	0.012137
850	0.0044202
862	0.0031694
874	0.0033178
886	0.0031694
898	0.004346
910	0.010759
922	0.0271466
934	0.0327646
946	0.0251644
958	0.0118402
970	0.0113208
982	0.0099534
994	0.0038266
1006	0.002491
1018	0.0025228
1030	0.002544
1042	0.0029256
1054	0.0054272
1066	0.0140344
1078	0.0272526
1090	0.0379692
1102	0.0355524
1114	0.0220798
1126	0.0126034
1138	0.008798
1150	0.0074624
1162	0.0097096
1174	0.0155608
1186	0.0161332
1198	0.0118932
1210	0.0045262
1222	0.003339
1234	0.0041022
1246	0.0076108
1258	0.0116494
1270	0.0129002
1282	0.0104304
1294	0.0090842
1306	0.0079288
1318	0.0047912
1330	0.0029892
1342	0.0017384
1354	0.0013568
1366	0.0016748
1378	0.004399
1390	0.0056392
1402	0.005724
1414	0.0032542
1426	0.0034874
1438	0.0043036
1450	0.0038902
1462	0.0035086
1474	0.0018974
1486	0.0008692
1498	0.0004876
1510	0.000424
1522	0.000477
1534	0.0005194
1546	0.0006678
1558	0.0009328
1570	0.0009116
1582	0.0008056
1594	0.0008056
1606	0.001113
1618	0.0015052
1630	0.0021836
1642	0.0036252
1654	0.006413
1666	0.0092538
1678	0.0096248
1690	0.0072822
1702	0.003498
1714	0.0022472
1726	0.0018762
1738	0.0022154
1750	0.002756
1762	0.0039538
1774	0.006837
1786	0.0137376
1798	0.027083
1810	0.0554486
1822	0.099746
1834	0.105067
1846	0.0687728
1858	0.0234048
1870	0.0104834
1882	0.0043142
1894	0.0021624
1906	0.0014734
1918	0.001113
1930	0.0008268
1942	0.0007102
1954	0.0007314
1966	0.0008374
1978	0.001007
1990	0.0012402
2002	0.0015688
2014	0.0018656
2026	0.0017066
2038	0.001166
2050	0.0005936
2062	0.0004134
2074	0.0003498
2086	0.0003074
2098	0.0003074
2110	0.000265
2122	0.000212
2134	0.0002332
2146	0.0003498
2158	0.0005194
2170	0.0006784
2182	0.0007314
2194	0.0006466
2206	0.00053
2218	0.0004452
2230	0.0003922
2242	0.0002968
2254	0.0002332
2266	0.0002438
2278	0.0001802
2290	0.0001908
2302	0.0002544
2314	0.000371
2326	0.0004876
2338	0.0004982
2350	0.0004558
2362	0.0006254
2374	0.0004982
2386	0.000212
2398	0.0001378
2410	0.0001484
2422	0.0001272
2434	0.000106
2446	6.36e-05
2458	7.42e-05
2470	5.3e-05
2482	7.42e-05
2494	4.24e-05
2506	2.12e-05
2518	2.12e-05
2530	1.06e-05
2542	3.18e-05
2554	4.24e-05
2566	8.48e-05
2578	8.48e-05
2590	4.24e-05
2602	3.18e-05
2614	2.12e-05
2626	2.12e-05
2638	6.36e-05
2650	4.24e-05
2662	7.42e-05
2674	8.48e-05
2686	4.24e-05
2698	1.06e-05
2710	0
2722	0
2734	4.24e-05
2746	0.000106
2758	0.0001696
2770	0.0001378
2782	0.0001802
2794	0.0003392
2806	0.0004028
2818	0.0004134
2830	0.0003286
2842	0.0003922
2854	0.0005936
2866	0.0008056
2878	0.0010812
2890	0.0012402
2902	0.0013886
2914	0.0025016
2926	0.0050244
2938	0.0058936
2950	0.005035
2962	0.002703
2974	0.003233
2986	0.0033178
2998	0.0031164
3010	0.002279
3022	0.0009752
3034	0.000424
3046	0.0002968
3058	0.000265
3070	0.0003074
3082	0.0003816
3094	0.0006042
3106	0.0010812
3118	0.0010812
3130	0.0007844
3142	0.000318
3154	0.0001696
3166	0.0001166
3178	0.000159
3190	0.0001272
3202	6.36e-05
3214	9.54e-05
3226	9.54e-05
3238	2.12e-05
3250	4.24e-05
3262	5.3e-05
3274	3.18e-05
3286	8.48e-05
3298	8.48e-05
3310	8.48e-05
3322	0.0001484
3334	0.000106
3346	0.000106
3358	0.000106
3370	3.18e-05
3382	4.24e-05
3394	7.42e-05
3406	4.24e-05
3418	7.42e-05
3430	0.000106
3442	0.0001166
3454	0.0001696
3466	0.0001802
3478	0.0001696
3490	0.0001272
3502	0.0001378
3514	0.000159
3526	0.0001696
3538	0.0001908
3550	0.0002014
3562	0.0002756
3574	0.0003604
3586	0.0004134
3598	0.00053
3610	0.0007208
3622	0.00106
3634	0.0016112
3646	0.0017702
3658	0.0014734
3670	0.000795
3682	0.0005512
3694	0.0003922
3706	0.0002968
3718	0.000212
3730	0.000212
3742	0.0002226
3754	0.0002226
3766	0.0002226
3778	0.0001696
3790	0.0001696
3802	0.0001908
3814	0.0001696
3826	0.0001484
3838	0.0001802
