Infrared Spectrum: Isobutyl isothiocyanate
Formula: C 5 H 9 N S
CAS: 591-82-2
State: gas
Origin: EPA-IR VAPOR PHASE LIBRARY
1/CM	ABSORBANCE
549.9	0.03309
559.547	0.02676
569.193	0.0215
578.84	0.01915
588.486	0.01926
598.133	0.02002
607.779	0.01927
617.426	0.01637
627.072	0.01353
636.719	0.01171
646.365	0.01104
656.012	0.01194
665.658	0.01555
675.305	0.02299
684.951	0.03324
694.598	0.04411
704.245	0.05279
713.891	0.05207
723.538	0.04383
733.184	0.02969
742.831	0.01481
752.477	0.00956
762.124	0.0086559
771.77	0.00979
781.417	0.01479
791.063	0.01621
800.71	0.01449
810.356	0.01187
820.003	0.01076
829.649	0.008704
839.296	0.00735
848.943	0.00751
858.589	0.008102
868.236	0.0082697
877.882	0.008734
887.529	0.0123
897.175	0.01516
906.822	0.01537
916.468	0.01989
926.115	0.02534
935.761	0.0288
945.408	0.02581
955.054	0.02009
964.701	0.01271
974.347	0.0090943
983.994	0.007909
993.64	0.00734
1003.29	0.0069
1012.93	0.00661
1022.58	0.0067
1032.23	0.00734
1041.87	0.0086176
1051.52	0.01006
1061.17	0.01082
1070.81	0.01109
1080.46	0.01252
1090.11	0.01462
1099.75	0.01612
1109.4	0.01819
1119.05	0.02132
1128.69	0.02027
1138.34	0.01573
1147.99	0.01379
1157.63	0.016
1167.28	0.02186
1176.92	0.02182
1186.57	0.01559
1196.22	0.01168
1205.86	0.01116
1215.51	0.01206
1225.16	0.01304
1234.8	0.01437
1244.45	0.01721
1254.1	0.02339
1263.74	0.02586
1273.39	0.0277
1283.04	0.04786
1292.68	0.07884
1302.33	0.07869
1311.98	0.04677
1321.62	0.05
1331.27	0.09568
1340.92	0.16845
1350.56	0.18121
1360.21	0.12495
1369.86	0.06328
1379.5	0.06018
1389.15	0.0874
1398.79	0.07903
1408.44	0.03797
1418.09	0.02366
1427.73	0.02487
1437.38	0.04096
1447.03	0.09832
1456.67	0.12935
1466.32	0.10394
1475.97	0.06127
1485.61	0.03826
1495.26	0.02323
1504.91	0.01563
1514.55	0.01157
1524.2	0.0090528
1533.85	0.007572
1543.49	0.00674
1553.14	0.00633
1562.79	0.00639
1572.43	0.00656
1582.08	0.00703
1591.73	0.007478
1601.37	0.007805
1611.02	0.007843
1620.67	0.007737
1630.31	0.007631
1639.96	0.007444
1649.6	0.0073
1659.25	0.00712
1668.9	0.00713
1678.54	0.00714
1688.19	0.00723
1697.84	0.00728
1707.48	0.00721
1717.13	0.00707
1726.78	0.00671
1736.42	0.00646
1746.07	0.0062
1755.72	0.00594
1765.36	0.00587
1775.01	0.00614
1784.66	0.00652
1794.3	0.00675
1803.95	0.00683
1813.6	0.007
1823.24	0.007394
1832.89	0.007982
1842.54	0.0088153
1852.18	0.00979
1861.83	0.01114
1871.47	0.01302
1881.12	0.01547
1890.77	0.0186
1900.41	0.02239
1910.06	0.0275
1919.71	0.03443
1929.35	0.04418
1939	0.05735
1948.65	0.07374
1958.29	0.09416
1967.94	0.12016
1977.59	0.15428
1987.23	0.19936
1996.88	0.26102
2006.53	0.35155
2016.17	0.49026
2025.82	0.69358
2035.47	0.95318
2045.11	1.20536
2054.76	1.37054
2064.41	1.43349
2074.05	1.40855
2083.7	1.23479
2093.35	0.86994
2102.99	0.55474
2112.64	0.40876
2122.28	0.35119
2131.93	0.34217
2141.58	0.35106
2151.22	0.32202
2160.87	0.27772
2170.52	0.2508
2180.16	0.24662
2189.81	0.23587
2199.46	0.20859
2209.1	0.17122
2218.75	0.13062
2228.4	0.0995
2238.04	0.07877
2247.69	0.06572
2257.34	0.05442
2266.98	0.04236
2276.63	0.03185
2286.28	0.02482
2295.92	0.01993
2305.57	0.01661
2315.22	0.01418
2324.86	0.0123
2334.51	0.01079
2344.16	0.00953
2353.8	0.0085736
2363.45	0.008036
2373.09	0.007812
2382.74	0.007966
2392.39	0.008163
2402.03	0.008198
2411.68	0.007781
2421.33	0.00719
2430.97	0.00643
2440.62	0.00597
2450.27	0.0059
2459.91	0.00632
2469.56	0.0069
2479.21	0.007606
2488.85	0.008036
2498.5	0.0084531
2508.15	0.0086908
2517.79	0.0088597
2527.44	0.008873
2537.09	0.0088329
2546.73	0.0090396
2556.38	0.00986
2566.03	0.01118
2575.67	0.01292
2585.32	0.01433
2594.96	0.01447
2604.61	0.01294
2614.26	0.01115
2623.9	0.01019
2633.55	0.00978
2643.2	0.00946
2652.84	0.0089648
2662.49	0.0087369
2672.14	0.0087874
2681.78	0.0090823
2691.43	0.0093086
2701.08	0.009295
2710.72	0.00941
2720.37	0.01064
2730.02	0.01303
2739.66	0.01632
2749.31	0.01962
2758.96	0.0224
2768.6	0.02431
2778.25	0.02507
2787.9	0.02423
2797.54	0.02195
2807.19	0.02004
2816.84	0.01898
2826.48	0.01903
2836.13	0.0204
2845.77	0.02391
2855.42	0.03344
2865.07	0.06005
2874.71	0.10811
2884.36	0.13297
2894.01	0.12947
2903.65	0.12033
2913.3	0.124
2922.95	0.15125
2932.59	0.20929
2942.24	0.2499
2951.89	0.25078
2961.53	0.26832
2971.18	0.33623
2980.83	0.29161
2990.47	0.14855
3000.12	0.0483
3009.77	0.02412
3019.41	0.01557
3029.06	0.0101
3038.71	0.00639
3048.35	0.00511
3058	0.00471
3067.64	0.00479
3077.29	0.00527
3086.94	0.00553
3096.58	0.00562
3106.23	0.00522
3115.88	0.00445
3125.52	0.0037
3135.17	0.00338
3144.82	0.0031
3154.46	0.00321
3164.11	0.00346
3173.76	0.00348
3183.4	0.00349
3193.05	0.00332
3202.7	0.00277
3212.34	0.00202
3221.99	0.00126
3231.64	0.00066
3241.28	0.00045
3250.93	0.00014
3260.58	0.00012
3270.22	0.00022
3279.87	0.00026
3289.52	0.00047
3299.16	0.00091
3308.81	0.00127
3318.45	0.00142
3328.1	0.00125
3337.75	0.00117
3347.39	0.00133
3357.04	0.00141
3366.69	0.00153
3376.33	0.00161
3385.98	0.00173
3395.63	0.00169
3405.27	0.00156
3414.92	0.00143
3424.57	0.00151
3434.21	0.00153
3443.86	0.00149
3453.51	0.00144
3463.15	0.00168
3472.8	0.00172
3482.45	0.00194
3492.09	0.00186
3501.74	0.002
3511.39	0.00206
3521.03	0.00228
3530.68	0.00223
3540.33	0.00226
3549.97	0.00245
3559.62	0.00249
3569.26	0.00261
3578.91	0.00261
3588.56	0.00261
3598.2	0.00291
3607.85	0.00289
3617.5	0.00289
3627.14	0.00308
3636.79	0.00318
3646.44	0.0031
3656.08	0.00317
3665.73	0.00335
3675.38	0.00339
3685.02	0.00339
3694.67	0.00339
3704.32	0.00328
3713.96	0.00338
3723.61	0.00337
3733.26	0.00353
3742.9	0.00364
3752.55	0.00376
3762.2	0.00389
3771.84	0.00396
3781.49	0.00413
3791.13	0.00428
3800.78	0.00453
3810.43	0.00459
3820.07	0.00471
3829.72	0.00487
3839.37	0.005
3849.01	0.00501
3858.66	0.00484
3868.31	0.00493
3877.95	0.00487
3887.6	0.00503
3897.25	0.00508
3906.89	0.00506
3916.54	0.00517
3926.19	0.00532
3935.83	0.00545
3945.48	0.00557
3955.13	0.00573
3964.77	0.00596
3974.42	0.0062
3984.07	0.00647
3993.71	0.00674
