Infrared Spectrum: 1,4,5,8,9,10-Hexahydroanthracene
Formula: C 14 H 16
CAS: 5910-28-1
State: gas
Instrument: HP-GC/MS/IRD
Origin: NIST Mass Spectrometry Data Center
1/CM	ABSORBANCE
550	0.0004811
562	0.0001275
574	0.0002278
586	0.0003349
598	0.0003587
610	0.0005117
622	0.0006443
634	0.0008415
646	0.0028577
658	0.0068051
670	0.0050167
682	0.0013447
694	0.0003706
706	0.0003689
718	0.0002346
730	0.0003315
742	0.0003315
754	0.0003213
766	0.0001598
778	0.0001207
790	2.72e-05
802	0.0001156
814	0.0002295
826	0.0002057
838	0.000544
850	0.0007905
862	0.0004437
874	0.00017
886	0.0001088
898	5.1e-05
910	1.87e-05
922	0.0001139
934	0.0001122
946	0.000289
958	0.0009537
970	0.0026996
982	0.0030651
994	0.001836
1006	0.0004913
1018	0.0003026
1030	0.0002584
1042	0.0001462
1054	0.0001564
1066	8.67e-05
1078	8.5e-06
1090	0.000102
1102	0.000374
1114	0.000731
1126	0.000255
1138	0.0001598
1150	0.0001258
1162	0.0001003
1174	0.0002193
1186	0.0001666
1198	0.000153
1210	7.82e-05
1222	0.0001037
1234	0.000136
1246	0.0001615
1258	0.0001615
1270	0.0001156
1282	0.0001173
1294	0.0001207
1306	0.0001921
1318	0.0003332
1330	0.0004437
1342	0.0004437
1354	0.0001768
1366	0.0001258
1378	0.0001173
1390	0.000238
1402	0.0002244
1414	0.0002499
1426	0.0012138
1438	0.0017799
1450	0.0005508
1462	0.0001037
1474	6.29e-05
1486	0.0001173
1498	0.0001479
1510	0.0001156
1522	6.46e-05
1534	3.91e-05
1546	2.72e-05
1558	3.91e-05
1570	9.35e-05
1582	0.0001394
1594	0.0001853
1606	0.0002329
1618	0.0003638
1630	0.0005797
1642	0.0008602
1654	0.0012903
1666	0.0006834
1678	0.0004998
1690	0.0007225
1702	0.0004726
1714	0.0001241
1726	0.0001122
1738	9.86e-05
1750	9.86e-05
1762	6.97e-05
1774	7.82e-05
1786	6.63e-05
1798	4.42e-05
1810	3.57e-05
1822	5.1e-05
1834	6.97e-05
1846	9.01e-05
1858	0.0001037
1870	0.0001462
1882	9.18e-05
1894	6.97e-05
1906	7.99e-05
1918	6.97e-05
1930	0.0001598
1942	0.0001734
1954	4.42e-05
1966	3.23e-05
1978	1.36e-05
1990	1.02e-05
2002	2.21e-05
2014	2.72e-05
2026	2.38e-05
2038	3.4e-06
2050	4.25e-05
2062	1.02e-05
2074	2.04e-05
2086	1.53e-05
2098	4.08e-05
2110	3.23e-05
2122	4.59e-05
2134	3.23e-05
2146	2.38e-05
2158	5.27e-05
2170	3.57e-05
2182	5.78e-05
2194	5.1e-06
2206	1.7e-05
2218	1.7e-06
2230	6.8e-06
2242	2.72e-05
2254	4.59e-05
2266	3.91e-05
2278	3.91e-05
2290	4.42e-05
2302	4.42e-05
2314	2.89e-05
2326	5.1e-05
2338	6.29e-05
2350	0.0001037
2362	9.01e-05
2374	6.12e-05
2386	4.93e-05
2398	3.4e-05
2410	1.7e-05
2422	3.74e-05
2434	1.19e-05
2446	1.7e-05
2458	2.21e-05
2470	4.08e-05
2482	8.5e-06
2494	5.95e-05
2506	4.93e-05
2518	7.14e-05
2530	0.000102
2542	0.0001037
2554	0.000102
2566	9.18e-05
2578	0.0001156
2590	0.0001207
2602	0.0001377
2614	0.0001411
2626	0.0001581
2638	0.0002108
2650	0.0003689
2662	0.0004947
2674	0.0004216
2686	0.0003604
2698	0.0005117
2710	0.0007803
2722	0.000901
2734	0.0009214
2746	0.0008211
2758	0.000816
2770	0.0010353
2782	0.0014875
2794	0.0024548
2806	0.0062084
2818	0.0140029
2830	0.0165818
2842	0.0136017
2854	0.0154802
2866	0.0136612
2878	0.0128316
2890	0.0116093
2902	0.0043843
2914	0.0014263
2926	0.0007667
2938	0.0008806
2950	0.0011628
2962	0.001343
2974	0.0017782
2986	0.0019533
2998	0.0012512
3010	0.0010166
3022	0.0028016
3034	0.0153068
3046	0.0083062
3058	0.0013651
3070	0.001071
3082	0.0008381
3094	0.0004743
3106	0.0003009
3118	0.0002771
3130	0.0002856
3142	0.0002125
3154	0.0001122
3166	7.99e-05
3178	5.61e-05
3190	1.87e-05
3202	6.29e-05
3214	4.59e-05
3226	4.93e-05
3238	0.0001326
3250	0.000204
3262	0.0001054
3274	5.78e-05
3286	7.48e-05
3298	0.000102
3310	7.31e-05
3322	9.18e-05
3334	9.01e-05
3346	9.86e-05
3358	7.82e-05
3370	0.0001122
3382	8.33e-05
3394	7.82e-05
3406	6.12e-05
3418	5.61e-05
3430	3.91e-05
3442	7.31e-05
3454	0.0001003
3466	8.33e-05
3478	8.33e-05
3490	9.69e-05
3502	0.0001139
3514	9.18e-05
3526	8.16e-05
3538	0.0001156
3550	0.0001122
3562	0.0001122
3574	6.97e-05
3586	0.0001054
3598	0.0001309
3610	0.0001088
3622	9.35e-05
3634	0.0001207
3646	0.0001224
3658	0.0001054
3670	0.000102
3682	0.0001513
3694	0.0001207
3706	0.0001513
3718	0.0001241
3730	0.0001105
3742	0.0001496
3754	0.0001207
3766	0.0001649
3778	0.000187
3790	0.0001768
3802	0.0001904
3814	0.0001989
3826	0.0002108
3838	0.0001853
