Infrared Spectrum: 2,3-Dimethylpyrazine
Formula: C 6 H 8 N 2
CAS: 5910-89-4
State: gas
Instrument: HP-GC/MS/IRD
Origin: NIST Mass Spectrometry Data Center
1/CM	ABSORBANCE
550	0.00011
562	7.2e-05
574	0.000166
586	0.000134
598	0.00016
610	0.000129
622	1.1e-05
634	0.000116
646	0.000115
658	6.2e-05
670	5e-05
682	9.4e-05
694	0.000289
706	0.000509
718	0.000522
730	0.000262
742	0.000142
754	9.4e-05
766	3.3e-05
778	0.000133
790	8.5e-05
802	0.000162
814	0.000368
826	0.001057
838	0.001923
850	0.001671
862	0.001079
874	0.000603
886	0.000568
898	0.0004
910	0.00023
922	0.000252
934	0.000478
946	0.001138
958	0.00227
970	0.002978
982	0.002586
994	0.001682
1006	0.001153
1018	0.001113
1030	0.000923
1042	0.000757
1054	0.000638
1066	0.000521
1078	0.000556
1090	0.000453
1102	0.00053
1114	0.000636
1126	0.000686
1138	0.001681
1150	0.004164
1162	0.006021
1174	0.005077
1186	0.002691
1198	0.000923
1210	0.000679
1222	0.000594
1234	0.000872
1246	0.000894
1258	0.000637
1270	0.000334
1282	0.000306
1294	0.000366
1306	0.000383
1318	0.000374
1330	0.0004
1342	0.000525
1354	0.000844
1366	0.001747
1378	0.003349
1390	0.007426
1402	0.009761
1414	0.009452
1426	0.006299
1438	0.004772
1450	0.003179
1462	0.002537
1474	0.001887
1486	0.001183
1498	0.000924
1510	0.000913
1522	0.001192
1534	0.001537
1546	0.001472
1558	0.001003
1570	0.000829
1582	0.000733
1594	0.000559
1606	0.000386
1618	0.000265
1630	0.000197
1642	0.000201
1654	0.000246
1666	0.000313
1678	0.000373
1690	0.000327
1702	0.000233
1714	0.000126
1726	9.9e-05
1738	9.1e-05
1750	0.000125
1762	0.00012
1774	0.000188
1786	0.000293
1798	0.000266
1810	0.000196
1822	0.000121
1834	7.7e-05
1846	5.9e-05
1858	6.5e-05
1870	0.000113
1882	0.000112
1894	0.000219
1906	0.000326
1918	0.000343
1930	0.000184
1942	9.3e-05
1954	9e-05
1966	8.2e-05
1978	6.9e-05
1990	6.8e-05
2002	7e-05
2014	5.8e-05
2026	3.5e-05
2038	5.4e-05
2050	6.6e-05
2062	6e-05
2074	7e-05
2086	8.9e-05
2098	0.000135
2110	0.000145
2122	0.000173
2134	0.00013
2146	0.000121
2158	7.8e-05
2170	3.9e-05
2182	4.5e-05
2194	2.8e-05
2206	7e-06
2218	1.7e-05
2230	3.3e-05
2242	7.4e-05
2254	0.000107
2266	8.7e-05
2278	4.8e-05
2290	5.4e-05
2302	4.6e-05
2314	7.6e-05
2326	8.9e-05
2338	6e-05
2350	5.9e-05
2362	5.9e-05
2374	5.7e-05
2386	5.9e-05
2398	7.3e-05
2410	6.4e-05
2422	4.7e-05
2434	4.4e-05
2446	3.6e-05
2458	5.3e-05
2470	6.5e-05
2482	5.6e-05
2494	4.8e-05
2506	3.1e-05
2518	6.4e-05
2530	0.000102
2542	8.5e-05
2554	8.8e-05
2566	5.7e-05
2578	4.5e-05
2590	3.5e-05
2602	4.6e-05
2614	8.9e-05
2626	8.6e-05
2638	3.3e-05
2650	1.4e-05
2662	2.1e-05
2674	1.1e-05
2686	4.6e-05
2698	3.1e-05
2710	7.1e-05
2722	0.000137
2734	0.000138
2746	0.000158
2758	8.7e-05
2770	0.000148
2782	0.000164
2794	0.000179
2806	0.000247
2818	0.000262
2830	0.000328
2842	0.000523
2854	0.000703
2866	0.000906
2878	0.001182
2890	0.00123
2902	0.001279
2914	0.001809
2926	0.003205
2938	0.00401
2950	0.003567
2962	0.002726
2974	0.001888
2986	0.001573
2998	0.001609
3010	0.001621
3022	0.001623
3034	0.002528
3046	0.005251
3058	0.005927
3070	0.004008
3082	0.001645
3094	0.001135
3106	0.000804
3118	0.000657
3130	0.00043
3142	0.000253
3154	0.000226
3166	0.00017
3178	0.000163
3190	9.6e-05
3202	5.7e-05
3214	3.8e-05
3226	8.7e-05
3238	0.000102
3250	6.6e-05
3262	1.6e-05
3274	5.9e-05
3286	1.4e-05
3298	4.3e-05
3310	8.6e-05
3322	9.1e-05
3334	4.2e-05
3346	7.6e-05
3358	0.000113
3370	3.4e-05
3382	2.7e-05
3394	7e-06
3406	3.3e-05
3418	3e-06
3430	1.6e-05
3442	3.1e-05
3454	4.4e-05
3466	8.4e-05
3478	5.6e-05
3490	3.9e-05
3502	1.9e-05
3514	0.000128
3526	4.1e-05
3538	3.6e-05
3550	5e-05
3562	4.2e-05
3574	9.7e-05
3586	6.7e-05
3598	9.1e-05
3610	7e-05
3622	8.7e-05
3634	7.4e-05
3646	6.2e-05
3658	4.9e-05
3670	8.8e-05
3682	7.2e-05
3694	5.3e-05
3706	5.3e-05
3718	5.5e-05
3730	9.4e-05
3742	0.000132
3754	4.3e-05
3766	1.1e-05
3778	0.000104
3790	3.9e-05
3802	3e-05
3814	7.6e-05
3826	7.2e-05
3838	9.2e-05
