Infrared Spectrum: 3-Methylnonane
Formula: C 10 H 22
CAS: 5911-04-6
State: gas
Instrument: HP-GC/MS/IRD
Origin: NIST Mass Spectrometry Data Center
1/CM	ABSORBANCE
550	0.000444
562	0.000177
574	7.2e-05
586	3.6e-05
598	0.000132
610	0.000291
622	0.000219
634	0.000204
646	0.000288
658	0.000315
670	0.000297
682	0.000258
694	0.000372
706	0.00045
718	0.00048
730	0.000549
742	0.000489
754	0.000528
766	0.000633
778	0.00054
790	0.000492
802	0.000399
814	0.000396
826	0.000309
838	0.000369
850	0.000384
862	0.000318
874	0.000354
886	0.000312
898	0.000354
910	0.00036
922	0.000393
934	0.000348
946	0.00036
958	0.00045
970	0.000573
982	0.000564
994	0.000522
1006	0.000522
1018	0.00048
1030	0.000378
1042	0.000285
1054	0.000345
1066	0.00039
1078	0.000357
1090	0.000378
1102	0.000345
1114	0.000348
1126	0.000354
1138	0.000423
1150	0.000516
1162	0.000447
1174	0.000312
1186	0.000294
1198	0.00033
1210	0.000321
1222	0.000306
1234	0.000309
1246	0.00036
1258	0.000432
1270	0.000489
1282	0.000513
1294	0.0006
1306	0.000654
1318	0.000612
1330	0.000726
1342	0.000867
1354	0.001065
1366	0.001338
1378	0.002037
1390	0.001794
1402	0.000879
1414	0.000693
1426	0.000789
1438	0.001248
1450	0.002433
1462	0.003663
1474	0.002766
1486	0.001302
1498	0.000717
1510	0.000351
1522	0.00033
1534	0.000306
1546	0.000216
1558	0.000258
1570	0.000273
1582	0.000243
1594	0.000213
1606	0.000198
1618	0.00018
1630	0.000198
1642	0.00015
1654	0.000153
1666	0.000144
1678	6.9e-05
1690	0.000111
1702	8.7e-05
1714	4.2e-05
1726	6.9e-05
1738	6.6e-05
1750	1.2e-05
1762	3.9e-05
1774	5.7e-05
1786	1.2e-05
1798	3e-05
1810	4.8e-05
1822	3.3e-05
1834	5.7e-05
1846	1.8e-05
1858	2.4e-05
1870	2.4e-05
1882	4.8e-05
1894	5.4e-05
1906	3.3e-05
1918	1.8e-05
1930	4.5e-05
1942	2.4e-05
1954	2.4e-05
1966	1.2e-05
1978	3e-05
1990	2.4e-05
2002	5.1e-05
2014	3.3e-05
2026	4.5e-05
2038	4.8e-05
2050	6e-05
2062	4.8e-05
2074	4.8e-05
2086	3e-05
2098	5.7e-05
2110	1.8e-05
2122	3.9e-05
2134	3.3e-05
2146	2.7e-05
2158	3.6e-05
2170	4.5e-05
2182	3e-05
2194	3.6e-05
2206	3.9e-05
2218	5.1e-05
2230	5.1e-05
2242	3e-05
2254	3.9e-05
2266	3.6e-05
2278	2.4e-05
2290	4.8e-05
2302	6e-06
2314	2.4e-05
2326	3.3e-05
2338	4.8e-05
2350	5.4e-05
2362	6e-05
2374	4.8e-05
2386	5.1e-05
2398	8.1e-05
2410	7.2e-05
2422	7.5e-05
2434	7.8e-05
2446	7.2e-05
2458	5.4e-05
2470	6.6e-05
2482	3.9e-05
2494	7.2e-05
2506	9e-05
2518	0.000114
2530	0.000147
2542	0.000141
2554	0.000159
2566	0.000183
2578	0.000186
2590	0.000255
2602	0.000279
2614	0.000273
2626	0.000279
2638	0.000303
2650	0.000339
2662	0.00039
2674	0.000405
2686	0.000417
2698	0.000432
2710	0.000468
2722	0.000495
2734	0.000582
2746	0.000633
2758	0.000621
2770	0.000654
2782	0.000777
2794	0.000975
2806	0.00123
2818	0.001644
2830	0.002319
2842	0.003921
2854	0.008064
2866	0.012165
2878	0.013326
2890	0.0123
2902	0.012795
2914	0.019071
2926	0.028095
2938	0.028677
2950	0.021222
2962	0.023142
2974	0.020406
2986	0.008097
2998	0.003717
3010	0.002313
3022	0.001668
3034	0.001314
3046	0.001083
3058	0.000939
3070	0.000837
3082	0.000723
3094	0.00069
3106	0.000558
3118	0.000552
3130	0.000453
3142	0.000423
3154	0.00042
3166	0.000435
3178	0.000399
3190	0.000333
3202	0.000273
3214	0.000255
3226	0.000198
3238	0.000183
3250	0.000186
3262	0.000183
3274	0.000141
3286	0.000186
3298	0.00012
3310	0.000111
3322	0.00015
3334	0.000144
3346	0.000156
3358	0.000174
3370	0.000132
3382	0.000162
3394	0.000174
3406	0.000144
3418	0.000132
3430	0.000162
3442	0.000117
3454	0.000102
3466	5.4e-05
3478	4.5e-05
3490	0.000105
3502	6.6e-05
3514	0.000123
3526	6.3e-05
3538	7.5e-05
3550	5.1e-05
3562	6.6e-05
3574	6e-05
3586	1.5e-05
3598	8.1e-05
3610	5.1e-05
3622	0.000144
3634	8.7e-05
3646	0.00012
3658	0.000141
3670	0.00015
3682	0.000138
3694	0.000162
3706	0.000138
3718	0.000117
3730	0.000165
3742	0.000126
3754	0.000177
3766	0.000132
3778	0.000171
3790	0.000141
3802	0.000258
3814	0.00018
3826	0.000183
3838	0.000213
