Infrared Spectrum: 1-Methylcyclooctanol
Formula: C 9 H 18 O
CAS: 59123-41-0
State: gas
Instrument: HP-GC/MS/IRD
Origin: NIST Mass Spectrometry Data Center
1/CM	ABSORBANCE
550	0.000135
562	9e-05
574	0.000195
586	0.00013
598	0.00014
610	9e-05
622	0.00012
634	0.000145
646	0.00012
658	0.000165
670	0.000245
682	0.00028
694	0.000185
706	0.00022
718	0.000215
730	0.000305
742	0.00062
754	0.000675
766	0.000585
778	0.000665
790	0.000765
802	0.000765
814	0.000615
826	0.000795
838	0.000935
850	0.00117
862	0.001415
874	0.001795
886	0.002545
898	0.00234
910	0.001575
922	0.00168
934	0.002035
946	0.00189
958	0.001385
970	0.00105
982	0.00119
994	0.001655
1006	0.00218
1018	0.002375
1030	0.00224
1042	0.001885
1054	0.00144
1066	0.00165
1078	0.002505
1090	0.003475
1102	0.00412
1114	0.00425
1126	0.00443
1138	0.004695
1150	0.00436
1162	0.00341
1174	0.00228
1186	0.00187
1198	0.00197
1210	0.002195
1222	0.00262
1234	0.00296
1246	0.00265
1258	0.0023
1270	0.00213
1282	0.002035
1294	0.001945
1306	0.001835
1318	0.001935
1330	0.00197
1342	0.002085
1354	0.00247
1366	0.00363
1378	0.004035
1390	0.002345
1402	0.00117
1414	0.001045
1426	0.00155
1438	0.00353
1450	0.00559
1462	0.00547
1474	0.00471
1486	0.002835
1498	0.001155
1510	0.00066
1522	0.00044
1534	0.000295
1546	0.00027
1558	0.00025
1570	0.000105
1582	9e-05
1594	9e-05
1606	0.000105
1618	0.000145
1630	0.00014
1642	0.00014
1654	0.000175
1666	9e-05
1678	0.00011
1690	9.5e-05
1702	0.000115
1714	0.00011
1726	4.5e-05
1738	0.0001
1750	0.000125
1762	7e-05
1774	6.5e-05
1786	8.5e-05
1798	7e-05
1810	2.5e-05
1822	5e-05
1834	4.5e-05
1846	6.5e-05
1858	1.5e-05
1870	5e-05
1882	1.5e-05
1894	1.5e-05
1906	1.5e-05
1918	3.5e-05
1930	3e-05
1942	3e-05
1954	2e-05
1966	2.5e-05
1978	1.5e-05
1990	2e-05
2002	1e-05
2014	1e-05
2026	0
2038	1.5e-05
2050	1.5e-05
2062	1.5e-05
2074	1.5e-05
2086	2e-05
2098	3.5e-05
2110	4.5e-05
2122	5e-05
2134	5e-05
2146	3e-05
2158	3e-05
2170	4.5e-05
2182	5.5e-05
2194	5.5e-05
2206	7.5e-05
2218	7e-05
2230	6.5e-05
2242	8e-05
2254	9.5e-05
2266	8e-05
2278	7e-05
2290	7e-05
2302	7e-05
2314	8.5e-05
2326	7e-05
2338	5e-05
2350	8e-05
2362	7e-05
2374	9e-05
2386	0.0001
2398	0.000105
2410	9.5e-05
2422	8e-05
2434	9.5e-05
2446	8e-05
2458	0.000115
2470	0.000105
2482	0.000105
2494	0.000125
2506	0.000125
2518	0.00013
2530	0.000135
2542	0.00016
2554	0.00018
2566	0.000185
2578	0.000225
2590	0.000225
2602	0.00027
2614	0.000285
2626	0.000325
2638	0.00032
2650	0.00039
2662	0.000515
2674	0.00064
2686	0.0008
2698	0.000885
2710	0.000835
2722	0.000695
2734	0.000605
2746	0.00059
2758	0.00058
2770	0.00061
2782	0.00078
2794	0.001005
2806	0.001295
2818	0.0016
2830	0.002155
2842	0.00421
2854	0.009675
2866	0.012895
2878	0.011745
2890	0.01166
2902	0.01649
2914	0.029495
2926	0.047685
2938	0.04437
2950	0.0254
2962	0.01689
2974	0.01371
2986	0.007345
2998	0.00273
3010	0.00134
3022	0.00092
3034	0.000705
3046	0.000585
3058	0.00054
3070	0.00047
3082	0.00043
3094	0.000405
3106	0.000385
3118	0.00034
3130	0.000305
3142	0.000305
3154	0.000265
3166	0.0003
3178	0.000295
3190	0.000255
3202	0.00026
3214	0.000215
3226	0.00018
3238	0.00017
3250	0.00017
3262	0.000115
3274	0.00012
3286	0.000135
3298	0.00012
3310	0.000135
3322	0.00012
3334	0.00012
3346	0.000135
3358	0.000125
3370	0.000155
3382	0.00016
3394	0.00019
3406	0.00015
3418	0.000195
3430	0.00014
3442	0.00012
3454	0.00011
3466	0.00013
3478	9e-05
3490	0.00012
3502	8.5e-05
3514	5.5e-05
3526	0.0001
3538	6.5e-05
3550	7.5e-05
3562	8.5e-05
3574	5e-05
3586	0.000185
3598	0.000155
3610	0.000265
3622	0.000725
3634	0.001555
3646	0.001235
3658	0.00041
3670	0.000245
3682	0.000155
3694	0.00016
3706	0.00011
3718	0.000115
3730	0.00015
3742	0.00022
3754	0.000145
3766	0.000125
3778	0.000135
3790	0.000135
3802	0.000205
3814	0.00016
3826	0.00018
3838	0.00022
