Infrared Spectrum: BIS-(M,M'-NITROBENZIL)
Formula: C14 H8 N2 O6
CAS: 5913-06-4
State: SOLID (1.0% IN KBr PELLET)
Class: COBLENTZ
Instrument: Not specified, most likely a prism, grating, or hybrid spectrometer.
Sampling: TRANSMISSION
Path length: 0.0355 CM THICK
Resolution: 4
Origin: ANDERSON PHYSICAL LABORATORY
1/CM	TRANSMITTANCE
671.963	0.744
680.374	0.6711
688.785	0.548
697.197	0.1922
705.608	0.042
714.019	0.4978
722.43	0.632
730.842	0.92
739.253	0.794
747.664	0.623
756.075	0.953
764.486	0.8372
772.898	0.8187
781.309	0.8731
789.72	0.939
798.131	0.921
806.543	0.8881
814.954	0.427
823.365	0.7219
831.776	0.918
840.187	0.788
848.599	0.372
857.01	0.9479
865.421	0.951
873.832	0.945
882.244	0.8121
890.655	0.899
899.066	0.6022
907.477	0.4
915.888	0.779
924.3	0.406
932.711	0.8599
941.122	0.8689
949.533	0.918
957.945	0.92
966.356	0.953
974.767	0.956
983.178	0.95
991.589	0.927
1000	0.846
1008.41	0.84
1016.82	0.921
1025.23	0.917
1033.65	0.915
1042.06	0.914
1050.47	0.884
1058.88	0.885
1067.29	0.864
1075.7	0.798
1084.11	0.78
1092.52	0.651
1100.94	0.484
1109.35	0.5669
1117.76	0.756
1126.17	0.846
1134.58	0.869
1142.99	0.864
1151.4	0.851
1159.81	0.843
1168.23	0.792
1176.64	0.698
1185.05	0.704
1193.46	0.6601
1201.87	0.4391
1210.28	0.1871
1218.69	0.1439
1227.1	0.5779
1235.51	0.71
1243.93	0.813
1252.34	0.863
1260.75	0.863
1269.16	0.8061
1277.57	0.6481
1285.98	0.693
1294.39	0.5302
1302.8	0.6468
1311.22	0.6001
1319.63	0.355
1328.04	0.253
1336.45	0.387
1344.86	0.237
1353.27	0.031
1361.68	0.0958
1370.09	0.5358
1378.51	0.7319
1386.92	0.849
1395.33	0.864
1403.74	0.89
1412.15	0.878
1420.56	0.858
1428.97	0.851
1437.38	0.7221
1445.8	0.7949
1454.21	0.822
1462.62	0.804
1471.03	0.738
1479.44	0.617
1487.85	0.647
1496.26	0.716
1504.67	0.696
1513.09	0.636
1521.5	0.4831
1529.91	0.2022
1538.32	0.046
1546.73	0.1269
1555.14	0.4899
1563.55	0.659
1571.96	0.728
1580.38	0.645
1588.79	0.641
1597.2	0.591
1605.61	0.3692
1614.02	0.1091
1622.43	0.4018
1630.84	0.7229
1639.25	0.744
1647.66	0.744
1656.08	0.693
1664.49	0.506
1672.9	0.24
1681.31	0.064
1689.72	0.2978
1698.13	0.5308
1706.54	0.8029
1714.95	0.864
1723.37	0.917
1731.78	0.926
1740.19	0.941
1748.6	0.941
1757.01	0.945
1765.42	0.941
1773.83	0.933
1782.24	0.944
1790.66	0.956
1799.07	0.95
1807.48	0.938
1815.89	0.953
1824.3	0.959
1832.71	0.969
1841.12	0.968
1849.53	0.969
1857.95	0.966
1866.36	0.965
1874.77	0.969
1883.18	0.959
1891.59	0.954
1900	0.936
1908.41	0.932
1916.82	0.936
1925.24	0.942
1933.65	0.948
1942.06	0.932
1950.47	0.918
1958.88	0.918
1967.29	0.927
1975.7	0.938
1984.11	0.932
1992.52	0.918
2000.94	0.9095
2009.35	0.9115
2017.76	0.923
2026.17	0.933
2034.58	0.933
2042.99	0.932
2051.4	0.9305
2059.81	0.929
2068.23	0.929
2076.64	0.929
2085.05	0.9274
2093.46	0.924
2101.87	0.923
2110.28	0.921
2118.69	0.92
2127.1	0.9179
2135.52	0.9164
2143.93	0.914
2152.34	0.9124
2160.75	0.911
2169.16	0.911
2177.57	0.909
2185.98	0.909
2194.39	0.906
2202.81	0.9057
2211.22	0.9024
2219.63	0.9
2228.04	0.8999
2236.45	0.8959
2244.86	0.891
2253.27	0.89
2261.68	0.89
2270.1	0.8892
2278.51	0.888
2286.92	0.888
2295.33	0.8879
2303.74	0.8862
2312.15	0.885
2320.56	0.885
2328.97	0.885
2337.39	0.887
2345.8	0.8877
2354.21	0.888
2362.62	0.887
2371.03	0.8861
2379.44	0.8843
2387.85	0.882
2396.26	0.873
2404.67	0.8698
2413.09	0.8646
2421.5	0.8611
2429.91	0.86
2438.32	0.858
2446.73	0.858
2455.14	0.857
2463.55	0.855
2471.96	0.855
2480.38	0.855
2488.79	0.857
2497.2	0.857
2505.61	0.857
2514.02	0.8555
2522.43	0.855
2530.84	0.854
2539.25	0.854
2547.67	0.8525
2556.08	0.852
2564.49	0.851
2572.9	0.8499
2581.31	0.849
2589.72	0.849
2598.13	0.848
2606.54	0.8469
2614.96	0.846
2623.37	0.8429
2631.78	0.836
2640.19	0.8349
2648.6	0.834
2657.01	0.8339
2665.42	0.831
2673.83	0.8288
2682.25	0.828
2690.66	0.8268
2699.07	0.8247
2707.48	0.8228
2715.89	0.8211
2724.3	0.819
2732.71	0.8186
2741.12	0.8154
2749.53	0.813
2757.95	0.8099
2766.36	0.807
2774.77	0.8048
2783.18	0.8031
2791.59	0.8
2800	0.7976
2808.41	0.7944
2816.82	0.792
2825.24	0.789
2833.65	0.7872
2842.06	0.7784
2850.47	0.7561
2858.88	0.7456
2867.29	0.744
2875.7	0.7487
2884.11	0.7519
2892.53	0.7625
2900.94	0.767
2909.35	0.767
2917.76	0.767
2926.17	0.767
2934.58	0.767
2942.99	0.7656
2951.4	0.764
2959.82	0.762
2968.23	0.76
2976.64	0.7565
2985.05	0.755
2993.46	0.753
3001.87	0.7485
3010.28	0.7422
3018.69	0.737
3027.11	0.7297
3035.52	0.717
3043.93	0.7054
3052.34	0.6919
3060.75	0.6761
3069.16	0.6562
3077.57	0.6179
3085.98	0.5506
3094.4	0.5144
3102.81	0.5199
3111.22	0.5496
3119.63	0.5971
3128.04	0.6651
3136.45	0.6902
3144.86	0.7018
3153.27	0.7051
3161.68	0.7073
3170.1	0.7092
3178.51	0.71
3186.92	0.71
3195.33	0.71
3203.74	0.71
3212.15	0.708
3220.56	0.7068
3228.97	0.705
3237.39	0.705
3245.8	0.705
3254.21	0.704
3262.62	0.704
3271.03	0.702
3279.44	0.7011
3287.85	0.6977
3296.26	0.6926
3304.68	0.6851
3313.09	0.6803
3321.5	0.6778
3329.91	0.677
3338.32	0.677
3346.73	0.6779
3355.14	0.6783
3363.55	0.68
3371.97	0.68
3380.38	0.68
3388.79	0.6778
3397.2	0.6727
3405.61	0.6666
3414.02	0.6651
3422.43	0.662
3430.84	0.6611
3439.26	0.6576
3447.67	0.656
3456.08	0.654
3464.49	0.654
3472.9	0.6515
3481.31	0.651
3489.72	0.65
3498.13	0.649
3506.54	0.648
3514.96	0.647
3523.37	0.648
3531.78	0.65
3540.19	0.65
3548.6	0.65
3557.01	0.651
3565.42	0.653
3573.83	0.653
3582.25	0.654
3590.66	0.6546
3599.07	0.656
3607.48	0.657
3615.89	0.659
3624.3	0.66
3632.71	0.6626
3641.12	0.665
3649.54	0.666
3657.95	0.666
3666.36	0.666
3674.77	0.666
3683.18	0.6683
3691.59	0.672
3700	0.672
3708.41	0.671
3716.83	0.671
3725.24	0.671
3733.65	0.671
3742.06	0.671
3750.47	0.671
3758.88	0.671
3767.29	0.671
3775.7	0.6692
3784.12	0.6677
3792.53	0.663
3800.94	0.662
3809.35	0.66
3817.76	0.66
3826.17	0.66
3834.58	0.6593
3842.99	0.6572
3851.41	0.657
3859.82	0.656
3868.23	0.656
3876.64	0.656
3885.05	0.6538
3893.46	0.6521
3901.87	0.6503
3910.28	0.6481
3918.69	0.6418
3927.11	0.6372
3935.52	0.632
3943.93	0.629
3952.34	0.629
3960.75	0.627
3969.16	0.626
3977.57	0.626
