Infrared Spectrum: Tridecane, 2-bromo-
Formula: C13 H27 Br
CAS: 59157-17-4
State: SOLUTION (10% CCl4 FOR 3800-1330, 10% CS2 FOR 1330-460 CM^-^1) VS SOLVENT
Class: COBLENTZ III
Instrument: DOW KBr FOREPRISM-GRATING
Instrument parameters: BLAZED AT 3.5, 12.0, 20.0 MICRON AND CHANGED AT 5.0, 7.5, 14.9 MICRON
Sampling: TRANSMISSION
Path length: 0.011 CM, 0.011 CM
Resolution: 2
Origin: DOW CHEMICAL COMPANY
1/CM	TRANSMITTANCE
458	0.9087
467	0.8919
476	0.8821
485	0.8757
494	0.8691
503	0.8615
512	0.8489
521	0.8298
530	0.7932
539	0.7487
548	0.7343
557	0.8443
566	0.8745
575	0.8761
584	0.8711
593	0.868
602	0.8728
611	0.8332
620	0.7716
629	0.8749
638	0.8993
647	0.9112
656	0.9165
665	0.9214
674	0.9208
683	0.9081
692	0.9058
701	0.8953
710	0.8705
719	0.7684
728	0.7509
737	0.833
746	0.867
755	0.8857
764	0.8962
773	0.9036
782	0.9172
791	0.9127
800	0.9003
809	0.9048
818	0.9022
827	0.9008
836	0.9062
845	0.9106
854	0.9008
863	0.8845
872	0.8717
881	0.8715
890	0.8623
899	0.8575
908	0.8739
917	0.8901
926	0.8961
935	0.8977
944	0.8962
953	0.8838
962	0.8486
971	0.8603
980	0.8657
989	0.8549
998	0.8412
1007	0.8458
1016	0.8672
1025	0.8741
1034	0.8754
1043	0.8758
1052	0.877
1061	0.8767
1070	0.8748
1079	0.8717
1088	0.8709
1097	0.867
1106	0.868
1115	0.8751
1124	0.8506
1133	0.7927
1142	0.7745
1151	0.7827
1160	0.78
1169	0.7964
1178	0.7805
1187	0.7544
1196	0.7314
1205	0.7059
1214	0.7131
1223	0.6984
1232	0.7093
1241	0.7534
1250	0.7436
1259	0.7693
1268	0.7874
1277	0.7731
1286	0.7728
1295	0.758
1304	0.7686
1313	0.7997
1322	0.8176
1331	0.8189
1340	0.8054
1349	0.8001
1358	0.7888
1367	0.7714
1376	0.6588
1385	0.7729
1394	0.8282
1403	0.8311
1412	0.8231
1421	0.7998
1430	0.7015
1439	0.616
1448	0.4934
1457	0.3638
1466	0.3278
1475	0.7291
1484	0.8012
1493	0.8334
1502	0.8502
1511	0.8668
1520	0.8773
1529	0.8817
1538	0.89
1547	0.8988
1556	0.8973
1565	0.8958
1574	0.8877
1583	0.8826
1592	0.8796
1601	0.8768
1610	0.8751
1619	0.8741
1628	0.8747
1637	0.8757
1646	0.8759
1655	0.8748
1664	0.8725
1673	0.8709
1682	0.8699
1691	0.8693
1700	0.8688
1709	0.8684
1718	0.8679
1727	0.8684
1736	0.8694
1745	0.8709
1754	0.8741
1763	0.8779
1772	0.8818
1781	0.8842
1790	0.8852
1799	0.8855
1808	0.8859
1817	0.8862
1826	0.8869
1835	0.8879
1844	0.8888
1853	0.8894
1862	0.8895
1871	0.8897
1880	0.8898
1889	0.8882
1898	0.8863
1907	0.8853
1916	0.8848
1925	0.8852
1934	0.886
1943	0.8865
1952	0.8867
1961	0.8926
1970	0.8863
1979	0.8873
1988	0.8886
1997	0.9098
2006	0.9365
2015	0.9366
2024	0.9368
2033	0.9366
2042	0.936
2051	0.9353
2060	0.9347
2069	0.9341
2078	0.9339
2087	0.9337
2096	0.9336
2105	0.9333
2114	0.9331
2123	0.9328
2132	0.9321
2141	0.9311
2150	0.9301
2159	0.9292
2168	0.9285
2177	0.9277
2186	0.927
2195	0.926
2204	0.925
2213	0.924
2222	0.923
2231	0.9215
2240	0.92
2249	0.9185
2258	0.9164
2267	0.914
2276	0.9116
2285	0.9092
2294	0.9072
2303	0.9055
2312	0.9046
2321	0.9053
2330	0.9095
2339	0.9131
2348	0.9158
2357	0.9144
2366	0.9119
2375	0.9078
2384	0.9045
2393	0.9047
2402	0.9051
2411	0.906
2420	0.9073
2429	0.9081
2438	0.9086
2447	0.909
2456	0.9093
2465	0.9093
2474	0.9091
2483	0.9089
2492	0.908
2501	0.9063
2510	0.9046
2519	0.9029
2528	0.9012
2537	0.8994
2546	0.8977
2555	0.8956
2564	0.8933
2573	0.8909
2582	0.8894
2591	0.888
2600	0.8866
2609	0.8846
2618	0.8822
2627	0.8797
2636	0.8773
2645	0.8739
2654	0.8704
2663	0.867
2672	0.8638
2681	0.8608
2690	0.8608
2699	0.8642
2708	0.8665
2717	0.8636
2726	0.859
2735	0.8482
2744	0.8538
2753	0.8603
2762	0.8611
2771	0.8583
2780	0.8527
2789	0.8446
2798	0.8304
2807	0.8105
2816	0.78
2825	0.7129
2834	0.6035
2843	0.3755
2852	0.1405
2861	0.0326
2870	0.1831
2879	0.3011
2888	0.2723
2897	0.2079
2906	0.1112
2915	0.0562
2924	0.0157
2933	0.0064
2942	0.0099
2951	0.0853
2960	0.0736
2969	0.1051
2978	0.2641
2987	0.445
2996	0.5497
3005	0.7035
3014	0.7716
3023	0.8029
3032	0.8241
3041	0.8408
3050	0.8511
3059	0.8583
3068	0.8636
3077	0.8668
3086	0.8698
3095	0.8723
3104	0.8749
3113	0.8761
3122	0.877
3131	0.8773
3140	0.8777
3149	0.8772
3158	0.878
3167	0.8788
3176	0.8795
3185	0.8794
3194	0.8796
3203	0.8801
3212	0.8823
3221	0.8847
3230	0.8873
3239	0.89
3248	0.8917
3257	0.893
3266	0.8937
3275	0.8941
3284	0.8941
3293	0.8942
3302	0.8936
3311	0.8923
3320	0.891
3329	0.8901
3338	0.8894
3347	0.8887
3356	0.8881
3365	0.8874
3374	0.8941
3383	0.8859
3392	0.8853
3401	0.8845
3410	0.8843
3419	0.8843
3428	0.8842
3437	0.8842
3446	0.8842
3455	0.8842
3464	0.8844
3473	0.8847
3482	0.8849
3491	0.8852
3500	0.8855
3509	0.8857
3518	0.886
3527	0.8862
3536	0.8866
3545	0.8871
3554	0.8877
3563	0.8883
3572	0.8889
3581	0.8894
3590	0.89
3599	0.8902
3608	0.8902
3617	0.8902
3626	0.8902
3635	0.8901
3644	0.8901
3653	0.89
3662	0.8899
3671	0.8896
3680	0.8895
3689	0.8893
3698	0.889
3707	0.8886
3716	0.8882
3725	0.8877
3734	0.8873
3743	0.8868
3752	0.8864
3761	0.8859
3770	0.8857
3779	0.8856
3788	0.8857
3797	0.885
