Infrared Spectrum: N-BUTYL CARBAMATE
Formula: C5 H11 N O2
CAS: 592-35-8
State: SOLID (OIL MULL)
Melting point: 55-57 C
Class: COBLENTZ
Instrument: Not specified, most likely a prism, grating, or hybrid spectrometer.
Sampling: TRANSMISSION
Resolution: 4
Origin: WYANDOTTE CHEMICALS CORP., WYANDOTTE, MICHIGAN, USA
MICROMETERS	TRANSMITTANCE
2.038	0.943
2.07781	0.95
2.11761	0.943
2.15742	0.936
2.19722	0.918
2.23703	0.893
2.27683	0.9
2.31664	0.901
2.35645	0.9
2.39625	0.901
2.43606	0.916
2.47586	0.926
2.51567	0.918
2.55547	0.921
2.59528	0.925
2.63509	0.92
2.67489	0.918
2.7147	0.908
2.7545	0.888
2.79431	0.865
2.83411	0.802
2.87392	0.622
2.91373	0.347
2.95353	0.101
2.99334	0.084
3.03314	0.091
3.07295	0.182
3.11275	0.295
3.15256	0.292
3.19237	0.657
3.23217	0.75
3.27198	0.755
3.31178	0.687
3.35159	0.347
3.39139	0.031
3.4312	0.036
3.47101	0.068
3.51081	0.053
3.55062	0.398
3.59042	0.659
3.63023	0.757
3.67003	0.737
3.70984	0.767
3.74965	0.848
3.78945	0.875
3.82926	0.882
3.86906	0.895
3.90887	0.9
3.94867	0.893
3.98848	0.906
4.02829	0.908
4.06809	0.918
4.1079	0.926
4.1477	0.925
4.18751	0.918
4.22731	0.92
4.26712	0.905
4.30693	0.92
4.34673	0.933
4.38654	0.946
4.42634	0.926
4.46615	0.915
4.50595	0.911
4.54576	0.906
4.58557	0.931
4.62537	0.933
4.66518	0.936
4.70498	0.923
4.74479	0.938
4.78459	0.945
4.8244	0.946
4.86421	0.93
4.90401	0.916
4.94382	0.92
4.98362	0.897
5.02343	0.865
5.06323	0.901
5.10304	0.908
5.14285	0.875
5.18265	0.895
5.22246	0.903
5.26226	0.897
5.30207	0.882
5.34187	0.872
5.38168	0.86
5.42149	0.845
5.46129	0.823
5.5011	0.779
5.5409	0.722
5.58071	0.686
5.62051	0.649
5.66032	0.589
5.70012	0.5
5.73993	0.421
5.77974	0.307
5.81954	0.205
5.85935	0.142
5.89915	0.089
5.93896	0.071
5.97876	0.091
6.01857	0.171
6.05838	0.247
6.09818	0.25
6.13799	0.204
6.17779	0.146
6.2176	0.207
6.2574	0.45
6.29721	0.511
6.33702	0.598
6.37682	0.632
6.41663	0.651
6.45643	0.652
6.49624	0.647
6.53604	0.629
6.57585	0.612
6.61566	0.598
6.65546	0.561
6.69527	0.456
6.73507	0.232
6.77488	0.156
6.81468	0.063
6.85449	0.131
6.8943	0.181
6.9341	0.172
6.97391	0.127
7.01371	0.119
7.05352	0.21
7.09332	0.343
7.13313	0.387
7.17294	0.38
7.21274	0.299
7.25255	0.154
7.29235	0.101
7.33216	0.109
7.37196	0.197
7.41177	0.131
7.45158	0.089
7.49138	0.117
7.53119	0.2
7.57099	0.267
7.6108	0.325
7.6506	0.353
7.69041	0.377
7.73022	0.408
7.77002	0.431
7.80983	0.44
7.84963	0.435
7.88944	0.322
7.92924	0.382
7.96905	0.411
8.00886	0.43
8.04866	0.435
8.08847	0.438
8.12827	0.435
8.16808	0.446
8.20788	0.45
8.24769	0.458
8.2875	0.46
8.3273	0.465
8.36711	0.466
8.40691	0.466
8.44672	0.465
8.48652	0.46
8.52633	0.448
8.56614	0.428
8.60594	0.428
8.64575	0.436
8.68555	0.431
8.72536	0.4
8.76516	0.36
8.80497	0.313
8.84478	0.254
8.88458	0.222
8.92439	0.325
8.96419	0.433
9.004	0.49
9.0438	0.47
9.08361	0.375
9.12342	0.234
9.16322	0.104
9.20303	0.069
9.24283	0.066
9.28264	0.096
9.32244	0.166
9.36225	0.26
9.40206	0.357
9.44186	0.451
9.48167	0.5
9.52147	0.528
9.56128	0.49
9.60108	0.534
9.64089	0.609
9.6807	0.654
9.7205	0.681
9.76031	0.657
9.80011	0.596
9.83992	0.669
9.87972	0.704
9.91953	0.715
9.95934	0.747
9.99914	0.767
10.0389	0.782
10.0788	0.794
10.1186	0.797
10.1584	0.797
10.1982	0.799
10.238	0.794
10.2778	0.792
10.3176	0.799
10.3574	0.799
10.3972	0.797
10.437	0.8
10.4768	0.802
10.5166	0.8
10.5564	0.787
10.5962	0.74
10.636	0.669
10.6758	0.664
10.7156	0.725
10.7554	0.765
10.7953	0.799
10.8351	0.82
10.8749	0.828
10.9147	0.833
10.9545	0.842
10.9943	0.852
11.0341	0.853
11.0739	0.853
11.1137	0.853
11.1535	0.843
11.1933	0.817
11.2331	0.734
11.2729	0.634
11.3127	0.689
11.3525	0.77
11.3923	0.815
11.4321	0.833
11.472	0.845
11.5118	0.852
11.5516	0.853
11.5914	0.86
11.6312	0.855
11.671	0.86
11.7108	0.86
11.7506	0.853
11.7904	0.852
11.8302	0.847
11.87	0.843
11.9098	0.843
11.9496	0.853
11.9894	0.853
12.0292	0.853
12.069	0.848
12.1088	0.842
12.1486	0.842
12.1885	0.843
12.2283	0.842
12.2681	0.838
12.3079	0.825
12.3477	0.789
12.3875	0.754
12.4273	0.772
12.4671	0.812
12.5069	0.812
12.5467	0.79
12.5865	0.749
12.6263	0.657
12.6661	0.508
12.7059	0.398
12.7457	0.465
12.7855	0.634
12.8253	0.72
12.8652	0.764
12.905	0.789
12.9448	0.802
12.9846	0.81
13.0244	0.813
13.0642	0.815
13.104	0.817
13.1438	0.818
13.1836	0.825
13.2234	0.818
13.2632	0.813
13.303	0.807
13.3428	0.79
13.3826	0.775
13.4224	0.722
13.4622	0.621
13.502	0.551
13.5418	0.589
13.5817	0.669
13.6215	0.73
13.6613	0.752
13.7011	0.764
13.7409	0.764
13.7807	0.764
13.8205	0.762
13.8603	0.754
13.9001	0.752
13.9399	0.757
13.9797	0.767
14.0195	0.774
14.0593	0.777
14.0991	0.774
14.1389	0.78
14.1787	0.775
14.2185	0.772
14.2584	0.772
14.2982	0.77
14.338	0.765
14.3778	0.759
14.4176	0.754
14.4574	0.749
14.4972	0.739
14.537	0.734
14.5768	0.719
14.6166	0.702
14.6564	0.686
14.6962	0.659
14.736	0.627
14.7758	0.599
14.8156	0.593
14.8554	0.598
14.8952	0.607
14.935	0.617
14.9749	0.622
15.0147	0.616
15.0545	0.611
15.0943	0.607
15.1341	0.611
15.1739	0.607
15.2137	0.601
15.2535	0.599
15.2933	0.596
15.3331	0.593
15.3729	0.594
15.4127	0.598
15.4525	0.599
15.4923	0.598
15.5321	0.601
15.5719	0.609
15.6117	0.614
15.6516	0.614
15.6914	0.619
15.7312	0.621
15.771	0.622
15.8108	0.626
15.8506	0.627
15.8904	0.629
15.9302	0.631
15.97	0.629
