Infrared Spectrum: 2-Heptene (c,t)
Formula: C 7 H 14
CAS: 592-77-8
State: gas
Instrument: HP-GC/MS/IRD
Origin: NIST Mass Spectrometry Data Center
1/CM	ABSORBANCE
550	0.0004384
562	0.000264
574	0.0005664
586	0.000504
598	0.0003728
610	0.0002816
622	0.0002432
634	0.000432
646	0.000696
658	0.0011312
670	0.0016384
682	0.0023248
694	0.0023856
706	0.0019104
718	0.0012224
730	0.0006976
742	0.0005488
754	0.0004688
766	0.0002912
778	0.0002496
790	0.0002416
802	0.0002
814	0.0001568
826	0.0001216
838	1.6e-05
850	9.6e-05
862	0.0001056
874	0.0001936
886	0.00012
898	0.0001552
910	0.00016
922	0.0002848
934	0.00032
946	0.000472
958	0.0004112
970	0.0003936
982	0.0003456
994	0.0003984
1006	0.000512
1018	0.0004592
1030	0.0003776
1042	0.0003312
1054	0.000216
1066	0.0001216
1078	0.0001472
1090	0.0001952
1102	0.0001472
1114	0.0002
1126	0.0001568
1138	8.48e-05
1150	2.72e-05
1162	1.44e-05
1174	6.4e-06
1186	6.4e-05
1198	6.72e-05
1210	1.92e-05
1222	7.2e-05
1234	0.00012
1246	0.0001296
1258	0.0001888
1270	0.0002032
1282	0.000224
1294	0.0003168
1306	0.0004176
1318	0.0004208
1330	0.0004896
1342	0.0005136
1354	0.000616
1366	0.000776
1378	0.0010576
1390	0.0011312
1402	0.0012336
1414	0.0011472
1426	0.000992
1438	0.0012864
1450	0.0017232
1462	0.0018224
1474	0.0014048
1486	0.000856
1498	0.000528
1510	0.0003808
1522	0.0003424
1534	0.0003136
1546	0.000264
1558	0.0002496
1570	0.000208
1582	0.0001488
1594	0.0001888
1606	0.000184
1618	0.0002304
1630	0.0002912
1642	0.0004608
1654	0.0005472
1666	0.0004656
1678	0.0002832
1690	0.0001504
1702	8.96e-05
1714	0.0001024
1726	8.32e-05
1738	5.28e-05
1750	4.8e-05
1762	4.32e-05
1774	2.56e-05
1786	1.76e-05
1798	3.04e-05
1810	1.44e-05
1822	4.96e-05
1834	1.6e-06
1846	1.76e-05
1858	4.64e-05
1870	4.64e-05
1882	1.12e-05
1894	3.52e-05
1906	1.6e-05
1918	2.56e-05
1930	5.44e-05
1942	3.2e-05
1954	3.68e-05
1966	3.36e-05
1978	8.32e-05
1990	5.6e-05
2002	7.52e-05
2014	8.32e-05
2026	4.96e-05
2038	6.72e-05
2050	3.2e-05
2062	6.88e-05
2074	7.04e-05
2086	6.72e-05
2098	9.6e-06
2110	8e-06
2122	5.28e-05
2134	4.16e-05
2146	8e-06
2158	2.56e-05
2170	2.72e-05
2182	4.96e-05
2194	6.88e-05
2206	5.12e-05
2218	3.36e-05
2230	5.76e-05
2242	6.08e-05
2254	0.000104
2266	4.96e-05
2278	4.64e-05
2290	4.16e-05
2302	4.96e-05
2314	4.64e-05
2326	5.44e-05
2338	2.4e-05
2350	4.48e-05
2362	5.28e-05
2374	6.56e-05
2386	9.76e-05
2398	4.64e-05
2410	1.6e-05
2422	2.08e-05
2434	4.16e-05
2446	2.08e-05
2458	3.2e-05
2470	4.48e-05
2482	4.8e-05
2494	5.28e-05
2506	2.08e-05
2518	7.2e-05
2530	6.24e-05
2542	4.32e-05
2554	6.08e-05
2566	8.32e-05
2578	2.56e-05
2590	0.0001056
2602	7.04e-05
2614	7.04e-05
2626	0.000128
2638	0.0001056
2650	9.44e-05
2662	0.0001504
2674	0.0001696
2686	0.0001632
2698	0.0001696
2710	0.0002016
2722	0.0002496
2734	0.00032
2746	0.0003744
2758	0.000352
2770	0.0004176
2782	0.0004656
2794	0.0005904
2806	0.0007696
2818	0.0010336
2830	0.001624
2842	0.0027408
2854	0.004712
2866	0.0066864
2878	0.0078912
2890	0.0075776
2902	0.0077376
2914	0.010592
2926	0.0145408
2938	0.0159552
2950	0.0138096
2962	0.0128592
2974	0.010936
2986	0.0066576
2998	0.0046176
3010	0.0050896
3022	0.0059776
3034	0.00496
3046	0.0028384
3058	0.001592
3070	0.0011136
3082	0.0008688
3094	0.0006272
3106	0.0004672
3118	0.0003952
3130	0.0002608
3142	0.0002512
3154	0.00024
3166	0.0001824
3178	0.0001936
3190	0.0001616
3202	0.0001488
3214	0.000184
3226	0.0001312
3238	9.6e-05
3250	0.0001328
3262	0.000104
3274	0.0001072
3286	4.96e-05
3298	0.0001168
3310	9.12e-05
3322	6.88e-05
3334	8.96e-05
3346	0.0001104
3358	0.000112
3370	0.00016
3382	0.0001008
3394	3.68e-05
3406	0.0001456
3418	9.28e-05
3430	5.28e-05
3442	8.96e-05
3454	1.76e-05
3466	9.6e-05
3478	0.0001008
3490	8.64e-05
3502	0.0001088
3514	8.96e-05
3526	9.92e-05
3538	8.96e-05
3550	0.0001248
3562	0.0001152
3574	0.000144
3586	0.0001296
3598	0.000152
3610	0.000152
3622	8.64e-05
3634	9.92e-05
3646	0.0001664
3658	0.0001504
3670	0.0001184
3682	0.0001024
3694	0.0001312
3706	0.0001824
3718	0.0001488
3730	0.0001424
3742	9.92e-05
3754	0.0001232
3766	0.0001168
3778	0.000168
3790	0.0001616
3802	0.0001632
3814	0.0001328
3826	0.000144
3838	0.000176
