Infrared Spectrum: 2-Methylheptane
Formula: C 8 H 18
CAS: 592-27-8
State: gas
Instrument: HP-GC/MS/IRD
Origin: NIST Mass Spectrometry Data Center
1/CM	ABSORBANCE
550	0.0002624
562	2.88e-05
574	0.000128
586	1.28e-05
598	6.4e-05
610	0.0001056
622	0.0001408
634	0.0001184
646	0.0001984
658	0.0001312
670	0.000128
682	0.0001568
694	0.0001792
706	0.000352
718	0.0005312
730	0.0005216
742	0.0004
754	0.0003328
766	0.000352
778	0.0003168
790	0.0002592
802	0.0002976
814	0.000256
826	0.000192
838	0.0002528
850	0.0002752
862	0.0002496
874	0.0002944
886	0.0002592
898	0.0002816
910	0.0002944
922	0.0003424
934	0.000368
946	0.000256
958	0.0002816
970	0.000304
982	0.0001792
994	0.0001568
1006	0.0001664
1018	0.0002144
1030	0.000192
1042	0.0002304
1054	0.0001696
1066	0.0001728
1078	0.000192
1090	0.0001952
1102	0.0001728
1114	0.0001632
1126	0.0002496
1138	0.000416
1150	0.0005536
1162	0.0007744
1174	0.0007392
1186	0.0004256
1198	0.0003712
1210	0.0003744
1222	0.000352
1234	0.000384
1246	0.0004064
1258	0.0003904
1270	0.0004544
1282	0.0004928
1294	0.0005376
1306	0.0006272
1318	0.0007328
1330	0.0009856
1342	0.0011904
1354	0.0013952
1366	0.002
1378	0.0026144
1390	0.0024512
1402	0.0012064
1414	0.0007712
1426	0.000816
1438	0.0013408
1450	0.0025248
1462	0.0037408
1474	0.0033696
1486	0.0018176
1498	0.0008224
1510	0.000416
1522	0.0002912
1534	0.0002336
1546	0.0001856
1558	0.0001056
1570	0.000144
1582	0.000176
1594	0.0001856
1606	0.0001472
1618	0.0001472
1630	0.000176
1642	0.0001408
1654	7.04e-05
1666	0.0001504
1678	0.0001568
1690	0.0001504
1702	8e-05
1714	0.0001024
1726	0.0001248
1738	6.08e-05
1750	8.96e-05
1762	0.0001056
1774	7.04e-05
1786	8.96e-05
1798	8.32e-05
1810	8e-05
1822	6.72e-05
1834	8e-05
1846	8.64e-05
1858	5.44e-05
1870	4.8e-05
1882	7.36e-05
1894	5.76e-05
1906	6.72e-05
1918	6.72e-05
1930	3.52e-05
1942	2.88e-05
1954	4.48e-05
1966	3.84e-05
1978	3.2e-05
1990	1.6e-05
2002	5.44e-05
2014	5.12e-05
2026	5.76e-05
2038	4.48e-05
2050	3.84e-05
2062	3.84e-05
2074	3.2e-05
2086	3.84e-05
2098	1.28e-05
2110	2.24e-05
2122	1.92e-05
2134	3.84e-05
2146	3.2e-05
2158	3.2e-05
2170	1.92e-05
2182	4.48e-05
2194	4.48e-05
2206	1.92e-05
2218	2.24e-05
2230	3.84e-05
2242	4.48e-05
2254	2.88e-05
2266	5.76e-05
2278	7.68e-05
2290	4.16e-05
2302	3.84e-05
2314	3.84e-05
2326	1.92e-05
2338	1.28e-05
2350	2.56e-05
2362	1.92e-05
2374	5.44e-05
2386	7.04e-05
2398	7.04e-05
2410	7.04e-05
2422	8.32e-05
2434	6.72e-05
2446	6.08e-05
2458	5.12e-05
2470	7.36e-05
2482	6.08e-05
2494	8.32e-05
2506	8.96e-05
2518	5.76e-05
2530	0.0001024
2542	0.000128
2554	0.0001184
2566	0.0001728
2578	0.0002112
2590	0.0002304
2602	0.0002496
2614	0.0002752
2626	0.0003168
2638	0.0003232
2650	0.0003456
2662	0.0003424
2674	0.0003648
2686	0.0003584
2698	0.0003936
2710	0.0004384
2722	0.0005312
2734	0.0006432
2746	0.0006816
2758	0.00064
2770	0.00072
2782	0.0008352
2794	0.0010272
2806	0.001328
2818	0.0017152
2830	0.0025504
2842	0.0044416
2854	0.0081088
2866	0.011888
2878	0.0143712
2890	0.0141696
2902	0.015216
2914	0.0206432
2926	0.0276736
2938	0.0298816
2950	0.0276256
2962	0.032
2974	0.0242624
2986	0.0090432
2998	0.0039776
3010	0.0024352
3022	0.0017056
3034	0.0013664
3046	0.001104
3058	0.0009088
3070	0.0008192
3082	0.0007872
3094	0.0006944
3106	0.0005792
3118	0.0005312
3130	0.0004928
3142	0.0004864
3154	0.0004736
3166	0.0004288
3178	0.0004192
3190	0.0004064
3202	0.000336
3214	0.0002912
3226	0.0001632
3238	0.000128
3250	0.0001024
3262	0.0001376
3274	8.64e-05
3286	8.96e-05
3298	0.0001536
3310	0.0001216
3322	0.0001088
3334	0.0001536
3346	0.0001152
3358	0.000112
3370	0.000112
3382	0.0001088
3394	6.08e-05
3406	8.64e-05
3418	9.92e-05
3430	9.92e-05
3442	9.28e-05
3454	3.52e-05
3466	2.88e-05
3478	4.8e-05
3490	4.16e-05
3502	8.96e-05
3514	4.48e-05
3526	2.24e-05
3538	8e-05
3550	5.12e-05
3562	2.88e-05
3574	4.8e-05
3586	4.48e-05
3598	8e-05
3610	9.92e-05
3622	8e-05
3634	8.96e-05
3646	8e-05
3658	8.96e-05
3670	6.08e-05
3682	2.88e-05
3694	9.92e-05
3706	9.92e-05
3718	9.6e-05
3730	5.44e-05
3742	8.64e-05
3754	0.0001024
3766	0.0001088
3778	9.28e-05
3790	3.84e-05
3802	6.08e-05
3814	0.000128
3826	0.0001472
3838	0.0001088
