Infrared Spectrum: N-BUTYL ISOTHIO CYANATE
Formula: C5 H9 N S
CAS: 592-82-5
State: LIQUID
Boiling point: 64-66 C AT 12 mmHg
Class: COBLENTZ
Instrument: Not specified, most likely a prism, grating, or hybrid spectrometer.
Sampling: TRANSMISSION
Path length: 0.003 CM
Resolution: 4
Origin: WYANDOTTE CHEMICALS CORP., WYANDOTTE, MICHIGAN, USA
MICROMETERS	TRANSMITTANCE
2.041	0.996
2.08189	1.003
2.12279	1.001
2.16368	0.996
2.20458	0.969
2.24547	0.94
2.28636	0.938
2.32726	0.935
2.36815	0.948
2.40905	0.952
2.44994	0.955
2.49083	0.959
2.53173	0.969
2.57262	0.972
2.61352	0.972
2.65441	0.974
2.6953	0.972
2.7362	0.974
2.77709	0.974
2.81799	0.971
2.85888	0.96
2.89977	0.959
2.94067	0.95
2.98156	0.942
3.02246	0.94
3.06335	0.942
3.10425	0.918
3.14514	0.892
3.18603	0.869
3.22693	0.841
3.26782	0.818
3.30872	0.767
3.34961	0.474
3.3905	0.042
3.4314	0.239
3.47229	0.299
3.51319	0.336
3.55408	0.678
3.59497	0.732
3.63587	0.755
3.67676	0.767
3.71766	0.819
3.75855	0.831
3.79944	0.87
3.84034	0.874
3.88123	0.865
3.92213	0.867
3.96302	0.875
4.00391	0.877
4.04481	0.884
4.0857	0.884
4.1266	0.887
4.16749	0.884
4.20838	0.882
4.24928	0.875
4.29017	0.875
4.33107	0.869
4.37196	0.84
4.41285	0.77
4.45375	0.697
4.49464	0.517
4.53554	0.375
4.57643	0.127
4.61732	0.035
4.65822	0.028
4.69911	0.03
4.74001	0.028
4.7809	0.03
4.82179	0.03
4.86269	0.025
4.90358	0.034
4.94448	0.044
4.98537	0.117
5.02627	0.27
5.06716	0.44
5.10805	0.585
5.14895	0.673
5.18984	0.746
5.23074	0.806
5.27163	0.84
5.31252	0.865
5.35342	0.877
5.39431	0.892
5.43521	0.889
5.4761	0.897
5.51699	0.908
5.55789	0.906
5.59878	0.899
5.63968	0.899
5.68057	0.894
5.72146	0.894
5.76236	0.889
5.80325	0.882
5.84415	0.882
5.88504	0.884
5.92593	0.875
5.96683	0.874
6.00772	0.869
6.04862	0.863
6.08951	0.86
6.1304	0.848
6.1713	0.845
6.21219	0.838
6.25309	0.835
6.29398	0.835
6.33487	0.838
6.37577	0.841
6.41666	0.84
6.45756	0.828
6.49845	0.816
6.53934	0.806
6.58024	0.782
6.62113	0.77
6.66203	0.743
6.70292	0.704
6.74381	0.612
6.78471	0.219
6.8256	0.178
6.8665	0.204
6.90739	0.307
6.94829	0.469
6.98918	0.63
7.03007	0.7
7.07097	0.702
7.11186	0.721
7.15276	0.695
7.19365	0.627
7.23454	0.447
7.27544	0.482
7.31633	0.292
7.35723	0.231
7.39812	0.113
7.43901	0.176
7.47991	0.341
7.5208	0.348
7.5617	0.539
7.60259	0.457
7.64348	0.53
7.68438	0.629
7.72527	0.666
7.76617	0.71
7.80706	0.724
7.84795	0.704
7.88885	0.62
7.92974	0.641
7.97064	0.663
8.01153	0.698
8.05242	0.707
8.09332	0.715
8.13421	0.68
8.17511	0.702
8.216	0.741
8.25689	0.763
8.29779	0.768
8.33868	0.777
8.37958	0.787
8.42047	0.801
8.46136	0.806
8.50226	0.806
8.54315	0.811
8.58405	0.807
8.62494	0.799
8.66583	0.789
8.70673	0.767
8.74762	0.736
8.78852	0.692
8.82941	0.673
8.87031	0.69
8.9112	0.63
8.95209	0.62
8.99299	0.681
9.03388	0.71
9.07478	0.714
9.11567	0.697
9.15656	0.658
9.19746	0.624
9.23835	0.625
9.27925	0.67
9.32014	0.7
9.36103	0.707
9.40193	0.717
9.44282	0.738
9.48372	0.739
9.52461	0.739
9.5655	0.715
9.6064	0.647
9.64729	0.695
9.68819	0.755
9.72908	0.768
9.76997	0.777
9.81087	0.785
9.85176	0.79
9.89266	0.79
9.93355	0.775
9.97444	0.761
10.0153	0.792
10.0562	0.801
10.0971	0.802
10.138	0.782
10.1789	0.736
10.2198	0.698
10.2607	0.734
10.3016	0.765
10.3425	0.768
10.3834	0.775
10.4243	0.789
10.4652	0.797
10.5061	0.801
10.547	0.795
10.5879	0.768
10.6287	0.751
10.6696	0.77
10.7105	0.795
10.7514	0.806
10.7923	0.807
10.8332	0.811
10.8741	0.812
10.915	0.812
10.9559	0.801
10.9968	0.795
11.0377	0.787
11.0786	0.772
11.1195	0.768
11.1604	0.763
11.2013	0.763
11.2422	0.763
11.2831	0.76
11.3239	0.76
11.3648	0.758
11.4057	0.739
11.4466	0.719
11.4875	0.681
11.5284	0.668
11.5693	0.712
11.6102	0.756
11.6511	0.782
11.692	0.795
11.7329	0.806
11.7738	0.814
11.8147	0.811
11.8556	0.816
11.8965	0.819
11.9374	0.812
11.9783	0.812
12.0191	0.811
12.06	0.814
12.1009	0.804
12.1418	0.804
12.1827	0.778
12.2236	0.768
12.2645	0.78
12.3054	0.789
12.3463	0.784
12.3872	0.768
12.4281	0.731
12.469	0.739
12.5099	0.758
12.5508	0.758
12.5917	0.756
12.6326	0.755
12.6735	0.75
12.7143	0.748
12.7552	0.739
12.7961	0.746
12.837	0.753
12.8779	0.755
12.9188	0.751
12.9597	0.744
13.0006	0.743
13.0415	0.732
13.0824	0.721
13.1233	0.698
13.1642	0.673
13.2051	0.632
13.246	0.571
13.2869	0.503
13.3278	0.428
13.3686	0.362
13.4095	0.365
13.4504	0.438
13.4913	0.54
13.5322	0.607
13.5731	0.634
13.614	0.653
13.6549	0.673
13.6958	0.709
13.7367	0.729
13.7776	0.744
13.8185	0.756
13.8594	0.765
13.9003	0.768
13.9412	0.765
13.9821	0.768
14.023	0.765
14.0638	0.76
14.1047	0.753
14.1456	0.744
14.1865	0.738
14.2274	0.726
14.2683	0.717
14.3092	0.7
14.3501	0.685
14.391	0.664
14.4319	0.646
14.4728	0.625
14.5137	0.602
14.5546	0.588
14.5955	0.578
14.6364	0.571
14.6773	0.571
14.7182	0.576
14.759	0.588
14.7999	0.596
14.8408	0.615
14.8817	0.629
14.9226	0.641
14.9635	0.651
15.0044	0.649
15.0453	0.651
15.0862	0.664
15.1271	0.676
15.168	0.67
15.2089	0.673
15.2498	0.67
15.2907	0.659
15.3316	0.656
15.3725	0.644
15.4134	0.639
15.4542	0.63
15.4951	0.619
15.536	0.619
15.5769	0.615
15.6178	0.608
15.6587	0.607
15.6996	0.61
15.7405	0.608
15.7814	0.602
15.8223	0.613
15.8632	0.612
15.9041	0.617
15.945	0.619
15.9859	0.624
