Infrared Spectrum: MERCURIC THIOCYANATE
Formula: Hg ( S C N)2
CAS: 592-85-8
State: SOLID (NUJOL MULL)
Class: COBLENTZ
Instrument: Not specified, most likely a prism, grating, or hybrid spectrometer.
Sampling: TRANSMISSION
Resolution: 4
Origin: MELLON INSTITUTE
MICROMETERS	TRANSMITTANCE
2.024	0.31
2.06494	0.319
2.10589	0.328
2.14683	0.34
2.18778	0.348
2.22872	0.355
2.26967	0.364
2.31061	0.367
2.35155	0.379
2.3925	0.39
2.43344	0.4
2.47439	0.415
2.51533	0.426
2.55628	0.431
2.59722	0.434
2.63816	0.45
2.67911	0.453
2.72005	0.465
2.761	0.47
2.80194	0.439
2.84289	0.402
2.88383	0.39
2.92477	0.39
2.96572	0.41
3.00666	0.424
3.04761	0.448
3.08855	0.462
3.1295	0.472
3.17044	0.486
3.21138	0.494
3.25233	0.496
3.29327	0.47
3.33422	0.283
3.37516	0.099
3.41611	0.156
3.45705	0.214
3.49799	0.333
3.53894	0.591
3.57988	0.644
3.62083	0.656
3.66177	0.658
3.70272	0.661
3.74366	0.668
3.7846	0.671
3.82555	0.683
3.86649	0.683
3.90744	0.69
3.94838	0.697
3.98933	0.706
4.03027	0.711
4.07121	0.714
4.11216	0.716
4.1531	0.719
4.19405	0.728
4.23499	0.714
4.27594	0.702
4.31688	0.697
4.35782	0.706
4.39877	0.73
4.43971	0.75
4.48066	0.759
4.5216	0.769
4.56255	0.778
4.60349	0.792
4.64443	0.802
4.68538	0.761
4.72632	0.572
4.76727	0.261
4.80821	0.348
4.84916	0.487
4.8901	0.553
4.93104	0.601
4.97199	0.628
5.01293	0.644
5.05388	0.666
5.09482	0.682
5.13577	0.697
5.17671	0.713
5.21765	0.723
5.2586	0.731
5.29954	0.737
5.34049	0.745
5.38143	0.75
5.42238	0.756
5.46332	0.766
5.50426	0.768
5.54521	0.771
5.58615	0.778
5.6271	0.778
5.66804	0.785
5.70899	0.788
5.74993	0.797
5.79087	0.795
5.83182	0.804
5.87276	0.809
5.91371	0.807
5.95465	0.805
5.9956	0.807
6.03654	0.805
6.07748	0.79
6.11843	0.769
6.15937	0.742
6.20032	0.742
6.24126	0.773
6.28221	0.804
6.32315	0.802
6.36409	0.802
6.40504	0.798
6.44598	0.797
6.48693	0.797
6.52787	0.795
6.56882	0.792
6.60976	0.793
6.6507	0.797
6.69165	0.805
6.73259	0.805
6.77354	0.783
6.81448	0.652
6.85543	0.592
6.89637	0.585
6.93731	0.621
6.97826	0.664
7.0192	0.737
7.06015	0.745
7.10109	0.74
7.14204	0.651
7.18298	0.542
7.22392	0.4
7.26487	0.324
7.30581	0.321
7.34676	0.393
7.3877	0.481
7.42865	0.568
7.46959	0.618
7.51053	0.68
7.55148	0.713
7.59242	0.726
7.63337	0.742
7.67431	0.752
7.71526	0.766
7.7562	0.776
7.79714	0.79
7.83809	0.804
7.87903	0.817
7.91998	0.824
7.96092	0.826
8.00187	0.836
8.04281	0.835
8.08375	0.84
8.1247	0.845
8.16564	0.85
8.20659	0.852
8.24753	0.853
8.28848	0.857
8.32942	0.862
8.37036	0.864
8.41131	0.864
8.45225	0.862
8.4932	0.85
8.53414	0.838
8.57509	0.836
8.61603	0.836
8.65697	0.826
8.69792	0.826
8.73886	0.833
8.77981	0.836
8.82075	0.841
8.8617	0.841
8.90264	0.843
8.94358	0.838
8.98453	0.829
9.02547	0.828
9.06642	0.829
9.10736	0.838
9.1483	0.843
9.18925	0.848
9.23019	0.848
9.27114	0.85
9.31208	0.852
9.35303	0.852
9.39397	0.853
9.43491	0.855
9.47586	0.857
9.5168	0.86
9.55775	0.864
9.59869	0.864
9.63964	0.867
9.68058	0.871
9.72152	0.872
9.76247	0.874
9.80341	0.878
9.84436	0.879
9.8853	0.879
9.92625	0.879
9.96719	0.881
10.0081	0.881
10.0491	0.886
10.09	0.884
10.131	0.883
10.1719	0.884
10.2129	0.89
10.2538	0.89
10.2947	0.893
10.3357	0.895
10.3766	0.893
10.4176	0.898
10.4585	0.902
10.4995	0.905
10.5404	0.907
10.5814	0.907
10.6223	0.91
10.6632	0.912
10.7042	0.912
10.7451	0.914
10.7861	0.915
10.827	0.915
10.868	0.917
10.9089	0.917
10.9499	0.915
10.9908	0.917
11.0317	0.922
11.0727	0.924
11.1136	0.926
11.1546	0.929
11.1955	0.934
11.2365	0.938
11.2774	0.939
11.3184	0.941
11.3593	0.943
11.4002	0.946
11.4412	0.951
11.4821	0.953
11.5231	0.953
11.564	0.953
11.605	0.953
11.6459	0.953
11.6869	0.955
11.7278	0.955
11.7687	0.955
11.8097	0.96
11.8506	0.962
11.8916	0.963
11.9325	0.963
11.9735	0.943
12.0144	0.943
12.0553	0.948
12.0963	0.951
12.1372	0.958
12.1782	0.962
12.2191	0.963
12.2601	0.965
12.301	0.967
12.342	0.97
12.3829	0.967
12.4238	0.965
12.4648	0.965
12.5057	0.965
12.5467	0.963
12.5876	0.963
12.6286	0.963
12.6695	0.963
12.7105	0.963
12.7514	0.963
12.7923	0.962
12.8333	0.962
12.8742	0.96
12.9152	0.955
12.9561	0.953
12.9971	0.951
13.038	0.95
13.079	0.95
13.1199	0.95
13.1608	0.946
13.2018	0.943
13.2427	0.941
13.2837	0.938
13.3246	0.934
13.3656	0.931
13.4065	0.932
13.4475	0.927
13.4884	0.926
13.5293	0.922
13.5703	0.919
13.6112	0.912
13.6522	0.912
13.6931	0.908
13.7341	0.903
13.775	0.902
13.816	0.896
13.8569	0.888
13.8978	0.879
13.9388	0.874
13.9797	0.872
14.0207	0.874
14.0616	0.872
14.1026	0.871
14.1435	0.865
14.1845	0.864
14.2254	0.864
14.2663	0.86
14.3073	0.859
14.3482	0.853
14.3892	0.848
14.4301	0.838
14.4711	0.833
14.512	0.823
14.553	0.812
14.5939	0.805
14.6348	0.8
14.6758	0.793
14.7167	0.785
14.7577	0.776
14.7986	0.768
14.8396	0.742
14.8805	0.733
14.9214	0.726
14.9624	0.719
15.0033	0.716
15.0443	0.709
15.0852	0.704
15.1262	0.695
15.1671	0.69
15.2081	0.682
15.249	0.671
15.2899	0.664
15.3309	0.658
15.3718	0.651
15.4128	0.644
15.4537	0.639
15.4947	0.634
15.5356	0.63
15.5766	0.625
15.6175	0.615
15.6584	0.603
15.6994	0.599
15.7403	0.589
15.7813	0.579
15.8222	0.573
15.8632	0.567
15.9041	0.561
15.9451	0.554
15.986	0.544
