Infrared Spectrum: Oxacycloheptane
Formula: C 6 H 12 O
CAS: 592-90-5
State: gas
Instrument: HP-GC/MS/IRD
Origin: NIST Mass Spectrometry Data Center
1/CM	ABSORBANCE
550	0.001552
562	0.001496
574	0.000848
586	0.000456
598	0.00032
610	0.000256
622	7.2e-05
634	6.4e-05
646	3.2e-05
658	0
670	0.000176
682	0.0002
694	0.000176
706	0.000216
718	0.000232
730	0.000312
742	0.000552
754	0.000824
766	0.000832
778	0.00088
790	0.001184
802	0.0018
814	0.002264
826	0.002744
838	0.002752
850	0.001848
862	0.001128
874	0.000808
886	0.000928
898	0.000968
910	0.001136
922	0.00124
934	0.00124
946	0.00196
958	0.00388
970	0.005568
982	0.006512
994	0.006408
1006	0.005728
1018	0.004856
1030	0.00376
1042	0.002408
1054	0.00128
1066	0.00124
1078	0.002264
1090	0.006224
1102	0.012688
1114	0.016744
1126	0.022032
1138	0.0258
1150	0.022992
1162	0.011288
1174	0.004288
1186	0.002952
1198	0.0022
1210	0.001864
1222	0.002112
1234	0.003008
1246	0.003648
1258	0.004272
1270	0.004616
1282	0.004368
1294	0.003288
1306	0.002152
1318	0.001536
1330	0.001368
1342	0.001656
1354	0.002328
1366	0.003048
1378	0.003112
1390	0.002216
1402	0.001368
1414	0.001224
1426	0.002288
1438	0.004264
1450	0.005984
1462	0.005712
1474	0.004488
1486	0.002312
1498	0.0012
1510	0.000528
1522	0.000296
1534	0.0002
1546	0.000128
1558	0.00012
1570	9.6e-05
1582	7.2e-05
1594	6.4e-05
1606	4e-05
1618	6.4e-05
1630	5.6e-05
1642	9.6e-05
1654	0.000128
1666	0.00012
1678	9.6e-05
1690	8.8e-05
1702	0.00012
1714	8.8e-05
1726	7.2e-05
1738	4.8e-05
1750	5.6e-05
1762	4.8e-05
1774	7.2e-05
1786	0.000104
1798	0.000104
1810	0.00016
1822	0.00016
1834	0.000136
1846	0.00016
1858	0.000144
1870	0.000152
1882	0.000128
1894	0.000128
1906	0.00012
1918	0.000144
1930	0.000168
1942	0.000256
1954	0.00032
1966	0.000368
1978	0.000344
1990	0.000256
2002	0.000152
2014	6.4e-05
2026	0.000112
2038	4e-05
2050	2.4e-05
2062	1.6e-05
2074	3.2e-05
2086	8e-05
2098	0.000112
2110	0.000144
2122	0.000192
2134	0.000152
2146	0.000152
2158	0.000136
2170	0.000112
2182	9.6e-05
2194	8e-05
2206	7.2e-05
2218	7.2e-05
2230	8.8e-05
2242	6.4e-05
2254	9.6e-05
2266	8e-05
2278	0.000104
2290	6.4e-05
2302	3.2e-05
2314	8e-06
2326	4e-05
2338	0.00012
2350	0.000152
2362	0.000168
2374	0.000152
2386	0.000112
2398	7.2e-05
2410	4.8e-05
2422	5.6e-05
2434	3.2e-05
2446	4e-05
2458	4e-05
2470	4.8e-05
2482	4.8e-05
2494	6.4e-05
2506	4.8e-05
2518	6.4e-05
2530	0.000128
2542	0.000136
2554	0.000192
2566	0.000232
2578	0.00024
2590	0.000264
2602	0.00032
2614	0.000384
2626	0.000448
2638	0.000584
2650	0.000728
2662	0.00096
2674	0.001272
2686	0.001576
2698	0.001784
2710	0.001968
2722	0.00212
2734	0.002264
2746	0.00224
2758	0.002168
2770	0.001976
2782	0.001992
2794	0.002272
2806	0.00308
2818	0.004856
2830	0.008936
2842	0.017144
2854	0.028384
2866	0.032296
2878	0.024792
2890	0.018544
2902	0.023184
2914	0.040448
2926	0.06168
2938	0.08
2950	0.059688
2962	0.034024
2974	0.013784
2986	0.00488
2998	0.002464
3010	0.001544
3022	0.00112
3034	0.000816
3046	0.000704
3058	0.00052
3070	0.000472
3082	0.000376
3094	0.000288
3106	0.000296
3118	0.000248
3130	0.000208
3142	0.000224
3154	0.000176
3166	0.0002
3178	0.000224
3190	0.000216
3202	0.000256
3214	0.000264
3226	0.00028
3238	0.00024
3250	0.000208
3262	0.000152
3274	0.000128
3286	0.000168
3298	0.000152
3310	0.000152
3322	0.000136
3334	0.000128
3346	9.6e-05
3358	0.000104
3370	0.000104
3382	7.2e-05
3394	7.2e-05
3406	0.00016
3418	0.000104
3430	0.000256
3442	0.00016
3454	0.000176
3466	0.00012
3478	0.000112
3490	4.8e-05
3502	6.4e-05
3514	8e-05
3526	0.000104
3538	7.2e-05
3550	3.2e-05
3562	4.8e-05
3574	2.4e-05
3586	3.2e-05
3598	5.6e-05
3610	0.000112
3622	0.000104
3634	7.2e-05
3646	0.000128
3658	0.000112
3670	0.000192
3682	0.0002
3694	0.000192
3706	0.000168
3718	0.000144
3730	0.00012
3742	0.000224
3754	0.0002
3766	0.000232
3778	0.000224
3790	0.000232
3802	0.000288
3814	0.00024
3826	0.000272
3838	0.000256
