Infrared Spectrum: 3-Heptene (c,t)
Formula: C 7 H 14
CAS: 592-78-9
State: gas
Instrument: HP-GC/MS/IRD
Origin: NIST Mass Spectrometry Data Center
1/CM	ABSORBANCE
550	0.0002688
562	0.0001232
574	0.000238
586	0.0001036
598	0.0001736
610	0.0001372
622	0.0001806
634	5.04e-05
646	0.0001064
658	0.0001974
670	0.000175
682	0.0002184
694	0.000196
706	0.0002268
718	0.0002898
730	0.0002296
742	0.0002184
754	0.0002576
766	0.000287
778	0.0003276
790	0.0002786
802	0.0002366
814	0.0001778
826	0.0002212
838	0.0002156
850	0.0002436
862	0.000231
874	0.0002702
886	0.0003668
898	0.000427
910	0.0005068
922	0.0004858
934	0.0007714
946	0.0014112
958	0.0022288
970	0.0023926
982	0.0016226
994	0.000861
1006	0.0005054
1018	0.0004228
1030	0.0004102
1042	0.0004494
1054	0.0005614
1066	0.0005698
1078	0.0005054
1090	0.0004928
1102	0.0003458
1114	0.0002296
1126	0.0001624
1138	0.0001652
1150	0.0001414
1162	0.000154
1174	0.0001918
1186	0.0001162
1198	0.0001106
1210	0.000154
1222	0.0001554
1234	0.0001498
1246	0.000217
1258	0.0002996
1270	0.00042
1282	0.0004676
1294	0.0005866
1306	0.0006048
1318	0.0005866
1330	0.0006762
1342	0.000693
1354	0.0005404
1366	0.0005096
1378	0.0007196
1390	0.0007602
1402	0.0005964
1414	0.0005838
1426	0.0007364
1438	0.0011004
1450	0.0015232
1462	0.001666
1474	0.0013216
1486	0.000784
1498	0.0004648
1510	0.0003136
1522	0.0002226
1534	0.000147
1546	0.0001428
1558	0.0001358
1570	0.0001204
1582	0.0001274
1594	0.0001176
1606	0.0001176
1618	8.54e-05
1630	0.0001176
1642	0.0001442
1654	0.00014
1666	0.0001302
1678	0.0001456
1690	0.0001316
1702	0.0001218
1714	0.000133
1726	0.0001092
1738	0.0001274
1750	0.0001316
1762	0.000126
1774	0.0001274
1786	0.0001218
1798	9.52e-05
1810	8.68e-05
1822	8.96e-05
1834	8.26e-05
1846	8.68e-05
1858	5.18e-05
1870	4.34e-05
1882	4.06e-05
1894	5.6e-05
1906	3.78e-05
1918	5.74e-05
1930	3.78e-05
1942	4.62e-05
1954	4.9e-05
1966	1.96e-05
1978	2.52e-05
1990	2.1e-05
2002	3.64e-05
2014	5.74e-05
2026	3.64e-05
2038	5.74e-05
2050	9.24e-05
2062	3.64e-05
2074	4.2e-05
2086	1.68e-05
2098	3.5e-05
2110	2.66e-05
2122	4.76e-05
2134	9.8e-06
2146	1.82e-05
2158	1.68e-05
2170	4.2e-05
2182	3.92e-05
2194	2.1e-05
2206	2.8e-05
2218	1.12e-05
2230	4.06e-05
2242	3.64e-05
2254	3.92e-05
2266	5.6e-06
2278	2.8e-05
2290	4.06e-05
2302	1.54e-05
2314	2.66e-05
2326	3.08e-05
2338	5.46e-05
2350	3.64e-05
2362	5.74e-05
2374	5.18e-05
2386	4.06e-05
2398	2.52e-05
2410	4.76e-05
2422	6.02e-05
2434	2.52e-05
2446	2.1e-05
2458	2.94e-05
2470	4.48e-05
2482	4.06e-05
2494	5.32e-05
2506	2.8e-05
2518	3.5e-05
2530	4.2e-05
2542	4.76e-05
2554	7.56e-05
2566	2.38e-05
2578	5.18e-05
2590	6.44e-05
2602	5.32e-05
2614	2.94e-05
2626	7.14e-05
2638	7.56e-05
2650	0.0001078
2662	0.0001218
2674	0.0001274
2686	0.0001274
2698	0.0001274
2710	0.0001722
2722	0.0001834
2734	0.0002408
2746	0.0002688
2758	0.0003094
2770	0.0003444
2782	0.0004102
2794	0.0005026
2806	0.0006384
2818	0.0008694
2830	0.0013944
2842	0.002317
2854	0.0035462
2866	0.0048454
2878	0.0063406
2890	0.006699
2902	0.0067396
2914	0.007889
2926	0.0097426
2938	0.011543
2950	0.0114884
2962	0.012894
2974	0.0134596
2986	0.008414
2998	0.004676
3010	0.003241
3022	0.0025004
3034	0.001855
3046	0.0012838
3058	0.0008806
3070	0.0006818
3082	0.0005726
3094	0.0004522
3106	0.0003864
3118	0.000406
3130	0.0002842
3142	0.0002772
3154	0.0002674
3166	0.000259
3178	0.0002016
3190	0.0001666
3202	0.0001302
3214	0.0001554
3226	9.94e-05
3238	0.0001288
3250	6.58e-05
3262	5.88e-05
3274	8.12e-05
3286	6.3e-05
3298	9.1e-05
3310	0.0001064
3322	5.32e-05
3334	4.2e-06
3346	5.04e-05
3358	3.22e-05
3370	6.02e-05
3382	5.18e-05
3394	4.2e-06
3406	9.94e-05
3418	4.06e-05
3430	8.26e-05
3442	2.24e-05
3454	0.0001064
3466	5.74e-05
3478	6.3e-05
3490	7.98e-05
3502	4.48e-05
3514	8.4e-05
3526	7.84e-05
3538	6.02e-05
3550	3.5e-05
3562	1.26e-05
3574	5.18e-05
3586	5.6e-05
3598	7.7e-05
3610	8.96e-05
3622	6.3e-05
3634	3.5e-05
3646	4.06e-05
3658	6.02e-05
3670	6.3e-05
3682	8.26e-05
3694	0.0001036
3706	8.4e-05
3718	8.96e-05
3730	0.0001638
3742	0.0001568
3754	9.38e-05
3766	0.0001358
3778	9.52e-05
3790	0.0001498
3802	9.1e-05
3814	0.0001036
3826	8.68e-05
3838	0.0001512
