Infrared Spectrum: 2-Nonyn-1-ol
Formula: C 9 H 16 O
CAS: 5921-73-3
State: gas
Instrument: HP-GC/MS/IRD
Origin: NIST Mass Spectrometry Data Center
1/CM	ABSORBANCE
550	0.000602
562	0.00028
574	0.0002765
586	0.000231
598	0.0001505
610	0.0001435
622	0.0001015
634	4.55e-05
646	0.0001155
658	0.000175
670	0.0002485
682	0.000427
694	0.0005705
706	0.0008085
718	0.0008645
730	0.000756
742	0.000637
754	0.000476
766	0.0004655
778	0.0005005
790	0.000462
802	0.000434
814	0.000385
826	0.0003465
838	0.000413
850	0.0003955
862	0.000441
874	0.000504
886	0.000532
898	0.0006055
910	0.0007595
922	0.0009905
934	0.001274
946	0.0017815
958	0.002688
970	0.0042595
982	0.0065975
994	0.009793
1006	0.013055
1018	0.0117565
1030	0.0074725
1042	0.004571
1054	0.002688
1066	0.001778
1078	0.0014175
1090	0.0012915
1102	0.0013895
1114	0.001673
1126	0.002583
1138	0.003703
1150	0.0020895
1162	0.0011795
1174	0.0009135
1186	0.000966
1198	0.000973
1210	0.001155
1222	0.00133
1234	0.0014735
1246	0.0015575
1258	0.0018305
1270	0.002114
1282	0.002128
1294	0.00217
1306	0.002366
1318	0.002849
1330	0.003675
1342	0.0039445
1354	0.004732
1366	0.005999
1378	0.0075005
1390	0.008001
1402	0.0060935
1414	0.003745
1426	0.0027335
1438	0.003073
1450	0.003248
1462	0.0033705
1474	0.0024255
1486	0.0012845
1498	0.000721
1510	0.0004865
1522	0.000378
1534	0.0002975
1546	0.000266
1558	0.00014
1570	0.0002065
1582	0.000203
1594	0.000182
1606	0.000161
1618	0.0001155
1630	0.0001225
1642	0.0001155
1654	2.8e-05
1666	9.8e-05
1678	9.8e-05
1690	0.0001225
1702	1.75e-05
1714	4.2e-05
1726	6.3e-05
1738	2.45e-05
1750	5.6e-05
1762	4.9e-05
1774	2.8e-05
1786	4.2e-05
1798	3.85e-05
1810	4.2e-05
1822	4.2e-05
1834	2.8e-05
1846	1.4e-05
1858	3.85e-05
1870	3.85e-05
1882	2.8e-05
1894	4.9e-05
1906	0
1918	2.1e-05
1930	7.7e-05
1942	7.7e-05
1954	0.000112
1966	9.8e-05
1978	0.000147
1990	0.0001785
2002	0.0001995
2014	0.0001925
2026	0.0001715
2038	0.00014
2050	0.0001085
2062	9.45e-05
2074	5.6e-05
2086	4.2e-05
2098	3.85e-05
2110	5.95e-05
2122	4.2e-05
2134	7.7e-05
2146	8.05e-05
2158	0.0001015
2170	0.000161
2182	0.0002835
2194	0.000476
2206	0.000854
2218	0.001253
2230	0.0009765
2242	0.0005355
2254	0.0004655
2266	0.0005005
2278	0.0007525
2290	0.000756
2302	0.000322
2314	0.0001295
2326	6.65e-05
2338	3.15e-05
2350	4.55e-05
2362	3.5e-05
2374	5.6e-05
2386	6.3e-05
2398	8.75e-05
2410	7e-05
2422	8.4e-05
2434	5.6e-05
2446	5.25e-05
2458	5.95e-05
2470	3.85e-05
2482	5.25e-05
2494	2.8e-05
2506	1.05e-05
2518	4.55e-05
2530	4.55e-05
2542	7.7e-05
2554	9.1e-05
2566	0.000112
2578	0.0001365
2590	0.000147
2602	0.00014
2614	0.000161
2626	0.0002135
2638	0.0002555
2650	0.000294
2662	0.0003185
2674	0.000336
2686	0.0003535
2698	0.0003395
2710	0.0003395
2722	0.0004095
2734	0.000462
2746	0.0005355
2758	0.0006125
2770	0.000665
2782	0.000819
2794	0.001022
2806	0.0012985
2818	0.001764
2830	0.002597
2842	0.004396
2854	0.0083825
2866	0.012894
2878	0.0136745
2890	0.012292
2902	0.012432
2914	0.017213
2926	0.0265405
2938	0.035
2950	0.028049
2962	0.019985
2974	0.015029
2986	0.0066115
2998	0.003395
3010	0.0021455
3022	0.0014595
3034	0.0010745
3046	0.0008295
3058	0.000707
3070	0.000588
3082	0.0005005
3094	0.000427
3106	0.0003745
3118	0.000322
3130	0.00028
3142	0.0002135
3154	0.0002275
3166	0.0001995
3178	0.0001925
3190	0.0001925
3202	0.0001715
3214	0.0001225
3226	7.7e-05
3238	0.0001225
3250	6.65e-05
3262	4.2e-05
3274	6.65e-05
3286	6.3e-05
3298	5.6e-05
3310	6.3e-05
3322	2.45e-05
3334	6.3e-05
3346	5.6e-05
3358	3.85e-05
3370	7.35e-05
3382	0.0001155
3394	7e-05
3406	0.000105
3418	8.75e-05
3430	8.4e-05
3442	4.9e-05
3454	4.9e-05
3466	8.05e-05
3478	7e-05
3490	7.35e-05
3502	0.000112
3514	9.8e-05
3526	9.1e-05
3538	8.05e-05
3550	0.000112
3562	9.8e-05
3574	9.45e-05
3586	0.000147
3598	0.000238
3610	0.000343
3622	0.000623
3634	0.0011025
3646	0.001435
3658	0.001708
3670	0.001568
3682	0.0011795
3694	0.000672
3706	0.000336
3718	0.0002415
3730	0.000126
3742	7.7e-05
3754	9.45e-05
3766	9.8e-05
3778	0.000105
3790	0.0001295
3802	7.35e-05
3814	6.65e-05
3826	6.3e-05
3838	3.85e-05
