Infrared Spectrum: N-[3-(Dimethylamino)propyl]formamide
Formula: C6 H14 N2 O
CAS: 5922-69-0
State: SOLUTION (10% CCl4 FOR 3800-1335, 10% CS2 FOR 1335-400 CM^-^1)
Class: COBLENTZ II
Instrument: DOW KBr FOREPRISM-GRATING
Instrument parameters: BLAZED AT 3.5, 12.0, 20.0 MICRON AND CHANGED AT 5.0, 7.5, 14.9 MICRON
Sampling: TRANSMISSION
Path length: 0.011 CM, 0.011 CM
Resolution: 2
Origin: DOW CHEMICAL COMPANY
1/CM	TRANSMITTANCE
3800	0.8715
3791	0.8717
3782	0.8718
3773	0.8717
3764	0.8715
3755	0.8712
3746	0.8709
3737	0.8705
3728	0.8692
3719	0.8673
3710	0.864
3701	0.8468
3692	0.8193
3683	0.8018
3674	0.8021
3665	0.809
3656	0.8134
3647	0.8141
3638	0.8075
3629	0.7988
3620	0.7886
3611	0.7774
3602	0.7665
3593	0.7515
3584	0.7361
3575	0.7206
3566	0.7039
3557	0.6875
3548	0.6719
3539	0.6578
3530	0.643
3521	0.6281
3512	0.6155
3503	0.6052
3494	0.5953
3485	0.585
3476	0.5764
3467	0.556
3458	0.4917
3449	0.4836
3440	0.491
3431	0.5005
3422	0.4852
3413	0.464
3404	0.4366
3395	0.408
3386	0.3759
3377	0.3422
3368	0.3051
3359	0.2583
3350	0.2034
3341	0.1661
3332	0.1508
3323	0.1414
3314	0.1342
3305	0.1308
3296	0.1287
3287	0.1319
3278	0.1399
3269	0.1532
3260	0.1724
3251	0.194
3242	0.216
3233	0.2419
3224	0.2651
3215	0.2905
3206	0.3228
3197	0.3498
3188	0.3729
3179	0.3941
3170	0.4144
3161	0.4347
3152	0.4479
3143	0.457
3134	0.4636
3125	0.4665
3116	0.4682
3107	0.4693
3098	0.4645
3089	0.4414
3080	0.4165
3071	0.393
3062	0.3691
3053	0.3603
3044	0.3662
3035	0.3924
3026	0.4251
3017	0.4481
3008	0.4575
2999	0.3679
2990	0.2068
2981	0.1233
2972	0.1265
2963	0.1304
2954	0.0699
2945	0.0559
2936	0.0986
2927	0.1413
2918	0.186
2909	0.2262
2900	0.2325
2891	0.2284
2882	0.1813
2873	0.1303
2864	0.0811
2855	0.1152
2846	0.1629
2837	0.1793
2828	0.1571
2819	0.0727
2810	0.1646
2801	0.187
2792	0.1352
2783	0.1135
2774	0.0958
2765	0.0846
2756	0.15
2747	0.2773
2738	0.3572
2729	0.393
2720	0.408
2711	0.445
2702	0.5706
2693	0.5915
2684	0.6054
2675	0.623
2666	0.6487
2657	0.6938
2648	0.7056
2639	0.7144
2630	0.7226
2621	0.7307
2612	0.7387
2603	0.7465
2594	0.7539
2585	0.7614
2576	0.7653
2567	0.7698
2558	0.7725
2549	0.7718
2540	0.7693
2531	0.7642
2522	0.7625
2513	0.7601
2504	0.7585
2495	0.7605
2486	0.7631
2477	0.7658
2468	0.7685
2459	0.7701
2450	0.7718
2441	0.7733
2432	0.775
2423	0.7767
2414	0.7785
2405	0.781
2396	0.784
2387	0.7878
2378	0.7924
2369	0.7981
2360	0.8018
2351	0.7994
2342	0.7957
2333	0.7925
2324	0.7908
2315	0.7906
2306	0.7919
2297	0.7933
2288	0.7946
2279	0.7954
2270	0.7961
2261	0.7968
2252	0.7968
2243	0.7968
2234	0.7968
2225	0.7967
2216	0.7968
2207	0.7969
2198	0.7971
2189	0.7974
2180	0.7976
2171	0.798
2162	0.7982
2153	0.7982
2144	0.7984
2135	0.7996
2126	0.8007
2117	0.8015
2108	0.8019
2099	0.8024
2090	0.8024
2081	0.8015
2072	0.8018
2063	0.8057
2054	0.8096
2045	0.8115
2036	0.8106
2027	0.8094
2018	0.8089
2009	0.8124
2000	0.8234
1991	0.833
1982	0.8368
1973	0.8413
1964	0.8417
1955	0.8425
1946	0.8425
1937	0.8416
1928	0.8406
1919	0.8404
1910	0.8406
1901	0.8415
1892	0.8406
1883	0.8389
1874	0.8377
1865	0.8371
1856	0.837
1847	0.8328
1838	0.828
1829	0.823
1820	0.8161
1811	0.8076
1802	0.798
1793	0.7868
1784	0.7733
1775	0.7584
1766	0.7405
1757	0.7156
1748	0.6861
1739	0.6481
1730	0.5843
1721	0.4926
1712	0.1753
1703	0.0133
1694	0.004
1685	0.003
1676	0.0025
1667	0.0015
1658	0.0052
1649	0.1392
1640	0.2574
1631	0.3664
1622	0.4175
1613	0.4229
1604	0.4158
1595	0.4149
1586	0.4269
1577	0.4344
1568	0.4066
1559	0.3054
1550	0.1885
1541	0.1404
1532	0.1267
1523	0.1249
1514	0.1248
1505	0.1463
1496	0.2542
1487	0.3059
1478	0.2208
1469	0.0836
1460	0.1035
1451	0.1713
1442	0.2633
1433	0.4022
1424	0.5062
1415	0.527
1406	0.4667
1397	0.248
1388	0.039
1379	0.1926
1370	0.3205
1361	0.3847
1352	0.4143
1343	0.393
1334	0.4459
1325	0.4515
1316	0.4373
1307	0.4091
1298	0.3744
1289	0.422
1280	0.392
1271	0.2696
1262	0.2326
1253	0.2145
1244	0.1542
1235	0.1933
1226	0.2554
1217	0.3558
1208	0.426
1199	0.5147
1190	0.5374
1181	0.4828
1172	0.4391
1163	0.4505
1154	0.374
1145	0.6114
1136	0.6674
1127	0.6721
1118	0.6668
1109	0.6093
1100	0.375
1091	0.5558
1082	0.4969
1073	0.4596
1064	0.4848
1055	0.4595
1046	0.3089
1037	0.3172
1028	0.4697
1019	0.5766
1010	0.6109
1001	0.6121
992	0.4909
983	0.5393
974	0.611
965	0.6428
956	0.6505
947	0.7284
938	0.7437
929	0.7448
920	0.7243
911	0.7007
902	0.7119
893	0.6819
884	0.6669
875	0.6728
866	0.6697
857	0.5765
848	0.4883
839	0.5366
830	0.593
821	0.626
812	0.6359
803	0.6288
794	0.5932
785	0.5282
776	0.4603
767	0.4429
758	0.4721
749	0.497
740	0.5055
731	0.517
722	0.5284
713	0.5336
704	0.5404
695	0.5479
686	0.56
677	0.5742
668	0.5976
659	0.5926
650	0.5959
641	0.6238
632	0.6486
623	0.6583
614	0.6548
605	0.6541
596	0.6648
587	0.7005
578	0.7081
569	0.7068
560	0.7049
551	0.7021
542	0.6975
533	0.6499
524	0.6561
515	0.693
506	0.7254
497	0.7508
488	0.7597
479	0.7591
470	0.7443
461	0.713
452	0.6942
443	0.6918
434	0.7107
425	0.7103
416	0.7054
407	0.7011
398	0.6985
389	0.6978
