Infrared Spectrum: Ammonium compounds, substituted, tetrahexyl, chloride, hydrate
Formula: C24 H52 Cl N  * x H2 O
CAS: 5922-92-9
State: LIQUID (Neat)
Class: COBLENTZ III
Instrument: DOW KBr FOREPRISM-GRATING
Instrument parameters: BLAZED AT 3.5, 12.0, 20.0 MICRON AND CHANGED AT 5.0, 7.5, 14.9 MICRON
Sampling: TRANSMISSION
Path length: Capillary
Resolution: 2
Origin: DOW CHEMICAL COMPANY
1/CM	TRANSMITTANCE
3800	0.8501
3791	0.8503
3782	0.8503
3773	0.8498
3764	0.8495
3755	0.8493
3746	0.8487
3737	0.8473
3728	0.8451
3719	0.8403
3710	0.8295
3701	0.7818
3692	0.661
3683	0.6908
3674	0.7724
3665	0.7978
3656	0.8025
3647	0.7968
3638	0.786
3629	0.7743
3620	0.7603
3611	0.7447
3602	0.7262
3593	0.706
3584	0.6851
3575	0.6654
3566	0.6424
3557	0.6186
3548	0.5947
3539	0.5708
3530	0.5438
3521	0.5183
3512	0.4875
3503	0.4635
3494	0.4462
3485	0.432
3476	0.422
3467	0.4145
3458	0.4084
3449	0.4029
3440	0.3978
3431	0.3914
3422	0.3839
3413	0.3758
3404	0.3688
3395	0.3636
3386	0.3592
3377	0.3582
3368	0.3604
3359	0.3614
3350	0.3618
3341	0.3614
3332	0.36
3323	0.3568
3314	0.353
3305	0.3489
3296	0.3464
3287	0.3466
3278	0.3497
3269	0.3612
3260	0.375
3251	0.395
3242	0.4155
3233	0.442
3224	0.4536
3215	0.4518
3206	0.4451
3197	0.4414
3188	0.4573
3179	0.484
3170	0.5117
3161	0.5401
3152	0.5657
3143	0.587
3134	0.6068
3125	0.6279
3116	0.6443
3107	0.659
3098	0.6715
3089	0.6787
3080	0.6815
3071	0.6807
3062	0.6778
3053	0.6688
3044	0.6514
3035	0.6215
3026	0.5804
3017	0.534
3008	0.4474
2999	0.2541
2990	0.1446
2981	0.1035
2972	0.0413
2963	0.0298
2954	0.0281
2945	0.0266
2936	0.0257
2927	0.0254
2918	0.0274
2909	0.0322
2900	0.0488
2891	0.0768
2882	0.0747
2873	0.0391
2864	0.0331
2855	0.0423
2846	0.1454
2837	0.3462
2828	0.4199
2819	0.4664
2810	0.5122
2801	0.5497
2792	0.5901
2783	0.6332
2774	0.6644
2765	0.6912
2756	0.7083
2747	0.7137
2738	0.705
2729	0.7035
2720	0.7261
2711	0.7538
2702	0.771
2693	0.7787
2684	0.7804
2675	0.7811
2666	0.79
2657	0.8015
2648	0.8112
2639	0.8194
2630	0.8262
2621	0.8292
2612	0.8311
2603	0.8324
2594	0.8364
2585	0.8427
2576	0.8525
2567	0.8635
2558	0.8725
2549	0.8759
2540	0.8747
2531	0.8735
2522	0.8747
2513	0.8768
2504	0.8793
2495	0.8816
2486	0.8837
2477	0.8858
2468	0.8878
2459	0.8889
2450	0.89
2441	0.8908
2432	0.8915
2423	0.8918
2414	0.8921
2405	0.8924
2396	0.8923
2387	0.8914
2378	0.8909
2369	0.8905
2360	0.8904
2351	0.8905
2342	0.895
2333	0.9028
2324	0.9016
2315	0.9018
2306	0.9056
2297	0.9021
2288	0.9024
2279	0.9028
2270	0.9034
2261	0.9037
2252	0.9041
2243	0.9042
2234	0.9037
2225	0.9012
2216	0.8998
2207	0.8982
2198	0.8981
2189	0.8981
2180	0.9006
2171	0.8974
2162	0.8954
2153	0.8974
2144	0.8963
2135	0.8939
2126	0.8924
2117	0.8918
2108	0.8921
2099	0.8947
2090	0.8978
2081	0.8971
2072	0.8968
2063	0.8994
2054	0.9021
2045	0.9051
2036	0.9081
2027	0.9097
2018	0.9113
2009	0.912
2000	0.9154
1991	0.886
1982	0.8864
1973	0.8843
1964	0.888
1955	0.8898
1946	0.8895
1937	0.8934
1928	0.8995
1919	0.9027
1910	0.905
1901	0.9063
1892	0.9068
1883	0.9064
1874	0.9067
1865	0.9081
1856	0.9092
1847	0.91
1838	0.9114
1829	0.9131
1820	0.9131
1811	0.9128
1802	0.9123
1793	0.9116
1784	0.9109
1775	0.9096
1766	0.9083
1757	0.9064
1748	0.9035
1739	0.9007
1730	0.8971
1721	0.8933
1712	0.8878
1703	0.8809
1694	0.8708
1685	0.8534
1676	0.8225
1667	0.7925
1658	0.774
1649	0.7578
1640	0.7132
1631	0.6564
1622	0.6411
1613	0.774
1604	0.826
1595	0.8568
1586	0.8691
1577	0.8725
1568	0.8733
1559	0.8691
1550	0.8623
1541	0.8536
1532	0.8418
1523	0.8258
1514	0.7895
1505	0.7058
1496	0.159
1487	0.1899
1478	0.2285
1469	0.0888
1460	0.1268
1451	0.2851
1442	0.4133
1433	0.4999
1424	0.5638
1415	0.6525
1406	0.6189
1397	0.4537
1388	0.414
1379	0.2898
1370	0.5304
1361	0.5703
1352	0.5509
1343	0.5223
1334	0.5552
1325	0.6403
1316	0.6657
1307	0.6728
1298	0.681
1289	0.7165
1280	0.7405
1271	0.7545
1262	0.7904
1253	0.7596
1244	0.7339
1235	0.77
1226	0.7838
1217	0.7519
1208	0.7719
1199	0.7971
1190	0.818
1181	0.8278
1172	0.7622
1163	0.7139
1154	0.6896
1145	0.6125
1136	0.7341
1127	0.7761
1118	0.735
1109	0.7914
1100	0.8128
1091	0.7717
1082	0.6995
1073	0.6737
1064	0.6359
1055	0.514
1046	0.4056
1037	0.55
1028	0.635
1019	0.6978
1010	0.7218
1001	0.7253
992	0.7558
983	0.7738
974	0.6899
965	0.6708
956	0.6794
947	0.6391
938	0.5779
929	0.6535
920	0.726
911	0.7584
902	0.7942
893	0.7796
884	0.7812
875	0.6789
866	0.5907
857	0.6758
848	0.8071
839	0.8521
830	0.8278
821	0.7598
812	0.7425
803	0.6918
794	0.7345
785	0.7732
776	0.7812
767	0.704
758	0.6683
749	0.6591
740	0.6169
731	0.4359
722	0.5791
713	0.7575
704	0.7818
695	0.7812
686	0.7717
677	0.7556
668	0.7364
659	0.7188
650	0.7006
641	0.6854
632	0.6761
623	0.6718
614	0.6686
605	0.6671
596	0.6676
587	0.6755
578	0.6739
569	0.6797
560	0.6828
551	0.6815
542	0.6769
533	0.675
524	0.6731
515	0.6712
506	0.67
497	0.6688
488	0.6692
479	0.6746
470	0.6836
461	0.6954
452	0.705
443	0.7131
434	0.72
425	0.7238
416	0.723
407	0.7182
398	0.7131
389	0.7089
