Infrared Spectrum: 2-Propanol, 1,1,3-tribromo-,
Formula: C3 H5 Br3 O
CAS: 59228-00-1
State: LIQUID (NEAT)
Boiling point: 106 C AT 2 mmHg
Class: COBLENTZ III
Instrument: BAIRD (GRATING)
Instrument parameters: NaCl PRISM
Path length: 0.003 CM
Resolution: 2
Origin: WYANDOTTE CHEMICALS CORP.
1/CM	TRANSMITTANCE
626	0.6311
635	0.6435
644	0.5871
653	0.5201
662	0.4855
671	0.4556
680	0.2836
689	0.1674
698	0.1296
707	0.1316
716	0.1683
725	0.1733
734	0.1206
743	0.2842
752	0.5211
761	0.6815
770	0.7505
779	0.7883
788	0.7989
797	0.8156
806	0.819
815	0.7697
824	0.4779
833	0.4942
842	0.5125
851	0.5911
860	0.5846
869	0.7734
878	0.8069
887	0.7614
896	0.6423
905	0.6715
914	0.6616
923	0.5862
932	0.4733
941	0.5201
950	0.7409
959	0.7806
968	0.7598
977	0.7256
986	0.7341
995	0.7204
1004	0.639
1013	0.47
1022	0.2163
1031	0.0661
1040	0.0721
1049	0.1606
1058	0.3119
1067	0.286
1076	0.1219
1085	0.0609
1094	0.0617
1103	0.1356
1112	0.3728
1121	0.4718
1130	0.3486
1139	0.3639
1148	0.2499
1157	0.1046
1166	0.0853
1175	0.1455
1184	0.2829
1193	0.352
1202	0.3469
1211	0.3125
1220	0.2418
1229	0.1582
1238	0.1457
1247	0.2384
1256	0.3934
1265	0.3051
1274	0.1582
1283	0.1794
1292	0.2373
1301	0.2944
1310	0.3507
1319	0.4035
1328	0.4143
1337	0.3993
1346	0.4449
1355	0.5712
1364	0.5584
1373	0.4046
1382	0.2807
1391	0.2387
1400	0.2631
1409	0.2919
1418	0.3188
1427	0.2914
1436	0.1717
1445	0.2771
1454	0.5428
1463	0.6099
1472	0.7075
1481	0.7522
1490	0.8202
1499	0.8507
1508	0.8677
1517	0.8752
1526	0.8973
1535	0.8838
1544	0.8828
1553	0.878
1562	0.9017
1571	0.9074
1580	0.9146
1589	0.9233
1598	0.9297
1607	0.9208
1616	0.9047
1625	0.8982
1634	0.898
1643	0.8987
1652	0.9041
1661	0.9039
1670	0.9054
1679	0.9137
1688	0.9153
1697	0.905
1706	0.8867
1715	0.8985
1724	0.9137
1733	0.9204
1742	0.925
1751	0.9363
1760	0.9503
1769	0.9576
1778	0.964
1787	0.9678
1796	0.9689
1805	0.9733
1814	0.9752
1823	0.9688
1832	0.9834
1841	0.9806
1850	0.9773
1859	0.9775
1868	0.9737
1877	0.9659
1886	0.9641
1895	0.9652
1904	0.9668
1913	0.9683
1922	0.9668
1931	0.9687
1940	0.9767
1949	0.9777
1958	0.9773
1967	0.9767
1976	0.9762
1985	0.9747
1994	0.9727
2003	0.9698
2012	0.966
2021	0.9624
2030	0.9605
2039	0.9593
2048	0.959
2057	0.9589
2066	0.9589
2075	0.9571
2084	0.9544
2093	0.9515
2102	0.949
2111	0.9469
2120	0.9448
2129	0.9461
2138	0.9486
2147	0.9514
2156	0.9515
2165	0.9497
2174	0.9493
2183	0.9505
2192	0.9468
2201	0.9389
2210	0.9308
2219	0.9253
2228	0.921
2237	0.9186
2246	0.9167
2255	0.9151
2264	0.914
2273	0.9131
2282	0.9126
2291	0.9137
2300	0.9184
2309	0.9414
2318	0.9449
2327	0.9433
2336	0.9389
2345	0.9332
2354	0.9263
2363	0.9198
2372	0.9135
2381	0.9072
2390	0.9018
2399	0.8971
2408	0.8927
2417	0.8885
2426	0.8859
2435	0.8833
2444	0.8824
2453	0.8825
2462	0.8831
2471	0.885
2480	0.8879
2489	0.8911
2498	0.8943
2507	0.8969
2516	0.8984
2525	0.8976
2534	0.8951
2543	0.8933
2552	0.8927
2561	0.8934
2570	0.8943
2579	0.895
2588	0.8945
2597	0.8921
2606	0.8893
2615	0.8864
2624	0.8832
2633	0.8798
2642	0.8754
2651	0.8709
2660	0.8664
2669	0.8622
2678	0.8603
2687	0.8592
2696	0.859
2705	0.8588
2714	0.8589
2723	0.8592
2732	0.8607
2741	0.8634
2750	0.8665
2759	0.8697
2768	0.8722
2777	0.8739
2786	0.873
2795	0.8693
2804	0.862
2813	0.8502
2822	0.8403
2831	0.8307
2840	0.821
2849	0.8114
2858	0.8015
2867	0.7916
2876	0.782
2885	0.7731
2894	0.76
2903	0.7343
2912	0.7028
2921	0.6825
2930	0.6732
2939	0.6759
2948	0.6822
2957	0.6944
2966	0.7154
2975	0.7307
2984	0.7236
2993	0.6713
3002	0.6202
3011	0.5982
3020	0.5868
3029	0.5499
3038	0.4834
3047	0.429
3056	0.4549
3065	0.5556
3074	0.6565
3083	0.7544
3092	0.7872
3101	0.8
3110	0.8051
3119	0.8082
3128	0.8086
3137	0.8076
3146	0.8041
3155	0.7968
3164	0.7844
3173	0.7696
3182	0.7537
3191	0.7395
3200	0.7266
3209	0.7116
3218	0.6906
3227	0.6689
3236	0.6413
3245	0.6119
3254	0.5819
3263	0.5402
3272	0.4977
3281	0.4555
3290	0.4134
3299	0.3716
3308	0.3301
3317	0.2887
3326	0.2476
3335	0.2043
3344	0.1686
3353	0.1364
3362	0.1128
3371	0.1025
3380	0.0953
3389	0.0904
3398	0.0868
3407	0.085
3416	0.0838
3425	0.0842
3434	0.0847
3443	0.0855
3452	0.0863
3461	0.0872
3470	0.0882
3479	0.0893
3488	0.0905
3497	0.0918
3506	0.0935
3515	0.0952
3524	0.0969
3533	0.0986
3542	0.1004
3551	0.1026
3560	0.1053
3569	0.1096
3578	0.1172
3587	0.1463
3596	0.2127
3605	0.2787
3614	0.3444
3623	0.4099
3632	0.4749
3641	0.5397
3650	0.6041
3659	0.6682
3668	0.7321
3677	0.7931
3686	0.8133
3695	0.8355
3704	0.8548
3713	0.8778
3722	0.8963
3731	0.9075
3740	0.9144
3749	0.9197
3758	0.9229
3767	0.926
3776	0.9288
3785	0.9313
3794	0.9338
3803	0.9362
3812	0.9385
3821	0.9403
3830	0.9422
3839	0.9439
3848	0.9454
3857	0.9461
3866	0.9465
3875	0.9461
3884	0.945
3893	0.9437
3902	0.9424
3911	0.9405
3920	0.9386
3929	0.9368
3938	0.9351
3947	0.9333
3956	0.9317
3965	0.9302
3974	0.9294
3983	0.9288
3992	0.9286
