Infrared Spectrum: Trimethyl phosphonoacetate
Formula: C 5 H 11 O 5 P
CAS: 5927-18-4
State: gas
Origin: EPA-IR VAPOR PHASE LIBRARY
1/CM	ABSORBANCE
549.8	0.00457
559.445	0.00345
569.09	0.00352
578.735	0.00326
588.38	0.00449
598.025	0.00733
607.67	0.01107
617.315	0.00996
626.96	0.00553
636.605	0.00313
646.251	0.001926
655.896	0.0017876
665.541	0.0016692
675.186	0.0017167
684.831	0.0020768
694.476	0.00293
704.121	0.00394
713.766	0.0049
723.411	0.005
733.056	0.00494
742.701	0.00614
752.346	0.0078
761.991	0.00897
771.636	0.01151
781.281	0.01921
790.926	0.03129
800.571	0.03564
810.216	0.02567
819.861	0.0203
829.507	0.02228
839.152	0.02499
848.797	0.02326
858.442	0.01776
868.087	0.01546
877.732	0.01766
887.377	0.02379
897.022	0.02586
906.667	0.01763
916.312	0.00854
925.957	0.0049
935.602	0.00396
945.247	0.00378
954.892	0.00379
964.537	0.0043
974.182	0.0053
983.827	0.00724
993.472	0.0102
1003.12	0.01613
1012.76	0.02755
1022.41	0.05031
1032.05	0.09918
1041.7	0.15947
1051.34	0.16899
1060.99	0.1452
1070.63	0.11823
1080.28	0.07097
1089.92	0.04539
1099.57	0.04184
1109.21	0.05027
1118.86	0.05538
1128.5	0.04514
1138.15	0.03076
1147.79	0.02294
1157.44	0.02006
1167.08	0.02017
1176.73	0.0223
1186.37	0.02427
1196.02	0.02416
1205.66	0.02449
1215.31	0.02663
1224.95	0.0308
1234.6	0.03732
1244.24	0.04678
1253.89	0.06066
1263.53	0.07463
1273.18	0.09095
1282.82	0.11648
1292.47	0.1187
1302.11	0.08265
1311.76	0.04883
1321.4	0.02738
1331.05	0.01495
1340.69	0.00911
1350.34	0.0067
1359.98	0.00573
1369.63	0.00537
1379.27	0.00578
1388.92	0.00742
1398.56	0.00964
1408.21	0.00977
1417.85	0.00791
1427.5	0.01021
1437.14	0.018
1446.79	0.01609
1456.43	0.01025
1466.08	0.0086
1475.73	0.00707
1485.37	0.00564
1495.02	0.00458
1504.66	0.00398
1514.31	0.00394
1523.95	0.00373
1533.6	0.00371
1543.24	0.00357
1552.89	0.00346
1562.53	0.00325
1572.18	0.00304
1581.82	0.00293
1591.47	0.00274
1601.11	0.00262
1610.76	0.00247
1620.4	0.00234
1630.05	0.0021
1639.69	0.0018939
1649.34	0.0019734
1658.98	0.00216
1668.63	0.00231
1678.27	0.0026
1687.92	0.00301
1697.56	0.00373
1707.21	0.0053
1716.85	0.00807
1726.5	0.01252
1736.14	0.02165
1745.79	0.04193
1755.43	0.07376
1765.08	0.08273
1774.72	0.05252
1784.37	0.0248
1794.01	0.01209
1803.66	0.00688
1813.3	0.00458
1822.95	0.00359
1832.59	0.00316
1842.24	0.0029
1851.88	0.00264
1861.53	0.00247
1871.17	0.00221
1880.82	0.00224
1890.46	0.00218
1900.11	0.00213
1909.75	0.0020747
1919.4	0.0018352
1929.04	0.0016853
1938.69	0.0016741
1948.33	0.0016397
1957.98	0.0016435
1967.62	0.0015338
1977.27	0.001381
1986.91	0.0014017
1996.56	0.0015197
2006.2	0.0016273
2015.85	0.0017668
2025.49	0.0018041
2035.14	0.0016487
2044.78	0.0014479
2054.43	0.0013555
2064.07	0.0013078
2073.72	0.0013572
2083.36	0.0013776
2093.01	0.0014412
2102.65	0.0014056
2112.3	0.0013098
2121.94	0.0012819
2131.59	0.0012661
2141.23	0.001252
2150.88	0.0012781
2160.52	0.00117457
2170.17	0.0010568
2179.81	0.000915
2189.46	0.000897
2199.1	0.000806
2208.75	0.000771
2218.39	0.000794
2228.04	0.000613
2237.68	0.00074
2247.33	0.000694
2256.97	0.000728
2266.62	0.000762
2276.26	0.000713
2285.91	0.0008
2295.55	0.000743
2305.2	0.000848
2314.84	0.000718
2324.49	0.00072
2334.13	0.000676
2343.78	0.000588
2353.42	0.000576
2363.07	0.000564
2372.72	0.000598
2382.36	0.00059
2392.01	0.000625
2401.65	0.000653
2411.3	0.000659
2420.94	0.000678
2430.59	0.000552
2440.23	0.00065
2449.88	0.000697
2459.52	0.000653
2469.17	0.000717
2478.81	0.000734
2488.46	0.000803
2498.1	0.000667
2507.75	0.00081
2517.39	0.000715
2527.04	0.000719
2536.68	0.000631
2546.33	0.000625
2555.97	0.000696
2565.62	0.00071
2575.26	0.000658
2584.91	0.000678
2594.55	0.000613
2604.2	0.000762
2613.84	0.000794
2623.49	0.000761
2633.13	0.000758
2642.78	0.000767
2652.42	0.000756
2662.07	0.000768
2671.71	0.00065
2681.36	0.000635
2691	0.000679
2700.65	0.000579
2710.29	0.000532
2719.94	0.000425
2729.58	0.000531
2739.23	0.000596
2748.87	0.00064
2758.52	0.000593
2768.16	0.000633
2777.81	0.000697
2787.45	0.000736
2797.1	0.000982
2806.74	0.001063
2816.39	0.001505
2826.03	0.00237
2835.68	0.00341
2845.32	0.00633
2854.97	0.01125
2864.61	0.01158
2874.26	0.00705
2883.9	0.00485
2893.55	0.00511
2903.19	0.00628
2912.84	0.00758
2922.48	0.00824
2932.13	0.00907
2941.77	0.01244
2951.42	0.02575
2961.06	0.04132
2970.71	0.03163
2980.35	0.01554
2990	0.01209
2999.64	0.01215
3009.29	0.01209
3018.93	0.01087
3028.58	0.00941
3038.22	0.00756
3047.87	0.00588
3057.51	0.00503
3067.16	0.00462
3076.8	0.00417
3086.45	0.00385
3096.09	0.00308
3105.74	0.00274
3115.38	0.00218
3125.03	0.0017978
3134.67	0.0013793
3144.32	0.00118997
3153.96	0.000902
3163.61	0.000707
3173.25	0.000626
3182.9	0.000549
3192.54	0.00042
3202.19	0.000409
3211.83	0.000206
3221.48	0.00039
3231.12	0.000365
3240.77	0.000273
3250.41	0.000226
3260.06	0.000333
3269.7	6e-05
3279.35	0.000246
3289	0.000262
3298.64	0.000212
3308.29	0.000251
3317.93	0.000362
3327.58	0.000206
3337.22	0.000118
3346.87	0.000309
3356.51	0.0001
3366.16	0.000271
3375.8	0.000228
3385.45	0.00022
3395.09	0.000225
3404.74	0.000118
3414.38	9e-05
3424.03	0.000267
3433.67	0.000287
3443.32	0.000446
3452.96	0.000322
3462.61	0.000397
3472.25	0.000374
3481.9	0.000697
3491.54	0.000872
3501.19	0.000945
3510.83	0.00094
3520.48	0.000778
3530.12	0.00053
3539.77	0.00039
3549.41	0.000279
3559.06	0.000314
3568.7	0.000276
3578.35	0.000152
3587.99	0.000429
3597.64	0.000345
3607.28	0.000395
3616.93	0.000319
3626.57	0.000284
3636.22	0.000213
3645.86	0.000281
3655.51	0.000278
3665.15	0.0004
3674.8	0.00018
3684.44	0.00021
3694.09	0.000301
3703.73	0.000383
3713.38	0.000363
3723.02	0.000398
3732.67	0.000354
3742.31	0.000177
3751.96	0.000228
3761.6	0.000589
3771.25	0.000329
3780.89	0.000386
3790.54	0.000279
3800.18	0.000321
3809.83	0.000424
3819.47	0.000405
3829.12	0.000471
3838.76	0.000311
3848.41	0.000373
3858.05	0.000576
3867.7	0.000462
3877.34	0.000494
3886.99	0.000352
3896.63	0.000625
3906.28	0.000426
3915.92	0.00061
3925.57	0.000432
3935.21	0.000572
3944.86	0.000454
3954.5	0.000498
3964.15	0.000656
3973.79	0.000712
3983.44	0.000589
3993.08	0.000647
