Infrared Spectrum: Picolinamide, 5-nitro-
Formula: C6 H5 N3 O3
CAS: 59290-34-5
State: SOLID (1 mg / 650 mg KBr DISC)
Class: COBLENTZ III
Instrument: PERKIN-ELMER 521 (GRATING)
Instrument parameters: FILTERS AT 3150, 2500, 2000, 1150, 700, 410. GRATING CHANGES: 2000, 630
Resolution: 2
Origin: SOUTHERN RESEARCH INSTITUTE
1/CM	TRANSMITTANCE
250.16	0.3781
259.173	0.4254
268.187	0.4508
277.2	0.4519
286.213	0.4413
295.227	0.5532
304.24	0.6876
313.253	0.7322
322.266	0.7644
331.28	0.7949
340.293	0.8219
349.306	0.8429
358.32	0.8596
367.333	0.872
376.346	0.8725
385.36	0.8663
394.373	0.8558
403.386	0.8364
412.399	0.8368
421.413	0.8576
430.426	0.8259
439.439	0.85
448.453	0.8553
457.466	0.8487
466.479	0.8285
475.493	0.7887
484.506	0.774
493.519	0.714
502.532	0.5049
511.546	0.6575
520.559	0.7385
529.572	0.7264
538.586	0.668
547.599	0.5693
556.612	0.55
565.626	0.4546
574.639	0.3577
583.652	0.3202
592.665	0.457
601.679	0.6825
610.692	0.7417
619.705	0.7396
628.719	0.8418
637.732	0.8733
646.745	0.8734
655.759	0.8689
664.772	0.8297
673.785	0.8962
682.799	0.9206
691.812	0.9188
700.825	0.9166
709.838	0.9031
718.852	0.7009
727.865	0.8753
736.878	0.9039
745.892	0.8899
754.905	0.8464
763.918	0.6832
772.932	0.4945
781.945	0.6784
790.958	0.8162
799.971	0.8296
808.985	0.6898
817.998	0.8319
827.011	0.8835
836.025	0.8748
845.038	0.8114
854.051	0.6284
863.065	0.7334
872.078	0.635
881.091	0.952
890.104	0.9608
899.118	0.9619
908.131	0.9594
917.144	0.9519
926.158	0.9404
935.171	0.9179
944.184	0.8439
953.198	0.8854
962.211	0.9357
971.224	0.9277
980.237	0.9126
989.251	0.9017
998.264	0.8925
1007.28	0.8325
1016.29	0.7004
1025.3	0.9157
1034.32	0.8979
1043.33	0.8888
1052.34	0.8732
1061.36	0.865
1070.37	0.8397
1079.38	0.8031
1088.4	0.7708
1097.41	0.7615
1106.42	0.7207
1115.44	0.7979
1124.45	0.8197
1133.46	0.8166
1142.48	0.7977
1151.49	0.7729
1160.5	0.7511
1169.52	0.7695
1178.53	0.7929
1187.54	0.8013
1196.56	0.7954
1205.57	0.7836
1214.58	0.7881
1223.6	0.7801
1232.61	0.7482
1241.62	0.6979
1250.64	0.5587
1259.65	0.635
1268.66	0.7309
1277.68	0.5735
1286.69	0.672
1295.7	0.7397
1304.72	0.6865
1313.73	0.583
1322.74	0.4694
1331.76	0.3192
1340.77	0.191
1349.78	0.0942
1358.8	0.2852
1367.81	0.4595
1376.82	0.6652
1385.84	0.8249
1394.85	0.7725
1403.86	0.6458
1412.88	0.5134
1421.89	0.2987
1430.9	0.7256
1439.92	0.7904
1448.93	0.7955
1457.94	0.7907
1466.96	0.7702
1475.97	0.7859
1484.98	0.7601
1494	0.7252
1503.01	0.6524
1512.02	0.5392
1521.04	0.2273
1530.05	0.3931
1539.06	0.7094
1548.08	0.7241
1557.09	0.6631
1566.1	0.4995
1575.12	0.3478
1584.13	0.4097
1593.14	0.1427
1602.16	0.1969
1611.17	0.5918
1620.18	0.7384
1629.2	0.7581
1638.21	0.7154
1647.22	0.617
1656.24	0.5028
1665.25	0.2594
1674.26	0.0965
1683.28	0.1631
1692.29	0.3437
1701.3	0.4754
1710.31	0.664
1719.33	0.7853
1728.34	0.8743
1737.35	0.9041
1746.37	0.9033
1755.38	0.9149
1764.39	0.9491
1773.41	0.9646
1782.42	0.9796
1791.43	0.9899
1800.45	0.9977
1809.46	1.002
1818.47	1.0005
1827.49	1.0003
1836.5	0.9991
1845.51	0.9918
1854.53	0.9745
1863.54	0.981
1872.55	0.9876
1881.57	0.9815
1890.58	0.9724
1899.59	0.9692
1908.61	0.9817
1917.62	0.9883
1926.63	0.9846
1935.65	0.981
1944.66	0.9796
1953.67	0.978
1962.69	0.9665
1971.7	0.936
1980.71	0.9618
1989.73	0.9715
1998.74	0.9668
2007.75	0.965
2016.77	0.965
2025.78	0.9639
2034.79	0.9626
2043.81	0.96
2052.82	0.9578
2061.83	0.9564
2070.85	0.9549
2079.86	0.9531
2088.87	0.9514
2097.89	0.9497
2106.9	0.9475
2115.91	0.945
2124.93	0.942
2133.94	0.9386
2142.95	0.935
2151.97	0.9332
2160.98	0.9317
2169.99	0.9304
2179.01	0.9292
2188.02	0.928
2197.03	0.9254
2206.05	0.9214
2215.06	0.9173
2224.07	0.9129
2233.09	0.9106
2242.1	0.9099
2251.11	0.9105
2260.13	0.9105
2269.14	0.9117
2278.15	0.9129
2287.17	0.912
2296.18	0.9107
2305.19	0.9087
2314.21	0.9061
2323.22	0.9028
2332.23	0.8993
2341.25	0.8964
2350.26	0.8936
2359.27	0.8925
2368.29	0.8919
2377.3	0.8919
2386.31	0.8916
2395.33	0.89
2404.34	0.8881
2413.35	0.8868
2422.37	0.8848
2431.38	0.881
2440.39	0.8778
2449.41	0.8745
2458.42	0.8697
2467.43	0.8674
2476.45	0.8663
2485.46	0.8664
2494.47	0.8675
2503.49	0.8679
2512.5	0.8677
2521.51	0.867
2530.53	0.866
2539.54	0.8637
2548.55	0.861
2557.57	0.858
2566.58	0.8552
2575.59	0.8523
2584.61	0.8501
2593.62	0.8481
2602.63	0.8464
2611.65	0.8448
2620.66	0.8429
2629.67	0.8373
2638.69	0.8351
2647.7	0.8313
2656.71	0.8273
2665.73	0.8239
2674.74	0.8208
2683.75	0.8188
2692.76	0.8178
2701.78	0.8153
2710.79	0.8092
2719.8	0.7995
2728.82	0.7867
2737.83	0.7726
2746.84	0.7664
2755.86	0.7701
2764.87	0.7839
2773.88	0.7912
2782.9	0.7923
2791.91	0.7895
2800.92	0.7878
2809.94	0.786
2818.95	0.7787
2827.96	0.7685
2836.98	0.7639
2845.99	0.7497
2855	0.7455
2864.02	0.7534
2873.03	0.7585
2882.04	0.7549
2891.06	0.7502
2900.07	0.7445
2909.08	0.7363
2918.1	0.725
2927.11	0.7147
2936.12	0.7088
2945.14	0.7008
2954.15	0.6931
2963.16	0.6853
2972.18	0.6758
2981.19	0.6642
2990.2	0.6534
2999.22	0.6422
3008.23	0.6167
3017.24	0.595
3026.26	0.5796
3035.27	0.5757
3044.28	0.5702
3053.3	0.5563
3062.31	0.5379
3071.32	0.5182
3080.34	0.4964
3089.35	0.4558
3098.36	0.4259
3107.38	0.4558
3116.39	0.434
3125.4	0.4014
3134.42	0.3687
3143.43	0.3601
3152.44	0.3653
3161.46	0.3791
3170.47	0.3971
3179.48	0.4435
3188.5	0.4768
3197.51	0.5007
3206.52	0.5403
3215.54	0.5716
3224.55	0.6114
3233.56	0.6268
3242.58	0.629
3251.59	0.6247
3260.6	0.6094
3269.62	0.591
3278.63	0.5952
3287.64	0.6415
3296.66	0.6806
3305.67	0.707
3314.68	0.7092
3323.7	0.7041
3332.71	0.6877
3341.72	0.6608
3350.74	0.6293
3359.75	0.6115
3368.76	0.5727
3377.78	0.5216
3386.79	0.4537
3395.8	0.3628
3404.82	0.2389
3413.83	0.259
3422.84	0.3716
3431.86	0.5657
3440.87	0.6633
3449.88	0.7009
3458.9	0.7607
3467.91	0.7838
3476.92	0.7946
3485.94	0.7978
3494.95	0.8007
3503.96	0.8032
3512.98	0.8085
3521.99	0.8193
3531	0.824
3540.02	0.8277
3549.03	0.8297
3558.04	0.8304
3567.06	0.8306
3576.07	0.8312
3585.08	0.8322
3594.1	0.8335
3603.11	0.8345
3612.12	0.8356
3621.14	0.8367
3630.15	0.8372
3639.16	0.8368
3648.17	0.8324
3657.19	0.8265
3666.2	0.8268
3675.21	0.8282
3684.23	0.8291
3693.24	0.8291
3702.25	0.8287
3711.27	0.8276
3720.28	0.826
3729.29	0.8238
3738.31	0.823
3747.32	0.8229
3756.33	0.8225
3765.35	0.8221
3774.36	0.8211
3783.37	0.8176
3792.39	0.8134
3801.4	0.8119
