Infrared Spectrum: 2,7-Dimethyl-octa-3,5-diyne-2,7-diol
Formula: C 10 H 14 O 2
CAS: 5929-72-6
State: gas
Origin: EPA-IR VAPOR PHASE LIBRARY
1/CM	ABSORBANCE
549.8	0.00354
559.445	0.00409
569.09	0.004
578.734	0.00309
588.379	0.00305
598.024	0.003
607.669	0.00223
617.313	0.0017183
626.958	0.0019066
636.603	0.0016745
646.248	0.0015276
655.893	0.00309
665.537	0.0016759
675.182	0.0018019
684.827	0.0016036
694.472	0.001512
704.116	0.0018086
713.761	0.0017897
723.406	0.0015203
733.051	0.0012959
742.695	0.000774
752.34	0.0017368
761.985	0.00115748
771.63	0.0012123
781.275	0.000494
790.919	0.0010666
800.564	0.000769
810.209	0.00117788
819.854	0.0018957
829.498	0.0018351
839.143	0.0016114
848.788	0.00224
858.433	0.00235
868.078	0.00222
877.722	0.00378
887.367	0.00653
897.012	0.00434
906.657	0.00326
916.301	0.00341
925.946	0.00576
935.591	0.0086
945.236	0.01203
954.88	0.01204
964.525	0.00729
974.17	0.00441
983.815	0.00234
993.46	0.0019961
1003.1	0.0015851
1012.75	0.0020996
1022.39	0.0014031
1032.04	0.0010453
1041.68	0.00214
1051.33	0.00229
1060.97	0.00296
1070.62	0.00284
1080.26	0.00438
1089.91	0.00522
1099.55	0.0054
1109.2	0.0072
1118.84	0.00961
1128.49	0.0091
1138.13	0.01165
1147.78	0.01579
1157.42	0.02065
1167.07	0.0211
1176.71	0.01741
1186.36	0.01259
1196	0.01441
1205.64	0.01607
1215.29	0.01659
1224.93	0.01138
1234.58	0.00898
1244.22	0.00936
1253.87	0.00774
1263.51	0.00722
1273.16	0.00662
1282.8	0.00722
1292.45	0.008
1302.09	0.00948
1311.74	0.01138
1321.38	0.01345
1331.03	0.01343
1340.67	0.01118
1350.32	0.00947
1359.96	0.00929
1369.61	0.00907
1379.25	0.0082
1388.9	0.00607
1398.54	0.00322
1408.18	0.00229
1417.83	0.00223
1427.47	0.00228
1437.12	0.00258
1446.76	0.00303
1456.41	0.00296
1466.05	0.00276
1475.7	0.0020533
1485.34	0.0015352
1494.99	0.0014695
1504.63	0.0012996
1514.28	0.00115419
1523.92	0.00111315
1533.57	0.001402
1543.21	0.001208
1552.86	0.0013057
1562.5	0.0013592
1572.15	0.000862
1581.79	0.000866
1591.44	0.0012424
1601.08	0.000602
1610.73	0.0012395
1620.37	0.00109254
1630.01	0.000809
1639.66	0.001054
1649.3	0.000983
1658.95	0.00086
1668.59	0.00114818
1678.24	0.00110134
1687.88	0.000891
1697.53	0.000849
1707.17	0.000897
1716.82	0.0014282
1726.46	0.000965
1736.11	0.000831
1745.75	0.000796
1755.4	0.000638
1765.04	0.000872
1774.69	0.0010066
1784.33	0.000952
1793.98	0.000783
1803.62	0.000955
1813.27	0.0010824
1822.91	0.000941
1832.55	0.000951
1842.2	0.000917
1851.84	0.000973
1861.49	0.000838
1871.13	0.000873
1880.78	0.00112555
1890.42	0.0010721
1900.07	0.000945
1909.71	0.000877
1919.36	0.000726
1929	0.00071
1938.65	0.000821
1948.29	0.0010364
1957.94	0.00075
1967.58	0.000794
1977.23	0.000861
1986.87	0.00082
1996.52	0.000878
2006.16	0.000848
2015.81	0.00055
2025.45	0.000813
2035.1	0.000981
2044.74	0.000818
2054.38	0.000949
2064.03	0.000827
2073.67	0.000961
2083.32	0.000975
2092.96	0.000964
2102.61	0.000742
2112.25	0.0013032
2121.9	0.001538
2131.54	0.0019216
2141.19	0.00223
2150.83	0.0019802
2160.48	0.0015882
2170.12	0.0010104
2179.77	0.000897
2189.41	0.0010412
2199.06	0.000872
2208.7	0.00086
2218.35	0.00118381
2227.99	0.000846
2237.64	0.000992
2247.28	0.000791
2256.92	0.000987
2266.57	0.000889
2276.21	0.0010209
2285.86	0.000849
2295.5	0.000907
2305.15	0.000846
2314.79	0.00072
2324.44	0.00111828
2334.08	0.000996
2343.73	0.000735
2353.37	0.000924
2363.02	0.0012323
2372.66	0.000923
2382.31	0.000959
2391.95	0.000765
2401.6	0.000862
2411.24	0.00111272
2420.89	0.000901
2430.53	0.000971
2440.18	0.00086
2449.82	0.000807
2459.47	0.000965
2469.11	0.000543
2478.75	0.000691
2488.4	0.00119044
2498.04	0.000724
2507.69	0.000844
2517.33	0.000927
2526.98	0.000932
2536.62	0.000907
2546.27	0.000812
2555.91	0.0010061
2565.56	0.000906
2575.2	0.000884
2584.85	0.000853
2594.49	0.0010243
2604.14	0.000935
2613.78	0.0010517
2623.43	0.00079
2633.07	0.000863
2642.72	0.000811
2652.36	0.00062
2662.01	0.000567
2671.65	0.000913
2681.29	0.000696
2690.94	0.00109452
2700.58	0.000977
2710.23	0.000654
2719.87	0.0012021
2729.52	0.000713
2739.16	0.000995
2748.81	0.000777
2758.45	0.000787
2768.1	0.000723
2777.74	0.000865
2787.39	0.0012336
2797.03	0.0011662
2806.68	0.0010263
2816.32	0.00113993
2825.97	0.000949
2835.61	0.0013328
2845.26	0.0016702
2854.9	0.0018534
2864.55	0.00228
2874.19	0.0032
2883.84	0.0034
2893.48	0.00289
2903.12	0.00312
2912.77	0.00335
2922.41	0.00489
2932.06	0.00669
2941.7	0.00942
2951.35	0.00652
2960.99	0.00414
2970.64	0.00673
2980.28	0.01533
2989.93	0.02884
2999.57	0.01407
3009.22	0.00558
3018.86	0.00256
3028.51	0.0019081
3038.15	0.0014657
3047.8	0.0012035
3057.44	0.000763
3067.09	0.000939
3076.73	0.0013983
3086.38	0.000868
3096.02	0.000914
3105.67	0.000717
3115.31	0.0012161
3124.95	0.000772
3134.6	0.0012297
3144.24	0.000613
3153.89	0.000512
3163.53	0.000206
3173.18	0.0012083
3182.82	0.00119763
3192.47	0.00116998
3202.11	0.00117304
3211.76	0.00117931
3221.4	0.000676
3231.05	0.00038
3240.69	0.000801
3250.34	0.000308
3259.98	0.00076
3269.63	0.000883
3279.27	0.000515
3288.92	0.00115254
3298.56	6e-05
3308.21	0.0010446
3317.85	0.000589
3327.49	0.000481
3337.14	0.0012253
3346.78	0.000855
3356.43	0.000899
3366.07	0.000561
3375.72	0.000608
3385.36	0.0012381
3395.01	0.0013809
3404.65	0.0013768
3414.3	0.0015708
3423.94	0.0016097
3433.59	0.000965
3443.23	0.0012707
3452.88	0.000826
3462.52	0.000967
3472.17	0.000987
3481.81	0.000386
3491.46	0.0012749
3501.1	0.000754
3510.75	0.0015832
3520.39	0.000692
3530.04	0.000827
3539.68	0.000965
3549.32	0.000945
3558.97	0.0016011
3568.61	0.000539
3578.26	0.00085
3587.9	0.0010233
3597.55	0.00145
3607.19	0.000761
3616.84	0.0020287
3626.48	0.00371
3636.13	0.00679
3645.77	0.0054
3655.42	0.00322
3665.06	0.0020369
3674.71	0.000777
3684.35	0.000564
3694	0.0010316
3703.64	0.000648
3713.29	0.000952
3722.93	0.0010758
3732.58	0.000969
3742.22	0.00113288
3751.86	0.0017319
3761.51	0.000539
3771.15	0.000717
3780.8	0.000967
3790.44	0.0017423
3800.09	0.00112542
3809.73	0.0010506
3819.38	0.000627
3829.02	0.0013499
3838.67	0.000905
3848.31	0.000772
3857.96	0.0011359
3867.6	0.000949
3877.25	0.00114133
3886.89	0.0016895
3896.54	0.000944
3906.18	0.00117037
3915.83	0.0012029
3925.47	0.00113595
3935.12	0.00115303
3944.76	0.0010695
3954.41	0.001348
3964.05	0.00099
3973.69	0.00079
3983.34	0.000848
3992.98	0.00078
