Infrared Spectrum: 2,4-Dichlorobenzyl mercaptan
Formula: C 7 H 6 Cl 2 S
CAS: 59293-67-3
State: gas
Origin: EPA-IR VAPOR PHASE LIBRARY
1/CM	ABSORBANCE
549.9	0.02578
559.547	0.0259
569.193	0.01377
578.84	0.00798
588.486	0.00652
598.133	0.00602
607.779	0.00665
617.426	0.00863
627.072	0.01617
636.719	0.04428
646.365	0.05009
656.012	0.02435
665.658	0.02521
675.305	0.0338
684.951	0.0229
694.598	0.01739
704.245	0.02132
713.891	0.03421
723.538	0.05576
733.184	0.07221
742.831	0.06043
752.477	0.035
762.124	0.02362
771.77	0.0224
781.417	0.0265
791.063	0.03206
800.71	0.04615
810.356	0.08802
820.003	0.13388
829.649	0.15786
839.296	0.2501
848.943	0.21843
858.589	0.1264
868.236	0.13563
877.882	0.0704
887.529	0.02752
897.175	0.01733
906.822	0.01354
916.468	0.01164
926.115	0.01078
935.761	0.01037
945.408	0.01138
955.054	0.01351
964.701	0.01886
974.347	0.02395
983.994	0.02129
993.64	0.01585
1003.29	0.0124
1012.93	0.01094
1022.58	0.01257
1032.23	0.02731
1041.87	0.08452
1051.52	0.12742
1061.17	0.07305
1070.81	0.03154
1080.46	0.03848
1090.11	0.0967
1099.75	0.17818
1109.4	0.13962
1119.05	0.07329
1128.69	0.05386
1138.34	0.0513
1147.99	0.0422
1157.63	0.02507
1167.28	0.01899
1176.92	0.01821
1186.57	0.01966
1196.22	0.02117
1205.86	0.01944
1215.51	0.01657
1225.16	0.01924
1234.8	0.02906
1244.45	0.04946
1254.1	0.04857
1263.74	0.0303
1273.39	0.02186
1283.04	0.02104
1292.68	0.01845
1302.33	0.01225
1311.98	0.0104
1321.62	0.00998
1331.27	0.00918
1340.92	0.01048
1350.56	0.0146
1360.21	0.02601
1369.86	0.05757
1379.5	0.09344
1389.15	0.07719
1398.79	0.04026
1408.44	0.03192
1418.09	0.05067
1427.73	0.06002
1437.38	0.06232
1447.03	0.06851
1456.67	0.11214
1466.32	0.30526
1475.97	0.33652
1485.61	0.11898
1495.26	0.07038
1504.91	0.05302
1514.55	0.03007
1524.2	0.02065
1533.85	0.02236
1543.49	0.03934
1553.14	0.07398
1562.79	0.09155
1572.43	0.09327
1582.08	0.13945
1591.73	0.1557
1601.37	0.07757
1611.02	0.02452
1620.67	0.01494
1630.31	0.0134
1639.96	0.01225
1649.6	0.01015
1659.25	0.00799
1668.9	0.00689
1678.54	0.00611
1688.19	0.00588
1697.84	0.00596
1707.48	0.0063
1717.13	0.00885
1726.78	0.01525
1736.42	0.01736
1746.07	0.01204
1755.72	0.01017
1765.36	0.00853
1775.01	0.00628
1784.66	0.0052134
1794.3	0.0047564
1803.95	0.0048757
1813.6	0.0052402
1823.24	0.0046588
1832.89	0.004209
1842.54	0.004165
1852.18	0.004333
1861.83	0.0052974
1871.47	0.00784
1881.12	0.01206
1890.77	0.01218
1900.41	0.00777
1910.06	0.0050035
1919.71	0.004451
1929.35	0.004354
1939	0.004419
1948.65	0.004483
1958.29	0.004328
1967.94	0.004239
1977.59	0.004274
1987.23	0.00414
1996.88	0.003867
2006.53	0.00357
2016.17	0.00355
2025.82	0.00345
2035.47	0.00343
2045.11	0.00332
2054.76	0.00321
2064.41	0.00313
2074.05	0.00309
2083.7	0.00311
2093.35	0.00312
2102.99	0.00315
2112.64	0.00311
2122.28	0.00314
2131.93	0.00313
2141.58	0.00323
2151.22	0.00322
2160.87	0.00315
2170.52	0.00309
2180.16	0.00317
2189.81	0.00334
2199.46	0.00349
2209.1	0.00344
2218.75	0.00345
2228.4	0.00344
2238.04	0.00344
2247.69	0.0034
2257.34	0.00344
2266.98	0.0034
2276.63	0.00351
2286.28	0.003708
2295.92	0.003825
2305.57	0.003869
2315.22	0.003836
2324.86	0.003782
2334.51	0.003754
2344.16	0.00351
2353.8	0.00316
2363.45	0.00308
2373.09	0.00323
2382.74	0.00348
2392.39	0.00352
2402.03	0.0035
2411.68	0.00344
2421.33	0.0034
2430.97	0.00327
2440.62	0.00317
2450.27	0.00297
2459.91	0.00295
2469.56	0.00292
2479.21	0.00303
2488.85	0.00317
2498.5	0.00324
2508.15	0.00338
2517.79	0.003604
2527.44	0.003633
2537.09	0.00357
2546.73	0.00346
2556.38	0.00327
2566.03	0.00325
2575.67	0.004046
2585.32	0.00642
2594.96	0.007
2604.61	0.0045341
2614.26	0.003606
2623.9	0.003697
2633.55	0.00394
2643.2	0.003973
2652.84	0.003873
2662.49	0.003917
2672.14	0.004436
2681.78	0.0048857
2691.43	0.0048355
2701.08	0.004138
2710.72	0.003701
2720.37	0.00334
2730.02	0.00303
2739.66	0.00253
2749.31	0.0022
2758.96	0.0021
2768.6	0.00197
2778.25	0.00206
2787.9	0.00212
2797.54	0.00237
2807.19	0.00254
2816.84	0.00258
2826.48	0.00295
2836.13	0.003685
2845.77	0.00458542
2855.42	0.0054553
2865.07	0.0051922
2874.71	0.003971
2884.36	0.00295
2894.01	0.00254
2903.65	0.00292
2913.3	0.003824
2922.95	0.00608
2932.59	0.01146
2942.24	0.022
2951.89	0.03595
2961.53	0.03064
2971.18	0.01409
2980.83	0.00798
2990.47	0.00745
3000.12	0.0069
3009.77	0.00756
3019.41	0.00993
3029.06	0.01035
3038.71	0.00807
3048.35	0.00834
3058	0.01335
3067.64	0.01547
3077.29	0.01254
3086.94	0.00877
3096.58	0.00353
3106.23	0.00194
3115.88	0.00125
3125.52	0.00091
3135.17	0.00077
3144.82	0.00073
3154.46	0.00078
3164.11	0.00059
3173.76	0.00062
3183.4	0.0003
3193.05	0.00019
3202.7	0.00016
3212.34	0.00027
3221.99	5e-05
3231.64	0.00029
3241.28	0.00033
3250.93	0.00013
3260.58	0.00042
3270.22	0.00043
3279.87	0.00037
3289.52	0.00046
3299.16	0.00051
3308.81	0.00077
3318.45	0.00076
3328.1	0.00077
3337.75	0.0007
3347.39	0.00077
3357.04	0.00078
3366.69	0.00105
3376.33	0.00127
3385.98	0.00103
3395.63	0.00112
3405.27	0.00104
3414.92	0.00122
3424.57	0.00123
3434.21	0.00143
3443.86	0.00146
3453.51	0.0015
3463.15	0.00166
3472.8	0.00171
3482.45	0.00179
3492.09	0.00188
3501.74	0.00179
3511.39	0.00181
3521.03	0.00195
3530.68	0.00209
3540.33	0.00244
3549.97	0.00281
3559.62	0.00321
3569.26	0.00302
3578.91	0.00263
3588.56	0.00238
3598.2	0.00224
3607.85	0.00233
3617.5	0.00236
3627.14	0.00231
3636.79	0.00249
3646.44	0.00255
3656.08	0.00249
3665.73	0.00273
3675.38	0.00267
3685.02	0.00283
3694.67	0.00276
3704.32	0.00302
3713.96	0.00282
3723.61	0.00297
3733.26	0.00309
3742.9	0.00304
3752.55	0.00316
3762.2	0.00316
3771.84	0.00306
3781.49	0.0029
3791.13	0.00275
3800.78	0.00292
3810.43	0.00278
3820.07	0.00262
3829.72	0.00274
3839.37	0.00273
3849.01	0.00258
3858.66	0.00268
3868.31	0.00271
3877.95	0.00272
3887.6	0.00282
3897.25	0.0028
3906.89	0.00307
3916.54	0.003613
3926.19	0.003792
3935.83	0.00345
3945.48	0.00297
3955.13	0.00281
3964.77	0.00261
3974.42	0.00269
3984.07	0.00247
3993.71	0.00245
