Infrared Spectrum: 2-Tridecanone
Formula: C 13 H 26 O
CAS: 593-08-8
State: gas
Instrument: HP-GC/MS/IRD
Origin: NIST Mass Spectrometry Data Center
1/CM	ABSORBANCE
550	0.0006344
562	0.0002745
574	0.0003782
586	0.0006954
598	0.0006527
610	0.0002928
622	9.15e-05
634	4.88e-05
646	4.27e-05
658	0
670	0.0001037
682	0.0001647
694	0.0004148
706	0.0008723
718	0.0012566
730	0.0010431
742	0.0006954
754	0.0005124
766	0.0004026
778	0.0003538
790	0.000366
802	0.000305
814	0.0003233
826	0.0002135
838	0.000244
850	0.0002623
862	0.0002745
874	0.0002989
886	0.0004087
898	0.0004331
910	0.0005429
922	0.0006771
934	0.0008479
946	0.0009455
958	0.0009577
970	0.0008906
982	0.0007198
994	0.0006283
1006	0.0005978
1018	0.0005917
1030	0.0005429
1042	0.0005368
1054	0.0005917
1066	0.0007198
1078	0.0006954
1090	0.0006954
1102	0.0008113
1114	0.0011224
1126	0.0015189
1138	0.0024827
1150	0.0047519
1162	0.0059231
1174	0.0047702
1186	0.0037027
1198	0.0032818
1210	0.003233
1222	0.0031232
1234	0.0025864
1246	0.0021228
1258	0.0019703
1270	0.0019642
1282	0.0019886
1294	0.0021228
1306	0.0023241
1318	0.0024644
1330	0.0030683
1342	0.0048922
1354	0.0081191
1366	0.0083692
1378	0.0048312
1390	0.0030134
1402	0.0024034
1414	0.002745
1426	0.0030073
1438	0.0034526
1450	0.0048007
1462	0.0056669
1474	0.0036356
1486	0.0017385
1498	0.0010736
1510	0.0008113
1522	0.0007259
1534	0.0006161
1546	0.0005612
1558	0.0005063
1570	0.0004392
1582	0.0004026
1594	0.0003538
1606	0.0003355
1618	0.0002745
1630	0.0003172
1642	0.0003782
1654	0.0005429
1666	0.0008479
1678	0.001464
1690	0.0027511
1702	0.0051362
1714	0.0095221
1726	0.0160003
1738	0.0146949
1750	0.0072834
1762	0.0034343
1774	0.0016165
1786	0.0008113
1798	0.0004453
1810	0.0002989
1822	0.0002074
1834	0.0001647
1846	0.0001464
1858	0.0001037
1870	7.32e-05
1882	8.54e-05
1894	7.32e-05
1906	3.66e-05
1918	4.27e-05
1930	2.44e-05
1942	2.44e-05
1954	1.83e-05
1966	2.44e-05
1978	6.1e-06
1990	6.1e-06
2002	1.22e-05
2014	5.49e-05
2026	4.27e-05
2038	5.49e-05
2050	5.49e-05
2062	6.71e-05
2074	6.71e-05
2086	6.71e-05
2098	7.32e-05
2110	3.66e-05
2122	4.27e-05
2134	6.1e-05
2146	3.66e-05
2158	4.27e-05
2170	6.71e-05
2182	3.66e-05
2194	3.05e-05
2206	3.05e-05
2218	2.44e-05
2230	6.1e-06
2242	0
2254	1.83e-05
2266	1.83e-05
2278	3.66e-05
2290	3.05e-05
2302	5.49e-05
2314	6.1e-05
2326	5.49e-05
2338	3.05e-05
2350	3.05e-05
2362	1.83e-05
2374	3.05e-05
2386	1.22e-05
2398	0
2410	2.44e-05
2422	3.05e-05
2434	1.83e-05
2446	2.44e-05
2458	6.1e-06
2470	0
2482	4.27e-05
2494	6.1e-05
2506	5.49e-05
2518	9.76e-05
2530	0.000122
2542	0.0001159
2554	0.0001159
2566	0.0001403
2578	0.0001525
2590	0.0001769
2602	0.0002013
2614	0.0002501
2626	0.0002806
2638	0.0003355
2650	0.0003721
2662	0.0004331
2674	0.000549
2686	0.0005734
2698	0.0005368
2710	0.000488
2722	0.0005307
2734	0.0005856
2746	0.0006649
2758	0.0007198
2770	0.0008357
2782	0.0010614
2794	0.0013908
2806	0.0019032
2818	0.0026291
2830	0.0037393
2842	0.0064294
2854	0.0152866
2866	0.0228262
2878	0.0172386
2890	0.0149694
2902	0.0185623
2914	0.0292495
2926	0.0524112
2938	0.057523
2950	0.0349896
2962	0.0238144
2974	0.0165188
2986	0.007808
2998	0.0047214
3010	0.0036173
3022	0.0026413
3034	0.001891
3046	0.0014762
3058	0.0012444
3070	0.0010492
3082	0.0009089
3094	0.0007137
3106	0.0005795
3118	0.000488
3130	0.0004087
3142	0.0003355
3154	0.0002745
3166	0.0002135
3178	0.0001952
3190	0.0001647
3202	0.0001586
3214	7.32e-05
3226	6.71e-05
3238	6.1e-05
3250	2.44e-05
3262	4.88e-05
3274	3.66e-05
3286	2.44e-05
3298	1.83e-05
3310	4.88e-05
3322	6.1e-06
3334	6.71e-05
3346	2.44e-05
3358	5.49e-05
3370	6.1e-05
3382	6.1e-05
3394	0.0001098
3406	0.000122
3418	0.0002257
3430	0.0002806
3442	0.0003294
3454	0.0003294
3466	0.0001464
3478	0.0001159
3490	9.15e-05
3502	4.88e-05
3514	1.83e-05
3526	0
3538	0
3550	0
3562	6.1e-06
3574	6.1e-05
3586	3.05e-05
3598	6.71e-05
3610	4.27e-05
3622	7.93e-05
3634	7.32e-05
3646	7.93e-05
3658	0.0001037
3670	0.0001159
3682	9.76e-05
3694	6.71e-05
3706	7.32e-05
3718	6.71e-05
3730	5.49e-05
3742	4.27e-05
3754	7.93e-05
3766	7.93e-05
3778	7.93e-05
3790	8.54e-05
3802	0.0001098
3814	9.15e-05
3826	4.27e-05
3838	8.54e-05
