Infrared Spectrum: METHANAMINE,N,N-DIMETHYL-,HYDROCHLORIDE
Formula: C3 H10 Cl N
CAS: 593-81-7
State: SOLID (KBr DISC)
Class: COBLENTZ III
Instrument: PERKIN-ELMER 157
Sampling: TRANSMISSION
Resolution: 2
Origin: BRITISH PETROLEUM CO. LTD., ENGLAND
1/CM	TRANSMITTANCE
668	0.9253
677	0.9011
686	0.8789
695	0.8632
704	0.8582
713	0.847
722	0.836
731	0.8222
740	0.8098
749	0.8005
758	0.7994
767	0.7859
776	0.7861
785	0.7847
794	0.7715
803	0.6827
812	0.4764
821	0.5176
830	0.7702
839	0.7813
848	0.7774
857	0.7652
866	0.7513
875	0.7515
884	0.7505
893	0.7501
902	0.7395
911	0.7277
920	0.7118
929	0.6896
938	0.6601
947	0.6255
956	0.5795
965	0.4709
974	0.2118
983	0.0111
992	0.0889
1001	0.5029
1010	0.6121
1019	0.645
1028	0.6617
1037	0.6722
1046	0.6543
1055	0.4286
1064	0.4728
1073	0.6858
1082	0.6959
1091	0.6741
1100	0.6398
1109	0.6343
1118	0.6333
1127	0.6225
1136	0.61
1145	0.5984
1154	0.5786
1163	0.5776
1172	0.5952
1181	0.6079
1190	0.6103
1199	0.6083
1208	0.6047
1217	0.5976
1226	0.5832
1235	0.4923
1244	0.3365
1253	0.0497
1262	0.3319
1271	0.6184
1280	0.6046
1289	0.5655
1298	0.5439
1307	0.5103
1316	0.4766
1325	0.4561
1334	0.4342
1343	0.4195
1352	0.4072
1361	0.3734
1370	0.3537
1379	0.3226
1388	0.3047
1397	0.1455
1406	0.2729
1415	0.1921
1424	0.0756
1433	0.3551
1442	0.3548
1451	0.1343
1460	0.0274
1469	0.0215
1478	0.025
1487	0.0609
1496	0.2686
1505	0.3437
1514	0.3679
1523	0.3712
1532	0.4152
1541	0.4571
1550	0.4706
1559	0.4723
1568	0.4735
1577	0.4734
1586	0.4729
1595	0.4965
1604	0.5256
1613	0.5489
1622	0.5619
1631	0.5698
1640	0.5894
1649	0.6028
1658	0.6068
1667	0.6082
1676	0.6077
1685	0.5999
1694	0.5874
1703	0.5789
1712	0.5674
1721	0.5652
1730	0.5625
1739	0.553
1748	0.5461
1757	0.5444
1766	0.5442
1775	0.5439
1784	0.5427
1793	0.5437
1802	0.5444
1811	0.5515
1820	0.5601
1829	0.5671
1838	0.5723
1847	0.5767
1856	0.5776
1865	0.5767
1874	0.5735
1883	0.5687
1892	0.5669
1901	0.5662
1910	0.5661
1919	0.5664
1928	0.5665
1937	0.5605
1946	0.5562
1955	0.554
1964	0.5527
1973	0.5509
1982	0.5468
1991	0.5421
2000	0.5352
2009	0.5286
2018	0.5265
2027	0.5073
2036	0.4981
2045	0.4909
2054	0.4894
2063	0.4891
2072	0.4881
2081	0.4804
2090	0.4686
2099	0.4499
2108	0.4183
2117	0.4017
2126	0.4217
2135	0.4455
2144	0.4443
2153	0.4414
2162	0.4357
2171	0.4261
2180	0.4135
2189	0.4004
2198	0.391
2207	0.3773
2216	0.3681
2225	0.3619
2234	0.357
2243	0.3531
2252	0.3504
2261	0.3471
2270	0.3406
2279	0.3288
2288	0.3075
2297	0.297
2306	0.2864
2315	0.2725
2324	0.2544
2333	0.2305
2342	0.2098
2351	0.1916
2360	0.1748
2369	0.1616
2378	0.1459
2387	0.126
2396	0.1096
2405	0.098
2414	0.0888
2423	0.0776
2432	0.0649
2441	0.0482
2450	0.0321
2459	0.0225
2468	0.0235
2477	0.0267
2486	0.0327
2495	0.0358
2504	0.0358
2513	0.0341
2522	0.0324
2531	0.0309
2540	0.0295
2549	0.0276
2558	0.0257
2567	0.0223
2576	0.02
2585	0.0186
2594	0.018
2603	0.0178
2612	0.0175
2621	0.0172
2630	0.0172
2639	0.0173
2648	0.0173
2657	0.0174
2666	0.0174
2675	0.0174
2684	0.0174
2693	0.0173
2702	0.0173
2711	0.0173
2720	0.0176
2729	0.0196
2738	0.0245
2747	0.0296
2756	0.034
2765	0.038
2774	0.046
2783	0.0665
2792	0.0869
2801	0.0974
2810	0.0939
2819	0.0819
2828	0.0699
2837	0.058
2846	0.0462
2855	0.0345
2864	0.0249
2873	0.0201
2882	0.0187
2891	0.0188
2900	0.0192
2909	0.02
2918	0.0209
2927	0.0225
2936	0.0266
2945	0.0314
2954	0.0327
2963	0.0338
2972	0.0398
2981	0.0467
2990	0.0522
2999	0.0569
3008	0.0826
3017	0.1198
3026	0.154
3035	0.1714
3044	0.1859
3053	0.1996
3062	0.2149
3071	0.2301
3080	0.2813
3089	0.2983
3098	0.3229
3107	0.34
3116	0.373
3125	0.3874
3134	0.3952
3143	0.4138
3152	0.4235
3161	0.4289
3170	0.4315
3179	0.4326
3188	0.4322
3197	0.4313
3206	0.4302
3215	0.4289
3224	0.4274
3233	0.4254
3242	0.4233
3251	0.4209
3260	0.4186
3269	0.4158
3278	0.4125
3287	0.4085
3296	0.4021
3305	0.3954
3314	0.3882
3323	0.3788
3332	0.3653
3341	0.3562
3350	0.3486
3359	0.3419
3368	0.3358
3377	0.3327
3386	0.3298
3395	0.3283
3404	0.3275
3413	0.3267
3422	0.3268
3431	0.327
3440	0.328
3449	0.3293
3458	0.3317
3467	0.3355
3476	0.3405
3485	0.3464
3494	0.3554
3503	0.3766
3512	0.3907
3521	0.3986
3530	0.404
3539	0.4093
3548	0.4159
3557	0.4238
3566	0.4322
3575	0.4407
3584	0.4463
3593	0.4511
3602	0.4535
3611	0.4552
3620	0.4562
3629	0.4571
3638	0.4576
3647	0.4582
3656	0.4587
3665	0.4588
3674	0.4586
3683	0.4582
3692	0.4575
3701	0.4555
3710	0.453
3719	0.4508
3728	0.4486
3737	0.4457
3746	0.4445
3755	0.4441
3764	0.4436
3773	0.4431
3782	0.4427
3791	0.442
3800	0.4409
3809	0.4398
3818	0.4365
3827	0.4332
3836	0.4306
3845	0.428
3854	0.4253
3863	0.4241
3872	0.4235
3881	0.4228
3890	0.4223
3899	0.422
3908	0.4218
3917	0.4215
3926	0.4209
3935	0.4172
3944	0.412
3953	0.4068
3962	0.4025
3971	0.4021
3980	0.4016
3989	0.4012
3998	0.4008
