Infrared Spectrum: METHOXYAMINE HYDROCHLORIDE
Formula: C H6 Cl N O
CAS: 593-56-6
State: SOLID (MINERAL OIL MULL)
Class: COBLENTZ
Instrument: Not specified, most likely a prism, grating, or hybrid spectrometer.
Sampling: TRANSMISSION
Resolution: 4
Origin: DOW CHEMICAL COMPANY
MICROMETERS	TRANSMITTANCE
2.021	0.8
2.06214	0.803
2.10327	0.8
2.14441	0.793
2.18554	0.779
2.22668	0.764
2.26781	0.765
2.30895	0.781
2.35009	0.801
2.39122	0.818
2.43236	0.839
2.47349	0.856
2.51463	0.885
2.55577	0.894
2.5969	0.899
2.63804	0.907
2.67917	0.914
2.72031	0.914
2.76144	0.909
2.80258	0.902
2.84372	0.888
2.88485	0.883
2.92599	0.863
2.96712	0.846
3.00826	0.793
3.04939	0.709
3.09053	0.577
3.13167	0.411
3.1728	0.278
3.21394	0.256
3.25507	0.194
3.29621	0.117
3.33734	0.064
3.37848	0.025
3.41962	0.02
3.46075	0.027
3.50189	0.042
3.54302	0.14
3.58416	0.179
3.6253	0.15
3.66643	0.112
3.70757	0.15
3.7487	0.107
3.78984	0.111
3.83097	0.174
3.87211	0.249
3.91325	0.273
3.95438	0.365
3.99552	0.437
4.03665	0.49
4.07779	0.553
4.11892	0.594
4.16006	0.639
4.2012	0.652
4.24233	0.671
4.28347	0.678
4.3246	0.704
4.36574	0.755
4.40687	0.777
4.44801	0.791
4.48915	0.803
4.53028	0.811
4.57142	0.806
4.61255	0.81
4.65369	0.832
4.69483	0.835
4.73596	0.842
4.7771	0.851
4.81823	0.851
4.85937	0.841
4.9005	0.829
4.94164	0.805
4.98278	0.747
5.02391	0.642
5.06505	0.63
5.10618	0.688
5.14732	0.705
5.18845	0.738
5.22959	0.77
5.27073	0.813
5.31186	0.839
5.353	0.852
5.39413	0.871
5.43527	0.882
5.47641	0.892
5.51754	0.894
5.55868	0.892
5.59981	0.89
5.64095	0.887
5.68208	0.88
5.72322	0.873
5.76436	0.871
5.80549	0.89
5.84663	0.894
5.88776	0.894
5.9289	0.888
5.97003	0.864
6.01117	0.854
6.05231	0.842
6.09344	0.844
6.13458	0.83
6.17571	0.733
6.21685	0.492
6.25798	0.34
6.29912	0.635
6.34026	0.721
6.38139	0.75
6.42253	0.75
6.46366	0.707
6.5048	0.511
6.54594	0.466
6.58707	0.367
6.62821	0.374
6.66934	0.55
6.71048	0.516
6.75161	0.558
6.79275	0.384
6.83389	0.256
6.87502	0.34
6.91616	0.444
6.95729	0.644
6.99843	0.692
7.03956	0.608
7.0807	0.519
7.12184	0.567
7.16297	0.664
7.20411	0.63
7.24524	0.523
7.28638	0.635
7.32751	0.729
7.36865	0.793
7.40979	0.803
7.45092	0.817
7.49206	0.847
7.53319	0.878
7.57433	0.849
7.61547	0.854
7.6566	0.864
7.69774	0.868
7.73887	0.871
7.78001	0.861
7.82114	0.864
7.86228	0.883
7.90342	0.892
7.94455	0.899
7.98569	0.9
8.02682	0.902
8.06796	0.904
8.10909	0.905
8.15023	0.9
8.19137	0.882
8.2325	0.846
8.27364	0.741
8.31477	0.591
8.35591	0.564
8.39705	0.7
8.43818	0.808
8.47932	0.846
8.52045	0.863
8.56159	0.87
8.60272	0.859
8.64386	0.777
8.685	0.695
8.72613	0.639
8.76727	0.752
8.8084	0.851
8.84954	0.875
8.89067	0.888
8.93181	0.899
8.97295	0.905
9.01408	0.911
9.05522	0.917
9.09635	0.921
9.13749	0.926
9.17862	0.926
9.21976	0.926
9.2609	0.924
9.30203	0.921
9.34317	0.917
9.3843	0.912
9.42544	0.9
9.46658	0.876
9.50771	0.81
9.54885	0.647
9.58998	0.37
9.63112	0.117
9.67225	0.182
9.71339	0.435
9.75453	0.584
9.79566	0.687
9.8368	0.793
9.87793	0.835
9.91907	0.856
9.9602	0.875
10.0013	0.892
10.0425	0.9
10.0836	0.909
10.1247	0.912
10.1659	0.919
10.207	0.921
10.2482	0.924
10.2893	0.923
10.3304	0.926
10.3716	0.929
10.4127	0.931
10.4538	0.931
10.495	0.936
10.5361	0.936
10.5772	0.935
10.6184	0.933
10.6595	0.933
10.7006	0.933
10.7418	0.933
10.7829	0.938
10.8241	0.947
10.8652	0.952
10.9063	0.957
10.9475	0.958
10.9886	0.958
11.0297	0.96
11.0709	0.958
11.112	0.945
11.1531	0.921
11.1943	0.871
11.2354	0.743
11.2765	0.466
11.3177	0.182
11.3588	0.282
11.4	0.547
11.4411	0.7
11.4822	0.798
11.5234	0.851
11.5645	0.888
11.6056	0.907
11.6468	0.916
11.6879	0.923
11.729	0.928
11.7702	0.928
11.8113	0.929
11.8525	0.933
11.8936	0.933
11.9347	0.933
11.9759	0.936
12.017	0.94
12.0581	0.94
12.0993	0.938
12.1404	0.938
12.1815	0.936
12.2227	0.938
12.2638	0.938
12.3049	0.938
12.3461	0.938
12.3872	0.938
12.4284	0.936
12.4695	0.935
12.5106	0.933
12.5518	0.929
12.5929	0.926
12.634	0.924
12.6752	0.923
12.7163	0.923
12.7574	0.923
12.7986	0.919
12.8397	0.914
12.8808	0.909
12.922	0.904
12.9631	0.9
13.0043	0.899
13.0454	0.899
13.0865	0.897
13.1277	0.895
13.1688	0.89
13.2099	0.887
13.2511	0.882
13.2922	0.882
13.3333	0.878
13.3745	0.87
13.4156	0.859
13.4567	0.858
13.4979	0.851
13.539	0.842
13.5802	0.837
13.6213	0.83
13.6624	0.823
13.7036	0.817
13.7447	0.811
13.7858	0.805
13.827	0.798
13.8681	0.796
13.9092	0.794
13.9504	0.796
13.9915	0.8
14.0326	0.805
14.0738	0.803
14.1149	0.801
14.1561	0.796
14.1972	0.791
14.2383	0.784
14.2795	0.779
14.3206	0.772
14.3617	0.769
14.4029	0.762
14.444	0.753
14.4851	0.748
14.5263	0.741
14.5674	0.731
14.6085	0.726
14.6497	0.719
14.6908	0.709
14.732	0.7
14.7731	0.692
14.8142	0.683
14.8554	0.673
14.8965	0.666
14.9376	0.656
14.9788	0.651
15.0199	0.639
15.061	0.63
15.1022	0.617
15.1433	0.608
15.1844	0.6
15.2256	0.594
15.2667	0.584
15.3079	0.574
15.349	0.567
15.3901	0.562
15.4313	0.553
15.4724	0.548
15.5135	0.536
15.5547	0.526
15.5958	0.516
15.6369	0.505
15.6781	0.497
15.7192	0.488
15.7603	0.483
15.8015	0.475
15.8426	0.468
