Infrared Spectrum: Methanamine, hydrochloride
Formula: C H6 Cl N
CAS: 593-51-1
State: SOLID (KBr DISC)
Class: COBLENTZ III
Instrument: PERKIN-ELMER 157
Sampling: TRANSMISSION
Resolution: 2
Origin: BRITISH PETROLEUM CO. LTD., ENGLAND
1/CM	TRANSMITTANCE
668	0.8905
677	0.8815
686	0.8718
695	0.859
704	0.8554
713	0.8386
722	0.8318
731	0.8164
740	0.8018
749	0.7905
758	0.7752
767	0.7662
776	0.7466
785	0.7318
794	0.7068
803	0.6796
812	0.6478
821	0.6112
830	0.5694
839	0.5321
848	0.4881
857	0.4302
866	0.3576
875	0.2845
884	0.2174
893	0.1302
902	0.0664
911	0.0133
920	0.0014
929	0.0035
938	0.0095
947	0.0294
956	0.0345
965	0.0655
974	0.1342
983	0.1956
992	0.2213
1001	0.1217
1010	0.218
1019	0.3893
1028	0.4446
1037	0.4882
1046	0.5218
1055	0.5494
1064	0.5729
1073	0.5969
1082	0.6192
1091	0.6369
1100	0.6467
1109	0.6492
1118	0.649
1127	0.649
1136	0.6498
1145	0.6532
1154	0.6473
1163	0.64
1172	0.6365
1181	0.6172
1190	0.6033
1199	0.5798
1208	0.5513
1217	0.5153
1226	0.4573
1235	0.3717
1244	0.2095
1253	0.077
1262	0.0776
1271	0.2354
1280	0.3034
1289	0.3709
1298	0.3965
1307	0.4045
1316	0.4007
1325	0.3936
1334	0.3825
1343	0.3654
1352	0.346
1361	0.3113
1370	0.3024
1379	0.2878
1388	0.2464
1397	0.1667
1406	0.0355
1415	0.0814
1424	0.1478
1433	0.1422
1442	0.1229
1451	0.0997
1460	0.083
1469	0.0786
1478	0.0645
1487	0.0492
1496	0.0358
1505	0.0329
1514	0.0419
1523	0.0531
1532	0.0585
1541	0.054
1550	0.0452
1559	0.0383
1568	0.0329
1577	0.0316
1586	0.0314
1595	0.033
1604	0.0396
1613	0.058
1622	0.0944
1631	0.1265
1640	0.143
1649	0.1896
1658	0.2169
1667	0.2366
1676	0.2636
1685	0.2947
1694	0.3063
1703	0.3265
1712	0.3345
1721	0.3417
1730	0.3515
1739	0.3783
1748	0.3878
1757	0.3905
1766	0.3926
1775	0.3942
1784	0.3942
1793	0.3903
1802	0.3819
1811	0.3787
1820	0.3713
1829	0.3608
1838	0.3464
1847	0.3333
1856	0.3231
1865	0.3183
1874	0.3222
1883	0.3283
1892	0.3342
1901	0.3407
1910	0.3499
1919	0.3733
1928	0.3864
1937	0.4082
1946	0.4271
1955	0.4395
1964	0.453
1973	0.465
1982	0.4739
1991	0.4806
2000	0.4868
2009	0.4983
2018	0.5147
2027	0.5176
2036	0.5188
2045	0.5193
2054	0.5196
2063	0.5196
2072	0.5177
2081	0.5192
2090	0.5189
2099	0.5183
2108	0.5131
2117	0.5046
2126	0.5014
2135	0.4989
2144	0.4938
2153	0.487
2162	0.4803
2171	0.4728
2180	0.4682
2189	0.4647
2198	0.4629
2207	0.4623
2216	0.4621
2225	0.462
2234	0.4628
2243	0.4623
2252	0.4578
2261	0.4539
2270	0.45
2279	0.4457
2288	0.4421
2297	0.439
2306	0.4328
2315	0.4229
2324	0.4053
2333	0.3741
2342	0.3477
2351	0.3195
2360	0.2943
2369	0.2695
2378	0.2447
2387	0.2202
2396	0.1902
2405	0.189
2414	0.201
2423	0.2177
2432	0.2203
2441	0.2184
2450	0.2089
2459	0.1908
2468	0.1787
2477	0.1751
2486	0.1751
2495	0.1754
2504	0.177
2513	0.179
2522	0.1812
2531	0.1835
2540	0.1859
2549	0.1883
2558	0.1909
2567	0.1936
2576	0.1955
2585	0.1951
2594	0.1919
2603	0.1854
2612	0.1764
2621	0.1674
2630	0.1533
2639	0.1394
2648	0.1254
2657	0.1116
2666	0.0979
2675	0.0842
2684	0.0708
2693	0.0573
2702	0.0465
2711	0.0387
2720	0.0368
2729	0.0364
2738	0.0363
2747	0.0357
2756	0.0344
2765	0.0315
2774	0.0245
2783	0.019
2792	0.015
2801	0.0132
2810	0.0124
2819	0.0117
2828	0.0112
2837	0.0109
2846	0.0106
2855	0.0104
2864	0.0102
2873	0.0101
2882	0.01
2891	0.0099
2900	0.0098
2909	0.0097
2918	0.0096
2927	0.0095
2936	0.0094
2945	0.0092
2954	0.0092
2963	0.0092
2972	0.0092
2981	0.0092
2990	0.0092
2999	0.0092
3008	0.0091
3017	0.0091
3026	0.0091
3035	0.0091
3044	0.0091
3053	0.0091
3062	0.0091
3071	0.0091
3080	0.0091
3089	0.0092
3098	0.0093
3107	0.0094
3116	0.0094
3125	0.0095
3134	0.0096
3143	0.0097
3152	0.0099
3161	0.0104
3170	0.0107
3179	0.0112
3188	0.0115
3197	0.0128
3206	0.0141
3215	0.0153
3224	0.0167
3233	0.0192
3242	0.0217
3251	0.0241
3260	0.0261
3269	0.0282
3278	0.0311
3287	0.034
3296	0.0371
3305	0.0398
3314	0.0424
3323	0.046
3332	0.0516
3341	0.0581
3350	0.0655
3359	0.0769
3368	0.0835
3377	0.0898
3386	0.0955
3395	0.0993
3404	0.1022
3413	0.1041
3422	0.106
3431	0.1083
3440	0.118
3449	0.13
3458	0.1333
3467	0.1354
3476	0.1392
3485	0.1527
3494	0.1576
3503	0.161
3512	0.1646
3521	0.1717
3530	0.183
3539	0.184
3548	0.1853
3557	0.1872
3566	0.1902
3575	0.1966
3584	0.2082
3593	0.2248
3602	0.2529
3611	0.2647
3620	0.2727
3629	0.2801
3638	0.287
3647	0.2934
3656	0.2985
3665	0.3028
3674	0.3053
3683	0.3077
3692	0.3094
3701	0.3105
3710	0.3116
3719	0.3124
3728	0.3128
3737	0.3133
3746	0.3137
3755	0.314
3764	0.314
3773	0.3139
3782	0.3138
3791	0.3137
3800	0.3136
3809	0.3135
3818	0.3134
3827	0.3131
3836	0.3128
3845	0.3124
3854	0.3121
3863	0.3118
3872	0.3112
3881	0.3105
3890	0.3098
3899	0.309
3908	0.3083
3917	0.3076
3926	0.3068
3935	0.3056
3944	0.3045
3953	0.3033
3962	0.3016
3971	0.3001
3980	0.2979
3989	0.2949
3998	0.2925
