Infrared Spectrum: ETHYLAMINE HYDROBROMIDE
Formula: C2 H8 Br N
CAS: 593-55-5
State: SOLID (MINERAL OIL MULL)
Class: COBLENTZ
Instrument: Not specified, most likely a prism, grating, or hybrid spectrometer.
Sampling: TRANSMISSION
Resolution: 4
Origin: DOW CHEMICAL COMPANY
MICROMETERS	TRANSMITTANCE
2.021	0.813
2.06207	0.813
2.10315	0.81
2.14422	0.811
2.1853	0.818
2.22637	0.811
2.26745	0.82
2.30852	0.834
2.3496	0.842
2.39067	0.858
2.43175	0.87
2.47282	0.878
2.5139	0.887
2.55497	0.89
2.59605	0.9
2.63712	0.902
2.6782	0.916
2.71927	0.917
2.76035	0.919
2.80142	0.921
2.8425	0.924
2.88357	0.928
2.92465	0.933
2.96572	0.935
3.0068	0.895
3.04787	0.803
3.08895	0.668
3.13002	0.588
3.1711	0.461
3.21217	0.271
3.25325	0.155
3.29432	0.121
3.3354	0.135
3.37647	0.114
3.41755	0.114
3.45862	0.189
3.4997	0.307
3.54077	0.511
3.58185	0.499
3.62292	0.63
3.664	0.699
3.70507	0.719
3.74614	0.685
3.78722	0.748
3.82829	0.769
3.86937	0.745
3.91044	0.735
3.95152	0.841
3.99259	0.858
4.03367	0.863
4.07474	0.786
4.11582	0.7
4.15689	0.835
4.19797	0.846
4.23904	0.876
4.28012	0.89
4.32119	0.895
4.36227	0.899
4.40334	0.88
4.44442	0.894
4.48549	0.905
4.52657	0.905
4.56764	0.909
4.60872	0.912
4.64979	0.9
4.69087	0.914
4.73194	0.916
4.77302	0.897
4.81409	0.863
4.85517	0.846
4.89624	0.801
4.93732	0.731
4.97839	0.731
5.01947	0.822
5.06054	0.873
5.10162	0.9
5.14269	0.892
5.18377	0.888
5.22484	0.917
5.26592	0.916
5.30699	0.919
5.34807	0.917
5.38914	0.921
5.43021	0.924
5.47129	0.923
5.51236	0.924
5.55344	0.929
5.59451	0.931
5.63559	0.916
5.67666	0.911
5.71774	0.914
5.75881	0.914
5.79989	0.916
5.84096	0.912
5.88204	0.911
5.92311	0.911
5.96419	0.911
6.00526	0.911
6.04634	0.9
6.08741	0.904
6.12849	0.894
6.16956	0.899
6.21064	0.864
6.25171	0.692
6.29279	0.82
6.33386	0.875
6.37494	0.88
6.41601	0.883
6.45709	0.885
6.49816	0.885
6.53924	0.885
6.58031	0.883
6.62139	0.873
6.66246	0.851
6.70354	0.789
6.74461	0.623
6.78569	0.391
6.82676	0.261
6.86784	0.47
6.90891	0.678
6.94999	0.8
6.99106	0.829
7.03213	0.832
7.07321	0.82
7.11428	0.755
7.15536	0.656
7.19643	0.717
7.23751	0.704
7.27858	0.705
7.31966	0.75
7.36073	0.841
7.40181	0.861
7.44288	0.847
7.48396	0.784
7.52503	0.829
7.56611	0.88
7.60718	0.89
7.64826	0.894
7.68933	0.9
7.73041	0.9
7.77148	0.902
7.81256	0.904
7.85363	0.907
7.89471	0.909
7.93578	0.914
7.97686	0.917
8.01793	0.914
8.05901	0.907
8.10008	0.899
8.14116	0.863
8.18223	0.76
8.22331	0.579
8.26438	0.704
8.30546	0.818
8.34653	0.779
8.38761	0.656
8.42868	0.591
8.46976	0.781
8.51083	0.829
8.55191	0.839
8.59298	0.846
8.63406	0.846
8.67513	0.849
8.7162	0.854
8.75728	0.859
8.79835	0.866
8.83943	0.87
8.8805	0.873
8.92158	0.878
8.96265	0.878
9.00373	0.885
9.0448	0.887
9.08588	0.895
9.12695	0.905
9.16803	0.905
9.2091	0.909
9.25018	0.916
9.29125	0.916
9.33233	0.916
9.3734	0.916
9.41448	0.916
9.45555	0.9
9.49663	0.89
9.5377	0.863
9.57878	0.815
9.61985	0.704
9.66093	0.675
9.702	0.808
9.74308	0.866
9.78415	0.878
9.82523	0.892
9.8663	0.902
9.90738	0.909
9.94845	0.919
9.98953	0.926
10.0306	0.928
10.0717	0.926
10.1128	0.926
10.1538	0.923
10.1949	0.914
10.236	0.888
10.2771	0.813
10.3181	0.659
10.3592	0.586
10.4003	0.632
10.4413	0.447
10.4824	0.42
10.5235	0.728
10.5646	0.829
10.6056	0.871
10.6467	0.887
10.6878	0.897
10.7289	0.905
10.7699	0.911
10.811	0.919
10.8521	0.923
10.8932	0.929
10.9342	0.933
10.9753	0.941
11.0164	0.945
11.0575	0.943
11.0985	0.947
11.1396	0.948
11.1807	0.95
11.2218	0.945
11.2628	0.945
11.3039	0.945
11.345	0.95
11.3861	0.955
11.4271	0.955
11.4682	0.938
11.5093	0.917
11.5504	0.917
11.5914	0.928
11.6325	0.936
11.6736	0.947
11.7147	0.948
11.7557	0.945
11.7968	0.945
11.8379	0.95
11.879	0.948
11.92	0.952
11.9611	0.952
12.0022	0.952
12.0433	0.95
12.0843	0.95
12.1254	0.95
12.1665	0.947
12.2076	0.94
12.2486	0.947
12.2897	0.94
12.3308	0.936
12.3719	0.923
12.4129	0.907
12.454	0.878
12.4951	0.844
12.5362	0.774
12.5772	0.618
12.6183	0.411
12.6594	0.333
12.7005	0.538
12.7415	0.726
12.7826	0.801
12.8237	0.842
12.8648	0.861
12.9058	0.87
12.9469	0.876
12.988	0.88
13.0291	0.88
13.0701	0.885
13.1112	0.88
13.1523	0.878
13.1934	0.878
13.2344	0.878
13.2755	0.873
13.3166	0.871
13.3577	0.868
13.3987	0.864
13.4398	0.859
13.4809	0.852
13.522	0.849
13.563	0.847
13.6041	0.841
13.6452	0.832
13.6863	0.825
13.7273	0.82
13.7684	0.81
13.8095	0.805
13.8506	0.801
13.8916	0.798
13.9327	0.798
13.9738	0.801
14.0149	0.801
14.0559	0.796
14.097	0.796
14.1381	0.788
14.1792	0.788
14.2202	0.777
14.2613	0.774
14.3024	0.767
14.3435	0.762
14.3845	0.757
14.4256	0.748
14.4667	0.743
14.5078	0.736
14.5488	0.729
14.5899	0.723
14.631	0.716
14.6721	0.707
14.7131	0.697
14.7542	0.69
14.7953	0.68
14.8364	0.671
14.8774	0.664
14.9185	0.656
14.9596	0.646
15.0007	0.632
15.0417	0.627
15.0828	0.617
15.1239	0.608
15.165	0.601
15.206	0.589
15.2471	0.582
15.2882	0.574
15.3293	0.567
15.3703	0.558
15.4114	0.55
15.4525	0.541
15.4936	0.529
15.5346	0.519
15.5757	0.511
15.6168	0.509
15.6579	0.502
15.6989	0.487
15.74	0.48
15.7811	0.47
15.8222	0.468
15.8632	0.459
15.9043	0.456
