Infrared Spectrum: 3-Hexadecanol
Formula: C 16 H 34 O
CAS: 593-03-3
State: gas
Instrument: HP-GC/MS/IRD
Origin: NIST Mass Spectrometry Data Center
1/CM	ABSORBANCE
550	0.0011466
562	0.0004914
574	0.0004347
586	0.0002583
598	0.0003087
610	0.000189
622	0.0001575
634	0.0002079
646	0.0001701
658	0.000189
670	0
682	0.0002394
694	0.000378
706	0.0006048
718	0.0008379
730	0.0007245
742	0.0005859
754	0.0004851
766	0.0004095
778	0.0004536
790	0.0004284
802	0.0003906
814	0.0003906
826	0.0003843
838	0.0004347
850	0.0005229
862	0.0006237
874	0.0006804
886	0.0007497
898	0.0008442
910	0.0010269
922	0.0012033
934	0.0014679
946	0.0019341
958	0.0024633
970	0.0030555
982	0.0028917
994	0.0026775
1006	0.0024318
1018	0.0022365
1030	0.0020916
1042	0.0018648
1054	0.0017451
1066	0.0016569
1078	0.0016443
1090	0.0018018
1102	0.0020475
1114	0.0020853
1126	0.0018963
1138	0.0015183
1150	0.0011151
1162	0.001008
1174	0.0009513
1186	0.0010206
1198	0.0011466
1210	0.0014112
1222	0.0016695
1234	0.0017577
1246	0.0016695
1258	0.0015876
1270	0.0016002
1282	0.0015498
1294	0.0016947
1306	0.0017766
1318	0.0016443
1330	0.0016317
1342	0.0021798
1354	0.0027468
1366	0.0028602
1378	0.0027846
1390	0.00252
1402	0.0017388
1414	0.0013608
1426	0.0014301
1438	0.002331
1450	0.0039942
1462	0.0052038
1474	0.0033264
1486	0.0014679
1498	0.0007497
1510	0.0005418
1522	0.0003024
1534	0.0002646
1546	0.0002331
1558	1.26e-05
1570	0.0001701
1582	0.0002142
1594	0.0002268
1606	0.0001827
1618	0.0001008
1630	0.0001827
1642	0.0001701
1654	9.45e-05
1666	0.0002142
1678	0.0002268
1690	0.0002394
1702	0.0001323
1714	0.0002268
1726	0.0003213
1738	0.0002268
1750	0.0002331
1762	0.0001953
1774	0.0001323
1786	0.0002142
1798	0.0001953
1810	0.000189
1822	0.0002079
1834	0.000189
1846	0.0001764
1858	0.0001701
1870	0.0001638
1882	0.000189
1894	0.000189
1906	0.0001701
1918	0.0002079
1930	0.0001701
1942	0.0001953
1954	0.000189
1966	0.0001953
1978	0.000189
1990	0.0001953
2002	0.0002016
2014	0.0002079
2026	0.0002268
2038	0.0002079
2050	0.0002142
2062	0.0001953
2074	0.0001827
2086	0.0001827
2098	0.0001575
2110	0.0001827
2122	0.0001386
2134	0.000189
2146	0.0001701
2158	0.000189
2170	0.0001638
2182	0.0001512
2194	0.0001575
2206	0.0001575
2218	0.0001512
2230	0.0001449
2242	0.0001449
2254	0.0001323
2266	0.0001512
2278	0.0001386
2290	0.0001323
2302	8.82e-05
2314	1.89e-05
2326	1.26e-05
2338	1.26e-05
2350	1.26e-05
2362	1.26e-05
2374	1.26e-05
2386	0.0001323
2398	0.0001638
2410	0.0001764
2422	0.0001701
2434	0.0001638
2446	0.0001638
2458	0.0001575
2470	0.0001764
2482	0.000189
2494	0.0001827
2506	0.000189
2518	0.0002142
2530	0.000252
2542	0.0002835
2554	0.0002898
2566	0.000315
2578	0.0003528
2590	0.0003843
2602	0.0004095
2614	0.0004473
2626	0.000504
2638	0.0005544
2650	0.0006111
2662	0.0006489
2674	0.0007623
2686	0.0007938
2698	0.0007434
2710	0.0007119
2722	0.0007875
2734	0.0008505
2746	0.0009576
2758	0.0010017
2770	0.0010836
2782	0.0012978
2794	0.0016506
2806	0.0020475
2818	0.0027972
2830	0.0039942
2842	0.0069426
2854	0.016254
2866	0.0234423
2878	0.0170352
2890	0.0149562
2902	0.0178794
2914	0.0288918
2926	0.0534933
2938	0.0581994
2950	0.0315252
2962	0.0208026
2974	0.0170604
2986	0.0083727
2998	0.0043344
3010	0.0027342
3022	0.0020097
3034	0.0015183
3046	0.001197
3058	0.0009639
3070	0.0008631
3082	0.0007434
3094	0.0006804
3106	0.000567
3118	0.0005166
3130	0.0004536
3142	0.0004725
3154	0.0004095
3166	0.0004095
3178	0.0004095
3190	0.0003843
3202	0.0003213
3214	0.000315
3226	0.0003024
3238	0.0002331
3250	0.0002457
3262	0.000252
3274	0.0001953
3286	0.0002016
3298	0.0002016
3310	0.0002142
3322	0.0002079
3334	0.0002394
3346	0.0001764
3358	0.0001512
3370	0.0001575
3382	0.0002142
3394	0.0001827
3406	0.0001638
3418	0.0001701
3430	0.000126
3442	0.000126
3454	0.0001323
3466	0.0001071
3478	0.0001197
3490	0.0001008
3502	8.82e-05
3514	5.67e-05
3526	0.000126
3538	1.26e-05
3550	6.3e-05
3562	6.93e-05
3574	3.78e-05
3586	0.0001071
3598	7.56e-05
3610	0.0001638
3622	0.0002457
3634	0.0005166
3646	0.0008316
3658	0.0011277
3670	0.0004851
3682	0.000189
3694	0.0001134
3706	6.3e-05
3718	6.93e-05
3730	4.41e-05
3742	1.26e-05
3754	1.26e-05
3766	1.26e-05
3778	6.3e-05
3790	1.89e-05
3802	1.26e-05
3814	1.26e-05
3826	1.89e-05
3838	1.26e-05
