Infrared Spectrum: 4-Amino-2,6-dichlorophenol
Formula: C 6 H 5 Cl 2 N O
CAS: 5930-28-9
State: gas
Instrument: HP-GC/MS/IRD
Origin: NIST Mass Spectrometry Data Center
1/CM	ABSORBANCE
550	0.0019995
562	0.0014632
574	0.0021173
586	0.0032891
598	0.0018228
610	0.0014167
622	0.0014539
634	0.001519
646	0.0026536
658	0.0052824
670	0.0062992
682	0.004588
694	0.0038967
706	0.0029202
718	0.0016492
730	0.0012772
742	0.0013671
754	0.001364
766	0.0019685
778	0.0048298
790	0.0120745
802	0.0094798
814	0.005208
826	0.0048453
838	0.0045725
850	0.0028055
862	0.0011036
874	0.0005828
886	0.00031
898	0.0003472
910	0.0004464
922	0.0005425
934	0.001457
946	0.0031434
958	0.0013206
970	0.0001519
982	6.2e-05
994	0.0001054
1006	0.0001519
1018	0.0002015
1030	0.0005487
1042	0.0008091
1054	0.0009083
1066	0.00186
1078	0.0021793
1090	0.0011222
1102	0.0016554
1114	0.0014818
1126	0.000992
1138	0.0010819
1150	0.0030783
1162	0.010509
1174	0.0098394
1186	0.0035805
1198	0.0027621
1210	0.0041757
1222	0.010354
1234	0.0151652
1246	0.0082305
1258	0.0025699
1270	0.0014136
1282	0.002232
1294	0.0034751
1306	0.0029729
1318	0.0048391
1330	0.0061783
1342	0.0022444
1354	0.0006076
1366	0.0003627
1378	0.0004464
1390	0.0007626
1402	0.0014322
1414	0.0035154
1426	0.0061039
1438	0.0060543
1450	0.0037634
1462	0.0037572
1474	0.0123597
1486	0.0301816
1498	0.0213187
1510	0.0038967
1522	0.0012121
1534	0.0009238
1546	0.0010385
1558	0.0017639
1570	0.0045725
1582	0.0065534
1594	0.0037975
1606	0.0040858
1618	0.0079949
1630	0.0090086
1642	0.0041757
1654	0.0016833
1666	0.0010726
1678	0.0009052
1690	0.0008091
1702	0.0007161
1714	0.0004061
1726	0.0002945
1738	0.0001829
1750	0.0001209
1762	1.86e-05
1774	2.79e-05
1786	3.41e-05
1798	4.34e-05
1810	6.2e-06
1822	1.55e-05
1834	6.2e-06
1846	3.1e-05
1858	5.27e-05
1870	5.89e-05
1882	4.96e-05
1894	8.37e-05
1906	7.13e-05
1918	8.68e-05
1930	7.13e-05
1942	6.82e-05
1954	0.0001457
1966	0.000155
1978	0.0001333
1990	0.0001178
2002	0.0001023
2014	0.0001395
2026	0.0001209
2038	0.0001054
2050	0.0001302
2062	0.0001302
2074	0.000186
2086	0.0001953
2098	0.0001581
2110	9.92e-05
2122	4.65e-05
2134	4.34e-05
2146	8.06e-05
2158	6.82e-05
2170	0.0001147
2182	9.92e-05
2194	7.44e-05
2206	8.68e-05
2218	0.0001054
2230	0.000124
2242	0.000124
2254	0.0001209
2266	0.0001674
2278	0.0002232
2290	0.0001488
2302	0.0001085
2314	0.0001023
2326	0.0001085
2338	0.0001085
2350	0.0001023
2362	7.75e-05
2374	0.0001643
2386	0.0001395
2398	0.0001457
2410	0.0002139
2422	0.0001953
2434	0.0001209
2446	0.0001488
2458	0.000155
2470	0.0001364
2482	0.0001891
2494	0.0001829
2506	0.0001581
2518	0.0002232
2530	0.0002387
2542	0.0001984
2554	0.0001922
2566	0.0001147
2578	0.0001116
2590	9.61e-05
2602	0.0001395
2614	9.61e-05
2626	9.61e-05
2638	0.0002015
2650	0.0001674
2662	0.0001984
2674	0.0001891
2686	0.0001612
2698	0.0001302
2710	0.0001736
2722	0.0001891
2734	0.0001705
2746	0.0001147
2758	0.0001364
2770	0.0001705
2782	0.0001457
2794	0.0001488
2806	0.0001054
2818	7.44e-05
2830	0.0001643
2842	0.0001023
2854	0.0001302
2866	8.37e-05
2878	0.0001767
2890	0.0002139
2902	0.0002108
2914	0.0001364
2926	9.92e-05
2938	8.68e-05
2950	5.27e-05
2962	4.03e-05
2974	3.1e-05
2986	0.0001612
2998	0.0001178
3010	0.000124
3022	0.0001333
3034	0.0002325
3046	0.0004495
3058	0.0006448
3070	0.0004061
3082	0.0002015
3094	0.0001674
3106	7.75e-05
3118	6.51e-05
3130	0.0001271
3142	8.99e-05
3154	0.000155
3166	9.92e-05
3178	4.96e-05
3190	0.0001302
3202	0.0001736
3214	0.0003007
3226	0.0002077
3238	0.0001767
3250	0.000248
3262	0.00031
3274	0.0003441
3286	0.0002759
3298	0.0002697
3310	0.0001612
3322	0.0002077
3334	0.0001767
3346	0.0002542
3358	0.0002697
3370	0.0003317
3382	0.0004898
3394	0.0010323
3406	0.0015717
3418	0.001426
3430	0.0007626
3442	0.0004433
3454	0.0003782
3466	0.0006231
3478	0.0009703
3490	0.0012152
3502	0.0010943
3514	0.0006386
3526	0.0004929
3538	0.0005146
3550	0.0005983
3562	0.0014911
3574	0.008556
3586	0.0133145
3598	0.0042129
3610	0.0008928
3622	0.0004557
3634	0.0003348
3646	0.0003286
3658	0.0001798
3670	0.0002387
3682	0.0002604
3694	0.0001364
3706	0.0001674
3718	0.0003379
3730	0.0002139
3742	0.000186
3754	0.0001829
3766	0.0001488
3778	0.0001488
3790	0.0002666
3802	0.0001178
3814	0.0002325
3826	0.000248
3838	0.0003007
