Infrared Spectrum: 4-Nonanol
Formula: C 9 H 20 O
CAS: 5932-79-6
State: gas
Instrument: HP-GC/MS/IRD
Origin: NIST Mass Spectrometry Data Center
1/CM	ABSORBANCE
550	0.000366
562	0.00015
574	0.000183
586	3.3e-05
598	0.000144
610	0.00012
622	7.5e-05
634	0
646	0.000105
658	5.4e-05
670	7.8e-05
682	0.000126
694	0.000216
706	0.000288
718	0.000357
730	0.000468
742	0.000552
754	0.000465
766	0.000435
778	0.000363
790	0.000291
802	0.000333
814	0.000441
826	0.000759
838	0.00069
850	0.000864
862	0.000753
874	0.000648
886	0.000747
898	0.000924
910	0.001104
922	0.001146
934	0.001251
946	0.001374
958	0.001545
970	0.00174
982	0.002031
994	0.002568
1006	0.003306
1018	0.003531
1030	0.002865
1042	0.002154
1054	0.002085
1066	0.002148
1078	0.002154
1090	0.002157
1102	0.002226
1114	0.002445
1126	0.00282
1138	0.002595
1150	0.001662
1162	0.001098
1174	0.00114
1186	0.001401
1198	0.001575
1210	0.001731
1222	0.001722
1234	0.00177
1246	0.001833
1258	0.001851
1270	0.001791
1282	0.001632
1294	0.001488
1306	0.001308
1318	0.001239
1330	0.001365
1342	0.001707
1354	0.001983
1366	0.002427
1378	0.002946
1390	0.002727
1402	0.001875
1414	0.001374
1426	0.001365
1438	0.001896
1450	0.002682
1462	0.003384
1474	0.002571
1486	0.001278
1498	0.000684
1510	0.000504
1522	0.00033
1534	0.000306
1546	0.000252
1558	0.000162
1570	0.000147
1582	0.000159
1594	0.00015
1606	0.000135
1618	0.000102
1630	0.000108
1642	9e-05
1654	7.2e-05
1666	7.2e-05
1678	6.6e-05
1690	6.6e-05
1702	3.9e-05
1714	6.3e-05
1726	8.4e-05
1738	3.6e-05
1750	3.9e-05
1762	4.8e-05
1774	3e-06
1786	3.6e-05
1798	3.9e-05
1810	2.4e-05
1822	1.8e-05
1834	4.2e-05
1846	4.8e-05
1858	4.2e-05
1870	3.3e-05
1882	2.4e-05
1894	2.4e-05
1906	2.4e-05
1918	2.7e-05
1930	3.6e-05
1942	2.7e-05
1954	2.7e-05
1966	2.4e-05
1978	3e-05
1990	3.3e-05
2002	3.6e-05
2014	5.1e-05
2026	3.3e-05
2038	4.8e-05
2050	4.5e-05
2062	3.9e-05
2074	3.3e-05
2086	3e-05
2098	2.1e-05
2110	4.5e-05
2122	5.7e-05
2134	5.7e-05
2146	4.5e-05
2158	3e-05
2170	6e-05
2182	4.2e-05
2194	7.2e-05
2206	5.7e-05
2218	4.5e-05
2230	4.5e-05
2242	5.4e-05
2254	5.7e-05
2266	6.3e-05
2278	5.1e-05
2290	6.3e-05
2302	4.8e-05
2314	6e-06
2326	0
2338	2.7e-05
2350	1.5e-05
2362	0
2374	0
2386	7.8e-05
2398	6.3e-05
2410	6.3e-05
2422	7.2e-05
2434	4.5e-05
2446	4.5e-05
2458	3.9e-05
2470	5.1e-05
2482	5.4e-05
2494	5.7e-05
2506	7.5e-05
2518	7.2e-05
2530	0.000114
2542	0.000102
2554	0.000132
2566	0.00015
2578	0.000165
2590	0.00018
2602	0.00018
2614	0.000231
2626	0.000231
2638	0.000297
2650	0.00033
2662	0.00036
2674	0.000423
2686	0.000432
2698	0.000396
2710	0.00042
2722	0.000483
2734	0.000576
2746	0.000636
2758	0.000654
2770	0.00069
2782	0.000834
2794	0.001065
2806	0.001338
2818	0.001761
2830	0.002517
2842	0.004323
2854	0.007719
2866	0.011454
2878	0.013311
2890	0.012183
2902	0.012039
2914	0.017055
2926	0.025431
2938	0.03
2950	0.023304
2962	0.021849
2974	0.018756
2986	0.007689
2998	0.003732
3010	0.002361
3022	0.001692
3034	0.001278
3046	0.000936
3058	0.000741
3070	0.000561
3082	0.000519
3094	0.000423
3106	0.00039
3118	0.000342
3130	0.000318
3142	0.00027
3154	0.00027
3166	0.000258
3178	0.000222
3190	0.000192
3202	0.000114
3214	9e-05
3226	7.5e-05
3238	7.5e-05
3250	4.5e-05
3262	3.3e-05
3274	5.4e-05
3286	3.6e-05
3298	5.1e-05
3310	9e-06
3322	3.3e-05
3334	1.2e-05
3346	3e-05
3358	5.1e-05
3370	5.1e-05
3382	8.1e-05
3394	6e-05
3406	9.6e-05
3418	0.000105
3430	4.5e-05
3442	4.8e-05
3454	0.000114
3466	0.000105
3478	5.4e-05
3490	5.1e-05
3502	7.2e-05
3514	3e-06
3526	3.3e-05
3538	0
3550	4.2e-05
3562	3e-05
3574	9e-06
3586	3.3e-05
3598	7.8e-05
3610	0.000156
3622	0.000312
3634	0.00063
3646	0.00114
3658	0.001275
3670	0.000696
3682	0.0003
3694	0.000144
3706	0.000126
3718	5.4e-05
3730	8.4e-05
3742	5.1e-05
3754	9.3e-05
3766	9e-05
3778	6.3e-05
3790	7.5e-05
3802	8.4e-05
3814	8.1e-05
3826	9.6e-05
3838	0.000108
