Infrared Spectrum: p-Bromobenzoic acid hydrazide
Formula: C 7 H 7 Br N 2 O
CAS: 5933-32-4
State: gas
Origin: EPA-IR VAPOR PHASE LIBRARY
1/CM	ABSORBANCE
551.7	0.001764
563.274	0.001454
574.848	0.001504
586.421	0.001504
597.995	0.001344
609.569	0.001434
621.143	0.001424
632.717	0.001314
644.291	0.0010811
655.864	0.001294
667.438	0.0011618
679.012	0.001334
690.586	0.001314
702.16	0.001554
713.734	0.002244
725.307	0.001714
736.881	0.002674
748.455	0.004334
760.029	0.003654
771.603	0.002174
783.177	0.001704
794.75	0.001794
806.324	0.002364
817.898	0.003174
829.472	0.004724
841.046	0.005394
852.619	0.003354
864.193	0.001704
875.767	0.001684
887.341	0.002234
898.915	0.003604
910.489	0.006644
922.062	0.012154
933.636	0.015884
945.21	0.009164
956.784	0.004154
968.358	0.002474
979.932	0.001624
991.505	0.001474
1003.08	0.003284
1014.65	0.009654
1026.23	0.001544
1037.8	0.000934
1049.37	0.001264
1060.95	0.003804
1072.52	0.009604
1084.1	0.004094
1095.67	0.001654
1107.24	0.001694
1118.82	0.0011518
1130.39	0.0007116
1141.97	0.0008045
1153.54	0.0008492
1165.11	0.0009949
1176.69	0.001834
1188.26	0.001814
1199.83	0.001204
1211.41	0.001764
1222.98	0.002114
1234.56	0.002254
1246.13	0.003394
1257.7	0.005554
1269.28	0.008574
1280.85	0.013424
1292.42	0.011584
1304	0.004154
1315.57	0.002454
1327.15	0.001904
1338.72	0.001744
1350.29	0.001564
1361.87	0.001474
1373.44	0.001574
1385.02	0.002044
1396.59	0.002674
1408.16	0.003594
1419.74	0.005974
1431.31	0.013144
1442.88	0.024644
1454.46	0.020994
1466.03	0.013094
1477.61	0.009404
1489.18	0.006844
1500.75	0.005184
1512.33	0.003994
1523.9	0.002954
1535.48	0.002154
1547.05	0.001824
1558.62	0.002334
1570.2	0.003294
1581.77	0.007624
1593.34	0.012294
1604.92	0.004994
1616.49	0.004904
1628.07	0.006894
1639.64	0.007444
1651.21	0.005394
1662.79	0.004684
1674.36	0.006164
1685.93	0.012414
1697.51	0.026914
1709.08	0.025764
1720.66	0.010974
1732.23	0.004974
1743.8	0.002534
1755.38	0.001514
1766.95	0.001224
1778.53	0.0010833
1790.1	0.000949
1801.67	0.0006458
1813.25	0.0004996
1824.82	0.0004423
1836.39	0.0003601
1847.97	0.0003115
1859.54	0.0002835
1871.12	0.0003064
1882.69	0.0004482
1894.26	0.0005158
1905.84	0.0005096
1917.41	0.0004839
1928.99	0.0004065
1940.56	0.0002732
1952.13	0.00019115
1963.71	0.0001331
1975.28	0.0001346
1986.85	0.0001027
1998.43	9.22e-05
2010	8.35e-05
2021.58	0.0001337
2033.15	0.0001194
2044.72	5.9e-05
2056.3	4.5e-05
2067.87	4.4e-05
2079.44	3.1e-05
2091.02	8.88e-05
2102.59	1.3e-05
2114.17	4.9e-05
2125.74	1.8e-05
2137.31	3.2e-05
2148.89	0.0001019
2160.46	9.93e-05
2172.04	6.4e-05
2183.61	6.2e-05
2195.18	5.8e-05
2206.76	4.1e-05
2218.33	6.8e-05
2229.9	4.2e-05
2241.48	5.1e-05
2253.05	7.24e-05
2264.63	6.42e-05
2276.2	5.9e-05
2287.77	8.97e-05
2299.35	0.0001116
2310.92	0.0001028
2322.5	7e-05
2334.07	0.0001213
2345.64	0.0001122
2357.22	0.0001241
2368.79	7.06e-05
2380.36	6.43e-05
2391.94	0.0001069
2403.51	3.6e-05
2415.09	8.34e-05
2426.66	5e-06
2438.23	4.3e-05
2449.81	1.8e-05
2461.38	5.6e-05
2472.96	6.3e-05
2484.53	7.26e-05
2496.1	3.9e-05
2507.68	0.0001034
2519.25	0.00017427
2530.82	0.00022907
2542.4	0.00024333
2553.97	0.00026255
2565.55	0.00020328
2577.12	0.0001444
2588.69	0.000167279
2600.27	0.0001215
2611.84	7.59e-05
2623.41	5.1e-05
2634.99	0.0001054
2646.56	7.18e-05
2658.14	8.81e-05
2669.71	4.9e-05
2681.28	0.0001147
2692.86	0.0001207
2704.43	0.000127
2716.01	0.0001187
2727.58	0.0001278
2739.15	0.00015422
2750.73	9.78e-05
2762.3	0.000106
2773.87	0.0001331
2785.45	0.0001203
2797.02	0.0001045
2808.6	0.0001275
2820.17	0.00019982
2831.74	0.00021695
2843.32	0.0001527
2854.89	0.0001088
2866.47	0.0001328
2878.04	0.00020119
2889.61	0.00016153
2901.19	3e-05
2912.76	0.0001016
2924.33	0.0001328
2935.91	8.93e-05
2947.48	0.0001457
2959.06	0.0001493
2970.63	0.00020721
2982.2	0.00018982
2993.78	0.0001347
3005.35	0.00020326
3016.92	0.00022072
3028.5	0.0005222
3040.07	0.0007204
3051.65	0.0007768
3063.22	0.0007483
3074.79	0.0006626
3086.37	0.0009226
3097.94	0.0007795
3109.52	0.0003451
3121.09	0.00022945
3132.66	0.00023806
3144.24	0.00024928
3155.81	0.00020856
3167.38	0.0001899
3178.96	0.0003252
3190.53	0.0003908
3202.11	0.0003889
3213.68	0.0003855
3225.25	0.0003696
3236.83	0.0003329
3248.4	0.0002238
3259.98	0.0003363
3271.55	0.0003034
3283.12	0.0003096
3294.7	0.0003551
3306.27	0.0003639
3317.84	0.0003825
3329.42	0.0004887
3340.99	0.0006373
3352.57	0.0006366
3364.14	0.0006458
3375.71	0.0006324
3387.29	0.0007447
3398.86	0.0006421
3410.43	0.0005793
3422.01	0.0007771
3433.58	0.0010373
3445.16	0.001624
3456.73	0.002774
3468.3	0.004084
3479.88	0.003744
3491.45	0.002004
3503.03	0.0010333
3514.6	0.0006099
3526.17	0.0004743
3537.75	0.0003825
3549.32	0.0003501
3560.89	0.0003038
3572.47	0.0003316
3584.04	0.0002806
3595.62	0.0004095
3607.19	0.0003172
3618.76	0.000311
3630.34	0.0003248
3641.91	0.0002983
3653.49	0.0003039
3665.06	0.00018663
3676.63	0.0003045
3688.21	0.00025096
3699.78	0.0002745
3711.35	0.0002863
3722.93	0.0003259
3734.5	0.0003214
3746.08	0.0003185
3757.65	0.0002939
3769.22	0.00024379
3780.8	0.00021725
3792.37	0.0003071
3803.94	0.0002949
3815.52	0.0002869
3827.09	0.00026183
3838.67	0.0003178
3850.24	0.0002795
3861.81	0.000294
3873.39	0.000173494
3884.96	0.00025879
3896.54	0.00021825
3908.11	0.00017084
3919.68	0.0002966
3931.26	0.0003316
3942.83	0.00023716
3954.4	0.0002885
3965.98	0.0002703
3977.55	0.0003004
3989.13	0.0003145
4000.7	0.0003294
