Infrared Spectrum: Anthranilic acid, N-(o-nitrophenyl)-,
Formula: C13 H10 N2 O4
CAS: 5933-35-7
State: SOLID (SPLIT MULL), FLUOROLUBE FOR 3800-1335 CM^-^1, NUJOL FOR 1335-400 CM^-^1
Class: COBLENTZ III
Instrument: BECKMAN IR-9 (GRATING)
Instrument parameters: ORDER CHANGES: 670, 1200, 2000 CM^-^1
Sampling: TRANSMISSION
Resolution: 2
Origin: DOW CHEMICAL COMPANY
1/CM	TRANSMITTANCE
3798	0.6398
3789	0.6417
3780	0.6437
3771	0.6457
3762	0.6476
3753	0.6496
3744	0.6522
3735	0.6549
3726	0.6565
3717	0.6578
3708	0.6589
3699	0.6595
3690	0.6586
3681	0.6572
3672	0.6558
3663	0.653
3654	0.6501
3645	0.6472
3636	0.644
3627	0.6407
3618	0.6375
3609	0.6333
3600	0.6291
3591	0.6249
3582	0.6207
3573	0.6162
3564	0.6118
3555	0.6073
3546	0.6033
3537	0.5994
3528	0.5958
3519	0.5929
3510	0.59
3501	0.5874
3492	0.5852
3483	0.5829
3474	0.5818
3465	0.581
3456	0.5805
3447	0.5802
3438	0.5802
3429	0.581
3420	0.5818
3411	0.5831
3402	0.5848
3393	0.5873
3384	0.589
3375	0.5902
3366	0.5901
3357	0.5892
3348	0.5877
3339	0.5846
3330	0.5784
3321	0.5646
3312	0.5374
3303	0.5196
3294	0.5343
3285	0.5515
3276	0.5703
3267	0.584
3258	0.5954
3249	0.604
3240	0.61
3231	0.6153
3222	0.6189
3213	0.6223
3204	0.6247
3195	0.6266
3186	0.6277
3177	0.6288
3168	0.6298
3159	0.6307
3150	0.6316
3141	0.6315
3132	0.6314
3123	0.6302
3114	0.6262
3105	0.6216
3096	0.6151
3087	0.6071
3078	0.593
3069	0.5843
3060	0.582
3051	0.5821
3042	0.5815
3033	0.5803
3024	0.5786
3015	0.5762
3006	0.5753
2997	0.5747
2988	0.574
2979	0.5732
2970	0.5718
2961	0.5704
2952	0.5693
2943	0.5683
2934	0.572
2925	0.576
2916	0.578
2907	0.579
2898	0.5776
2889	0.5741
2880	0.5687
2871	0.5617
2862	0.5627
2853	0.5624
2844	0.562
2835	0.5626
2826	0.5636
2817	0.566
2808	0.5759
2799	0.5866
2790	0.598
2781	0.6069
2772	0.6149
2763	0.6209
2754	0.6249
2745	0.6262
2736	0.6268
2727	0.6271
2718	0.6276
2709	0.6318
2700	0.64
2691	0.6433
2682	0.6441
2673	0.6422
2664	0.6372
2655	0.6316
2646	0.631
2637	0.6318
2628	0.6322
2619	0.6337
2610	0.635
2601	0.635
2592	0.6347
2583	0.6325
2574	0.6276
2565	0.6237
2556	0.6284
2547	0.6351
2538	0.6412
2529	0.6469
2520	0.651
2511	0.6503
2502	0.6483
2493	0.6542
2484	0.6631
2475	0.6736
2466	0.6836
2457	0.6932
2448	0.7022
2439	0.7041
2430	0.7045
2421	0.7053
2412	0.708
2403	0.7115
2394	0.7151
2385	0.7193
2376	0.7258
2367	0.7285
2358	0.7305
2349	0.7333
2340	0.7368
2331	0.7405
2322	0.7451
2313	0.7499
2304	0.755
2295	0.7601
2286	0.7651
2277	0.7699
2268	0.7744
2259	0.7789
2250	0.7839
2241	0.7888
2232	0.7939
2223	0.799
2214	0.8042
2205	0.8094
2196	0.8139
2187	0.8178
2178	0.8218
2169	0.8255
2160	0.8292
2151	0.8328
2142	0.8366
2133	0.8404
2124	0.8447
2115	0.8487
2106	0.8525
2097	0.8568
2088	0.861
2079	0.8657
2070	0.8706
2061	0.8743
2052	0.8775
2043	0.8797
2034	0.8841
2025	0.8867
2016	0.887
2007	0.8841
1998	0.8537
1989	0.8773
1980	0.8763
1971	0.8778
1962	0.8787
1953	0.8727
1944	0.8806
1935	0.884
1926	0.8857
1917	0.8855
1908	0.8821
1899	0.8839
1890	0.8868
1881	0.8871
1872	0.8863
1863	0.8866
1854	0.8878
1845	0.8894
1836	0.8905
1827	0.8914
1818	0.8901
1809	0.8868
1800	0.8845
1791	0.8831
1782	0.8854
1773	0.8921
1764	0.8984
1755	0.9065
1746	0.9099
1737	0.9123
1728	0.9008
1719	0.897
1710	0.8948
1701	0.8804
1692	0.8375
1683	0.7235
1674	0.3814
1665	0.2717
1656	0.4592
1647	0.6818
1638	0.7676
1629	0.7796
1620	0.7067
1611	0.4329
1602	0.5888
1593	0.7061
1584	0.2437
1575	0.3256
1566	0.5955
1557	0.7607
1548	0.7965
1539	0.7686
1530	0.6887
1521	0.5835
1512	0.1916
1503	0.1412
1494	0.343
1485	0.4874
1476	0.6812
1467	0.731
1458	0.3636
1449	0.6737
1440	0.6455
1431	0.5317
1422	0.6449
1413	0.501
1404	0.5878
1395	0.7261
1386	0.7512
1377	0.7567
1368	0.7465
1359	0.661
1350	0.4092
1341	0.5767
1332	0.5957
1323	0.5793
1314	0.5012
1305	0.5303
1296	0.416
1287	0.2146
1278	0.3627
1269	0.2271
1260	0.1626
1251	0.2082
1242	0.4433
1233	0.5407
1224	0.4141
1215	0.6147
1206	0.6828
1197	0.6687
1188	0.7036
1179	0.6594
1170	0.534
1161	0.6097
1152	0.4066
1143	0.7183
1134	0.7558
1125	0.7694
1116	0.7751
1107	0.7799
1098	0.7614
1089	0.7358
1080	0.743
1071	0.7601
1062	0.7658
1053	0.7596
1044	0.7261
1035	0.7468
1026	0.7791
1017	0.7835
1008	0.7839
999	0.7783
990	0.7674
981	0.7685
972	0.6948
963	0.7578
954	0.7208
945	0.6532
936	0.6188
927	0.7099
918	0.7587
909	0.7772
900	0.7582
891	0.7842
882	0.7869
873	0.8051
864	0.7946
855	0.7649
846	0.7897
837	0.8136
828	0.8105
819	0.8118
810	0.7572
801	0.7587
792	0.8114
783	0.6956
774	0.7824
765	0.4357
756	0.5571
747	0.4746
738	0.6895
729	0.7253
720	0.7435
711	0.7965
702	0.7476
693	0.7975
684	0.7856
675	0.6942
666	0.7615
657	0.7875
648	0.6936
639	0.7896
630	0.7828
621	0.7646
612	0.74
603	0.7171
594	0.7339
585	0.7625
576	0.7675
567	0.7578
558	0.7038
549	0.7405
540	0.7868
531	0.75
522	0.5776
513	0.7274
504	0.7738
495	0.7819
486	0.7819
477	0.7726
468	0.7545
459	0.7298
450	0.7068
441	0.6514
432	0.6005
423	0.5543
414	0.519
405	0.4071
