Infrared Spectrum: METHYLENEDICARBAMIC ACID, DIMETHYL ESTER
Formula: C5 H10 N2 O4
CAS: 5937-53-1
State: SOLID (SPLIT MULL), FLUOROLUBE FOR 3800-1330 CM^-^1, NUJOL FOR 1330-450 CM^-^1
Class: COBLENTZ III
Instrument: DOW KBr FOREPRISM-GRATING
Instrument parameters: BLAZED AT 3.5, 12.0, 20.0 MICRON AND CHANGED AT 5.0, 7.5, 14.9 MICRON
Sampling: TRANSMISSION
Resolution: 2
Origin: DOW CHEMICAL COMPANY
1/CM	TRANSMITTANCE
457	0.7861
466	0.7895
475	0.7933
484	0.7926
493	0.7912
502	0.788
511	0.7731
520	0.6312
529	0.6126
538	0.8045
547	0.8046
556	0.7978
565	0.7886
574	0.7755
583	0.7578
592	0.7325
601	0.6969
610	0.6428
619	0.5759
628	0.497
637	0.4012
646	0.3047
655	0.2511
664	0.245
673	0.2728
682	0.3503
691	0.4523
700	0.5512
709	0.6308
718	0.6299
727	0.661
736	0.7114
745	0.7501
754	0.7736
763	0.7818
772	0.7854
781	0.7528
790	0.4912
799	0.6503
808	0.8087
817	0.8277
826	0.8333
835	0.8339
844	0.8318
853	0.8275
862	0.7842
871	0.4469
880	0.7171
889	0.8487
898	0.8561
907	0.8551
916	0.8465
925	0.8328
934	0.8164
943	0.7681
952	0.7697
961	0.7324
970	0.6706
979	0.5582
988	0.1529
997	0.0826
1006	0.0505
1015	0.4641
1024	0.6975
1033	0.7462
1042	0.7462
1051	0.7392
1060	0.7243
1069	0.7049
1078	0.6792
1087	0.6678
1096	0.6478
1105	0.5943
1114	0.291
1123	0.1491
1132	0.5614
1141	0.5789
1150	0.5096
1159	0.4662
1168	0.611
1177	0.5868
1186	0.5209
1195	0.3366
1204	0.3031
1213	0.4349
1222	0.3606
1231	0.2402
1240	0.1313
1249	0.0217
1258	0.0121
1267	0.0271
1276	0.0549
1285	0.0526
1294	0.1067
1303	0.2594
1312	0.3387
1321	0.3873
1330	0.4055
1339	0.4362
1348	0.6102
1357	0.6655
1366	0.6821
1375	0.6791
1384	0.658
1393	0.6098
1402	0.491
1411	0.7197
1420	0.731
1429	0.6405
1438	0.6533
1447	0.6356
1456	0.6017
1465	0.5756
1474	0.6203
1483	0.6257
1492	0.5862
1501	0.5206
1510	0.4167
1519	0.2118
1528	0.1306
1537	0.2216
1546	0.3494
1555	0.3189
1564	0.4846
1573	0.6133
1582	0.6337
1591	0.6865
1600	0.6878
1609	0.6811
1618	0.6696
1627	0.6393
1636	0.5964
1645	0.5497
1654	0.5066
1663	0.443
1672	0.3784
1681	0.2388
1690	0.0969
1699	0.0953
1708	0.1994
1717	0.3541
1726	0.5019
1735	0.5941
1744	0.6469
1753	0.6865
1762	0.7201
1771	0.7474
1780	0.7671
1789	0.7824
1798	0.7951
1807	0.8103
1816	0.8225
1825	0.8328
1834	0.8411
1843	0.8415
1852	0.8443
1861	0.8471
1870	0.852
1879	0.8586
1888	0.8639
1897	0.8633
1906	0.8618
1915	0.8601
1924	0.8583
1933	0.8575
1942	0.8594
1951	0.864
1960	0.8813
1969	0.8684
1978	0.8683
1987	0.8681
1996	0.8868
2005	0.909
2014	0.9102
2023	0.9111
2032	0.9104
2041	0.9086
2050	0.9057
2059	0.9005
2068	0.8964
2077	0.8983
2086	0.8982
2095	0.8955
2104	0.8914
2113	0.8853
2122	0.8801
2131	0.8778
2140	0.8782
2149	0.8811
2158	0.8875
2167	0.8882
2176	0.8866
2185	0.884
2194	0.8827
2203	0.8821
2212	0.8821
2221	0.8817
2230	0.8785
2239	0.876
2248	0.874
2257	0.8723
2266	0.8705
2275	0.8686
2284	0.8668
2293	0.8653
2302	0.8643
2311	0.8705
2320	0.8703
2329	0.8687
2338	0.8668
2347	0.8646
2356	0.8623
2365	0.86
2374	0.8587
2383	0.8578
2392	0.8585
2401	0.8595
2410	0.8601
2419	0.8606
2428	0.8614
2437	0.8621
2446	0.8625
2455	0.8628
2464	0.8638
2473	0.8649
2482	0.8656
2491	0.8655
2500	0.8654
2509	0.8652
2518	0.8654
2527	0.8658
2536	0.866
2545	0.8658
2554	0.8646
2563	0.862
2572	0.8601
2581	0.8593
2590	0.8591
2599	0.8596
2608	0.8611
2617	0.8606
2626	0.8587
2635	0.853
2644	0.8475
2653	0.8471
2662	0.8477
2671	0.8487
2680	0.8485
2689	0.8482
2698	0.8475
2707	0.8467
2716	0.8459
2725	0.8437
2734	0.8393
2743	0.8339
2752	0.826
2761	0.8169
2770	0.8072
2779	0.8004
2788	0.8033
2797	0.8082
2806	0.8153
2815	0.8176
2824	0.8143
2833	0.8061
2842	0.7915
2851	0.7811
2860	0.8151
2869	0.8133
2878	0.8078
2887	0.7962
2896	0.7853
2905	0.7784
2914	0.7728
2923	0.7665
2932	0.7591
2941	0.7471
2950	0.6828
2959	0.701
2968	0.6871
2977	0.6701
2986	0.7403
2995	0.7256
3004	0.728
3013	0.7736
3022	0.7761
3031	0.763
3040	0.744
3049	0.7385
3058	0.7487
3067	0.7665
3076	0.7783
3085	0.7847
3094	0.7887
3103	0.7884
3112	0.7872
3121	0.786
3130	0.7835
3139	0.7794
3148	0.7756
3157	0.7718
3166	0.768
3175	0.7592
3184	0.745
3193	0.7303
3202	0.714
3211	0.7001
3220	0.6862
3229	0.6714
3238	0.6491
3247	0.6224
3256	0.5976
3265	0.5727
3274	0.5416
3283	0.4972
3292	0.42
3301	0.3678
3310	0.2824
3319	0.2274
3328	0.1963
3337	0.1981
3346	0.3028
3355	0.4257
3364	0.5112
3373	0.5952
3382	0.6521
3391	0.6907
3400	0.7222
3409	0.7494
3418	0.7678
3427	0.7853
3436	0.8014
3445	0.8143
3454	0.8237
3463	0.8309
3472	0.8375
3481	0.8423
3490	0.843
3499	0.8434
3508	0.8441
3517	0.8446
3526	0.8449
3535	0.8452
3544	0.8456
3553	0.8455
3562	0.8453
3571	0.845
3580	0.8448
3589	0.8445
3598	0.8444
3607	0.8441
3616	0.844
3625	0.8438
3634	0.8437
3643	0.8435
3652	0.8433
3661	0.8431
3670	0.8425
3679	0.842
3688	0.8415
3697	0.8409
3706	0.8404
3715	0.8396
3724	0.8387
3733	0.8378
3742	0.8371
3751	0.8362
3760	0.8354
3769	0.8346
3778	0.8345
3787	0.8346
3796	0.8347
