Infrared Spectrum: ACETIC ACID, SULFO-, DIETHYL ESTER
Formula: C6 H12 O5 S
CAS: 59376-54-4
State: LIQUID
Boiling point: 116 C AT 0.5 mmHg
Class: COBLENTZ
Instrument: Not specified, most likely a prism, grating, or hybrid spectrometer.
Sampling: TRANSMISSION
Path length: SMEAR
Resolution: 4
Origin: TENNESSEE EASTMAN COMPANY, RESEARCH LABORATORIES
MICROMETERS	TRANSMITTANCE
2.226	0.983
2.26589	0.975
2.30577	0.975
2.34566	0.978
2.38555	0.978
2.42543	0.976
2.46532	0.98
2.50521	0.981
2.5451	0.981
2.58498	0.981
2.62487	0.981
2.66476	0.981
2.70464	0.971
2.74453	0.951
2.78442	0.936
2.8243	0.923
2.86419	0.915
2.90408	0.893
2.94397	0.908
2.98385	0.91
3.02374	0.911
3.06363	0.91
3.10351	0.91
3.1434	0.906
3.18329	0.903
3.22317	0.9
3.26306	0.873
3.30295	0.683
3.34284	0.4
3.38272	0.576
3.42261	0.726
3.4625	0.816
3.50238	0.871
3.54227	0.891
3.58216	0.911
3.62204	0.915
3.66193	0.916
3.70182	0.923
3.74171	0.926
3.78159	0.926
3.82148	0.926
3.86137	0.926
3.90125	0.926
3.94114	0.923
3.98103	0.911
4.02091	0.916
4.0608	0.92
4.10069	0.925
4.14058	0.926
4.18046	0.926
4.22035	0.93
4.26024	0.926
4.30012	0.92
4.34001	0.915
4.3799	0.92
4.41978	0.925
4.45967	0.923
4.49956	0.923
4.53944	0.923
4.57933	0.93
4.61922	0.928
4.65911	0.928
4.69899	0.921
4.73888	0.92
4.77877	0.92
4.81865	0.921
4.85854	0.923
4.89843	0.925
4.93831	0.925
4.9782	0.923
5.01809	0.926
5.05798	0.916
5.09786	0.91
5.13775	0.913
5.17764	0.915
5.21752	0.906
5.25741	0.901
5.2973	0.896
5.33718	0.891
5.37707	0.878
5.41696	0.878
5.45685	0.871
5.49673	0.856
5.53662	0.833
5.57651	0.793
5.61639	0.695
5.65628	0.326
5.69617	0.05
5.73605	0.058
5.77594	0.273
5.81583	0.483
5.85572	0.61
5.8956	0.69
5.93549	0.731
5.97538	0.765
6.01526	0.79
6.05515	0.8
6.09504	0.805
6.13492	0.813
6.17481	0.825
6.2147	0.843
6.25459	0.858
6.29447	0.863
6.33436	0.861
6.37425	0.856
6.41413	0.845
6.45402	0.851
6.49391	0.845
6.53379	0.841
6.57368	0.838
6.61357	0.826
6.65345	0.82
6.69334	0.731
6.73323	0.586
6.77312	0.548
6.813	0.601
6.85289	0.555
6.89278	0.565
6.93266	0.673
6.97255	0.71
7.01244	0.658
7.05232	0.528
7.09221	0.395
7.1321	0.245
7.17199	0.181
7.21187	0.106
7.25176	0.04
7.29165	0.035
7.33153	0.04
7.37142	0.063
7.41131	0.15
7.45119	0.301
7.49108	0.405
7.53097	0.32
7.57086	0.2
7.61074	0.158
7.65063	0.12
7.69052	0.105
7.7304	0.098
7.77029	0.108
7.81018	0.146
7.85006	0.213
7.88995	0.29
7.92984	0.345
7.96973	0.368
8.00961	0.37
8.0495	0.363
8.08939	0.36
8.12927	0.365
8.16916	0.375
8.20905	0.383
8.24893	0.38
8.28882	0.388
8.32871	0.365
8.3686	0.275
8.40848	0.08
8.44837	0.035
8.48826	0.036
8.52814	0.056
8.56803	0.115
8.60792	0.175
8.6478	0.215
8.68769	0.231
8.72758	0.24
8.76746	0.233
8.80735	0.208
8.84724	0.198
8.88713	0.205
8.92701	0.245
8.9669	0.333
9.00679	0.406
9.04667	0.425
9.08656	0.43
9.12645	0.538
9.16633	0.63
9.20622	0.676
9.24611	0.701
9.286	0.713
9.32588	0.716
9.36577	0.72
9.40566	0.711
9.44554	0.691
9.48543	0.65
9.52532	0.605
9.5652	0.533
9.60509	0.421
9.64498	0.273
9.68487	0.183
9.72475	0.17
9.76464	0.21
9.80453	0.243
9.84441	0.223
9.8843	0.15
9.92419	0.098
9.96407	0.088
10.004	0.118
10.0438	0.198
10.0837	0.31
10.1236	0.431
10.1635	0.553
10.2034	0.625
10.2433	0.661
10.2832	0.681
10.3231	0.69
10.3629	0.686
10.4028	0.648
10.4427	0.586
10.4826	0.508
10.5225	0.43
10.5624	0.315
10.6023	0.19
10.6422	0.105
10.682	0.066
10.7219	0.05
10.7618	0.046
10.8017	0.051
10.8416	0.058
10.8815	0.071
10.9214	0.083
10.9612	0.096
11.0011	0.133
11.041	0.193
11.0809	0.271
11.1208	0.365
11.1607	0.466
11.2006	0.563
11.2405	0.626
11.2803	0.666
11.3202	0.7
11.3601	0.713
11.4	0.723
11.4399	0.726
11.4798	0.725
11.5197	0.72
11.5596	0.713
11.5994	0.7
11.6393	0.683
11.6792	0.65
11.7191	0.613
11.759	0.585
11.7989	0.56
11.8388	0.548
11.8786	0.543
11.9185	0.538
11.9584	0.528
11.9983	0.521
12.0382	0.52
12.0781	0.525
12.118	0.531
12.1579	0.528
12.1977	0.515
12.2376	0.498
12.2775	0.48
12.3174	0.463
12.3573	0.45
12.3972	0.446
12.4371	0.443
12.477	0.446
12.5168	0.453
12.5567	0.468
12.5966	0.491
12.6365	0.526
12.6764	0.556
12.7163	0.58
12.7562	0.59
12.7961	0.6
12.8359	0.601
12.8758	0.601
12.9157	0.6
12.9556	0.596
12.9955	0.59
13.0354	0.591
13.0753	0.596
13.1151	0.601
13.155	0.606
13.1949	0.616
13.2348	0.625
13.2747	0.631
13.3146	0.643
13.3545	0.65
13.3944	0.658
13.4342	0.666
13.4741	0.671
13.514	0.675
13.5539	0.675
13.5938	0.67
13.6337	0.66
13.6736	0.648
13.7135	0.63
13.7533	0.621
13.7932	0.615
13.8331	0.611
13.873	0.611
13.9129	0.623
13.9528	0.638
13.9927	0.646
14.0325	0.66
14.0724	0.67
14.1123	0.681
14.1522	0.686
14.1921	0.693
14.232	0.7
14.2719	0.703
14.3118	0.706
14.3516	0.71
14.3915	0.71
14.4314	0.708
14.4713	0.708
14.5112	0.706
14.5511	0.703
14.591	0.698
14.6309	0.693
14.6707	0.688
14.7106	0.686
14.7505	0.681
14.7904	0.673
14.8303	0.668
14.8702	0.661
14.9101	0.653
14.9499	0.641
14.9898	0.64
15.0297	0.631
15.0696	0.626
15.1095	0.62
15.1494	0.611
15.1893	0.601
15.2292	0.596
15.269	0.593
15.3089	0.585
15.3488	0.58
15.3887	0.57
15.4286	0.563
15.4685	0.555
15.5084	0.548
15.5483	0.541
15.5881	0.53
15.628	0.523
15.6679	0.51
15.7078	0.501
15.7477	0.495
15.7876	0.488
15.8275	0.481
15.8673	0.475
15.9072	0.47
15.9471	0.466
15.987	0.466
