Infrared Spectrum: TRICHLOROACETAMIDE
Formula: C2 H2 Cl3 N O
CAS: 594-65-0
State: SOLID (MINERAL OIL MULL)
Class: COBLENTZ
Instrument: Not specified, most likely a prism, grating, or hybrid spectrometer.
Sampling: TRANSMISSION
Resolution: 4
Origin: DOW CHEMICAL COMPANY
MICROMETERS	TRANSMITTANCE
2.04	0.728
2.07989	0.733
2.11977	0.745
2.15966	0.748
2.19955	0.745
2.23943	0.746
2.27932	0.748
2.31921	0.758
2.3591	0.766
2.39898	0.773
2.43887	0.778
2.47876	0.788
2.51864	0.798
2.55853	0.807
2.59842	0.817
2.6383	0.829
2.67819	0.836
2.71808	0.841
2.75797	0.849
2.79785	0.855
2.83774	0.854
2.87763	0.726
2.91751	0.327
2.9574	0.182
2.99729	0.298
3.03717	0.298
3.07706	0.271
3.11695	0.314
3.15684	0.442
3.19672	0.582
3.23661	0.622
3.2765	0.629
3.31638	0.569
3.35627	0.253
3.39616	0.077
3.43604	0.17
3.47593	0.22
3.51582	0.673
3.55571	0.771
3.59559	0.816
3.63548	0.804
3.67537	0.804
3.71525	0.829
3.75514	0.841
3.79503	0.85
3.83491	0.862
3.8748	0.874
3.91469	0.875
3.95458	0.879
3.99446	0.887
4.03435	0.889
4.07424	0.894
4.11412	0.899
4.15401	0.9
4.1939	0.9
4.23378	0.9
4.27367	0.908
4.31356	0.913
4.35344	0.913
4.39333	0.91
4.43322	0.912
4.47311	0.915
4.51299	0.917
4.55288	0.928
4.59277	0.932
4.63265	0.932
4.67254	0.932
4.71243	0.935
4.75231	0.943
4.7922	0.948
4.83209	0.95
4.87198	0.948
4.91186	0.942
4.95175	0.955
4.99164	0.953
5.03152	0.958
5.07141	0.965
5.1113	0.968
5.15118	0.97
5.19107	0.97
5.23096	0.97
5.27085	0.973
5.31073	0.973
5.35062	0.971
5.39051	0.961
5.43039	0.951
5.47028	0.942
5.51017	0.933
5.55005	0.923
5.58994	0.903
5.62983	0.855
5.66972	0.794
5.7096	0.731
5.74949	0.592
5.78938	0.493
5.82926	0.273
5.86915	0.115
5.90904	0.096
5.94892	0.293
5.98881	0.415
6.0287	0.538
6.06859	0.625
6.10847	0.634
6.14836	0.475
6.18825	0.403
6.22813	0.599
6.26802	0.69
6.30791	0.733
6.34779	0.769
6.38768	0.788
6.42757	0.807
6.46745	0.814
6.50734	0.822
6.54723	0.824
6.58712	0.829
6.627	0.822
6.66689	0.802
6.70678	0.761
6.74666	0.667
6.78655	0.493
6.82644	0.43
6.86632	0.544
6.90621	0.647
6.9461	0.743
6.98599	0.778
7.02587	0.761
7.06576	0.74
7.10565	0.663
7.14553	0.495
7.18542	0.35
7.22531	0.302
7.26519	0.458
7.30508	0.521
7.34497	0.501
7.38486	0.546
7.42474	0.639
7.46463	0.703
7.50452	0.731
7.5444	0.748
7.58429	0.745
7.62418	0.748
7.66406	0.745
7.70395	0.743
7.74384	0.738
7.78373	0.733
7.82361	0.731
7.8635	0.735
7.90339	0.741
7.94327	0.746
7.98316	0.741
8.02305	0.726
8.06293	0.718
8.10282	0.713
8.14271	0.721
8.1826	0.733
8.22248	0.75
8.26237	0.768
8.30226	0.783
8.34214	0.798
8.38203	0.832
8.42192	0.817
8.4618	0.827
8.50169	0.831
8.54158	0.831
8.58146	0.834
8.62135	0.837
8.66124	0.839
8.70113	0.841
8.74101	0.844
8.7809	0.841
8.82079	0.826
8.86067	0.794
8.90056	0.73
8.94045	0.561
8.98033	0.389
9.02022	0.307
9.06011	0.473
9.1	0.629
9.13988	0.71
9.17977	0.773
9.21966	0.801
9.25954	0.819
9.29943	0.834
9.33932	0.842
9.3792	0.85
9.41909	0.859
9.45898	0.87
9.49887	0.877
9.53875	0.879
9.57864	0.882
9.61853	0.884
9.65841	0.885
9.6983	0.887
9.73819	0.889
9.77807	0.892
9.81796	0.897
9.85785	0.902
9.89774	0.905
9.93762	0.908
9.97751	0.912
10.0174	0.913
10.0573	0.915
10.0972	0.917
10.1371	0.917
10.1769	0.917
10.2168	0.917
10.2567	0.915
10.2966	0.913
10.3365	0.912
10.3764	0.912
10.4163	0.915
10.4562	0.915
10.496	0.915
10.5359	0.913
10.5758	0.91
10.6157	0.902
10.6556	0.887
10.6955	0.836
10.7354	0.748
10.7752	0.731
10.8151	0.832
10.855	0.889
10.8949	0.902
10.9348	0.912
10.9747	0.917
11.0146	0.918
11.0545	0.918
11.0943	0.918
11.1342	0.912
11.1741	0.905
11.214	0.895
11.2539	0.872
11.2938	0.846
11.3337	0.794
11.3736	0.761
11.4134	0.751
11.4533	0.741
11.4932	0.716
11.5331	0.672
11.573	0.6
11.6129	0.526
11.6528	0.478
11.6926	0.448
11.7325	0.442
11.7724	0.425
11.8123	0.339
11.8522	0.25
11.8921	0.168
11.932	0.107
11.9719	0.091
12.0117	0.089
12.0516	0.122
12.0915	0.155
12.1314	0.17
12.1713	0.269
12.2112	0.389
12.2511	0.493
12.291	0.562
12.3308	0.604
12.3707	0.642
12.4106	0.667
12.4505	0.682
12.4904	0.692
12.5303	0.698
12.5702	0.7
12.6101	0.7
12.6499	0.693
12.6898	0.685
12.7297	0.677
12.7696	0.663
12.8095	0.649
12.8494	0.63
12.8893	0.604
12.9291	0.581
12.969	0.556
13.0089	0.523
13.0488	0.496
13.0887	0.458
13.1286	0.425
13.1685	0.392
13.2084	0.364
13.2482	0.346
13.2881	0.334
13.328	0.334
13.3679	0.35
13.4078	0.37
13.4477	0.395
13.4876	0.427
13.5275	0.455
13.5673	0.481
13.6072	0.511
13.6471	0.531
13.687	0.549
13.7269	0.562
13.7668	0.572
13.8067	0.579
13.8465	0.584
13.8864	0.597
13.9263	0.607
13.9662	0.614
14.0061	0.622
14.046	0.63
14.0859	0.639
14.1258	0.645
14.1656	0.65
14.2055	0.652
14.2454	0.655
14.2853	0.657
14.3252	0.653
14.3651	0.65
14.405	0.644
14.4449	0.635
14.4847	0.625
14.5246	0.614
14.5645	0.6
14.6044	0.586
14.6443	0.571
14.6842	0.557
14.7241	0.541
14.7639	0.528
14.8038	0.514
14.8437	0.5
14.8836	0.49
14.9235	0.478
14.9634	0.475
15.0033	0.471
15.0432	0.461
15.083	0.448
15.1229	0.435
15.1628	0.415
15.2027	0.399
15.2426	0.364
15.2825	0.326
15.3224	0.283
15.3623	0.245
15.4021	0.215
15.442	0.21
15.4819	0.233
15.5218	0.278
15.5617	0.311
15.6016	0.331
15.6415	0.339
15.6813	0.342
15.7212	0.341
15.7611	0.341
15.801	0.332
15.8409	0.327
15.8808	0.326
15.9207	0.336
15.9606	0.291
