Infrared Spectrum: 2,3-Dimethyl-2-butanol
Formula: C 6 H 14 O
CAS: 594-60-5
State: gas
Instrument: HP-GC/MS/IRD
Origin: NIST Mass Spectrometry Data Center
1/CM	ABSORBANCE
550	0.0005404
562	0.0002296
574	0.000224
586	0.0001596
598	0.0001932
610	0.000168
622	9.8e-05
634	7.84e-05
646	0.0002212
658	0.0001568
670	0.0002072
682	0.0002352
694	0.0003696
706	0.0003108
718	0.0001456
730	5.32e-05
742	8.12e-05
754	7.56e-05
766	5.04e-05
778	5.88e-05
790	0.0001204
802	0.000126
814	0.0002828
826	0.0007364
838	0.0013972
850	0.001526
862	0.0010752
874	0.0006244
886	0.0010836
898	0.0021784
910	0.003388
922	0.0036484
934	0.0036708
946	0.0033852
958	0.0021616
970	0.001092
982	0.0006944
994	0.0005936
1006	0.0006132
1018	0.0007616
1030	0.001148
1042	0.0018704
1054	0.0026292
1066	0.0032424
1078	0.0039032
1090	0.0043176
1102	0.0039592
1114	0.0037324
1126	0.0044744
1138	0.005334
1150	0.0057848
1162	0.0061824
1174	0.0066948
1186	0.0061768
1198	0.0044408
1210	0.0031668
1222	0.0025788
1234	0.0022316
1246	0.0020328
1258	0.0020244
1270	0.0022596
1282	0.0025844
1294	0.0028224
1306	0.0026628
1318	0.0023576
1330	0.0020664
1342	0.0022008
1354	0.0035196
1366	0.0064792
1378	0.0082404
1390	0.006398
1402	0.0030352
1414	0.0015512
1426	0.0013048
1438	0.0018172
1450	0.0027832
1462	0.0037072
1474	0.0034356
1486	0.0021952
1498	0.0010724
1510	0.0005796
1522	0.0004032
1534	0.0003136
1546	0.0002632
1558	0.0002184
1570	0.000182
1582	0.0001484
1594	0.0001512
1606	0.0001596
1618	0.0001428
1630	0.0001456
1642	0.0001708
1654	0.0001708
1666	0.0001512
1678	0.0001484
1690	0.0001316
1702	0.000112
1714	0.0001232
1726	9.8e-05
1738	0.0001036
1750	0.0001036
1762	0.0001092
1774	9.24e-05
1786	8.12e-05
1798	7.84e-05
1810	5.88e-05
1822	8.4e-05
1834	6.44e-05
1846	5.88e-05
1858	5.04e-05
1870	7e-05
1882	4.48e-05
1894	1.68e-05
1906	5.6e-06
1918	2.8e-05
1930	2.52e-05
1942	1.4e-05
1954	2.8e-05
1966	0
1978	1.68e-05
1990	3.08e-05
2002	1.12e-05
2014	3.64e-05
2026	3.08e-05
2038	3.08e-05
2050	3.92e-05
2062	4.2e-05
2074	6.16e-05
2086	6.16e-05
2098	4.48e-05
2110	1.4e-05
2122	1.96e-05
2134	3.92e-05
2146	8.4e-06
2158	2.24e-05
2170	2.24e-05
2182	2.8e-05
2194	2.24e-05
2206	4.48e-05
2218	1.68e-05
2230	1.96e-05
2242	8.4e-06
2254	3.64e-05
2266	3.92e-05
2278	4.76e-05
2290	7.28e-05
2302	6.44e-05
2314	8.4e-05
2326	5.88e-05
2338	3.92e-05
2350	4.76e-05
2362	5.88e-05
2374	7.28e-05
2386	7.84e-05
2398	6.72e-05
2410	6.44e-05
2422	7e-05
2434	3.92e-05
2446	5.88e-05
2458	5.6e-05
2470	7.56e-05
2482	5.88e-05
2494	4.2e-05
2506	4.76e-05
2518	7.84e-05
2530	5.88e-05
2542	7.28e-05
2554	5.32e-05
2566	8.12e-05
2578	9.24e-05
2590	0.0001764
2602	0.0001764
2614	0.0001988
2626	0.000196
2638	0.0001568
2650	0.0001372
2662	0.0001456
2674	0.000154
2686	0.0001652
2698	0.0002044
2710	0.0002212
2722	0.0003108
2734	0.0004116
2746	0.0004116
2758	0.0003948
2770	0.0004312
2782	0.0004676
2794	0.0005292
2806	0.000672
2818	0.0008204
2830	0.001064
2842	0.0014784
2854	0.0023184
2866	0.0043008
2878	0.0074928
2890	0.0096992
2902	0.0095284
2914	0.0089124
2926	0.0098924
2938	0.0121044
2950	0.015232
2962	0.0217728
2974	0.0279132
2986	0.0238924
2998	0.0124908
3010	0.0047124
3022	0.0019124
3034	0.0012096
3046	0.0009772
3058	0.0008792
3070	0.0007336
3082	0.0006412
3094	0.0005712
3106	0.0005124
3118	0.000476
3130	0.0004816
3142	0.0004536
3154	0.0004704
3166	0.0005096
3178	0.0004564
3190	0.0004564
3202	0.0004032
3214	0.000336
3226	0.0002436
3238	0.0001904
3250	0.000182
3262	9.8e-05
3274	7.28e-05
3286	7e-05
3298	1.68e-05
3310	3.36e-05
3322	3.36e-05
3334	0.00014
3346	0.0001232
3358	8.4e-05
3370	0.0001204
3382	7.84e-05
3394	0.0001624
3406	0.0001316
3418	0.0001624
3430	0.0001652
3442	0.0001512
3454	0.0001204
3466	0.000154
3478	0.0001232
3490	0.0001036
3502	0.0001232
3514	9.8e-05
3526	7.84e-05
3538	7e-05
3550	0.0001008
3562	5.88e-05
3574	8.68e-05
3586	9.52e-05
3598	0.0001484
3610	0.0002828
3622	0.000616
3634	0.0013664
3646	0.001764
3658	0.0010808
3670	0.0004228
3682	0.000168
3694	0.000126
3706	6.16e-05
3718	9.24e-05
3730	4.76e-05
3742	9.52e-05
3754	6.16e-05
3766	2.8e-05
3778	3.92e-05
3790	6.16e-05
3802	8.4e-05
3814	0.0001148
3826	0.0001232
3838	0.0001792
