Infrared Spectrum: 2,3,3-Trimethyl-1-butene
Formula: C 7 H 14
CAS: 594-56-9
State: gas
Instrument: HP-GC/MS/IRD
Origin: NIST Mass Spectrometry Data Center
1/CM	ABSORBANCE
550	0.0018584
562	0.0021206
574	0.001518
586	0.0006578
598	0.0003542
610	0.0002576
622	0.0002024
634	0.0001886
646	4.6e-05
658	0.0001794
670	0.0001242
682	0.0001518
694	0.000253
706	0.0002852
718	0.0003082
730	0.000276
742	0.000115
754	9.66e-05
766	0.0001334
778	0.0001334
790	5.98e-05
802	0.0001748
814	0.0002162
826	0.0005796
838	0.000874
850	0.0010534
862	0.0014076
874	0.00391
886	0.0070656
898	0.0090068
910	0.0053774
922	0.002047
934	0.0009108
946	0.0005842
958	0.0004416
970	0.0003174
982	0.0003864
994	0.0004646
1006	0.0004784
1018	0.0003956
1030	0.0003772
1042	0.00023
1054	0.000115
1066	9.2e-05
1078	0.000115
1090	8.28e-05
1102	0.0001058
1114	0.0001472
1126	0.0002392
1138	0.0003404
1150	0.000667
1162	0.0017112
1174	0.0036156
1186	0.0053222
1198	0.0049082
1210	0.0025208
1222	0.0009982
1234	0.000483
1246	0.0003266
1258	0.0002944
1270	0.0003312
1282	0.0003496
1294	0.0003864
1306	0.000368
1318	0.0003864
1330	0.0005428
1342	0.0013432
1354	0.00345
1366	0.0071254
1378	0.0078568
1390	0.006049
1402	0.0032982
1414	0.002139
1426	0.0025576
1438	0.003634
1450	0.0053682
1462	0.0063756
1474	0.0059846
1486	0.0042734
1498	0.0024196
1510	0.001081
1522	0.000644
1534	0.0004692
1546	0.0003496
1558	0.0003588
1570	0.0004738
1582	0.0007038
1594	0.0010856
1606	0.0017066
1618	0.0028152
1630	0.0040526
1642	0.004071
1654	0.002415
1666	0.000874
1678	0.0003956
1690	0.0002162
1702	0.0001472
1714	0.0001058
1726	0.0001288
1738	9.2e-05
1750	0.0001242
1762	0.000184
1774	0.0003864
1786	0.000621
1798	0.0006716
1810	0.0004324
1822	0.0001932
1834	9.66e-05
1846	5.52e-05
1858	8.74e-05
1870	8.74e-05
1882	7.36e-05
1894	4.6e-05
1906	5.06e-05
1918	6.44e-05
1930	5.52e-05
1942	6.9e-05
1954	4.14e-05
1966	9.2e-06
1978	4.6e-06
1990	2.3e-05
2002	2.3e-05
2014	5.06e-05
2026	5.06e-05
2038	3.22e-05
2050	5.06e-05
2062	3.22e-05
2074	3.22e-05
2086	3.22e-05
2098	4.6e-06
2110	2.76e-05
2122	0
2134	2.76e-05
2146	4.6e-05
2158	2.3e-05
2170	1.38e-05
2182	5.52e-05
2194	5.98e-05
2206	7.36e-05
2218	4.6e-05
2230	6.44e-05
2242	4.6e-05
2254	2.76e-05
2266	8.28e-05
2278	8.74e-05
2290	8.74e-05
2302	0.0001242
2314	9.2e-05
2326	9.2e-05
2338	4.6e-05
2350	3.68e-05
2362	5.06e-05
2374	0.0001058
2386	0.0001288
2398	0.0001518
2410	0.000115
2422	9.2e-05
2434	8.74e-05
2446	9.66e-05
2458	0.000138
2470	0.000138
2482	0.000138
2494	0.0001794
2506	0.0001242
2518	0.0001748
2530	0.0001748
2542	0.0001978
2554	0.0002254
2566	0.0002346
2578	0.0002392
2590	0.0002484
2602	0.0002254
2614	0.0002438
2626	0.0002622
2638	0.0002806
2650	0.000299
2662	0.0003588
2674	0.000368
2686	0.0003956
2698	0.0003864
2710	0.000529
2722	0.0006348
2734	0.0006946
2746	0.0006854
2758	0.0007038
2770	0.0006946
2782	0.0007544
2794	0.0009062
2806	0.0011086
2818	0.0013524
2830	0.0016652
2842	0.0023552
2854	0.0041354
2866	0.0075992
2878	0.0113206
2890	0.0122958
2902	0.0131192
2914	0.0147798
2926	0.0165462
2938	0.0192004
2950	0.0281428
2962	0.0426742
2974	0.0455814
2986	0.028704
2998	0.0125856
3010	0.0063388
3022	0.0042504
3034	0.0031786
3046	0.002438
3058	0.0021022
3070	0.0024564
3082	0.0039376
3094	0.0049036
3106	0.0039514
3118	0.001863
3130	0.0010258
3142	0.000805
3154	0.000782
3166	0.0007498
3178	0.0007038
3190	0.000621
3202	0.0006072
3214	0.0005566
3226	0.0005198
3238	0.0005198
3250	0.0004508
3262	0.0003588
3274	0.0003634
3286	0.0002668
3298	0.0003404
3310	0.000299
3322	0.0002898
3334	0.0003036
3346	0.000253
3358	0.00023
3370	0.000207
3382	0.0001748
3394	0.0002208
3406	0.0001932
3418	0.0001656
3430	0.0001426
3442	0.000184
3454	0.0001564
3466	0.0001012
3478	0.0001472
3490	9.66e-05
3502	0.0001104
3514	0.0001104
3526	0.0001058
3538	0.0001334
3550	7.36e-05
3562	9.2e-05
3574	6.44e-05
3586	7.82e-05
3598	2.3e-05
3610	8.74e-05
3622	5.52e-05
3634	9.2e-05
3646	3.22e-05
3658	4.14e-05
3670	4.6e-05
3682	5.52e-05
3694	0.0001012
3706	8.28e-05
3718	0.0001242
3730	5.06e-05
3742	0.0001196
3754	4.14e-05
3766	6.9e-05
3778	0.0001656
3790	0.0001288
3802	0.0001564
3814	9.2e-05
3826	0.0001472
3838	0.0001242
