Infrared Spectrum: 2,2,3,3-Tetramethylbutane
Formula: C 8 H 18
CAS: 594-82-1
State: gas
Instrument: HP-GC/MS/IRD
Origin: NIST Mass Spectrometry Data Center
1/CM	ABSORBANCE
550	0.0001113
562	4.77e-05
574	4.77e-05
586	0.0002173
598	0.0001802
610	0.0002226
622	0.0001749
634	0.000106
646	0.0001219
658	0.000106
670	0.0001007
682	7.42e-05
694	0.000159
706	0.0001696
718	0.0001166
730	0.0001749
742	0.0001643
754	0.0001802
766	0.0002173
778	0.0003604
790	0.0004982
802	0.0004081
814	0.0002173
826	4.77e-05
838	0.0001537
850	0.000106
862	0.0001696
874	0.0001272
886	0.0001431
898	0.0001537
910	0.0002332
922	0.0003445
934	0.0002703
946	0.0001961
958	0.0001219
970	0.0001378
982	0.0002014
994	0.0002756
1006	0.0002915
1018	0.0001908
1030	0.0001272
1042	0.0001219
1054	9.54e-05
1066	9.01e-05
1078	0.000106
1090	9.01e-05
1102	0.0001749
1114	0.0001484
1126	0.0003127
1138	0.0005565
1150	0.0012402
1162	0.0033655
1174	0.0073935
1186	0.0053053
1198	0.0019822
1210	0.0008003
1222	0.0004558
1234	0.0002809
1246	0.000265
1258	0.0002438
1270	0.0002438
1282	0.0002438
1294	0.0002438
1306	0.0002809
1318	0.0003127
1330	0.0004346
1342	0.0007844
1354	0.0025758
1366	0.0065773
1378	0.0107643
1390	0.0085754
1402	0.0032966
1414	0.0012137
1426	0.0010335
1438	0.0014416
1450	0.0024062
1462	0.0042612
1474	0.0055756
1486	0.0043142
1498	0.0021889
1510	0.0007685
1522	0.0004399
1534	0.0003127
1546	0.0002279
1558	0.0002067
1570	0.0001855
1582	0.0001378
1594	0.0001219
1606	0.0001378
1618	0.0001643
1630	0.0001537
1642	0.0001431
1654	0.0001696
1666	0.0001484
1678	0.0001325
1690	0.0001325
1702	0.0001378
1714	0.0001378
1726	0.0001484
1738	0.0001325
1750	9.54e-05
1762	0.0001166
1774	0.0001113
1786	0.0001007
1798	0.0001272
1810	0.0001325
1822	0.0001166
1834	9.01e-05
1846	7.95e-05
1858	8.48e-05
1870	9.01e-05
1882	6.89e-05
1894	6.89e-05
1906	6.36e-05
1918	3.71e-05
1930	5.3e-05
1942	5.3e-05
1954	4.77e-05
1966	5.3e-05
1978	4.77e-05
1990	5.3e-05
2002	6.36e-05
2014	0.0001007
2026	0.0001431
2038	6.36e-05
2050	5.83e-05
2062	4.24e-05
2074	3.18e-05
2086	2.12e-05
2098	1.06e-05
2110	2.12e-05
2122	1.59e-05
2134	1.59e-05
2146	2.65e-05
2158	4.24e-05
2170	3.71e-05
2182	5.3e-06
2194	5.3e-06
2206	2.65e-05
2218	3.18e-05
2230	2.65e-05
2242	2.65e-05
2254	4.24e-05
2266	4.24e-05
2278	6.36e-05
2290	7.42e-05
2302	5.83e-05
2314	6.36e-05
2326	5.83e-05
2338	8.48e-05
2350	6.89e-05
2362	0.0001219
2374	0.0001007
2386	0.0001272
2398	0.0001166
2410	0.0001113
2422	0.000106
2434	7.42e-05
2446	6.89e-05
2458	9.54e-05
2470	9.01e-05
2482	0.0001219
2494	0.0001113
2506	0.0001219
2518	0.0001113
2530	0.0001378
2542	0.0001431
2554	0.0001643
2566	0.0001908
2578	0.000212
2590	0.0002491
2602	0.0002491
2614	0.0002332
2626	0.0002332
2638	0.0002756
2650	0.0002385
2662	0.0002597
2674	0.0003127
2686	0.0003392
2698	0.0004452
2710	0.0005565
2722	0.0006996
2734	0.0006731
2746	0.000583
2758	0.0005565
2770	0.0006678
2782	0.0008374
2794	0.0008533
2806	0.0009169
2818	0.0010706
2830	0.0013939
2842	0.0019875
2854	0.0031959
2866	0.0061374
2878	0.0109339
2890	0.0141245
2902	0.0150255
2914	0.0160961
2926	0.0167109
2938	0.0187779
2950	0.027931
2962	0.0443345
2974	0.0527085
2986	0.0355736
2998	0.0137535
3010	0.0045209
3022	0.0025546
3034	0.0018709
3046	0.0013992
3058	0.0010812
3070	0.0008162
3082	0.0007632
3094	0.0006837
3106	0.0006837
3118	0.0007155
3130	0.0007102
3142	0.0006837
3154	0.0007367
3166	0.0007367
3178	0.0007208
3190	0.0007367
3202	0.0007049
3214	0.0006837
3226	0.0006148
3238	0.0005353
3250	0.0004187
3262	0.000318
3274	0.0002438
3286	0.0001908
3298	0.0001908
3310	0.0002226
3322	0.0001855
3334	0.0002703
3346	0.0002332
3358	0.0002173
3370	0.0002279
3382	0.0001749
3394	0.0001908
3406	0.0001961
3418	0.0001484
3430	0.0001325
3442	0.0001961
3454	0.0002385
3466	0.0001219
3478	0.0001272
3490	9.01e-05
3502	5.3e-05
3514	6.89e-05
3526	4.77e-05
3538	4.77e-05
3550	7.42e-05
3562	7.42e-05
3574	7.42e-05
3586	3.71e-05
3598	5.83e-05
3610	4.77e-05
3622	4.77e-05
3634	8.48e-05
3646	0.0001166
3658	2.65e-05
3670	8.48e-05
3682	8.48e-05
3694	8.48e-05
3706	7.95e-05
3718	6.89e-05
3730	6.36e-05
3742	6.36e-05
3754	0.0001325
3766	4.77e-05
3778	7.42e-05
3790	0.0001537
3802	0.000159
3814	0.0001696
3826	0.0001272
3838	0.0001537
