Infrared Spectrum: 1-Methoxy-3-(trimethylsilyloxy)-1,3-butadiene
Formula: C 8 H 16 O 2 Si
CAS: 59414-23-2
State: gas
Origin: EPA-IR VAPOR PHASE LIBRARY
1/CM	ABSORBANCE
549.8	0.002682
559.445	0.003542
569.09	0.004692
578.734	0.007572
588.379	0.008162
598.024	0.009842
607.669	0.013492
617.313	0.019112
626.958	0.019192
636.603	0.017152
646.248	0.012032
655.893	0.009112
665.537	0.010332
675.182	0.015882
684.827	0.022672
694.472	0.025012
704.116	0.024182
713.761	0.023762
723.406	0.023912
733.051	0.024982
742.695	0.028012
752.34	0.034572
761.985	0.038622
771.63	0.037222
781.275	0.032472
790.919	0.031472
800.564	0.038612
810.209	0.053172
819.854	0.075022
829.498	0.115762
839.143	0.192482
848.788	0.266622
858.433	0.244222
868.078	0.155232
877.722	0.095872
887.367	0.066652
897.012	0.050222
906.657	0.047552
916.301	0.054312
925.946	0.055372
935.591	0.065432
945.236	0.059292
954.88	0.043002
964.525	0.032732
974.17	0.027132
983.815	0.029232
993.46	0.044442
1003.1	0.060872
1012.75	0.107902
1022.39	0.237702
1032.04	0.242532
1041.68	0.111092
1051.33	0.046932
1060.97	0.027452
1070.62	0.020312
1080.26	0.020592
1089.91	0.022082
1099.55	0.030172
1109.2	0.045572
1118.84	0.063822
1128.49	0.098632
1138.13	0.116002
1147.78	0.104582
1157.42	0.115002
1167.07	0.098712
1176.71	0.068432
1186.36	0.077462
1196	0.112422
1205.64	0.166882
1215.29	0.208952
1224.93	0.135552
1234.58	0.085122
1244.22	0.098542
1253.87	0.135472
1263.51	0.138232
1273.16	0.097992
1282.8	0.068792
1292.45	0.077942
1302.09	0.119912
1311.74	0.185422
1321.38	0.195662
1331.03	0.123722
1340.67	0.058522
1350.32	0.028942
1359.96	0.020542
1369.61	0.018822
1379.25	0.018912
1388.9	0.018682
1398.54	0.018272
1408.18	0.018602
1417.83	0.017932
1427.47	0.016962
1437.12	0.018732
1446.76	0.022232
1456.41	0.024042
1466.05	0.024282
1475.7	0.018742
1485.34	0.012182
1494.99	0.009572
1504.63	0.008652
1514.28	0.008772
1523.92	0.009292
1533.57	0.009422
1543.21	0.010622
1552.86	0.013512
1562.5	0.020002
1572.15	0.032522
1581.79	0.048022
1591.44	0.055142
1601.08	0.052992
1610.73	0.056482
1620.37	0.070522
1630.01	0.100452
1639.66	0.141492
1649.3	0.155182
1658.95	0.138632
1668.59	0.081622
1678.24	0.031212
1687.88	0.014552
1697.53	0.010522
1707.17	0.008962
1716.82	0.008122
1726.46	0.008022
1736.11	0.008722
1745.75	0.009352
1755.4	0.008032
1765.04	0.006092
1774.69	0.004652
1784.33	0.003552
1793.98	0.003522
1803.62	0.003582
1813.27	0.003682
1822.91	0.004042
1832.55	0.003792
1842.2	0.003432
1851.84	0.003742
1861.49	0.003892
1871.13	0.003642
1880.78	0.003252
1890.42	0.003022
1900.07	0.002652
1909.71	0.002472
1919.36	0.002452
1929	0.002822
1938.65	0.002852
1948.29	0.002762
1957.94	0.002632
1967.58	0.002552
1977.23	0.002382
1986.87	0.002372
1996.52	0.002152
2006.16	0.002292
2015.81	0.002432
2025.45	0.002682
2035.1	0.002682
2044.74	0.002922
2054.38	0.002512
2064.03	0.002362
2073.67	0.002502
2083.32	0.003012
2092.96	0.003502
2102.61	0.003912
2112.25	0.004142
2121.9	0.003782
2131.54	0.003742
2141.19	0.003632
2150.83	0.003622
2160.48	0.003202
2170.12	0.002722
2179.77	0.002242
2189.41	0.002092
2199.06	0.002102
2208.7	0.002162
2218.35	0.002202
2227.99	0.001742
2237.64	0.001702
2247.28	0.001862
2256.92	0.001962
2266.57	0.001902
2276.21	0.001762
2285.86	0.001632
2295.5	0.001312
2305.15	0.001612
2314.79	0.001762
2324.44	0.001952
2334.08	0.002012
2343.73	0.002022
2353.37	0.001792
2363.02	0.001552
2372.66	0.001482
2382.31	0.001372
2391.95	0.001312
2401.6	0.0011114
2411.24	0.001452
2420.89	0.001652
2430.53	0.001712
2440.18	0.001392
2449.82	0.0011215
2459.47	0.001194
2469.11	0.001272
2478.75	0.001262
2488.4	0.0010374
2498.04	0.0010662
2507.69	0.0010471
2517.33	0.0010942
2526.98	0.0010873
2536.62	0.0010241
2546.27	0.0009921
2555.91	0.0009452
2565.56	0.000751
2575.2	0.0011128
2584.85	0.001282
2594.49	0.001512
2604.14	0.001702
2613.78	0.001792
2623.43	0.001532
2633.07	0.001492
2642.72	0.001492
2652.36	0.001272
2662.01	0.0012082
2671.65	0.0011405
2681.29	0.001071
2690.94	0.0011259
2700.58	0.001302
2710.23	0.0012124
2719.87	0.0010185
2729.52	0.0012252
2739.16	0.001532
2748.81	0.001572
2758.45	0.002042
2768.1	0.002692
2777.74	0.003542
2787.39	0.004862
2797.03	0.005702
2806.68	0.007022
2816.32	0.009052
2825.97	0.014212
2835.61	0.025692
2845.26	0.027562
2854.9	0.017332
2864.55	0.013892
2874.19	0.014482
2883.84	0.017062
2893.48	0.022742
2903.12	0.031252
2912.77	0.034542
2922.41	0.031702
2932.06	0.037552
2941.7	0.052122
2951.35	0.061542
2960.99	0.078422
2970.64	0.068892
2980.28	0.040972
2989.93	0.026252
2999.57	0.025652
3009.22	0.032182
3018.86	0.024342
3028.51	0.015582
3038.15	0.014052
3047.8	0.014162
3057.44	0.015952
3067.09	0.015352
3076.73	0.013102
3086.38	0.012022
3096.02	0.009852
3105.67	0.009342
3115.31	0.015112
3124.95	0.015712
3134.6	0.005982
3144.24	0.003172
3153.89	0.002672
3163.53	0.002292
3173.18	0.001882
3182.82	0.001692
3192.47	0.001382
3202.11	0.001442
3211.76	0.001372
3221.4	0.001292
3231.05	0.0010066
3240.69	0.0011292
3250.34	0.0011108
3259.98	0.0008415
3269.63	0.0008961
3279.27	0.0008688
3288.92	0.0007337
3298.56	0.0008984
3308.21	0.0008623
3317.85	0.0008578
3327.49	0.0002292
3337.14	0.0006303
3346.78	0.0005506
3356.43	0.00025977
3366.07	0.000798
3375.72	0.0006478
3385.36	0.00026858
3395.01	0.0006514
3404.65	0.0006329
3414.3	0.00031988
3423.94	0.0005979
3433.59	0.0005613
3443.23	0.0003928
3452.88	0.00028496
3462.52	0.0005369
3472.17	0.0005314
3481.81	0.0004388
3491.46	0.0005762
3501.1	0.0006898
3510.75	0.0005806
3520.39	0.0007059
3530.04	0.0005736
3539.68	0.0009427
3549.32	0.0008782
3558.97	0.0009562
3568.61	0.0007919
3578.26	0.001262
3587.9	0.0010725
3597.55	0.001242
3607.19	0.0009637
3616.84	0.0008378
3626.48	0.000975
3636.13	0.001312
3645.77	0.0011679
3655.42	0.0012042
3665.06	0.001252
3674.71	0.001442
3684.35	0.001262
3694	0.0010995
3703.64	0.0011246
3713.29	0.001152
3722.93	0.001542
3732.58	0.001382
3742.22	0.001632
3751.86	0.001522
3761.51	0.001482
3771.15	0.001452
3780.8	0.0010292
3790.44	0.0011886
3800.09	0.0012369
3809.73	0.001362
3819.38	0.0012172
3829.02	0.0011268
3838.67	0.0009106
3848.31	0.0004751
3857.96	0.0006956
3867.6	0.0007519
3877.25	0.0007441
3886.89	0.0007513
3896.54	0.000579
3906.18	0.0007139
3915.83	0.0004919
3925.47	0.0006975
3935.12	0.0005853
3944.76	0.0005
3954.41	0.0008266
3964.05	0.0004802
3973.69	0.0008126
3983.34	0.001292
3992.98	0.0004458
