Infrared Spectrum: 2-t-Butylpyridine
Formula: C 9 H 13 N
CAS: 5944-41-2
State: gas
Instrument: HP-GC/MS/IRD
Origin: NIST Mass Spectrometry Data Center
1/CM	ABSORBANCE
550	0.0034624
562	0.0018976
574	0.00088
586	0.0003328
598	0.0003648
610	0.000544
622	0.0006368
634	0.0004064
646	6.72e-05
658	0.0002304
670	0.0001536
682	0.0001696
694	0.0001888
706	0.000432
718	0.0014336
730	0.0038368
742	0.0071648
754	0.0053792
766	0.003344
778	0.0033152
790	0.0040352
802	0.0022976
814	0.0009504
826	0.0005632
838	0.0011072
850	0.000752
862	0.0001728
874	0
886	9.28e-05
898	0.0002336
910	0.0003488
922	0.0002784
934	0.0003008
946	0.000256
958	0.0001568
970	0.0002592
982	0.0008192
994	0.0009184
1006	0.0005696
1018	0.000352
1030	0.0007392
1042	0.0018304
1054	0.0017248
1066	0.000624
1078	0.0005888
1090	0.0008608
1102	0.0008384
1114	0.0012416
1126	0.0045792
1138	0.0063104
1150	0.0032064
1162	0.0016768
1174	0.0008192
1186	0.0009152
1198	0.00144
1210	0.0012256
1222	0.000976
1234	0.001168
1246	0.000864
1258	0.0007104
1270	0.0013312
1282	0.0020832
1294	0.0020384
1306	0.0010976
1318	0.0004096
1330	0.0005088
1342	0.0011776
1354	0.003168
1366	0.0052384
1378	0.0039616
1390	0.0023264
1402	0.0020288
1414	0.0031008
1426	0.007056
1438	0.0067616
1450	0.0048448
1462	0.0081984
1474	0.0103904
1486	0.0084128
1498	0.0035648
1510	0.001168
1522	0.00088
1534	0.0012096
1546	0.0019424
1558	0.003888
1570	0.0083488
1582	0.01584
1594	0.0120128
1606	0.003424
1618	0.001664
1630	0.0009152
1642	0.0004576
1654	0.0003328
1666	0.0003616
1678	0.0003584
1690	0.000352
1702	0.0003872
1714	0.0003264
1726	0.0002304
1738	0.0002272
1750	0.0002624
1762	0.00032
1774	0.0002272
1786	0.000128
1798	0.0001088
1810	0.0001344
1822	0.0002368
1834	0.0002848
1846	0.0003104
1858	0.000448
1870	0.0003392
1882	0.0001664
1894	0.0002432
1906	0.0004064
1918	0.0004
1930	0.0003936
1942	0.0004288
1954	0.0003968
1966	0.000384
1978	0.0002464
1990	0.0001248
2002	0.0001056
2014	8.64e-05
2026	5.76e-05
2038	5.76e-05
2050	2.88e-05
2062	6.4e-06
2074	5.12e-05
2086	3.52e-05
2098	7.04e-05
2110	4.8e-05
2122	6.4e-05
2134	3.2e-05
2146	2.56e-05
2158	4.16e-05
2170	6.08e-05
2182	8.64e-05
2194	0.0001216
2206	0.0001184
2218	9.6e-05
2230	4.8e-05
2242	3.52e-05
2254	1.92e-05
2266	7.04e-05
2278	8.64e-05
2290	0.0001152
2302	0.0001984
2314	0.0001344
2326	8.32e-05
2338	7.04e-05
2350	5.76e-05
2362	3.2e-05
2374	7.04e-05
2386	7.04e-05
2398	6.72e-05
2410	6.08e-05
2422	7.36e-05
2434	2.56e-05
2446	4.16e-05
2458	1.6e-05
2470	3.84e-05
2482	9.6e-06
2494	1.28e-05
2506	2.88e-05
2518	2.88e-05
2530	6.08e-05
2542	5.12e-05
2554	8.64e-05
2566	0.0001312
2578	0.0001184
2590	8.32e-05
2602	9.92e-05
2614	8e-05
2626	6.72e-05
2638	8.96e-05
2650	0.0001088
2662	0.0001152
2674	0.0001088
2686	0.0001664
2698	0.0001664
2710	0.0002592
2722	0.0003296
2734	0.000288
2746	0.000288
2758	0.0003104
2770	0.0003072
2782	0.0003264
2794	0.0004192
2806	0.000496
2818	0.0006368
2830	0.0008416
2842	0.0012928
2854	0.002704
2866	0.0055424
2878	0.0073728
2890	0.0075904
2902	0.0089504
2914	0.0107232
2926	0.0115936
2938	0.0128672
2950	0.018624
2962	0.0302528
2974	0.0288064
2986	0.0151808
2998	0.0083712
3010	0.0060384
3022	0.0043072
3034	0.0029056
3046	0.0036416
3058	0.0055616
3070	0.0071648
3082	0.0059168
3094	0.0037824
3106	0.0021056
3118	0.0009664
3130	0.0007648
3142	0.0007104
3154	0.0005248
3166	0.0005408
3178	0.0004992
3190	0.0004192
3202	0.000352
3214	0.0003808
3226	0.0003136
3238	0.0002976
3250	0.0002592
3262	0.0002336
3274	0.0001664
3286	0.0001216
3298	8.96e-05
3310	0.0001216
3322	6.72e-05
3334	4.16e-05
3346	3.52e-05
3358	1.28e-05
3370	8.64e-05
3382	3.52e-05
3394	6.4e-06
3406	6.08e-05
3418	2.56e-05
3430	1.6e-05
3442	3.2e-05
3454	6.72e-05
3466	3.84e-05
3478	3.2e-05
3490	3.2e-05
3502	4.8e-05
3514	8.96e-05
3526	0.0001088
3538	2.56e-05
3550	4.16e-05
3562	6.72e-05
3574	6.72e-05
3586	5.44e-05
3598	3.84e-05
3610	6.4e-05
3622	8.96e-05
3634	9.6e-05
3646	8e-05
3658	6.4e-05
3670	4.8e-05
3682	9.6e-05
3694	0.0001152
3706	0.0001088
3718	9.28e-05
3730	0.0001248
3742	9.92e-05
3754	0.0001152
3766	0.0001152
3778	0.0001344
3790	0.0001824
3802	0.0001792
3814	0.0001568
3826	0.0001568
3838	0.000112
