Infrared Spectrum: (p-Aminobenzoyl)acetonitrile
Formula: C9 H8 N2 O
CAS: 59443-94-6
State: SOLID (SPLIT MULL)
Melting point: 158 C
Class: COBLENTZ III
Instrument: BECKMAN IR-9 (GRATING)
Instrument parameters: ORDER CHANGES: 670, 1200, 2000 CM^-^1
Sampling: TRANSMISSION
Resolution: 2
Origin: DOW CHEMICAL COMPANY
1/CM	TRANSMITTANCE
390	0.8634
399	0.6535
408	0.6257
417	0.6252
426	0.6162
435	0.6883
444	0.7201
453	0.7317
462	0.7362
471	0.723
480	0.6905
489	0.6881
498	0.6634
507	0.7458
516	0.7453
525	0.7361
534	0.7262
543	0.7221
552	0.7219
561	0.7201
570	0.6025
579	0.7241
588	0.7514
597	0.7622
606	0.7572
615	0.6951
624	0.846
633	0.8405
642	0.8405
651	0.844
660	0.8388
669	0.8325
678	0.8333
687	0.8344
696	0.8341
705	0.8321
714	0.8068
723	0.7451
732	0.7891
741	0.8137
750	0.8444
759	0.8486
768	0.8502
777	0.8536
786	0.8533
795	0.8355
804	0.8652
813	0.8506
822	0.7315
831	0.4475
840	0.6044
849	0.8087
858	0.8399
867	0.8449
876	0.8438
885	0.8383
894	0.8274
903	0.8193
912	0.7961
921	0.7424
930	0.549
939	0.7734
948	0.8068
957	0.8044
966	0.7951
975	0.7837
984	0.7975
993	0.7907
1002	0.731
1011	0.7235
1020	0.7925
1029	0.7928
1038	0.7896
1047	0.7871
1056	0.7841
1065	0.7771
1074	0.7675
1083	0.7568
1092	0.7494
1101	0.7474
1110	0.7426
1119	0.7328
1128	0.7028
1137	0.6778
1146	0.6525
1155	0.6728
1164	0.6424
1173	0.4793
1182	0.2574
1191	0.7089
1200	0.7901
1209	0.7183
1218	0.5548
1227	0.35
1236	0.4308
1245	0.7048
1254	0.8225
1263	0.8164
1272	0.7918
1281	0.7421
1290	0.7185
1299	0.6278
1308	0.4845
1317	0.4876
1326	0.4492
1335	0.2884
1344	0.4422
1353	0.6058
1362	0.6908
1371	0.6744
1380	0.6642
1389	0.6283
1398	0.5154
1407	0.6206
1416	0.643
1425	0.6301
1434	0.5872
1443	0.4522
1452	0.6114
1461	0.6257
1470	0.6068
1479	0.5806
1488	0.5545
1497	0.526
1506	0.473
1515	0.3012
1524	0.5055
1533	0.4621
1542	0.3903
1551	0.3107
1560	0.2252
1569	0.2387
1578	0.1929
1587	0.0822
1596	0.1911
1605	0.554
1614	0.6538
1623	0.5243
1632	0.2845
1641	0.2748
1650	0.5023
1659	0.4469
1668	0.2908
1677	0.6768
1686	0.8648
1695	0.8899
1704	0.8909
1713	0.8807
1722	0.8674
1731	0.8611
1740	0.8489
1749	0.8401
1758	0.8303
1767	0.8208
1776	0.8108
1785	0.8011
1794	0.7933
1803	0.7897
1812	0.7847
1821	0.7787
1830	0.7728
1839	0.7671
1848	0.7618
1857	0.7576
1866	0.753
1875	0.7484
1884	0.7438
1893	0.7392
1902	0.7343
1911	0.7271
1920	0.7191
1929	0.7198
1938	0.7184
1947	0.7211
1956	0.719
1965	0.713
1974	0.7082
1983	0.7028
1992	0.6971
2001	0.6883
2010	0.6906
2019	0.6875
2028	0.6853
2037	0.683
2046	0.6804
2055	0.6778
2064	0.6757
2073	0.6734
2082	0.669
2091	0.6643
2100	0.6597
2109	0.6547
2118	0.6498
2127	0.6447
2136	0.6401
2145	0.6358
2154	0.6316
2163	0.6273
2172	0.6231
2181	0.6189
2190	0.6146
2199	0.6086
2208	0.6027
2217	0.5962
2226	0.5869
2235	0.5733
2244	0.5524
2253	0.5158
2262	0.551
2271	0.6012
2280	0.5976
2289	0.5898
2298	0.5808
2307	0.5764
2316	0.5762
2325	0.576
2334	0.5762
2343	0.5768
2352	0.5781
2361	0.5793
2370	0.5817
2379	0.5717
2388	0.5587
2397	0.5525
2406	0.5502
2415	0.5484
2424	0.5473
2433	0.546
2442	0.5445
2451	0.5428
2460	0.5417
2469	0.5407
2478	0.5397
2487	0.5386
2496	0.5376
2505	0.5362
2514	0.5349
2523	0.5334
2532	0.5318
2541	0.529
2550	0.526
2559	0.5229
2568	0.5202
2577	0.5175
2586	0.5146
2595	0.5112
2604	0.5081
2613	0.5049
2622	0.5019
2631	0.4989
2640	0.4959
2649	0.4932
2658	0.4906
2667	0.488
2676	0.4859
2685	0.4838
2694	0.482
2703	0.4838
2712	0.4878
2721	0.489
2730	0.4886
2739	0.4868
2748	0.4844
2757	0.4819
2766	0.4796
2775	0.4774
2784	0.4752
2793	0.4725
2802	0.4689
2811	0.4653
2820	0.4617
2829	0.4577
2838	0.4535
2847	0.4492
2856	0.4449
2865	0.4406
2874	0.4359
2883	0.431
2892	0.426
2901	0.4197
2910	0.4043
2919	0.3876
2928	0.4162
2937	0.4127
2946	0.3882
2955	0.3876
2964	0.421
2973	0.4212
2982	0.4176
2991	0.4137
3000	0.4104
3009	0.4073
3018	0.4034
3027	0.3992
3036	0.3945
3045	0.3896
3054	0.3864
3063	0.3866
3072	0.386
3081	0.3845
3090	0.3823
3099	0.3794
3108	0.3762
3117	0.3724
3126	0.3678
3135	0.3624
3144	0.3564
3153	0.35
3162	0.3423
3171	0.3323
3180	0.3209
3189	0.3077
3198	0.2911
3207	0.2694
3216	0.2599
3225	0.2652
3234	0.2826
3243	0.3253
3252	0.343
3261	0.3404
3270	0.3323
3279	0.3192
3288	0.3059
3297	0.2901
3306	0.2693
3315	0.2446
3324	0.226
3333	0.2212
3342	0.2306
3351	0.2729
3360	0.2841
3369	0.3234
3378	0.4179
3387	0.4188
3396	0.381
3405	0.339
3414	0.2968
3423	0.2684
3432	0.3345
3441	0.4052
3450	0.404
3459	0.3921
3468	0.4148
3477	0.4552
3486	0.4573
3495	0.451
3504	0.443
3513	0.4357
3522	0.4294
3531	0.424
3540	0.4185
3549	0.4133
3558	0.4094
3567	0.4055
3576	0.402
3585	0.3986
3594	0.3958
3603	0.393
3612	0.3906
3621	0.3882
3630	0.3859
3639	0.3836
3648	0.3814
3657	0.3791
3666	0.3771
3675	0.375
3684	0.3732
3693	0.3716
3702	0.3704
3711	0.369
3720	0.3664
3729	0.3639
3738	0.3609
3747	0.3578
3756	0.3547
3765	0.3521
3774	0.3497
3783	0.3473
3792	0.345
