Infrared Spectrum: Tin, tetraphenyl-,
Formula: C24 H20 Sn
CAS: 595-90-4
State: SOLID (SPLIT MULL)
Melting point: 228 C
Class: COBLENTZ III
Instrument: PERKIN-ELMER 521 (GRATING)
Instrument parameters: FILTERS AT 3150, 2500, 2000, 1150, 700, 410. GRATING CHANGES: 2000, 630
Resolution: 2
Origin: DOW CORNING CORP.
1/CM	TRANSMITTANCE
247	0.2921
256	0.2726
265	0.2904
274	0.4877
283	0.8579
292	0.8883
301	0.9209
310	0.9485
319	0.9649
328	0.9735
337	0.9785
346	0.9803
355	0.98
364	0.979
373	0.9772
382	0.9757
391	0.9496
400	0.9619
409	0.9774
418	0.9691
427	0.954
436	0.9099
445	0.4291
454	0.6859
463	0.5679
472	0.9132
481	0.9327
490	0.9393
499	0.9413
508	0.9405
517	0.9369
526	0.9334
535	0.932
544	0.9325
553	0.9342
562	0.9359
571	0.9368
580	0.9366
589	0.9355
598	0.9343
607	0.9282
616	0.8954
625	0.9383
634	0.9339
643	0.924
652	0.8772
661	0.8743
670	0.845
679	0.8817
688	0.8196
697	0.2154
706	0.3469
715	0.7583
724	0.6148
733	0.0125
742	0.712
751	0.8234
760	0.8503
769	0.8554
778	0.8625
787	0.8702
796	0.8796
805	0.8794
814	0.8775
823	0.8765
832	0.8745
841	0.8671
850	0.7643
859	0.86
868	0.8635
877	0.8587
886	0.8445
895	0.8466
904	0.8062
913	0.7994
922	0.8298
931	0.8197
940	0.8164
949	0.8186
958	0.8156
967	0.7968
976	0.8017
985	0.7872
994	0.4168
1003	0.8029
1012	0.7918
1021	0.2798
1030	0.808
1039	0.808
1048	0.7749
1057	0.5422
1066	0.6734
1075	0.4232
1084	0.7991
1093	0.8032
1102	0.799
1111	0.7977
1120	0.7905
1129	0.7835
1138	0.7728
1147	0.588
1156	0.7443
1165	0.7375
1174	0.6581
1183	0.7194
1192	0.7642
1201	0.7743
1210	0.7686
1219	0.7638
1228	0.7604
1237	0.7512
1246	0.7223
1255	0.5651
1264	0.7267
1273	0.7277
1282	0.7194
1291	0.6738
1300	0.6114
1309	0.7198
1318	0.7703
1327	0.7185
1336	0.7909
1345	0.7969
1354	0.7895
1363	0.7799
1372	0.749
1381	0.747
1390	0.7743
1399	0.7899
1408	0.7456
1417	0.6439
1426	0.1787
1435	0.7953
1444	0.8101
1453	0.8085
1462	0.7992
1471	0.7341
1480	0.393
1489	0.8242
1498	0.8256
1507	0.8267
1516	0.83
1525	0.8268
1534	0.8259
1543	0.8204
1552	0.8054
1561	0.8019
1570	0.7837
1579	0.8032
1588	0.7851
1597	0.7932
1606	0.7998
1615	0.7998
1624	0.8091
1633	0.7949
1642	0.7746
1651	0.7708
1660	0.7963
1669	0.8023
1678	0.7997
1687	0.7994
1696	0.7987
1705	0.7972
1714	0.7939
1723	0.7922
1732	0.7969
1741	0.7979
1750	0.7957
1759	0.7841
1768	0.7582
1777	0.7734
1786	0.7928
1795	0.7926
1804	0.7875
1813	0.7767
1822	0.7422
1831	0.751
1840	0.7738
1849	0.7782
1858	0.7801
1867	0.7751
1876	0.7508
1885	0.7291
1894	0.7564
1903	0.7387
1912	0.7587
1921	0.7752
1930	0.772
1939	0.7687
1948	0.764
1957	0.7355
1966	0.7278
1975	0.754
1984	0.7605
1993	0.7638
2002	0.7667
2011	0.7762
2020	0.7756
2029	0.7749
2038	0.7734
2047	0.7716
2056	0.77
2065	0.7688
2074	0.7675
2083	0.7648
2092	0.762
2101	0.7588
2110	0.7607
2119	0.7586
2128	0.7566
2137	0.7545
2146	0.7527
2155	0.7509
2164	0.7492
2173	0.747
2182	0.744
2191	0.7409
2200	0.7374
2209	0.7338
2218	0.7307
2227	0.7276
2236	0.7249
2245	0.7234
2254	0.7219
2263	0.7203
2272	0.7183
2281	0.7155
2290	0.7128
2299	0.7106
2308	0.7086
2317	0.7068
2326	0.705
2335	0.7037
2344	0.703
2353	0.7023
2362	0.7017
2371	0.7014
2380	0.7012
2389	0.701
2398	0.7009
2407	0.7009
2416	0.701
2425	0.7011
2434	0.7013
2443	0.7016
2452	0.702
2461	0.7012
2470	0.7
2479	0.6989
2488	0.6977
2497	0.6963
2506	0.6949
2515	0.6935
2524	0.6921
2533	0.6899
2542	0.6876
2551	0.6849
2560	0.6822
2569	0.6802
2578	0.6788
2587	0.6773
2596	0.676
2605	0.6726
2614	0.6794
2623	0.6794
2632	0.676
2641	0.6707
2650	0.668
2659	0.6663
2668	0.6654
2677	0.6644
2686	0.6635
2695	0.6625
2704	0.6616
2713	0.6603
2722	0.6592
2731	0.6579
2740	0.6568
2749	0.6551
2758	0.6534
2767	0.6517
2776	0.6501
2785	0.6481
2794	0.6455
2803	0.6428
2812	0.6401
2821	0.6374
2830	0.6349
2839	0.6324
2848	0.6299
2857	0.6275
2866	0.6258
2875	0.6242
2884	0.6247
2893	0.6197
2902	0.6119
2911	0.601
2920	0.5922
2929	0.5899
2938	0.5901
2947	0.5912
2956	0.5918
2965	0.5908
2974	0.5846
2983	0.5648
2992	0.5179
3001	0.5857
3010	0.5552
3019	0.5113
3028	0.5367
3037	0.5113
3046	0.4816
3055	0.5224
3064	0.3616
3073	0.5428
3082	0.5442
3091	0.606
3100	0.61
3109	0.6089
3118	0.61
3127	0.6111
3136	0.5896
3145	0.5923
3154	0.5993
3163	0.5985
3172	0.5981
3181	0.5974
3190	0.5957
3199	0.594
3208	0.5922
3217	0.5905
3226	0.589
3235	0.5883
3244	0.5875
3253	0.5861
3262	0.5847
3271	0.5833
3280	0.5819
3289	0.5802
3298	0.5784
3307	0.5766
3316	0.5748
3325	0.573
3334	0.5713
3343	0.5696
3352	0.5678
3361	0.5661
3370	0.5644
3379	0.5626
3388	0.561
3397	0.5594
3406	0.5578
3415	0.5561
3424	0.5545
3433	0.5534
3442	0.5526
3451	0.5518
3460	0.5509
3469	0.5501
3478	0.5493
3487	0.5485
3496	0.5478
3505	0.547
3514	0.5462
3523	0.5454
3532	0.5446
3541	0.5432
3550	0.5419
3559	0.5405
3568	0.5392
3577	0.5378
3586	0.5365
3595	0.5353
3604	0.5341
3613	0.5329
3622	0.5317
3631	0.5306
3640	0.5295
3649	0.5284
3658	0.5272
3667	0.526
3676	0.5249
3685	0.5237
3694	0.5224
3703	0.5209
3712	0.5195
3721	0.518
3730	0.518
3739	0.5215
3748	0.522
3757	0.5212
3766	0.5199
3775	0.5185
3784	0.5171
3793	0.5157
3802	0.5142
3811	0.5128
