Infrared Spectrum: DL-Methyltartronic acid
Formula: C 4 H 6 O 5
CAS: 595-98-2
State: gas
Origin: EPA-IR VAPOR PHASE LIBRARY
1/CM	ABSORBANCE
549.8	0.010422
559.445	0.011012
569.09	0.010442
578.734	0.009862
588.379	0.008922
598.024	0.008472
607.669	0.008142
617.313	0.007382
626.958	0.006372
636.603	0.005392
646.248	0.004232
655.893	0.003162
665.537	0.002672
675.182	0.002252
684.827	0.002232
694.472	0.002252
704.116	0.002442
713.761	0.002732
723.406	0.003562
733.051	0.004832
742.695	0.004592
752.34	0.003982
761.985	0.003342
771.63	0.002982
781.275	0.003202
790.919	0.003202
800.564	0.003322
810.209	0.002882
819.854	0.002122
829.498	0.001442
839.143	0.0011761
848.788	0.00113
858.433	0.0010959
868.078	0.0011459
877.722	0.0011036
887.367	0.001262
897.012	0.001572
906.657	0.001972
916.301	0.002142
925.946	0.002162
935.591	0.001952
945.236	0.001662
954.88	0.001432
964.525	0.001472
974.17	0.001672
983.815	0.001942
993.46	0.002652
1003.1	0.003692
1012.75	0.005552
1022.39	0.008132
1032.04	0.009592
1041.68	0.010292
1051.33	0.009902
1060.97	0.009482
1070.62	0.011472
1080.26	0.016672
1089.91	0.025402
1099.55	0.038152
1109.2	0.047172
1118.84	0.046872
1128.49	0.039632
1138.13	0.026622
1147.78	0.017482
1157.42	0.013702
1167.07	0.011042
1176.71	0.008352
1186.36	0.005732
1196	0.004192
1205.64	0.003132
1215.29	0.002502
1224.93	0.002882
1234.58	0.003872
1244.22	0.004852
1253.87	0.006192
1263.51	0.007372
1273.16	0.008262
1282.8	0.008492
1292.45	0.008912
1302.09	0.009312
1311.74	0.009682
1321.38	0.009802
1331.03	0.009562
1340.67	0.009062
1350.32	0.008552
1359.96	0.008232
1369.61	0.008132
1379.25	0.007822
1388.9	0.006912
1398.54	0.005512
1408.18	0.003872
1417.83	0.003102
1427.47	0.002642
1437.12	0.002722
1446.76	0.002852
1456.41	0.003092
1466.05	0.002652
1475.7	0.002102
1485.34	0.001382
1494.99	0.0009393
1504.63	0.0007141
1514.28	0.0006264
1523.92	0.0006333
1533.57	0.0005804
1543.21	0.0005715
1552.86	0.0004733
1562.5	0.0004887
1572.15	0.0005064
1581.79	0.0005673
1591.44	0.0006823
1601.08	0.0004749
1610.73	0.0002545
1620.37	0.0001507
1630.01	0.00029692
1639.66	0.0003342
1649.3	0.000413
1658.95	0.0004871
1668.59	0.0005074
1678.24	0.0004962
1687.88	0.0006782
1697.53	0.0010544
1707.17	0.001462
1716.82	0.002502
1726.46	0.003582
1736.11	0.005892
1745.75	0.010972
1755.4	0.021262
1765.04	0.034352
1774.69	0.042462
1784.33	0.045212
1793.98	0.037372
1803.62	0.023202
1813.27	0.013472
1822.91	0.008172
1832.55	0.004402
1842.2	0.002522
1851.84	0.001632
1861.49	0.0011171
1871.13	0.0008225
1880.78	0.0006371
1890.42	0.0005853
1900.07	0.0005066
1909.71	0.0004734
1919.36	0.0004273
1929	0.0004613
1938.65	0.0004061
1948.29	0.0003814
1957.94	0.0003468
1967.58	0.000367
1977.23	0.000353
1986.87	0.0003648
1996.52	0.000317
2006.16	0.0003646
2015.81	0.0003361
2025.45	0.0003211
2035.1	0.0003395
2044.74	0.0003425
2054.38	0.00030187
2064.03	0.00030185
2073.67	0.0003382
2083.32	0.00028926
2092.96	0.0003152
2102.61	0.00029008
2112.25	0.00026464
2121.9	0.00026095
2131.54	0.00023352
2141.19	0.00025107
2150.83	0.0003244
2160.48	0.00029524
2170.12	0.0003684
2179.77	0.0003101
2189.41	0.0003064
2199.06	0.0003534
2208.7	0.0003945
2218.35	0.0004266
2227.99	0.0003922
2237.64	0.0003886
2247.28	0.0004673
2256.92	0.000448
2266.57	0.000501
2276.21	0.0005527
2285.86	0.0005022
2295.5	0.0004843
2305.15	0.0005937
2314.79	0.0006805
2324.44	0.0007022
2334.08	0.0006785
2343.73	0.000606
2353.37	0.0006566
2363.02	0.0008906
2372.66	0.0007793
2382.31	0.0004842
2391.95	0.0004403
2401.6	0.0004099
2411.24	0.0003849
2420.89	0.0004446
2430.53	0.0003705
2440.18	0.0004034
2449.82	0.0004247
2459.47	0.0004294
2469.11	0.0004162
2478.75	0.0004505
2488.4	0.0004538
2498.04	0.0003677
2507.69	0.0004127
2517.33	0.0004195
2526.98	0.0003712
2536.62	0.000407
2546.27	0.0004173
2555.91	0.0004261
2565.56	0.0003694
2575.2	0.0003853
2584.85	0.0003337
2594.49	0.0003549
2604.14	0.00028524
2613.78	0.00029479
2623.43	0.0003759
2633.07	0.00029422
2642.72	0.00029005
2652.36	0.0003179
2662.01	0.00025649
2671.65	0.0003679
2681.29	0.0003504
2690.94	0.0003276
2700.58	0.0003495
2710.23	0.00029726
2719.87	0.000376
2729.52	0.000363
2739.16	0.0003935
2748.81	0.0004135
2758.45	0.0003508
2768.1	0.0003859
2777.74	0.0004664
2787.39	0.0005387
2797.03	0.0005889
2806.68	0.0006204
2816.32	0.0007787
2825.97	0.0008438
2835.61	0.0010323
2845.26	0.0011539
2854.9	0.001362
2864.55	0.001522
2874.19	0.001772
2883.84	0.002232
2893.48	0.002612
2903.12	0.003112
2912.77	0.003122
2922.41	0.003162
2932.06	0.003162
2941.7	0.003162
2951.35	0.002962
2960.99	0.002892
2970.64	0.003142
2980.28	0.004332
2989.93	0.006052
2999.57	0.005712
3009.22	0.004422
3018.86	0.002592
3028.51	0.001242
3038.15	0.0006226
3047.8	0.0004974
3057.44	0.0004325
3067.09	0.0004234
3076.73	0.0003427
3086.38	0.0003458
3096.02	0.0003462
3105.67	0.0004439
3115.31	0.00029487
3124.95	0.0003032
3134.6	0.00028502
3144.24	0.0003503
3153.89	0.0003629
3163.53	0.00027259
3173.18	0.00025505
3182.82	0.000336
3192.47	0.0003478
3202.11	0.00029483
3211.76	0.00027999
3221.4	0.00027489
3231.05	0.000379
3240.69	0.00028517
3250.34	0.00026269
3259.98	0.00019618
3269.63	0.00019753
3279.27	0.00024995
3288.92	0.00028953
3298.56	0.0003739
3308.21	0.00026535
3317.85	0.0003858
3327.49	0.00029072
3337.14	0.000356
3346.78	0.0003988
3356.43	0.0003399
3366.07	0.0003338
3375.72	0.0003044
3385.36	0.0003536
3395.01	0.00027607
3404.65	0.00026423
3414.3	0.0003364
3423.94	0.00029922
3433.59	0.00026586
3443.23	0.0004744
3452.88	0.0003852
3462.52	0.000536
3472.17	0.0006398
3481.81	0.001352
3491.46	0.002022
3501.1	0.002372
3510.75	0.002552
3520.39	0.002242
3530.04	0.002062
3539.68	0.002032
3549.32	0.003582
3558.97	0.009842
3568.61	0.015572
3578.26	0.019372
3587.9	0.017052
3597.55	0.010272
3607.19	0.004922
3616.84	0.003192
3626.48	0.002432
3636.13	0.002492
3645.77	0.002372
3655.42	0.002402
3665.06	0.001902
3674.71	0.001242
3684.35	0.000821
3694	0.0006772
3703.64	0.0004592
3713.29	0.0003263
3722.93	0.0003127
3732.58	0.0001651
3742.22	0.0003155
3751.86	0.000205809
3761.51	0.00025209
3771.15	0.00022231
3780.8	0.0003104
3790.44	0.0001615
3800.09	0.0001562
3809.73	0.0001751
3819.38	0.00026371
3829.02	0.00029133
3838.67	0.0002892
3848.31	0.000210439
3857.96	0.00023874
3867.6	0.000326
3877.25	0.0003798
3886.89	0.0003315
3896.54	0.0003215
3906.18	0.000175
3915.83	0.00022869
3925.47	7.1e-05
3935.12	0.0001068
3944.76	0.0001423
3954.41	0.0001603
3964.05	0.0001064
3973.69	0.0001809
3983.34	0.000203866
3992.98	0.0001551
