Infrared Spectrum: 14Alpha,21-DIHYDROXYPREGN-4-ENE-3,20-DIONE
Formula: C21 H30 O4
CAS: 595-71-1
State: SOLID (KBr DISC)
Class: COBLENTZ III
Instrument: BECKMAN IR-7
Sampling: TRANSMISSION
Resolution: 4
Origin: THE WORCESTER FOUNDATION FOR EXPERIMENTAL BIOLOGY, Neal L. McNiven
1/CM	TRANSMITTANCE
660.426	1.026
669.162	1.029
677.899	0.9961
686.635	1.019
695.371	1.032
704.108	1.03
712.844	1.017
721.58	1.026
730.317	1.021
739.053	0.999
747.79	0.965
756.526	1
765.262	0.984
773.999	0.911
782.735	0.884
791.471	0.984
800.208	0.947
808.944	0.984
817.68	0.968
826.417	0.971
835.153	0.936
843.889	0.933
852.626	0.898
861.362	0.7472
870.099	0.6888
878.835	0.842
887.571	0.7
896.308	0.749
905.044	0.7169
913.78	0.85
922.517	0.727
931.253	0.811
939.989	0.785
948.726	0.6601
957.462	0.771
966.198	0.666
974.935	0.703
983.671	0.767
992.408	0.718
1001.14	0.775
1009.88	0.764
1018.62	0.742
1027.35	0.736
1036.09	0.694
1044.83	0.4291
1053.56	0.376
1062.3	0.465
1071.03	0.478
1079.77	0.595
1088.51	0.701
1097.24	0.589
1105.98	0.676
1114.72	0.613
1123.45	0.655
1132.19	0.6919
1140.93	0.751
1149.66	0.665
1158.4	0.602
1167.13	0.661
1175.87	0.75
1184.61	0.637
1193.34	0.663
1202.08	0.614
1210.82	0.607
1219.55	0.619
1228.29	0.494
1237.03	0.458
1245.76	0.5459
1254.5	0.73
1263.23	0.731
1271.97	0.631
1280.71	0.499
1289.44	0.681
1298.18	0.678
1306.92	0.73
1315.65	0.737
1324.39	0.744
1333.13	0.6
1341.86	0.584
1350.6	0.563
1359.33	0.471
1368.07	0.48
1376.81	0.477
1385.54	0.531
1394.28	0.5969
1403.02	0.669
1411.75	0.597
1420.49	0.601
1429.23	0.66
1437.96	0.526
1446.7	0.551
1455.43	0.567
1464.17	0.664
1472.91	0.661
1481.64	0.711
1490.38	0.768
1499.12	0.821
1507.85	0.836
1516.59	0.857
1525.33	0.857
1534.06	0.857
1542.8	0.839
1551.53	0.85
1560.27	0.828
1569.01	0.839
1577.74	0.826
1586.48	0.795
1595.22	0.753
1603.95	0.678
1612.69	0.4661
1621.43	0.563
1630.16	0.571
1638.9	0.399
1647.63	0.2971
1656.37	0.102
1665.11	0.159
1673.84	0.309
1682.58	0.46
1691.32	0.561
1700.05	0.5221
1708.79	0.192
1717.53	0.3239
1726.26	0.661
1735	0.713
1743.73	0.781
1752.47	0.814
1761.21	0.842
1769.94	0.852
1778.68	0.865
1787.42	0.871
1796.15	0.873
1804.89	0.879
1813.63	0.884
1822.36	0.889
1831.1	0.892
1839.83	0.894
1848.57	0.897
1857.31	0.897
1866.04	0.898
1874.78	0.899
1883.52	0.899
1892.25	0.899
1900.99	0.897
1909.72	0.896
1918.46	0.894
1927.2	0.893
1935.93	0.892
1944.67	0.891
1953.41	0.889
1962.14	0.89
1970.88	0.89
1979.62	0.889
1988.35	0.887
1997.09	0.885
2005.82	0.884
2014.56	0.8839
2023.3	0.883
2032.03	0.882
2040.77	0.881
2049.51	0.881
2058.24	0.881
2066.98	0.88
2075.72	0.879
2084.45	0.8785
2093.19	0.878
2101.92	0.878
2110.66	0.878
2119.4	0.877
2128.13	0.877
2136.87	0.876
2145.61	0.876
2154.34	0.876
2163.08	0.875
2171.82	0.873
2180.55	0.871
2189.29	0.8699
2198.02	0.868
2206.76	0.866
2215.5	0.8647
2224.23	0.863
2232.97	0.8616
2241.71	0.86
2250.44	0.8575
2259.18	0.8565
2267.92	0.855
2276.65	0.853
2285.39	0.8513
2294.12	0.85
2302.86	0.8482
2311.6	0.8461
2320.33	0.845
2329.07	0.844
2337.81	0.839
2346.54	0.836
2355.28	0.8338
2364.02	0.8308
2372.75	0.828
2381.49	0.8283
2390.22	0.8313
2398.96	0.834
2407.7	0.834
2416.43	0.834
2425.17	0.834
2433.91	0.834
2442.64	0.8334
2451.38	0.8313
2460.12	0.831
2468.85	0.829
2477.59	0.828
2486.32	0.8271
2495.06	0.826
2503.8	0.823
2512.53	0.8209
2521.27	0.818
2530.01	0.8168
2538.74	0.815
2547.48	0.8137
2556.22	0.813
2564.95	0.81
2573.69	0.81
2582.42	0.8085
2591.16	0.8075
2599.9	0.807
2608.63	0.8054
2617.37	0.805
2626.11	0.8005
2634.84	0.7926
2643.58	0.7912
2652.32	0.789
2661.05	0.786
2669.79	0.786
2678.52	0.786
2687.26	0.7881
2696	0.789
2704.73	0.788
2713.47	0.7847
2722.21	0.7807
2730.94	0.778
2739.68	0.7756
2748.42	0.775
2757.15	0.7745
2765.89	0.7714
2774.62	0.768
2783.36	0.761
2792.1	0.7456
2800.83	0.7275
2809.57	0.7163
2818.31	0.7073
2827.04	0.6885
2835.78	0.6441
2844.52	0.5444
2853.25	0.4386
2861.99	0.434
2870.72	0.4384
2879.46	0.45
2888.2	0.4476
2896.93	0.4189
2905.67	0.3739
2914.41	0.3296
2923.14	0.2807
2931.88	0.243
2940.62	0.2822
2949.35	0.3317
2958.09	0.3461
2966.82	0.4436
2975.56	0.512
2984.3	0.5555
2993.03	0.5742
3001.77	0.588
3010.51	0.6099
3019.24	0.6653
3027.98	0.6691
3036.72	0.6738
3045.45	0.7107
3054.19	0.7176
3062.92	0.723
3071.66	0.7196
3080.4	0.717
3089.13	0.715
3097.87	0.7124
3106.61	0.7088
3115.34	0.703
3124.08	0.6978
3132.81	0.6925
3141.55	0.6902
3150.29	0.6829
3159.02	0.6732
3167.76	0.6651
3176.5	0.6599
3185.23	0.6499
3193.97	0.6432
3202.71	0.6268
3211.44	0.6113
3220.18	0.6014
3228.91	0.5865
3237.65	0.5564
3246.39	0.5461
3255.12	0.535
3263.86	0.5101
3272.6	0.478
3281.33	0.4498
3290.07	0.4267
3298.81	0.4064
3307.54	0.3951
3316.28	0.3788
3325.01	0.3652
3333.75	0.3601
3342.49	0.358
3351.22	0.3519
3359.96	0.3489
3368.7	0.347
3377.43	0.3448
3386.17	0.3427
3394.91	0.3367
3403.64	0.3202
3412.38	0.3089
3421.11	0.2895
3429.85	0.282
3438.59	0.2968
3447.32	0.3166
3456.06	0.3334
3464.8	0.3642
3473.53	0.4069
3482.27	0.4428
3491.01	0.4613
3499.74	0.4848
3508.48	0.5042
3517.21	0.5367
3525.95	0.5592
3534.69	0.5792
3543.42	0.5984
3552.16	0.6167
3560.9	0.6376
3569.63	0.6653
3578.37	0.6739
3587.11	0.6914
3595.84	0.7011
3604.58	0.7074
3613.31	0.7203
3622.05	0.7241
3630.79	0.7293
3639.52	0.7348
3648.26	0.7389
3657	0.742
3665.73	0.744
3674.47	0.746
3683.21	0.748
3691.94	0.749
3700.68	0.749
3709.41	0.7478
3718.15	0.7444
3726.89	0.739
3735.62	0.737
3744.36	0.7384
3753.1	0.7425
3761.83	0.747
3770.57	0.7476
3779.31	0.748
3788.04	0.748
3796.78	0.747
3805.51	0.747
3814.25	0.746
3822.99	0.7431
3831.72	0.742
3840.46	0.743
3849.2	0.744
3857.93	0.742
3866.67	0.7408
3875.41	0.741
3884.14	0.7407
3892.88	0.742
3901.61	0.742
3910.35	0.7416
3919.09	0.74
3927.82	0.739
3936.56	0.739
3945.3	0.739
3954.03	0.7383
3962.77	0.736
3971.51	0.736
3980.24	0.736
3988.98	0.736
