Infrared Spectrum: Lead, tetraphenyl-,
Formula: C24 H20 Pb
CAS: 595-89-1
State: SOLID (SPLIT MULL)
Melting point: 228 C
Class: COBLENTZ III
Instrument: PERKIN-ELMER 521 (GRATING)
Instrument parameters: FILTERS AT 3150, 2500, 2000, 1150, 700, 410. GRATING CHANGES: 2000, 630
Resolution: 2
Origin: DOW CORNING CORP.
1/CM	TRANSMITTANCE
246	0.6634
255	0.671
264	0.686
273	0.7334
282	0.7803
291	0.8086
300	0.8218
309	0.8492
318	0.8649
327	0.8733
336	0.8798
345	0.8847
354	0.8871
363	0.8884
372	0.8884
381	0.8851
390	0.8789
399	0.8827
408	0.8896
417	0.8876
426	0.8818
435	0.8468
444	0.4417
453	0.3406
462	0.8534
471	0.8673
480	0.8691
489	0.8702
498	0.8705
507	0.8697
516	0.868
525	0.8666
534	0.8656
543	0.8655
552	0.8653
561	0.8651
570	0.865
579	0.8652
588	0.8654
597	0.8645
606	0.8639
615	0.8446
624	0.8836
633	0.8814
642	0.8714
651	0.871
660	0.8496
669	0.8415
678	0.8558
687	0.8098
696	0.2442
705	0.4114
714	0.7985
723	0.7003
732	0.2128
741	0.742
750	0.8055
759	0.8135
768	0.8212
777	0.8276
786	0.8326
795	0.8371
804	0.8389
813	0.8387
822	0.8379
831	0.8365
840	0.8298
849	0.7759
858	0.8266
867	0.8265
876	0.8241
885	0.8192
894	0.816
903	0.728
912	0.8029
921	0.8109
930	0.8057
939	0.8067
948	0.8055
957	0.8005
966	0.7881
975	0.7601
984	0.7777
993	0.5169
1002	0.7776
1011	0.7548
1020	0.7792
1029	0.7887
1038	0.7811
1047	0.7559
1056	0.5504
1065	0.6823
1074	0.7833
1083	0.7832
1092	0.7852
1101	0.7843
1110	0.7806
1119	0.7739
1128	0.7722
1137	0.7652
1146	0.6546
1155	0.7556
1164	0.7448
1173	0.734
1182	0.7517
1191	0.7666
1200	0.775
1209	0.7747
1218	0.7726
1227	0.7691
1236	0.763
1245	0.7525
1254	0.7006
1263	0.7304
1272	0.7529
1281	0.7437
1290	0.7136
1299	0.5944
1308	0.8358
1317	0.8613
1326	0.6853
1335	0.8932
1344	0.886
1353	0.878
1362	0.8752
1371	0.8178
1380	0.8239
1389	0.8692
1398	0.861
1407	0.8242
1416	0.7201
1425	0.0774
1434	0.9001
1443	0.9086
1452	0.9008
1461	0.8637
1470	0.3957
1479	0.7873
1488	0.9226
1497	0.9184
1506	0.9168
1515	0.915
1524	0.9119
1533	0.9071
1542	0.8891
1551	0.8727
1560	0.6712
1569	0.8877
1578	0.8684
1587	0.8689
1596	0.8954
1605	0.8908
1614	0.9005
1623	0.8881
1632	0.8688
1641	0.8644
1650	0.8721
1659	0.8929
1668	0.8916
1677	0.8951
1686	0.8945
1695	0.8906
1704	0.8806
1713	0.8831
1722	0.8932
1731	0.8901
1740	0.878
1749	0.8734
1758	0.8357
1767	0.8513
1776	0.8714
1785	0.8773
1794	0.873
1803	0.8672
1812	0.8181
1821	0.805
1830	0.8441
1839	0.8586
1848	0.8605
1857	0.8615
1866	0.8256
1875	0.769
1884	0.823
1893	0.804
1902	0.8339
1911	0.8607
1920	0.8611
1929	0.8531
1938	0.8365
1947	0.8158
1956	0.7846
1965	0.7989
1974	0.8136
1983	0.8301
1992	0.8355
2001	0.8435
2010	0.8705
2019	0.8709
2028	0.87
2037	0.8688
2046	0.8676
2055	0.8665
2064	0.8648
2073	0.8533
2082	0.8624
2091	0.8602
2100	0.8558
2109	0.8492
2118	0.8404
2127	0.8531
2136	0.853
2145	0.8485
2154	0.843
2163	0.8381
2172	0.8346
2181	0.8326
2190	0.8303
2199	0.8272
2208	0.8227
2217	0.8137
2226	0.8039
2235	0.8023
2244	0.8009
2253	0.799
2262	0.7972
2271	0.7953
2280	0.7935
2289	0.792
2298	0.7905
2307	0.789
2316	0.7875
2325	0.7863
2334	0.7851
2343	0.7838
2352	0.7819
2361	0.7795
2370	0.7772
2379	0.7769
2388	0.7768
2397	0.7774
2406	0.7771
2415	0.7747
2424	0.7723
2433	0.7699
2442	0.7681
2451	0.7675
2460	0.767
2469	0.7698
2478	0.7714
2487	0.7706
2496	0.7687
2505	0.7668
2514	0.7649
2523	0.7629
2532	0.7609
2541	0.7587
2550	0.7565
2559	0.7523
2568	0.7439
2577	0.7338
2586	0.7261
2595	0.7457
2604	0.7428
2613	0.7386
2622	0.735
2631	0.7339
2640	0.7329
2649	0.7313
2658	0.7299
2667	0.7283
2676	0.7269
2685	0.7253
2694	0.7238
2703	0.7223
2712	0.7208
2721	0.7193
2730	0.717
2739	0.7141
2748	0.7113
2757	0.7084
2766	0.7055
2775	0.7026
2784	0.6998
2793	0.6969
2802	0.694
2811	0.6915
2820	0.6893
2829	0.6871
2838	0.6849
2847	0.6827
2856	0.68
2865	0.6774
2874	0.6747
2883	0.669
2892	0.6632
2901	0.6586
2910	0.6609
2919	0.6565
2928	0.6523
2937	0.6481
2946	0.644
2955	0.6392
2964	0.6332
2973	0.6196
2982	0.5694
2991	0.5596
3000	0.6284
3009	0.5914
3018	0.5415
3027	0.5826
3036	0.5227
3045	0.4133
3054	0.56
3063	0.3575
3072	0.2318
3081	0.6237
3090	0.6463
3099	0.6468
3108	0.6445
3117	0.6406
3126	0.6513
3135	0.6136
3144	0.5798
3153	0.6044
3162	0.6057
3171	0.6046
3180	0.6027
3189	0.6012
3198	0.5998
3207	0.5983
3216	0.5968
3225	0.595
3234	0.593
3243	0.5911
3252	0.5885
3261	0.5858
3270	0.5832
3279	0.5806
3288	0.578
3297	0.5753
3306	0.5727
3315	0.5701
3324	0.5677
3333	0.5653
3342	0.5629
3351	0.5604
3360	0.5578
3369	0.5551
3378	0.553
3387	0.551
3396	0.5489
3405	0.5468
3414	0.5452
3423	0.544
3432	0.5428
3441	0.5416
3450	0.5405
3459	0.5394
3468	0.5385
3477	0.5375
3486	0.5365
3495	0.5355
3504	0.5346
3513	0.5335
3522	0.5319
3531	0.5303
3540	0.5288
3549	0.5272
3558	0.5253
3567	0.5233
3576	0.5214
3585	0.5194
3594	0.5174
3603	0.5158
3612	0.5145
3621	0.5132
3630	0.5119
3639	0.5106
3648	0.5092
3657	0.5075
3666	0.5057
3675	0.5026
3684	0.5008
3693	0.5002
3702	0.4997
3711	0.4988
3720	0.4978
3729	0.4966
3738	0.4949
3747	0.4931
3756	0.4903
3765	0.4875
3774	0.4849
3783	0.4838
3792	0.4827
3801	0.4818
3810	0.4812
3819	0.4806
