Infrared Spectrum: Ammonium iodide, (2-hydroxyethyl)-triethyl-
Formula: C8 H20 I N O
CAS: 5957-17-5
State: SOLID (SPLIT MULL)
Melting point: 290 C DECOMP.
Class: COBLENTZ III
Instrument: DOW KBr FOREPRISM-GRATING
Instrument parameters: BLAZED AT 3.5, 12.0, 20.0 MICRON AND CHANGED AT 5.0, 7.5, 14.9 MICRON
Sampling: TRANSMISSION
Resolution: 2
Origin: DOW CHEMICAL COMPANY
1/CM	TRANSMITTANCE
456	0.5554
465	0.5392
474	0.5239
483	0.5119
492	0.4719
501	0.4365
510	0.4746
519	0.6429
528	0.5911
537	0.5533
546	0.5956
555	0.6845
564	0.7231
573	0.743
582	0.8047
591	0.8319
600	0.8462
609	0.8568
618	0.863
627	0.8656
636	0.8648
645	0.861
654	0.8521
663	0.8522
672	0.8663
681	0.8639
690	0.8535
699	0.832
708	0.7875
717	0.6865
726	0.6153
735	0.6738
744	0.7082
753	0.7147
762	0.698
771	0.6305
780	0.4131
789	0.1325
798	0.4322
807	0.4539
816	0.63
825	0.7261
834	0.7156
843	0.6461
852	0.7004
861	0.7061
870	0.6591
879	0.6175
888	0.6215
897	0.6491
906	0.6061
915	0.3195
924	0.4686
933	0.5015
942	0.5191
951	0.5214
960	0.5429
969	0.528
978	0.4592
987	0.2164
996	0.3747
1005	0.3095
1014	0.26
1023	0.1075
1032	0.2512
1041	0.3545
1050	0.3566
1059	0.3612
1068	0.1651
1077	0.0232
1086	0.1459
1095	0.5529
1104	0.506
1113	0.4171
1122	0.3142
1131	0.6022
1140	0.5967
1149	0.5461
1158	0.2846
1167	0.3782
1176	0.2603
1185	0.2374
1194	0.6251
1203	0.6329
1212	0.6178
1221	0.5706
1230	0.5143
1239	0.4386
1248	0.4442
1257	0.5661
1266	0.5596
1275	0.5383
1284	0.5113
1293	0.4503
1302	0.3294
1311	0.2832
1320	0.4312
1329	0.4805
1338	0.4689
1347	0.4602
1356	0.4625
1365	0.4805
1374	0.4556
1383	0.538
1392	0.4224
1401	0.31
1410	0.253
1419	0.554
1428	0.5525
1437	0.3776
1446	0.2672
1455	0.2391
1464	0.2484
1473	0.4938
1482	0.5575
1491	0.7778
1500	0.853
1509	0.866
1518	0.869
1527	0.8704
1536	0.8701
1545	0.8694
1554	0.8703
1563	0.8714
1572	0.8697
1581	0.8664
1590	0.8609
1599	0.8615
1608	0.8666
1617	0.8657
1626	0.8602
1635	0.8538
1644	0.8466
1653	0.8378
1662	0.8329
1671	0.8348
1680	0.835
1689	0.8333
1698	0.8311
1707	0.8272
1716	0.8223
1725	0.8172
1734	0.8122
1743	0.8073
1752	0.8086
1761	0.8088
1770	0.8068
1779	0.8036
1788	0.8006
1797	0.7992
1806	0.7971
1815	0.7951
1824	0.7935
1833	0.791
1842	0.7877
1851	0.7844
1860	0.7818
1869	0.7796
1878	0.7778
1887	0.7759
1896	0.7755
1905	0.7733
1914	0.7703
1923	0.7662
1932	0.7623
1941	0.7587
1950	0.7552
1959	0.7519
1968	0.7476
1977	0.7422
1986	0.7355
1995	0.7264
2004	0.7316
2013	0.7316
2022	0.7315
2031	0.7295
2040	0.7272
2049	0.7236
2058	0.7188
2067	0.7135
2076	0.7078
2085	0.7014
2094	0.695
2103	0.6889
2112	0.684
2121	0.6789
2130	0.6739
2139	0.6683
2148	0.6628
2157	0.6571
2166	0.6511
2175	0.6448
2184	0.6384
2193	0.632
2202	0.6252
2211	0.618
2220	0.6107
2229	0.6012
2238	0.591
2247	0.5798
2256	0.5657
2265	0.5552
2274	0.5498
2283	0.5456
2292	0.5423
2301	0.5389
2310	0.5354
2319	0.5319
2328	0.5292
2337	0.5267
2346	0.5261
2355	0.5255
2364	0.5251
2373	0.5255
2382	0.525
2391	0.5229
2400	0.5181
2409	0.5138
2418	0.51
2427	0.5065
2436	0.5043
2445	0.5022
2454	0.5004
2463	0.4987
2472	0.4969
2481	0.4956
2490	0.4944
2499	0.4932
2508	0.4915
2517	0.4896
2526	0.4863
2535	0.4829
2544	0.4796
2553	0.4762
2562	0.4724
2571	0.4685
2580	0.4647
2589	0.4605
2598	0.4563
2607	0.4521
2616	0.4484
2625	0.4456
2634	0.4437
2643	0.441
2652	0.4376
2661	0.4341
2670	0.4307
2679	0.4265
2688	0.4224
2697	0.4179
2706	0.4131
2715	0.4083
2724	0.4035
2733	0.3988
2742	0.3946
2751	0.3904
2760	0.386
2769	0.3811
2778	0.3763
2787	0.3714
2796	0.3663
2805	0.361
2814	0.3555
2823	0.3492
2832	0.3413
2841	0.3293
2850	0.3134
2859	0.2977
2868	0.2831
2877	0.2632
2886	0.2583
2895	0.2736
2904	0.2755
2913	0.2641
2922	0.2523
2931	0.2441
2940	0.2397
2949	0.2372
2958	0.2316
2967	0.1883
2976	0.1541
2985	0.158
2994	0.2234
3003	0.2772
3012	0.3291
3021	0.3382
3030	0.3366
3039	0.3323
3048	0.3272
3057	0.3221
3066	0.3172
3075	0.3125
3084	0.3073
3093	0.3018
3102	0.2959
3111	0.2895
3120	0.2832
3129	0.277
3138	0.2708
3147	0.2637
3156	0.2559
3165	0.248
3174	0.2401
3183	0.2322
3192	0.2226
3201	0.2119
3210	0.2003
3219	0.1879
3228	0.1747
3237	0.1613
3246	0.1431
3255	0.1241
3264	0.1044
3273	0.0832
3282	0.0646
3291	0.048
3300	0.0345
3309	0.0237
3318	0.0194
3327	0.0216
3336	0.0265
3345	0.0346
3354	0.0452
3363	0.0598
3372	0.0817
3381	0.1022
3390	0.1278
3399	0.1651
3408	0.2076
3417	0.2388
3426	0.2622
3435	0.274
3444	0.2834
3453	0.2901
3462	0.2957
3471	0.2993
3480	0.3025
3489	0.3054
3498	0.3074
3507	0.3087
3516	0.3102
3525	0.3119
3534	0.3112
3543	0.3092
3552	0.3068
3561	0.3042
3570	0.3008
3579	0.2971
3588	0.2933
3597	0.2894
3606	0.2855
3615	0.2816
3624	0.2782
3633	0.2749
3642	0.2715
3651	0.2682
3660	0.2648
3669	0.2615
3678	0.2583
3687	0.255
3696	0.252
3705	0.2493
3714	0.2467
3723	0.244
3732	0.2416
3741	0.2393
3750	0.2371
3759	0.2347
3768	0.2323
3777	0.2299
3786	0.2273
3795	0.2247
3804	0.2222
