Infrared Spectrum: ADENOSINE, 2-AZIDO-
Formula: C10 H12 N8 O4
CAS: 59587-07-4
State: SOLID (1 mg / 650 mg KBr DISC)
Class: COBLENTZ III
Instrument: PERKIN-ELMER 21 (GRATING)
Instrument parameters: FILTER CHANGE AT 1090 CM^-^1
Sampling: TRANSMISSION
Resolution: 2
Origin: SOUTHERN RESEARCH INSTITUTE
1/CM	TRANSMITTANCE
613.346	0.437
622.572	0.4383
631.797	0.419
641.023	0.4275
650.249	0.4416
659.475	0.4424
668.7	0.4117
677.926	0.3869
687.152	0.4265
696.377	0.4748
705.603	0.4659
714.829	0.3926
724.054	0.485
733.28	0.4337
742.506	0.3858
751.732	0.5017
760.957	0.5328
770.183	0.5605
779.409	0.573
788.634	0.422
797.86	0.5194
807.086	0.5767
816.311	0.5772
825.537	0.579
834.763	0.5636
843.989	0.5287
853.214	0.3446
862.44	0.4788
871.666	0.5369
880.891	0.545
890.117	0.5435
899.343	0.4714
908.568	0.4625
917.794	0.5836
927.02	0.61
936.246	0.612
945.471	0.6082
954.697	0.603
963.923	0.592
973.148	0.5529
982.374	0.44
991.6	0.4245
1000.83	0.4753
1010.05	0.2758
1019.28	0.265
1028.5	0.2413
1037.73	0.36
1046.95	0.2416
1056.18	0.1138
1065.41	0.323
1074.63	0.3313
1083.86	0.292
1093.08	0.3104
1102.31	0.3897
1111.53	0.3986
1120.76	0.395
1129.99	0.3915
1139.21	0.305
1148.44	0.3729
1157.66	0.5438
1166.89	0.597
1176.11	0.5903
1185.34	0.5597
1194.57	0.4735
1203.79	0.3947
1213.02	0.3337
1222.24	0.3747
1231.47	0.412
1240.69	0.4061
1249.92	0.4239
1259.15	0.4152
1268.37	0.3148
1277.6	0.2345
1286.82	0.2132
1296.05	0.2985
1305.27	0.4249
1314.5	0.377
1323.73	0.3557
1332.95	0.3475
1342.18	0.2984
1351.4	0.1898
1360.63	0.1002
1369.85	0.0732
1379.08	0.05
1388.31	0.1273
1397.53	0.2093
1406.76	0.1919
1415.98	0.2892
1425.21	0.3896
1434.43	0.4212
1443.66	0.4413
1452.88	0.4846
1462.11	0.505
1471.34	0.4475
1480.56	0.3566
1489.79	0.3971
1499.01	0.5251
1508.24	0.4807
1517.46	0.437
1526.69	0.4835
1535.92	0.5941
1545.14	0.6065
1554.37	0.5918
1563.59	0.575
1572.82	0.5604
1582.04	0.4718
1591.27	0.2769
1600.5	0.147
1609.72	0.1587
1618.95	0.2379
1628.17	0.323
1637.4	0.2106
1646.62	0.0437
1655.85	0.0395
1665.08	0.1374
1674.3	0.2861
1683.53	0.3988
1692.75	0.4876
1701.98	0.5496
1711.2	0.6449
1720.43	0.6807
1729.66	0.7057
1738.88	0.7193
1748.11	0.7187
1757.33	0.7197
1766.56	0.7382
1775.78	0.751
1785.01	0.7589
1794.24	0.7612
1803.46	0.7627
1812.69	0.768
1821.91	0.77
1831.14	0.77
1840.36	0.7728
1849.59	0.778
1858.82	0.781
1868.04	0.7831
1877.27	0.783
1886.49	0.784
1895.72	0.785
1904.94	0.785
1914.17	0.7843
1923.4	0.784
1932.62	0.783
1941.85	0.784
1951.07	0.784
1960.3	0.783
1969.52	0.78
1978.75	0.7789
1987.98	0.776
1997.2	0.774
2006.43	0.772
2015.65	0.7723
2024.88	0.771
2034.1	0.7683
2043.33	0.7661
2052.56	0.763
2061.78	0.759
2071.01	0.754
2080.23	0.7491
2089.46	0.7361
2098.68	0.7233
2107.91	0.7034
2117.14	0.675
2126.36	0.628
2135.59	0.5081
2144.81	0.2411
2154.04	0.1053
2163.26	0.1114
2172.49	0.2488
2181.72	0.4916
2190.94	0.6087
2200.17	0.6527
2209.39	0.6966
2218.62	0.7029
2227.84	0.703
2237.07	0.72
2246.3	0.7279
2255.52	0.729
2264.75	0.728
2273.97	0.7366
2283.2	0.7459
2292.42	0.749
2301.65	0.75
2310.88	0.75
2320.1	0.751
2329.33	0.751
2338.55	0.753
2347.78	0.753
2357	0.754
2366.23	0.7549
2375.46	0.757
2384.68	0.757
2393.91	0.758
2403.13	0.758
2412.36	0.757
2421.58	0.753
2430.81	0.75
2440.04	0.744
2449.26	0.744
2458.49	0.741
2467.71	0.738
2476.94	0.738
2486.16	0.738
2495.39	0.74
2504.62	0.74
2513.84	0.742
2523.07	0.7411
2532.29	0.748
2541.52	0.7509
2550.74	0.7441
2559.97	0.74
2569.19	0.741
2578.42	0.728
2587.65	0.727
2596.87	0.725
2606.1	0.7212
2615.32	0.7101
2624.55	0.707
2633.77	0.7021
2643	0.6931
2652.23	0.6851
2661.45	0.6784
2670.68	0.6684
2679.9	0.6639
2689.13	0.663
2698.35	0.6591
2707.58	0.6551
2716.81	0.6461
2726.03	0.6381
2735.26	0.6253
2744.48	0.6171
2753.71	0.6121
2762.93	0.5978
2772.16	0.5883
2781.39	0.5803
2790.61	0.5634
2799.84	0.558
2809.06	0.5579
2818.29	0.558
2827.51	0.558
2836.74	0.558
2845.97	0.556
2855.19	0.548
2864.42	0.5431
2873.64	0.537
2882.87	0.53
2892.09	0.5347
2901.32	0.5183
2910.55	0.5002
2919.77	0.4738
2929	0.4563
2938.22	0.449
2947.45	0.443
2956.67	0.445
2965.9	0.4539
2975.13	0.4721
2984.35	0.4979
2993.58	0.503
3002.8	0.4982
3012.03	0.484
3021.25	0.4678
3030.48	0.4581
3039.71	0.455
3048.93	0.4501
3058.16	0.445
3067.38	0.425
3076.61	0.3983
3085.83	0.386
3095.06	0.3601
3104.29	0.3263
3113.51	0.2956
3122.74	0.2633
3131.96	0.2531
3141.19	0.246
3150.41	0.2334
3159.64	0.2127
3168.87	0.2061
3178.09	0.1901
3187.32	0.1774
3196.54	0.1653
3205.77	0.1543
3214.99	0.146
3224.22	0.1371
3233.45	0.133
3242.67	0.133
3251.9	0.135
3261.12	0.137
3270.35	0.137
3279.57	0.135
3288.8	0.1331
3298.03	0.13
3307.25	0.129
3316.48	0.1339
3325.7	0.1333
3334.93	0.1225
3344.15	0.1094
3353.38	0.1013
3362.61	0.0961
3371.83	0.086
3381.06	0.084
3390.28	0.0999
3399.51	0.1241
3408.73	0.143
3417.96	0.1535
3427.19	0.1649
3436.41	0.1708
3445.64	0.171
3454.86	0.1797
3464.09	0.184
3473.31	0.1899
3482.54	0.2027
3491.77	0.2137
3500.99	0.2325
3510.22	0.2775
3519.44	0.3259
3528.67	0.3546
3537.89	0.3855
3547.12	0.3999
3556.35	0.4245
3565.57	0.441
3574.8	0.4575
3584.02	0.4745
3593.25	0.4899
3602.47	0.5156
3611.7	0.5492
3620.93	0.5696
3630.15	0.5955
3639.38	0.6327
3648.6	0.6674
3657.83	0.6905
3667.05	0.7019
3676.28	0.71
3685.5	0.7267
3694.73	0.7409
3703.96	0.7526
3713.18	0.7608
3722.41	0.761
3731.63	0.755
3740.86	0.7616
3750.08	0.766
3759.31	0.768
3768.54	0.7709
3777.76	0.772
3786.99	0.7684
3796.21	0.7709
3805.44	0.781
3814.66	0.781
3823.89	0.78
3833.12	0.78
3842.34	0.775
3851.57	0.765
3860.79	0.7679
3870.02	0.775
3879.24	0.7741
3888.47	0.77
3897.7	0.7651
3906.92	0.763
3916.15	0.7709
3925.37	0.776
3934.6	0.779
3943.82	0.7799
3953.05	0.779
3962.28	0.776
3971.5	0.779
3980.73	0.787
3989.95	0.7889
3999.18	0.7881
4008.4	0.7849
4017.63	0.7843
