Infrared Spectrum: Triphenylmethylbromide
Formula: C 19 H 15 Br
CAS: 596-43-0
State: gas
Origin: EPA-IR VAPOR PHASE LIBRARY
1/CM	ABSORBANCE
549.8	0.0009179
559.445	0.00100343
569.09	0.0014469
578.734	0.0013459
588.379	0.0012681
598.024	0.0012394
607.669	0.0017562
617.313	0.004526
626.958	0.008066
636.603	0.002376
646.248	0.0014429
655.893	0.002186
665.537	0.004716
675.182	0.006816
684.827	0.008046
694.472	0.017836
704.116	0.014646
713.761	0.005156
723.406	0.004516
733.051	0.010006
742.695	0.013956
752.34	0.012576
761.985	0.007096
771.63	0.002646
781.275	0.001949
790.919	0.0016028
800.564	0.0013843
810.209	0.0015912
819.854	0.002746
829.498	0.003656
839.143	0.002746
848.788	0.002606
858.433	0.001996
868.078	0.0017719
877.722	0.002046
887.367	0.003176
897.012	0.0019519
906.657	0.0011775
916.301	0.0012292
925.946	0.001091
935.591	0.000837
945.236	0.0009924
954.88	0.00096109
964.525	0.00105719
974.17	0.0010097
983.815	0.0011222
993.46	0.0013365
1003.1	0.0015533
1012.75	0.0013331
1022.39	0.0015181
1032.04	0.003476
1041.68	0.002806
1051.33	0.00101505
1060.97	0.0009037
1070.62	0.001231
1080.26	0.0015793
1089.91	0.0013207
1099.55	0.000836
1109.2	0.000772
1118.84	0.00102682
1128.49	0.0012971
1138.13	0.0016402
1147.78	0.0017571
1157.42	0.002136
1167.07	0.002286
1176.71	0.003746
1186.36	0.005906
1196	0.004876
1205.64	0.004266
1215.29	0.003346
1224.93	0.002336
1234.58	0.0018924
1244.22	0.0015155
1253.87	0.0015479
1263.51	0.0015419
1273.16	0.00162
1282.8	0.0014228
1292.45	0.0012758
1302.09	0.0014395
1311.74	0.0017368
1321.38	0.0019014
1331.03	0.0016756
1340.67	0.0013919
1350.32	0.0013028
1359.96	0.0012679
1369.61	0.0013834
1379.25	0.0014784
1388.9	0.001375
1398.54	0.0013071
1408.18	0.001414
1417.83	0.001602
1427.47	0.002096
1437.12	0.004126
1446.76	0.007806
1456.41	0.003386
1466.05	0.002956
1475.7	0.004146
1485.34	0.005366
1494.99	0.006816
1504.63	0.004526
1514.28	0.002326
1523.92	0.0018548
1533.57	0.0019439
1543.21	0.0017935
1552.86	0.001637
1562.5	0.001728
1572.15	0.0018516
1581.79	0.002276
1591.44	0.003026
1601.08	0.002996
1610.73	0.0018111
1620.37	0.0015457
1630.01	0.0012627
1639.66	0.0012133
1649.3	0.0011539
1658.95	0.0011881
1668.59	0.0011314
1678.24	0.00106366
1687.88	0.0009507
1697.53	0.0008856
1707.17	0.000756
1716.82	0.000795
1726.46	0.000758
1736.11	0.000739
1745.75	0.000849
1755.4	0.00104924
1765.04	0.0011162
1774.69	0.001102
1784.33	0.00105344
1793.98	0.0015345
1803.62	0.002066
1813.27	0.0014374
1822.91	0.0011561
1832.55	0.00098544
1842.2	0.000951
1851.84	0.0010716
1861.49	0.0011156
1871.13	0.0011514
1880.78	0.0013007
1890.42	0.0014934
1900.07	0.0014145
1909.71	0.0012584
1919.36	0.00102082
1929	0.0011507
1938.65	0.0015106
1948.29	0.0018998
1957.94	0.001593
1967.58	0.0012601
1977.23	0.0009165
1986.87	0.000888
1996.52	0.000824
2006.16	0.000859
2015.81	0.000804
2025.45	0.000838
2035.1	0.000796
2044.74	0.000695
2054.38	0.000726
2064.03	0.000767
2073.67	0.000778
2083.32	0.000754
2092.96	0.000742
2102.61	0.000692
2112.25	0.00074
2121.9	0.00075
2131.54	0.000745
2141.19	0.000746
2150.83	0.000631
2160.48	0.000692
2170.12	0.000807
2179.77	0.000799
2189.41	0.000822
2199.06	0.0008813
2208.7	0.000798
2218.35	0.000733
2227.99	0.000756
2237.64	0.000723
2247.28	0.000725
2256.92	0.0008
2266.57	0.000752
2276.21	0.00077
2285.86	0.0007
2295.5	0.000688
2305.15	0.000749
2314.79	0.000857
2324.44	0.000782
2334.08	0.000817
2343.73	0.000778
2353.37	0.000824
2363.02	0.000767
2372.66	0.000762
2382.31	0.000751
2391.95	0.000719
2401.6	0.000686
2411.24	0.000652
2420.89	0.000671
2430.53	0.000629
2440.18	0.000719
2449.82	0.000634
2459.47	0.000557
2469.11	0.000759
2478.75	0.00072
2488.4	0.000603
2498.04	0.000706
2507.69	0.00071
2517.33	0.000683
2526.98	0.000657
2536.62	0.000668
2546.27	0.000629
2555.91	0.000672
2565.56	0.000638
2575.2	0.000676
2584.85	0.000702
2594.49	0.000637
2604.14	0.000603
2613.78	0.00066
2623.43	0.000588
2633.07	0.000721
2642.72	0.000616
2652.36	0.000584
2662.01	0.00062
2671.65	0.000658
2681.29	0.00066
2690.94	0.000604
2700.58	0.000736
2710.23	0.00065
2719.87	0.000541
2729.52	0.000744
2739.16	0.000642
2748.81	0.000595
2758.45	0.000681
2768.1	0.000617
2777.74	0.000725
2787.39	0.000584
2797.03	0.000768
2806.68	0.000599
2816.32	0.000448
2825.97	0.000555
2835.61	0.000547
2845.26	0.000616
2854.9	0.000558
2864.55	0.00064
2874.19	0.000612
2883.84	0.000719
2893.48	0.000541
2903.12	0.000558
2912.77	0.000615
2922.41	0.000603
2932.06	0.000689
2941.7	0.000611
2951.35	0.000823
2960.99	0.000825
2970.64	0.000776
2980.28	0.0009261
2989.93	0.00082
2999.57	0.0011209
3009.22	0.0014235
3018.86	0.002586
3028.51	0.004166
3038.15	0.005056
3047.8	0.004546
3057.44	0.007006
3067.09	0.012986
3076.73	0.010516
3086.38	0.005876
3096.02	0.004776
3105.67	0.002616
3115.31	0.0015876
3124.95	0.0011248
3134.6	0.000828
3144.24	0.000807
3153.89	0.000719
3163.53	0.000821
3173.18	0.000664
3182.82	0.000441
3192.47	0.000555
3202.11	0.000446
3211.76	0.000342
3221.4	0.000485
3231.05	0.000332
3240.69	0.000312
3250.34	0.000274
3259.98	0.000414
3269.63	0.000383
3279.27	0.000303
3288.92	0.000399
3298.56	0.000333
3308.21	0.000348
3317.85	0.000347
3327.49	0.000518
3337.14	0.000599
3346.78	0.000329
3356.43	0.00034
3366.07	0.000409
3375.72	0.000478
3385.36	0.000413
3395.01	0.000374
3404.65	0.000362
3414.3	0.000394
3423.94	0.000441
3433.59	0.000613
3443.23	0.000334
3452.88	0.000509
3462.52	0.000359
3472.17	0.000494
3481.81	0.000261
3491.46	0.000392
3501.1	0.000564
3510.75	0.000417
3520.39	0.000518
3530.04	0.000525
3539.68	0.000307
3549.32	0.000214
3558.97	0.00031
3568.61	0.000426
3578.26	0.00026
3587.9	0.000349
3597.55	0.000475
3607.19	0.000335
3616.84	0.000473
3626.48	0.000317
3636.13	0.000501
3645.77	0.000382
3655.42	0.000621
3665.06	0.000393
3674.71	0.000249
3684.35	0.000498
3694	0.000532
3703.64	0.000379
3713.29	0.000501
3722.93	0.0006
3732.58	0.00038
3742.22	0.000278
3751.86	8.9e-05
3761.51	0.000448
3771.15	0.000273
3780.8	0.000236
3790.44	0.000293
3800.09	0.000571
3809.73	0.000284
3819.38	0.000148
3829.02	0.000123
3838.67	0.000173
3848.31	0.000127
3857.96	0.000354
3867.6	0.000519
3877.25	0.000461
3886.89	0.000218
3896.54	0.000334
3906.18	0.000198
3915.83	0.000332
3925.47	0.000338
3935.12	0.000399
3944.76	0.000292
3954.41	0.000354
3964.05	0.00033
3973.69	0.000321
3983.34	0
3992.98	0.000391
