Infrared Spectrum: Methyl trityl ether
Formula: C 20 H 18 O
CAS: 596-31-6
State: gas
Origin: EPA-IR VAPOR PHASE LIBRARY
1/CM	ABSORBANCE
549.8	0.0005131
559.445	0.0012056
569.09	0.001747
578.734	0.001437
588.379	0.0010224
598.024	0.0010925
607.669	0.001617
617.313	0.003407
626.958	0.010897
636.603	0.021267
646.248	0.013767
655.893	0.004957
665.537	0.005777
675.182	0.009317
684.827	0.015867
694.472	0.045687
704.116	0.077497
713.761	0.030107
723.406	0.010887
733.051	0.011387
742.695	0.028027
752.34	0.030617
761.985	0.031407
771.63	0.016467
781.275	0.004257
790.919	0.002597
800.564	0.001847
810.209	0.001757
819.854	0.001577
829.498	0.001687
839.143	0.001677
848.788	0.001887
858.433	0.001877
868.078	0.002337
877.722	0.003107
887.367	0.006047
897.012	0.013087
906.657	0.007117
916.301	0.005447
925.946	0.006807
935.591	0.006107
945.236	0.006947
954.88	0.009637
964.525	0.009527
974.17	0.004157
983.815	0.002717
993.46	0.003517
1003.1	0.005197
1012.75	0.003527
1022.39	0.006987
1032.04	0.015337
1041.68	0.009317
1051.33	0.007907
1060.97	0.015627
1070.62	0.037567
1080.26	0.053937
1089.91	0.044207
1099.55	0.017947
1109.2	0.008657
1118.84	0.005607
1128.49	0.004457
1138.13	0.005387
1147.78	0.009677
1157.42	0.011327
1167.07	0.012767
1176.71	0.016297
1186.36	0.016327
1196	0.012757
1205.64	0.014127
1215.29	0.015097
1224.93	0.013237
1234.58	0.007167
1244.22	0.003917
1253.87	0.003197
1263.51	0.003117
1273.16	0.002927
1282.8	0.002417
1292.45	0.002197
1302.09	0.002677
1311.74	0.003367
1321.38	0.003447
1331.03	0.002457
1340.67	0.001407
1350.32	0.0013364
1359.96	0.0011734
1369.61	0.001487
1379.25	0.001827
1388.9	0.001897
1398.54	0.001757
1408.18	0.001857
1417.83	0.002387
1427.47	0.004077
1437.12	0.009137
1446.76	0.020667
1456.41	0.012157
1466.05	0.008407
1475.7	0.009997
1485.34	0.019567
1494.99	0.020897
1504.63	0.007187
1514.28	0.003337
1523.92	0.002097
1533.57	0.001897
1543.21	0.001987
1552.86	0.001957
1562.5	0.001837
1572.15	0.002287
1581.79	0.004147
1591.44	0.007767
1601.08	0.008507
1610.73	0.004087
1620.37	0.002217
1630.01	0.001457
1639.66	0.001367
1649.3	0.001367
1658.95	0.001357
1668.59	0.0013113
1678.24	0.001417
1687.88	0.0012403
1697.53	0.0010381
1707.17	0.001069
1716.82	0.0008256
1726.46	0.0010801
1736.11	0.0010772
1745.75	0.0011174
1755.4	0.0010878
1765.04	0.001497
1774.69	0.001847
1784.33	0.001817
1793.98	0.002737
1803.62	0.003987
1813.27	0.004007
1822.91	0.002477
1832.55	0.001417
1842.2	0.0011676
1851.84	0.001367
1861.49	0.001817
1871.13	0.002147
1880.78	0.002227
1890.42	0.002067
1900.07	0.002037
1909.71	0.001767
1919.36	0.001677
1929	0.001747
1938.65	0.002857
1948.29	0.004217
1957.94	0.003797
1967.58	0.001957
1977.23	0.0011373
1986.87	0.0009198
1996.52	0.0008814
2006.16	0.0008581
2015.81	0.0009226
2025.45	0.0008903
2035.1	0.0010211
2044.74	0.0009363
2054.38	0.0007847
2064.03	0.0006423
2073.67	0.0004841
2083.32	0.0005083
2092.96	0.0005831
2102.61	0.0006124
2112.25	0.0005904
2121.9	0.0006644
2131.54	0.0006699
2141.19	0.000678
2150.83	0.0007611
2160.48	0.0007232
2170.12	0.000526
2179.77	0.0006052
2189.41	0.0006194
2199.06	0.0005018
2208.7	0.00041512
2218.35	0.00043234
2227.99	0.0005397
2237.64	0.0004911
2247.28	0.000463
2256.92	0.0004598
2266.57	0.00036378
2276.21	0.000352464
2285.86	0.00037258
2295.5	0.00044189
2305.15	0.0006169
2314.79	0.00103
2324.44	0.0006668
2334.08	0.0005264
2343.73	0.0007045
2353.37	0.0006322
2363.02	0.0005039
2372.66	0.0005397
2382.31	0.0004715
2391.95	0.00042864
2401.6	0.0004795
2411.24	0.0004545
2420.89	0.0005444
2430.53	0.0004809
2440.18	0.00039352
2449.82	0.00039929
2459.47	0.00041952
2469.11	0.0003308
2478.75	0.000449
2488.4	0.00042855
2498.04	0.000353043
2507.69	0.0003168
2517.33	0.00043489
2526.98	0.0004893
2536.62	0.0004473
2546.27	0.00044699
2555.91	0.0005246
2565.56	0.0005143
2575.2	0.0006653
2584.85	0.0006575
2594.49	0.0007432
2604.14	0.0005825
2613.78	0.0006807
2623.43	0.000584
2633.07	0.0006033
2642.72	0.0006444
2652.36	0.0006189
2662.01	0.0005976
2671.65	0.0005409
2681.29	0.00043606
2690.94	0.0004785
2700.58	0.0004186
2710.23	0.0005217
2719.87	0.00043545
2729.52	0.0006469
2739.16	0.0006772
2748.81	0.0008257
2758.45	0.0010147
2768.1	0.000987
2777.74	0.0009572
2787.39	0.001329
2797.03	0.001497
2806.68	0.002007
2816.32	0.003057
2825.97	0.006427
2835.61	0.013427
2845.26	0.006097
2854.9	0.002887
2864.55	0.002637
2874.19	0.002817
2883.84	0.003957
2893.48	0.005357
2903.12	0.006927
2912.77	0.008617
2922.41	0.009257
2932.06	0.010907
2941.7	0.017647
2951.35	0.017967
2960.99	0.013127
2970.64	0.009477
2980.28	0.012657
2989.93	0.010257
2999.57	0.005737
3009.22	0.006537
3018.86	0.011837
3028.51	0.019767
3038.15	0.024517
3047.8	0.019287
3057.44	0.028837
3067.09	0.050887
3076.73	0.033657
3086.38	0.024527
3096.02	0.019137
3105.67	0.009697
3115.31	0.005167
3124.95	0.002817
3134.6	0.001957
3144.24	0.001807
3153.89	0.001857
3163.53	0.001687
3173.18	0.0010671
3182.82	0.0007165
3192.47	0.0007093
3202.11	0.0005314
3211.76	0.00039933
3221.4	0.0004684
3231.05	0.00033735
3240.69	0.00029
3250.34	0.0002748
3259.98	0.0003081
3269.63	0.000350627
3279.27	0.000244
3288.92	0.0002924
3298.56	0.0004855
3308.21	0.000236
3317.85	0.0003292
3327.49	0.000353984
3337.14	0.0003061
3346.78	0.00040161
3356.43	0.000223
3366.07	0.000292
3375.72	0.0002844
3385.36	0.000481
3395.01	0.00037323
3404.65	0.0002992
3414.3	0.0002473
3423.94	0.000244
3433.59	0.000244
3443.23	0.000337
3452.88	0.0002755
3462.52	0.000171
3472.17	0.0002739
3481.81	0.00043314
3491.46	0.000141
3501.1	0.000239
3510.75	0.0003815
3520.39	0.0003342
3530.04	0.00034787
3539.68	0.0002891
3549.32	0.000119
3558.97	0.00040592
3568.61	4.9e-05
3578.26	0.0003149
3587.9	8.8e-05
3597.55	0.000177
3607.19	0.000156
3616.84	0.000144
3626.48	0.000356528
3636.13	0.0005232
3645.77	0.000524
3655.42	0.0007027
3665.06	0.0006106
3674.71	0.000524
3684.35	0.0004972
3694	0.0008232
3703.64	0.0005834
3713.29	0.0006035
3722.93	0.0002781
3732.58	0.00034065
3742.22	0.0004853
3751.86	0.00041426
3761.51	0.0005659
3771.15	0.0004809
3780.8	0.0002688
3790.44	0.0003083
3800.09	0.0003002
3809.73	0.0005415
3819.38	0.0002825
3829.02	0.00043103
3838.67	0.0002981
3848.31	0.0003312
3857.96	0.0002567
3867.6	0.00035183
3877.25	0.00027
3886.89	0.00038533
3896.54	0.000351579
3906.18	0.0002949
3915.83	0.0006248
3925.47	0.0005812
3935.12	0.0005345
3944.76	0.0005405
3954.41	0.00037856
3964.05	0.0005801
3973.69	0.0005543
3983.34	0.0005449
3992.98	0.0008669
