Infrared Spectrum: 2-Acetylphenanthrene
Formula: C16 H12 O
CAS: 5960-69-0
State: gas
Origin: EPA-IR VAPOR PHASE LIBRARY
1/CM	ABSORBANCE
549.8	0.0013272
559.445	0.000137
569.09	0.001344
578.734	0.001494
588.379	0.007234
598.024	0.009794
607.669	0.004734
617.313	0.001884
626.958	0.001754
636.603	0.003144
646.248	0.004094
655.893	0.016264
665.537	0.009804
675.182	0.001794
684.827	0.001384
694.472	0.001994
704.116	0.006324
713.761	0.009734
723.406	0.005824
733.051	0.014744
742.695	0.028064
752.34	0.010254
761.985	0.003114
771.63	0.003004
781.275	0.003294
790.919	0.006824
800.564	0.021884
810.209	0.022284
819.854	0.010014
829.498	0.006934
839.143	0.004004
848.788	0.003124
858.433	0.005954
868.078	0.003864
877.722	0.004224
887.367	0.009254
897.012	0.007144
906.657	0.005724
916.301	0.004424
925.946	0.003164
935.591	0.003684
945.236	0.007524
954.88	0.009874
964.525	0.006794
974.17	0.006194
983.815	0.003734
993.46	0.004564
1003.1	0.006034
1012.75	0.002624
1022.39	0.003074
1032.04	0.002904
1041.68	0.003304
1051.33	0.001834
1060.97	0.001714
1070.62	0.002384
1080.26	0.002274
1089.91	0.001444
1099.55	0.005244
1109.2	0.004734
1118.84	0.002844
1128.49	0.001434
1138.13	0.004694
1147.78	0.007504
1157.42	0.005474
1167.07	0.006494
1176.71	0.017714
1186.36	0.029214
1196	0.012664
1205.64	0.024154
1215.29	0.020204
1224.93	0.017734
1234.58	0.039004
1244.22	0.028394
1253.87	0.041964
1263.51	0.054994
1273.16	0.026184
1282.8	0.012514
1292.45	0.011534
1302.09	0.021554
1311.74	0.010414
1321.38	0.004814
1331.03	0.005734
1340.67	0.010144
1350.32	0.017224
1359.96	0.026294
1369.61	0.014254
1379.25	0.018654
1388.9	0.016404
1398.54	0.008284
1408.18	0.005264
1417.83	0.006144
1427.47	0.008604
1437.12	0.007034
1446.76	0.004264
1456.41	0.003134
1466.05	0.002934
1475.7	0.003374
1485.34	0.005554
1494.99	0.005754
1504.63	0.003144
1514.28	0.004214
1523.92	0.006564
1533.57	0.004044
1543.21	0.003074
1552.86	0.003054
1562.5	0.003744
1572.15	0.005384
1581.79	0.004834
1591.44	0.007774
1601.08	0.010484
1610.73	0.008624
1620.37	0.009414
1630.01	0.006634
1639.66	0.003644
1649.3	0.003934
1658.95	0.006464
1668.59	0.008714
1678.24	0.010184
1687.88	0.023584
1697.53	0.087394
1707.17	0.094044
1716.82	0.023204
1726.46	0.007514
1736.11	0.006894
1745.75	0.008514
1755.4	0.005834
1765.04	0.003964
1774.69	0.003174
1784.33	0.002424
1793.98	0.002444
1803.62	0.002384
1813.27	0.001994
1822.91	0.002154
1832.55	0.002224
1842.2	0.001854
1851.84	0.001474
1861.49	0.0012424
1871.13	0.0012323
1880.78	0.001754
1890.42	0.002064
1900.07	0.002394
1909.71	0.002734
1919.36	0.002514
1929	0.001944
1938.65	0.002564
1948.29	0.002394
1957.94	0.0011569
1967.58	0.0008101
1977.23	0.000706
1986.87	0.0006642
1996.52	0.0005178
2006.16	0.0006994
2015.81	0.0006989
2025.45	0.0006968
2035.1	0.0007823
2044.74	0.0007484
2054.38	0.0006192
2064.03	0.0005868
2073.67	0.0006539
2083.32	0.0005715
2092.96	0.0007406
2102.61	0.0005474
2112.25	0.0006239
2121.9	0.0006006
2131.54	0.0008015
2141.19	0.000572
2150.83	0.0007339
2160.48	0.0007447
2170.12	0.0006415
2179.77	0.00041622
2189.41	0.0006172
2199.06	0.0006524
2208.7	0.0005986
2218.35	0.0005959
2227.99	0.000616
2237.64	0.0006499
2247.28	0.0008217
2256.92	0.000608
2266.57	0.0006899
2276.21	0.000517
2285.86	0.0007467
2295.5	0.0007326
2305.15	0.0009018
2314.79	0.000648
2324.44	0.0008689
2334.08	0.0006331
2343.73	0.0004969
2353.37	0.0007147
2363.02	0.0005973
2372.66	0.0009638
2382.31	0.000702
2391.95	0.0007258
2401.6	0.000605
2411.24	0.000676
2420.89	0.000746
2430.53	0.0008839
2440.18	0.0005213
2449.82	0.0008452
2459.47	0.0007038
2469.11	0.0008264
2478.75	0.0008476
2488.4	0.0005927
2498.04	0.0006464
2507.69	0.0006808
2517.33	0.0008477
2526.98	0.0006592
2536.62	0.0007016
2546.27	0.0004503
2555.91	0.0006799
2565.56	0.0006153
2575.2	0.0007653
2584.85	0.0006871
2594.49	0.0008017
2604.14	0.0008083
2613.78	0.0010197
2623.43	0.0007543
2633.07	0.0004572
2642.72	0.0005179
2652.36	0.0007508
2662.01	0.0008242
2671.65	0.0006839
2681.29	0.0006639
2690.94	0.000648
2700.58	0.0007841
2710.23	0.0006249
2719.87	0.0004875
2729.52	0.0007937
2739.16	0.0006366
2748.81	0.0006281
2758.45	0.0004506
2768.1	0.0005648
2777.74	0.0006492
2787.39	0.0004818
2797.03	0.0005912
2806.68	0.0005618
2816.32	0.000727
2825.97	0.0007943
2835.61	0.0008724
2845.26	0.0010312
2854.9	0.0011523
2864.55	0.0009658
2874.19	0.0007294
2883.84	0.0010257
2893.48	0.001464
2903.12	0.001394
2912.77	0.001374
2922.41	0.001714
2932.06	0.002354
2941.7	0.002514
2951.35	0.002404
2960.99	0.002114
2970.64	0.002934
2980.28	0.002764
2989.93	0.002924
2999.57	0.004044
3009.22	0.007124
3018.86	0.009084
3028.51	0.009504
3038.15	0.011184
3047.8	0.014654
3057.44	0.019384
3067.09	0.020374
3076.73	0.017204
3086.38	0.014834
3096.02	0.008794
3105.67	0.005084
3115.31	0.002974
3124.95	0.002264
3134.6	0.001814
3144.24	0.0009696
3153.89	0.0008383
3163.53	0.00085
3173.18	0.0012072
3182.82	0.0009678
3192.47	0.0008555
3202.11	0.0007094
3211.76	0.0006739
3221.4	0.000493
3231.05	0.0006725
3240.69	0.0006966
3250.34	0.0007215
3259.98	0.0005032
3269.63	0.0004577
3279.27	0.0003563
3288.92	0.000193
3298.56	0.0005255
3308.21	0.00042034
3317.85	0.0003057
3327.49	0.0004477
3337.14	0.0005393
3346.78	0.000339034
3356.43	0.0004761
3366.07	0.001004
3375.72	0.001344
3385.36	0.002064
3395.01	0.001604
3404.65	0.0010137
3414.3	0.0008715
3423.94	0.000762
3433.59	0.00038125
3443.23	0.0004603
3452.88	0.00034922
3462.52	0.0005772
3472.17	0.0004435
3481.81	0.0002757
3491.46	0.00037448
3501.1	0.00039504
3510.75	0.0004652
3520.39	0.00043015
3530.04	0.0005112
3539.68	0.0005332
3549.32	0.000179
3558.97	0.000291
3568.61	0.0004918
3578.26	0.00038356
3587.9	0.00032765
3597.55	0.0002806
3607.19	0.00041693
3616.84	0.0003544
3626.48	0.0006244
3636.13	0.0004694
3645.77	0.0002555
3655.42	0.00035852
3665.06	0.0008087
3674.71	0.0003187
3684.35	0.0005659
3694	0.00038263
3703.64	0.0004957
3713.29	0.0005729
3722.93	0.0005754
3732.58	0.0007483
3742.22	0.0006163
3751.86	0.0005118
3761.51	0.000135
3771.15	0.0006845
3780.8	0.00032637
3790.44	0.0007688
3800.09	0.0005469
3809.73	0.0005271
3819.38	0.0007302
3829.02	0.00037338
3838.67	0.0006214
3848.31	0.0007422
3857.96	0.0002448
3867.6	0.0005295
3877.25	0.0002675
3886.89	0.0006537
3896.54	0.0004369
3906.18	0.0005966
3915.83	0.0004621
3925.47	0.0008678
3935.12	0.0008244
3944.76	0.0005039
3954.41	0.00039001
3964.05	0.0008704
3973.69	0.0004426
3983.34	0.0006615
3992.98	0.0004489
