Infrared Spectrum: 1,3-PROPANEDIOL, 2,2-DIMETHYL-, BIS(CYCLIC 2,2-DIMETHYLTRIMETHYLENE PHOSPHITE)
Formula: C15 H30 O6 P2
CAS: 59609-05-1
Melting point: 48-50 C
Class: COBLENTZ
Instrument: Not specified, most likely a prism, grating, or hybrid spectrometer.
Sampling: TRANSMISSION
Path length: (MELT)
Resolution: 4
Origin: TENNESSEE EASTMAN COMPANY, RESEARCH LABORATORIES
MICROMETERS	TRANSMITTANCE
2.04	0.988
2.08	0.993
2.12	0.994
2.16	0.994
2.2	0.994
2.24	0.988
2.27999	0.976
2.31999	0.969
2.35999	0.971
2.39999	0.974
2.43999	0.976
2.47999	0.974
2.51999	0.974
2.55999	0.973
2.59999	0.971
2.63999	0.968
2.67999	0.969
2.71999	0.973
2.75998	0.964
2.79998	0.956
2.83998	0.948
2.87998	0.928
2.91998	0.928
2.95998	0.931
2.99998	0.939
3.03998	0.944
3.07998	0.948
3.11998	0.951
3.15998	0.949
3.19998	0.949
3.23997	0.949
3.27997	0.946
3.31997	0.844
3.35997	0.263
3.39997	0.43
3.43997	0.415
3.47997	0.749
3.51997	0.874
3.55997	0.911
3.59997	0.928
3.63997	0.923
3.67996	0.928
3.71996	0.939
3.75996	0.946
3.79996	0.953
3.83996	0.959
3.87996	0.959
3.91996	0.959
3.95996	0.964
3.99996	0.964
4.03996	0.964
4.07996	0.964
4.11996	0.959
4.15995	0.951
4.19995	0.951
4.23995	0.951
4.27995	0.953
4.31995	0.951
4.35995	0.953
4.39995	0.956
4.43995	0.961
4.47995	0.963
4.51995	0.964
4.55995	0.964
4.59994	0.961
4.63994	0.959
4.67994	0.959
4.71994	0.956
4.75994	0.953
4.79994	0.949
4.83994	0.949
4.87994	0.949
4.91994	0.949
4.95994	0.951
4.99994	0.953
5.03994	0.954
5.07993	0.954
5.11993	0.949
5.15993	0.938
5.19993	0.944
5.23993	0.949
5.27993	0.951
5.31993	0.949
5.35993	0.946
5.39993	0.944
5.43993	0.941
5.47993	0.934
5.51993	0.938
5.55992	0.938
5.59992	0.938
5.63992	0.936
5.67992	0.933
5.71992	0.913
5.75992	0.899
5.79992	0.901
5.83992	0.894
5.87992	0.886
5.91992	0.893
5.95992	0.896
5.99991	0.909
6.03991	0.906
6.07991	0.899
6.11991	0.901
6.15991	0.903
6.19991	0.908
6.23991	0.911
6.27991	0.914
6.31991	0.916
6.35991	0.914
6.39991	0.901
6.43991	0.903
6.4799	0.884
6.5199	0.879
6.5599	0.868
6.5999	0.856
6.6399	0.844
6.6799	0.759
6.7199	0.509
6.7599	0.38
6.7999	0.524
6.8399	0.644
6.8799	0.746
6.9199	0.803
6.95989	0.833
6.99989	0.838
7.03989	0.829
7.07989	0.759
7.11989	0.572
7.15989	0.721
7.19989	0.792
7.23989	0.787
7.27989	0.619
7.31989	0.614
7.35989	0.789
7.39988	0.839
7.43988	0.849
7.47988	0.871
7.51988	0.878
7.55988	0.869
7.59988	0.818
7.63988	0.766
7.67988	0.757
7.71988	0.752
7.75988	0.776
7.79988	0.786
7.83988	0.776
7.87987	0.757
7.91987	0.744
7.95987	0.731
7.99987	0.722
8.03987	0.767
8.07987	0.789
8.11987	0.784
8.15987	0.757
8.19987	0.797
8.23987	0.756
8.27987	0.706
8.31987	0.801
8.35986	0.792
8.39986	0.786
8.43986	0.808
8.47986	0.821
8.51986	0.828
8.55986	0.829
8.59986	0.829
8.63986	0.829
8.67986	0.829
8.71986	0.829
8.75986	0.826
8.79985	0.819
8.83985	0.809
8.87985	0.797
8.91985	0.787
8.95985	0.779
8.99985	0.759
9.03985	0.741
9.07985	0.711
9.11985	0.677
9.15985	0.609
9.19985	0.529
9.23985	0.402
9.27984	0.228
9.31984	0.11
9.35984	0.088
9.39984	0.143
9.43984	0.215
9.47984	0.207
9.51984	0.153
9.55984	0.105
9.59984	0.095
9.63984	0.098
9.67984	0.105
9.71983	0.12
9.75983	0.145
9.79983	0.126
9.83983	0.068
9.87983	0.05
9.91983	0.048
9.95983	0.06
9.99983	0.083
10.0398	0.131
10.0798	0.242
10.1198	0.347
10.1598	0.414
10.1998	0.43
10.2398	0.395
10.2798	0.355
10.3198	0.352
10.3598	0.424
10.3998	0.53
10.4398	0.594
10.4798	0.609
10.5198	0.564
10.5598	0.492
10.5998	0.445
10.6398	0.59
10.6798	0.667
10.7198	0.692
10.7598	0.731
10.7998	0.747
10.8398	0.747
10.8798	0.727
10.9198	0.631
10.9598	0.442
10.9998	0.427
11.0398	0.657
11.0798	0.759
11.1198	0.809
11.1598	0.839
11.1998	0.846
11.2398	0.856
11.2798	0.859
11.3198	0.861
11.3598	0.854
11.3998	0.851
11.4398	0.853
11.4798	0.854
11.5198	0.851
11.5598	0.851
11.5998	0.853
11.6398	0.849
11.6798	0.846
11.7198	0.839
11.7598	0.833
11.7998	0.821
11.8398	0.806
11.8798	0.782
11.9198	0.757
11.9598	0.712
11.9998	0.672
12.0398	0.617
12.0798	0.59
12.1198	0.564
12.1598	0.53
12.1998	0.5
12.2398	0.474
12.2798	0.445
12.3198	0.43
12.3598	0.41
12.3998	0.405
12.4398	0.404
12.4798	0.414
12.5198	0.432
12.5598	0.432
12.5998	0.365
12.6398	0.237
12.6798	0.21
12.7198	0.267
12.7598	0.317
12.7998	0.367
12.8398	0.373
12.8798	0.357
12.9198	0.3
12.9598	0.23
12.9998	0.183
13.0398	0.145
13.0798	0.13
13.1198	0.12
13.1598	0.125
13.1998	0.136
13.2398	0.15
13.2798	0.161
13.3198	0.161
13.3598	0.151
13.3998	0.143
13.4398	0.131
13.4798	0.13
13.5198	0.135
13.5598	0.156
13.5998	0.195
13.6398	0.25
13.6797	0.313
13.7197	0.378
13.7597	0.445
13.7997	0.507
13.8397	0.555
13.8797	0.589
13.9197	0.621
13.9597	0.639
13.9997	0.661
14.0397	0.672
14.0797	0.689
14.1197	0.694
14.1597	0.701
14.1997	0.707
14.2397	0.711
14.2797	0.714
14.3197	0.717
14.3597	0.721
14.3997	0.721
14.4397	0.721
14.4797	0.721
14.5197	0.721
14.5597	0.717
14.5997	0.716
14.6397	0.711
14.6797	0.707
14.7197	0.709
14.7597	0.706
14.7997	0.701
14.8397	0.696
14.8797	0.689
14.9197	0.684
14.9597	0.676
14.9997	0.672
15.0397	0.672
15.0797	0.669
15.1197	0.661
15.1597	0.654
15.1997	0.652
15.2397	0.649
15.2797	0.642
15.3197	0.639
15.3597	0.634
15.3997	0.631
15.4397	0.629
15.4797	0.624
15.5197	0.621
15.5597	0.616
15.5997	0.612
15.6397	0.604
15.6797	0.602
15.7197	0.595
15.7597	0.589
15.7997	0.585
15.8397	0.579
15.8797	0.569
15.9197	0.559
15.9597	0.554
15.9997	0.55
