Infrared Spectrum: 1,3-PROPANEDIOL, 2,2-DIMETHYL-, BIS(CYCLIC 2,2-DIMETHYLTRIMETHYLENE PHOSPHOROTHIONATE
Formula: C15 H30 O6 P2 S2
CAS: 59609-06-2
State: SOLID (KBr PELLET)
Melting point: 163-164 C
Class: COBLENTZ
Instrument: Not specified, most likely a prism, grating, or hybrid spectrometer.
Sampling: TRANSMISSION
Resolution: 4
Origin: TENNESSEE EASTMAN COMPANY, RESEARCH LABORATORIES
MICROMETERS	TRANSMITTANCE
2.04	0.742
2.08	0.75
2.12	0.757
2.16	0.763
2.2	0.773
2.23999	0.778
2.27999	0.78
2.31999	0.787
2.35999	0.793
2.39999	0.804
2.43999	0.809
2.47999	0.817
2.51999	0.819
2.55999	0.824
2.59999	0.824
2.63998	0.827
2.67998	0.835
2.71998	0.835
2.75998	0.827
2.79998	0.802
2.83998	0.787
2.87998	0.772
2.91998	0.758
2.95998	0.768
2.99997	0.787
3.03997	0.819
3.07997	0.835
3.11997	0.844
3.15997	0.849
3.19997	0.859
3.23997	0.872
3.27997	0.876
3.31997	0.872
3.35997	0.525
3.39996	0.544
3.43996	0.636
3.47996	0.768
3.51996	0.865
3.55996	0.894
3.59996	0.914
3.63996	0.919
3.67996	0.921
3.71996	0.926
3.75995	0.931
3.79995	0.934
3.83995	0.938
3.87995	0.941
3.91995	0.943
3.95995	0.943
3.99995	0.946
4.03995	0.948
4.07995	0.949
4.11995	0.951
4.15994	0.951
4.19994	0.951
4.23994	0.951
4.27994	0.922
4.31994	0.917
4.35994	0.938
4.39994	0.953
4.43994	0.958
4.47994	0.961
4.51993	0.961
4.55993	0.961
4.59993	0.961
4.63993	0.961
4.67993	0.963
4.71993	0.968
4.75993	0.968
4.79993	0.968
4.83993	0.968
4.87993	0.966
4.91992	0.966
4.95992	0.968
4.99992	0.973
5.03992	0.974
5.07992	0.973
5.11992	0.968
5.15992	0.963
5.19992	0.958
5.23992	0.951
5.27991	0.949
5.31991	0.949
5.35991	0.954
5.39991	0.959
5.43991	0.953
5.47991	0.954
5.51991	0.951
5.55991	0.936
5.59991	0.927
5.63991	0.939
5.6799	0.949
5.7199	0.931
5.7599	0.921
5.7999	0.927
5.8399	0.917
5.8799	0.916
5.9199	0.911
5.9599	0.901
5.9999	0.906
6.03989	0.911
6.07989	0.884
6.11989	0.901
6.15989	0.909
6.19989	0.917
6.23989	0.932
6.27989	0.944
6.31989	0.954
6.35989	0.941
6.39989	0.929
6.43988	0.934
6.47988	0.897
6.51988	0.921
6.55988	0.892
6.59988	0.902
6.63988	0.901
6.67988	0.847
6.71988	0.524
6.75988	0.393
6.79988	0.619
6.83987	0.688
6.87987	0.845
6.91987	0.882
6.95987	0.889
6.99987	0.902
7.03987	0.902
7.07987	0.871
7.11987	0.763
7.15987	0.891
7.19986	0.912
7.23986	0.871
7.27986	0.74
7.31986	0.758
7.35986	0.902
7.39986	0.855
7.43986	0.901
7.47986	0.931
7.51986	0.936
7.55986	0.932
7.59985	0.914
7.63985	0.829
7.67985	0.854
7.71985	0.855
7.75985	0.832
7.79985	0.865
7.83985	0.894
7.87985	0.899
7.91985	0.894
7.95984	0.847
7.99984	0.849
8.03984	0.881
8.07984	0.889
8.11984	0.867
8.15984	0.793
8.19984	0.762
8.23984	0.633
8.27984	0.79
8.31984	0.85
8.35983	0.845
8.39983	0.832
8.43983	0.824
8.47983	0.842
8.51983	0.847
8.55983	0.85
8.59983	0.852
8.63983	0.845
8.67983	0.842
8.71982	0.83
8.75982	0.819
8.79982	0.809
8.83982	0.793
8.87982	0.78
8.91982	0.765
8.95982	0.76
8.99982	0.745
9.03982	0.73
9.07982	0.715
9.11981	0.686
9.15981	0.621
9.19981	0.544
9.23981	0.422
9.27981	0.256
9.31981	0.113
9.35981	0.046
9.39981	0.036
9.43981	0.043
9.4798	0.118
9.5198	0.157
9.5598	0.085
9.5998	0.085
9.6398	0.139
9.6798	0.165
9.7198	0.13
9.7598	0.075
9.7998	0.085
9.8398	0.083
9.87979	0.04
9.91979	0.023
9.95979	0.011
9.99979	0.011
10.0398	0.018
10.0798	0.077
10.1198	0.237
10.1598	0.355
10.1998	0.313
10.2398	0.187
10.2798	0.162
10.3198	0.246
10.3598	0.43
10.3998	0.529
10.4398	0.539
10.4798	0.541
10.5198	0.551
10.5598	0.599
10.5998	0.69
10.6398	0.747
10.6798	0.79
10.7198	0.812
10.7598	0.819
10.7998	0.777
10.8398	0.696
10.8798	0.517
10.9198	0.485
10.9598	0.725
10.9998	0.815
11.0398	0.844
11.0798	0.84
11.1198	0.802
11.1598	0.747
11.1998	0.601
11.2398	0.415
11.2798	0.301
11.3198	0.221
11.3598	0.152
11.3998	0.12
11.4398	0.172
11.4798	0.303
11.5198	0.447
11.5598	0.551
11.5997	0.619
11.6397	0.631
11.6797	0.592
11.7197	0.41
11.7597	0.269
11.7997	0.204
11.8397	0.167
11.8797	0.219
11.9197	0.345
11.9597	0.403
11.9997	0.311
12.0397	0.221
12.0797	0.217
12.1197	0.232
12.1597	0.237
12.1997	0.236
12.2397	0.318
12.2797	0.53
12.3197	0.701
12.3597	0.787
12.3997	0.832
12.4397	0.859
12.4797	0.874
12.5197	0.881
12.5597	0.891
12.5997	0.892
12.6397	0.889
12.6797	0.877
12.7197	0.862
12.7597	0.871
12.7997	0.902
12.8397	0.916
12.8797	0.924
12.9197	0.927
12.9597	0.932
12.9997	0.939
13.0397	0.943
13.0797	0.944
13.1197	0.946
13.1597	0.949
13.1997	0.951
13.2397	0.951
13.2797	0.954
13.3197	0.954
13.3597	0.953
13.3997	0.953
13.4397	0.951
13.4797	0.949
13.5197	0.948
13.5597	0.944
13.5997	0.944
13.6397	0.943
13.6797	0.941
13.7197	0.938
13.7597	0.932
13.7997	0.932
13.8397	0.931
13.8797	0.931
13.9197	0.921
13.9597	0.922
13.9997	0.922
14.0397	0.922
14.0797	0.921
14.1197	0.912
14.1597	0.906
14.1997	0.902
14.2397	0.901
14.2797	0.891
14.3197	0.889
14.3597	0.882
14.3997	0.871
14.4397	0.865
14.4797	0.85
14.5197	0.842
14.5597	0.819
14.5997	0.798
14.6397	0.753
14.6797	0.701
14.7197	0.619
14.7597	0.515
14.7997	0.4
14.8397	0.303
14.8797	0.261
14.9197	0.254
14.9597	0.326
14.9997	0.44
15.0397	0.537
15.0797	0.606
15.1197	0.644
15.1597	0.67
15.1997	0.681
15.2397	0.688
15.2797	0.691
15.3197	0.691
15.3597	0.686
15.3996	0.681
15.4396	0.675
15.4796	0.666
15.5196	0.661
15.5596	0.654
15.5996	0.648
15.6396	0.641
15.6796	0.633
15.7196	0.621
15.7596	0.609
15.7996	0.603
15.8396	0.597
15.8796	0.594
15.9196	0.586
15.9596	0.581
15.9996	0.581
