Infrared Spectrum: 3,5-Dimethyl-3-heptene
Formula: C 9 H 18
CAS: 59643-68-4
State: gas
Origin: EPA-IR VAPOR PHASE LIBRARY
1/CM	ABSORBANCE
501.5	0.000365
513.074	0.0004674
524.648	0.0005624
536.222	0.0006519
547.796	0.0008667
559.37	0.0008082
570.944	0.0006666
582.518	0.0002788
594.092	0.0002708
605.666	0.00021655
617.24	0.0003208
628.814	0
640.388	6.9e-05
651.962	0.00018954
663.536	3.3e-05
675.11	0.00022568
686.684	0.0002882
698.258	0.00018994
709.832	0.00016809
721.406	0.00024872
732.98	0.00022985
744.554	0.0001902
756.128	0.0004385
767.702	0.0010319
779.276	0.0011433
790.85	0.001433
802.423	0.001393
813.997	0.0008126
825.571	0.001233
837.145	0.001463
848.719	0.003053
860.293	0.004623
871.867	0.003423
883.441	0.001653
895.015	0.0010713
906.589	0.001213
918.163	0.0011188
929.737	0.0007937
941.311	0.0008459
952.885	0.001273
964.459	0.001883
976.033	0.003043
987.607	0.003703
999.181	0.003173
1010.76	0.002673
1022.33	0.002153
1033.9	0.0011207
1045.48	0.001213
1057.05	0.001943
1068.63	0.002573
1080.2	0.002743
1091.77	0.002343
1103.35	0.001633
1114.92	0.001233
1126.49	0.0010685
1138.07	0.0008217
1149.64	0.0005648
1161.22	0.000683
1172.79	0.0007192
1184.36	0.0010081
1195.94	0.001333
1207.51	0.001243
1219.09	0.000825
1230.66	0.0008084
1242.23	0.0008957
1253.81	0.0011721
1265.38	0.001223
1276.96	0.001343
1288.53	0.001543
1300.1	0.001863
1311.68	0.002793
1323.25	0.003393
1334.83	0.002613
1346.4	0.002253
1357.97	0.003163
1369.55	0.005993
1381.12	0.008793
1392.7	0.006843
1404.27	0.003783
1415.84	0.003103
1427.42	0.003613
1438.99	0.005553
1450.57	0.009093
1462.14	0.010943
1473.71	0.007603
1485.29	0.003713
1496.86	0.002253
1508.44	0.001753
1520.01	0.001453
1531.58	0.001343
1543.16	0.001183
1554.73	0.0011448
1566.31	0.0010675
1577.88	0.0009996
1589.45	0.0010004
1601.03	0.0009239
1612.6	0.000815
1624.18	0.0008693
1635.75	0.0008781
1647.32	0.0010592
1658.9	0.001423
1670.47	0.001333
1682.05	0.0008355
1693.62	0.0006978
1705.19	0.0006853
1716.77	0.0007205
1728.34	0.0006549
1739.92	0.0005189
1751.49	0.0004817
1763.06	0.0003799
1774.64	0.0003759
1786.21	0.0003617
1797.79	0.0003695
1809.36	0.0003555
1820.93	0.000352
1832.51	0.00036
1844.08	0.0003869
1855.66	0.0003461
1867.23	0.0003675
1878.8	0.0003579
1890.38	0.0003641
1901.95	0.0003723
1913.53	0.0003482
1925.1	0.0003165
1936.67	0.0003049
1948.25	0.0003417
1959.82	0.0003038
1971.4	0.0002852
1982.97	0.0003015
1994.54	0.0002923
2006.12	0.0003013
2017.69	0.0003517
2029.27	0.0003422
2040.84	0.0003641
2052.41	0.0003012
2063.99	0.00027246
2075.56	0.0002928
2087.14	0.00026473
2098.71	0.000309
2110.28	0.0003243
2121.86	0.0003545
2133.43	0.0002869
2145.01	0.0003531
2156.58	0.0003341
2168.15	0.0003703
2179.73	0.0003437
2191.3	0.0003161
2202.88	0.000373
2214.45	0.0003587
2226.02	0.0003506
2237.6	0.0003454
2249.17	0.0003396
2260.74	0.0003349
2272.32	0.000347
2283.89	0.0004142
2295.47	0.0003807
2307.04	0.0004329
2318.61	0.0004194
2330.19	0.0003932
2341.76	0.0004493
2353.34	0.0004785
2364.91	0.0005238
2376.48	0.0005368
2388.06	0.000507
2399.63	0.000532
2411.21	0.0004923
2422.78	0.0004827
2434.35	0.000538
2445.93	0.0005103
2457.5	0.0005694
2469.08	0.0005127
2480.65	0.000448
2492.22	0.000444
2503.8	0.0004758
2515.37	0.0004326
2526.95	0.0004768
2538.52	0.0005209
2550.09	0.0005983
2561.67	0.0006499
2573.24	0.0006968
2584.82	0.0007227
2596.39	0.0006302
2607.96	0.0006735
2619.54	0.0007263
2631.11	0.0007828
2642.69	0.0007723
2654.26	0.0008504
2665.83	0.0008561
2677.41	0.0008207
2688.98	0.0008981
2700.56	0.0010092
2712.13	0.001173
2723.7	0.001523
2735.28	0.001893
2746.85	0.001903
2758.43	0.001853
2770	0.001963
2781.57	0.002143
2793.15	0.002483
2804.72	0.002963
2816.3	0.003823
2827.87	0.005283
2839.44	0.008063
2851.02	0.014123
2862.59	0.022663
2874.17	0.029193
2885.74	0.032033
2897.31	0.030243
2908.89	0.034063
2920.46	0.044373
2932.04	0.050563
2943.61	0.047663
2955.18	0.054833
2966.76	0.080233
2978.33	0.061493
2989.91	0.026083
3001.48	0.014773
3013.05	0.009783
3024.63	0.007103
3036.2	0.005773
3047.78	0.004843
3059.35	0.004213
3070.92	0.003553
3082.5	0.003063
3094.07	0.002623
3105.65	0.002213
3117.22	0.001923
3128.79	0.001743
3140.37	0.001573
3151.94	0.001453
3163.52	0.001303
3175.09	0.001253
3186.66	0.0011443
3198.24	0.0008816
3209.81	0.0007923
3221.39	0.0006998
3232.96	0.00072
3244.53	0.000541
3256.11	0.0005011
3267.68	0.000358
3279.26	0.000451
3290.83	0.0004234
3302.4	0.0005269
3313.98	0.0004956
3325.55	0.0005261
3337.13	0.0004747
3348.7	0.0003905
3360.27	0.0004608
3371.85	0.0004582
3383.42	0.0003999
3395	0.0004353
3406.57	0.0003434
3418.14	0.0004162
3429.72	0.0003167
3441.29	0.0003201
3452.86	0.00025149
3464.44	0.00024758
3476.01	0.0003826
3487.59	0.0003281
3499.16	0.0003249
3510.73	0.0003754
3522.31	0.0003274
3533.88	0.00026319
3545.46	0.0004505
3557.03	0.0003137
3568.6	0.00027071
3580.18	0.0002791
3591.75	0.00019221
3603.33	0.0003201
3614.9	0.00026425
3626.47	0.0002942
3638.05	0.000313
3649.62	0.00026544
3661.2	0.0003017
3672.77	0.000361
3684.34	0.0003774
3695.92	0.0003411
3707.49	0.0003803
3719.07	0.0004104
3730.64	0.0003743
3742.21	0.0003497
3753.79	0.0003356
3765.36	0.0003597
3776.94	0.000351
3788.51	0.0003724
3800.08	0.0003547
3811.66	0.0003579
3823.23	0.0003608
3834.81	0.0003536
3846.38	0.0003764
3857.95	0.0004066
3869.53	0.0004115
3881.1	0.0004827
3892.68	0.0004715
3904.25	0.0004441
3915.82	0.0003444
3927.4	0.0003179
3938.97	0.0003621
3950.55	0.0004719
3962.12	0.0004488
3973.69	0.0003513
3985.27	0.0004576
3996.84	0.0005123
