Infrared Spectrum: 2,2,4-Trimethyl-3-hexene
Formula: C 9 H 18
CAS: 59643-72-0
State: gas
Instrument: HP-GC/MS/IRD
Origin: NIST Mass Spectrometry Data Center
1/CM	ABSORBANCE
550	0.0004512
562	0.000108
574	0.0001824
586	0.0002112
598	0.0002592
610	0.000156
622	0.0001128
634	6.24e-05
646	0.0001296
658	5.04e-05
670	5.28e-05
682	0.0001176
694	0.0001344
706	0.0001584
718	9.36e-05
730	0.000144
742	0.0001992
754	0.0002376
766	0.0002856
778	0.0004008
790	0.0005352
802	0.0004368
814	0.0005424
826	0.0008544
838	0.001056
850	0.0009
862	0.0006408
874	0.000432
886	0.0004656
898	0.0005136
910	0.0005976
922	0.0004656
934	0.0003
946	0.0003096
958	0.0004512
970	0.0005064
982	0.00048
994	0.0005568
1006	0.000636
1018	0.0006384
1030	0.0005784
1042	0.0004872
1054	0.0006216
1066	0.0008472
1078	0.0007512
1090	0.0006552
1102	0.0005376
1114	0.0003144
1126	0.0002568
1138	0.0003
1150	0.0005472
1162	0.0005928
1174	0.0005352
1186	0.0007776
1198	0.0012888
1210	0.0016368
1222	0.0012384
1234	0.0008496
1246	0.0008424
1258	0.0008496
1270	0.0007008
1282	0.0004944
1294	0.0004248
1306	0.0004464
1318	0.0005232
1330	0.0005016
1342	0.0007368
1354	0.00168
1366	0.0030432
1378	0.0027312
1390	0.0018816
1402	0.0013536
1414	0.0008472
1426	0.0009216
1438	0.0013944
1450	0.0021024
1462	0.0028416
1474	0.0029208
1486	0.0020112
1498	0.0009648
1510	0.000528
1522	0.0003744
1534	0.0003096
1546	0.0002784
1558	0.0002016
1570	0.0002112
1582	0.0002376
1594	0.00024
1606	0.000264
1618	0.0002856
1630	0.0003072
1642	0.0004656
1654	0.0004992
1666	0.000312
1678	0.0002064
1690	0.0001704
1702	0.000168
1714	0.0001752
1726	0.0001272
1738	0.000168
1750	0.00018
1762	0.0001512
1774	0.0001176
1786	9.6e-05
1798	8.64e-05
1810	0.0001008
1822	7.92e-05
1834	8.64e-05
1846	0.000108
1858	7.44e-05
1870	0.0001056
1882	7.68e-05
1894	6.48e-05
1906	7.44e-05
1918	7.68e-05
1930	4.8e-05
1942	6.24e-05
1954	4.56e-05
1966	6.48e-05
1978	2.88e-05
1990	4.8e-05
2002	6.24e-05
2014	5.76e-05
2026	4.08e-05
2038	6.24e-05
2050	4.56e-05
2062	5.28e-05
2074	4.8e-05
2086	4.8e-06
2098	3.12e-05
2110	2.64e-05
2122	5.28e-05
2134	4.56e-05
2146	4.08e-05
2158	6.24e-05
2170	4.32e-05
2182	5.76e-05
2194	4.32e-05
2206	2.4e-05
2218	2.4e-05
2230	2.4e-06
2242	1.68e-05
2254	5.52e-05
2266	2.88e-05
2278	4.8e-05
2290	5.76e-05
2302	7.68e-05
2314	4.8e-05
2326	6.72e-05
2338	9.6e-05
2350	7.2e-05
2362	7.92e-05
2374	9.36e-05
2386	0.0001128
2398	0.000108
2410	0.0001152
2422	9.84e-05
2434	9.6e-05
2446	8.4e-05
2458	0.0001296
2470	0.0001152
2482	0.0001104
2494	0.0001248
2506	0.0001392
2518	0.000132
2530	0.0001776
2542	0.0001584
2554	0.0001392
2566	0.0001944
2578	0.0001896
2590	0.00018
2602	0.0001968
2614	0.0001872
2626	0.0001944
2638	0.0001944
2650	0.0002352
2662	0.0002088
2674	0.000252
2686	0.0002616
2698	0.0003096
2710	0.0003864
2722	0.0005088
2734	0.0005832
2746	0.0005304
2758	0.0005064
2770	0.0005136
2782	0.0006048
2794	0.0006888
2806	0.0008808
2818	0.0010896
2830	0.0013728
2842	0.0020016
2854	0.003684
2866	0.0067848
2878	0.0091296
2890	0.009096
2902	0.0091968
2914	0.0101976
2926	0.0112368
2938	0.0131784
2950	0.0173688
2962	0.0233424
2974	0.0214248
2986	0.01218
2998	0.0062016
3010	0.0037512
3022	0.0025032
3034	0.0018696
3046	0.0015432
3058	0.0012576
3070	0.0010944
3082	0.0009168
3094	0.0008136
3106	0.0007176
3118	0.000636
3130	0.0005664
3142	0.0005256
3154	0.0005112
3166	0.0004608
3178	0.0004344
3190	0.0004056
3202	0.0003408
3214	0.0003216
3226	0.0003
3238	0.0003048
3250	0.0002352
3262	0.0002688
3274	0.0001728
3286	0.0001704
3298	0.0002232
3310	0.0001872
3322	0.0001848
3334	0.0001656
3346	0.0001992
3358	0.0001632
3370	0.0002016
3382	0.0001464
3394	0.0001416
3406	0.0001776
3418	0.0001464
3430	0.000132
3442	0.0001296
3454	0.0001032
3466	7.44e-05
3478	7.2e-05
3490	0.0001056
3502	3.6e-05
3514	9.36e-05
3526	0.0001296
3538	0.0001104
3550	7.44e-05
3562	8.88e-05
3574	6.24e-05
3586	4.08e-05
3598	1.92e-05
3610	5.52e-05
3622	4.32e-05
3634	7.2e-05
3646	1.92e-05
3658	4.08e-05
3670	6.48e-05
3682	9.36e-05
3694	6e-05
3706	8.16e-05
3718	7.68e-05
3730	6.96e-05
3742	0.0001104
3754	7.2e-05
3766	5.28e-05
3778	0.0001152
3790	0.0001008
3802	7.2e-05
3814	9.6e-05
3826	5.52e-05
3838	0.0001152
