Infrared Spectrum: 3,4-Diethyl-2-hexene(E)
Formula: C 10 H 20
CAS: 59643-70-8
State: gas
Instrument: HP-GC/MS/IRD
Origin: NIST Mass Spectrometry Data Center
1/CM	ABSORBANCE
550	0.0003185
562	6.3e-05
574	6.65e-05
586	4.9e-05
598	2.8e-05
610	0.0002625
622	0.000469
634	0.0004725
646	0.0002485
658	0.0001365
670	6.3e-05
682	1.4e-05
694	0.00014
706	0.0001365
718	0.0001785
730	0.0001085
742	0.000119
754	0.000133
766	0.0004095
778	0.0006055
790	0.0008435
802	0.0014315
814	0.0025655
826	0.002681
838	0.0015225
850	0.0008645
862	0.000728
874	0.0005915
886	0.0004095
898	0.0003745
910	0.000567
922	0.000672
934	0.000847
946	0.00077
958	0.000476
970	0.00035
982	0.0004445
994	0.0004305
1006	0.000518
1018	0.0006895
1030	0.000833
1042	0.0007665
1054	0.0006755
1066	0.0007385
1078	0.0006545
1090	0.0005565
1102	0.000581
1114	0.000483
1126	0.0003605
1138	0.000357
1150	0.000385
1162	0.0002485
1174	0.000182
1186	0.0002205
1198	0.0002485
1210	0.000182
1222	0.000203
1234	0.0003115
1246	0.0004375
1258	0.000651
1270	0.000749
1282	0.000721
1294	0.000826
1306	0.001022
1318	0.0009835
1330	0.000861
1342	0.000875
1354	0.000945
1366	0.0015225
1378	0.003017
1390	0.00259
1402	0.0011725
1414	0.000959
1426	0.00112
1438	0.001778
1450	0.00364
1462	0.005544
1474	0.004368
1486	0.0020055
1498	0.0010535
1510	0.000798
1522	0.0006685
1534	0.0006195
1546	0.000546
1558	0.0004585
1570	0.000392
1582	0.0003605
1594	0.000343
1606	0.0003395
1618	0.0003745
1630	0.000427
1642	0.000413
1654	0.000364
1666	0.0002765
1678	0.000168
1690	0.0001225
1702	9.45e-05
1714	0.000105
1726	7e-05
1738	9.1e-05
1750	7e-05
1762	6.65e-05
1774	6.3e-05
1786	5.95e-05
1798	6.65e-05
1810	8.05e-05
1822	0.000112
1834	0.00014
1846	0.0001715
1858	0.0001715
1870	0.000112
1882	7e-05
1894	5.6e-05
1906	4.55e-05
1918	3.15e-05
1930	4.2e-05
1942	1.4e-05
1954	2.45e-05
1966	2.1e-05
1978	1.4e-05
1990	1.4e-05
2002	7e-06
2014	2.1e-05
2026	1.75e-05
2038	4.2e-05
2050	3.85e-05
2062	4.9e-05
2074	2.1e-05
2086	4.55e-05
2098	4.55e-05
2110	2.1e-05
2122	1.75e-05
2134	3.15e-05
2146	3.85e-05
2158	3.5e-05
2170	2.45e-05
2182	1.75e-05
2194	5.25e-05
2206	3.15e-05
2218	1.05e-05
2230	3.85e-05
2242	4.9e-05
2254	5.6e-05
2266	5.6e-05
2278	3.5e-05
2290	7.7e-05
2302	9.8e-05
2314	0.000112
2326	0.000105
2338	9.8e-05
2350	9.45e-05
2362	0.000119
2374	0.000147
2386	0.0001575
2398	0.0001505
2410	0.0001575
2422	0.000126
2434	0.000126
2446	0.00014
2458	0.0001505
2470	0.0001575
2482	0.0001505
2494	0.000161
2506	0.000154
2518	0.0001435
2530	0.000168
2542	0.000182
2554	0.00021
2566	0.000231
2578	0.0002415
2590	0.00028
2602	0.00028
2614	0.0002835
2626	0.0002975
2638	0.000329
2650	0.000343
2662	0.000371
2674	0.0004095
2686	0.0004235
2698	0.000469
2710	0.000539
2722	0.000714
2734	0.000924
2746	0.0009625
2758	0.0008435
2770	0.00091
2782	0.001043
2794	0.0012075
2806	0.0014385
2818	0.0017675
2830	0.00245
2842	0.0034825
2854	0.006202
2866	0.0131005
2878	0.019943
2890	0.01736
2902	0.0130865
2914	0.0167055
2926	0.0261555
2938	0.0298935
2950	0.0252875
2962	0.030709
2974	0.0332675
2986	0.017563
2998	0.008463
3010	0.005719
3022	0.004732
3034	0.004137
3046	0.0035315
3058	0.0027615
3070	0.0020475
3082	0.001554
3094	0.001295
3106	0.001127
3118	0.00098
3130	0.0008715
3142	0.0007665
3154	0.00063
3166	0.0005635
3178	0.000406
3190	0.000364
3202	0.000315
3214	0.00028
3226	0.000266
3238	0.0002135
3250	0.0001925
3262	0.0001785
3274	0.00014
3286	0.0001575
3298	0.000112
3310	9.45e-05
3322	0.0001015
3334	9.8e-05
3346	7.7e-05
3358	8.75e-05
3370	0.000105
3382	9.45e-05
3394	7.35e-05
3406	7.7e-05
3418	4.2e-05
3430	7e-05
3442	7.35e-05
3454	4.9e-05
3466	1.75e-05
3478	2.1e-05
3490	3.5e-05
3502	3.85e-05
3514	6.3e-05
3526	1.75e-05
3538	3.85e-05
3550	4.55e-05
3562	2.45e-05
3574	2.1e-05
3586	3.85e-05
3598	2.8e-05
3610	2.45e-05
3622	5.95e-05
3634	1.75e-05
3646	5.25e-05
3658	5.6e-05
3670	5.6e-05
3682	5.25e-05
3694	5.95e-05
3706	5.25e-05
3718	4.55e-05
3730	1.4e-05
3742	2.1e-05
3754	2.45e-05
3766	4.55e-05
3778	1.05e-05
3790	7e-05
3802	3.15e-05
3814	4.55e-05
3826	7e-06
3838	4.9e-05
