Infrared Spectrum: 1,2-Di-(m-toluoyl)-hydrazine
Formula: C16 H16 N2 O2
CAS: 59646-36-5
State: SOLID (SPLIT MULL), FLUOROLUBE FOR 3800-1330 CM^-^1, NUJOL FOR 1330-400 CM^-^1
Class: COBLENTZ III
Instrument: DOW KBr FOREPRISM-GRATING
Instrument parameters: BLAZED AT 3.5, 12.0, 20.0 MICRON AND CHANGED AT 5.0, 7.5, 14.9 MICRON
Sampling: TRANSMISSION
Resolution: 2
Origin: DOW CHEMICAL COMPANY
1/CM	TRANSMITTANCE
379	0.8718
388	0.8582
397	0.8439
406	0.8273
415	0.8161
424	0.8111
433	0.8097
442	0.8
451	0.7871
460	0.7468
469	0.6971
478	0.6526
487	0.6726
496	0.7349
505	0.7271
514	0.6887
523	0.756
532	0.7518
541	0.7206
550	0.6114
559	0.5651
568	0.6586
577	0.6598
586	0.6324
595	0.629
604	0.6312
613	0.6457
622	0.6758
631	0.71
640	0.7374
649	0.7504
658	0.7492
667	0.6955
676	0.6504
685	0.4014
694	0.5632
703	0.645
712	0.6424
721	0.5849
730	0.4365
739	0.3105
748	0.5829
757	0.7315
766	0.7565
775	0.7584
784	0.7594
793	0.7531
802	0.6257
811	0.561
820	0.6329
829	0.6032
838	0.6422
847	0.7355
856	0.7555
865	0.7576
874	0.7487
883	0.7093
892	0.6808
901	0.7055
910	0.7037
919	0.626
928	0.5771
937	0.6664
946	0.6384
955	0.7056
964	0.7118
973	0.7026
982	0.7115
991	0.7071
1000	0.6771
1009	0.7153
1018	0.7178
1027	0.7031
1036	0.6847
1045	0.6799
1054	0.6948
1063	0.681
1072	0.6862
1081	0.6672
1090	0.6434
1099	0.6565
1108	0.6712
1117	0.6568
1126	0.6738
1135	0.6792
1144	0.6684
1153	0.6574
1162	0.6431
1171	0.6238
1180	0.6226
1189	0.6202
1198	0.5955
1207	0.4394
1216	0.3898
1225	0.572
1234	0.5949
1243	0.6
1252	0.591
1261	0.5682
1270	0.5029
1279	0.3752
1288	0.1661
1297	0.1694
1306	0.2916
1315	0.3872
1324	0.4599
1333	0.4674
1342	0.4888
1351	0.4984
1360	0.5656
1369	0.5731
1378	0.5284
1387	0.5612
1396	0.61
1405	0.6031
1414	0.5862
1423	0.5668
1432	0.5693
1441	0.5621
1450	0.5396
1459	0.5052
1468	0.4777
1477	0.4027
1486	0.2688
1495	0.3593
1504	0.4297
1513	0.3312
1522	0.2258
1531	0.1975
1540	0.201
1549	0.2253
1558	0.3223
1567	0.5543
1576	0.597
1585	0.4596
1594	0.1731
1603	0.5205
1612	0.3025
1621	0.4326
1630	0.3322
1639	0.0352
1648	0.0862
1657	0.5318
1666	0.5288
1675	0.3003
1684	0.7371
1693	0.8563
1702	0.8587
1711	0.8748
1720	0.8688
1729	0.8628
1738	0.8649
1747	0.8648
1756	0.8628
1765	0.8585
1774	0.8552
1783	0.8515
1792	0.8453
1801	0.8406
1810	0.8392
1819	0.845
1828	0.8452
1837	0.8405
1846	0.8344
1855	0.8284
1864	0.8251
1873	0.8275
1882	0.827
1891	0.8198
1900	0.8187
1909	0.8242
1918	0.8253
1927	0.8199
1936	0.8119
1945	0.8058
1954	0.8078
1963	0.8203
1972	0.8041
1981	0.8015
1990	0.7983
1999	0.8001
2008	0.8051
2017	0.8036
2026	0.8015
2035	0.7972
2044	0.7904
2053	0.7874
2062	0.7835
2071	0.7787
2080	0.7745
2089	0.7701
2098	0.766
2107	0.7617
2116	0.7578
2125	0.7537
2134	0.7492
2143	0.7446
2152	0.7399
2161	0.735
2170	0.7303
2179	0.7258
2188	0.7215
2197	0.7175
2206	0.7136
2215	0.7096
2224	0.705
2233	0.6978
2242	0.6912
2251	0.6858
2260	0.6808
2269	0.676
2278	0.6717
2287	0.6675
2296	0.6632
2305	0.6587
2314	0.6536
2323	0.6483
2332	0.6434
2341	0.6389
2350	0.6378
2359	0.635
2368	0.6318
2377	0.6358
2386	0.6434
2395	0.643
2404	0.6421
2413	0.6408
2422	0.639
2431	0.6372
2440	0.6355
2449	0.6338
2458	0.6323
2467	0.6312
2476	0.6302
2485	0.6302
2494	0.6296
2503	0.6282
2512	0.6265
2521	0.6243
2530	0.6216
2539	0.6188
2548	0.6162
2557	0.6132
2566	0.6094
2575	0.6055
2584	0.6016
2593	0.5983
2602	0.595
2611	0.5919
2620	0.5889
2629	0.5859
2638	0.583
2647	0.5801
2656	0.5773
2665	0.5744
2674	0.5714
2683	0.5685
2692	0.5655
2701	0.5619
2710	0.5583
2719	0.5544
2728	0.5492
2737	0.544
2746	0.5378
2755	0.531
2764	0.5254
2773	0.5195
2782	0.5104
2791	0.497
2800	0.486
2809	0.4741
2818	0.4616
2827	0.4516
2836	0.447
2845	0.4349
2854	0.4246
2863	0.4233
2872	0.4207
2881	0.411
2890	0.398
2899	0.3827
2908	0.3655
2917	0.348
2926	0.3468
2935	0.3459
2944	0.3349
2953	0.321
2962	0.3071
2971	0.2926
2980	0.2779
2989	0.2637
2998	0.2515
3007	0.243
3016	0.2406
3025	0.2464
3034	0.2521
3043	0.2595
3052	0.2746
3061	0.2963
3070	0.32
3079	0.3442
3088	0.3446
3097	0.3345
3106	0.32
3115	0.3052
3124	0.2904
3133	0.2739
3142	0.2541
3151	0.2357
3160	0.2216
3169	0.2155
3178	0.2124
3187	0.2076
3196	0.19
3205	0.1779
3214	0.1796
3223	0.1879
3232	0.2139
3241	0.2434
3250	0.2779
3259	0.3353
3268	0.3896
3277	0.4286
3286	0.4572
3295	0.4816
3304	0.5022
3313	0.5156
3322	0.5286
3331	0.5389
3340	0.5458
3349	0.5489
3358	0.5515
3367	0.5527
3376	0.5531
3385	0.5527
3394	0.5505
3403	0.5477
3412	0.5442
3421	0.5407
3430	0.5373
3439	0.5337
3448	0.5298
3457	0.526
3466	0.5224
3475	0.5188
3484	0.5152
3493	0.5119
3502	0.5088
3511	0.5056
3520	0.5025
3529	0.4995
3538	0.4967
3547	0.4938
3556	0.492
3565	0.4901
3574	0.4883
3583	0.4864
3592	0.4846
3601	0.4824
3610	0.4801
3619	0.4777
3628	0.4755
3637	0.4731
3646	0.471
3655	0.469
3664	0.467
3673	0.465
3682	0.463
3691	0.4609
3700	0.4589
3709	0.457
3718	0.4551
3727	0.4532
3736	0.4514
3745	0.4496
3754	0.4479
3763	0.4462
3772	0.4451
3781	0.444
3790	0.4431
3799	0.4424
