Infrared Spectrum: Beta-LACTOSE
Formula: C12 H22 O11
CAS: 5965-66-2
State: SOLID (MINERAL OIL MULL)
Class: COBLENTZ
Instrument: Not specified, most likely a prism, grating, or hybrid spectrometer.
Sampling: TRANSMISSION
Resolution: 4
Origin: WYANDOTTE CHEMICALS CORP., WYANDOTTE, MICHIGAN, USA
MICROMETERS	TRANSMITTANCE
2.053	0.769
2.09279	0.791
2.13258	0.799
2.17237	0.8
2.21217	0.782
2.25196	0.787
2.29175	0.802
2.33154	0.819
2.37133	0.827
2.41112	0.835
2.45092	0.852
2.49071	0.875
2.5305	0.883
2.57029	0.912
2.61008	0.925
2.64987	0.955
2.68966	0.973
2.72946	0.956
2.76925	0.792
2.80904	0.477
2.84883	0.255
2.88862	0.17
2.92841	0.144
2.96821	0.106
3.008	0.094
3.04779	0.079
3.08758	0.087
3.12737	0.109
3.16716	0.15
3.20695	0.21
3.24675	0.26
3.28654	0.29
3.32633	0.165
3.36612	0.036
3.40591	0.038
3.4457	0.039
3.4855	0.041
3.52529	0.139
3.56508	0.432
3.60487	0.507
3.64466	0.542
3.68445	0.555
3.72424	0.572
3.76404	0.582
3.80383	0.613
3.84362	0.641
3.88341	0.669
3.9232	0.698
3.96299	0.714
4.00279	0.724
4.04258	0.723
4.08237	0.729
4.12216	0.749
4.16195	0.764
4.20174	0.781
4.24153	0.789
4.28133	0.777
4.32112	0.792
4.36091	0.815
4.4007	0.839
4.44049	0.842
4.48028	0.845
4.52008	0.854
4.55987	0.859
4.59966	0.86
4.63945	0.862
4.67924	0.865
4.71903	0.87
4.75882	0.873
4.79862	0.882
4.83841	0.887
4.8782	0.89
4.91799	0.89
4.95778	0.892
4.99757	0.898
5.03737	0.907
5.07716	0.91
5.11695	0.923
5.15674	0.928
5.19653	0.935
5.23632	0.943
5.27612	0.945
5.31591	0.948
5.3557	0.95
5.39549	0.961
5.43528	0.963
5.47507	0.965
5.51486	0.965
5.55466	0.965
5.59445	0.965
5.63424	0.963
5.67403	0.961
5.71382	0.958
5.75361	0.953
5.79341	0.941
5.8332	0.936
5.87299	0.928
5.91278	0.917
5.95257	0.9
5.99236	0.87
6.03215	0.857
6.07195	0.87
6.11174	0.89
6.15153	0.895
6.19132	0.897
6.23111	0.898
6.2709	0.905
6.3107	0.905
6.35049	0.892
6.39028	0.888
6.43007	0.862
6.46986	0.85
6.50965	0.837
6.54944	0.819
6.58924	0.789
6.62903	0.728
6.66882	0.631
6.70861	0.472
6.7484	0.273
6.78819	0.122
6.82799	0.072
6.86778	0.091
6.90757	0.131
6.94736	0.179
6.98715	0.217
7.02694	0.207
7.06673	0.245
7.10653	0.325
7.14632	0.349
7.18611	0.316
7.2259	0.2
7.26569	0.195
7.30548	0.253
7.34528	0.262
7.38507	0.32
7.42486	0.25
7.46465	0.26
7.50444	0.356
7.54423	0.432
7.58402	0.446
7.62382	0.293
7.66361	0.356
7.7034	0.456
7.74319	0.434
7.78298	0.47
7.82277	0.474
7.86257	0.497
7.90236	0.424
7.94215	0.384
7.98194	0.301
8.02173	0.396
8.06152	0.467
8.10131	0.535
8.14111	0.479
8.1809	0.479
8.22069	0.519
8.26048	0.472
8.30027	0.477
8.34006	0.477
8.37986	0.431
8.41965	0.474
8.45944	0.497
8.49923	0.401
8.53902	0.25
8.57881	0.19
8.6186	0.169
8.6584	0.228
8.69819	0.278
8.73798	0.258
8.77777	0.25
8.81756	0.199
8.85735	0.159
8.89715	0.127
8.93694	0.082
8.97673	0.092
9.01652	0.099
9.05631	0.089
9.0961	0.069
9.13589	0.081
9.17569	0.097
9.21548	0.101
9.25527	0.092
9.29506	0.059
9.33485	0.056
9.37464	0.067
9.41444	0.081
9.45423	0.087
9.49402	0.107
9.53381	0.081
9.5736	0.063
9.61339	0.054
9.65318	0.049
9.69298	0.056
9.73277	0.077
9.77256	0.087
9.81235	0.081
9.85214	0.092
9.89193	0.135
9.93173	0.16
9.97152	0.179
10.0113	0.203
10.0511	0.165
10.0909	0.099
10.1307	0.087
10.1705	0.117
10.2103	0.164
10.2501	0.217
10.2898	0.25
10.3296	0.286
10.3694	0.316
10.4092	0.346
10.449	0.369
10.4888	0.393
10.5286	0.398
10.5684	0.368
10.6082	0.368
10.648	0.411
10.6878	0.447
10.7276	0.467
10.7673	0.494
10.8071	0.514
10.8469	0.53
10.8867	0.54
10.9265	0.529
10.9663	0.527
11.0061	0.57
11.0459	0.592
11.0857	0.577
11.1255	0.477
11.1653	0.398
11.2051	0.354
11.2448	0.298
11.2846	0.346
11.3244	0.437
11.3642	0.444
11.404	0.328
11.4438	0.278
11.4836	0.353
11.5234	0.472
11.5632	0.524
11.603	0.56
11.6428	0.58
11.6826	0.598
11.7223	0.613
11.7621	0.62
11.8019	0.633
11.8417	0.64
11.8815	0.643
11.9213	0.648
11.9611	0.656
12.0009	0.658
12.0407	0.653
12.0805	0.655
12.1203	0.665
12.1601	0.665
12.1998	0.668
12.2396	0.668
12.2794	0.666
12.3192	0.665
12.359	0.661
12.3988	0.66
12.4386	0.655
12.4784	0.648
12.5182	0.64
12.558	0.63
12.5978	0.615
12.6376	0.601
12.6773	0.59
12.7171	0.562
12.7569	0.514
12.7967	0.464
12.8365	0.416
12.8763	0.399
12.9161	0.381
12.9559	0.341
12.9957	0.305
13.0355	0.285
13.0753	0.305
13.115	0.338
13.1548	0.369
13.1946	0.389
13.2344	0.399
13.2742	0.404
13.314	0.401
13.3538	0.394
13.3936	0.374
13.4334	0.356
13.4732	0.338
13.513	0.321
13.5528	0.308
13.5925	0.303
13.6323	0.305
13.6721	0.31
13.7119	0.32
13.7517	0.328
13.7915	0.336
13.8313	0.346
13.8711	0.356
13.9109	0.366
13.9507	0.378
13.9905	0.391
14.0303	0.417
14.07	0.426
14.1098	0.432
14.1496	0.437
14.1894	0.437
14.2292	0.427
14.269	0.421
14.3088	0.411
14.3486	0.406
14.3884	0.414
14.4282	0.434
14.468	0.452
14.5078	0.472
14.5475	0.487
14.5873	0.499
14.6271	0.507
14.6669	0.509
14.7067	0.509
14.7465	0.507
14.7863	0.502
14.8261	0.499
14.8659	0.494
14.9057	0.487
14.9455	0.482
14.9853	0.48
15.025	0.477
15.0648	0.48
15.1046	0.47
15.1444	0.456
15.1842	0.439
15.224	0.426
15.2638	0.417
15.3036	0.414
15.3434	0.416
15.3832	0.427
15.423	0.437
15.4628	0.452
15.5025	0.459
15.5423	0.462
15.5821	0.466
15.6219	0.475
15.6617	0.482
15.7015	0.489
15.7413	0.492
15.7811	0.487
15.8209	0.487
15.8607	0.489
15.9005	0.492
15.9402	0.495
15.98	0.502
