Infrared Spectrum: 4-n-Heptylbiphenyl
Formula: C 19 H 24
CAS: 59662-32-7
State: gas
Origin: EPA-IR VAPOR PHASE LIBRARY
1/CM	ABSORBANCE
549.8	0.006334
559.445	0.004144
569.09	0.003694
578.734	0.005154
588.379	0.004544
598.024	0.003934
607.669	0.001974
617.313	0.0013351
626.958	0.001814
636.603	0.002014
646.248	0.002324
655.893	0.003204
665.537	0.004594
675.182	0.008004
684.827	0.014884
694.472	0.028394
704.116	0.023944
713.761	0.014574
723.406	0.012354
733.051	0.014974
742.695	0.018634
752.34	0.029124
761.985	0.029734
771.63	0.014924
781.275	0.007014
790.919	0.005084
800.564	0.006294
810.209	0.008764
819.854	0.011844
829.498	0.014334
839.143	0.013364
848.788	0.008294
858.433	0.005224
868.078	0.003764
877.722	0.003024
887.367	0.002464
897.012	0.002874
906.657	0.003114
916.301	0.002864
925.946	0.002304
935.591	0.001884
945.236	0.002144
954.88	0.002144
964.525	0.002004
974.17	0.001694
983.815	0.002314
993.46	0.004754
1003.1	0.009924
1012.75	0.012824
1022.39	0.003204
1032.04	0.003734
1041.68	0.003444
1051.33	0.003464
1060.97	0.002824
1070.62	0.004034
1080.26	0.003644
1089.91	0.002854
1099.55	0.003104
1109.2	0.003304
1118.84	0.004864
1128.49	0.003634
1138.13	0.003194
1147.78	0.002104
1157.42	0.001604
1167.07	0.002404
1176.71	0.003984
1186.36	0.004314
1196	0.003054
1205.64	0.002624
1215.29	0.002214
1224.93	0.003884
1234.58	0.004484
1244.22	0.003144
1253.87	0.003094
1263.51	0.003264
1273.16	0.003524
1282.8	0.004074
1292.45	0.004014
1302.09	0.004744
1311.74	0.004944
1321.38	0.005104
1331.03	0.006234
1340.67	0.007294
1350.32	0.007964
1359.96	0.007254
1369.61	0.006594
1379.25	0.006604
1388.9	0.006084
1398.54	0.005924
1408.18	0.006304
1417.83	0.005534
1427.47	0.005594
1437.12	0.008144
1446.76	0.013874
1456.41	0.016624
1466.05	0.016754
1475.7	0.021594
1485.34	0.044164
1494.99	0.024114
1504.63	0.009344
1514.28	0.012094
1523.92	0.008454
1533.57	0.004444
1543.21	0.003384
1552.86	0.002954
1562.5	0.002954
1572.15	0.003384
1581.79	0.004504
1591.44	0.007564
1601.08	0.011004
1610.73	0.007414
1620.37	0.004014
1630.01	0.002364
1639.66	0.002304
1649.3	0.002754
1658.95	0.002714
1668.59	0.002734
1678.24	0.002014
1687.88	0.001624
1697.53	0.001664
1707.17	0.001784
1716.82	0.001674
1726.46	0.001714
1736.11	0.001904
1745.75	0.002054
1755.4	0.001884
1765.04	0.001874
1774.69	0.002604
1784.33	0.003624
1793.98	0.003674
1803.62	0.002094
1813.27	0.001984
1822.91	0.001454
1832.55	0.0011726
1842.2	0.0013259
1851.84	0.001544
1861.49	0.001884
1871.13	0.002614
1880.78	0.003324
1890.42	0.003594
1900.07	0.003454
1909.71	0.002404
1919.36	0.001934
1929	0.002084
1938.65	0.002554
1948.29	0.002774
1957.94	0.002444
1967.58	0.0013694
1977.23	0.0011127
1986.87	0.0010403
1996.52	0.0008909
2006.16	0.0009769
2015.81	0.0010996
2025.45	0.0009708
2035.1	0.0012843
2044.74	0.001112
2054.38	0.0011225
2064.03	0.0010211
2073.67	0.0010638
2083.32	0.0009162
2092.96	0.0010013
2102.61	0.0009038
2112.25	0.000815
2121.9	0.0007946
2131.54	0.0008155
2141.19	0.0009299
2150.83	0.0010029
2160.48	0.0009683
2170.12	0.0010351
2179.77	0.0008437
2189.41	0.0010662
2199.06	0.0008596
2208.7	0.0008562
2218.35	0.0009206
2227.99	0.0008988
2237.64	0.0009155
2247.28	0.0009879
2256.92	0.001025
2266.57	0.0011395
2276.21	0.0011431
2285.86	0.0013402
2295.5	0.0011204
2305.15	0.001372
2314.79	0.001494
2324.44	0.0012675
2334.08	0.0011178
2343.73	0.0012926
2353.37	0.0011439
2363.02	0.0011979
2372.66	0.0011786
2382.31	0.0011067
2391.95	0.0010666
2401.6	0.000955
2411.24	0.0010359
2420.89	0.0010027
2430.53	0.0009974
2440.18	0.0009948
2449.82	0.0010617
2459.47	0.0009561
2469.11	0.0009472
2478.75	0.000953
2488.4	0.0011044
2498.04	0.0008947
2507.69	0.0010724
2517.33	0.0012291
2526.98	0.001335
2536.62	0.0012051
2546.27	0.0014322
2555.91	0.001309
2565.56	0.0014138
2575.2	0.0014132
2584.85	0.001574
2594.49	0.001614
2604.14	0.001954
2613.78	0.001874
2623.43	0.001774
2633.07	0.002044
2642.72	0.001974
2652.36	0.001954
2662.01	0.002304
2671.65	0.002024
2681.29	0.002144
2690.94	0.002284
2700.58	0.002114
2710.23	0.002034
2719.87	0.002034
2729.52	0.002284
2739.16	0.002614
2748.81	0.002774
2758.45	0.002644
2768.1	0.002994
2777.74	0.003154
2787.39	0.003704
2797.03	0.004474
2806.68	0.005074
2816.32	0.006254
2825.97	0.008384
2835.61	0.011784
2845.26	0.019104
2854.9	0.040764
2864.55	0.062364
2874.19	0.050124
2883.84	0.041554
2893.48	0.036994
2903.12	0.045244
2912.77	0.065824
2922.41	0.106664
2932.06	0.162714
2941.7	0.138914
2951.35	0.078564
2960.99	0.065354
2970.64	0.061624
2980.28	0.033114
2989.93	0.020894
2999.57	0.017304
3009.22	0.017184
3018.86	0.025084
3028.51	0.043594
3038.15	0.031004
3047.8	0.022394
3057.44	0.025864
3067.09	0.039634
3076.73	0.027814
3086.38	0.021464
3096.02	0.014454
3105.67	0.009554
3115.31	0.006024
3124.95	0.004764
3134.6	0.003434
3144.24	0.002724
3153.89	0.002224
3163.53	0.001704
3173.18	0.001544
3182.82	0.0013888
3192.47	0.0013587
3202.11	0.0013044
3211.76	0.0010247
3221.4	0.0009607
3231.05	0.0008777
3240.69	0.0011433
3250.34	0.0007575
3259.98	0.0009245
3269.63	0.0009787
3279.27	0.0008305
3288.92	0.0005863
3298.56	0.0006076
3308.21	0.0007363
3317.85	0.0006171
3327.49	0.00049598
3337.14	0.0009098
3346.78	0.00054634
3356.43	0.00047337
3366.07	0.0005807
3375.72	0.000816
3385.36	0.0003965
3395.01	0.0004248
3404.65	0.00027
3414.3	0.0005624
3423.94	0.0008908
3433.59	0.0004926
3443.23	0.00052697
3452.88	0.000783
3462.52	0.000184
3472.17	0.000332
3481.81	0.00052707
3491.46	0.000187
3501.1	0.000285
3510.75	0
3520.39	0.0005675
3530.04	0.0007446
3539.68	0.0006341
3549.32	0.00044476
3558.97	0.0006319
3568.61	0.0007032
3578.26	0.0009703
3587.9	0.0005879
3597.55	0.00050089
3607.19	0.0007342
3616.84	0.0007868
3626.48	0.0008349
3636.13	0.0004401
3645.77	0.0010335
3655.42	0.0011375
3665.06	0.000947
3674.71	0.0009703
3684.35	0.0007834
3694	0.0009791
3703.64	0.0009055
3713.29	0.0007795
3722.93	0.0006236
3732.58	0.0007977
3742.22	0.000351
3751.86	0.0009261
3761.51	0.0006732
3771.15	0.0006133
3780.8	0.0010546
3790.44	0.0008676
3800.09	0.0005668
3809.73	0.0009633
3819.38	0.0006409
3829.02	0.00049339
3838.67	0.0005874
3848.31	0.0004425
3857.96	0.0009873
3867.6	0.0006137
3877.25	0.0007018
3886.89	0.0009222
3896.54	0.0008152
3906.18	0.0005731
3915.83	0.0005584
3925.47	0.0008657
3935.12	0.0005794
3944.76	0.0006386
3954.41	0.0007421
3964.05	0.0005867
3973.69	0.0004978
3983.34	0.0008355
3992.98	0.0011918
