Infrared Spectrum: 1,3-BIS(DIMETHYLAMINO)-2-PROPANOL
Formula: C7 H18 N2 O
CAS: 5966-51-8
State: LIQUID
Boiling point: 79-81 C AT 18 mmHg
Class: COBLENTZ
Instrument: Not specified, most likely a prism, grating, or hybrid spectrometer.
Sampling: TRANSMISSION
Path length: 0.003 CM
Resolution: 4
Origin: WYANDOTTE CHEMICALS CORP., WYANDOTTE, MICHIGAN, USA
MICROMETERS	TRANSMITTANCE
2.063	0.975
2.10287	0.975
2.14273	0.973
2.1826	0.935
2.22247	0.913
2.26233	0.916
2.3022	0.908
2.34207	0.921
2.38194	0.93
2.4218	0.923
2.46167	0.915
2.50154	0.935
2.5414	0.938
2.58127	0.941
2.62114	0.955
2.661	0.95
2.70087	0.892
2.74074	0.828
2.7806	0.642
2.82047	0.428
2.86034	0.279
2.90021	0.169
2.94007	0.127
2.97994	0.117
3.01981	0.132
3.05967	0.152
3.09954	0.152
3.13941	0.166
3.17927	0.194
3.21914	0.239
3.25901	0.303
3.29887	0.353
3.33874	0.144
3.37861	0.029
3.41848	0.036
3.45834	0.041
3.49821	0.036
3.53808	0.033
3.57794	0.029
3.61781	0.028
3.65768	0.066
3.69754	0.217
3.73741	0.471
3.77728	0.593
3.81714	0.659
3.85701	0.714
3.89688	0.745
3.93675	0.767
3.97661	0.78
4.01648	0.78
4.05635	0.79
4.09621	0.84
4.13608	0.857
4.17595	0.865
4.21581	0.887
4.25568	0.901
4.29555	0.903
4.33541	0.903
4.37528	0.903
4.41515	0.905
4.45502	0.908
4.49488	0.913
4.53475	0.911
4.57462	0.92
4.61448	0.92
4.65435	0.915
4.69422	0.923
4.73408	0.923
4.77395	0.908
4.81382	0.918
4.85368	0.916
4.89355	0.921
4.93342	0.935
4.97329	0.933
5.01315	0.938
5.05302	0.935
5.09289	0.935
5.13275	0.938
5.17262	0.94
5.21249	0.955
5.25235	0.955
5.29222	0.951
5.33209	0.945
5.37195	0.931
5.41182	0.93
5.45169	0.935
5.49156	0.94
5.53142	0.95
5.57129	0.951
5.61116	0.943
5.65102	0.928
5.69089	0.921
5.73076	0.91
5.77062	0.893
5.81049	0.865
5.85036	0.84
5.89022	0.807
5.93009	0.744
5.96996	0.692
6.00983	0.682
6.04969	0.689
6.08956	0.704
6.12943	0.705
6.16929	0.662
6.20916	0.626
6.24903	0.686
6.28889	0.725
6.32876	0.752
6.36863	0.76
6.40849	0.769
6.44836	0.767
6.48823	0.755
6.5281	0.737
6.56796	0.709
6.60783	0.659
6.6477	0.588
6.68756	0.465
6.72743	0.292
6.7673	0.063
6.80716	0.033
6.84703	0.038
6.8869	0.053
6.92676	0.126
6.96663	0.23
7.0065	0.272
7.04637	0.32
7.08623	0.377
7.1261	0.415
7.16597	0.516
7.20583	0.514
7.2457	0.485
7.28557	0.466
7.32543	0.475
7.3653	0.441
7.40517	0.363
7.44503	0.29
7.4849	0.21
7.52477	0.174
7.56464	0.222
7.6045	0.275
7.64437	0.294
7.68424	0.27
7.7241	0.235
7.76397	0.205
7.80384	0.164
7.8437	0.126
7.88357	0.063
7.92344	0.073
7.9633	0.166
8.00317	0.307
8.04304	0.456
8.08291	0.536
8.12277	0.581
8.16264	0.598
8.20251	0.546
8.24237	0.468
8.28224	0.408
8.32211	0.343
8.36197	0.327
8.40184	0.383
8.44171	0.377
8.48157	0.35
8.52144	0.337
8.56131	0.368
8.60118	0.39
8.64104	0.416
8.68091	0.46
8.72078	0.473
8.76064	0.518
8.80051	0.536
8.84038	0.518
8.88024	0.46
8.92011	0.333
8.95998	0.204
8.99984	0.114
9.03971	0.051
9.07958	0.044
9.11945	0.061
9.15931	0.081
9.19918	0.121
9.23905	0.159
9.27891	0.192
9.31878	0.232
9.35865	0.25
9.39851	0.245
9.43838	0.209
9.47825	0.142
9.51811	0.073
9.55798	0.034
9.59785	0.031
9.63772	0.033
9.67758	0.039
9.71745	0.041
9.75732	0.039
9.79718	0.051
9.83705	0.101
9.87692	0.131
9.91678	0.151
9.95665	0.239
9.99652	0.38
10.0364	0.518
10.0763	0.576
10.1161	0.611
10.156	0.639
10.1959	0.664
10.2357	0.674
10.2756	0.679
10.3155	0.667
10.3553	0.656
10.3952	0.657
10.4351	0.662
10.4749	0.676
10.5148	0.689
10.5547	0.689
10.5945	0.681
10.6344	0.654
10.6743	0.586
10.7141	0.49
10.754	0.343
10.7939	0.294
10.8337	0.328
10.8736	0.408
10.9135	0.468
10.9533	0.536
10.9932	0.583
11.0331	0.621
11.0729	0.637
11.1128	0.641
11.1527	0.619
11.1925	0.584
11.2324	0.509
11.2723	0.453
11.3121	0.357
11.352	0.28
11.3919	0.219
11.4317	0.2
11.4716	0.235
11.5115	0.297
11.5513	0.318
11.5912	0.318
11.6311	0.297
11.6709	0.254
11.7108	0.232
11.7507	0.264
11.7905	0.327
11.8304	0.4
11.8703	0.445
11.9101	0.45
11.95	0.393
11.9899	0.313
12.0297	0.232
12.0696	0.217
12.1095	0.252
12.1493	0.292
12.1892	0.302
12.2291	0.295
12.2689	0.318
12.3088	0.383
12.3487	0.455
12.3885	0.491
12.4284	0.503
12.4683	0.503
12.5081	0.501
12.548	0.513
12.5879	0.533
12.6277	0.559
12.6676	0.584
12.7075	0.601
12.7473	0.611
12.7872	0.614
12.8271	0.617
12.8669	0.617
12.9068	0.614
12.9467	0.616
12.9865	0.616
13.0264	0.616
13.0663	0.614
13.1061	0.614
13.146	0.614
13.1859	0.612
13.2257	0.616
13.2656	0.616
13.3055	0.619
13.3453	0.617
13.3852	0.621
13.4251	0.616
13.4649	0.614
13.5048	0.617
13.5447	0.616
13.5845	0.617
13.6244	0.616
13.6643	0.614
13.7041	0.612
13.744	0.611
13.7839	0.611
13.8237	0.606
13.8636	0.602
13.9035	0.599
13.9433	0.602
13.9832	0.599
14.0231	0.599
14.0629	0.596
14.1028	0.594
14.1427	0.591
14.1825	0.591
14.2224	0.591
14.2623	0.591
14.3021	0.588
14.342	0.584
14.3819	0.584
14.4217	0.581
14.4616	0.579
14.5015	0.579
14.5413	0.578
14.5812	0.574
14.6211	0.571
14.6609	0.569
14.7008	0.568
14.7407	0.563
14.7805	0.563
14.8204	0.564
14.8603	0.563
14.9001	0.563
14.94	0.559
14.9799	0.554
15.0197	0.549
15.0596	0.546
15.0995	0.546
15.1394	0.549
15.1792	0.543
15.2191	0.544
15.259	0.543
15.2988	0.541
15.3387	0.543
15.3786	0.539
15.4184	0.539
15.4583	0.543
15.4982	0.543
15.538	0.543
15.5779	0.546
15.6178	0.554
15.6576	0.556
15.6975	0.556
15.7374	0.556
15.7772	0.558
15.8171	0.559
15.857	0.563
15.8968	0.563
15.9367	0.559
15.9766	0.559
