Infrared Spectrum: 3-Ethyl-3-hexanol
Formula: C 8 H 18 O
CAS: 597-76-2
State: gas
Instrument: HP-GC/MS/IRD
Origin: NIST Mass Spectrometry Data Center
1/CM	ABSORBANCE
550	0.0006747
562	0.0002808
574	0.000273
586	0.0002418
598	0.0001911
610	5.85e-05
622	1.95e-05
634	1.17e-05
646	4.29e-05
658	7.8e-06
670	1.95e-05
682	0.0001014
694	2.34e-05
706	0.0001443
718	0.0002769
730	0.0003159
742	0.0002964
754	0.0002301
766	0.0002886
778	0.000468
790	0.0006006
802	0.0006357
814	0.0004368
826	0.0004134
838	0.000468
850	0.0009516
862	0.0013689
874	0.0015132
886	0.0017316
898	0.001833
910	0.0018174
922	0.0023166
934	0.0041574
946	0.0066651
958	0.0075036
970	0.0060411
982	0.0039858
994	0.0021177
1006	0.0014391
1018	0.0015561
1030	0.0017355
1042	0.0017082
1054	0.0015912
1066	0.0015444
1078	0.0016536
1090	0.0018018
1102	0.0020436
1114	0.00273
1126	0.0038376
1138	0.0048009
1150	0.0057798
1162	0.0058656
1174	0.0041535
1186	0.0025857
1198	0.0018993
1210	0.0018096
1222	0.0021489
1234	0.0026208
1246	0.0030069
1258	0.0031278
1270	0.0029328
1282	0.0028041
1294	0.0027261
1306	0.0025623
1318	0.0023478
1330	0.0022113
1342	0.0024141
1354	0.0028938
1366	0.0034554
1378	0.0041301
1390	0.0038571
1402	0.0023166
1414	0.001599
1426	0.0017472
1438	0.0028977
1450	0.0050739
1462	0.0065559
1474	0.0049959
1486	0.0024063
1498	0.0010998
1510	0.0007449
1522	0.0005694
1534	0.0004953
1546	0.0003978
1558	0.00039
1570	0.0003393
1582	0.0003042
1594	0.000273
1606	0.0002535
1618	0.0002262
1630	0.0001794
1642	0.0001755
1654	0.0001638
1666	0.0001014
1678	0.0001131
1690	0.0001053
1702	8.19e-05
1714	5.85e-05
1726	1.17e-05
1738	1.95e-05
1750	3.51e-05
1762	1.56e-05
1774	1.17e-05
1786	1.56e-05
1798	1.56e-05
1810	3.51e-05
1822	2.73e-05
1834	2.73e-05
1846	1.17e-05
1858	1.95e-05
1870	1.17e-05
1882	1.95e-05
1894	2.34e-05
1906	3.9e-05
1918	3.9e-05
1930	1.95e-05
1942	1.56e-05
1954	3.12e-05
1966	1.95e-05
1978	1.56e-05
1990	1.17e-05
2002	1.17e-05
2014	1.95e-05
2026	1.95e-05
2038	3.12e-05
2050	3.51e-05
2062	2.34e-05
2074	2.73e-05
2086	3.51e-05
2098	1.95e-05
2110	2.34e-05
2122	7.8e-06
2134	1.95e-05
2146	1.56e-05
2158	3.9e-06
2170	1.95e-05
2182	1.17e-05
2194	7.8e-06
2206	1.17e-05
2218	1.56e-05
2230	3.9e-05
2242	2.73e-05
2254	3.9e-05
2266	2.34e-05
2278	1.56e-05
2290	2.34e-05
2302	1.95e-05
2314	3.12e-05
2326	6.24e-05
2338	7.8e-05
2350	4.68e-05
2362	7.8e-05
2374	7.41e-05
2386	7.8e-05
2398	8.97e-05
2410	0.0001053
2422	7.41e-05
2434	5.46e-05
2446	2.73e-05
2458	3.12e-05
2470	3.9e-06
2482	1.17e-05
2494	3.9e-05
2506	3.12e-05
2518	7.8e-06
2530	4.29e-05
2542	3.51e-05
2554	4.29e-05
2566	7.8e-05
2578	0.0001092
2590	0.0001443
2602	0.0001521
2614	0.0001755
2626	0.0001833
2638	0.0002184
2650	0.0002184
2662	0.0002067
2674	0.0002301
2686	0.000234
2698	0.0003003
2710	0.0003588
2722	0.0004368
2734	0.0006396
2746	0.0007917
2758	0.0007722
2770	0.0007527
2782	0.0008697
2794	0.0010764
2806	0.0013182
2818	0.0017277
2830	0.0023517
2842	0.0035802
2854	0.0058305
2866	0.0088959
2878	0.0136812
2890	0.0163176
2902	0.0149214
2914	0.0167895
2926	0.0235209
2938	0.031356
2950	0.0319722
2962	0.0351585
2974	0.037635
2986	0.0218595
2998	0.0088296
3010	0.0044031
3022	0.0029835
3034	0.0022737
3046	0.0018369
3058	0.0015756
3070	0.0013923
3082	0.0011895
3094	0.0010647
3106	0.0009204
3118	0.0007683
3130	0.0006357
3142	0.0005577
3154	0.0004758
3166	0.000429
3178	0.00039
3190	0.0003003
3202	0.0002457
3214	0.0001794
3226	0.0001677
3238	9.75e-05
3250	5.46e-05
3262	6.24e-05
3274	7.02e-05
3286	7.8e-05
3298	9.36e-05
3310	3.12e-05
3322	3.12e-05
3334	3.9e-06
3346	5.85e-05
3358	5.07e-05
3370	5.46e-05
3382	9.75e-05
3394	7.41e-05
3406	7.41e-05
3418	0.0001248
3430	7.02e-05
3442	8.19e-05
3454	9.75e-05
3466	0.0001014
3478	8.58e-05
3490	7.8e-05
3502	0.0001014
3514	7.02e-05
3526	7.8e-05
3538	5.07e-05
3550	7.41e-05
3562	6.63e-05
3574	4.68e-05
3586	7.02e-05
3598	0.0001053
3610	0.0002457
3622	0.0006474
3634	0.0015873
3646	0.0019032
3658	0.0008892
3670	0.0003003
3682	0.0001404
3694	0.0001092
3706	0.000117
3718	0.0001053
3730	0.0001014
3742	9.36e-05
3754	0.0001092
3766	8.19e-05
3778	8.97e-05
3790	0.0001014
3802	0.000117
3814	0.0001287
3826	0.0001404
3838	0.0001755
