Infrared Spectrum: 2,2-Dimethylsuccinic acid
Formula: C 6 H 10 O 4
CAS: 597-43-3
State: gas
Origin: EPA-IR VAPOR PHASE LIBRARY
1/CM	ABSORBANCE
501.5	0.0023796
513.074	0.0034896
524.648	0.0047996
536.222	0.0062396
547.796	0.0074896
559.37	0.0086896
570.944	0.0106296
582.518	0.0141496
594.092	0.0133796
605.666	0.0085596
617.24	0.0061396
628.814	0.0047996
640.388	0.0036796
651.962	0.0025496
663.536	0.0018796
675.11	0.0016796
686.684	0.0016996
698.258	0.0015896
709.832	0.0013096
721.406	0.0011796
732.98	0.0015996
744.554	0.0019896
756.128	0.0019596
767.702	0.0023596
779.276	0.0023796
790.85	0.0015896
802.423	0.0009948
813.997	0.0008123
825.571	0.0007777
837.145	0.0008676
848.719	0.0008659
860.293	0.0010696
871.867	0.0014196
883.441	0.0019496
895.015	0.0034996
906.589	0.0048596
918.163	0.0041496
929.737	0.0026396
941.311	0.0020896
952.885	0.0020396
964.459	0.0024996
976.033	0.0026296
987.607	0.0021296
999.181	0.0028796
1010.76	0.0055096
1022.33	0.0067196
1033.9	0.0045296
1045.48	0.0029696
1057.05	0.0035396
1068.63	0.0056696
1080.2	0.0107496
1091.77	0.0214496
1103.35	0.0328696
1114.92	0.0342896
1126.49	0.0261296
1138.07	0.0180696
1149.64	0.0134596
1161.22	0.0108996
1172.79	0.0097996
1184.36	0.0091396
1195.94	0.0080196
1207.51	0.0070596
1219.09	0.0063496
1230.66	0.0054296
1242.23	0.0042096
1253.81	0.0033196
1265.38	0.0029396
1276.96	0.0028496
1288.53	0.0032696
1300.1	0.0038296
1311.68	0.0039696
1323.25	0.0037496
1334.83	0.0038696
1346.4	0.0043796
1357.97	0.0057796
1369.55	0.0073596
1381.12	0.0066196
1392.7	0.0046896
1404.27	0.0036796
1415.84	0.0028196
1427.42	0.0023896
1438.99	0.0023496
1450.57	0.0025796
1462.14	0.0031996
1473.71	0.0038396
1485.29	0.0028396
1496.86	0.0013296
1508.44	0.0010125
1520.01	0.0007784
1531.58	0.0006013
1543.16	0.000705
1554.73	0.0006035
1566.31	0.0004014
1577.88	0.0003881
1589.45	0.0003172
1601.03	0.000335
1612.6	0.0003487
1624.18	0.0004169
1635.75	0.0005167
1647.32	0.0005935
1658.9	0.0006138
1670.47	0.0008088
1682.05	0.0010896
1693.62	0.0014196
1705.19	0.0021196
1716.77	0.0036296
1728.34	0.0063296
1739.92	0.0111496
1751.49	0.0204596
1763.06	0.0373296
1774.64	0.0482996
1786.21	0.0389196
1797.79	0.0253796
1809.36	0.0194296
1820.93	0.0128596
1832.51	0.0052996
1844.08	0.0027996
1855.66	0.0025196
1867.23	0.0029296
1878.8	0.0026396
1890.38	0.0015396
1901.95	0.0007495
1913.53	0.0005177
1925.1	0.0004297
1936.67	0.0003853
1948.25	0.0003302
1959.82	0.0003156
1971.4	0.0003004
1982.97	0.0002637
1994.54	0.0002715
2006.12	0.0002203
2017.69	0.0002465
2029.27	0.0002211
2040.84	0.0002263
2052.41	0.0001824
2063.99	0.0001825
2075.56	0.0001455
2087.14	0.0001693
2098.71	0.0001588
2110.28	0.000163
2121.86	0.0001505
2133.43	0.0001561
2145.01	0.0001558
2156.58	0.0001623
2168.15	0.0002097
2179.73	0.0002407
2191.3	0.0002441
2202.88	0.0002889
2214.45	0.000271
2226.02	0.0002602
2237.6	0.0002266
2249.17	0.0001878
2260.74	0.0001793
2272.32	0.0001414
2283.89	0.0001485
2295.47	0.0001516
2307.04	0.0001568
2318.61	0.000152
2330.19	0.0001767
2341.76	0.0001699
2353.34	0.0001699
2364.91	0.0001831
2376.48	0.0001619
2388.06	0.0001627
2399.63	0.0001503
2411.21	0.0001486
2422.78	0.0001488
2434.35	0.0001545
2445.93	0.0001509
2457.5	0.000155
2469.08	0.0001565
2480.65	0.0001375
2492.22	0.00010504
2503.8	0.00010036
2515.37	6.999e-05
2526.95	4.92e-05
2538.52	7.064e-05
2550.09	6.661e-05
2561.67	7.503e-05
2573.24	5.013e-05
2584.82	3.743e-05
2596.39	6.606e-05
2607.96	6.083e-05
2619.54	7.96e-05
2631.11	9.74e-05
2642.69	9.597e-05
2654.26	7.195e-05
2665.83	6.913e-05
2677.41	0.00011901
2688.98	6.179e-05
2700.56	6.472e-05
2712.13	7.695e-05
2723.7	8.196e-05
2735.28	0.000132
2746.85	0.00011002
2758.43	0.0001206
2770	8.627e-05
2781.57	9.486e-05
2793.15	0.00010693
2804.72	0.0001583
2816.3	0.0002053
2827.87	0.0002724
2839.44	0.0003056
2851.02	0.0004035
2862.59	0.000662
2874.17	0.0012396
2885.74	0.0019296
2897.31	0.0019296
2908.89	0.0018696
2920.46	0.0022996
2932.04	0.0032096
2943.61	0.0040796
2955.18	0.0038696
2966.76	0.0041796
2978.33	0.0063996
2989.91	0.0068596
3001.48	0.0040496
3013.05	0.0017296
3024.63	0.0007058
3036.2	0.0003867
3047.78	0.0002835
3059.35	0.0002123
3070.92	0.0001969
3082.5	0.000198
3094.07	0.0001452
3105.65	0.00010422
3117.22	0.0001311
3128.79	0.0001188
3140.37	0.0001348
3151.94	0.00011117
3163.52	9.297e-05
3175.09	0.0001474
3186.66	0.0001506
3198.24	0.0001391
3209.81	0.0001346
3221.39	0.0001451
3232.96	0.0001415
3244.53	0.00010083
3256.11	7.655e-05
3267.68	7.139e-05
3279.26	0.00010997
3290.83	8.173e-05
3302.4	0.000126
3313.98	0.0001507
3325.55	0.0001658
3337.13	0.0001324
3348.7	0.0001946
3360.27	0.0002396
3371.85	0.0001717
3383.42	0.0001726
3395	0.0001469
3406.57	0.0001846
3418.14	0.0001917
3429.72	0.0002324
3441.29	0.0002149
3452.86	0.0002331
3464.44	0.0002137
3476.01	0.0002746
3487.59	0.0003276
3499.16	0.0004508
3510.73	0.0005157
3522.31	0.0007694
3533.88	0.0009594
3545.46	0.0014696
3557.03	0.0047696
3568.6	0.0165896
3580.18	0.0166196
3591.75	0.0049496
3603.33	0.0010496
3614.9	0.0006064
3626.47	0.0005443
3638.05	0.0003898
3649.62	0.0004582
3661.2	0.0003071
3672.77	0.0003372
3684.34	0.0001847
3695.92	9.355e-05
3707.49	8.618e-05
3719.07	5.676e-05
3730.64	0.0001705
3742.21	0.0002215
3753.79	0.0001319
3765.36	5.763e-05
3776.94	3.5e-06
3788.51	4.078e-05
3800.08	2.3796e-05
3811.66	1.441e-05
3823.23	7.691e-05
3834.81	0.0001293
3846.38	1.163e-05
3857.95	0.0001382
3869.53	0.0001826
3881.1	0.00011555
3892.68	8.152e-05
3904.25	0.0001646
3915.82	5.262e-05
3927.4	5.185e-05
3938.97	8.389e-05
3950.55	7.479e-05
3962.12	8.384e-05
3973.69	1.43e-05
3985.27	4.002e-05
3996.84	2.3749e-05
