Infrared Spectrum: 2-Ethyl-2-nitro-1,3-propanediol
Formula: C 5 H 11 N O 4
CAS: 597-09-1
State: gas
Origin: EPA-IR VAPOR PHASE LIBRARY
1/CM	ABSORBANCE
501.5	0.00209
513.074	0.002
524.648	0.00162
536.222	0.00179
547.796	0.00186
559.37	0.00172
570.944	0.00164
582.518	0.00157
594.092	0.0015
605.666	0.00138
617.24	0.00136
628.814	0.00138
640.388	0.00144
651.962	0.00128
663.536	0.00102
675.11	0.0008145
686.684	0.0006334
698.258	0.0005531
709.832	0.0006165
721.406	0.0006395
732.98	0.0006547
744.554	0.0005802
756.128	0.0008433
767.702	0.0011
779.276	0.00143
790.85	0.00168
802.423	0.00223
813.997	0.00242
825.571	0.00202
837.145	0.00193
848.719	0.00276
860.293	0.00321
871.867	0.00212
883.441	0.00141
895.015	0.00146
906.589	0.00158
918.163	0.00158
929.737	0.00162
941.311	0.00164
952.885	0.00192
964.459	0.00254
976.033	0.00326
987.607	0.00345
999.181	0.00362
1010.76	0.00396
1022.33	0.00491
1033.9	0.00751
1045.48	0.01226
1057.05	0.01692
1068.63	0.01717
1080.2	0.01145
1091.77	0.00579
1103.35	0.0041
1114.92	0.00348
1126.49	0.00285
1138.07	0.00244
1149.64	0.00217
1161.22	0.00256
1172.79	0.00283
1184.36	0.0026
1195.94	0.00267
1207.51	0.00301
1219.09	0.00351
1230.66	0.0039
1242.23	0.00374
1253.81	0.0032
1265.38	0.0028
1276.96	0.00266
1288.53	0.0029
1300.1	0.00341
1311.68	0.00381
1323.25	0.00496
1334.83	0.00736
1346.4	0.0091
1357.97	0.0085
1369.55	0.00694
1381.12	0.00602
1392.7	0.00558
1404.27	0.00468
1415.84	0.00361
1427.42	0.00315
1438.99	0.00386
1450.57	0.00542
1462.14	0.00639
1473.71	0.00522
1485.29	0.00363
1496.86	0.00366
1508.44	0.00525
1520.01	0.00772
1531.58	0.01365
1543.16	0.02527
1554.73	0.03128
1566.31	0.02007
1577.88	0.00881
1589.45	0.00453
1601.03	0.00249
1612.6	0.00146
1624.18	0.0009451
1635.75	0.0007063
1647.32	0.0005805
1658.9	0.0004561
1670.47	0.0005331
1682.05	0.0005757
1693.62	0.0006254
1705.19	0.0007142
1716.77	0.0007234
1728.34	0.0004951
1739.92	0.0004998
1751.49	0.0003266
1763.06	0.0005222
1774.64	0.0007514
1786.21	0.0007056
1797.79	0.0005214
1809.36	0.0003271
1820.93	0.0001653
1832.51	0.0001233
1844.08	0.0001353
1855.66	9.342e-05
1867.23	9.138e-05
1878.8	6.069e-05
1890.38	8.996e-05
1901.95	8.037e-05
1913.53	5.038e-05
1925.1	4.773e-05
1936.67	5.773e-05
1948.25	5.608e-05
1959.82	4.165e-05
1971.4	3.903e-05
1982.97	5.365e-05
1994.54	7.069e-05
2006.12	8.419e-05
2017.69	7.842e-05
2029.27	8.017e-05
2040.84	0.0001031
2052.41	0.0001151
2063.99	0.0001426
2075.56	0.0001623
2087.14	0.0001762
2098.71	0.0001957
2110.28	0.0002147
2121.86	0.0001807
2133.43	0.0001678
2145.01	0.0001247
2156.58	7.828e-05
2168.15	8.339e-05
2179.73	7e-05
2191.3	6.392e-05
2202.88	7.785e-05
2214.45	5.814e-05
2226.02	5.921e-05
2237.6	5.611e-05
2249.17	8.953e-05
2260.74	8.445e-05
2272.32	9.667e-05
2283.89	8.302e-05
2295.47	0.0001039
2307.04	0.0001129
2318.61	9.599e-05
2330.19	0.0001264
2341.76	0.0001525
2353.34	0.0001663
2364.91	0.0001987
2376.48	0.0001999
2388.06	0.0001647
2399.63	0.0001879
2411.21	0.0001555
2422.78	0.0001556
2434.35	0.0001899
2445.93	0.0001562
2457.5	0.0001291
2469.08	0.0001625
2480.65	0.0001117
2492.22	0.0001148
2503.8	9.33e-05
2515.37	0.0001097
2526.95	0.0001252
2538.52	9.158e-05
2550.09	0.0001014
2561.67	0.0001173
2573.24	0.0001199
2584.82	0.0001538
2596.39	0.0001105
2607.96	0.0001397
2619.54	0.0001656
2631.11	0.0002023
2642.69	0.0002371
2654.26	0.0003022
2665.83	0.000345
2677.41	0.0003529
2688.98	0.0004289
2700.56	0.0005202
2712.13	0.0006266
2723.7	0.0006753
2735.28	0.0008509
2746.85	0.00104
2758.43	0.0009726
2770	0.00106
2781.57	0.00114
2793.15	0.00106
2804.72	0.00145
2816.3	0.00145
2827.87	0.00139
2839.44	0.00144
2851.02	0.00166
2862.59	0.00245
2874.17	0.00318
2885.74	0.00429
2897.31	0.0052
2908.89	0.00453
2920.46	0.0042
2932.04	0.00514
2943.61	0.00716
2955.18	0.00854
2966.76	0.0085
2978.33	0.00885
2989.91	0.00761
3001.48	0.00396
3013.05	0.00172
3024.63	0.0009915
3036.2	0.0006646
3047.78	0.0005363
3059.35	0.0004602
3070.92	0.0003972
3082.5	0.0003003
3094.07	0.0003284
3105.65	0.0002982
3117.22	0.0002435
3128.79	0.0002185
3140.37	0.00025
3151.94	0.0002109
3163.52	0.0001834
3175.09	0.0002009
3186.66	0.0001843
3198.24	0.0001567
3209.81	0.0001604
3221.39	0.0001781
3232.96	0.0001533
3244.53	0.0001153
3256.11	0.0001341
3267.68	9.267e-05
3279.26	0.0001439
3290.83	0.000169
3302.4	0.0001604
3313.98	0.0001549
3325.55	0.0001699
3337.13	0.0001679
3348.7	0.0001444
3360.27	0.000157
3371.85	0.0001077
3383.42	0.0001206
3395	0.0001967
3406.57	0.0002244
3418.14	0.000278
3429.72	0.0002904
3441.29	0.0003012
3452.86	0.0003485
3464.44	0.0003615
3476.01	0.0003455
3487.59	0.0002954
3499.16	0.0004157
3510.73	0.0004199
3522.31	0.0004749
3533.88	0.0004887
3545.46	0.0005705
3557.03	0.0008408
3568.6	0.0014
3580.18	0.00194
3591.75	0.00249
3603.33	0.00335
3614.9	0.00437
3626.47	0.0051
3638.05	0.00479
3649.62	0.00426
3661.2	0.00376
3672.77	0.00308
3684.34	0.00181
3695.92	0.00102
3707.49	0.0007358
3719.07	0.0005559
3730.64	0.000636
3742.21	0.0005879
3753.79	0.0005251
3765.36	0.0005095
3776.94	0.0004967
3788.51	0.0003767
3800.08	0.0003926
3811.66	0.0003425
3823.23	0.0003657
3834.81	0.000322
3846.38	0.000328
3857.95	0.0002693
3869.53	0.000329
3881.1	0.0003434
3892.68	0.0002351
3904.25	0.0003427
3915.82	0.0002402
3927.4	0.0002449
3938.97	0.0003205
3950.55	0.0002133
3962.12	0.0002921
3973.69	0.0002706
3985.27	0.0002845
3996.84	0.0003241
