Infrared Spectrum: 3-Ethyl-2-methyl-3-pentanol
Formula: C 8 H 18 O
CAS: 597-05-7
State: gas
Instrument: HP-GC/MS/IRD
Origin: NIST Mass Spectrometry Data Center
1/CM	ABSORBANCE
550	0.0004224
562	0.0003388
574	0.0002376
586	0.0003564
598	0.0002156
610	0.0001628
622	0.0001144
634	0.0001364
646	0.0001716
658	0.0001584
670	0.0001848
682	0.0002948
694	0.000242
706	0.0001144
718	8.8e-05
730	8.8e-05
742	0.0001364
754	0.0002596
766	0.0003872
778	0.0004136
790	0.0003212
802	0.0002376
814	0.0001584
826	4.4e-05
838	0.0002596
850	0.0005588
862	0.0009548
874	0.0009988
886	0.0008976
898	0.0013376
910	0.0026752
922	0.004708
934	0.0079728
946	0.0119988
958	0.0113124
970	0.0064812
982	0.002882
994	0.0016544
1006	0.0016016
1018	0.0020328
1030	0.002376
1042	0.0021912
1054	0.0020416
1066	0.0022968
1078	0.00275
1090	0.0031284
1102	0.0030448
1114	0.0031812
1126	0.004026
1138	0.0048752
1150	0.0054032
1162	0.0054164
1174	0.0044132
1186	0.003036
1198	0.0021648
1210	0.0018568
1222	0.0019888
1234	0.0025564
1246	0.0032956
1258	0.0036828
1270	0.00363
1282	0.0033572
1294	0.0031988
1306	0.0028864
1318	0.002486
1330	0.0023452
1342	0.0027148
1354	0.0034496
1366	0.0046156
1378	0.0061776
1390	0.0063932
1402	0.0037356
1414	0.0018612
1426	0.0018216
1438	0.0028952
1450	0.0050248
1462	0.0070928
1474	0.0064988
1486	0.003762
1498	0.0017688
1510	0.001078
1522	0.0008492
1534	0.0006688
1546	0.0005632
1558	0.0006072
1570	0.0004752
1582	0.000396
1594	0.0003476
1606	0.00033
1618	0.0003168
1630	0.0002948
1642	0.0003124
1654	0.0003432
1666	0.000242
1678	0.0002376
1690	0.000176
1702	0.0002112
1714	0.0001452
1726	9.68e-05
1738	0.0001188
1750	0.00011
1762	8.36e-05
1774	7.04e-05
1786	5.72e-05
1798	7.92e-05
1810	4.84e-05
1822	4.84e-05
1834	4.84e-05
1846	7.92e-05
1858	5.28e-05
1870	6.16e-05
1882	5.28e-05
1894	7.48e-05
1906	6.6e-05
1918	6.6e-05
1930	4.84e-05
1942	4.84e-05
1954	2.2e-05
1966	3.08e-05
1978	2.64e-05
1990	4.4e-06
2002	2.64e-05
2014	2.2e-05
2026	2.2e-05
2038	1.32e-05
2050	3.08e-05
2062	2.64e-05
2074	1.32e-05
2086	3.08e-05
2098	3.96e-05
2110	0
2122	1.76e-05
2134	4.4e-06
2146	0
2158	0
2170	1.76e-05
2182	8.8e-06
2194	8.8e-06
2206	1.32e-05
2218	1.76e-05
2230	3.96e-05
2242	3.96e-05
2254	3.52e-05
2266	3.52e-05
2278	4.4e-05
2290	4.84e-05
2302	4.84e-05
2314	3.96e-05
2326	4.4e-05
2338	3.96e-05
2350	4.4e-05
2362	6.16e-05
2374	8.8e-05
2386	0.0001056
2398	0.0001364
2410	0.000132
2422	0.0001056
2434	5.28e-05
2446	6.6e-05
2458	5.28e-05
2470	6.16e-05
2482	6.16e-05
2494	6.16e-05
2506	6.6e-05
2518	4.4e-05
2530	6.6e-05
2542	9.68e-05
2554	7.92e-05
2566	0.0001232
2578	0.0001584
2590	0.0002112
2602	0.0002508
2614	0.0002904
2626	0.000286
2638	0.0002772
2650	0.0002728
2662	0.000264
2674	0.0002948
2686	0.0003256
2698	0.0003432
2710	0.0003828
2722	0.000528
2734	0.0007348
2746	0.0008404
2758	0.0008756
2770	0.0008888
2782	0.000968
2794	0.001056
2806	0.0012452
2818	0.0015004
2830	0.0019228
2842	0.00264
2854	0.0040524
2866	0.006864
2878	0.0122804
2890	0.0175912
2902	0.0173316
2914	0.0166056
2926	0.0202664
2938	0.0278476
2950	0.032802
2962	0.0375848
2974	0.044
2986	0.0324016
2998	0.01463
3010	0.006292
3022	0.0034936
3034	0.00253
3046	0.0020416
3058	0.0017644
3070	0.0015796
3082	0.0013992
3094	0.0012232
3106	0.0010648
3118	0.0009108
3130	0.0007656
3142	0.0007128
3154	0.0006776
3166	0.0006072
3178	0.0005456
3190	0.0004972
3202	0.000352
3214	0.0002552
3226	0.0001628
3238	0.0001276
3250	6.16e-05
3262	6.16e-05
3274	4.4e-05
3286	6.6e-05
3298	5.28e-05
3310	5.28e-05
3322	3.96e-05
3334	1.32e-05
3346	2.2e-05
3358	3.96e-05
3370	3.52e-05
3382	4.84e-05
3394	9.24e-05
3406	6.6e-05
3418	0.0001012
3430	0.0001056
3442	7.92e-05
3454	6.16e-05
3466	7.04e-05
3478	5.28e-05
3490	4.4e-05
3502	3.08e-05
3514	1.76e-05
3526	2.2e-05
3538	3.52e-05
3550	0
3562	3.96e-05
3574	8.8e-06
3586	3.08e-05
3598	7.92e-05
3610	0.000176
3622	0.00055
3634	0.001518
3646	0.002222
3658	0.001188
3670	0.0003652
3682	8.36e-05
3694	3.08e-05
3706	3.52e-05
3718	2.64e-05
3730	4.84e-05
3742	5.28e-05
3754	4.84e-05
3766	2.2e-05
3778	2.2e-05
3790	1.32e-05
3802	9.24e-05
3814	6.16e-05
3826	0.0001188
3838	0.0002024
