Infrared Spectrum: 4-Ethyl-4-heptanol
Formula: C 9 H 20 O
CAS: 597-90-0
State: gas
Instrument: HP-GC/MS/IRD
Origin: NIST Mass Spectrometry Data Center
1/CM	ABSORBANCE
550	0.0004272
562	0.0002016
574	0.000288
586	0.0002304
598	0.0001824
610	7.68e-05
622	3.36e-05
634	2.4e-05
646	3.36e-05
658	2.88e-05
670	4.32e-05
682	9.12e-05
694	0.0001488
706	0.000144
718	0.0002544
730	0.0004704
742	0.0006576
754	0.0006288
766	0.000552
778	0.0006672
790	0.0009024
802	0.0007968
814	0.0006
826	0.0005424
838	0.0009936
850	0.0016608
862	0.001944
874	0.0017184
886	0.001752
898	0.0021216
910	0.0019488
922	0.0014256
934	0.001632
946	0.0031104
958	0.0047184
970	0.00552
982	0.0054336
994	0.004056
1006	0.0022656
1018	0.0014976
1030	0.001536
1042	0.0015888
1054	0.0015312
1066	0.0016368
1078	0.0018864
1090	0.00204
1102	0.0021792
1114	0.0027648
1126	0.0040032
1138	0.0053712
1150	0.0064368
1162	0.0060672
1174	0.0039648
1186	0.0025248
1198	0.0019968
1210	0.0020688
1222	0.002424
1234	0.002832
1246	0.0031104
1258	0.0032064
1270	0.0031584
1282	0.0031152
1294	0.0030528
1306	0.00288
1318	0.0026592
1330	0.0025008
1342	0.0026256
1354	0.0030624
1366	0.0037344
1378	0.0045024
1390	0.0040656
1402	0.0024864
1414	0.0018624
1426	0.0020544
1438	0.003288
1450	0.0054336
1462	0.00708
1474	0.0054
1486	0.0023904
1498	0.0011664
1510	0.000792
1522	0.0006528
1534	0.0005328
1546	0.00048
1558	0.000432
1570	0.000336
1582	0.0002832
1594	0.0002496
1606	0.0002592
1618	0.0002256
1630	0.0002256
1642	0.0001872
1654	0.0001968
1666	0.000144
1678	0.0001152
1690	9.6e-05
1702	0.00012
1714	0.0001104
1726	5.76e-05
1738	5.76e-05
1750	4.8e-05
1762	1.92e-05
1774	1.92e-05
1786	1.44e-05
1798	2.4e-05
1810	2.88e-05
1822	1.92e-05
1834	2.88e-05
1846	2.4e-05
1858	9.6e-06
1870	4.8e-06
1882	9.6e-06
1894	9.6e-06
1906	4.8e-06
1918	9.6e-06
1930	1.44e-05
1942	4.8e-06
1954	1.44e-05
1966	0
1978	4.8e-06
1990	1.92e-05
2002	1.44e-05
2014	1.92e-05
2026	3.36e-05
2038	5.28e-05
2050	4.8e-05
2062	6.24e-05
2074	5.76e-05
2086	3.84e-05
2098	4.32e-05
2110	1.44e-05
2122	4.8e-05
2134	5.28e-05
2146	4.32e-05
2158	4.8e-05
2170	2.4e-05
2182	4.32e-05
2194	5.28e-05
2206	5.28e-05
2218	3.84e-05
2230	4.32e-05
2242	2.4e-05
2254	5.76e-05
2266	2.88e-05
2278	3.36e-05
2290	3.84e-05
2302	1.44e-05
2314	4.32e-05
2326	7.68e-05
2338	8.64e-05
2350	9.6e-05
2362	0.0001104
2374	0.0001152
2386	9.6e-05
2398	0.0001104
2410	0.0001248
2422	0.0001008
2434	9.12e-05
2446	7.68e-05
2458	1.44e-05
2470	4.32e-05
2482	2.88e-05
2494	5.28e-05
2506	6.24e-05
2518	6.24e-05
2530	9.12e-05
2542	9.12e-05
2554	0.0001008
2566	0.0001488
2578	0.0001824
2590	0.0002256
2602	0.0002352
2614	0.00024
2626	0.0002832
2638	0.0003024
2650	0.0003264
2662	0.000336
2674	0.0003504
2686	0.0003888
2698	0.0004512
2710	0.0005232
2722	0.0006048
2734	0.0008832
2746	0.001008
2758	0.000936
2770	0.0009168
2782	0.0010896
2794	0.0012912
2806	0.001632
2818	0.002112
2830	0.0029232
2842	0.0045744
2854	0.007368
2866	0.0109584
2878	0.0180288
2890	0.0197952
2902	0.017088
2914	0.020568
2926	0.027768
2938	0.03696
2950	0.0371376
2962	0.0445824
2974	0.0431184
2986	0.0193296
2998	0.0082416
3010	0.0048096
3022	0.0034944
3034	0.0027792
3046	0.0021984
3058	0.0017904
3070	0.001488
3082	0.0012864
3094	0.001104
3106	0.00096
3118	0.00084
3130	0.0007248
3142	0.000624
3154	0.000552
3166	0.0004944
3178	0.0004368
3190	0.0003936
3202	0.0003312
3214	0.0002688
3226	0.0002016
3238	0.0001392
3250	0.0001248
3262	0.0001008
3274	0.0001152
3286	6.72e-05
3298	0.0001152
3310	8.64e-05
3322	7.2e-05
3334	9.6e-06
3346	4.32e-05
3358	9.6e-05
3370	9.12e-05
3382	8.64e-05
3394	0.0001056
3406	0.0001152
3418	0.0001344
3430	9.6e-05
3442	7.68e-05
3454	7.68e-05
3466	9.6e-05
3478	4.8e-05
3490	7.68e-05
3502	7.2e-05
3514	3.36e-05
3526	7.68e-05
3538	1.92e-05
3550	7.68e-05
3562	3.84e-05
3574	5.28e-05
3586	8.64e-05
3598	9.6e-05
3610	0.0001968
3622	0.0006528
3634	0.0016608
3646	0.0019584
3658	0.0007968
3670	0.0003216
3682	0.0001584
3694	0.0001248
3706	0.0001008
3718	8.64e-05
3730	0.000144
3742	0.00012
3754	0.0001104
3766	0.0001008
3778	8.16e-05
3790	0.0001008
3802	0.000168
3814	0.000144
3826	0.0001344
3838	0.0001728
