Infrared Spectrum: 3-Methyl-3-hexanol
Formula: C 7 H 16 O
CAS: 597-96-6
State: gas
Instrument: HP-GC/MS/IRD
Origin: NIST Mass Spectrometry Data Center
1/CM	ABSORBANCE
550	0.0005238
562	0.0003105
574	0.0003159
586	0.0002457
598	0.0002052
610	9.72e-05
622	2.43e-05
634	0.0001161
646	0.0001431
658	0.0001944
670	0.0001431
682	0.0001701
694	0.0001701
706	0.0001431
718	0.0002808
730	0.0004104
742	0.0004536
754	0.0004023
766	0.0003159
778	0.0003969
790	0.0004914
802	0.0004158
814	0.0002484
826	0.0003537
838	0.0005022
850	0.000864
862	0.0012123
874	0.0012825
886	0.0015849
898	0.0023193
910	0.0030861
922	0.0029592
934	0.0024273
946	0.0017685
958	0.0012798
970	0.001485
982	0.0023382
994	0.0028647
1006	0.0023571
1018	0.0016983
1030	0.0014634
1042	0.0015282
1054	0.0016686
1066	0.0016308
1078	0.001593
1090	0.0015633
1102	0.0017145
1114	0.0023274
1126	0.0033588
1138	0.0041958
1150	0.0048816
1162	0.0054027
1174	0.0048573
1186	0.0036855
1198	0.0026082
1210	0.0020763
1222	0.0020034
1234	0.0021978
1246	0.0023544
1258	0.0024813
1270	0.0024651
1282	0.0023841
1294	0.0023193
1306	0.0021762
1318	0.0020223
1330	0.0020061
1342	0.0021708
1354	0.0026352
1366	0.0036828
1378	0.0046953
1390	0.0038178
1402	0.0019899
1414	0.0012474
1426	0.0013041
1438	0.0019278
1450	0.0031671
1462	0.0040365
1474	0.0032076
1486	0.0016686
1498	0.0007911
1510	0.0005103
1522	0.000378
1534	0.0003051
1546	0.0002943
1558	0.0002835
1570	0.0002106
1582	0.000189
1594	0.0001674
1606	0.0001539
1618	0.000162
1630	0.000135
1642	0.0001512
1654	0.0001485
1666	0.0001215
1678	0.000108
1690	9.99e-05
1702	0.0001107
1714	8.64e-05
1726	6.75e-05
1738	7.83e-05
1750	4.59e-05
1762	2.97e-05
1774	4.59e-05
1786	4.59e-05
1798	5.4e-05
1810	2.97e-05
1822	3.51e-05
1834	3.78e-05
1846	4.59e-05
1858	4.32e-05
1870	4.59e-05
1882	3.51e-05
1894	1.35e-05
1906	1.89e-05
1918	2.7e-05
1930	1.89e-05
1942	1.62e-05
1954	2.16e-05
1966	8.1e-06
1978	5.4e-06
1990	8.1e-06
2002	1.62e-05
2014	2.43e-05
2026	1.08e-05
2038	4.86e-05
2050	3.51e-05
2062	4.86e-05
2074	5.94e-05
2086	4.32e-05
2098	4.59e-05
2110	4.05e-05
2122	4.59e-05
2134	4.86e-05
2146	2.43e-05
2158	3.51e-05
2170	3.78e-05
2182	5.4e-05
2194	3.78e-05
2206	3.24e-05
2218	4.59e-05
2230	4.86e-05
2242	4.05e-05
2254	6.21e-05
2266	4.32e-05
2278	4.05e-05
2290	6.21e-05
2302	5.13e-05
2314	5.4e-05
2326	6.21e-05
2338	7.29e-05
2350	7.56e-05
2362	6.48e-05
2374	5.67e-05
2386	9.18e-05
2398	7.02e-05
2410	7.02e-05
2422	5.94e-05
2434	4.32e-05
2446	5.13e-05
2458	2.97e-05
2470	3.24e-05
2482	3.51e-05
2494	4.59e-05
2506	3.24e-05
2518	4.59e-05
2530	4.59e-05
2542	4.86e-05
2554	4.86e-05
2566	7.56e-05
2578	8.1e-05
2590	0.000108
2602	0.0001161
2614	0.0001377
2626	0.0001188
2638	0.000162
2650	0.0001863
2662	0.0001701
2674	0.0001404
2686	0.0001809
2698	0.0002052
2710	0.0002457
2722	0.000324
2734	0.0004158
2746	0.0004968
2758	0.0004671
2770	0.0004455
2782	0.0005508
2794	0.0006777
2806	0.0008802
2818	0.0011907
2830	0.001701
2842	0.0026487
2854	0.0040635
2866	0.0059454
2878	0.0090072
2890	0.0105381
2902	0.0103788
2914	0.012069
2926	0.0159408
2938	0.0191592
2950	0.0196128
2962	0.0237762
2974	0.026649
2986	0.0172827
2998	0.0071496
3010	0.0030942
3022	0.0019602
3034	0.0014634
3046	0.0011934
3058	0.0009855
3070	0.0008748
3082	0.0007803
3094	0.0006939
3106	0.0005697
3118	0.0004833
3130	0.0004374
3142	0.0003915
3154	0.000351
3166	0.0002889
3178	0.0002808
3190	0.0002511
3202	0.0001971
3214	0.0001863
3226	0.0001539
3238	0.000108
3250	9.18e-05
3262	6.21e-05
3274	9.18e-05
3286	4.59e-05
3298	7.02e-05
3310	4.86e-05
3322	5.94e-05
3334	4.59e-05
3346	4.59e-05
3358	2.43e-05
3370	9.18e-05
3382	7.02e-05
3394	7.29e-05
3406	8.37e-05
3418	0.0001134
3430	0.0001161
3442	0.0001215
3454	8.37e-05
3466	6.21e-05
3478	7.02e-05
3490	7.02e-05
3502	7.29e-05
3514	2.97e-05
3526	3.78e-05
3538	6.48e-05
3550	5.13e-05
3562	8.1e-05
3574	5.13e-05
3586	5.13e-05
3598	0.0001161
3610	0.0002106
3622	0.0005454
3634	0.0012555
3646	0.0014445
3658	0.0007776
3670	0.0002916
3682	9.45e-05
3694	7.56e-05
3706	9.72e-05
3718	5.13e-05
3730	2.16e-05
3742	5.94e-05
3754	7.56e-05
3766	7.83e-05
3778	2.7e-06
3790	5.94e-05
3802	7.56e-05
3814	0.0001188
3826	0.000108
3838	0.0001242
