Infrared Spectrum: Hydroxypivaldehyde
Formula: C 5 H 10 O 2
CAS: 597-31-9
State: gas
Origin: EPA-IR VAPOR PHASE LIBRARY
1/CM	ABSORBANCE
501.5	0.0012361
513.074	0.0009845
524.648	0.0007478
536.222	0.0006234
547.796	0.0005014
559.37	0.0005823
570.944	0.0006361
582.518	0.000482
594.092	0.0005732
605.666	0.0006223
617.24	0.0006283
628.814	0.0007565
640.388	0.0007931
651.962	0.0006198
663.536	0.0002812
675.11	0.0002381
686.684	0.0001701
698.258	0.0002605
709.832	0.000224
721.406	0.0003352
732.98	0.0004148
744.554	0.0005897
756.128	0.0009135
767.702	0.0010961
779.276	0.001001
790.85	0.0006934
802.423	0.0005428
813.997	0.0005403
825.571	0.0005141
837.145	0.0007206
848.719	0.0011261
860.293	0.0020461
871.867	0.0032761
883.441	0.0040461
895.015	0.0034661
906.589	0.0025461
918.163	0.0020361
929.737	0.0017661
941.311	0.0014961
952.885	0.0014561
964.459	0.0015261
976.033	0.0017861
987.607	0.0022961
999.181	0.0027861
1010.76	0.0035461
1022.33	0.0047661
1033.9	0.0077261
1045.48	0.0115261
1057.05	0.0125061
1068.63	0.0083961
1080.2	0.0036361
1091.77	0.0016761
1103.35	0.0010661
1114.92	0.0011161
1126.49	0.0013261
1138.07	0.0015161
1149.64	0.0018461
1161.22	0.0018561
1172.79	0.0017161
1184.36	0.0015761
1195.94	0.0014761
1207.51	0.0015261
1219.09	0.0015861
1230.66	0.0016261
1242.23	0.0017661
1253.81	0.0019561
1265.38	0.0019261
1276.96	0.0019261
1288.53	0.0017561
1300.1	0.0015161
1311.68	0.0013261
1323.25	0.0013061
1334.83	0.0013861
1346.4	0.0017461
1357.97	0.0024961
1369.55	0.0036161
1381.12	0.0036761
1392.7	0.0031461
1404.27	0.0025861
1415.84	0.0020061
1427.42	0.0014961
1438.99	0.0015861
1450.57	0.0023161
1462.14	0.0032561
1473.71	0.0035161
1485.29	0.0024761
1496.86	0.0012161
1508.44	0.0005684
1520.01	0.0003618
1531.58	0.0003412
1543.16	0.0002399
1554.73	0.0002373
1566.31	0.0002545
1577.88	0.0002318
1589.45	0.0002508
1601.03	0.0002589
1612.6	0.0002757
1624.18	0.0003138
1635.75	0.0004208
1647.32	0.0005546
1658.9	0.0007685
1670.47	0.0010761
1682.05	0.0014661
1693.62	0.0021261
1705.19	0.0038061
1716.77	0.0085161
1728.34	0.0145161
1739.92	0.0167661
1751.49	0.0127361
1763.06	0.0072061
1774.64	0.0042761
1786.21	0.0025361
1797.79	0.0015161
1809.36	0.0009049
1820.93	0.0005596
1832.51	0.0003683
1844.08	0.0002791
1855.66	0.0002604
1867.23	0.0002194
1878.8	0.0001776
1890.38	0.0001491
1901.95	0.00011907
1913.53	0.00012396
1925.1	0.00012157
1936.67	0.00010856
1948.25	0.0001362
1959.82	0.00013191
1971.4	0.0001399
1982.97	0.0001188
1994.54	0.00013513
2006.12	0.00012369
2017.69	0.00013319
2029.27	0.0001607
2040.84	0.0002028
2052.41	0.0001724
2063.99	0.000186
2075.56	0.0001936
2087.14	0.0002039
2098.71	0.0002095
2110.28	0.0001952
2121.86	0.0001534
2133.43	0.0001515
2145.01	0.00011687
2156.58	0.00010741
2168.15	9.679e-05
2179.73	9.7e-05
2191.3	8.103e-05
2202.88	5.816e-05
2214.45	5.092e-05
2226.02	7.899e-05
2237.6	8.705e-05
2249.17	9.535e-05
2260.74	8.138e-05
2272.32	7.576e-05
2283.89	7.524e-05
2295.47	9.01e-05
2307.04	8.448e-05
2318.61	8.718e-05
2330.19	0.00011307
2341.76	0.00012009
2353.34	7.089e-05
2364.91	8.543e-05
2376.48	9.365e-05
2388.06	8.293e-05
2399.63	0.0001274
2411.21	0.00012933
2422.78	8.526e-05
2434.35	6.891e-05
2445.93	8.148e-05
2457.5	0.00011706
2469.08	0.00010023
2480.65	0.00010947
2492.22	7.229e-05
2503.8	0.00013117
2515.37	0.00012893
2526.95	0.00011512
2538.52	9.919e-05
2550.09	0.0001442
2561.67	0.000173
2573.24	0.0001666
2584.82	0.0002316
2596.39	0.0002871
2607.96	0.000448
2619.54	0.0006219
2631.11	0.0008316
2642.69	0.0010561
2654.26	0.0013861
2665.83	0.0018361
2677.41	0.0027661
2688.98	0.0043461
2700.56	0.0055861
2712.13	0.0052261
2723.7	0.0038561
2735.28	0.0029261
2746.85	0.0027061
2758.43	0.0027761
2770	0.0029961
2781.57	0.0033461
2793.15	0.0038761
2804.72	0.0041461
2816.3	0.0037361
2827.87	0.0031061
2839.44	0.0028861
2851.02	0.0033561
2862.59	0.0047061
2874.17	0.0064761
2885.74	0.0070961
2897.31	0.0063461
2908.89	0.0062361
2920.46	0.0071661
2932.04	0.0081261
2943.61	0.0086261
2955.18	0.0091661
2966.76	0.0105961
2978.33	0.0094761
2989.91	0.0060061
3001.48	0.0025361
3013.05	0.0010561
3024.63	0.0005975
3036.2	0.0004884
3047.78	0.0003911
3059.35	0.0003728
3070.92	0.000394
3082.5	0.0003297
3094.07	0.0003906
3105.65	0.0003344
3117.22	0.0003693
3128.79	0.0002768
3140.37	0.0002423
3151.94	0.0002392
3163.52	0.0002163
3175.09	0.0002276
3186.66	0.0002132
3198.24	0.0001686
3209.81	0.00010929
3221.39	8.752e-05
3232.96	0.00013523
3244.53	6.183e-05
3256.11	9.857e-05
3267.68	7.951e-05
3279.26	5.95e-05
3290.83	8.62e-05
3302.4	8.999e-05
3313.98	9.565e-05
3325.55	0.00011425
3337.13	7.822e-05
3348.7	8.991e-05
3360.27	0.00013274
3371.85	0.00012364
3383.42	0.00012177
3395	0.000145
3406.57	9.86e-05
3418.14	0.0002005
3429.72	0.0002724
3441.29	0.0003561
3452.86	0.0004519
3464.44	0.0004893
3476.01	0.0003825
3487.59	0.0003405
3499.16	0.000311
3510.73	0.0002092
3522.31	0.0002465
3533.88	0.0002671
3545.46	0.0003281
3557.03	0.0002856
3568.6	0.0002955
3580.18	0.0003195
3591.75	0.0006271
3603.33	0.0009688
3614.9	0.0015961
3626.47	0.0017961
3638.05	0.0017061
3649.62	0.0016561
3661.2	0.0020861
3672.77	0.0021061
3684.34	0.0016561
3695.92	0.0009337
3707.49	0.0005603
3719.07	0.0003851
3730.64	0.0003204
3742.21	0.0002386
3753.79	0.00023
3765.36	0.00021
3776.94	0.0001491
3788.51	0.0001851
3800.08	0.0002095
3811.66	0.0001605
3823.23	0.0001913
3834.81	0.0001543
3846.38	0.0001989
3857.95	0.000159
3869.53	0.0001497
3881.1	0.0001834
3892.68	0.0002002
3904.25	0.0001742
3915.82	9.311e-05
3927.4	0.0001641
3938.97	0.00011472
3950.55	8.456e-05
3962.12	0.0001468
3973.69	6.119e-05
3985.27	9.891e-05
3996.84	4.1397e-05
