Infrared Spectrum: Neopentyl isothiocyanate
Formula: C 6 H 11 N S
CAS: 597-97-7
State: gas
Origin: EPA-IR VAPOR PHASE LIBRARY
1/CM	ABSORBANCE
549.8	0.00594
559.445	0.00427
569.09	0.00342
578.734	0.00287
588.379	0.00292
598.024	0.0029
607.669	0.00306
617.313	0.00228
626.958	0.00182
636.603	0.0015
646.248	0.001239
655.893	0.0010919
665.537	0.00146
675.182	0.00319
684.827	0.00616
694.472	0.0103
704.116	0.01327
713.761	0.0132
723.406	0.01382
733.051	0.01298
742.695	0.00843
752.34	0.00348
761.985	0.00187
771.63	0.0013062
781.275	0.0010185
790.919	0.0006864
800.564	0.00034391
810.209	0.0005145
819.854	0.000126
829.498	0
839.143	0.000168
848.788	0.0006288
858.433	0.00135
868.078	0.00181
877.722	0.00266
887.367	0.00602
897.012	0.01
906.657	0.00934
916.301	0.00546
925.946	0.00422
935.591	0.00394
945.236	0.00304
954.88	0.00183
964.525	0.00142
974.17	0.0012368
983.815	0.0013177
993.46	0.0011488
1003.1	0.0011671
1012.75	0.0010299
1022.39	0.00159
1032.04	0.00148
1041.68	0.0019
1051.33	0.00214
1060.97	0.00213
1070.62	0.00211
1080.26	0.00215
1089.91	0.0012464
1099.55	0.00133
1109.2	0.00146
1118.84	0.0021
1128.49	0.00266
1138.13	0.00302
1147.78	0.00225
1157.42	0.00242
1167.07	0.00322
1176.71	0.00368
1186.36	0.00488
1196	0.00802
1205.64	0.01257
1215.29	0.01162
1224.93	0.00728
1234.58	0.00746
1244.22	0.01143
1253.87	0.01076
1263.51	0.00689
1273.16	0.00491
1282.8	0.00515
1292.45	0.00608
1302.09	0.00673
1311.74	0.01066
1321.38	0.02443
1331.03	0.04107
1340.67	0.03869
1350.32	0.02243
1359.96	0.01542
1369.61	0.01895
1379.25	0.0193
1388.9	0.01702
1398.54	0.02285
1408.18	0.02011
1417.83	0.0072
1427.47	0.00627
1437.12	0.01309
1446.76	0.02533
1456.41	0.02679
1466.05	0.0186
1475.7	0.01912
1485.34	0.01657
1494.99	0.0089
1504.63	0.00416
1514.28	0.00239
1523.92	0.0017
1533.57	0.0012706
1543.21	0.0011258
1552.86	0.0010167
1562.5	0.0010123
1572.15	0.0010041
1581.79	0.0009892
1591.44	0.0010027
1601.08	0.0011093
1610.73	0.0010817
1620.37	0.0011149
1630.01	0.0012125
1639.66	0.0012026
1649.3	0.0011523
1658.95	0.0011131
1668.59	0.0010388
1678.24	0.0010421
1687.88	0.0010819
1697.53	0.0011165
1707.17	0.0012584
1716.82	0.0012438
1726.46	0.0012706
1736.11	0.0012963
1745.75	0.00134
1755.4	0.001258
1765.04	0.0012253
1774.69	0.0011379
1784.33	0.0011199
1793.98	0.0012559
1803.62	0.0012185
1813.27	0.0010335
1822.91	0.0011351
1832.55	0.0012194
1842.2	0.0012606
1851.84	0.00145
1861.49	0.00177
1871.13	0.00213
1880.78	0.00265
1890.42	0.00324
1900.07	0.00389
1909.71	0.00487
1919.36	0.00637
1929	0.00842
1938.65	0.01123
1948.29	0.01469
1957.94	0.01876
1967.58	0.02407
1977.23	0.03107
1986.87	0.04014
1996.52	0.05127
2006.16	0.06674
2015.81	0.09151
2025.45	0.13001
2035.1	0.18284
2044.74	0.24688
2054.38	0.31006
2064.03	0.35327
2073.67	0.36658
2083.32	0.34599
2092.96	0.28242
2102.61	0.17966
2112.25	0.10593
2121.9	0.076
2131.54	0.06826
2141.19	0.07393
2150.83	0.07525
2160.48	0.06185
2170.12	0.04926
2179.77	0.04917
2189.41	0.05429
2199.06	0.05768
2208.7	0.05362
2218.35	0.04192
2227.99	0.02847
2237.64	0.01924
2247.28	0.01409
2256.92	0.01072
2266.57	0.00864
2276.21	0.00733
2285.86	0.00571
2295.5	0.00427
2305.15	0.00353
2314.79	0.00305
2324.44	0.00245
2334.08	0.00209
2343.73	0.00196
2353.37	0.00171
2363.02	0.00176
2372.66	0.00179
2382.31	0.00179
2391.95	0.00187
2401.6	0.00188
2411.24	0.00172
2420.89	0.00147
2430.53	0.00137
2440.18	0.0011236
2449.82	0.0010719
2459.47	0.0011566
2469.11	0.0011654
2478.75	0.00139
2488.4	0.00147
2498.04	0.00152
2507.69	0.00165
2517.33	0.0017
2526.98	0.0018
2536.62	0.0019
2546.27	0.00203
2555.91	0.00213
2565.56	0.00234
2575.2	0.00239
2584.85	0.00272
2594.49	0.00297
2604.14	0.00289
2613.78	0.00251
2623.43	0.00216
2633.07	0.00183
2642.72	0.00181
2652.36	0.00192
2662.01	0.0019
2671.65	0.00154
2681.29	0.00143
2690.94	0.00141
2700.58	0.0015
2710.23	0.00174
2719.87	0.00195
2729.52	0.00234
2739.16	0.00286
2748.81	0.00316
2758.45	0.00368
2768.1	0.00451
2777.74	0.00544
2787.39	0.00614
2797.03	0.00646
2806.68	0.00602
2816.32	0.00554
2825.97	0.00554
2835.61	0.0062
2845.26	0.00739
2854.9	0.01102
2864.55	0.02025
2874.19	0.03174
2883.84	0.03372
2893.48	0.02997
2903.12	0.02991
2912.77	0.03396
2922.41	0.04229
2932.06	0.05317
2941.7	0.06
2951.35	0.06876
2960.99	0.08725
2970.64	0.10658
2980.28	0.08037
2989.93	0.02886
2999.57	0.00925
3009.22	0.00539
3018.86	0.00377
3028.51	0.00254
3038.15	0.00182
3047.8	0.00166
3057.44	0.00165
3067.09	0.00183
3076.73	0.00184
3086.38	0.00204
3096.02	0.00219
3105.67	0.00199
3115.31	0.00167
3124.95	0.00156
3134.6	0.00148
3144.24	0.00154
3153.89	0.00148
3163.53	0.00145
3173.18	0.001329
3182.82	0.00157
3192.47	0.00143
3202.11	0.00158
3211.76	0.00155
3221.4	0.00148
3231.05	0.0010177
3240.69	0.000781
3250.34	0.0005955
3259.98	0.0006854
3269.63	0.0004895
3279.27	0.00042208
3288.92	0.0006406
3298.56	0.0006621
3308.21	0.0006949
3317.85	0.00039015
3327.49	0.00036438
3337.14	0.0005237
3346.78	0.0005606
3356.43	0.0007519
3366.07	0.0007075
3375.72	0.0007161
3385.36	0.0005192
3395.01	0.0005501
3404.65	0.0005587
3414.3	0.0004611
3423.94	0.0002558
3433.59	0.0002605
3443.23	0.00042439
3452.88	0.0005194
3462.52	0.0003459
3472.17	0.0005273
3481.81	0.0004716
3491.46	0.000142
3501.1	0.0002734
3510.75	0.000207
3520.39	0.0003718
3530.04	0.00035833
3539.68	0.000107
3549.32	0.00039006
3558.97	0.0004564
3568.61	0.0002978
3578.26	0.0003135
3587.9	0.000455
3597.55	0.0002305
3607.19	0.0005381
3616.84	0.0004822
3626.48	0.00036995
3636.13	0.0002457
3645.77	0.0005769
3655.42	0.00032856
3665.06	0.0004378
3674.71	0.00040533
3684.35	0.0004807
3694	0.0004537
3703.64	0.00042747
3713.29	0.0005281
3722.93	0.00039554
3732.58	0.000447
3742.22	0.0003069
3751.86	0.0005917
3761.51	0.0005408
3771.15	0.00055
3780.8	0.0003152
3790.44	0.0006872
3800.09	0.000609
3809.73	0.0008587
3819.38	0.0005856
3829.02	0.0007604
3838.67	0.00041322
3848.31	0.0006727
3857.96	0.0007241
3867.6	0.0009367
3877.25	0.0006736
3886.89	0.0010593
3896.54	0.0007761
3906.18	0.0007329
3915.83	0.0007839
3925.47	0.0009349
3935.12	0.0010085
3944.76	0.0009919
3954.41	0.0010401
3964.05	0.0010061
3973.69	0.0011846
3983.34	0.0012168
3992.98	0.0012725
