Infrared Spectrum: Tri-p-tolyl thiophosphate
Formula: C 21 H 21 O 3 P S
CAS: 597-84-2
State: gas
Origin: EPA-IR VAPOR PHASE LIBRARY
1/CM	ABSORBANCE
549.8	0.00731
559.445	0.00331
569.09	0.0019
578.734	0.00156
588.379	0.00126
598.024	0.00225
607.669	0.00349
617.313	0.00337
626.958	0.0028
636.603	0.00353
646.248	0.00398
655.893	0.00381
665.537	0.00385
675.182	0.00544
684.827	0.0112
694.472	0.01625
704.116	0.01042
713.761	0.00591
723.406	0.00418
733.051	0.00576
742.695	0.01332
752.34	0.0361
761.985	0.0127
771.63	0.00553
781.275	0.00526
790.919	0.00807
800.564	0.01519
810.209	0.03122
819.854	0.05164
829.498	0.05825
839.143	0.0524
848.788	0.01771
858.433	0.01074
868.078	0.0096
877.722	0.01116
887.367	0.01423
897.012	0.02099
906.657	0.03751
916.301	0.08604
925.946	0.17089
935.591	0.22835
945.236	0.281
954.88	0.19041
964.525	0.09731
974.17	0.04774
983.815	0.02677
993.46	0.01674
1003.1	0.01269
1012.75	0.01966
1022.39	0.02279
1032.04	0.00728
1041.68	0.00599
1051.33	0.00507
1060.97	0.00397
1070.62	0.00374
1080.26	0.00379
1089.91	0.00452
1099.55	0.00684
1109.2	0.00697
1118.84	0.00657
1128.49	0.00629
1138.13	0.00832
1147.78	0.01686
1157.42	0.06006
1167.07	0.13717
1176.71	0.04889
1186.36	0.14733
1196	0.32199
1205.64	0.14969
1215.29	0.07915
1224.93	0.05247
1234.58	0.03981
1244.22	0.02261
1253.87	0.01401
1263.51	0.01024
1273.16	0.00815
1282.8	0.0067
1292.45	0.00581
1302.09	0.00571
1311.74	0.0052
1321.38	0.00455
1331.03	0.00422
1340.67	0.00407
1350.32	0.00396
1359.96	0.00411
1369.61	0.0042
1379.25	0.00473
1388.9	0.00522
1398.54	0.0047
1408.18	0.0054
1417.83	0.00605
1427.47	0.00594
1437.12	0.00574
1446.76	0.00593
1456.41	0.00696
1466.05	0.00864
1475.7	0.01144
1485.34	0.02138
1494.99	0.08137
1504.63	0.23364
1514.28	0.08841
1523.92	0.02659
1533.57	0.01165
1543.21	0.0074
1552.86	0.00589
1562.5	0.00531
1572.15	0.0056
1581.79	0.00781
1591.44	0.01269
1601.08	0.01789
1610.73	0.01647
1620.37	0.0091
1630.01	0.007
1639.66	0.00567
1649.3	0.00407
1658.95	0.00286
1668.59	0.00196
1678.24	0.00162
1687.88	0.00141
1697.53	0.00121
1707.17	0.00121
1716.82	0.00128
1726.46	0.00153
1736.11	0.00196
1745.75	0.00254
1755.4	0.00339
1765.04	0.0041
1774.69	0.00279
1784.33	0.00208
1793.98	0.00171
1803.62	0.00179
1813.27	0.00162
1822.91	0.00142
1832.55	0.00149
1842.2	0.00182
1851.84	0.00259
1861.49	0.00374
1871.13	0.00533
1880.78	0.00561
1890.42	0.00444
1900.07	0.00358
1909.71	0.00293
1919.36	0.00246
1929	0.00203
1938.65	0.00162
1948.29	0.0013
1957.94	0.0011
1967.58	0.00107
1977.23	0.00112
1986.87	0.00118
1996.52	0.00142
2006.16	0.00122
2015.81	0.00109
2025.45	0.00135
2035.1	0.00127
2044.74	0.00111
2054.38	0.0009294
2064.03	0.0007788
2073.67	0.0007088
2083.32	0.000634
2092.96	0.000565
2102.61	0.000501
2112.25	0.000547
2121.9	0.0005035
2131.54	0.0003466
2141.19	0.0004029
2150.83	0.0003323
2160.48	0.0003464
2170.12	0.0003672
2179.77	0.0003772
2189.41	0.000555
2199.06	0.0005357
2208.7	0.000537
2218.35	0.0004556
2227.99	0.0003339
2237.64	0.0003968
2247.28	0.0003675
2256.92	0.0003989
2266.57	0.0003723
2276.21	0.0006058
2285.86	0.0005969
2295.5	0.000688
2305.15	0.0008512
2314.79	0.00105
2324.44	0.00102
2334.08	0.0009932
2343.73	0.000881
2353.37	0.00101
2363.02	0.00116
2372.66	0.00103
2382.31	0.00113
2391.95	0.00136
2401.6	0.00126
2411.24	0.0011
2420.89	0.00117
2430.53	0.00103
2440.18	0.0008539
2449.82	0.0007022
2459.47	0.0006563
2469.11	0.0005269
2478.75	0.0005379
2488.4	0.0004418
2498.04	0.0005126
2507.69	0.0005131
2517.33	0.0005203
2526.98	0.0005468
2536.62	0.0005847
2546.27	0.0006133
2555.91	0.0005612
2565.56	0.0006984
2575.2	0.0006755
2584.85	0.0006904
2594.49	0.0006082
2604.14	0.0004925
2613.78	0.0003148
2623.43	0.0002821
2633.07	0.0002391
2642.72	0.0003128
2652.36	0.0003022
2662.01	0.0003532
2671.65	0.0004205
2681.29	0.0003465
2690.94	0.0004313
2700.58	0.0004849
2710.23	0.0005786
2719.87	0.0006147
2729.52	0.0007082
2739.16	0.00119
2748.81	0.00151
2758.45	0.0007443
2768.1	0.0005477
2777.74	0.0006214
2787.39	0.0006941
2797.03	0.0008771
2806.68	0.0008876
2816.32	0.00104
2825.97	0.00129
2835.61	0.00182
2845.26	0.00273
2854.9	0.00456
2864.55	0.00763
2874.19	0.01243
2883.84	0.01272
2893.48	0.01021
2903.12	0.00952
2912.77	0.01078
2922.41	0.01572
2932.06	0.02598
2941.7	0.02128
2951.35	0.01013
2960.99	0.00685
2970.64	0.00592
2980.28	0.00634
2989.93	0.00838
2999.57	0.01047
3009.22	0.01159
3018.86	0.01211
3028.51	0.01754
3038.15	0.02842
3047.8	0.01843
3057.44	0.01039
3067.09	0.00731
3076.73	0.00584
3086.38	0.00437
3096.02	0.00403
3105.67	0.00381
3115.31	0.00309
3124.95	0.00231
3134.6	0.00124
3144.24	0.0008354
3153.89	0.0005854
3163.53	0.000595
3173.18	0.0004688
3182.82	0.0005405
3192.47	0.0005385
3202.11	0.0003733
3211.76	0.0004091
3221.4	0.0004117
3231.05	0.0002405
3240.69	0.0002482
3250.34	0.0001935
3259.98	0.0002068
3269.63	0.0003133
3279.27	0.0001984
3288.92	0.0002639
3298.56	9.239e-05
3308.21	0.0002107
3317.85	0.0002306
3327.49	0.0001496
3337.14	0.0002146
3346.78	0.0002686
3356.43	0.0002905
3366.07	0.0002287
3375.72	0.0001802
3385.36	0.0002559
3395.01	0.0001475
3404.65	0.0001122
3414.3	0.0002152
3423.94	0.0001894
3433.59	0.0001314
3443.23	0.0001578
3452.88	0.0003014
3462.52	0.000207
3472.17	0.0002658
3481.81	0.0001833
3491.46	0.0001991
3501.1	0.0001131
3510.75	0.0001251
3520.39	0.0001939
3530.04	5.17e-05
3539.68	0.000178
3549.32	9.873e-05
3558.97	0.0002136
3568.61	0.0001892
3578.26	0.0002105
3587.9	0.0002037
3597.55	0.000149
3607.19	0.0001331
3616.84	0.0001445
3626.48	9.029e-05
3636.13	0.0001011
3645.77	1.463e-05
3655.42	0.0001756
3665.06	7.724e-05
3674.71	0.0003501
3684.35	0.0004217
3694	0.0002404
3703.64	0.000184
3713.29	0.0004241
3722.93	0.0001812
3732.58	0.0001341
3742.22	0.000256
3751.86	0.000351
3761.51	0.0002454
3771.15	0.0001546
3780.8	0.0001906
3790.44	0.000235
3800.09	0.000239
3809.73	0.0001765
3819.38	0.0002449
3829.02	0.0003
3838.67	0.0001813
3848.31	0.0001988
3857.96	0.0002791
3867.6	0.0003333
3877.25	0.0002615
3886.89	0.0001427
3896.54	0.0002359
3906.18	0.0004092
3915.83	0.0003338
3925.47	0.0002804
3935.12	0.0002032
3944.76	0.0001759
3954.41	0.0004237
3964.05	0.0002978
3973.69	0.0004401
3983.34	0.000242
3992.98	0.0003699
