Infrared Spectrum: Pentaerythritol tetraacetate
Formula: C 13 H 20 O 8
CAS: 597-71-7
State: gas
Origin: EPA-IR VAPOR PHASE LIBRARY
1/CM	ABSORBANCE
549.8	0.002189
559.445	0.001839
569.09	0.002889
578.734	0.003439
588.379	0.005239
598.024	0.011459
607.669	0.011979
617.313	0.007599
626.958	0.009519
636.603	0.014709
646.248	0.011849
655.893	0.007229
665.537	0.004079
675.182	0.002329
684.827	0.001459
694.472	0.0009674
704.116	0.0008875
713.761	0.0006747
723.406	0.0006024
733.051	0.0006397
742.695	0.0007122
752.34	0.0007401
761.985	0.0010151
771.63	0.001289
781.275	0.001769
790.919	0.002359
800.564	0.003089
810.209	0.004359
819.854	0.006949
829.498	0.011649
839.143	0.016049
848.788	0.016589
858.433	0.016349
868.078	0.016489
877.722	0.017689
887.367	0.019919
897.012	0.020689
906.657	0.018659
916.301	0.016189
925.946	0.013689
935.591	0.010359
945.236	0.008719
954.88	0.009859
964.525	0.011609
974.17	0.015799
983.815	0.019929
993.46	0.019919
1003.1	0.026639
1012.75	0.046849
1022.39	0.089779
1032.04	0.137689
1041.68	0.160189
1051.33	0.136499
1060.97	0.084859
1070.62	0.059449
1080.26	0.048839
1089.91	0.040129
1099.55	0.030799
1109.2	0.022599
1118.84	0.016909
1128.49	0.014729
1138.13	0.015439
1147.78	0.018139
1157.42	0.022159
1167.07	0.028849
1176.71	0.042059
1186.36	0.070359
1196	0.135189
1205.64	0.305979
1215.29	0.617729
1224.93	0.578889
1234.58	0.287499
1244.22	0.162769
1253.87	0.102489
1263.51	0.067769
1273.16	0.048459
1282.8	0.034639
1292.45	0.024229
1302.09	0.017499
1311.74	0.013349
1321.38	0.011189
1331.03	0.010689
1340.67	0.012259
1350.32	0.019459
1359.96	0.048079
1369.61	0.093409
1379.25	0.087359
1388.9	0.082279
1398.54	0.039669
1408.18	0.023909
1417.83	0.017099
1427.47	0.015759
1437.12	0.015999
1446.76	0.016019
1456.41	0.018799
1466.05	0.028239
1475.7	0.028679
1485.34	0.015789
1494.99	0.010589
1504.63	0.008879
1514.28	0.007859
1523.92	0.007189
1533.57	0.006439
1543.21	0.005909
1552.86	0.005449
1562.5	0.005079
1572.15	0.004709
1581.79	0.004389
1591.44	0.004199
1601.08	0.004319
1610.73	0.004699
1620.37	0.005189
1630.01	0.005659
1639.66	0.005819
1649.3	0.006119
1658.95	0.006189
1668.59	0.006369
1678.24	0.006929
1687.88	0.008179
1697.53	0.010709
1707.17	0.014829
1716.82	0.022369
1726.46	0.034459
1736.11	0.051139
1745.75	0.087449
1755.4	0.175289
1765.04	0.402539
1774.69	0.302309
1784.33	0.123449
1793.98	0.066369
1803.62	0.038299
1813.27	0.024499
1822.91	0.016059
1832.55	0.010549
1842.2	0.007179
1851.84	0.005429
1861.49	0.004669
1871.13	0.004279
1880.78	0.003979
1890.42	0.003609
1900.07	0.003159
1909.71	0.002809
1919.36	0.002639
1929	0.002559
1938.65	0.002529
1948.29	0.002609
1957.94	0.002619
1967.58	0.002519
1977.23	0.002419
1986.87	0.002319
1996.52	0.002389
2006.16	0.002529
2015.81	0.002699
2025.45	0.002749
2035.1	0.002939
2044.74	0.003059
2054.38	0.003099
2064.03	0.002979
2073.67	0.002719
2083.32	0.002739
2092.96	0.002759
2102.61	0.002779
2112.25	0.002879
2121.9	0.002779
2131.54	0.002649
2141.19	0.002439
2150.83	0.002139
2160.48	0.001859
2170.12	0.001539
2179.77	0.001439
2189.41	0.001239
2199.06	0.001129
2208.7	0.001019
2218.35	0.0009815
2227.99	0.0009839
2237.64	0.0009207
2247.28	0.0009345
2256.92	0.0008384
2266.57	0.0008014
2276.21	0.0008141
2285.86	0.0007618
2295.5	0.0006742
2305.15	0.000641
2314.79	0.0005978
2324.44	0.0006209
2334.08	0.0007017
2343.73	0.0008934
2353.37	0.0008893
2363.02	0.0008591
2372.66	0.000742
2382.31	0.000702
2391.95	0.0007068
2401.6	0.0009802
2411.24	0.001159
2420.89	0.001229
2430.53	0.001369
2440.18	0.001269
2449.82	0.001169
2459.47	0.001069
2469.11	0.0010086
2478.75	0.0008045
2488.4	0.0006643
2498.04	0.0005098
2507.69	0.0004305
2517.33	0.0003312
2526.98	0.0002834
2536.62	0.0001823
2546.27	0.0003115
2555.91	0.0002971
2565.56	0.0003741
2575.2	0.0005376
2584.85	0.0005173
2594.49	0.0005344
2604.14	0.0005389
2613.78	0.0005377
2623.43	0.0005728
2633.07	0.0005193
2642.72	0.0004753
2652.36	0.0005488
2662.01	0.0005785
2671.65	0.0005299
2681.29	0.0004771
2690.94	0.0004922
2700.58	0.0005083
2710.23	0.0004811
2719.87	0.0006802
2729.52	0.0009172
2739.16	0.001129
2748.81	0.001199
2758.45	0.001119
2768.1	0.0009711
2777.74	0.0009043
2787.39	0.0009474
2797.03	0.001079
2806.68	0.0010114
2816.32	0.001099
2825.97	0.001209
2835.61	0.001529
2845.26	0.001879
2854.9	0.002369
2864.55	0.002589
2874.19	0.002809
2883.84	0.003939
2893.48	0.006639
2903.12	0.010729
2912.77	0.010709
2922.41	0.008899
2932.06	0.010029
2941.7	0.014169
2951.35	0.020399
2960.99	0.023039
2970.64	0.024389
2980.28	0.020469
2989.93	0.016659
2999.57	0.011979
3009.22	0.008449
3018.86	0.006639
3028.51	0.006269
3038.15	0.005479
3047.8	0.004569
3057.44	0.004139
3067.09	0.003789
3076.73	0.003509
3086.38	0.002969
3096.02	0.002429
3105.67	0.001889
3115.31	0.001699
3124.95	0.001349
3134.6	0.001169
3144.24	0.0008802
3153.89	0.0007212
3163.53	0.0006069
3173.18	0.0004262
3182.82	0.0004459
3192.47	0.0003984
3202.11	0.0002722
3211.76	0.0002575
3221.4	0.0001754
3231.05	0.0003025
3240.69	0.0002279
3250.34	0.000264
3259.98	0.0003492
3269.63	0.0002575
3279.27	0.0001383
3288.92	0.0002295
3298.56	0.0002107
3308.21	0.0001969
3317.85	0.000275
3327.49	0.0002991
3337.14	0.0002251
3346.78	0.000336
3356.43	0.000192
3366.07	0.0004149
3375.72	0.00010818
3385.36	0.0003402
3395.01	0.0003179
3404.65	0.0003395
3414.3	0.0003918
3423.94	0.0004337
3433.59	0.0002886
3443.23	0.0004809
3452.88	0.0005063
3462.52	0.0005828
3472.17	0.0009091
3481.81	0.001079
3491.46	0.001599
3501.1	0.002569
3510.75	0.004079
3520.39	0.003909
3530.04	0.002439
3539.68	0.001759
3549.32	0.001339
3558.97	0.0007865
3568.61	0.0007097
3578.26	0.0005032
3587.9	0.000451
3597.55	0.0002884
3607.19	0.0004129
3616.84	0.000368
3626.48	0.0004103
3636.13	0.0003857
3645.77	0.0001529
3655.42	0.0003046
3665.06	0.0002929
3674.71	0.0001757
3684.35	0.0002301
3694	0.0002103
3703.64	0.0001809
3713.29	0.0002565
3722.93	0.0001552
3732.58	0.0002302
3742.22	0.0002547
3751.86	0.0002113
3761.51	0.0003509
3771.15	7.521e-05
3780.8	3.01e-05
3790.44	0.0002936
3800.09	0.0001748
3809.73	0.0002245
3819.38	0.0004256
3829.02	0.0002879
3838.67	0.000334
3848.31	0.0003723
3857.96	0.0002648
3867.6	0.0003307
3877.25	0.0003387
3886.89	0.0004512
3896.54	0.0004223
3906.18	0.0003972
3915.83	0.0004903
3925.47	0.0004782
3935.12	0.0005149
3944.76	0.0004592
3954.41	0.0005082
3964.05	0.0005906
3973.69	0.0005167
3983.34	0.0007893
3992.98	0.0007055
