Infrared Spectrum: 5-Methyl-4-octanol
Formula: C 9 H 20 O
CAS: 59734-23-5
State: gas
Instrument: HP-GC/MS/IRD
Origin: NIST Mass Spectrometry Data Center
1/CM	ABSORBANCE
550	0.0005363
562	9.61e-05
574	6.51e-05
586	4.65e-05
598	4.96e-05
610	0.0001116
622	0.0001333
634	0.0001674
646	0.0001302
658	7.13e-05
670	6.2e-06
682	6.2e-05
694	6.2e-05
706	0.0001054
718	0.0001736
730	0.0003131
742	0.0005549
754	0.0005239
766	0.0003565
778	0.0002604
790	0.0003255
802	0.0003255
814	0.0003813
826	0.0005642
838	0.0006944
850	0.00093
862	0.0008587
874	0.0007316
886	0.000744
898	0.0008866
910	0.0008897
922	0.0011191
934	0.0012276
946	0.0012369
958	0.0022227
970	0.0035619
982	0.0035712
994	0.0034224
1006	0.0037262
1018	0.0033604
1030	0.0023684
1042	0.0019685
1054	0.0022382
1066	0.0024335
1078	0.0024428
1090	0.0024955
1102	0.002573
1114	0.0024831
1126	0.0023839
1138	0.0023653
1150	0.0021018
1162	0.0015407
1174	0.0011687
1186	0.0012214
1198	0.0016151
1210	0.0019344
1222	0.0019964
1234	0.0019158
1246	0.0019437
1258	0.0020026
1270	0.0019995
1282	0.0017732
1294	0.0015097
1306	0.0013888
1318	0.0013547
1330	0.0014291
1342	0.0016306
1354	0.0019003
1366	0.0025451
1378	0.0037944
1390	0.0037634
1402	0.0021576
1414	0.0014012
1426	0.0013268
1438	0.0017825
1450	0.0029574
1462	0.004216
1474	0.00341
1486	0.0016027
1498	0.0008277
1510	0.0005704
1522	0.0004495
1534	0.000372
1546	0.00031
1558	0.0002666
1570	0.0001984
1582	0.0001674
1594	0.0001612
1606	0.0001457
1618	0.0001457
1630	0.0001147
1642	0.0001085
1654	0.0001302
1666	0.0001147
1678	6.82e-05
1690	5.58e-05
1702	8.68e-05
1714	6.82e-05
1726	2.79e-05
1738	5.89e-05
1750	3.72e-05
1762	3.1e-05
1774	1.24e-05
1786	9.3e-06
1798	2.48e-05
1810	2.17e-05
1822	3.1e-05
1834	2.17e-05
1846	2.79e-05
1858	1.24e-05
1870	1.55e-05
1882	1.24e-05
1894	1.24e-05
1906	2.17e-05
1918	2.79e-05
1930	0
1942	2.48e-05
1954	9.3e-06
1966	2.48e-05
1978	4.34e-05
1990	3.72e-05
2002	0
2014	1.24e-05
2026	2.79e-05
2038	3.1e-05
2050	9.3e-06
2062	1.55e-05
2074	6.2e-06
2086	6.2e-06
2098	3.1e-06
2110	1.55e-05
2122	1.24e-05
2134	1.24e-05
2146	1.24e-05
2158	1.86e-05
2170	1.55e-05
2182	3.72e-05
2194	2.48e-05
2206	2.79e-05
2218	1.55e-05
2230	1.86e-05
2242	2.79e-05
2254	1.55e-05
2266	9.3e-06
2278	3.1e-05
2290	4.03e-05
2302	3.1e-06
2314	1.86e-05
2326	0
2338	0
2350	3.72e-05
2362	0
2374	5.58e-05
2386	7.44e-05
2398	8.99e-05
2410	8.37e-05
2422	7.75e-05
2434	7.75e-05
2446	4.96e-05
2458	5.27e-05
2470	6.51e-05
2482	6.51e-05
2494	8.06e-05
2506	8.37e-05
2518	0.0001116
2530	0.000124
2542	0.0001178
2554	0.0001364
2566	0.0001891
2578	0.0002325
2590	0.0002635
2602	0.0002976
2614	0.0003224
2626	0.0003255
2638	0.0003534
2650	0.0003844
2662	0.0004154
2674	0.0004402
2686	0.0004805
2698	0.0005115
2710	0.0005673
2722	0.0005983
2734	0.0007254
2746	0.0008184
2758	0.0007936
2770	0.0008215
2782	0.0009362
2794	0.0011191
2806	0.0014043
2818	0.0017825
2830	0.0024397
2842	0.0038905
2854	0.0067115
2866	0.0105493
2878	0.0152954
2890	0.0153016
2902	0.0135315
2914	0.0159929
2926	0.0204166
2938	0.0244435
2950	0.0231198
2962	0.0287091
2974	0.0271808
2986	0.0112623
2998	0.0047678
3010	0.0028644
3022	0.0020677
3034	0.0016213
3046	0.0012617
3058	0.0009703
3070	0.0008525
3082	0.0007595
3094	0.0006634
3106	0.0005704
3118	0.0005177
3130	0.0004712
3142	0.0004247
3154	0.0004061
3166	0.0004061
3178	0.0003658
3190	0.0003131
3202	0.0002387
3214	0.0001798
3226	0.0001302
3238	0.0001395
3250	9.3e-05
3262	7.44e-05
3274	6.2e-05
3286	6.82e-05
3298	4.34e-05
3310	4.34e-05
3322	3.72e-05
3334	8.06e-05
3346	3.1e-05
3358	6.2e-05
3370	5.58e-05
3382	2.79e-05
3394	4.34e-05
3406	8.68e-05
3418	8.37e-05
3430	7.13e-05
3442	6.2e-05
3454	8.37e-05
3466	4.65e-05
3478	3.41e-05
3490	6.2e-05
3502	4.65e-05
3514	4.65e-05
3526	5.89e-05
3538	3.1e-06
3550	3.41e-05
3562	3.1e-05
3574	5.27e-05
3586	2.48e-05
3598	5.58e-05
3610	0.0001581
3622	0.00031
3634	0.000589
3646	0.0011687
3658	0.0015376
3670	0.0009424
3682	0.0003565
3694	0.0001705
3706	9.3e-05
3718	0.0001209
3730	8.99e-05
3742	9.92e-05
3754	7.75e-05
3766	9.92e-05
3778	9.61e-05
3790	0.0001271
3802	0.0001426
3814	9.61e-05
3826	0.0001054
3838	0.0001798
