Infrared Spectrum: 4-Bromo-2-chlorobenzoic acid
Formula: C 7 H 4 Br Cl O 2
CAS: 59748-90-2
State: gas
Origin: EPA-IR VAPOR PHASE LIBRARY
1/CM	ABSORBANCE
549.8	0.032176
559.445	0.032806
569.09	0.029936
578.734	0.029526
588.379	0.021516
598.024	0.015686
607.669	0.012126
617.313	0.008156
626.958	0.006946
636.603	0.006876
646.248	0.014626
655.893	0.024366
665.537	0.009536
675.182	0.011116
684.827	0.020576
694.472	0.031216
704.116	0.033216
713.761	0.014266
723.406	0.006216
733.051	0.004186
742.695	0.005736
752.34	0.010626
761.985	0.023686
771.63	0.036286
781.275	0.026656
790.919	0.025026
800.564	0.057356
810.209	0.109216
819.854	0.042546
829.498	0.024996
839.143	0.014846
848.788	0.007906
858.433	0.008616
868.078	0.015726
877.722	0.013936
887.367	0.005926
897.012	0.003576
906.657	0.002636
916.301	0.002596
925.946	0.002886
935.591	0.002496
945.236	0.002546
954.88	0.002446
964.525	0.002716
974.17	0.002716
983.815	0.003576
993.46	0.004186
1003.1	0.005296
1012.75	0.009056
1022.39	0.018256
1032.04	0.051406
1041.68	0.091376
1051.33	0.052676
1060.97	0.031406
1070.62	0.046006
1080.26	0.092626
1089.91	0.106206
1099.55	0.107126
1109.2	0.125496
1118.84	0.056856
1128.49	0.035876
1138.13	0.035966
1147.78	0.039556
1157.42	0.032406
1167.07	0.051076
1176.71	0.097266
1186.36	0.098796
1196	0.049336
1205.64	0.026686
1215.29	0.019446
1224.93	0.016066
1234.58	0.015646
1244.22	0.015886
1253.87	0.017016
1263.51	0.020246
1273.16	0.022526
1282.8	0.023196
1292.45	0.025536
1302.09	0.032406
1311.74	0.044086
1321.38	0.055906
1331.03	0.050926
1340.67	0.034856
1350.32	0.032786
1359.96	0.045976
1369.61	0.054246
1379.25	0.058586
1388.9	0.050246
1398.54	0.031086
1408.18	0.014156
1417.83	0.010066
1427.47	0.009956
1437.12	0.009386
1446.76	0.009736
1456.41	0.014596
1466.05	0.029176
1475.7	0.035336
1485.34	0.012096
1494.99	0.005466
1504.63	0.005326
1514.28	0.006916
1523.92	0.008646
1533.57	0.012356
1543.21	0.021876
1552.86	0.029246
1562.5	0.028756
1572.15	0.072496
1581.79	0.149576
1591.44	0.059506
1601.08	0.014326
1610.73	0.008186
1620.37	0.006286
1630.01	0.005116
1639.66	0.004006
1649.3	0.003666
1658.95	0.003806
1668.59	0.003906
1678.24	0.004146
1687.88	0.005066
1697.53	0.007206
1707.17	0.011116
1716.82	0.018916
1726.46	0.032406
1736.11	0.053326
1745.75	0.098706
1755.4	0.165856
1765.04	0.199626
1774.69	0.229606
1784.33	0.102266
1793.98	0.060996
1803.62	0.036686
1813.27	0.017676
1822.91	0.009416
1832.55	0.006056
1842.2	0.004276
1851.84	0.003266
1861.49	0.002736
1871.13	0.002566
1880.78	0.002586
1890.42	0.002786
1900.07	0.003266
1909.71	0.003546
1919.36	0.002776
1929	0.001936
1938.65	0.001466
1948.29	0.001596
1957.94	0.001526
1967.58	0.001376
1977.23	0.001526
1986.87	0.001656
1996.52	0.001466
2006.16	0.001171
2015.81	0.0009831
2025.45	0.0007527
2035.1	0.0006214
2044.74	0.0006065
2054.38	0.0008366
2064.03	0.000833
2073.67	0.0008725
2083.32	0.0009647
2092.96	0.0008615
2102.61	0.0008821
2112.25	0.0009152
2121.9	0.0011312
2131.54	0.0010612
2141.19	0.0010606
2150.83	0.0011533
2160.48	0.0010051
2170.12	0.0010031
2179.77	0.0010652
2189.41	0.000966
2199.06	0.0011202
2208.7	0.0012806
2218.35	0.0010958
2227.99	0.0012119
2237.64	0.001041
2247.28	0.0008212
2256.92	0.0009831
2266.57	0.0010253
2276.21	0.0010269
2285.86	0.0010954
2295.5	0.0011876
2305.15	0.001021
2314.79	0.0012091
2324.44	0.0012569
2334.08	0.001386
2343.73	0.001636
2353.37	0.001716
2363.02	0.001746
2372.66	0.001546
2382.31	0.001296
2391.95	0.0011039
2401.6	0.0011578
2411.24	0.0012146
2420.89	0.0010883
2430.53	0.0011834
2440.18	0.0011715
2449.82	0.0011541
2459.47	0.0009782
2469.11	0.0010861
2478.75	0.0009684
2488.4	0.0010251
2498.04	0.0012176
2507.69	0.0012486
2517.33	0.001486
2526.98	0.001446
2536.62	0.0012532
2546.27	0.0012251
2555.91	0.0010685
2565.56	0.0009418
2575.2	0.0007255
2584.85	0.0006861
2594.49	0.0006172
2604.14	0.0006705
2613.78	0.0011625
2623.43	0.0009732
2633.07	0.001035
2642.72	0.000967
2652.36	0.0009863
2662.01	0.0009318
2671.65	0.0008642
2681.29	0.0009898
2690.94	0.0008078
2700.58	0.0006197
2710.23	0.0007747
2719.87	0.0008201
2729.52	0.0007133
2739.16	0.0005937
2748.81	0.0005744
2758.45	0.0007089
2768.1	0.0008003
2777.74	0.0007125
2787.39	0.0008349
2797.03	0.0007833
2806.68	0.0009219
2816.32	0.0010635
2825.97	0.0006572
2835.61	0.0007501
2845.26	0.0007269
2854.9	0.000971
2864.55	0.0009475
2874.19	0.0009193
2883.84	0.0008653
2893.48	0.0008114
2903.12	0.0007173
2912.77	0.000886
2922.41	0.0005188
2932.06	0.000868
2941.7	0.0009165
2951.35	0.0008649
2960.99	0.000868
2970.64	0.0008318
2980.28	0.0009296
2989.93	0.0011427
2999.57	0.0010013
3009.22	0.0012562
3018.86	0.001346
3028.51	0.0011352
3038.15	0.0010175
3047.8	0.0012239
3057.44	0.0008421
3067.09	0.0012532
3076.73	0.001776
3086.38	0.002166
3096.02	0.001556
3105.67	0.001366
3115.31	0.0012361
3124.95	0.0007222
3134.6	0.0008399
3144.24	0.0009709
3153.89	0.0009017
3163.53	0.0006746
3173.18	0.0007931
3182.82	0.0006185
3192.47	0.00032643
3202.11	0.0004444
3211.76	0.00031509
3221.4	0.0002405
3231.05	0.00038347
3240.69	0.0003923
3250.34	0.0004675
3259.98	0.0004702
3269.63	0.00031929
3279.27	0.0005428
3288.92	0.0002666
3298.56	0.00038251
3308.21	0.0004046
3317.85	0.0004704
3327.49	0.000555
3337.14	0.0004151
3346.78	0.0006308
3356.43	0.0004458
3366.07	0.0004785
3375.72	0.00028414
3385.36	0.000451
3395.01	0.0007258
3404.65	0.0006657
3414.3	0.0005978
3423.94	0.000592
3433.59	0.0004566
3443.23	0.0007679
3452.88	0.000848
3462.52	0.0012209
3472.17	0.0011352
3481.81	0.001636
3491.46	0.002416
3501.1	0.003236
3510.75	0.003326
3520.39	0.004276
3530.04	0.006066
3539.68	0.007156
3549.32	0.009656
3558.97	0.033186
3568.61	0.113426
3578.26	0.075006
3587.9	0.025486
3597.55	0.005386
3607.19	0.002936
3616.84	0.002856
3626.48	0.002046
3636.13	0.001456
3645.77	0.001386
3655.42	0.0009348
3665.06	0.0007316
3674.71	0.0004468
3684.35	0.0009945
3694	0.0007152
3703.64	0.0006141
3713.29	0.0006618
3722.93	0.0008658
3732.58	0.0005699
3742.22	0.0007349
3751.86	0.0007849
3761.51	0.0004025
3771.15	0.0004291
3780.8	0.0005683
3790.44	0.0004905
3800.09	0.0003889
3809.73	0.0004732
3819.38	0.0005427
3829.02	0.000217
3838.67	0.000533
3848.31	5.6e-05
3857.96	0.000452
3867.6	0.0006494
3877.25	0.0006071
3886.89	0.0008928
3896.54	0.0006157
3906.18	0.0008148
3915.83	0.0009056
3925.47	0.00029934
3935.12	0.00036083
3944.76	0.0004691
3954.41	0.00035603
3964.05	0.0007072
3973.69	0.0005715
3983.34	0.00035674
3992.98	0.0007133
