Infrared Spectrum: Fluridone
Formula: C 19 H 14 F 3 N O
CAS: 59756-60-4
State: gas
Instrument: HP-GC/MS/IRD
Origin: NIST Mass Spectrometry Data Center
1/CM	ABSORBANCE
550	5.7e-05
562	0.000147
574	3.6e-05
586	0.0001935
598	0.000525
610	0.002301
622	0.000486
634	0.000309
646	0.0005505
658	0.000561
670	0.001794
682	0.002388
694	0.003744
706	0.0017535
718	0.0004575
730	0.000303
742	0.0007335
754	0.0012375
766	0.000597
778	0.0003675
790	0.0007515
802	0.0017895
814	0.000771
826	0.0004065
838	0.0004515
850	0.000375
862	0.000225
874	0.0004185
886	0.0019725
898	0.000876
910	0.000624
922	0.000972
934	0.000249
946	7.35e-05
958	0.0001245
970	0.000159
982	0.0001455
994	0.0001785
1006	0.000282
1018	0.0003825
1030	0.0008205
1042	0.0004875
1054	0.0010185
1066	0.0026595
1078	0.004134
1090	0.0028185
1102	0.0021915
1114	0.0021045
1126	0.004788
1138	0.012966
1150	0.010722
1162	0.007086
1174	0.009981
1186	0.0084645
1198	0.006153
1210	0.0018465
1222	0.00135
1234	0.001584
1246	0.002946
1258	0.007431
1270	0.004314
1282	0.004314
1294	0.0078645
1306	0.0066405
1318	0.00594
1330	0.0137115
1342	0.0069705
1354	0.003198
1366	0.002328
1378	0.001116
1390	0.0007905
1402	0.0009105
1414	0.0017445
1426	0.00327
1438	0.0031395
1450	0.0031545
1462	0.0029085
1474	0.0016395
1486	0.0014655
1498	0.001317
1510	0.0010395
1522	0.001002
1534	0.001002
1546	0.0014565
1558	0.0041805
1570	0.0024345
1582	0.0018585
1594	0.002478
1606	0.002673
1618	0.003819
1630	0.0060015
1642	0.0110325
1654	0.0084765
1666	0.0020805
1678	0.001188
1690	0.000939
1702	0.0005535
1714	0.000381
1726	0.0003405
1738	0.000366
1750	0.000561
1762	0.0005025
1774	0.0003345
1786	0.0002625
1798	0.0002355
1810	0.0001845
1822	0.00015
1834	0.0001575
1846	0.0001185
1858	0.0001035
1870	0.00018
1882	0.0002235
1894	0.0001815
1906	0.000102
1918	0.000117
1930	0.0001635
1942	0.0002175
1954	0.0001725
1966	7.2e-05
1978	4.35e-05
1990	2.25e-05
2002	1.5e-05
2014	1.95e-05
2026	2.7e-05
2038	4.2e-05
2050	3.45e-05
2062	1.05e-05
2074	4.5e-06
2086	2.4e-05
2098	4.2e-05
2110	4.35e-05
2122	4.95e-05
2134	1.95e-05
2146	4.95e-05
2158	3.9e-05
2170	5.4e-05
2182	3.3e-05
2194	4.8e-05
2206	4.95e-05
2218	5.7e-05
2230	4.65e-05
2242	4.35e-05
2254	5.85e-05
2266	7.5e-05
2278	4.5e-05
2290	4.65e-05
2302	3e-05
2314	3.6e-05
2326	3.9e-05
2338	4.95e-05
2350	6.3e-05
2362	9e-06
2374	4.95e-05
2386	4.95e-05
2398	6.3e-05
2410	8.7e-05
2422	8.85e-05
2434	6.75e-05
2446	7.2e-05
2458	7.5e-05
2470	4.05e-05
2482	4.05e-05
2494	4.65e-05
2506	4.8e-05
2518	5.4e-05
2530	3.9e-05
2542	7.2e-05
2554	4.8e-05
2566	6.45e-05
2578	4.05e-05
2590	4.35e-05
2602	6.9e-05
2614	7.5e-05
2626	8.4e-05
2638	5.25e-05
2650	1.8e-05
2662	3e-06
2674	3.45e-05
2686	1.65e-05
2698	4.35e-05
2710	4.65e-05
2722	2.1e-05
2734	1.5e-06
2746	6.3e-05
2758	2.1e-05
2770	3.3e-05
2782	9.45e-05
2794	9.45e-05
2806	0.0001245
2818	0.0001485
2830	0.0003435
2842	0.0004275
2854	0.0002025
2866	0.0002025
2878	0.0002115
2890	0.0003795
2902	0.0005925
2914	0.0006555
2926	0.000693
2938	0.0011115
2950	0.001812
2962	0.0011745
2974	0.000555
2986	0.000417
2998	0.000393
3010	0.00045
3022	0.000735
3034	0.001392
3046	0.001305
3058	0.0018765
3070	0.00231
3082	0.00156
3094	0.0010935
3106	0.0006165
3118	0.0003135
3130	0.000228
3142	0.000147
3154	0.000171
3166	0.000105
3178	0.000147
3190	0.000105
3202	0.000138
3214	0.0001005
3226	0.00015
3238	0.000195
3250	7.95e-05
3262	5.85e-05
3274	8.4e-05
3286	0.000132
3298	9.15e-05
3310	7.65e-05
3322	6.75e-05
3334	1.35e-05
3346	3.45e-05
3358	3.6e-05
3370	2.1e-05
3382	2.55e-05
3394	2.4e-05
3406	7.05e-05
3418	0
3430	4.65e-05
3442	6.45e-05
3454	5.1e-05
3466	6.9e-05
3478	4.95e-05
3490	0.0001185
3502	5.1e-05
3514	0.0001005
3526	4.8e-05
3538	0.0001035
3550	2.55e-05
3562	0.00012
3574	2.4e-05
3586	0.000102
3598	7.5e-05
3610	7.5e-05
3622	8.7e-05
3634	0.0001905
3646	0.000135
3658	0.000132
3670	0.0001575
3682	7.8e-05
3694	0.000138
3706	0.0001755
3718	0.0001035
3730	0.0001605
3742	0.0001365
3754	6.9e-05
3766	0.0001365
3778	0.000192
3790	0.0001365
3802	7.2e-05
3814	0.0001065
3826	0.0001425
3838	0.0001455
