Infrared Spectrum: 4-Methyl-4-heptanol
Formula: C 8 H 18 O
CAS: 598-01-6
State: gas
Instrument: HP-GC/MS/IRD
Origin: NIST Mass Spectrometry Data Center
1/CM	ABSORBANCE
550	0.0003445
562	0.000299
574	0.0002665
586	0.00026
598	0.0001495
610	0.000104
622	0.0001235
634	7.15e-05
646	9.1e-05
658	0.000117
670	0.0001105
682	0.000182
694	0.0002405
706	0.0003445
718	0.0004225
730	0.0006825
742	0.0010465
754	0.0011245
766	0.001027
778	0.0009555
790	0.000975
802	0.000923
814	0.0008255
826	0.000676
838	0.0009815
850	0.0017875
862	0.0030095
874	0.003341
886	0.0030745
898	0.0033995
910	0.0036205
922	0.0041015
934	0.0052
946	0.004381
958	0.00247
970	0.001417
982	0.0016965
994	0.0029315
1006	0.004277
1018	0.0034515
1030	0.002548
1042	0.002535
1054	0.0031265
1066	0.0036205
1078	0.0036725
1090	0.0034905
1102	0.0034515
1114	0.004472
1126	0.0065455
1138	0.008671
1150	0.010348
1162	0.010907
1174	0.009061
1186	0.00663
1198	0.004758
1210	0.003991
1222	0.004173
1234	0.0045695
1246	0.0048685
1258	0.005109
1270	0.0052
1282	0.005083
1294	0.004836
1306	0.0045565
1318	0.004381
1330	0.0042445
1342	0.0044005
1354	0.005304
1366	0.0077025
1378	0.009854
1390	0.007605
1402	0.004069
1414	0.0027755
1426	0.0028535
1438	0.004147
1450	0.006487
1462	0.0083005
1474	0.0066885
1486	0.003315
1498	0.00156
1510	0.0010205
1522	0.00078
1534	0.000663
1546	0.0005395
1558	0.00039
1570	0.000338
1582	0.000312
1594	0.000299
1606	0.0003185
1618	0.00026
1630	0.00026
1642	0.000247
1654	0.000156
1666	0.0001885
1678	0.000182
1690	0.000169
1702	0.000104
1714	7.8e-05
1726	7.15e-05
1738	4.55e-05
1750	2.6e-05
1762	3.25e-05
1774	2.6e-05
1786	6.5e-05
1798	5.85e-05
1810	4.55e-05
1822	3.9e-05
1834	4.55e-05
1846	5.2e-05
1858	6.5e-05
1870	3.25e-05
1882	3.9e-05
1894	4.55e-05
1906	3.9e-05
1918	3.9e-05
1930	5.2e-05
1942	5.85e-05
1954	1.95e-05
1966	1.3e-05
1978	1.95e-05
1990	1.3e-05
2002	3.9e-05
2014	4.55e-05
2026	3.9e-05
2038	5.85e-05
2050	7.8e-05
2062	6.5e-05
2074	5.2e-05
2086	3.25e-05
2098	5.85e-05
2110	3.25e-05
2122	4.55e-05
2134	4.55e-05
2146	1.3e-05
2158	1.95e-05
2170	5.85e-05
2182	6.5e-05
2194	5.85e-05
2206	4.55e-05
2218	3.9e-05
2230	2.6e-05
2242	5.2e-05
2254	5.2e-05
2266	5.2e-05
2278	5.2e-05
2290	5.85e-05
2302	7.15e-05
2314	0.000117
2326	9.1e-05
2338	5.85e-05
2350	9.1e-05
2362	0.0001105
2374	0.000117
2386	0.000182
2398	0.000169
2410	0.0001625
2422	0.0001365
2434	0.000104
2446	8.45e-05
2458	6.5e-05
2470	3.9e-05
2482	5.2e-05
2494	5.85e-05
2506	9.75e-05
2518	0.0001105
2530	0.000117
2542	0.00013
2554	0.0001235
2566	0.000195
2578	0.0002275
2590	0.00026
2602	0.000325
2614	0.0003445
2626	0.000377
2638	0.000416
2650	0.0004615
2662	0.000429
2674	0.0004355
2686	0.0004875
2698	0.0005525
2710	0.0006305
2722	0.0008255
2734	0.0011375
2746	0.001339
2758	0.001209
2770	0.0012025
2782	0.0013845
2794	0.001677
2806	0.0022685
2818	0.0030485
2830	0.004329
2842	0.0068835
2854	0.010192
2866	0.0142285
2878	0.0233155
2890	0.025675
2902	0.0238225
2914	0.0292955
2926	0.0360685
2938	0.0445315
2950	0.045929
2962	0.059293
2974	0.06032
2986	0.0307515
2998	0.0126945
3010	0.0064675
3022	0.004511
3034	0.0035685
3046	0.002652
3058	0.0019695
3070	0.0016315
3082	0.0013585
3094	0.0011115
3106	0.000988
3118	0.000923
3130	0.000884
3142	0.000806
3154	0.000741
3166	0.0006695
3178	0.000663
3190	0.000624
3202	0.0005005
3214	0.000416
3226	0.0003055
3238	0.000247
3250	0.000221
3262	0.000208
3274	0.0001625
3286	0.000156
3298	0.000104
3310	0.00013
3322	9.75e-05
3334	4.55e-05
3346	0.000143
3358	0.00013
3370	0.0001235
3382	0.0001495
3394	0.0001755
3406	0.0001495
3418	0.0001495
3430	0.0001885
3442	0.000169
3454	0.000221
3466	0.0001235
3478	0.00013
3490	7.8e-05
3502	0.00013
3514	7.15e-05
3526	7.8e-05
3538	2.6e-05
3550	2.6e-05
3562	6.5e-06
3574	5.85e-05
3586	0.0001105
3598	0.000117
3610	0.000273
3622	0.0009425
3634	0.0024635
3646	0.0028145
3658	0.0012935
3670	0.0004355
3682	0.000221
3694	9.75e-05
3706	9.75e-05
3718	4.55e-05
3730	0.000117
3742	0.000104
3754	7.8e-05
3766	0.000156
3778	0.00013
3790	0.000143
3802	0.0001625
3814	0.0001755
3826	0.0002015
3838	0.000156
