Infrared Spectrum: n-Butyl sulfone
Formula: C8 H18 O2 S
CAS: 598-04-9
State: SOLUTION (10% CCl4 FOR 3800-1340, 10% CS2 FOR 1340-450 CM^-^1)
Class: COBLENTZ III
Instrument: DOW KBr FOREPRISM-GRATING
Instrument parameters: BLAZED AT 3.5, 12.0, 20.0 MICRON AND CHANGED AT 5.0, 7.5, 14.9 MICRON
Sampling: TRANSMISSION
Path length: 0.011 CM, 0.011 CM
Resolution: 2
Origin: DOW CHEMICAL COMPANY
1/CM	TRANSMITTANCE
3796	0.9171
3787	0.9168
3778	0.9162
3769	0.9158
3760	0.9156
3751	0.9145
3742	0.9145
3733	0.915
3724	0.9167
3715	0.9175
3706	0.9187
3697	0.9185
3688	0.9106
3679	0.9065
3670	0.9085
3661	0.9086
3652	0.9093
3643	0.9104
3634	0.9113
3625	0.913
3616	0.9137
3607	0.9146
3598	0.915
3589	0.916
3580	0.9166
3571	0.9163
3562	0.917
3553	0.9179
3544	0.919
3535	0.9199
3526	0.9195
3517	0.9198
3508	0.9204
3499	0.9208
3490	0.9212
3481	0.9215
3472	0.922
3463	0.9223
3454	0.9224
3445	0.9223
3436	0.9223
3427	0.9222
3418	0.9216
3409	0.9207
3400	0.9199
3391	0.9189
3382	0.9184
3373	0.9177
3364	0.9172
3355	0.9168
3346	0.9165
3337	0.917
3328	0.9157
3319	0.9152
3310	0.9158
3301	0.9141
3292	0.9134
3283	0.9131
3274	0.9119
3265	0.9107
3256	0.9082
3247	0.9067
3238	0.9028
3229	0.8988
3220	0.897
3211	0.8955
3202	0.893
3193	0.8909
3184	0.8895
3175	0.8888
3166	0.8878
3157	0.8873
3148	0.8854
3139	0.8849
3130	0.8831
3121	0.8813
3112	0.8793
3103	0.8775
3094	0.8775
3085	0.8695
3076	0.8645
3067	0.8557
3058	0.8463
3049	0.8357
3040	0.8292
3031	0.8126
3022	0.7866
3013	0.7483
3004	0.7081
2995	0.5058
2986	0.4041
2977	0.1461
2968	0.0261
2959	0.0232
2950	0.1122
2941	0.117
2932	0.0938
2923	0.1915
2914	0.2889
2905	0.3865
2896	0.4834
2887	0.4875
2878	0.1076
2869	0.2592
2860	0.4262
2851	0.724
2842	0.7494
2833	0.7771
2824	0.8074
2815	0.8211
2806	0.8308
2797	0.8413
2788	0.8516
2779	0.8641
2770	0.8696
2761	0.8712
2752	0.8684
2743	0.8618
2734	0.8574
2725	0.8657
2716	0.8741
2707	0.8826
2698	0.8835
2689	0.8821
2680	0.8812
2671	0.8806
2662	0.8802
2653	0.8805
2644	0.8786
2635	0.8822
2626	0.8868
2617	0.8905
2608	0.8935
2599	0.8962
2590	0.8985
2581	0.8999
2572	0.9006
2563	0.8997
2554	0.8987
2545	0.898
2536	0.8975
2527	0.8971
2518	0.8975
2509	0.8982
2500	0.8991
2491	0.8997
2482	0.8997
2473	0.8993
2464	0.8953
2455	0.887
2446	0.8843
2437	0.883
2428	0.8831
2419	0.8831
2410	0.8828
2401	0.8837
2392	0.8837
2383	0.8854
2374	0.8886
2365	0.8878
2356	0.8908
2347	0.892
2338	0.8907
2329	0.8852
2320	0.8855
2311	0.887
2302	0.8871
2293	0.8855
2284	0.8822
2275	0.8788
2266	0.8775
2257	0.878
2248	0.8797
2239	0.8811
2230	0.8822
2221	0.8828
2212	0.8843
2203	0.8856
2194	0.887
2185	0.8868
2176	0.8881
2167	0.8874
2158	0.8876
2149	0.8874
2140	0.8871
2131	0.8868
2122	0.8856
2113	0.886
2104	0.8871
2095	0.8882
2086	0.889
2077	0.8889
2068	0.8877
2059	0.8859
2050	0.8852
2041	0.8827
2032	0.8815
2023	0.882
2014	0.8817
2005	0.8815
1996	0.8702
1987	0.8802
1978	0.8796
1969	0.8806
1960	0.8828
1951	0.8823
1942	0.8816
1933	0.8816
1924	0.8811
1915	0.8801
1906	0.8818
1897	0.8829
1888	0.8825
1879	0.8839
1870	0.8839
1861	0.8826
1852	0.8818
1843	0.8813
1834	0.8809
1825	0.8816
1816	0.8834
1807	0.8834
1798	0.8833
1789	0.8843
1780	0.885
1771	0.8845
1762	0.8845
1753	0.8849
1744	0.8843
1735	0.8832
1726	0.8798
1717	0.88
1708	0.8836
1699	0.8807
1690	0.877
1681	0.8756
1672	0.8751
1663	0.8744
1654	0.8762
1645	0.872
1636	0.8719
1627	0.8638
1618	0.8468
1609	0.8345
1600	0.804
1591	0.7672
1582	0.7365
1573	0.7184
1564	0.691
1555	0.642
1546	0.6736
1537	0.725
1528	0.7481
1519	0.7664
1510	0.7773
1501	0.7798
1492	0.7817
1483	0.7283
1474	0.5555
1465	0.2535
1456	0.3416
1447	0.5721
1438	0.7112
1429	0.7633
1420	0.7102
1411	0.4614
1402	0.6557
1393	0.755
1384	0.5022
1375	0.7216
1366	0.707
1357	0.6111
1348	0.5358
1339	0.5596
1330	0.1663
1321	0.0166
1312	0.0396
1303	0.0651
1294	0.0565
1285	0.1343
1276	0.1095
1267	0.3333
1258	0.6278
1249	0.6417
1240	0.5388
1231	0.5495
1222	0.6677
1213	0.7441
1204	0.7323
1195	0.6451
1186	0.6341
1177	0.6732
1168	0.7128
1159	0.7167
1150	0.6144
1141	0.081
1132	0.0048
1123	0.1883
1114	0.4931
1105	0.602
1096	0.3438
1087	0.6084
1078	0.5449
1069	0.5863
1060	0.6446
1051	0.6902
1042	0.7923
1033	0.8201
1024	0.8298
1015	0.8266
1006	0.7779
997	0.7741
988	0.8169
979	0.8229
970	0.7102
961	0.7992
952	0.8234
943	0.8301
934	0.8208
925	0.7038
916	0.5869
907	0.5498
898	0.7058
889	0.7517
880	0.7747
871	0.7143
862	0.7598
853	0.7588
844	0.7557
835	0.758
826	0.6236
817	0.477
808	0.431
799	0.5468
790	0.6423
781	0.6905
772	0.7003
763	0.5762
754	0.5806
745	0.6235
736	0.5878
727	0.5368
718	0.6581
709	0.689
700	0.6546
691	0.6942
682	0.791
673	0.8222
664	0.8253
655	0.7085
646	0.7959
637	0.8308
628	0.8475
619	0.8516
610	0.8546
601	0.8534
592	0.6713
583	0.6762
574	0.7331
565	0.7145
556	0.6375
547	0.4247
538	0.6216
529	0.5663
520	0.5705
511	0.3131
502	0.577
493	0.4507
484	0.6402
475	0.7022
466	0.7091
457	0.7047
