Infrared Spectrum: Methyl trimethylacetate
Formula: C 6 H 12 O 2
CAS: 598-98-1
State: gas
Instrument: HP-GC/MS/IRD
Origin: NIST Mass Spectrometry Data Center
1/CM	ABSORBANCE
550	9.62e-05
562	0.0001998
574	0.0004736
586	0.0010508
598	0.0007992
610	0.0001332
622	5.18e-05
634	5.92e-05
646	0.0001258
658	6.66e-05
670	0
682	0.0001332
694	6.66e-05
706	0.0001332
718	0.0001776
730	0.0001036
742	0.0001628
754	0.000555
766	0.0013616
778	0.0020794
790	0.0019314
802	0.0012062
814	0.0006068
826	0.0006808
838	0.0013912
850	0.002775
862	0.0032264
874	0.0020276
886	0.0008584
898	0.000518
910	0.0004218
922	0.000629
934	0.0009694
946	0.0010434
958	0.0009028
970	0.0014652
982	0.0025678
994	0.002886
1006	0.001924
1018	0.0019536
1030	0.0028786
1042	0.00296
1054	0.0022718
1066	0.0019536
1078	0.0018722
1090	0.0024272
1102	0.003885
1114	0.0075332
1126	0.017834
1138	0.0444
1150	0.0716542
1162	0.0650312
1174	0.034632
1186	0.0260924
1198	0.0225478
1210	0.0149258
1222	0.0084952
1234	0.0060014
1246	0.0059422
1258	0.0089762
1270	0.0155622
1282	0.0198986
1294	0.0152662
1306	0.0071558
1318	0.0031968
1330	0.0021608
1342	0.002257
1354	0.0035002
1366	0.00555
1378	0.0058978
1390	0.0054686
1402	0.0049136
1414	0.003737
1426	0.0045214
1438	0.0072446
1450	0.0075998
1462	0.0077108
1474	0.0103674
1486	0.0100714
1498	0.0056462
1510	0.0022866
1522	0.0016724
1534	0.0015836
1546	0.0015022
1558	0.0012802
1570	0.0010286
1582	0.0008658
1594	0.00074
1606	0.0007104
1618	0.0007104
1630	0.000777
1642	0.0009028
1654	0.0009546
1666	0.0009398
1678	0.0011914
1690	0.001998
1702	0.0040996
1714	0.008547
1726	0.0177452
1738	0.0350094
1750	0.0469456
1762	0.0400784
1774	0.01665
1786	0.005698
1798	0.0022348
1810	0.0011692
1822	0.000703
1834	0.0005106
1846	0.000481
1858	0.0004884
1870	0.0004662
1882	0.0003552
1894	0.0002664
1906	0.0002812
1918	0.0003552
1930	0.0004588
1942	0.0005772
1954	0.0006808
1966	0.0007548
1978	0.0007548
1990	0.000666
2002	0.0005994
2014	0.0005772
2026	0.000481
2038	0.0003478
2050	0.0003256
2062	0.0003034
2074	0.0002442
2086	0.0001998
2098	0.0002072
2110	0.0002738
2122	0.0003774
2134	0.0004958
2146	0.0004514
2158	0.0002886
2170	0.000185
2182	0.0001332
2194	8.14e-05
2206	5.92e-05
2218	5.18e-05
2230	8.14e-05
2242	6.66e-05
2254	5.18e-05
2266	8.14e-05
2278	0.000111
2290	0.0001702
2302	0.0002072
2314	0.000222
2326	0.0001924
2338	0.0001628
2350	0.000111
2362	0.0001258
2374	8.14e-05
2386	6.66e-05
2398	6.66e-05
2410	8.88e-05
2422	0.0001036
2434	5.18e-05
2446	2.22e-05
2458	2.22e-05
2470	2.22e-05
2482	2.96e-05
2494	2.96e-05
2506	1.48e-05
2518	2.22e-05
2530	5.92e-05
2542	5.92e-05
2554	6.66e-05
2566	6.66e-05
2578	0.0001036
2590	0.0001332
2602	0.0001924
2614	0.000185
2626	0.000111
2638	0.0001332
2650	0.000111
2662	9.62e-05
2674	0.0001036
2686	9.62e-05
2698	0.0001406
2710	0.0002072
2722	0.0002886
2734	0.0003404
2746	0.0003182
2758	0.0003182
2770	0.0003034
2782	0.0004144
2794	0.000518
2806	0.0007474
2818	0.0010064
2830	0.0016502
2842	0.002701
2854	0.0033448
2866	0.00481
2878	0.0074222
2890	0.0085174
2902	0.0094276
2914	0.0112924
2926	0.0129574
2938	0.0153994
2950	0.0227106
2962	0.0300736
2974	0.0337144
2986	0.0289044
2998	0.0169756
3010	0.0080142
3022	0.0045954
3034	0.0032264
3046	0.002183
3058	0.0015836
3070	0.0012506
3082	0.0011766
3094	0.0011322
3106	0.001036
3118	0.0009694
3130	0.0007992
3142	0.0006142
3154	0.000592
3166	0.0005772
3178	0.0005328
3190	0.000555
3202	0.0004366
3214	0.0004366
3226	0.0004144
3238	0.0002886
3250	0.0002664
3262	0.0001628
3274	0.0001406
3286	0.0001702
3298	0.0001406
3310	9.62e-05
3322	0.000111
3334	0.0001406
3346	8.88e-05
3358	0.0001184
3370	0.0001406
3382	0.0001628
3394	0.0001924
3406	5.18e-05
3418	9.62e-05
3430	0.0001184
3442	0.0001776
3454	0.000296
3466	0.0004662
3478	0.0005698
3490	0.0006438
3502	0.0004218
3514	0.0002738
3526	0.0002294
3538	0.000185
3550	8.88e-05
3562	8.14e-05
3574	9.62e-05
3586	0.0001332
3598	7.4e-05
3610	8.14e-05
3622	9.62e-05
3634	2.22e-05
3646	9.62e-05
3658	5.18e-05
3670	0.0001036
3682	7.4e-05
3694	0.0001332
3706	8.88e-05
3718	5.92e-05
3730	0.000111
3742	0.000111
3754	8.88e-05
3766	0
3778	0.0001184
3790	3.7e-05
3802	9.62e-05
3814	0.0001258
3826	0.0001406
3838	9.62e-05
