Infrared Spectrum: Bromoacetyl bromide
Formula: C 2 H 2 Br 2 O
CAS: 598-21-0
State: gas
Instrument: HP-GC/MS/IRD
Origin: NIST Mass Spectrometry Data Center
1/CM	ABSORBANCE
550	0.0004609
562	0.0010626
574	0.0024728
586	0.0022825
598	0.0022242
610	0.0034122
622	0.0065934
634	0.0073986
646	0.0014036
658	0.0008789
670	0.0012771
682	0.0007832
694	0.0007788
706	0.0010395
718	0.0016687
730	0.0008514
742	0.0004719
754	0.0003256
766	0.0002794
778	0.0003146
790	0.0003454
802	0.0003795
814	0.000385
826	0.0003971
838	0.0004224
850	0.0004972
862	0.0005313
874	0.0006853
886	0.0009702
898	0.0013332
910	0.0011781
922	0.0013981
934	0.0026015
946	0.0049896
958	0.0038643
970	0.0024827
982	0.0033198
994	0.0048345
1006	0.0040755
1018	0.0018843
1030	0.001331
1042	0.0010098
1054	0.0009471
1066	0.0011979
1078	0.0013574
1090	0.0015323
1102	0.0015829
1114	0.00132
1126	0.0011176
1138	0.00121
1150	0.0020196
1162	0.0018513
1174	0.0013266
1186	0.0011924
1198	0.0011605
1210	0.0010461
1222	0.0008723
1234	0.0005258
1246	0.0002442
1258	9.79e-05
1270	5.06e-05
1282	6.93e-05
1294	0.0002398
1306	0.0004026
1318	0.0005786
1330	0.0006534
1342	0.0006919
1354	0.0006809
1366	0.0006589
1378	0.000726
1390	0.0009141
1402	0.0010626
1414	0.0010912
1426	0.0008987
1438	0.0006699
1450	0.0005819
1462	0.0005478
1474	0.0005555
1486	0.0005863
1498	0.0005863
1510	0.0005577
1522	0.0005863
1534	0.0006006
1546	0.0006017
1558	0.0005995
1570	0.0005423
1582	0.000517
1594	0.0004686
1606	0.0003916
1618	0.0002838
1630	0.0002079
1642	0.0001463
1654	0.0001232
1666	9.57e-05
1678	3.96e-05
1690	6.49e-05
1702	7.48e-05
1714	0.0001232
1726	0.0002145
1738	0.0004213
1750	0.000792
1762	0.0015906
1774	0.0031537
1786	0.0061457
1798	0.0104192
1810	0.011
1822	0.0081345
1834	0.0050897
1846	0.0030459
1858	0.0023474
1870	0.0016852
1882	0.0014366
1894	0.0014696
1906	0.0012353
1918	0.0007557
1930	0.0004367
1942	0.0002882
1954	0.0002486
1966	0.0002552
1978	0.0002684
1990	0.0002783
2002	0.0002255
2014	0.0001958
2026	0.000165
2038	0.000165
2050	0.0001969
2062	0.0002453
2074	0.0003993
2086	0.0006127
2098	0.0010527
2110	0.0021516
2122	0.0043857
2134	0.0068959
2146	0.0077979
2158	0.0055451
2170	0.0019294
2182	0.0009559
2194	0.0006028
2206	0.0003872
2218	0.000242
2230	0.0001914
2242	0.0001661
2254	0.0002178
2266	0.0002189
2278	0.0003014
2290	0.0005214
2302	0.0008492
2314	0.001276
2326	0.0015862
2338	0.0014707
2350	0.001221
2362	0.0020372
2374	0.0014894
2386	0.0004026
2398	0.000121
2410	9.35e-05
2422	8.47e-05
2434	8.36e-05
2446	6.16e-05
2458	2.42e-05
2470	4.4e-06
2482	3.19e-05
2494	6.6e-05
2506	5.28e-05
2518	4.84e-05
2530	7.7e-05
2542	8.58e-05
2554	3.08e-05
2566	3.08e-05
2578	6.16e-05
2590	6.82e-05
2602	8.03e-05
2614	7.26e-05
2626	8.36e-05
2638	0.0001353
2650	0.0001397
2662	0.0001188
2674	9.79e-05
2686	9.79e-05
2698	9.68e-05
2710	8.58e-05
2722	0.00011
2734	0.0001144
2746	0.0001078
2758	0.00011
2770	0.0001111
2782	0.0001463
2794	0.0001243
2806	0.000143
2818	0.0001342
2830	0.000132
2842	0.0001243
2854	0.0001012
2866	0.0001067
2878	0.0001243
2890	0.0001254
2902	0.000143
2914	0.0001463
2926	0.000154
2938	0.0001826
2950	0.0002695
2962	0.0003586
2974	0.0004873
2986	0.0003388
2998	0.0002211
3010	0.0001705
3022	0.0001782
3034	0.0001694
3046	0.0001573
3058	0.0001188
3070	0.000143
3082	0.0001584
3094	0.0001859
3106	0.0002442
3118	0.0003531
3130	0.0002618
3142	0.000319
3154	0.0001551
3166	7.7e-05
3178	7.81e-05
3190	9.24e-05
3202	7.37e-05
3214	7.37e-05
3226	8.58e-05
3238	8.69e-05
3250	4.95e-05
3262	3.85e-05
3274	3.08e-05
3286	8.8e-05
3298	2.31e-05
3310	5.39e-05
3322	4.4e-05
3334	6.6e-05
3346	6.82e-05
3358	7.81e-05
3370	0.0001023
3382	0.0001133
3394	0.0001452
3406	0.0001848
3418	0.0001551
3430	9.02e-05
3442	7.59e-05
3454	0.0001188
3466	9.35e-05
3478	7.37e-05
3490	6.38e-05
3502	0.0001496
3514	0.0001375
3526	0.0001628
3538	0.0002123
3550	0.0002431
3562	0.0004543
3574	0.0007425
3586	0.0007865
3598	0.0004081
3610	0.0002288
3622	0.000286
3634	0.0002354
3646	0.0001353
3658	0.0002486
3670	0.0002233
3682	0.0002398
3694	0.0001771
3706	0.0002057
3718	0.0001903
3730	0.0002442
3742	0.0001562
3754	0.0001738
3766	0.0001639
3778	0.0001331
3790	0.000143
3802	0.0001848
3814	0.0002178
3826	0.0001892
3838	0.0001991
