Infrared Spectrum: Alpha-IODO PROPIONIC ACID
Formula: C3 H5 I O2
CAS: 598-80-1
State: SOLUTION (10% CCl4 FOR 2.5-7.5, 10% CS2 FOR 7.5-16 MICRON)
Class: COBLENTZ
Instrument: Not specified, most likely a prism, grating, or hybrid spectrometer.
Sampling: TRANSMISSION
Path length: 0.01 CM, 0.01 CM
Resolution: 4
Origin: DOW CHEMICAL COMPANY
MICROMETERS	TRANSMITTANCE
2.005	0.877
2.04506	0.88
2.08511	0.879
2.12517	0.88
2.16522	0.879
2.20528	0.872
2.24533	0.875
2.28539	0.877
2.32544	0.872
2.3655	0.877
2.40555	0.875
2.44561	0.877
2.48566	0.879
2.52572	0.88
2.56577	0.88
2.60583	0.88
2.64588	0.879
2.68594	0.872
2.72599	0.879
2.76605	0.864
2.8061	0.831
2.84616	0.839
2.88621	0.809
2.92627	0.75
2.96632	0.677
3.00638	0.589
3.04643	0.504
3.08649	0.418
3.12654	0.341
3.1666	0.266
3.20665	0.221
3.24671	0.215
3.28676	0.206
3.32682	0.183
3.36687	0.187
3.40693	0.203
3.44698	0.218
3.48704	0.268
3.52709	0.314
3.56715	0.37
3.6072	0.408
3.64726	0.37
3.68732	0.43
3.72737	0.42
3.76743	0.362
3.80748	0.428
3.84754	0.503
3.88759	0.447
3.92765	0.466
3.9677	0.586
4.00776	0.614
4.04781	0.652
4.08787	0.693
4.12792	0.711
4.16798	0.726
4.20803	0.741
4.24809	0.756
4.28814	0.758
4.3282	0.764
4.36825	0.779
4.40831	0.801
4.44836	0.804
4.48842	0.804
4.52847	0.802
4.56853	0.793
4.60858	0.811
4.64864	0.819
4.68869	0.816
4.72875	0.819
4.7688	0.812
4.80886	0.819
4.84891	0.821
4.88897	0.827
4.92902	0.821
4.96908	0.809
5.00913	0.806
5.04919	0.811
5.08924	0.811
5.1293	0.816
5.16935	0.804
5.20941	0.802
5.24946	0.801
5.28952	0.796
5.32958	0.791
5.36963	0.783
5.40969	0.768
5.44974	0.756
5.4898	0.758
5.52985	0.74
5.56991	0.715
5.60996	0.67
5.65002	0.569
5.69007	0.49
5.73013	0.385
5.77018	0.122
5.81024	0.046
5.85029	0.044
5.89035	0.165
5.9304	0.438
5.97046	0.572
6.01051	0.614
6.05057	0.668
6.09062	0.701
6.13068	0.715
6.17073	0.703
6.21079	0.649
6.25084	0.589
6.2909	0.559
6.33095	0.524
6.37101	0.478
6.41106	0.413
6.45112	0.438
6.49117	0.519
6.53123	0.541
6.57128	0.584
6.61134	0.658
6.65139	0.711
6.69145	0.766
6.7315	0.761
6.77156	0.71
6.81161	0.514
6.85167	0.178
6.89172	0.387
6.93178	0.543
6.97184	0.395
7.01189	0.173
7.05195	0.218
7.092	0.422
7.13206	0.607
7.17211	0.592
7.21217	0.501
7.25222	0.69
7.29228	0.758
7.33233	0.756
7.37239	0.73
7.41244	0.642
7.4525	0.498
7.49255	0.394
7.53261	0.435
7.57266	0.503
7.61272	0.279
7.65277	0.337
7.69283	0.46
7.73288	0.564
7.77294	0.591
7.81299	0.485
7.85305	0.233
7.8931	0.094
7.93316	0.182
7.97321	0.347
8.01327	0.576
8.05332	0.665
8.09338	0.708
8.13343	0.74
8.17349	0.764
8.21354	0.774
8.2536	0.766
8.29365	0.75
8.33371	0.725
8.37376	0.692
8.41382	0.619
8.45387	0.571
8.49393	0.529
8.53398	0.453
8.57404	0.364
8.6141	0.514
8.65415	0.698
8.69421	0.799
8.73426	0.829
8.77432	0.834
8.81437	0.831
8.85443	0.855
8.89448	0.882
8.93454	0.884
8.97459	0.869
9.01465	0.829
9.0547	0.763
9.09476	0.556
9.13481	0.408
9.17487	0.504
9.21492	0.602
9.25498	0.687
9.29503	0.644
9.33509	0.586
9.37514	0.72
9.4152	0.839
9.45525	0.864
9.49531	0.884
9.53536	0.892
9.57542	0.9
9.61547	0.902
9.65553	0.902
9.69558	0.895
9.73564	0.892
9.77569	0.885
9.81575	0.877
9.8558	0.859
9.89586	0.831
9.93591	0.791
9.97597	0.731
10.016	0.63
10.0561	0.548
10.0961	0.509
10.1362	0.632
10.1762	0.701
10.2163	0.723
10.2564	0.708
10.2964	0.687
10.3365	0.649
10.3765	0.609
10.4166	0.574
10.4566	0.536
10.4967	0.501
10.5367	0.463
10.5768	0.433
10.6169	0.407
10.6569	0.39
10.697	0.382
10.737	0.382
10.7771	0.394
10.8171	0.412
10.8572	0.433
10.8972	0.45
10.9373	0.47
10.9773	0.488
11.0174	0.506
11.0575	0.519
11.0975	0.531
11.1376	0.536
11.1776	0.541
11.2177	0.544
11.2577	0.549
11.2978	0.554
11.3378	0.554
11.3779	0.554
11.418	0.543
11.458	0.521
11.4981	0.485
11.5381	0.433
11.5782	0.415
11.6182	0.465
11.6583	0.531
11.6983	0.592
11.7384	0.637
11.7784	0.665
11.8185	0.688
11.8586	0.706
11.8986	0.723
11.9387	0.738
11.9787	0.745
12.0188	0.754
12.0588	0.761
12.0989	0.768
12.1389	0.771
12.179	0.776
12.2191	0.778
12.2591	0.779
12.2992	0.783
12.3392	0.786
12.3793	0.788
12.4193	0.791
12.4594	0.796
12.4994	0.799
12.5395	0.804
12.5796	0.807
12.6196	0.814
12.6597	0.821
12.6997	0.826
12.7398	0.829
12.7798	0.836
12.8199	0.836
12.8599	0.834
12.9	0.829
12.94	0.816
12.9801	0.806
13.0202	0.794
13.0602	0.793
13.1003	0.794
13.1403	0.804
13.1804	0.807
13.2204	0.819
13.2605	0.822
13.3005	0.824
13.3406	0.824
13.3807	0.826
13.4207	0.824
13.4608	0.819
13.5008	0.817
13.5409	0.809
13.5809	0.806
13.621	0.802
13.661	0.799
13.7011	0.798
13.7412	0.794
13.7812	0.791
13.8213	0.788
13.8613	0.784
13.9014	0.779
13.9414	0.774
13.9815	0.768
14.0215	0.761
14.0616	0.756
14.1016	0.751
14.1417	0.745
14.1818	0.738
14.2218	0.731
14.2619	0.725
14.3019	0.713
14.342	0.705
14.382	0.698
14.4221	0.688
14.4621	0.68
14.5022	0.668
14.5423	0.655
14.5823	0.647
14.6224	0.637
14.6624	0.625
14.7025	0.617
14.7425	0.605
14.7826	0.594
14.8226	0.587
14.8627	0.576
14.9027	0.557
14.9428	0.538
14.9829	0.511
15.0229	0.476
15.063	0.437
15.103	0.39
15.1431	0.336
15.1831	0.278
15.2232	0.245
15.2632	0.238
15.3033	0.264
15.3434	0.302
15.3834	0.332
15.4235	0.35
15.4635	0.359
15.5036	0.364
15.5436	0.365
15.5837	0.365
15.6237	0.36
15.6638	0.354
15.7039	0.35
15.7439	0.352
15.784	0.355
15.824	0.307
15.8641	0.322
