Infrared Spectrum: 2,4,6-TRIMETHYLCUMENE
Formula: C12 H18
CAS: 5980-96-1
State: SOLUTION (10% CCl4 FOR 2.5-7.5, 10% CS2 FOR 7.5-15 MICRON)
Class: COBLENTZ
Instrument: Not specified, most likely a prism, grating, or hybrid spectrometer.
Sampling: TRANSMISSION
Path length: 0.01 CM, 0.01 CM
Resolution: 4
Origin: DOW CHEMICAL COMPANY
MICROMETERS	TRANSMITTANCE
2.034	0.9
2.07317	0.9
2.11235	0.896
2.15152	0.896
2.19069	0.895
2.22986	0.87
2.26904	0.862
2.30821	0.87
2.34738	0.882
2.38656	0.888
2.42573	0.883
2.4649	0.89
2.50407	0.89
2.54325	0.89
2.58242	0.893
2.62159	0.9
2.66076	0.901
2.69994	0.901
2.73911	0.901
2.77828	0.898
2.81746	0.898
2.85663	0.898
2.8958	0.89
2.93497	0.88
2.97415	0.895
3.01332	0.9
3.05249	0.896
3.09167	0.882
3.13084	0.87
3.17001	0.853
3.20918	0.829
3.24836	0.791
3.28753	0.662
3.3267	0.395
3.36588	0.132
3.40505	0.13
3.44422	0.279
3.48339	0.396
3.52257	0.753
3.56174	0.835
3.60091	0.864
3.64008	0.841
3.67926	0.859
3.71843	0.887
3.7576	0.896
3.79678	0.901
3.83595	0.901
3.87512	0.906
3.91429	0.909
3.95347	0.906
3.99264	0.903
4.03181	0.901
4.07099	0.901
4.11016	0.903
4.14933	0.903
4.1885	0.901
4.22768	0.9
4.26685	0.898
4.30602	0.896
4.3452	0.891
4.38437	0.901
4.42354	0.909
4.46271	0.911
4.50189	0.92
4.54106	0.922
4.58023	0.919
4.6194	0.924
4.65858	0.924
4.69775	0.924
4.73692	0.925
4.7761	0.925
4.81527	0.924
4.85444	0.922
4.89361	0.92
4.93279	0.92
4.97196	0.916
5.01113	0.912
5.05031	0.92
5.08948	0.922
5.12865	0.92
5.16782	0.92
5.207	0.908
5.24617	0.909
5.28534	0.904
5.32452	0.906
5.36369	0.906
5.40286	0.912
5.44203	0.917
5.48121	0.919
5.52038	0.919
5.55955	0.917
5.59872	0.911
5.6379	0.9
5.67707	0.89
5.71624	0.89
5.75542	0.872
5.79459	0.867
5.83376	0.896
5.87293	0.901
5.91211	0.9
5.95128	0.901
5.99045	0.9
6.02963	0.895
6.0688	0.88
6.10797	0.859
6.14714	0.785
6.18632	0.591
6.22549	0.674
6.26466	0.619
6.30384	0.574
6.34301	0.52
6.38218	0.49
6.42135	0.443
6.46053	0.441
6.4997	0.517
6.53887	0.556
6.57804	0.564
6.61722	0.554
6.65639	0.559
6.69556	0.47
6.73474	0.332
6.77391	0.301
6.81308	0.277
6.85225	0.282
6.89143	0.358
6.9306	0.535
6.96977	0.637
7.00895	0.706
7.04812	0.77
7.08729	0.787
7.12646	0.779
7.16564	0.735
7.20481	0.635
7.24398	0.654
7.28316	0.677
7.32233	0.648
7.3615	0.772
7.40067	0.832
7.43985	0.854
7.47902	0.874
7.51819	0.872
7.55736	0.864
7.59654	0.869
7.63571	0.882
7.67488	0.891
7.71406	0.903
7.75323	0.9
7.7924	0.885
7.83157	0.875
7.87075	0.888
7.90992	0.906
7.94909	0.909
7.98827	0.906
8.02744	0.927
8.06661	0.935
8.10578	0.938
8.14496	0.908
8.18413	0.893
8.2233	0.93
8.26248	0.941
8.30165	0.941
8.34082	0.94
8.37999	0.946
8.41917	0.946
8.45834	0.916
8.49751	0.861
8.53668	0.867
8.57586	0.909
8.61503	0.925
8.6542	0.917
8.69338	0.911
8.73255	0.929
8.77172	0.94
8.81089	0.938
8.85007	0.932
8.88924	0.922
8.92841	0.906
8.96759	0.872
9.00676	0.822
9.04593	0.804
9.0851	0.877
9.12428	0.898
9.16345	0.903
9.20262	0.896
9.2418	0.875
9.28097	0.843
9.32014	0.656
9.35931	0.479
9.39849	0.646
9.43766	0.837
9.47683	0.845
9.516	0.838
9.55518	0.819
9.59435	0.772
9.63352	0.748
9.6727	0.722
9.71187	0.679
9.75104	0.666
9.79021	0.683
9.82939	0.685
9.86856	0.72
9.90773	0.775
9.94691	0.837
9.98608	0.864
10.0253	0.87
10.0644	0.882
10.1036	0.903
10.1428	0.911
10.1819	0.919
10.2211	0.93
10.2603	0.937
10.2995	0.941
10.3386	0.927
10.3778	0.916
10.417	0.911
10.4562	0.922
10.4953	0.933
10.5345	0.94
10.5737	0.941
10.6128	0.935
10.652	0.922
10.6912	0.914
10.7304	0.904
10.7695	0.896
10.8087	0.872
10.8479	0.859
10.8871	0.856
10.9262	0.879
10.9654	0.885
11.0046	0.893
11.0437	0.89
11.0829	0.882
11.1221	0.879
11.1613	0.87
11.2004	0.859
11.2396	0.819
11.2788	0.79
11.318	0.741
11.3571	0.711
11.3963	0.7
11.4355	0.68
11.4746	0.651
11.5138	0.653
11.553	0.669
11.5922	0.658
11.6313	0.617
11.6705	0.561
11.7097	0.416
11.7489	0.206
11.788	0.179
11.8272	0.441
11.8664	0.654
11.9055	0.754
11.9447	0.808
11.9839	0.83
12.0231	0.84
12.0622	0.84
12.1014	0.838
12.1406	0.843
12.1798	0.859
12.2189	0.864
12.2581	0.864
12.2973	0.859
12.3364	0.851
12.3756	0.845
12.4148	0.843
12.454	0.845
12.4931	0.845
12.5323	0.829
12.5715	0.811
12.6107	0.809
12.6498	0.827
12.689	0.835
12.7282	0.84
12.7673	0.846
12.8065	0.856
12.8457	0.866
12.8849	0.87
12.924	0.877
12.9632	0.877
13.0024	0.879
13.0416	0.875
13.0807	0.87
13.1199	0.867
13.1591	0.864
13.1982	0.861
13.2374	0.859
13.2766	0.861
13.3158	0.854
13.3549	0.845
13.3941	0.814
13.4333	0.766
13.4725	0.746
13.5116	0.782
13.5508	0.817
13.59	0.824
13.6291	0.814
13.6683	0.793
13.7075	0.756
13.7467	0.738
13.7858	0.753
13.825	0.779
13.8642	0.795
13.9034	0.8
13.9425	0.801
13.9817	0.798
14.0209	0.793
14.06	0.788
14.0992	0.78
14.1384	0.777
14.1776	0.774
14.2167	0.769
14.2559	0.766
14.2951	0.759
14.3343	0.751
14.3734	0.746
14.4126	0.741
14.4518	0.73
14.491	0.722
14.5301	0.711
14.5693	0.7
14.6085	0.695
14.6476	0.687
14.6868	0.679
14.726	0.669
14.7652	0.661
14.8043	0.653
14.8435	0.648
14.8827	0.64
14.9219	0.629
14.961	0.619
15.0002	0.617
15.0394	0.606
15.0785	0.6
15.1177	0.587
15.1569	0.577
15.1961	0.564
15.2352	0.55
15.2744	0.538
15.3136	0.529
15.3528	0.52
15.3919	0.514
15.4311	0.509
15.4703	0.506
15.5094	0.5
15.5486	0.496
15.5878	0.49
15.627	0.482
15.6661	0.479
15.7053	0.47
15.7445	0.466
15.7837	0.459
15.8228	0.453
15.862	0.451
15.9012	0.451
