Infrared Spectrum: UREA, (2-ETHYLCROTONOYL)-
Formula: C7 H12 N2 O2
CAS: 5982-97-8
State: SOLID (KBr DISC)
Class: COBLENTZ III
Instrument: PERKIN-ELMER 21 (GRATING)
Instrument parameters: FILTER AT ABOUT 10 MICRONS
Sampling: TRANSMISSION
Resolution: 2
1/CM	TRANSMITTANCE
4000	0.9636
3991	0.9631
3982	0.9627
3973	0.9623
3964	0.9618
3955	0.9615
3946	0.9612
3937	0.9608
3928	0.9606
3919	0.9602
3910	0.96
3901	0.9599
3892	0.9598
3883	0.9602
3874	0.9607
3865	0.9625
3856	0.9651
3847	0.9668
3838	0.9673
3829	0.9674
3820	0.9675
3811	0.9675
3802	0.9678
3793	0.9681
3784	0.9682
3775	0.9678
3766	0.9657
3757	0.9636
3748	0.9625
3739	0.962
3730	0.9618
3721	0.9618
3712	0.9616
3703	0.9613
3694	0.9612
3685	0.9609
3676	0.9604
3667	0.96
3658	0.9595
3649	0.959
3640	0.9586
3631	0.9581
3622	0.9571
3613	0.9562
3604	0.9545
3595	0.9525
3586	0.9487
3577	0.9437
3568	0.9388
3559	0.9339
3550	0.9292
3541	0.9227
3532	0.9152
3523	0.9063
3514	0.8968
3505	0.8871
3496	0.8771
3487	0.869
3478	0.86
3469	0.8461
3460	0.7926
3451	0.7571
3442	0.7211
3433	0.6875
3424	0.6551
3415	0.5875
3406	0.5024
3397	0.4168
3388	0.3308
3379	0.2443
3370	0.1574
3361	0.0758
3352	0.0685
3343	0.0674
3334	0.0652
3325	0.06
3316	0.0544
3307	0.0545
3298	0.0738
3289	0.1027
3280	0.1316
3271	0.1607
3262	0.1884
3253	0.1943
3244	0.1902
3235	0.1775
3226	0.1648
3217	0.1536
3208	0.1533
3199	0.1592
3190	0.2024
3181	0.2513
3172	0.3005
3163	0.3499
3154	0.3996
3145	0.4495
3136	0.4998
3127	0.5472
3118	0.5769
3109	0.6142
3100	0.6637
3091	0.6846
3082	0.7017
3073	0.7156
3064	0.7285
3055	0.7388
3046	0.7482
3037	0.7572
3028	0.765
3019	0.7671
3010	0.7671
3001	0.7385
2992	0.6801
2983	0.6212
2974	0.5622
2965	0.5066
2956	0.5057
2947	0.5254
2938	0.5508
2929	0.5632
2920	0.5791
2911	0.5994
2902	0.6304
2893	0.6718
2884	0.7154
2875	0.7287
2866	0.7293
2857	0.7321
2848	0.7475
2839	0.7695
2830	0.7931
2821	0.8167
2812	0.8325
2803	0.8452
2794	0.8555
2785	0.8667
2776	0.8821
2767	0.8944
2758	0.9034
2749	0.9097
2740	0.9136
2731	0.9161
2722	0.9183
2713	0.92
2704	0.9207
2695	0.9216
2686	0.9234
2677	0.926
2668	0.9299
2659	0.9344
2650	0.9368
2641	0.9375
2632	0.9378
2623	0.9378
2614	0.9378
2605	0.938
2596	0.9394
2587	0.9407
2578	0.9425
2569	0.9442
2560	0.9462
2551	0.9483
2542	0.9502
2533	0.9514
2524	0.9521
2515	0.9528
2506	0.9535
2497	0.9545
2488	0.9554
2479	0.9564
2470	0.9575
2461	0.9585
2452	0.9597
2443	0.9609
2434	0.9621
2425	0.9633
2416	0.9645
2407	0.9656
2398	0.9665
2389	0.9671
2380	0.9677
2371	0.9671
2362	0.9658
2353	0.9625
2344	0.9596
2335	0.9565
2326	0.9537
2317	0.9533
2308	0.9545
2299	0.957
2290	0.9597
2281	0.9625
2272	0.9645
2263	0.9666
2254	0.968
2245	0.9694
2236	0.9702
2227	0.9697
2218	0.9647
2209	0.9611
2200	0.9624
2191	0.964
2182	0.9652
2173	0.9666
2164	0.9684
2155	0.9701
2146	0.9706
2137	0.9702
2128	0.9663
2119	0.9636
2110	0.9617
2101	0.9601
2092	0.9595
2083	0.959
2074	0.9586
2065	0.9582
2056	0.958
2047	0.9577
2038	0.9575
2029	0.9577
2020	0.9582
2011	0.9585
2002	0.9585
1993	0.9562
1984	0.9513
1975	0.9462
1966	0.9405
1957	0.9347
1948	0.9284
1939	0.9221
1930	0.9165
1921	0.9112
1912	0.9062
1903	0.9027
1894	0.9013
1885	0.9046
1876	0.9083
1867	0.9104
1858	0.9107
1849	0.8998
1840	0.8868
1831	0.8737
1822	0.8607
1813	0.8515
1804	0.8464
1795	0.844
1786	0.8412
1777	0.8273
1768	0.8055
1759	0.7758
1750	0.7244
1741	0.631
1732	0.5004
1723	0.3457
1714	0.1726
1705	0.0347
1696	0.0304
1687	0.0359
1678	0.0281
1669	0.0256
1660	0.0405
1651	0.0538
1642	0.0704
1633	0.1668
1624	0.1782
1615	0.1743
1606	0.1151
1597	0.0899
1588	0.1261
1579	0.3115
1570	0.4592
1561	0.507
1552	0.5376
1543	0.5479
1534	0.5558
1525	0.5633
1516	0.5697
1507	0.5691
1498	0.5212
1489	0.4507
1480	0.3054
1471	0.1535
1462	0.1109
1453	0.2285
1444	0.2878
1435	0.3044
1426	0.3179
1417	0.2818
1408	0.1395
1399	0.0513
1390	0.0325
1381	0.0464
1372	0.0881
1363	0.1582
1354	0.3011
1345	0.4271
1336	0.4616
1327	0.465
1318	0.3792
1309	0.4539
1300	0.5766
1291	0.6451
1282	0.6637
1273	0.6991
1264	0.6776
1255	0.4522
1246	0.1787
1237	0.21
1228	0.3462
1219	0.5768
1210	0.7389
1201	0.7951
1192	0.8158
1183	0.8099
1174	0.6749
1165	0.3484
1156	0.6247
1147	0.7678
1138	0.8008
1129	0.7967
1120	0.6936
1111	0.3155
1102	0.0547
1093	0.1648
1084	0.4144
1075	0.6726
1066	0.6968
1057	0.5555
1048	0.7954
1039	0.7935
1030	0.8486
1021	0.8678
1012	0.877
1003	0.879
994	0.8738
985	0.8025
976	0.7568
967	0.6651
958	0.3807
949	0.5022
940	0.7284
931	0.8189
922	0.8484
913	0.8613
904	0.8695
895	0.8643
886	0.8433
877	0.7287
868	0.5435
859	0.6699
850	0.6751
841	0.6744
832	0.5879
823	0.3954
814	0.3398
805	0.4682
796	0.6197
787	0.5159
778	0.3739
769	0.4754
760	0.2918
751	0.2242
742	0.3857
733	0.4767
724	0.5616
715	0.5704
706	0.4251
697	0.2062
688	0.1662
679	0.338
