Infrared Spectrum: 1-Hexanamine, 1,5-dimethyl-, hydrochloride
Formula: C8 H20 Cl N
CAS: 5984-59-8
State: SOLID (OIL MULL)
Class: COBLENTZ III
Instrument: PERKIN-ELMER 21 (GRATING)
Instrument parameters: NaCl PRISM
Sampling: TRANSMISSION
Resolution: 2
Origin: SMITH KLINE & FRENCH LABS.
1/CM	TRANSMITTANCE
663	0.695
672	0.7134
681	0.7255
690	0.725
699	0.7186
708	0.7014
717	0.6326
726	0.6012
735	0.5746
744	0.6615
753	0.7109
762	0.7171
771	0.7231
780	0.7332
789	0.7346
798	0.7259
807	0.7043
816	0.7025
825	0.7028
834	0.6976
843	0.6894
852	0.664
861	0.6894
870	0.7068
879	0.7021
888	0.6936
897	0.695
906	0.6871
915	0.6434
924	0.6444
933	0.634
942	0.6087
951	0.6165
960	0.5962
969	0.617
978	0.6376
987	0.6535
996	0.6208
1005	0.5843
1014	0.593
1023	0.623
1032	0.6507
1041	0.6523
1050	0.6291
1059	0.5877
1068	0.6073
1077	0.6345
1086	0.6313
1095	0.5988
1104	0.5967
1113	0.649
1122	0.6447
1131	0.5815
1140	0.4269
1149	0.4969
1158	0.4472
1167	0.4543
1176	0.5507
1185	0.5867
1194	0.5329
1203	0.422
1212	0.4669
1221	0.4945
1230	0.5832
1239	0.5829
1248	0.5469
1257	0.5492
1266	0.5597
1275	0.561
1284	0.5544
1293	0.5488
1302	0.5364
1311	0.5372
1320	0.5308
1329	0.4803
1338	0.4328
1347	0.3996
1356	0.2747
1365	0.136
1374	0.1171
1383	0.1284
1392	0.1405
1401	0.2968
1410	0.458
1419	0.4522
1428	0.3666
1437	0.1786
1446	0.1145
1455	0.081
1464	0.082
1473	0.1602
1482	0.2994
1491	0.3863
1500	0.2807
1509	0.1348
1518	0.1262
1527	0.2972
1536	0.5334
1545	0.5579
1554	0.5614
1563	0.5626
1572	0.5459
1581	0.5081
1590	0.3789
1599	0.2026
1608	0.2252
1617	0.2406
1626	0.2147
1635	0.5655
1644	0.6043
1653	0.609
1662	0.6121
1671	0.637
1680	0.6754
1689	0.6834
1698	0.6917
1707	0.7164
1716	0.7333
1725	0.7453
1734	0.7495
1743	0.7493
1752	0.7474
1761	0.7425
1770	0.7339
1779	0.7265
1788	0.7335
1797	0.7364
1806	0.7372
1815	0.7361
1824	0.7306
1833	0.7334
1842	0.7434
1851	0.7478
1860	0.7482
1869	0.746
1878	0.7418
1887	0.7349
1896	0.7222
1905	0.7042
1914	0.6965
1923	0.692
1932	0.6739
1941	0.6457
1950	0.6122
1959	0.5791
1968	0.544
1977	0.511
1986	0.4856
1995	0.4433
2004	0.3916
2013	0.3456
2022	0.322
2031	0.3176
2040	0.3215
2049	0.3654
2058	0.4445
2067	0.523
2076	0.5897
2085	0.6535
2094	0.6976
2103	0.7125
2112	0.7249
2121	0.7342
2130	0.7379
2139	0.7411
2148	0.7463
2157	0.7438
2166	0.7402
2175	0.7386
2184	0.7384
2193	0.7378
2202	0.7374
2211	0.7341
2220	0.7236
2229	0.7416
2238	0.7395
2247	0.7299
2256	0.717
2265	0.7035
2274	0.6899
2283	0.6754
2292	0.659
2301	0.6416
2310	0.625
2319	0.6164
2328	0.6206
2337	0.6251
2346	0.6238
2355	0.6224
2364	0.6207
2373	0.6177
2382	0.6137
2391	0.6087
2400	0.5984
2409	0.5825
2418	0.5596
2427	0.5355
2436	0.5098
2445	0.4721
2454	0.4245
2463	0.3773
2472	0.3224
2481	0.2952
2490	0.2785
2499	0.2593
2508	0.2437
2517	0.2442
2526	0.2661
2535	0.2862
2544	0.2762
2553	0.2468
2562	0.202
2571	0.1905
2580	0.1869
2589	0.1859
2598	0.186
2607	0.1879
2616	0.1891
2625	0.1852
2634	0.1669
2643	0.1439
2652	0.1255
2661	0.1096
2670	0.095
2679	0.0819
2688	0.0707
2697	0.0602
2706	0.0536
2715	0.0512
2724	0.0507
2733	0.0504
2742	0.045
2751	0.0377
2760	0.0303
2769	0.0232
2778	0.0199
2787	0.0188
2796	0.0185
2805	0.0186
2814	0.0196
2823	0.0206
2832	0.0217
2841	0.0232
2850	0.0246
2859	0.026
2868	0.0277
2877	0.0299
2886	0.0319
2895	0.0343
2904	0.038
2913	0.0429
2922	0.0482
2931	0.0541
2940	0.0548
2949	0.0555
2958	0.0556
2967	0.0557
2976	0.0575
2985	0.0599
2994	0.0632
3003	0.0668
3012	0.0713
3021	0.0774
3030	0.0835
3039	0.0916
3048	0.1127
3057	0.1315
3066	0.1593
3075	0.1756
3084	0.1906
3093	0.2106
3102	0.2227
3111	0.2386
3120	0.2692
3129	0.3019
3138	0.3344
3147	0.3667
3156	0.3987
3165	0.4306
3174	0.4652
3183	0.4939
3192	0.5256
3201	0.5605
3210	0.596
3219	0.6216
3228	0.645
3237	0.6805
3246	0.6929
3255	0.6954
3264	0.699
3273	0.7087
3282	0.7169
3291	0.7182
3300	0.7196
3309	0.7225
3318	0.7257
3327	0.7289
3336	0.7327
3345	0.7371
3354	0.7415
3363	0.746
3372	0.7505
3381	0.7551
3390	0.7592
3399	0.762
3408	0.7647
3417	0.7659
3426	0.7665
3435	0.7672
3444	0.7679
3453	0.7687
3462	0.7705
3471	0.7723
3480	0.7744
3489	0.777
3498	0.7784
3507	0.7788
3516	0.7774
3525	0.7754
3534	0.7732
3543	0.7706
3552	0.7677
3561	0.7622
3570	0.7571
3579	0.7551
3588	0.7536
3597	0.7533
3606	0.7531
3615	0.7528
3624	0.7526
3633	0.7525
3642	0.7523
3651	0.7521
3660	0.7521
3669	0.7519
3678	0.7518
3687	0.7518
3696	0.7517
3705	0.7516
3714	0.7515
3723	0.7514
3732	0.7514
3741	0.7525
3750	0.7538
3759	0.7546
3768	0.7551
3777	0.7556
3786	0.7557
3795	0.7556
3804	0.7555
3813	0.7553
3822	0.7549
3831	0.7543
3840	0.7538
3849	0.7532
3858	0.7527
3867	0.752
3876	0.7511
3885	0.7503
3894	0.7494
3903	0.7484
3912	0.7475
3921	0.7466
3930	0.7454
3939	0.7438
3948	0.7423
3957	0.7407
3966	0.7392
3975	0.7378
3984	0.737
3993	0.736
