Infrared Spectrum: Orotic acid, dihydro-, L-
Formula: C5 H6 N2 O4
CAS: 5988-19-2
State: SOLID (KBr DISC)
Class: COBLENTZ III
Instrument: PERKIN-ELMER 21 (GRATING)
Instrument parameters: FILTER CHANGE ABOUT 1085 CM^-^1
Resolution: 2
Origin: SOUTHERN RESEARCH INSTITUTE
1/CM	TRANSMITTANCE
597	0.766
606	0.7606
615	0.7579
624	0.7516
633	0.7297
642	0.7179
651	0.7042
660	0.6893
669	0.6687
678	0.6374
687	0.5793
696	0.4832
705	0.4591
714	0.4706
723	0.5735
732	0.5812
741	0.5826
750	0.5818
759	0.4797
768	0.403
777	0.5613
786	0.5784
795	0.5631
804	0.5237
813	0.4834
822	0.4857
831	0.5605
840	0.6387
849	0.6596
858	0.6587
867	0.6365
876	0.6041
885	0.5723
894	0.5416
903	0.4884
912	0.4647
921	0.478
930	0.5213
939	0.5517
948	0.5609
957	0.6757
966	0.6862
975	0.6858
984	0.7275
993	0.7364
1002	0.7351
1011	0.7324
1020	0.7293
1029	0.7273
1038	0.7238
1047	0.7147
1056	0.7047
1065	0.6945
1074	0.6994
1083	0.6754
1092	0.7043
1101	0.7001
1110	0.6845
1119	0.6673
1128	0.6483
1137	0.6276
1146	0.6064
1155	0.5887
1164	0.5253
1173	0.432
1182	0.4255
1191	0.5121
1200	0.4876
1209	0.4953
1218	0.5035
1227	0.4486
1236	0.304
1245	0.1719
1254	0.3392
1263	0.4956
1272	0.4071
1281	0.3902
1290	0.4337
1299	0.3348
1308	0.2115
1317	0.1768
1326	0.253
1335	0.2777
1344	0.2647
1353	0.3111
1362	0.3696
1371	0.4986
1380	0.5193
1389	0.5126
1398	0.4832
1407	0.4204
1416	0.3184
1425	0.2358
1434	0.2315
1443	0.326
1452	0.4463
1461	0.4694
1470	0.449
1479	0.4809
1488	0.587
1497	0.6572
1506	0.6821
1515	0.6826
1524	0.697
1533	0.7295
1542	0.722
1551	0.7041
1560	0.6798
1569	0.6615
1578	0.6368
1587	0.6089
1596	0.5679
1605	0.5068
1614	0.447
1623	0.4052
1632	0.368
1641	0.3246
1650	0.2209
1659	0.1938
1668	0.2402
1677	0.2784
1686	0.2529
1695	0.1789
1704	0.1001
1713	0.0524
1722	0.0382
1731	0.0388
1740	0.0549
1749	0.0826
1758	0.1805
1767	0.3502
1776	0.3991
1785	0.452
1794	0.4902
1803	0.5259
1812	0.5424
1821	0.5593
1830	0.5835
1839	0.5988
1848	0.6083
1857	0.6149
1866	0.6212
1875	0.6309
1884	0.642
1893	0.6518
1902	0.66
1911	0.6712
1920	0.6792
1929	0.6903
1938	0.6835
1947	0.6877
1956	0.6931
1965	0.7047
1974	0.7041
1983	0.703
1992	0.7053
2001	0.7222
2010	0.7249
2019	0.7242
2028	0.7234
2037	0.723
2046	0.7224
2055	0.722
2064	0.7221
2073	0.7231
2082	0.7232
2091	0.7229
2100	0.7222
2109	0.7213
2118	0.7205
2127	0.7197
2136	0.7193
2145	0.7184
2154	0.7178
2163	0.7174
2172	0.7172
2181	0.7178
2190	0.7157
2199	0.7128
2208	0.7104
2217	0.7072
2226	0.7039
2235	0.7003
2244	0.6964
2253	0.6928
2262	0.6883
2271	0.6837
2280	0.679
2289	0.6732
2298	0.6665
2307	0.6597
2316	0.6521
2325	0.647
2334	0.6444
2343	0.6424
2352	0.6406
2361	0.6378
2370	0.6345
2379	0.6283
2388	0.6083
2397	0.5977
2406	0.5931
2415	0.5867
2424	0.5805
2433	0.5757
2442	0.5723
2451	0.5642
2460	0.5546
2469	0.5452
2478	0.5372
2487	0.5386
2496	0.5397
2505	0.5338
2514	0.5264
2523	0.5256
2532	0.5248
2541	0.5167
2550	0.5106
2559	0.5088
2568	0.51
2577	0.5119
2586	0.5212
2595	0.5264
2604	0.5296
2613	0.5299
2622	0.5321
2631	0.5366
2640	0.5457
2649	0.5597
2658	0.5624
2667	0.5621
2676	0.5598
2685	0.5568
2694	0.5533
2703	0.5487
2712	0.5434
2721	0.5382
2730	0.5332
2739	0.5281
2748	0.5211
2757	0.5149
2766	0.5105
2775	0.5065
2784	0.5033
2793	0.4825
2802	0.4681
2811	0.4635
2820	0.4552
2829	0.4493
2838	0.4433
2847	0.4409
2856	0.4417
2865	0.4395
2874	0.4354
2883	0.4323
2892	0.4309
2901	0.4304
2910	0.4315
2919	0.4346
2928	0.4383
2937	0.4447
2946	0.4555
2955	0.4545
2964	0.4519
2973	0.4481
2982	0.4454
2991	0.4433
3000	0.4416
3009	0.4381
3018	0.4321
3027	0.42
3036	0.4068
3045	0.3872
3054	0.3713
3063	0.358
3072	0.3467
3081	0.3376
3090	0.3337
3099	0.3306
3108	0.3271
3117	0.3205
3126	0.3099
3135	0.29
3144	0.2675
3153	0.2639
3162	0.2636
3171	0.2602
3180	0.252
3189	0.2433
3198	0.2378
3207	0.2357
3216	0.2351
3225	0.2377
3234	0.2504
3243	0.2856
3252	0.2935
3261	0.33
3270	0.3514
3279	0.3641
3288	0.3782
3297	0.4043
3306	0.4157
3315	0.4201
3324	0.4228
3333	0.4348
3342	0.4532
3351	0.4622
3360	0.466
3369	0.4668
3378	0.4664
3387	0.4637
3396	0.4626
3405	0.4633
3414	0.4662
3423	0.4703
3432	0.4784
3441	0.4906
3450	0.4998
3459	0.5093
3468	0.5178
3477	0.5293
3486	0.5393
3495	0.5436
3504	0.5478
3513	0.5532
3522	0.5576
3531	0.5754
3540	0.5896
3549	0.6048
3558	0.6165
3567	0.6264
3576	0.6351
3585	0.6436
3594	0.6515
3603	0.6593
3612	0.663
3621	0.6754
3630	0.6846
3639	0.6903
3648	0.6961
3657	0.6976
3666	0.7042
3675	0.7065
3684	0.7231
3693	0.7285
3702	0.7279
3711	0.7271
3720	0.7262
3729	0.7269
3738	0.7285
3747	0.7301
3756	0.7296
3765	0.7346
3774	0.7468
3783	0.7457
3792	0.7419
3801	0.7432
3810	0.7356
3819	0.7313
3828	0.7301
3837	0.7297
3846	0.7293
3855	0.7291
3864	0.7296
3873	0.73
3882	0.73
3891	0.7301
3900	0.7302
