Infrared Spectrum: d-Limonene
Formula: C 10 H 16
CAS: 5989-27-5
State: gas
Instrument: HP-GC/MS/IRD
Origin: NIST Mass Spectrometry Data Center
1/CM	ABSORBANCE
550	0.0008748
562	0.0004077
574	0.0002268
586	0.0002295
598	5.13e-05
610	0.0001107
622	0.0002268
634	0.0001755
646	0.0002376
658	0.0001026
670	0.0001539
682	0.0001431
694	0.0001269
706	9.99e-05
718	0.0002214
730	0.0002484
742	0.0002673
754	0.0004266
766	0.0005211
778	0.0008478
790	0.0019737
802	0.0021573
814	0.0010692
826	0.0004698
838	0.0005211
850	0.0007452
862	0.0012285
874	0.0032238
886	0.0068931
898	0.0068445
910	0.0036396
922	0.0020223
934	0.0010881
946	0.0008262
958	0.000756
970	0.00054
982	0.0004671
994	0.0006075
1006	0.0008343
1018	0.0008802
1030	0.0007479
1042	0.0009099
1054	0.0009099
1066	0.0005751
1078	0.000405
1090	0.0003807
1102	0.0005454
1114	0.0006264
1126	0.0005589
1138	0.0010395
1150	0.0018981
1162	0.0013824
1174	0.0006912
1186	0.0007155
1198	0.0010017
1210	0.0009126
1222	0.0010314
1234	0.0012123
1246	0.0009855
1258	0.0007074
1270	0.0006669
1282	0.0008505
1294	0.0009126
1306	0.0009153
1318	0.0009558
1330	0.000891
1342	0.0009099
1354	0.0010719
1366	0.0020196
1378	0.0034911
1390	0.0026919
1402	0.0014985
1414	0.0016659
1426	0.0028809
1438	0.0048789
1450	0.0056673
1462	0.0044037
1474	0.0021465
1486	0.00108
1498	0.000675
1510	0.0005292
1522	0.0004266
1534	0.0003915
1546	0.000405
1558	0.0004455
1570	0.0006264
1582	0.0008235
1594	0.0009045
1606	0.0010422
1618	0.0015012
1630	0.0027756
1642	0.0040878
1654	0.0027729
1666	0.0010827
1678	0.0006129
1690	0.0004212
1702	0.0003105
1714	0.0002889
1726	0.0002511
1738	0.0002025
1750	0.0002025
1762	0.0002376
1774	0.0004401
1786	0.0005886
1798	0.0004941
1810	0.0002835
1822	0.0001647
1834	0.0001215
1846	0.0001215
1858	0.0001296
1870	9.18e-05
1882	9.99e-05
1894	9.72e-05
1906	6.75e-05
1918	0.0001107
1930	9.18e-05
1942	8.37e-05
1954	7.83e-05
1966	8.64e-05
1978	5.67e-05
1990	2.97e-05
2002	4.86e-05
2014	6.21e-05
2026	3.78e-05
2038	8.1e-05
2050	4.32e-05
2062	6.75e-05
2074	7.29e-05
2086	3.78e-05
2098	3.51e-05
2110	4.32e-05
2122	6.21e-05
2134	4.32e-05
2146	5.13e-05
2158	6.75e-05
2170	4.32e-05
2182	5.4e-05
2194	5.94e-05
2206	2.97e-05
2218	4.59e-05
2230	5.4e-05
2242	7.29e-05
2254	0.0001053
2266	4.32e-05
2278	4.86e-05
2290	4.59e-05
2302	5.67e-05
2314	1.89e-05
2326	4.86e-05
2338	7.29e-05
2350	0.0001161
2362	7.83e-05
2374	9.45e-05
2386	7.29e-05
2398	7.02e-05
2410	7.29e-05
2422	6.48e-05
2434	5.13e-05
2446	7.56e-05
2458	0.0001458
2470	0.000162
2482	0.0001161
2494	0.0001296
2506	0.000135
2518	0.0001377
2530	0.0001161
2542	0.0001512
2554	0.0001377
2566	0.0001296
2578	0.0001458
2590	0.0001485
2602	0.0002025
2614	0.0002106
2626	0.0002052
2638	0.0002241
2650	0.0002457
2662	0.0003321
2674	0.000351
2686	0.0003213
2698	0.0003429
2710	0.0004293
2722	0.0005805
2734	0.0008073
2746	0.0007398
2758	0.0005805
2770	0.0006048
2782	0.0006993
2794	0.000999
2806	0.001404
2818	0.0023193
2830	0.0048627
2842	0.0091719
2854	0.011124
2866	0.0125118
2878	0.0132003
2890	0.0154629
2902	0.0196587
2914	0.0243891
2926	0.027
2938	0.0237222
2950	0.0165645
2962	0.0123741
2974	0.013203
2986	0.00945
2998	0.0063531
3010	0.0059373
3022	0.0047034
3034	0.0033696
3046	0.0030186
3058	0.0028458
3070	0.0037773
3082	0.0049626
3094	0.0035829
3106	0.0014013
3118	0.0008478
3130	0.0005481
3142	0.0003618
3154	0.0003132
3166	0.0002187
3178	0.0002403
3190	0.0001458
3202	0.0001458
3214	9.18e-05
3226	8.64e-05
3238	0.0001053
3250	0.0001404
3262	0.0001161
3274	0.0001215
3286	9.18e-05
3298	8.1e-05
3310	9.99e-05
3322	0.0001134
3334	8.37e-05
3346	0.000135
3358	5.13e-05
3370	5.67e-05
3382	0.0001269
3394	0.0001188
3406	7.56e-05
3418	6.75e-05
3430	7.29e-05
3442	8.91e-05
3454	8.91e-05
3466	4.86e-05
3478	6.21e-05
3490	4.59e-05
3502	1.62e-05
3514	2.7e-05
3526	7.02e-05
3538	4.32e-05
3550	4.86e-05
3562	6.21e-05
3574	0.0001026
3586	5.94e-05
3598	3.24e-05
3610	4.32e-05
3622	5.67e-05
3634	9.72e-05
3646	0.0001323
3658	6.48e-05
3670	6.21e-05
3682	0.0001269
3694	0.000135
3706	0.0001107
3718	0.0001269
3730	8.1e-05
3742	5.4e-05
3754	8.64e-05
3766	0.0001323
3778	0.000108
3790	0.0001566
3802	9.72e-05
3814	0.0001269
3826	9.72e-05
3838	4.86e-05
