Infrared Spectrum: P-CHLOROPHENYL-P-TOLUENESULFONATE
Formula: C13 H11 Cl O3 S
CAS: 599-89-3
State: SOLID (MINERAL OIL MULL)
Melting point: 78-80 C
Class: COBLENTZ
Instrument: Not specified, most likely a prism, grating, or hybrid spectrometer.
Sampling: TRANSMISSION
Resolution: 4
Origin: WYANDOTTE CHEMICALS CORP., WYANDOTTE, MICHIGAN, USA
MICROMETERS	TRANSMITTANCE
2.027	0.538
2.06681	0.541
2.10662	0.543
2.14643	0.548
2.18623	0.551
2.22604	0.556
2.26585	0.561
2.30566	0.566
2.34547	0.573
2.38528	0.578
2.42509	0.588
2.4649	0.598
2.5047	0.599
2.54451	0.606
2.58432	0.612
2.62413	0.619
2.66394	0.622
2.70375	0.627
2.74356	0.634
2.78336	0.637
2.82317	0.637
2.86298	0.637
2.90279	0.639
2.9426	0.639
2.98241	0.639
3.02222	0.639
3.06202	0.639
3.10183	0.642
3.14164	0.637
3.18145	0.627
3.22126	0.611
3.26107	0.546
3.30088	0.529
3.34069	0.431
3.38049	0.144
3.4203	0.064
3.46011	0.117
3.49992	0.184
3.53973	0.245
3.57954	0.686
3.61935	0.775
3.65915	0.802
3.69896	0.78
3.73877	0.785
3.77858	0.787
3.81839	0.799
3.8582	0.799
3.89801	0.799
3.93782	0.81
3.97762	0.818
4.01743	0.827
4.05724	0.84
4.09705	0.843
4.13686	0.842
4.17667	0.838
4.21648	0.845
4.25628	0.835
4.29609	0.827
4.3359	0.83
4.37571	0.837
4.41552	0.858
4.45533	0.862
4.49514	0.86
4.53494	0.867
4.57475	0.873
4.61456	0.883
4.65437	0.885
4.69418	0.887
4.73399	0.893
4.7738	0.901
4.81361	0.905
4.85341	0.903
4.89322	0.91
4.93303	0.908
4.97284	0.908
5.01265	0.908
5.05246	0.908
5.09227	0.908
5.13207	0.91
5.17188	0.918
5.21169	0.911
5.2515	0.877
5.29131	0.91
5.33112	0.89
5.37093	0.87
5.41073	0.916
5.45054	0.923
5.49035	0.928
5.53016	0.93
5.56997	0.892
5.60978	0.928
5.64959	0.93
5.6894	0.918
5.7292	0.905
5.76901	0.936
5.80882	0.941
5.84863	0.94
5.88844	0.928
5.92825	0.936
5.96806	0.926
6.00786	0.91
6.04767	0.86
6.08748	0.86
6.12729	0.862
6.1671	0.865
6.20691	0.882
6.24672	0.478
6.28653	0.762
6.32633	0.84
6.36614	0.872
6.40595	0.883
6.44576	0.892
6.48557	0.882
6.52538	0.875
6.56519	0.838
6.60499	0.795
6.6448	0.792
6.68461	0.519
6.72442	0.117
6.76423	0.167
6.80404	0.303
6.84385	0.294
6.88365	0.333
6.92346	0.428
6.96327	0.569
7.00308	0.697
7.04289	0.752
7.0827	0.769
7.12251	0.616
7.16232	0.641
7.20212	0.641
7.24193	0.377
7.28174	0.176
7.32155	0.051
7.36136	0.102
7.40117	0.307
7.44098	0.405
7.48078	0.609
7.52059	0.725
7.5604	0.782
7.60021	0.803
7.64002	0.662
7.67983	0.715
7.71964	0.636
7.75945	0.641
7.79925	0.747
7.83906	0.78
7.87887	0.794
7.91868	0.857
7.95849	0.863
7.9983	0.867
8.03811	0.857
8.07791	0.868
8.11772	0.85
8.15753	0.795
8.19734	0.74
8.23715	0.566
8.27696	0.533
8.31677	0.453
8.35657	0.117
8.39638	0.3
8.43619	0.322
8.476	0.116
8.51581	0.069
8.55562	0.066
8.59543	0.172
8.63524	0.212
8.67504	0.124
8.71485	0.177
8.75466	0.26
8.79447	0.413
8.83428	0.554
8.87409	0.641
8.9139	0.574
8.9537	0.614
8.99351	0.661
9.03332	0.679
9.07313	0.544
9.11294	0.237
9.15275	0.139
9.19256	0.151
9.23236	0.202
9.27217	0.315
9.31198	0.453
9.35179	0.611
9.3916	0.672
9.43141	0.717
9.47122	0.752
9.51103	0.77
9.55083	0.775
9.59064	0.755
9.63045	0.745
9.67026	0.78
9.71007	0.813
9.74988	0.838
9.78969	0.842
9.82949	0.699
9.8693	0.481
9.90911	0.431
9.94892	0.755
9.98873	0.812
10.0285	0.853
10.0683	0.86
10.1082	0.863
10.148	0.873
10.1878	0.872
10.2276	0.862
10.2674	0.86
10.3072	0.865
10.347	0.877
10.3868	0.882
10.4266	0.885
10.4664	0.883
10.5062	0.867
10.5461	0.857
10.5859	0.843
10.6257	0.87
10.6655	0.792
10.7053	0.747
10.7451	0.651
10.7849	0.749
10.8247	0.875
10.8645	0.89
10.9043	0.887
10.9441	0.88
10.9839	0.877
11.0238	0.865
11.0636	0.853
11.1034	0.837
11.1432	0.81
11.183	0.774
11.2228	0.73
11.2626	0.681
11.3024	0.629
11.3422	0.551
11.382	0.455
11.4218	0.265
11.4616	0.122
11.5015	0.053
11.5413	0.041
11.5811	0.049
11.6209	0.114
11.6607	0.22
11.7005	0.328
11.7403	0.41
11.7801	0.468
11.8199	0.491
11.8597	0.485
11.8995	0.416
11.9394	0.277
11.9792	0.202
12.019	0.161
12.0588	0.101
12.0986	0.212
12.1384	0.325
12.1782	0.38
12.218	0.315
12.2578	0.205
12.2976	0.239
12.3374	0.232
12.3772	0.388
12.4171	0.559
12.4569	0.621
12.4967	0.656
12.5365	0.682
12.5763	0.694
12.6161	0.714
12.6559	0.767
12.6957	0.817
12.7355	0.842
12.7753	0.852
12.8151	0.862
12.855	0.87
12.8948	0.87
12.9346	0.853
12.9744	0.818
13.0142	0.739
13.054	0.609
13.0938	0.368
13.1336	0.142
13.1734	0.071
13.2132	0.054
13.253	0.088
13.2928	0.176
13.3327	0.275
13.3725	0.373
13.4123	0.445
13.4521	0.498
13.4919	0.554
13.5317	0.604
13.5715	0.654
13.6113	0.692
13.6511	0.712
13.6909	0.737
13.7307	0.754
13.7706	0.769
13.8104	0.782
13.8502	0.79
13.89	0.795
13.9298	0.8
13.9696	0.818
14.0094	0.84
14.0492	0.848
14.089	0.85
14.1288	0.779
14.1686	0.612
14.2084	0.455
14.2483	0.443
14.2881	0.589
14.3279	0.696
14.3677	0.749
14.4075	0.77
14.4473	0.782
14.4871	0.785
14.5269	0.784
14.5667	0.769
14.6065	0.735
14.6463	0.694
14.6861	0.642
14.726	0.578
14.7658	0.493
14.8056	0.398
14.8454	0.303
14.8852	0.26
14.925	0.25
14.9648	0.282
15.0046	0.32
15.0444	0.398
15.0842	0.493
15.124	0.596
15.1639	0.661
15.2037	0.694
15.2435	0.719
15.2833	0.732
15.3231	0.737
15.3629	0.754
15.4027	0.76
15.4425	0.765
15.4823	0.764
15.5221	0.744
15.5619	0.722
15.6017	0.686
15.6416	0.639
15.6814	0.619
15.7212	0.616
15.761	0.649
15.8008	0.672
15.8406	0.674
15.8804	0.674
15.9202	0.669
15.96	0.667
