Infrared Spectrum: BENZENE SULFOHYDROXAMIC ACID
Formula: C6 H7 N O3 S
CAS: 599-71-3
State: SOLID (MINERAL OIL MULL)
Class: COBLENTZ
Instrument: Not specified, most likely a prism, grating, or hybrid spectrometer.
Sampling: TRANSMISSION
Resolution: 4
Origin: DOW CHEMICAL COMPANY
MICROMETERS	TRANSMITTANCE
2.013	0.404
2.05308	0.41
2.09315	0.419
2.13323	0.425
2.1733	0.434
2.21338	0.439
2.25346	0.44
2.29353	0.447
2.33361	0.459
2.37368	0.467
2.41376	0.475
2.45384	0.492
2.49391	0.502
2.53399	0.51
2.57406	0.519
2.61414	0.529
2.65422	0.534
2.69429	0.547
2.73437	0.554
2.77444	0.567
2.81452	0.564
2.8546	0.437
2.89467	0.208
2.93475	0.332
2.97482	0.41
3.0149	0.442
3.05497	0.317
3.09505	0.372
3.13513	0.422
3.1752	0.444
3.21528	0.454
3.25535	0.439
3.29543	0.407
3.33551	0.25
3.37558	0.046
3.41566	0.083
3.45573	0.133
3.49581	0.33
3.53589	0.55
3.57596	0.592
3.61604	0.607
3.65611	0.609
3.69619	0.619
3.73627	0.622
3.77634	0.632
3.81642	0.644
3.85649	0.654
3.89657	0.662
3.93665	0.671
3.97672	0.674
4.0168	0.686
4.05687	0.686
4.09695	0.692
4.13703	0.699
4.1771	0.699
4.21718	0.694
4.25725	0.701
4.29733	0.719
4.33741	0.724
4.37748	0.726
4.41756	0.722
4.45763	0.734
4.49771	0.739
4.53779	0.744
4.57786	0.744
4.61794	0.747
4.65801	0.749
4.69809	0.751
4.73817	0.756
4.77824	0.759
4.81832	0.761
4.85839	0.762
4.89847	0.764
4.93855	0.759
4.97862	0.767
5.0187	0.757
5.05877	0.774
5.09885	0.779
5.13893	0.771
5.179	0.769
5.21908	0.771
5.25915	0.782
5.29923	0.791
5.3393	0.791
5.37938	0.786
5.41946	0.792
5.45953	0.791
5.49961	0.799
5.53968	0.797
5.57976	0.796
5.61984	0.799
5.65991	0.808
5.69999	0.799
5.74006	0.799
5.78014	0.808
5.82022	0.803
5.86029	0.796
5.90037	0.797
5.94044	0.796
5.98052	0.797
6.0206	0.797
6.06067	0.814
6.10075	0.801
6.14082	0.789
6.1809	0.808
6.22098	0.813
6.26105	0.769
6.30113	0.806
6.3412	0.819
6.38128	0.818
6.42136	0.821
6.46143	0.813
6.50151	0.821
6.54158	0.816
6.58166	0.818
6.62174	0.813
6.66181	0.782
6.70189	0.704
6.74196	0.494
6.78204	0.352
6.82212	0.327
6.86219	0.318
6.90227	0.585
6.94234	0.746
6.98242	0.766
7.0225	0.752
7.06257	0.747
7.10265	0.764
7.14272	0.726
7.1828	0.567
7.22288	0.474
7.26295	0.472
7.30303	0.412
7.3431	0.297
7.38318	0.277
7.42325	0.338
7.46333	0.252
7.50341	0.163
7.54348	0.218
7.58356	0.273
7.62363	0.395
7.66371	0.447
7.70379	0.545
7.74386	0.585
7.78394	0.637
7.82401	0.686
7.86409	0.716
7.90417	0.742
7.94424	0.754
7.98432	0.764
8.02439	0.767
8.06447	0.772
8.10455	0.772
8.14462	0.766
8.1847	0.751
8.22477	0.749
8.26485	0.772
8.30493	0.751
8.345	0.726
8.38508	0.627
8.42515	0.474
8.46523	0.312
8.50531	0.215
8.54538	0.136
8.58546	0.16
8.62553	0.292
8.66561	0.439
8.70569	0.554
8.74576	0.604
8.78584	0.647
8.82591	0.669
8.86599	0.689
8.90607	0.722
8.94614	0.746
8.98622	0.752
9.02629	0.744
9.06637	0.729
9.10645	0.671
9.14652	0.519
9.1866	0.492
9.22667	0.686
9.26675	0.701
9.30682	0.649
9.3469	0.709
9.38698	0.747
9.42705	0.764
9.46713	0.776
9.5072	0.779
9.54728	0.789
9.58736	0.791
9.62743	0.782
9.66751	0.751
9.70758	0.761
9.74766	0.769
9.78774	0.776
9.82781	0.779
9.86789	0.729
9.90796	0.636
9.94804	0.554
9.98812	0.549
10.0282	0.584
10.0683	0.676
10.1083	0.744
10.1484	0.779
10.1885	0.801
10.2286	0.818
10.2686	0.824
10.3087	0.833
10.3488	0.838
10.3889	0.843
10.429	0.844
10.469	0.844
10.5091	0.839
10.5492	0.823
10.5893	0.796
10.6293	0.751
10.6694	0.764
10.7095	0.756
10.7496	0.709
10.7896	0.682
10.8297	0.731
10.8698	0.769
10.9099	0.794
10.9499	0.803
10.99	0.813
11.0301	0.816
11.0702	0.819
11.1102	0.819
11.1503	0.821
11.1904	0.821
11.2305	0.823
11.2705	0.823
11.3106	0.826
11.3507	0.823
11.3908	0.823
11.4309	0.824
11.4709	0.826
11.511	0.824
11.5511	0.819
11.5912	0.814
11.6312	0.803
11.6713	0.813
11.7114	0.814
11.7515	0.811
11.7915	0.809
11.8316	0.808
11.8717	0.811
11.9118	0.811
11.9518	0.808
11.9919	0.804
12.032	0.803
12.0721	0.799
12.1121	0.796
12.1522	0.792
12.1923	0.786
12.2324	0.779
12.2724	0.769
12.3125	0.766
12.3526	0.766
12.3927	0.761
12.4328	0.756
12.4728	0.752
12.5129	0.751
12.553	0.744
12.5931	0.742
12.6331	0.732
12.6732	0.726
12.7133	0.711
12.7534	0.699
12.7934	0.682
12.8335	0.654
12.8736	0.629
12.9137	0.601
12.9537	0.552
12.9938	0.492
13.0339	0.385
13.074	0.255
13.114	0.268
13.1541	0.323
13.1942	0.315
13.2343	0.258
13.2743	0.22
13.3144	0.19
13.3545	0.165
13.3946	0.151
13.4346	0.15
13.4747	0.16
13.5148	0.193
13.5549	0.24
13.595	0.305
13.635	0.36
13.6751	0.414
13.7152	0.452
13.7553	0.487
13.7953	0.517
13.8354	0.54
13.8755	0.569
13.9156	0.59
13.9556	0.619
13.9957	0.632
14.0358	0.647
14.0759	0.656
14.1159	0.661
14.156	0.662
14.1961	0.652
14.2362	0.632
14.2762	0.599
14.3163	0.56
14.3564	0.519
14.3965	0.469
14.4365	0.368
14.4766	0.263
14.5167	0.228
14.5568	0.238
14.5969	0.267
14.6369	0.27
14.677	0.248
14.7171	0.223
14.7572	0.202
14.7972	0.193
14.8373	0.185
14.8774	0.18
14.9175	0.198
14.9575	0.26
14.9976	0.298
15.0377	0.32
15.0778	0.342
15.1178	0.362
15.1579	0.38
15.198	0.393
15.2381	0.402
15.2781	0.409
15.3182	0.412
15.3583	0.414
15.3984	0.415
15.4384	0.414
15.4785	0.407
15.5186	0.407
15.5587	0.4
15.5988	0.395
15.6388	0.387
15.6789	0.382
15.719	0.38
15.7591	0.375
15.7991	0.37
15.8392	0.368
15.8793	0.377
