Infrared Spectrum: Di-p-tolyl sulfone
Formula: C 14 H 14 O 2 S
CAS: 599-66-6
State: gas
Origin: EPA-IR VAPOR PHASE LIBRARY
1/CM	ABSORBANCE
549.9	0.011038
559.547	0.008948
569.193	0.001958
578.84	0.0013665
588.486	0.0011974
598.133	0.0010806
607.779	0.0012875
617.426	0.001928
627.072	0.003608
636.719	0.002538
646.365	0.001748
656.012	0.002308
665.658	0.005048
675.305	0.014358
684.951	0.006678
694.598	0.002858
704.245	0.007368
713.891	0.003868
723.538	0.0012291
733.184	0.0009204
742.831	0.0008382
752.477	0.0007827
762.124	0.0008303
771.77	0.0010245
781.417	0.001538
791.063	0.002168
800.71	0.002948
810.356	0.004288
820.003	0.003058
829.649	0.001518
839.296	0.0011029
848.943	0.0009824
858.589	0.0008486
868.236	0.0008292
877.882	0.0007787
887.529	0.0007998
897.175	0.000738
906.822	0.0007595
916.468	0.0007339
926.115	0.0007657
935.761	0.000733
945.408	0.0007289
955.054	0.0007784
964.701	0.0007395
974.347	0.0007739
983.994	0.0007784
993.64	0.0008102
1003.29	0.0008556
1012.93	0.001508
1022.58	0.001788
1032.23	0.0009896
1041.87	0.001022
1051.52	0.0010652
1061.17	0.0011773
1070.81	0.001688
1080.46	0.002118
1090.11	0.002618
1099.75	0.006558
1109.4	0.008678
1119.05	0.002948
1128.69	0.001978
1138.34	0.002338
1147.99	0.004138
1157.63	0.012728
1167.28	0.015498
1176.92	0.004938
1186.57	0.003248
1196.22	0.002818
1205.86	0.002818
1215.51	0.002538
1225.16	0.002028
1234.8	0.001668
1244.45	0.001718
1254.1	0.0013733
1263.74	0.001568
1273.39	0.001768
1283.04	0.001908
1292.68	0.001698
1302.33	0.002348
1311.98	0.002058
1321.62	0.002088
1331.27	0.004108
1340.92	0.009378
1350.56	0.007928
1360.21	0.002238
1369.86	0.0012984
1379.5	0.0014242
1389.15	0.001548
1398.79	0.001698
1408.44	0.001798
1418.09	0.001598
1427.73	0.0014329
1437.38	0.0012781
1447.03	0.0011785
1456.67	0.0011882
1466.32	0.0011805
1475.97	0.0011801
1485.61	0.001628
1495.26	0.002158
1504.91	0.001548
1514.55	0.0011419
1524.2	0.0010071
1533.85	0.0009635
1543.49	0.0009245
1553.14	0.00091
1562.79	0.0009239
1572.43	0.0010635
1582.08	0.0013748
1591.73	0.002178
1601.37	0.002578
1611.02	0.001588
1620.67	0.0010893
1630.31	0.0009279
1639.96	0.0008781
1649.6	0.000835
1659.25	0.0007323
1668.9	0.000626
1678.54	0.0006473
1688.19	0.0005939
1697.84	0.0006038
1707.48	0.00051176
1717.13	0.00054007
1726.78	0.0006026
1736.42	0.0006231
1746.07	0.0006018
1755.72	0.0006896
1765.36	0.0005914
1775.01	0.00054195
1784.66	0.0006349
1794.3	0.0007614
1803.95	0.000669
1813.6	0.00050927
1823.24	0.0004654
1832.89	0.00053118
1842.54	0.00050568
1852.18	0.0004364
1861.83	0.0005173
1871.47	0.00053122
1881.12	0.0005823
1890.77	0.00057031
1900.41	0.0006809
1910.06	0.0007827
1919.71	0.0006935
1929.35	0.00055298
1939	0.00049519
1948.65	0.0005114
1958.29	0.00052893
1967.94	0.00050586
1977.59	0.00047425
1987.23	0.0004326
1996.88	0.0004549
2006.53	0.0004198
2016.17	0.0004243
2025.82	0.0004516
2035.47	0.0004008
2045.11	0.0004311
2054.76	0.0004396
2064.41	0.000352
2074.05	0.0003833
2083.7	0.000354
2093.35	0.0003788
2102.99	0.000334
2112.64	0.000303
2122.28	0.000367
2131.93	0.000324
2141.58	0.000283
2151.22	0.00027
2160.87	0.000307
2170.52	0.00034
2180.16	0.000351
2189.81	0.00031
2199.46	0.000332
2209.1	0.00029
2218.75	0.000317
2228.4	0.000281
2238.04	0.000328
2247.69	0.000307
2257.34	0.000297
2266.98	0.0003
2276.63	0.000358
2286.28	0.000302
2295.92	0.000345
2305.57	0.000333
2315.22	0.000299
2324.86	0.000271
2334.51	0.000303
2344.16	0.000296
2353.8	0.000225
2363.45	0.000292
2373.09	0.000273
2382.74	0.000266
2392.39	0.000298
2402.03	0.000327
2411.68	0.000281
2421.33	0.000241
2430.97	0.000226
2440.62	0.000242
2450.27	0.000199
2459.91	0.000206
2469.56	0.000222
2479.21	0.000209
2488.85	0.000196
2498.5	0.000225
2508.15	0.000219
2517.79	0.000174
2527.44	0.000161
2537.09	0.000171
2546.73	0.000183
2556.38	0.000207
2566.03	0.000182
2575.67	0.000198
2585.32	0.000185
2594.96	0.000227
2604.61	0.000206
2614.26	0.000134
2623.9	0.000133
2633.55	0.000116
2643.2	0.000126
2652.84	8.6e-05
2662.49	0.000104
2672.14	0.000137
2681.78	0.00015
2691.43	0.000174
2701.08	0.000114
2710.72	7.4e-05
2720.37	0.000139
2730.02	4.3e-05
2739.66	0.000156
2749.31	0.000129
2758.96	0.000148
2768.6	5.7e-05
2778.25	2.6e-05
2787.9	0.000109
2797.54	0.000107
2807.19	0.000105
2816.84	0.000154
2826.48	0.000168
2836.13	0.000183
2845.77	0.000258
2855.42	0.0004474
2865.07	0.0007843
2874.71	0.0009039
2884.36	0.0008759
2894.01	0.000903
2903.65	0.0008528
2913.3	0.000787
2922.95	0.0013459
2932.59	0.002258
2942.24	0.001888
2951.89	0.0010051
2961.53	0.0007031
2971.18	0.0007152
2980.83	0.0008124
2990.47	0.0008516
3000.12	0.0009649
3009.77	0.0011065
3019.41	0.001308
3029.06	0.001878
3038.71	0.002138
3048.35	0.002118
3058	0.001668
3067.64	0.001678
3077.29	0.0013488
3086.94	0.0010707
3096.58	0.0007639
3106.23	0.0007243
3115.88	0.0007443
3125.52	0.00051876
3135.17	0.00053094
3144.82	0.0006099
3154.46	0.0005878
3164.11	0.0006068
3173.76	0.00056005
3183.4	0.00056841
3193.05	0.0006201
3202.7	0.0006715
3212.34	0.0006759
3221.99	0.0007047
3231.64	0.000833
3241.28	0.0007527
3250.93	0.0008911
3260.58	0.0007892
3270.22	0.0008177
3279.87	0.001069
3289.52	0.0008538
3299.16	0.0009389
3308.81	0.001086
3318.45	0.0009903
3328.1	0.0010265
3337.75	0.0011247
3347.39	0.0011251
3357.04	0.0010109
3366.69	0.0010736
3376.33	0.0011288
3385.98	0.0012626
3395.63	0.0012316
3405.27	0.0011244
3414.92	0.0010658
3424.57	0.0010683
3434.21	0.0011698
3443.86	0.0010505
3453.51	0.0011726
3463.15	0.0010171
3472.8	0.0010565
3482.45	0.0011697
3492.09	0.0011106
3501.74	0.0011656
3511.39	0.0010798
3521.03	0.0012343
3530.68	0.0010514
3540.33	0.0010193
3549.97	0.0012512
3559.62	0.0010797
3569.26	0.0011222
3578.91	0.0009834
3588.56	0.0009657
3598.2	0.0010425
3607.85	0.0010146
3617.5	0.0009692
3627.14	0.0010566
3636.79	0.001034
3646.44	0.0010063
3656.08	0.0009759
3665.73	0.000988
3675.38	0.0009972
3685.02	0.0009121
3694.67	0.0008857
3704.32	0.0009354
3713.96	0.0009595
3723.61	0.0010094
3733.26	0.0009243
3742.9	0.0009181
3752.55	0.0009184
3762.2	0.000821
3771.84	0.0007973
3781.49	0.0008193
3791.13	0.0007483
3800.78	0.0008232
3810.43	0.0008313
3820.07	0.0008217
3829.72	0.0008583
3839.37	0.0007661
3849.01	0.0009033
3858.66	0.0007942
3868.31	0.0008516
3877.95	0.0006336
3887.6	0.0007298
3897.25	0.0008361
3906.89	0.0007331
3916.54	0.0007188
3926.19	0.0006986
3935.83	0.0006305
3945.48	0.0007041
3955.13	0.0006394
3964.77	0.0006678
3974.42	0.0007059
3984.07	0.0005901
3993.71	0.0006812
