Infrared Spectrum: N-(P-TOLUENE SULFONYL)-P-TOLUIDIDE
Formula: C14 H15 N O2 S
CAS: 599-86-0
State: SOLID (NUJOL MULL)
Class: COBLENTZ
Instrument: Not specified, most likely a prism, grating, or hybrid spectrometer.
Sampling: TRANSMISSION
Resolution: 4
Origin: TENNESSEE EASTMAN COMPANY, RESEARCH LABORATORIES
MICROMETERS	TRANSMITTANCE
2.022	0.497
2.06087	0.502
2.09975	0.504
2.13862	0.507
2.1775	0.513
2.21637	0.518
2.25525	0.521
2.29412	0.521
2.333	0.523
2.37187	0.53
2.41074	0.543
2.44962	0.551
2.48849	0.554
2.52737	0.573
2.56624	0.59
2.60512	0.603
2.64399	0.604
2.68286	0.617
2.72174	0.624
2.76061	0.637
2.79949	0.64
2.83836	0.647
2.87724	0.653
2.91611	0.661
2.95499	0.673
2.99386	0.687
3.03273	0.687
3.07161	0.65
3.11048	0.318
3.14936	0.308
3.18823	0.505
3.22711	0.539
3.26598	0.557
3.30485	0.494
3.34373	0.356
3.3826	0.11
3.42148	0.035
3.46035	0.066
3.49923	0.091
3.5381	0.442
3.57698	0.682
3.61585	0.731
3.65472	0.73
3.6936	0.723
3.73247	0.73
3.77135	0.73
3.81022	0.739
3.8491	0.747
3.88797	0.757
3.92684	0.77
3.96572	0.78
4.00459	0.79
4.04347	0.795
4.08234	0.8
4.12122	0.803
4.16009	0.806
4.19897	0.811
4.23784	0.827
4.27671	0.84
4.31559	0.842
4.35446	0.834
4.39334	0.832
4.43221	0.835
4.47109	0.837
4.50996	0.84
4.54884	0.843
4.58771	0.848
4.62658	0.858
4.66546	0.865
4.70433	0.866
4.74321	0.869
4.78208	0.873
4.82096	0.879
4.85983	0.879
4.8987	0.881
4.93758	0.882
4.97645	0.886
5.01533	0.899
5.0542	0.902
5.09308	0.9
5.13195	0.902
5.17083	0.904
5.2097	0.905
5.24857	0.874
5.28745	0.882
5.32632	0.884
5.3652	0.91
5.40407	0.915
5.44295	0.92
5.48182	0.923
5.52069	0.925
5.55957	0.925
5.59844	0.925
5.63732	0.93
5.67619	0.93
5.71507	0.93
5.75394	0.931
5.79282	0.936
5.83169	0.949
5.87056	0.954
5.90944	0.957
5.94831	0.962
5.98719	0.962
6.02606	0.96
6.06494	0.959
6.10381	0.917
6.14268	0.912
6.18156	0.913
6.22043	0.819
6.25931	0.674
6.29818	0.76
6.33706	0.874
6.37593	0.912
6.41481	0.923
6.45368	0.925
6.49255	0.887
6.53143	0.803
6.5703	0.609
6.60918	0.351
6.64805	0.614
6.68693	0.616
6.7258	0.652
6.76468	0.517
6.80355	0.253
6.84242	0.191
6.8813	0.248
6.92017	0.385
6.95905	0.575
6.99792	0.7
7.0368	0.751
7.07567	0.752
7.11454	0.63
7.15342	0.414
7.19229	0.419
7.23117	0.447
7.27004	0.403
7.30892	0.573
7.34779	0.658
7.38667	0.734
7.42554	0.64
7.46441	0.434
7.50329	0.198
7.54216	0.289
7.58104	0.5
7.61991	0.658
7.65879	0.629
7.69766	0.439
7.73653	0.604
7.77541	0.583
7.81428	0.598
7.85316	0.538
7.89203	0.723
7.93091	0.785
7.96978	0.806
8.00866	0.814
8.04753	0.817
8.0864	0.808
8.12528	0.692
8.16415	0.621
8.20303	0.627
8.2419	0.668
8.28078	0.723
8.31965	0.791
8.35852	0.78
8.3974	0.572
8.43627	0.648
8.47515	0.593
8.51402	0.489
8.5529	0.204
8.59177	0.089
8.63065	0.071
8.66952	0.258
8.70839	0.43
8.74727	0.544
8.78614	0.627
8.82502	0.687
8.86389	0.704
8.90277	0.647
8.94164	0.653
8.98052	0.7
9.01939	0.704
9.05826	0.673
9.09714	0.575
9.13601	0.333
9.17489	0.308
9.21376	0.613
9.25264	0.704
9.29151	0.757
9.33038	0.788
9.36926	0.803
9.40813	0.813
9.44701	0.814
9.48588	0.813
9.52476	0.803
9.56363	0.791
9.60251	0.786
9.64138	0.783
9.68025	0.795
9.71913	0.811
9.758	0.721
9.79688	0.757
9.83575	0.839
9.87463	0.848
9.9135	0.865
9.95237	0.881
9.99125	0.887
10.0301	0.889
10.069	0.889
10.1079	0.891
10.1467	0.889
10.1856	0.889
10.2245	0.887
10.2634	0.884
10.3022	0.882
10.3411	0.881
10.38	0.876
10.4189	0.809
10.4577	0.796
10.4966	0.835
10.5355	0.835
10.5744	0.822
10.6132	0.764
10.6521	0.601
10.691	0.629
10.7299	0.757
10.7687	0.76
10.8076	0.712
10.8465	0.637
10.8854	0.515
10.9242	0.362
10.9631	0.258
11.002	0.294
11.0409	0.448
11.0797	0.575
11.1186	0.674
11.1575	0.736
11.1964	0.773
11.2352	0.806
11.2741	0.835
11.313	0.845
11.3519	0.852
11.3907	0.858
11.4296	0.874
11.4685	0.889
11.5074	0.9
11.5462	0.907
11.5851	0.913
11.624	0.923
11.6628	0.926
11.7017	0.925
11.7406	0.92
11.7795	0.868
11.8183	0.835
11.8572	0.835
11.8961	0.835
11.935	0.803
11.9738	0.795
12.0127	0.832
12.0516	0.837
12.0905	0.819
12.1293	0.721
12.1682	0.684
12.2071	0.712
12.246	0.65
12.2848	0.487
12.3237	0.232
12.3626	0.18
12.4015	0.266
12.4403	0.564
12.4792	0.717
12.5181	0.765
12.557	0.775
12.5958	0.8
12.6347	0.827
12.6736	0.832
12.7125	0.829
12.7513	0.803
12.7902	0.76
12.8291	0.699
12.868	0.647
12.9068	0.626
12.9457	0.663
12.9846	0.741
13.0235	0.814
13.0623	0.855
13.1012	0.886
13.1401	0.899
13.1789	0.902
13.2178	0.902
13.2567	0.905
13.2956	0.9
13.3344	0.891
13.3733	0.882
13.4122	0.861
13.4511	0.842
13.4899	0.832
13.5288	0.808
13.5677	0.793
13.6066	0.772
13.6454	0.756
13.6843	0.738
13.7232	0.718
13.7621	0.691
13.8009	0.668
13.8398	0.652
13.8787	0.63
13.9176	0.608
13.9564	0.588
13.9953	0.559
14.0342	0.51
14.0731	0.469
14.1119	0.377
14.1508	0.305
14.1897	0.286
14.2286	0.294
14.2674	0.318
14.3063	0.326
14.3452	0.325
14.3841	0.305
14.4229	0.287
14.4618	0.274
14.5007	0.263
14.5396	0.258
14.5784	0.258
14.6173	0.26
14.6562	0.266
14.695	0.279
14.7339	0.307
14.7728	0.331
14.8117	0.356
14.8505	0.378
14.8894	0.404
14.9283	0.43
14.9672	0.45
15.006	0.482
15.0449	0.517
15.0838	0.518
15.1227	0.52
15.1615	0.52
15.2004	0.52
15.2393	0.521
15.2782	0.521
15.317	0.528
15.3559	0.547
15.3948	0.575
15.4337	0.603
15.4725	0.621
15.5114	0.64
15.5503	0.645
15.5892	0.65
15.628	0.65
15.6669	0.655
15.7058	0.655
15.7447	0.653
15.7835	0.653
15.8224	0.645
15.8613	0.645
15.9002	0.645
15.939	0.643
15.9779	0.645
