Infrared Spectrum: D-PANTOLACTONE
Formula: C6 H10 O3
CAS: 599-04-2
State: SOLUTION (5% CHCl3)
Class: COBLENTZ
Instrument: Not specified, most likely a prism, grating, or hybrid spectrometer.
Sampling: TRANSMISSION
Path length: 0.009 CM
Resolution: 4
MICROMETERS	TRANSMITTANCE
2.014	0.989
2.04948	0.989
2.08496	0.989
2.12044	0.989
2.15593	0.987
2.19141	0.991
2.22689	0.989
2.26237	0.984
2.29785	0.975
2.33333	0.975
2.36882	0.972
2.4043	0.973
2.43978	0.977
2.47526	0.979
2.51074	0.977
2.54622	0.977
2.5817	0.979
2.61719	0.982
2.65267	0.972
2.68815	0.968
2.72363	0.965
2.75911	0.958
2.79459	0.856
2.83007	0.718
2.86556	0.709
2.90104	0.674
2.93652	0.676
2.972	0.715
3.00748	0.758
3.04296	0.807
3.07845	0.847
3.11393	0.874
3.14941	0.889
3.18489	0.903
3.22037	0.912
3.25585	0.912
3.29133	0.839
3.32682	0.819
3.3623	0.674
3.39778	0.631
3.43326	0.732
3.46874	0.756
3.50422	0.804
3.5397	0.879
3.57519	0.912
3.61067	0.937
3.64615	0.945
3.68163	0.947
3.71711	0.947
3.75259	0.949
3.78808	0.951
3.82356	0.956
3.85904	0.958
3.89452	0.958
3.93	0.956
3.96548	0.961
4.00096	0.954
4.03645	0.949
4.07193	0.945
4.10741	0.942
4.14289	0.944
4.17837	0.947
4.21385	0.947
4.24933	0.951
4.28482	0.951
4.3203	0.945
4.35578	0.944
4.39126	0.944
4.42674	0.951
4.46222	0.956
4.49771	0.958
4.53319	0.959
4.56867	0.959
4.60415	0.958
4.63963	0.959
4.67511	0.959
4.71059	0.959
4.74608	0.958
4.78156	0.959
4.81704	0.959
4.85252	0.961
4.888	0.958
4.92348	0.959
4.95896	0.961
4.99445	0.959
5.02993	0.952
5.06541	0.956
5.10089	0.956
5.13637	0.956
5.17185	0.952
5.20734	0.949
5.24282	0.945
5.2783	0.937
5.31378	0.931
5.34926	0.924
5.38474	0.93
5.42022	0.917
5.45571	0.867
5.49119	0.739
5.52667	0.562
5.56215	0.333
5.59763	0.139
5.63311	0.05
5.66859	0.145
5.70408	0.325
5.73956	0.618
5.77504	0.77
5.81052	0.851
5.846	0.888
5.88148	0.909
5.91697	0.923
5.95245	0.928
5.98793	0.924
6.02341	0.923
6.05889	0.916
6.09437	0.921
6.12985	0.914
6.16534	0.914
6.20082	0.919
6.2363	0.924
6.27178	0.931
6.30726	0.938
6.34274	0.937
6.37822	0.938
6.41371	0.944
6.44919	0.942
6.48467	0.945
6.52015	0.94
6.55563	0.935
6.59111	0.933
6.6266	0.924
6.66208	0.914
6.69756	0.902
6.73304	0.833
6.76852	0.732
6.804	0.676
6.83948	0.618
6.87497	0.702
6.91045	0.797
6.94593	0.826
6.98141	0.837
7.01689	0.833
7.05237	0.826
7.08785	0.812
7.12334	0.79
7.15882	0.781
7.1943	0.816
7.22978	0.797
7.26526	0.697
7.30074	0.667
7.33623	0.68
7.37171	0.769
7.40719	0.832
7.44267	0.872
7.47815	0.872
7.51363	0.87
7.54911	0.863
7.5846	0.851
7.62008	0.819
7.65556	0.798
7.69104	0.781
7.72652	0.743
7.762	0.748
7.79748	0.786
7.83297	0.812
7.86845	0.811
7.90393	0.79
7.93941	0.746
7.97489	0.708
8.01037	0.683
8.04586	0.648
8.08134	0.585
8.11682	0.524
8.1523	0.486
8.18778	0.486
8.22326	0.491
8.25874	0.498
8.29423	0.5
8.32971	0.493
8.36519	0.519
8.40067	0.639
8.43615	0.694
8.47163	0.69
8.50711	0.643
8.5426	0.575
8.57808	0.594
8.61356	0.613
8.64904	0.617
8.68452	0.666
8.72	0.702
8.75549	0.708
8.79097	0.685
8.82645	0.589
8.86193	0.452
8.89741	0.335
8.93289	0.23
8.96837	0.15
9.00386	0.12
9.03934	0.092
9.07482	0.124
9.1103	0.368
9.14578	0.538
9.18126	0.638
9.21674	0.701
9.25223	0.732
9.28771	0.741
9.32319	0.756
9.35867	0.777
9.39415	0.795
9.42963	0.835
9.46512	0.853
9.5006	0.858
9.53608	0.851
9.57156	0.84
9.60704	0.832
9.64252	0.832
9.678	0.821
9.71349	0.746
9.74897	0.578
9.78445	0.61
9.81993	0.671
9.85541	0.585
9.89089	0.37
9.92637	0.211
9.96186	0.174
9.99734	0.459
10.0328	0.58
10.0683	0.505
10.1038	0.452
10.1393	0.606
10.1747	0.756
10.2102	0.819
10.2457	0.851
10.2812	0.872
10.3167	0.886
10.3522	0.893
10.3876	0.9
10.4231	0.9
10.4586	0.893
10.4941	0.896
10.5296	0.898
10.565	0.888
10.6005	0.861
10.636	0.86
10.6715	0.884
10.707	0.9
10.7424	0.907
10.7779	0.907
10.8134	0.903
10.8489	0.9
10.8844	0.886
10.9199	0.867
10.9553	0.821
10.9908	0.79
11.0263	0.795
11.0618	0.837
11.0973	0.881
11.1327	0.898
11.1682	0.898
11.2037	0.882
11.2392	0.846
11.2747	0.816
11.3102	0.812
11.3456	0.821
11.3811	0.837
11.4166	0.861
11.4521	0.884
11.4876	0.898
11.523	0.905
11.5585	0.916
11.594	0.924
11.6295	0.928
11.665	0.931
11.7004	0.931
11.7359	0.933
11.7714	0.933
11.8069	0.935
11.8424	0.937
11.8779	0.942
11.9133	0.938
11.9488	0.937
11.9843	0.937
12.0198	0.933
12.0553	0.926
12.0907	0.93
12.1262	0.93
12.1617	0.926
12.1972	0.923
12.2327	0.928
12.2682	0.926
12.3036	0.93
12.3391	0.923
12.3746	0.917
12.4101	0.909
12.4456	0.903
12.481	0.903
12.5165	0.905
12.552	0.905
12.5875	0.907
12.623	0.91
12.6585	0.919
12.6939	0.919
12.7294	0.928
12.7649	0.933
12.8004	0.935
12.8359	0.94
12.8713	0.942
12.9068	0.94
12.9423	0.947
12.9778	0.945
13.0133	0.949
13.0487	0.949
13.0842	0.949
13.1197	0.947
13.1552	0.949
13.1907	0.958
13.2262	0.959
13.2616	0.965
13.2971	0.966
13.3326	0.975
13.3681	0.977
13.4036	0.977
13.439	0.977
13.4745	0.975
13.51	0.982
13.5455	0.986
13.581	0.982
13.6165	0.987
13.6519	0.987
13.6874	0.982
13.7229	0.982
13.7584	0.973
13.7939	0.961
13.8293	0.942
13.8648	0.921
13.9003	0.898
13.9358	0.875
13.9713	0.849
14.0067	0.839
14.0422	0.83
14.0777	0.832
14.1132	0.833
14.1487	0.837
14.1842	0.849
14.2196	0.863
14.2551	0.877
14.2906	0.882
14.3261	0.884
14.3616	0.889
14.397	0.888
14.4325	0.896
14.468	0.889
14.5035	0.889
14.539	0.893
14.5745	0.889
14.6099	0.889
14.6454	0.889
14.6809	0.895
14.7164	0.893
14.7519	0.902
14.7873	0.907
14.8228	0.905
14.8583	0.902
14.8938	0.903
14.9293	0.903
14.9647	0.902
15.0002	0.896
15.0357	0.884
15.0712	0.853
15.1067	0.844
15.1422	0.858
15.1776	0.87
15.2131	0.895
15.2486	0.898
15.2841	0.903
15.3196	0.903
15.355	0.903
15.3905	0.902
15.426	0.902
