Infrared Spectrum: Ethyl phenyl sulfone
Formula: C 8 H 10 O 2 S
CAS: 599-70-2
State: gas
Instrument: HP-GC/MS/IRD
Origin: NIST Mass Spectrometry Data Center
1/CM	ABSORBANCE
550	0.0022704
562	0.0015936
574	0.0020664
586	0.0053352
598	0.0029184
610	0.0005568
622	0.0004104
634	0.0003816
646	0.00066
658	0.0010344
670	0.0029472
682	0.006192
694	0.006816
706	0.004944
718	0.010068
730	0.0118176
742	0.0037416
754	0.0032568
766	0.0042984
778	0.0058344
790	0.0043968
802	0.0013944
814	0.000564
826	0.0003168
838	0.0002256
850	0.0001752
862	0.000132
874	8.88e-05
886	9.12e-05
898	3.12e-05
910	2.16e-05
922	6.72e-05
934	5.76e-05
946	0.0001008
958	0.0001008
970	0.000228
982	0.0003528
994	0.0004584
1006	0.0006
1018	0.000876
1030	0.0013032
1042	0.0016512
1054	0.0017472
1066	0.0015432
1078	0.0026232
1090	0.00444
1102	0.0025824
1114	0.0010464
1126	0.0014952
1138	0.0053856
1150	0.0187488
1162	0.021864
1174	0.0070656
1186	0.0018456
1198	0.000972
1210	0.0008736
1222	0.0013992
1234	0.0016344
1246	0.0011664
1258	0.0013176
1270	0.0022128
1282	0.0026952
1294	0.0021408
1306	0.0029352
1318	0.0054168
1330	0.0121536
1342	0.0188832
1354	0.0118608
1366	0.0029256
1378	0.001164
1390	0.0009336
1402	0.0009552
1414	0.0012288
1426	0.0011112
1438	0.001944
1450	0.0027288
1462	0.0017496
1474	0.001164
1486	0.000852
1498	0.0003576
1510	0.0002376
1522	0.0002184
1534	0.0002088
1546	0.000168
1558	0.0001392
1570	0.000168
1582	0.0002352
1594	0.0002568
1606	0.0002064
1618	0.0001656
1630	0.0001344
1642	0.000144
1654	0.0001128
1666	0.0001536
1678	0.0001992
1690	0.0001944
1702	8.16e-05
1714	6.72e-05
1726	5.76e-05
1738	6.24e-05
1750	0.0001488
1762	0.0001824
1774	0.0001944
1786	0.0001608
1798	0.0002592
1810	0.0004152
1822	0.0002592
1834	0.0001608
1846	0.000132
1858	8.88e-05
1870	0.0001176
1882	0.0002016
1894	0.0003024
1906	0.0003264
1918	0.0002208
1930	0.0001464
1942	0.0001848
1954	0.0002904
1966	0.0003216
1978	0.0002136
1990	8.88e-05
2002	6.96e-05
2014	8.16e-05
2026	5.52e-05
2038	4.8e-05
2050	4.8e-05
2062	4.08e-05
2074	5.76e-05
2086	6.24e-05
2098	5.76e-05
2110	2.16e-05
2122	3.12e-05
2134	6.48e-05
2146	5.04e-05
2158	6.24e-05
2170	6.96e-05
2182	7.44e-05
2194	6e-05
2206	5.28e-05
2218	7.44e-05
2230	0.0001272
2242	0.000168
2254	0.0001368
2266	0.0001008
2278	7.92e-05
2290	6.24e-05
2302	7.92e-05
2314	0.0001368
2326	0.0001392
2338	7.92e-05
2350	6.24e-05
2362	7.2e-05
2374	9.6e-05
2386	8.16e-05
2398	7.2e-05
2410	8.64e-05
2422	0.000108
2434	0.0001152
2446	0.0001032
2458	8.4e-05
2470	0.0001248
2482	0.0001344
2494	0.0001032
2506	9.36e-05
2518	4.56e-05
2530	5.52e-05
2542	3.12e-05
2554	4.56e-05
2566	3.84e-05
2578	6.96e-05
2590	6.48e-05
2602	7.2e-05
2614	6.24e-05
2626	6.72e-05
2638	2.88e-05
2650	2.64e-05
2662	8.64e-05
2674	9.6e-05
2686	0.0001032
2698	6.24e-05
2710	4.32e-05
2722	3.84e-05
2734	7.2e-05
2746	6.96e-05
2758	8.88e-05
2770	9.12e-05
2782	5.28e-05
2794	7.68e-05
2806	6e-05
2818	6.48e-05
2830	9.84e-05
2842	0.0001296
2854	0.0001296
2866	0.000252
2878	0.0004608
2890	0.0007968
2902	0.0007368
2914	0.0005664
2926	0.0007392
2938	0.0015816
2950	0.0022152
2962	0.0013992
2974	0.0011208
2986	0.0018984
2998	0.0018168
3010	0.0011544
3022	0.000732
3034	0.0006192
3046	0.0006384
3058	0.0012864
3070	0.0029352
3082	0.002652
3094	0.0011904
3106	0.0005136
3118	0.000264
3130	0.0001656
3142	0.000204
3154	0.0001896
3166	0.0001896
3178	0.0001872
3190	0.0001392
3202	7.44e-05
3214	6.24e-05
3226	6e-05
3238	5.76e-05
3250	8.16e-05
3262	8.88e-05
3274	9.36e-05
3286	5.28e-05
3298	5.04e-05
3310	2.88e-05
3322	5.28e-05
3334	2.4e-05
3346	6e-05
3358	8.16e-05
3370	5.28e-05
3382	7.2e-05
3394	6.72e-05
3406	5.04e-05
3418	8.16e-05
3430	6.96e-05
3442	6.48e-05
3454	0.0001248
3466	0.0001152
3478	7.92e-05
3490	0.0001488
3502	7.92e-05
3514	7.44e-05
3526	4.56e-05
3538	3.84e-05
3550	5.76e-05
3562	3.84e-05
3574	4.08e-05
3586	4.56e-05
3598	4.08e-05
3610	4.32e-05
3622	4.32e-05
3634	6.72e-05
3646	5.04e-05
3658	5.52e-05
3670	6.96e-05
3682	9.84e-05
3694	0.0001128
3706	0.0001104
3718	9.12e-05
3730	9.12e-05
3742	5.04e-05
3754	0.0001296
3766	0.0001008
3778	5.28e-05
3790	0.0001344
3802	9.6e-05
3814	5.28e-05
3826	6.48e-05
3838	6.72e-05
