Infrared Spectrum: 1,2-Bis(phenylsulphonyl)ethane
Formula: C 14 H 14 O 4 S 2
CAS: 599-94-0
State: gas
Origin: EPA-IR VAPOR PHASE LIBRARY
1/CM	ABSORBANCE
549.9	0.0022145
559.547	0.0011945
569.193	0.0019445
578.84	0.0011645
588.486	0.0010072
598.133	0.0011245
607.779	0.0006778
617.426	0.0005871
627.072	0.0004129
636.719	0.0004431
646.365	0.0004759
656.012	0.0006358
665.658	0.0007744
675.305	0.0013245
684.951	0.0028645
694.598	0.0024045
704.245	0.0016945
713.891	0.0020945
723.538	0.0034345
733.184	0.0058145
742.831	0.0037345
752.477	0.0025045
762.124	0.0035245
771.77	0.0024045
781.417	0.0010018
791.063	0.0007631
800.71	0.0007265
810.356	0.0006146
820.003	0.0005666
829.649	0.0004614
839.296	0.0004243
848.943	0.0003258
858.589	0.0002975
868.236	0.0002571
877.882	0.000218
887.529	0.0002927
897.175	0.0002342
906.822	0.0002444
916.468	0.0002443
926.115	0.0003623
935.761	0.000397
945.408	0.0004622
955.054	0.0003308
964.701	0.0002818
974.347	0.0002617
983.994	0.0003134
993.64	0.0002789
1003.29	0.0003762
1012.93	0.0002774
1022.58	0.0005221
1032.23	0.0003323
1041.87	0.0002475
1051.52	0.0002669
1061.17	0.0004971
1070.81	0.0007154
1080.46	0.0019145
1090.11	0.0025845
1099.75	0.000818
1109.4	0.0005466
1119.05	0.0005757
1128.69	0.0006147
1138.34	0.0015445
1147.99	0.0043945
1157.63	0.0079745
1167.28	0.0066045
1176.92	0.0027845
1186.57	0.0011245
1196.22	0.001033
1205.86	0.0015345
1215.51	0.0014045
1225.16	0.0007788
1234.8	0.0003946
1244.45	0.0004764
1254.1	0.0006697
1263.74	0.0007956
1273.39	0.0008505
1283.04	0.0008268
1292.68	0.0009123
1302.33	0.0010597
1311.98	0.0011845
1321.62	0.0016545
1331.27	0.0032345
1340.92	0.0057245
1350.56	0.0084145
1360.21	0.0035645
1369.86	0.0010732
1379.5	0.0006399
1389.15	0.0005256
1398.79	0.0004697
1408.44	0.0005549
1418.09	0.0007283
1427.73	0.0005307
1437.38	0.0006369
1447.03	0.0013145
1456.67	0.0005346
1466.32	0.0003404
1475.97	0.000348
1485.61	0.0003295
1495.26	0.0002394
1504.91	0.00012474
1514.55	0.0001118
1524.2	0.00011634
1533.85	0.00010668
1543.49	7.84e-05
1553.14	8.781e-05
1562.79	0.00013788
1572.43	0.00012681
1582.08	0.0002052
1591.73	0.00016646
1601.37	0.00011616
1611.02	0.0001773
1620.67	0.0001225
1630.31	0.00013587
1639.96	0.00014307
1649.6	0.000103212
1659.25	0.00014654
1668.9	0.00013956
1678.54	0.0001523
1688.19	0.00017902
1697.84	8.16e-05
1707.48	8.775e-05
1717.13	3.86e-05
1726.78	0.00012742
1736.42	0.000103536
1746.07	8.37e-05
1755.72	0.00012416
1765.36	0.00016122
1775.01	0.00011322
1784.66	0.00017662
1794.3	0.00015361
1803.95	0.0001793
1813.6	0.0002359
1823.24	0.00015414
1832.89	0.0001052
1842.54	7.89e-05
1852.18	0.00011024
1861.83	0.00013779
1871.47	0.00012457
1881.12	8.14e-05
1890.77	0.00017974
1900.41	0.00018189
1910.06	0.00017207
1919.71	0.00016362
1929.35	0.00012305
1939	0.00014006
1948.65	0.00016184
1958.29	0.000222
1967.94	0.0002013
1977.59	0.00019116
1987.23	0.00016506
1996.88	0.0001465
2006.53	0.00011013
2016.17	0.00012981
2025.82	6.88e-05
2035.47	6.76e-05
2045.11	0.00010599
2054.76	0.00011066
2064.41	0.00011911
2074.05	0.00012519
2083.7	0.00011168
2093.35	0.00014377
2102.99	0.00011702
2112.64	0.00011784
2122.28	0.00015747
2131.93	0.00012165
2141.58	0.00013356
2151.22	0.00013333
2160.87	0.00016102
2170.52	0.00017322
2180.16	0.00013957
2189.81	0.0002096
2199.46	0.00012397
2209.1	0.00013395
2218.75	0.00015563
2228.4	0.00015304
2238.04	0.00016988
2247.69	0.0001949
2257.34	0.00017412
2266.98	0.00019262
2276.63	0.00018066
2286.28	0.00015623
2295.92	0.0001196
2305.57	0.00016511
2315.22	0.00016922
2324.86	0.00018651
2334.51	0.00012391
2344.16	0.00013648
2353.8	9.323e-05
2363.45	0.00010553
2373.09	0.0001281
2382.74	0.00016585
2392.39	0.0001361
2402.03	0.00012035
2411.68	0.00017114
2421.33	0.00014237
2430.97	0.00017456
2440.62	0.0001893
2450.27	0.00016886
2459.91	0.00017447
2469.56	0.00014734
2479.21	0.0002237
2488.85	0.00017905
2498.5	0.0002107
2508.15	0.00018623
2517.79	0.00017012
2527.44	0.00016245
2537.09	0.00016749
2546.73	0.0001688
2556.38	0.0001616
2566.03	0.00011612
2575.67	0.0002348
2585.32	0.00016764
2594.96	0.0002029
2604.61	0.00017631
2614.26	0.00018942
2623.9	0.00018532
2633.55	0.00015864
2643.2	0.0002259
2652.84	0.0002634
2662.49	0.00016984
2672.14	0.0002466
2681.78	0.0001533
2691.43	0.00017525
2701.08	0.0002329
2710.72	0.0001829
2720.37	0.0002062
2730.02	0.00016311
2739.66	0.0002139
2749.31	0.000216
2758.96	0.0002566
2768.6	0.0001969
2778.25	0.00015328
2787.9	0.00013315
2797.54	0.000224
2807.19	0.00017875
2816.84	0.00015098
2826.48	0.00018903
2836.13	0.0002272
2845.77	0.00011433
2855.42	0.0002047
2865.07	0.0002116
2874.71	0.00016212
2884.36	0.0002431
2894.01	0.0003264
2903.65	0.0002207
2913.3	0.0002647
2922.95	0.0002728
2932.59	0.0001981
2942.24	0.0003559
2951.89	0.000542
2961.53	0.0003193
2971.18	0.0003062
2980.83	0.0002793
2990.47	0.0003194
3000.12	0.0004337
3009.77	0.000384
3019.41	0.0003154
3029.06	0.0003837
3038.71	0.000308
3048.35	0.0004179
3058	0.000664
3067.64	0.0010494
3077.29	0.0014545
3086.94	0.0008986
3096.58	0.0006865
3106.23	0.0003531
3115.88	0.0003764
3125.52	0.0002763
3135.17	0.0002493
3144.82	0.0002865
3154.46	0.00017843
3164.11	0.0003261
3173.76	0.0002855
3183.4	0.00016548
3193.05	0.0002399
3202.7	0.00014688
3212.34	0.00018413
3221.99	0.00018372
3231.64	0.0002219
3241.28	0.00012865
3250.93	0.0002749
3260.58	0.0002689
3270.22	0.0002745
3279.87	0.00017626
3289.52	0.0002954
3299.16	0.0002657
3308.81	9.53162e-05
3318.45	0.00016322
3328.1	9.069e-05
3337.75	0.0002735
3347.39	0.000205
3357.04	0.0002668
3366.69	0.00013974
3376.33	0.00014587
3385.98	0.00012958
3395.63	0.00029
3405.27	0.00011991
3414.92	0.0002656
3424.57	0.0002827
3434.21	0.0002949
3443.86	9.7726e-05
3453.51	0.0002189
3463.15	0.00016361
3472.8	0.0001401
3482.45	0.00013238
3492.09	0.0002206
3501.74	0.0002939
3511.39	0.0002458
3521.03	0.0003197
3530.68	0.0003436
3540.33	0.0002728
3549.97	0.00012568
3559.62	0.000311
3569.26	0.0003926
3578.91	0.0003335
3588.56	0.0002038
3598.2	0.000267
3607.85	0.0001665
3617.5	0.000222
3627.14	0.00016409
3636.79	0.0002185
3646.44	0.00014678
3656.08	0.0002335
3665.73	0.0003372
3675.38	0.00013494
3685.02	0.0001877
3694.67	0.0002757
3704.32	0.0002457
3713.96	0.0002391
3723.61	0.00017854
3733.26	0.00017062
3742.9	0.0002111
3752.55	0.0002038
3762.2	0.0002234
3771.84	0.00016575
3781.49	0.0002628
3791.13	0.0002417
3800.78	0.00016341
3810.43	0.00012172
3820.07	0.0002221
3829.72	0.0002386
3839.37	0.00016554
3849.01	0.00015267
3858.66	0.00018955
3868.31	0.0002556
3877.95	0.0003343
3887.6	0.00016945
3897.25	0.0002355
3906.89	0.00019196
3916.54	8.621e-05
3926.19	0.00016964
3935.83	0.0002753
3945.48	0.0001548
3955.13	0.00014416
3964.77	0.00015535
3974.42	0.0002123
3984.07	0.0002517
3993.71	0.000207
