Infrared Spectrum: 4-Chloro-2,5-dimethylthiophenol
Formula: C 8 H 9 Cl S
CAS: 59962-29-7
State: gas
Origin: EPA-IR VAPOR PHASE LIBRARY
1/CM	ABSORBANCE
549.9	0.0026276
559.547	0.001426
569.193	0.00102
578.84	0.001136
588.486	0.00131
598.133	0.001517
607.779	0.0028619
617.426	0.002655
627.072	0.001326
636.719	0.001335
646.365	0.001439
656.012	0.001644
665.658	0.0019509
675.305	0.001856
684.951	0.0019518
694.598	0.0029163
704.245	0.00484
713.891	0.00314
723.538	0.0025591
733.184	0.00322
742.831	0.00853
752.477	0.01727
762.124	0.01429
771.77	0.00994
781.417	0.00795
791.063	0.00501
800.71	0.00501
810.356	0.00762
820.003	0.00762
829.649	0.00603
839.296	0.00663
848.943	0.00904
858.589	0.01782
868.236	0.0355
877.882	0.03809
887.529	0.01889
897.175	0.00792
906.822	0.00728
916.468	0.01061
926.115	0.01423
935.761	0.02063
945.408	0.0202
955.054	0.01062
964.701	0.01035
974.347	0.01531
983.994	0.02323
993.64	0.02219
1003.29	0.01339
1012.93	0.00961
1022.58	0.00904
1032.23	0.00945
1041.87	0.00991
1051.52	0.00983
1061.17	0.01247
1070.81	0.03027
1080.46	0.09879
1090.11	0.15836
1099.75	0.07682
1109.4	0.02095
1119.05	0.01292
1128.69	0.01115
1138.34	0.00813
1147.99	0.00454
1157.63	0.00407
1167.28	0.00445
1176.92	0.00987
1186.57	0.01262
1196.22	0.00545
1205.86	0.00393
1215.51	0.00592
1225.16	0.00569
1234.8	0.00391
1244.45	0.00381
1254.1	0.00517
1263.74	0.00636
1273.39	0.00539
1283.04	0.00419
1292.68	0.00372
1302.33	0.00395
1311.98	0.00449
1321.62	0.00485
1331.27	0.00611
1340.92	0.01287
1350.56	0.03091
1360.21	0.03237
1369.86	0.01755
1379.5	0.01745
1389.15	0.0194
1398.79	0.01458
1408.44	0.01121
1418.09	0.01319
1427.73	0.01953
1437.38	0.03359
1447.03	0.04877
1456.67	0.05174
1466.32	0.05397
1475.97	0.08714
1485.61	0.11782
1495.26	0.06163
1504.91	0.01922
1514.55	0.01323
1524.2	0.01093
1533.85	0.01011
1543.49	0.00989
1553.14	0.0095
1562.79	0.00868
1572.43	0.00744
1582.08	0.00622
1591.73	0.00567
1601.37	0.00509
1611.02	0.00435
1620.67	0.00388
1630.31	0.00347
1639.96	0.00308
1649.6	0.002835
1659.25	0.002669
1668.9	0.00276
1678.54	0.0029943
1688.19	0.002938
1697.84	0.00312
1707.48	0.00348
1717.13	0.00462
1726.78	0.00622
1736.42	0.00668
1746.07	0.00495
1755.72	0.00331
1765.36	0.002514
1775.01	0.0022137
1784.66	0.0022879
1794.3	0.0022911
1803.95	0.00210001
1813.6	0.00205692
1823.24	0.0020102
1832.89	0.00203163
1842.54	0.001926
1852.18	0.0019361
1861.83	0.001868
1871.47	0.001803
1881.12	0.0019794
1890.77	0.0022471
1900.41	0.0022159
1910.06	0.0022205
1919.71	0.0019686
1929.35	0.00182
1939	0.001645
1948.65	0.001711
1958.29	0.001713
1967.94	0.001755
1977.59	0.001725
1987.23	0.001593
1996.88	0.001556
2006.53	0.001587
2016.17	0.001631
2025.82	0.001573
2035.47	0.001389
2045.11	0.00139
2054.76	0.001399
2064.41	0.001457
2074.05	0.001413
2083.7	0.001482
2093.35	0.001416
2102.99	0.001389
2112.64	0.001461
2122.28	0.001608
2131.93	0.001773
2141.58	0.001824
2151.22	0.001582
2160.87	0.00154
2170.52	0.00155
2180.16	0.001542
2189.81	0.001589
2199.46	0.001498
2209.1	0.00151
2218.75	0.001449
2228.4	0.001366
2238.04	0.001377
2247.69	0.001355
2257.34	0.001432
2266.98	0.001426
2276.63	0.001418
2286.28	0.00146
2295.92	0.001492
2305.57	0.001634
2315.22	0.001749
2324.86	0.001807
2334.51	0.001903
2344.16	0.001871
2353.8	0.0019304
2363.45	0.0019583
2373.09	0.001838
2382.74	0.001755
2392.39	0.001697
2402.03	0.00181
2411.68	0.00188
2421.33	0.001824
2430.97	0.0019886
2440.62	0.00207988
2450.27	0.00210099
2459.91	0.00202481
2469.56	0.00206439
2479.21	0.0019924
2488.85	0.00183
2498.5	0.001647
2508.15	0.001596
2517.79	0.001633
2527.44	0.001617
2537.09	0.001601
2546.73	0.001545
2556.38	0.001767
2566.03	0.00202892
2575.67	0.0024376
2585.32	0.00333
2594.96	0.00333
2604.61	0.0029742
2614.26	0.0027487
2623.9	0.0023239
2633.55	0.00209567
2643.2	0.0019709
2652.84	0.001791
2662.49	0.001713
2672.14	0.00171
2681.78	0.001827
2691.43	0.001874
2701.08	0.001915
2710.72	0.0019836
2720.37	0.00211132
2730.02	0.0023929
2739.66	0.00336
2749.31	0.00446
2758.96	0.00378
2768.6	0.0024479
2778.25	0.0022785
2787.9	0.0025761
2797.54	0.00304
2807.19	0.0034
2816.84	0.0037
2826.48	0.00441
2836.13	0.00544
2845.77	0.00764
2855.42	0.01196
2865.07	0.01951
2874.71	0.02366
2884.36	0.02053
2894.01	0.01707
2903.65	0.01652
2913.3	0.02166
2922.95	0.03928
2932.59	0.05921
2942.24	0.05171
2951.89	0.03482
2961.53	0.03058
2971.18	0.03066
2980.83	0.03244
2990.47	0.02963
3000.12	0.02142
3009.77	0.01721
3019.41	0.01821
3029.06	0.01835
3038.71	0.01495
3048.35	0.01128
3058	0.00952
3067.64	0.0089
3077.29	0.00891
3086.94	0.00906
3096.58	0.00739
3106.23	0.00473
3115.88	0.00315
3125.52	0.0025428
3135.17	0.00172
3144.82	0.001426
3154.46	0.00117
3164.11	0.00091
3173.76	0.00073
3183.4	0.00067
3193.05	0.00049
3202.7	0.00054
3212.34	0.00053
3221.99	0.00045
3231.64	0.00038
3241.28	0.00039
3250.93	0.00019
3260.58	0.00026
3270.22	0.0004
3279.87	0.00037
3289.52	0.00031
3299.16	0.00041
3308.81	0.0004
3318.45	0.00028
3328.1	0.00023
3337.75	6e-05
3347.39	0
3357.04	0.00011
3366.69	0.00011
3376.33	0.00023
3385.98	0.00023
3395.63	0.0004
3405.27	0.00035
3414.92	0.00013
3424.57	0.0001
3434.21	0.00027
3443.86	0.00023
3453.51	0.00029
3463.15	0.00039
3472.8	0.00035
3482.45	0.00065
3492.09	0.00071
3501.74	0.00094
3511.39	0.001
3521.03	0.00069
3530.68	0.00065
3540.33	0.00072
3549.97	0.00065
3559.62	0.00048
3569.26	0.00056
3578.91	0.00058
3588.56	0.0006
3598.2	0.00073
3607.85	0.00049
3617.5	0.00068
3627.14	0.00062
3636.79	0.00059
3646.44	0.00055
3656.08	0.00074
3665.73	0.00052
3675.38	0.00062
3685.02	0.00071
3694.67	0.00072
3704.32	0.00076
3713.96	0.00084
3723.61	0.001114
3733.26	0.001128
3742.9	0.001098
3752.55	0.00094
3762.2	0.0009
3771.84	0.00093
3781.49	0.00095
3791.13	0.001
3800.78	0.00098
3810.43	0.001
3820.07	0.00091
3829.72	0.00089
3839.37	0.00094
3849.01	0.001039
3858.66	0.00091
3868.31	0.001039
3877.95	0.001055
3887.6	0.001102
3897.25	0.001204
3906.89	0.00123
3916.54	0.001153
3926.19	0.001143
3935.83	0.001199
3945.48	0.001151
3955.13	0.001276
3964.77	0.001299
3974.42	0.001191
3984.07	0.001136
3993.71	0.001092
