Infrared Spectrum: ANDROSTANE-3,11-DIONE, (5Beta), 17Beta-HYDROXY-17Alpha-METHYL-,
Formula: C20 H30 O3
CAS: 59962-27-5
State: SOLID (KBr DISC)
Class: COBLENTZ III
Instrument: BECKMAN IR-7
Sampling: TRANSMISSION
Resolution: 4
Origin: N. L. McNIVEN- THE WORCESTER FOUNDATION FOR EXPERIMENTAL BIOLOGY
1/CM	TRANSMITTANCE
603.753	0.584
612.323	0.573
620.893	0.536
629.463	0.422
638.033	0.412
646.603	0.571
655.173	0.666
663.743	0.567
672.313	0.692
680.883	0.731
689.453	0.711
698.023	0.449
706.593	0.706
715.163	0.793
723.733	0.801
732.303	0.799
740.873	0.728
749.443	0.653
758.013	0.766
766.583	0.756
775.153	0.606
783.723	0.676
792.293	0.531
800.863	0.666
809.433	0.625
818.003	0.695
826.573	0.677
835.143	0.682
843.713	0.723
852.283	0.705
860.853	0.692
869.423	0.637
877.993	0.65
886.563	0.631
895.133	0.635
903.703	0.46
912.273	0.528
920.843	0.458
929.413	0.506
937.983	0.143
946.553	0.229
955.123	0.443
963.693	0.564
972.263	0.575
980.833	0.432
989.403	0.366
997.973	0.3331
1006.54	0.37
1015.11	0.408
1023.68	0.2899
1032.25	0.405
1040.82	0.349
1049.39	0.371
1057.96	0.337
1066.53	0.306
1075.1	0.118
1083.67	0.157
1092.24	0.102
1100.81	0.14
1109.38	0.204
1117.95	0.214
1126.52	0.052
1135.09	0.124
1143.66	0.058
1152.23	0.159
1160.8	0.282
1169.37	0.367
1177.94	0.405
1186.51	0.353
1195.08	0.302
1203.65	0.236
1212.22	0.194
1220.79	0.288
1229.36	0.212
1237.93	0.296
1246.5	0.35
1255.07	0.189
1263.64	0.267
1272.21	0.194
1280.78	0.271
1289.35	0.174
1297.92	0.174
1306.49	0.343
1315.06	0.394
1323.63	0.175
1332.2	0.197
1340.77	0.162
1349.34	0.146
1357.91	0.109
1366.48	0.12
1375.05	0.097
1383.62	0.121
1392.19	0.281
1400.76	0.364
1409.33	0.385
1417.9	0.34
1426.47	0.13
1435.04	0.1679
1443.61	0.173
1452.18	0.115
1460.75	0.206
1469.32	0.33
1477.89	0.249
1486.46	0.515
1495.03	0.619
1503.6	0.661
1512.17	0.696
1520.74	0.71
1529.31	0.716
1537.88	0.728
1546.45	0.728
1555.02	0.722
1563.59	0.701
1572.16	0.68
1580.73	0.673
1589.3	0.672
1597.87	0.656
1606.44	0.626
1615.01	0.598
1623.58	0.575
1632.15	0.543
1640.72	0.467
1649.29	0.398
1657.86	0.262
1666.43	0.245
1675	0.163
1683.57	0.087
1692.14	0.052
1700.71	0.031
1709.28	0.031
1717.85	0.084
1726.42	0.165
1734.99	0.278
1743.56	0.371
1752.13	0.461
1760.7	0.539
1769.27	0.577
1777.84	0.61
1786.41	0.642
1794.98	0.656
1803.55	0.697
1812.12	0.713
1820.69	0.717
1829.26	0.718
1837.83	0.722
1846.4	0.74
1854.97	0.752
1863.54	0.761
1872.11	0.771
1880.68	0.771
1889.25	0.773
1897.82	0.772
1906.39	0.778
1914.96	0.784
1923.53	0.781
1932.1	0.779
1940.67	0.783
1949.24	0.78
1957.81	0.776
1966.38	0.779
1974.95	0.779
1983.52	0.775
1992.09	0.769
2000.66	0.7637
2009.23	0.762
2017.8	0.76
2026.37	0.758
2034.94	0.7577
2043.51	0.756
2052.08	0.7542
2060.65	0.7508
2069.22	0.7476
2077.79	0.7453
2086.36	0.741
2094.93	0.737
2103.5	0.735
2112.07	0.735
2120.64	0.734
2129.21	0.734
2137.78	0.734
2146.35	0.733
2154.92	0.7319
2163.49	0.73
2172.06	0.7283
2180.63	0.726
2189.2	0.7225
2197.77	0.72
2206.34	0.719
2214.91	0.717
2223.48	0.7157
2232.05	0.7144
2240.62	0.713
2249.19	0.711
2257.76	0.711
2266.33	0.711
2274.9	0.711
2283.47	0.712
2292.04	0.713
2300.61	0.713
2309.18	0.714
2317.75	0.715
2326.32	0.715
2334.89	0.715
2343.46	0.716
2352.03	0.717
2360.6	0.717
2369.17	0.717
2377.74	0.7145
2386.31	0.7004
2394.88	0.6824
2403.45	0.6779
2412.02	0.672
2420.59	0.6694
2429.16	0.6671
2437.73	0.6619
2446.3	0.6586
2454.87	0.6546
2463.44	0.65
2472.01	0.649
2480.58	0.651
2489.15	0.6528
2497.72	0.6529
2506.29	0.651
2514.86	0.6494
2523.43	0.647
2532	0.6448
2540.57	0.643
2549.14	0.6447
2557.71	0.646
2566.28	0.6445
2574.85	0.6309
2583.42	0.6272
2591.99	0.6209
2600.56	0.613
2609.13	0.6064
2617.7	0.6041
2626.27	0.602
2634.84	0.6
2643.41	0.598
2651.98	0.5921
2660.55	0.5835
2669.12	0.5815
2677.69	0.579
2686.26	0.5739
2694.83	0.5707
2703.4	0.5684
2711.97	0.5624
2720.54	0.557
2729.11	0.557
2737.68	0.557
2746.25	0.557
2754.82	0.5568
2763.39	0.5535
2771.96	0.5502
2780.53	0.5448
2789.1	0.5313
2797.67	0.5144
2806.24	0.4938
2814.81	0.4716
2823.38	0.4427
2831.95	0.3654
2840.52	0.2318
2849.09	0.2103
2857.66	0.1561
2866.23	0.0718
2874.8	0.0904
2883.37	0.1121
2891.94	0.1408
2900.51	0.0972
2909.08	0.0829
2917.65	0.0572
2926.22	0.0467
2934.79	0.0539
2943.36	0.0572
2951.93	0.058
2960.5	0.057
2969.07	0.0566
2977.64	0.091
2986.21	0.141
2994.78	0.2496
3003.35	0.317
3011.92	0.3432
3020.49	0.4023
3029.06	0.4686
3037.63	0.5056
3046.2	0.5356
3054.77	0.5521
3063.34	0.5611
3071.91	0.5653
3080.48	0.5702
3089.05	0.5759
3097.62	0.578
3106.19	0.58
3114.76	0.5817
3123.33	0.583
3131.9	0.582
3140.47	0.581
3149.04	0.579
3157.61	0.577
3166.18	0.577
3174.75	0.576
3183.32	0.575
3191.89	0.574
3200.46	0.5716
3209.03	0.5673
3217.6	0.564
3226.17	0.562
3234.74	0.5585
3243.31	0.555
3251.88	0.5509
3260.45	0.5443
3269.02	0.5378
3277.59	0.5303
3286.16	0.5194
3294.73	0.5015
3303.3	0.4799
3311.87	0.4582
3320.44	0.4373
3329.01	0.416
3337.58	0.3955
3346.15	0.3705
3354.72	0.3404
3363.29	0.3017
3371.86	0.2524
3380.43	0.2307
3389	0.2272
3397.57	0.2165
3406.14	0.1992
3414.71	0.1791
3423.28	0.1539
3431.85	0.1278
3440.42	0.0855
3448.99	0.0653
3457.56	0.0662
3466.13	0.0906
3474.7	0.1143
3483.27	0.1462
3491.84	0.1762
3500.41	0.2057
3508.98	0.2319
3517.55	0.2586
3526.12	0.2867
3534.69	0.3297
3543.26	0.3739
3551.83	0.418
3560.4	0.4618
3568.97	0.51
3577.54	0.5482
3586.11	0.5768
3594.68	0.5968
3603.25	0.611
3611.82	0.6205
3620.39	0.6268
3628.96	0.6331
3637.53	0.6383
3646.1	0.643
3654.67	0.643
3663.24	0.6431
3671.81	0.6444
3680.38	0.645
3688.95	0.646
3697.52	0.6482
3706.09	0.6505
3714.66	0.6518
3723.23	0.654
3731.8	0.655
3740.37	0.655
3748.94	0.653
3757.51	0.6457
3766.08	0.6376
3774.65	0.635
3783.22	0.632
3791.79	0.631
3800.36	0.6295
3808.93	0.629
3817.5	0.628
3826.07	0.627
3834.64	0.6254
3843.21	0.624
3851.78	0.6229
3860.35	0.6206
3868.92	0.6153
3877.49	0.614
3886.06	0.6118
3894.63	0.6095
3903.2	0.608
3911.77	0.606
3920.34	0.605
3928.91	0.604
3937.48	0.6021
3946.05	0.6019
3954.62	0.5996
3963.19	0.598
3971.76	0.596
