Infrared Spectrum: Methane, tris(n-propylthio)-,
Formula: C10 H22 S3
CAS: 59969-91-4
State: SOLUTION (11% CCl4 FOR 3800-1300, 11% CS2 FOR 1300-600, AND 11% CCl4 FOR 600-250)
Class: COBLENTZ III
Instrument: PERKIN-ELMER 521 (GRATING)
Instrument parameters: FILTERS AT 3150, 2500, 2000, 1150, 700, 410. GRATING CHANGES: 2000, 630
Path length: 0.011 CM, 0.010 CM, AND 0.010 CM
Resolution: 2
Origin: DOW CORNING CORP.
1/CM	TRANSMITTANCE
247	0.9717
256	0.9583
265	0.9469
274	0.9339
283	0.9231
292	0.9132
301	0.9042
310	0.8963
319	0.8895
328	0.8859
337	0.8802
346	0.8696
355	0.8616
364	0.8585
373	0.8528
382	0.8495
391	0.8466
400	0.8451
409	0.8435
418	0.8405
427	0.839
436	0.84
445	0.8439
454	0.8475
463	0.8491
472	0.8553
481	0.8507
490	0.8491
499	0.8474
508	0.8463
517	0.8458
526	0.8454
535	0.8457
544	0.846
553	0.847
562	0.8482
571	0.849
580	0.8493
589	0.8491
598	0.8476
607	0.8314
616	0.8235
625	0.8417
634	0.853
643	0.9102
652	0.9356
661	0.9443
670	0.9326
679	0.9188
688	0.9099
697	0.8785
706	0.8186
715	0.7002
724	0.7218
733	0.6143
742	0.5733
751	0.5694
760	0.5735
769	0.6378
778	0.6969
787	0.7523
796	0.7399
805	0.8297
814	0.8862
823	0.878
832	0.8526
841	0.8732
850	0.8883
859	0.8992
868	0.8972
877	0.8665
886	0.7839
895	0.7252
904	0.8489
913	0.9134
922	0.9195
931	0.9262
940	0.9276
949	0.9276
958	0.9278
967	0.9266
976	0.924
985	0.9208
994	0.9156
1003	0.9027
1012	0.8897
1021	0.8683
1030	0.8333
1039	0.8024
1048	0.7494
1057	0.7729
1066	0.8179
1075	0.7741
1084	0.6909
1093	0.8019
1102	0.8288
1111	0.7856
1120	0.7683
1129	0.6835
1138	0.7059
1147	0.7178
1156	0.7975
1165	0.7907
1174	0.7176
1183	0.7727
1192	0.8017
1201	0.7997
1210	0.7994
1219	0.7909
1228	0.6414
1237	0.4622
1246	0.7751
1255	0.8248
1264	0.8302
1273	0.8089
1282	0.7109
1291	0.5074
1300	0.7272
1309	0.8288
1318	0.8282
1327	0.794
1336	0.6756
1345	0.8419
1354	0.836
1363	0.8115
1372	0.5544
1381	0.6493
1390	0.7874
1399	0.7728
1408	0.6681
1417	0.6633
1426	0.668
1435	0.5374
1444	0.5127
1453	0.2603
1462	0.3224
1471	0.716
1480	0.7813
1489	0.8124
1498	0.8351
1507	0.8503
1516	0.8615
1525	0.8665
1534	0.8734
1543	0.877
1552	0.8801
1561	0.8826
1570	0.8809
1579	0.8804
1588	0.8812
1597	0.8775
1606	0.8757
1615	0.877
1624	0.876
1633	0.8763
1642	0.8768
1651	0.8764
1660	0.876
1669	0.8756
1678	0.8752
1687	0.8756
1696	0.8805
1705	0.8858
1714	0.8871
1723	0.8818
1732	0.8772
1741	0.8764
1750	0.8771
1759	0.8775
1768	0.8776
1777	0.8781
1786	0.8779
1795	0.8775
1804	0.8773
1813	0.8771
1822	0.8772
1831	0.8775
1840	0.8774
1849	0.8771
1858	0.8768
1867	0.8767
1876	0.8766
1885	0.8765
1894	0.8763
1903	0.8761
1912	0.8758
1921	0.8755
1930	0.8747
1939	0.8739
1948	0.8743
1957	0.8753
1966	0.8764
1975	0.8777
1984	0.8791
1993	0.8802
2002	0.8823
2011	0.8868
2020	0.8878
2029	0.8879
2038	0.8875
2047	0.8869
2056	0.8866
2065	0.8861
2074	0.8858
2083	0.8855
2092	0.8853
2101	0.8851
2110	0.8849
2119	0.8848
2128	0.8847
2137	0.8846
2146	0.8843
2155	0.8838
2164	0.8833
2173	0.8829
2182	0.8831
2191	0.8834
2200	0.8834
2209	0.8829
2218	0.8825
2227	0.8815
2236	0.8805
2245	0.8802
2254	0.8796
2263	0.878
2272	0.8788
2281	0.8826
2290	0.8827
2299	0.8828
2308	0.883
2317	0.8832
2326	0.8837
2335	0.8841
2344	0.8846
2353	0.8848
2362	0.8849
2371	0.885
2380	0.8851
2389	0.8846
2398	0.883
2407	0.8815
2416	0.8825
2425	0.8867
2434	0.891
2443	0.8924
2452	0.8911
2461	0.8897
2470	0.8883
2479	0.8873
2488	0.8867
2497	0.886
2506	0.8854
2515	0.8852
2524	0.885
2533	0.8848
2542	0.8849
2551	0.8851
2560	0.8852
2569	0.8855
2578	0.8858
2587	0.885
2596	0.8808
2605	0.878
2614	0.8756
2623	0.874
2632	0.873
2641	0.8705
2650	0.8604
2659	0.8508
2668	0.8661
2677	0.8778
2686	0.8803
2695	0.8789
2704	0.876
2713	0.8727
2722	0.8648
2731	0.852
2740	0.8701
2749	0.8704
2758	0.8677
2767	0.8607
2776	0.8438
2785	0.8258
2794	0.8167
2803	0.8075
2812	0.7777
2821	0.7716
2830	0.7501
2839	0.7136
2848	0.636
2857	0.4237
2866	0.2812
2875	0.1745
2884	0.4119
2893	0.4418
2902	0.3218
2911	0.2253
2920	0.1609
2929	0.1054
2938	0.1385
2947	0.1912
2956	0.0746
2965	0.0211
2974	0.1437
2983	0.3456
2992	0.5437
3001	0.687
3010	0.7445
3019	0.7987
3028	0.8308
3037	0.8459
3046	0.8589
3055	0.8671
3064	0.8736
3073	0.8798
3082	0.8851
3091	0.8857
3100	0.8874
3109	0.8893
3118	0.8908
3127	0.8917
3136	0.892
3145	0.8903
3154	0.8885
3163	0.8864
3172	0.8857
3181	0.8855
3190	0.8877
3199	0.8909
3208	0.8948
3217	0.899
3226	0.9068
3235	0.9096
3244	0.9107
3253	0.9118
3262	0.9128
3271	0.914
3280	0.9153
3289	0.9164
3298	0.9158
3307	0.9169
3316	0.9196
3325	0.9204
3334	0.9213
3343	0.9222
3352	0.9231
3361	0.924
3370	0.9251
3379	0.9262
3388	0.9274
3397	0.9283
3406	0.9287
3415	0.9291
3424	0.9292
3433	0.9287
3442	0.9282
3451	0.9276
3460	0.9269
3469	0.9261
3478	0.9255
3487	0.9244
3496	0.9231
3505	0.9217
3514	0.9203
3523	0.9189
3532	0.9176
3541	0.9161
3550	0.9146
3559	0.9129
3568	0.9114
3577	0.9098
3586	0.9085
3595	0.9071
3604	0.9058
3613	0.9045
3622	0.9033
3631	0.902
3640	0.9008
3649	0.8995
3658	0.8986
3667	0.8978
3676	0.8972
3685	0.897
3694	0.8968
3703	0.8966
3712	0.8951
3721	0.9013
3730	0.9055
3739	0.9072
3748	0.9076
3757	0.9018
3766	0.9028
3775	0.9031
3784	0.9034
3793	0.9033
3802	0.9028
3811	0.9017
