Infrared Spectrum: Methyl n-nonyl sulphide
Formula: C 10 H 22 S
CAS: 59973-07-8
State: gas
Origin: EPA-IR VAPOR PHASE LIBRARY
1/CM	ABSORBANCE
549.9	0.00011
559.547	0.00026
569.193	0.000331
578.84	0.00017
588.486	0.000344
598.133	0.00024
607.779	0.00031
617.426	0.000325
627.072	0.000369
636.719	0.000566
646.365	0.00084
656.012	0.000757
665.658	0.000908
675.305	0.00103
684.951	0.0018013
694.598	0.00265
704.245	0.00356
713.891	0.00489
723.538	0.00545
733.184	0.00498
742.831	0.00476
752.477	0.00456
762.124	0.00397
771.77	0.0033
781.417	0.00272
791.063	0.0023007
800.71	0.0019419
810.356	0.0017396
820.003	0.0017359
829.649	0.0016782
839.296	0.0015836
848.943	0.0015172
858.589	0.0014429
868.236	0.0015485
877.882	0.0017509
887.529	0.0019093
897.175	0.0020086
906.822	0.0019346
916.468	0.0020338
926.115	0.0021896
935.761	0.0028
945.408	0.00385
955.054	0.00495
964.701	0.00455
974.347	0.0038
983.994	0.00313
993.64	0.00258
1003.29	0.002195
1012.93	0.0020671
1022.58	0.0021165
1032.23	0.0022594
1041.87	0.0024
1051.52	0.00241
1061.17	0.0021562
1070.81	0.0020356
1080.46	0.0019102
1090.11	0.0018872
1099.75	0.002034
1109.4	0.0020869
1119.05	0.0015261
1128.69	0.001051
1138.34	0.000984
1147.99	0.001157
1157.63	0.0014302
1167.28	0.0014118
1176.92	0.0015323
1186.57	0.0014108
1196.22	0.0015451
1205.86	0.0019996
1215.51	0.003
1225.16	0.00481
1234.8	0.00615
1244.45	0.00707
1254.1	0.00841
1263.74	0.01011
1273.39	0.0111
1283.04	0.01175
1292.68	0.01171
1302.33	0.01129
1311.98	0.00962
1321.62	0.00837
1331.27	0.00758
1340.92	0.0089
1350.56	0.01012
1360.21	0.0091
1369.86	0.00785
1379.5	0.00788
1389.15	0.00721
1398.79	0.00593
1408.44	0.00672
1418.09	0.00955
1427.73	0.01527
1437.38	0.02234
1447.03	0.0266
1456.67	0.02842
1466.32	0.02526
1475.97	0.0156
1485.61	0.00829
1495.26	0.00504
1504.91	0.00361
1514.55	0.00284
1524.2	0.0024
1533.85	0.0020216
1543.49	0.0018942
1553.14	0.0018211
1562.79	0.0016867
1572.43	0.0015639
1582.08	0.0014541
1591.73	0.00132658
1601.37	0.0012938
1611.02	0.001185
1620.67	0.001073
1630.31	0.001
1639.96	0.000978
1649.6	0.000926
1659.25	0.000893
1668.9	0.000817
1678.54	0.000747
1688.19	0.000746
1697.84	0.000738
1707.48	0.000648
1717.13	0.000649
1726.78	0.000596
1736.42	0.000562
1746.07	0.000551
1755.72	0.00052
1765.36	0.000494
1775.01	0.000477
1784.66	0.000463
1794.3	0.000427
1803.95	0.000466
1813.6	0.000485
1823.24	0.000433
1832.89	0.000453
1842.54	0.000426
1852.18	0.000485
1861.83	0.000438
1871.47	0.000383
1881.12	0.000393
1890.77	0.00041
1900.41	0.000448
1910.06	0.000474
1919.71	0.000468
1929.35	0.000475
1939	0.000496
1948.65	0.000493
1958.29	0.000505
1967.94	0.000512
1977.59	0.000595
1987.23	0.000591
1996.88	0.000681
2006.53	0.000714
2016.17	0.000859
2025.82	0.00095
2035.47	0.000985
2045.11	0.000983
2054.76	0.000918
2064.41	0.00082
2074.05	0.000778
2083.7	0.000754
2093.35	0.000731
2102.99	0.00072
2112.64	0.000723
2122.28	0.000743
2131.93	0.000754
2141.58	0.00078
2151.22	0.0008
2160.87	0.000858
2170.52	0.000832
2180.16	0.000828
2189.81	0.000833
2199.46	0.000891
2209.1	0.000871
2218.75	0.000858
2228.4	0.000848
2238.04	0.000892
2247.69	0.00095
2257.34	0.000976
2266.98	0.000999
2276.63	0.001056
2286.28	0.001024
2295.92	0.001017
2305.57	0.000978
2315.22	0.001032
2324.86	0.001059
2334.51	0.001052
2344.16	0.001066
2353.8	0.001073
2363.45	0.001107
2373.09	0.001122
2382.74	0.0012137
2392.39	0.0012487
2402.03	0.0012191
2411.68	0.001169
2421.33	0.001133
2430.97	0.001079
2440.62	0.000976
2450.27	0.001001
2459.91	0.001034
2469.56	0.001057
2479.21	0.001026
2488.85	0.001119
2498.5	0.001138
2508.15	0.001194
2517.79	0.00130295
2527.44	0.00132993
2537.09	0.001428
2546.73	0.0015221
2556.38	0.0015732
2566.03	0.0016508
2575.67	0.0017167
2585.32	0.0018555
2594.96	0.0019981
2604.61	0.0021259
2614.26	0.00236
2623.9	0.00251
2633.55	0.00276
2643.2	0.00295
2652.84	0.00323
2662.49	0.00347
2672.14	0.00377
2681.78	0.00392
2691.43	0.00387
2701.08	0.00363
2710.72	0.00357
2720.37	0.00368
2730.02	0.00396
2739.66	0.00442
2749.31	0.00467
2758.96	0.00486
2768.6	0.00518
2778.25	0.0061
2787.9	0.00736
2797.54	0.00913
2807.19	0.01141
2816.84	0.01524
2826.48	0.02087
2836.13	0.03047
2845.77	0.05249
2855.42	0.09423
2865.07	0.11941
2874.71	0.09989
2884.36	0.08318
2894.01	0.08003
2903.65	0.10553
2913.3	0.16484
2922.95	0.27461
2932.59	0.35079
2942.24	0.28763
2951.89	0.18304
2961.53	0.13675
2971.18	0.11536
2980.83	0.06636
2990.47	0.04198
3000.12	0.02836
3009.77	0.01897
3019.41	0.01388
3029.06	0.011
3038.71	0.00902
3048.35	0.00744
3058	0.00655
3067.64	0.00599
3077.29	0.00545
3086.94	0.00524
3096.58	0.00481
3106.23	0.00458
3115.88	0.0043
3125.52	0.00404
3135.17	0.00362
3144.82	0.00355
3154.46	0.00303
3164.11	0.00291
3173.76	0.00267
3183.4	0.00244
3193.05	0.00235
3202.7	0.0021603
3212.34	0.0019417
3221.99	0.0019044
3231.64	0.0017012
3241.28	0.0016202
3250.93	0.0015094
3260.58	0.0015004
3270.22	0.0014709
3279.87	0.00138806
3289.52	0.0012365
3299.16	0.00139044
3308.81	0.0012744
3318.45	0.0012553
3328.1	0.0012225
3337.75	0.0013428
3347.39	0.00135606
3357.04	0.001201
3366.69	0.00119
3376.33	0.001095
3385.98	0.001067
3395.63	0.001136
3405.27	0.001134
3414.92	0.001139
3424.57	0.000943
3434.21	0.001045
3443.86	0.00099
3453.51	0.000928
3463.15	0.000869
3472.8	0.000828
3482.45	0.000761
3492.09	0.000693
3501.74	0.000713
3511.39	0.000806
3521.03	0.000717
3530.68	0.000622
3540.33	0.000666
3549.97	0.000673
3559.62	0.000664
3569.26	0.000706
3578.91	0.000753
3588.56	0.000707
3598.2	0.00065
3607.85	0.000815
3617.5	0.000997
3627.14	0.00108
3636.79	0.00112
3646.44	0.001109
3656.08	0.000998
3665.73	0.000948
3675.38	0.000972
3685.02	0.000943
3694.67	0.001042
3704.32	0.001034
3713.96	0.00105
3723.61	0.001002
3733.26	0.000973
3742.9	0.000998
3752.55	0.000929
3762.2	0.000969
3771.84	0.00097
3781.49	0.001
3791.13	0.001096
3800.78	0.001003
3810.43	0.00108
3820.07	0.00113
3829.72	0.001108
3839.37	0.00111
3849.01	0.001098
3858.66	0.001048
3868.31	0.001081
3877.95	0.001198
3887.6	0.0012355
3897.25	0.0012334
3906.89	0.001198
3916.54	0.0012515
3926.19	0.0012932
3935.83	0.00130707
3945.48	0.00131264
3955.13	0.00140988
3964.77	0.00140531
3974.42	0.001338
3984.07	0.0014575
3993.71	0.00137031
