Infrared Spectrum: 4,4-Dimethyl-3-oxopentanenitrile
Formula: C 7 H 11 N O
CAS: 59997-51-2
State: gas
Origin: EPA-IR VAPOR PHASE LIBRARY
1/CM	ABSORBANCE
549.8	0.002092
559.445	0.002872
569.09	0.002232
578.734	0.001322
588.379	0.00093
598.024	0.0008176
607.669	0.0004788
617.313	0.0005663
626.958	0.0004513
636.603	0.0006198
646.248	0.0008653
655.893	0.0005878
665.537	0.0009029
675.182	0.0007775
684.827	0.0009103
694.472	0.001172
704.116	0.001142
713.761	0.0010292
723.406	0.000737
733.051	0.0006723
742.695	0.0010632
752.34	0.0010066
761.985	0.001472
771.63	0.001252
781.275	0.0010589
790.919	0.0006339
800.564	0.0005527
810.209	0.0006408
819.854	0.0009386
829.498	0.001152
839.143	0.0010983
848.788	0.0006849
858.433	0.0003915
868.078	0.0007213
877.722	0.000956
887.367	0.001592
897.012	0.002482
906.657	0.003302
916.301	0.003982
925.946	0.004692
935.591	0.004762
945.236	0.003522
954.88	0.002072
964.525	0.0010622
974.17	0.001282
983.815	0.001522
993.46	0.001742
1003.1	0.003052
1012.75	0.005062
1022.39	0.006492
1032.04	0.006612
1041.68	0.008302
1051.33	0.012872
1060.97	0.018292
1070.62	0.019702
1080.26	0.016812
1089.91	0.010542
1099.55	0.005332
1109.2	0.002422
1118.84	0.002122
1128.49	0.001772
1138.13	0.0010955
1147.78	0.0011216
1157.42	0.001522
1167.07	0.001732
1176.71	0.002232
1186.36	0.003412
1196	0.003582
1205.64	0.003702
1215.29	0.004242
1224.93	0.003332
1234.58	0.002252
1244.22	0.002502
1253.87	0.003162
1263.51	0.004262
1273.16	0.005542
1282.8	0.006202
1292.45	0.006492
1302.09	0.006642
1311.74	0.006212
1321.38	0.004452
1331.03	0.002722
1340.67	0.002222
1350.32	0.002922
1359.96	0.005312
1369.61	0.008902
1379.25	0.009142
1388.9	0.007992
1398.54	0.008042
1408.18	0.007872
1417.83	0.005772
1427.47	0.004332
1437.12	0.003862
1446.76	0.004472
1456.41	0.006282
1466.05	0.009192
1475.7	0.012312
1485.34	0.010992
1494.99	0.006372
1504.63	0.002602
1514.28	0.001562
1523.92	0.001242
1533.57	0.0009977
1543.21	0.0009294
1552.86	0.000796
1562.5	0.0006633
1572.15	0.0006165
1581.79	0.0006794
1591.44	0.0006044
1601.08	0.0007851
1610.73	0.001242
1620.37	0.001682
1630.01	0.001632
1639.66	0.001222
1649.3	0.001152
1658.95	0.001312
1668.59	0.001592
1678.24	0.002282
1687.88	0.003532
1697.53	0.006212
1707.17	0.012442
1716.82	0.024822
1726.46	0.039012
1736.11	0.043712
1745.75	0.031122
1755.4	0.014192
1765.04	0.005582
1774.69	0.003042
1784.33	0.002112
1793.98	0.001622
1803.62	0.001242
1813.27	0.001
1822.91	0.000793
1832.55	0.0007292
1842.2	0.0006368
1851.84	0.0006484
1861.49	0.0005244
1871.13	0.000523
1880.78	0.0005169
1890.42	0.0005587
1900.07	0.000542
1909.71	0.0004343
1919.36	0.000464
1929	0.0004194
1938.65	0.0003963
1948.29	0.0003904
1957.94	0.0004314
1967.58	0.0004545
1977.23	0.0003855
1986.87	0.0003953
1996.52	0.0003963
2006.16	0.0003407
2015.81	0.0003073
2025.45	0.000241
2035.1	0.0003448
2044.74	0.0003302
2054.38	0.0002928
2064.03	0.0002546
2073.67	0.000322
2083.32	0.0003416
2092.96	0.0004098
2102.61	0.0003637
2112.25	0.0003256
2121.9	0.0003137
2131.54	0.0003316
2141.19	0.0002776
2150.83	0.0003488
2160.48	0.0003896
2170.12	0.0002946
2179.77	0.0002989
2189.41	0.0004072
2199.06	0.0005175
2208.7	0.000607
2218.35	0.000549
2227.99	0.0004461
2237.64	0.0006361
2247.28	0.0010564
2256.92	0.001392
2266.57	0.001152
2276.21	0.0006336
2285.86	0.0003827
2295.5	0.0004483
2305.15	0.0004111
2314.79	0.0005009
2324.44	0.0004928
2334.08	0.0002991
2343.73	0.0003009
2353.37	0.00022918
2363.02	0.0002474
2372.66	0.0002981
2382.31	0.0003687
2391.95	0.0004235
2401.6	0.0003876
2411.24	0.0002784
2420.89	0.0003266
2430.53	0.0002685
2440.18	0.0002592
2449.82	0.0002431
2459.47	0.0002546
2469.11	0.0002423
2478.75	0.00021555
2488.4	0.0002482
2498.04	0.000243
2507.69	0.0002687
2517.33	0.0004455
2526.98	0.0003228
2536.62	0.0003144
2546.27	0.0003311
2555.91	0.0003937
2565.56	0.0003417
2575.2	0.000397
2584.85	0.0005207
2594.49	0.0004629
2604.14	0.0003611
2613.78	0.0004803
2623.43	0.0003414
2633.07	0.0003292
2642.72	0.0004617
2652.36	0.0003702
2662.01	0.0004215
2671.65	0.0004417
2681.29	0.0005369
2690.94	0.0004009
2700.58	0.0005234
2710.23	0.0004749
2719.87	0.0005706
2729.52	0.0006832
2739.16	0.0006939
2748.81	0.0006984
2758.45	0.0005326
2768.1	0.0005996
2777.74	0.0006944
2787.39	0.0007052
2797.03	0.0008788
2806.68	0.0010548
2816.32	0.0011011
2825.97	0.001262
2835.61	0.001402
2845.26	0.001812
2854.9	0.002392
2864.55	0.004212
2874.19	0.007042
2883.84	0.009102
2893.48	0.009142
2903.12	0.009122
2912.77	0.010062
2922.41	0.011522
2932.06	0.013262
2941.7	0.015782
2951.35	0.018722
2960.99	0.025212
2970.64	0.035172
2980.28	0.036622
2989.93	0.025762
2999.57	0.013022
3009.22	0.005732
3018.86	0.002862
3028.51	0.001692
3038.15	0.001202
3047.8	0.0009695
3057.44	0.0006945
3067.09	0.0006439
3076.73	0.0005802
3086.38	0.0006421
3096.02	0.0006025
3105.67	0.0007934
3115.31	0.0006805
3124.95	0.0006879
3134.6	0.0007447
3144.24	0.0007117
3153.89	0.0008278
3163.53	0.0008554
3173.18	0.000739
3182.82	0.0008336
3192.47	0.0010285
3202.11	0.0008793
3211.76	0.0009564
3221.4	0.0007067
3231.05	0.0006532
3240.69	0.000631
3250.34	0.0004717
3259.98	0.0004349
3269.63	0.0003038
3279.27	0.0002964
3288.92	0.0004318
3298.56	0.0004416
3308.21	0.0004205
3317.85	0.0004597
3327.49	0.0003859
3337.14	0.0004454
3346.78	0.0003149
3356.43	0.0004648
3366.07	0.000367
3375.72	0.0003247
3385.36	0.0003513
3395.01	0.0003052
3404.65	0.000507
3414.3	0.0005093
3423.94	0.0007197
3433.59	0.000956
3443.23	0.0010091
3452.88	0.0010393
3462.52	0.0008866
3472.17	0.0005965
3481.81	0.0004112
3491.46	0.000377
3501.1	0.0004429
3510.75	0.0002321
3520.39	0.0003262
3530.04	0.0002967
3539.68	0.0006197
3549.32	0.0005721
3558.97	0.0004103
3568.61	0.0003912
3578.26	0.00014412
3587.9	0.00019893
3597.55	0.0002933
3607.19	0.00020497
3616.84	0.0003541
3626.48	0.0002703
3636.13	0.0003242
3645.77	0.0002399
3655.42	0.0002914
3665.06	0.00014475
3674.71	0.00012664
3684.35	0.0003159
3694	0.000141427
3703.64	0.0002339
3713.29	0.0003356
3722.93	0.00022623
3732.58	0.00016663
3742.22	0.00020647
3751.86	0.00019432
3761.51	0.0001183
3771.15	0.00022688
3780.8	0.00018249
3790.44	0.0003384
3800.09	0.0002653
3809.73	0.00015676
3819.38	0.0002442
3829.02	0.00016649
3838.67	0.0003853
3848.31	0.0003504
3857.96	0.0003442
3867.6	0.0003024
3877.25	0.0003036
3886.89	0.0002454
3896.54	0.0004469
3906.18	0.000364
3915.83	0.00017562
3925.47	0.00014964
3935.12	0.000503
3944.76	0.0004459
3954.41	0.0002358
3964.05	0.00019317
3973.69	0
3983.34	0.0003721
3992.98	0.000301
