Infrared Spectrum: 1,2,3-Propanetriol, tributyrate
Formula: C15 H26 O6
CAS: 60-01-5
State: SOLUTION (10% CCl4 FOR 2.7-7.5, 10% CS2 FOR 7.5-26 MICRON) VS SOLVENT
Class: COBLENTZ III
Instrument: DOW KBr FOREPRISM-GRATING
Instrument parameters: BLAZED AT 3.5, 12.0, 20.0 MICRON AND CHANGED AT 5.0, 7.5, 14.9 MICRON
Sampling: TRANSMISSION
Path length: 0.011 CM, 0.011 CM
Resolution: 2
Origin: DOW CHEMICAL COMPANY
1/CM	TRANSMITTANCE
3792	0.8659
3783	0.8665
3774	0.8673
3765	0.8681
3756	0.8685
3747	0.8689
3738	0.8692
3729	0.8694
3720	0.8697
3711	0.8704
3702	0.8708
3693	0.8702
3684	0.866
3675	0.8588
3666	0.8547
3657	0.8543
3648	0.855
3639	0.8554
3630	0.849
3621	0.8338
3612	0.8115
3603	0.7945
3594	0.7934
3585	0.7935
3576	0.7907
3567	0.7818
3558	0.7626
3549	0.7417
3540	0.7215
3531	0.7036
3522	0.6837
3513	0.6688
3504	0.6626
3495	0.6608
3486	0.6594
3477	0.6587
3468	0.6574
3459	0.6561
3450	0.6675
3441	0.6897
3432	0.7122
3423	0.7319
3414	0.7495
3405	0.7643
3396	0.774
3387	0.7835
3378	0.7917
3369	0.7997
3360	0.8074
3351	0.8139
3342	0.8204
3333	0.826
3324	0.8305
3315	0.8349
3306	0.8386
3297	0.8423
3288	0.8453
3279	0.8481
3270	0.8509
3261	0.8532
3252	0.8555
3243	0.8574
3234	0.8586
3225	0.8589
3216	0.8577
3207	0.8566
3198	0.856
3189	0.8554
3180	0.8557
3171	0.8561
3162	0.8566
3153	0.8565
3144	0.8564
3135	0.8562
3126	0.8555
3117	0.8547
3108	0.8538
3099	0.8528
3090	0.851
3081	0.8492
3072	0.847
3063	0.8439
3054	0.8378
3045	0.8301
3036	0.8181
3027	0.8038
3018	0.7826
3009	0.7478
3000	0.6986
2991	0.3987
2982	0.2302
2973	0.0727
2964	0.052
2955	0.1209
2946	0.2082
2937	0.1882
2928	0.2697
2919	0.4044
2910	0.427
2901	0.457
2892	0.4919
2883	0.2925
2874	0.3452
2865	0.5726
2856	0.6798
2847	0.7182
2838	0.7444
2829	0.7646
2820	0.7801
2811	0.7937
2802	0.8062
2793	0.8175
2784	0.8256
2775	0.8328
2766	0.8389
2757	0.8437
2748	0.8438
2739	0.8392
2730	0.8365
2721	0.842
2712	0.847
2703	0.851
2694	0.8531
2685	0.854
2676	0.8544
2667	0.8536
2658	0.8528
2649	0.8543
2640	0.856
2631	0.8575
2622	0.859
2613	0.8603
2604	0.8617
2595	0.863
2586	0.8642
2577	0.8649
2568	0.8656
2559	0.8663
2550	0.8671
2541	0.8678
2532	0.8686
2523	0.8693
2514	0.8701
2505	0.8709
2496	0.8721
2487	0.8735
2478	0.8749
2469	0.8759
2460	0.8768
2451	0.8774
2442	0.8771
2433	0.8764
2424	0.8755
2415	0.875
2406	0.8747
2397	0.8744
2388	0.8743
2379	0.8751
2370	0.8759
2361	0.8765
2352	0.8771
2343	0.8774
2334	0.8771
2325	0.8739
2316	0.8682
2307	0.8653
2298	0.8648
2289	0.8652
2280	0.8658
2271	0.8668
2262	0.8683
2253	0.8701
2244	0.873
2235	0.8762
2226	0.8775
2217	0.8775
2208	0.8774
2199	0.8771
2190	0.8768
2181	0.8825
2172	0.8868
2163	0.8814
2154	0.8797
2145	0.8771
2136	0.875
2127	0.8731
2118	0.8712
2109	0.8694
2100	0.8675
2091	0.8657
2082	0.8639
2073	0.8621
2064	0.8605
2055	0.8588
2046	0.8581
2037	0.858
2028	0.8582
2019	0.8584
2010	0.8571
2001	0.8594
1992	0.8633
1983	0.8652
1974	0.8671
1965	0.8689
1956	0.8705
1947	0.8716
1938	0.8721
1929	0.8707
1920	0.8697
1911	0.8688
1902	0.8683
1893	0.8678
1884	0.8662
1875	0.8637
1866	0.8616
1857	0.8575
1848	0.8514
1839	0.8444
1830	0.8371
1821	0.8266
1812	0.8075
1803	0.78
1794	0.7524
1785	0.7172
1776	0.636
1767	0.5035
1758	0.1985
1749	0.0181
1740	0.0019
1731	0.0025
1722	0.0572
1713	0.1698
1704	0.2906
1695	0.5083
1686	0.6339
1677	0.7145
1668	0.7524
1659	0.7715
1650	0.786
1641	0.7986
1632	0.809
1623	0.8178
1614	0.8262
1605	0.834
1596	0.8409
1587	0.8461
1578	0.8492
1569	0.8496
1560	0.8504
1551	0.8517
1542	0.8531
1533	0.8485
1524	0.8418
1515	0.8312
1506	0.8145
1497	0.7944
1488	0.7708
1479	0.7115
1470	0.2934
1461	0.2022
1452	0.352
1443	0.4248
1434	0.4662
1425	0.422
1416	0.4088
1407	0.5058
1398	0.4343
1389	0.2913
1380	0.2607
1371	0.2866
1362	0.2793
1353	0.3039
1344	0.3429
1335	0.4154
1326	0.4684
1317	0.4626
1308	0.3422
1299	0.2707
1290	0.2889
1281	0.2619
1272	0.2507
1263	0.1972
1254	0.1536
1245	0.1405
1236	0.1903
1227	0.254
1218	0.3134
1209	0.2594
1200	0.1275
1191	0.072
1182	0.0309
1173	0.0112
1164	0.0055
1155	0.005
1146	0.1199
1137	0.265
1128	0.3656
1119	0.3696
1110	0.2085
1101	0.1068
1092	0.0995
1083	0.1218
1074	0.2168
1065	0.3668
1056	0.3832
1047	0.3386
1038	0.3886
1029	0.5195
1020	0.523
1011	0.4276
1002	0.4921
993	0.5336
984	0.5506
975	0.5795
966	0.5127
957	0.4972
948	0.5476
939	0.6037
930	0.653
921	0.6671
912	0.6638
903	0.664
894	0.6771
885	0.6896
876	0.6771
867	0.6626
858	0.6704
849	0.7172
840	0.7283
831	0.7445
822	0.7705
813	0.7872
804	0.7535
795	0.6957
786	0.7061
777	0.7721
768	0.7844
759	0.7507
750	0.6469
741	0.7611
732	0.7833
723	0.7812
714	0.7803
705	0.7838
696	0.7897
687	0.789
678	0.7887
669	0.791
660	0.7988
651	0.78
642	0.7786
633	0.7762
624	0.7724
615	0.766
606	0.7583
597	0.7465
588	0.7364
579	0.7305
570	0.7414
561	0.7546
552	0.7618
543	0.7638
534	0.7608
525	0.7561
516	0.7528
507	0.7508
498	0.749
489	0.7465
480	0.7418
471	0.7233
462	0.6997
453	0.6951
444	0.6958
435	0.6961
426	0.6967
417	0.6994
408	0.6999
399	0.6988
