Infrared Spectrum: 4-Phenylazoaniline
Formula: C 12 H 11 N 3
CAS: 60-09-3
State: gas
Instrument: HP-GC/MS/IRD
Origin: NIST Mass Spectrometry Data Center
1/CM	ABSORBANCE
550	0.004068
562	0.0025236
574	0.0018792
586	0.001602
598	0.0015048
610	0.0017352
622	0.0027288
634	0.005112
646	0.0063108
658	0.0081756
670	0.0127224
682	0.0157248
694	0.0127476
706	0.0076788
718	0.006174
730	0.0052488
742	0.005472
754	0.007776
766	0.0085716
778	0.0048924
790	0.0032184
802	0.0033588
814	0.0059652
826	0.0107928
838	0.0090612
850	0.0040644
862	0.0020556
874	0.0012744
886	0.0008676
898	0.0005472
910	0.0006696
922	0.0009756
934	0.0006444
946	0.000504
958	0.000432
970	0.0003312
982	0.0002376
994	0.00027
1006	0.000846
1018	0.0020988
1030	0.0008136
1042	0.000432
1054	0.001134
1066	0.0019476
1078	0.0016308
1090	0.0017172
1102	0.002448
1114	0.0036936
1126	0.0054288
1138	0.0150948
1150	0.0200952
1162	0.0085032
1174	0.0007056
1186	0.0002196
1198	0.0003312
1210	0.000954
1222	0.0022068
1234	0.0019908
1246	0.002124
1258	0.0059436
1270	0.019638
1282	0.0261468
1294	0.0082008
1306	0.0021348
1318	0.0010512
1330	0.0004464
1342	0.0001692
1354	7.56e-05
1366	6.12e-05
1378	2.52e-05
1390	1.44e-05
1402	0.0002088
1414	0.0010008
1426	0.0047304
1438	0.0048816
1450	0.0029736
1462	0.003096
1474	0.0058752
1486	0.0051912
1498	0.0158544
1510	0.0249336
1522	0.0036504
1534	0.001638
1546	0.0016812
1558	0.0024336
1570	0.0042624
1582	0.011322
1594	0.0247104
1606	0.0253836
1618	0.031014
1630	0.0282816
1642	0.0088272
1654	0.003456
1666	0.002232
1678	0.0019656
1690	0.0016812
1702	0.0012348
1714	0.0007632
1726	0.0005472
1738	0.000576
1750	0.0006228
1762	0.0004932
1774	0.000342
1786	0.000522
1798	0.0006048
1810	0.0002916
1822	0.0002412
1834	0.0002268
1846	0.0002052
1858	0.0004212
1870	0.0006876
1882	0.0010692
1894	0.0010692
1906	0.0006948
1918	0.0005652
1930	0.000666
1942	0.0008208
1954	0.0009576
1966	0.00054
1978	0.0003852
1990	0.0003636
2002	0.0004284
2014	0.0005796
2026	0.0004212
2038	0.000414
2050	0.0004392
2062	0.0003888
2074	0.0003492
2086	0.0003204
2098	0.0003384
2110	0.0003348
2122	0.0003276
2134	0.0002988
2146	0.000234
2158	0.0002232
2170	0.0002052
2182	0.0003096
2194	0.0002916
2206	0.0002808
2218	0.0002484
2230	0.000288
2242	0.0002592
2254	0.0003348
2266	0.000396
2278	0.0004248
2290	0.0004284
2302	0.000396
2314	0.0004428
2326	0.0003204
2338	0.000342
2350	0.0003456
2362	0.0003636
2374	0.0003924
2386	0.0003024
2398	0.000324
2410	0.000324
2422	0.0003852
2434	0.0004176
2446	0.0004212
2458	0.0002916
2470	0.0002808
2482	0.0002232
2494	0.0002304
2506	0.0002448
2518	0.0002844
2530	0.0002736
2542	0.000342
2554	0.0004212
2566	0.0004536
2578	0.0005148
2590	0.000612
2602	0.0006696
2614	0.00072
2626	0.0007776
2638	0.0006948
2650	0.0005256
2662	0.0004284
2674	0.0003456
2686	0.0003276
2698	0.0003204
2710	0.0003132
2722	0.0003816
2734	0.0005112
2746	0.0005436
2758	0.0004356
2770	0.0003852
2782	0.0002916
2794	0.0002268
2806	0.0001944
2818	0.0002016
2830	0.0001404
2842	0.0001476
2854	0.000216
2866	0.0003312
2878	0.0003924
2890	0.0004788
2902	0.0005148
2914	0.0004212
2926	0.0003636
2938	0.0003312
2950	0.00036
2962	0.000432
2974	0.0005076
2986	0.0008028
2998	0.0016848
3010	0.0033552
3022	0.0042876
3034	0.0073224
3046	0.0087444
3058	0.0077508
3070	0.0103104
3082	0.0078624
3094	0.004464
3106	0.0023256
3118	0.0011736
3130	0.0005868
3142	0.000414
3154	0.0005724
3166	0.0006336
3178	0.0006192
3190	0.0005004
3202	0.0007056
3214	0.0008676
3226	0.0006948
3238	0.000468
3250	0.0003708
3262	0.0003276
3274	0.000306
3286	0.0002664
3298	0.0002304
3310	0.0003168
3322	0.0002268
3334	0.00027
3346	0.0003456
3358	0.0003852
3370	0.0005184
3382	0.0008676
3394	0.0018576
3406	0.0040788
3418	0.0061272
3430	0.0052164
3442	0.0016812
3454	0.0008388
3466	0.0008568
3478	0.0010836
3490	0.0015948
3502	0.0018648
3514	0.001728
3526	0.0014148
3538	0.0008316
3550	0.0005148
3562	0.000378
3574	0.0003348
3586	0.0002736
3598	0.00027
3610	0.0002844
3622	0.000306
3634	0.0003096
3646	0.000342
3658	0.0004104
3670	0.0003456
3682	0.0003672
3694	0.0004212
3706	0.0004752
3718	0.0004176
3730	0.0003492
3742	0.0003024
3754	0.0002808
3766	0.0003528
3778	0.0003852
3790	0.00045
3802	0.0004608
3814	0.0004752
3826	0.0006516
3838	0.0007884
