Infrared Spectrum: Phenethyl alcohol
Formula: C 8 H 10 O
CAS: 60-12-8
State: gas
Instrument: HP-GC/MS/IRD
Origin: NIST Mass Spectrometry Data Center
1/CM	ABSORBANCE
550	0.000452
562	0.000876
574	0.0013
586	0.001056
598	0.000736
610	0.000174
622	4.8e-05
634	0.000112
646	0.000112
658	0.000504
670	0.00173
682	0.004812
694	0.009198
706	0.008526
718	0.006004
730	0.006536
742	0.00772
754	0.005038
766	0.002062
778	0.000742
790	0.000372
802	0.000218
814	0.00026
826	0.000326
838	0.000512
850	0.000794
862	0.000738
874	0.00057
886	0.000548
898	0.000582
910	0.000596
922	0.000676
934	0.000904
946	0.000958
958	0.000954
970	0.001232
982	0.001828
994	0.003242
1006	0.004978
1018	0.007944
1030	0.014888
1042	0.02
1054	0.016692
1066	0.010934
1078	0.006148
1090	0.003314
1102	0.002062
1114	0.001624
1126	0.0015
1138	0.001552
1150	0.001462
1162	0.001472
1174	0.0017
1186	0.001912
1198	0.002116
1210	0.002094
1222	0.001828
1234	0.001776
1246	0.001728
1258	0.001688
1270	0.00169
1282	0.001664
1294	0.001672
1306	0.001798
1318	0.001868
1330	0.002054
1342	0.002202
1354	0.002226
1366	0.002774
1378	0.003874
1390	0.003914
1402	0.002602
1414	0.001704
1426	0.00167
1438	0.002292
1450	0.00268
1462	0.00234
1474	0.001924
1486	0.003162
1498	0.004162
1510	0.001842
1522	0.000486
1534	0.000342
1546	0.000252
1558	0.000332
1570	0.00047
1582	0.00088
1594	0.001676
1606	0.00174
1618	0.00079
1630	0.000268
1642	0.000214
1654	0.000206
1666	9.6e-05
1678	4.2e-05
1690	1.2e-05
1702	7.2e-05
1714	0.000126
1726	0.000184
1738	0.000236
1750	0.0002
1762	0.00013
1774	0.000218
1786	0.000458
1798	0.000602
1810	0.00039
1822	0.000206
1834	0.000152
1846	0.000236
1858	0.000404
1870	0.000526
1882	0.000482
1894	0.000256
1906	0.000202
1918	0.00031
1930	0.000524
1942	0.000682
1954	0.000596
1966	0.000226
1978	8.8e-05
1990	5.6e-05
2002	5.2e-05
2014	5.6e-05
2026	9.4e-05
2038	0.000112
2050	0.000152
2062	0.000164
2074	0.000152
2086	0.000106
2098	7.8e-05
2110	7.6e-05
2122	6.8e-05
2134	1.2e-05
2146	2e-06
2158	4e-06
2170	0
2182	4e-05
2194	3.4e-05
2206	2.6e-05
2218	2.8e-05
2230	2.2e-05
2242	1e-05
2254	3.6e-05
2266	3.4e-05
2278	5e-05
2290	4.2e-05
2302	5.4e-05
2314	0.0001
2326	0.000108
2338	0.000104
2350	9e-05
2362	9.6e-05
2374	6.2e-05
2386	6.2e-05
2398	0.000114
2410	9.6e-05
2422	9.4e-05
2434	8.4e-05
2446	6.6e-05
2458	5.2e-05
2470	7.6e-05
2482	5.6e-05
2494	6.8e-05
2506	4.2e-05
2518	7e-05
2530	6.8e-05
2542	8.6e-05
2554	7.6e-05
2566	5.8e-05
2578	8.4e-05
2590	0.000104
2602	0.000106
2614	0.000122
2626	0.000186
2638	0.00019
2650	0.000214
2662	0.000206
2674	0.00023
2686	0.000266
2698	0.00029
2710	0.000318
2722	0.000404
2734	0.000468
2746	0.0005
2758	0.000572
2770	0.000614
2782	0.000726
2794	0.0008
2806	0.00087
2818	0.001062
2830	0.001422
2842	0.002132
2854	0.003252
2866	0.005182
2878	0.00754
2890	0.007878
2902	0.007122
2914	0.008396
2926	0.010598
2938	0.011634
2950	0.010878
2962	0.008808
2974	0.00541
2986	0.00273
2998	0.002088
3010	0.00303
3022	0.005966
3034	0.008502
3046	0.006854
3058	0.005762
3070	0.007854
3082	0.006718
3094	0.004164
3106	0.002548
3118	0.001284
3130	0.00048
3142	0.000276
3154	0.000202
3166	0.000192
3178	0.000104
3190	7e-05
3202	3.6e-05
3214	2.4e-05
3226	0.0001
3238	2.4e-05
3250	2.6e-05
3262	5e-05
3274	0.0001
3286	5.2e-05
3298	0.000108
3310	0.000106
3322	9e-05
3334	9.8e-05
3346	7.8e-05
3358	0.000148
3370	0.00013
3382	0.00015
3394	0.000116
3406	0.000156
3418	0.00016
3430	0.000166
3442	0.000224
3454	0.000188
3466	0.000288
3478	0.000268
3490	0.000252
3502	0.000238
3514	0.00024
3526	0.00023
3538	0.000196
3550	0.000254
3562	0.000318
3574	0.000354
3586	0.000328
3598	0.000438
3610	0.000612
3622	0.001444
3634	0.002102
3646	0.002118
3658	0.002896
3670	0.003204
3682	0.001926
3694	0.00093
3706	0.000598
3718	0.000454
3730	0.000368
3742	0.000308
3754	0.000278
3766	0.000218
3778	0.00023
3790	0.000226
3802	0.000244
3814	0.000252
3826	0.000354
3838	0.000334
