Infrared Spectrum: L-TYROSINE
Formula: C9 H11 N O3
CAS: 60-18-4
State: SOLID (1.5 mg / 100 mg KBr PELLET)
Class: COBLENTZ
Instrument: Not specified, most likely a grating spectrometer.
Sampling: TRANSMISSION
Resolution: 4
Origin: CITRUS EXPERIMENT STATION, UNIVERSITY OF FLORIDA (G. EDWARDS)
MICROMETERS	TRANSMITTANCE
2.033	0.714
2.06613	0.721
2.09926	0.723
2.13239	0.73
2.16552	0.734
2.19865	0.737
2.23179	0.737
2.26492	0.738
2.29805	0.75
2.33118	0.758
2.36431	0.762
2.39744	0.763
2.43057	0.766
2.4637	0.778
2.49683	0.783
2.52996	0.786
2.56309	0.787
2.59622	0.787
2.62936	0.786
2.66249	0.786
2.69562	0.783
2.72875	0.782
2.76188	0.779
2.79501	0.775
2.82814	0.77
2.86127	0.76
2.8944	0.743
2.92753	0.723
2.96066	0.681
2.9938	0.62
3.02693	0.541
3.06006	0.419
3.09319	0.322
3.12632	0.324
3.15945	0.321
3.19258	0.317
3.22571	0.321
3.25884	0.31
3.29197	0.281
3.3251	0.272
3.35824	0.272
3.39137	0.29
3.4245	0.288
3.45763	0.286
3.49076	0.288
3.52389	0.293
3.55702	0.313
3.59015	0.306
3.62328	0.308
3.65641	0.316
3.68954	0.33
3.72267	0.35
3.75581	0.339
3.78894	0.349
3.82207	0.342
3.8552	0.357
3.88833	0.393
3.92146	0.432
3.95459	0.454
3.98772	0.459
4.02085	0.467
4.05398	0.504
4.08711	0.533
4.12025	0.56
4.15338	0.586
4.18651	0.628
4.21964	0.654
4.25277	0.653
4.2859	0.653
4.31903	0.657
4.35216	0.669
4.38529	0.682
4.41842	0.694
4.45155	0.709
4.48469	0.713
4.51782	0.714
4.55095	0.721
4.58408	0.726
4.61721	0.725
4.65034	0.721
4.68347	0.706
4.7166	0.686
4.74973	0.645
4.78286	0.633
4.81599	0.65
4.84912	0.679
4.88226	0.706
4.91539	0.727
4.94852	0.741
4.98165	0.749
5.01478	0.752
5.04791	0.758
5.08104	0.762
5.11417	0.77
5.1473	0.774
5.18043	0.77
5.21356	0.758
5.2467	0.751
5.27983	0.791
5.31296	0.796
5.34609	0.796
5.37922	0.792
5.41235	0.792
5.44548	0.792
5.47861	0.791
5.51174	0.791
5.54487	0.787
5.578	0.784
5.61113	0.778
5.64427	0.772
5.6774	0.76
5.71053	0.75
5.74366	0.742
5.77679	0.735
5.80992	0.706
5.84305	0.675
5.87618	0.653
5.90931	0.621
5.94244	0.6
5.97557	0.563
6.00871	0.501
6.04184	0.374
6.07497	0.32
6.1081	0.233
6.14123	0.172
6.17436	0.112
6.20749	0.11
6.24062	0.13
6.27375	0.096
6.30688	0.115
6.34001	0.244
6.37315	0.312
6.40628	0.391
6.43941	0.398
6.47254	0.398
6.50567	0.387
6.5388	0.345
6.57193	0.351
6.60506	0.442
6.63819	0.478
6.67132	0.531
6.70445	0.551
6.73758	0.537
6.77072	0.486
6.80385	0.443
6.83698	0.393
6.87011	0.381
6.90324	0.407
6.93637	0.385
6.9695	0.39
7.00263	0.401
7.03576	0.345
7.06889	0.374
7.10202	0.5
7.13516	0.557
7.16829	0.575
7.20142	0.507
7.23455	0.423
7.26768	0.341
7.30081	0.241
7.33394	0.293
7.36707	0.476
7.4002	0.568
7.43333	0.416
7.46646	0.196
7.4996	0.116
7.53273	0.18
7.56586	0.301
7.59899	0.385
7.63212	0.475
7.66525	0.527
7.69838	0.56
7.73151	0.586
7.76464	0.609
7.79777	0.612
7.8309	0.597
7.86403	0.511
7.89717	0.48
7.9303	0.48
7.96343	0.385
7.99656	0.233
8.02969	0.217
8.06282	0.308
8.09595	0.39
8.12908	0.466
8.16221	0.511
8.19534	0.501
8.22847	0.454
8.26161	0.515
8.29474	0.577
8.32787	0.556
8.361	0.581
8.39413	0.65
8.42726	0.661
8.46039	0.622
8.49352	0.551
8.52665	0.602
8.55978	0.585
8.59291	0.532
8.62604	0.494
8.65918	0.491
8.69231	0.547
8.72544	0.632
8.75857	0.666
8.7917	0.691
8.82483	0.711
8.85796	0.725
8.89109	0.733
8.92422	0.726
8.95735	0.652
8.99048	0.513
9.02362	0.571
9.05675	0.567
9.08988	0.454
9.12301	0.491
9.15614	0.586
9.18927	0.675
9.2224	0.707
9.25553	0.723
9.28866	0.731
9.32179	0.739
9.35492	0.747
9.38806	0.754
9.42119	0.754
9.45432	0.751
9.48745	0.737
9.52058	0.687
9.55371	0.592
9.58684	0.482
9.61997	0.545
9.6531	0.661
9.68623	0.703
9.71936	0.725
9.75249	0.741
9.78563	0.747
9.81876	0.737
9.85189	0.73
9.88502	0.763
9.91815	0.77
9.95128	0.772
9.98441	0.775
10.0175	0.774
10.0507	0.768
10.0838	0.754
10.1169	0.705
10.1501	0.633
10.1832	0.66
10.2163	0.721
10.2495	0.747
10.2826	0.76
10.3157	0.763
10.3489	0.763
10.382	0.77
10.4151	0.774
10.4482	0.772
10.4814	0.772
10.5145	0.771
10.5476	0.766
10.5808	0.755
10.6139	0.731
10.647	0.71
10.6802	0.745
10.7133	0.767
10.7464	0.772
10.7796	0.771
10.8127	0.771
10.8458	0.77
10.8789	0.77
10.9121	0.767
10.9452	0.762
10.9783	0.755
11.0115	0.745
11.0446	0.731
11.0777	0.691
11.1109	0.626
11.144	0.592
11.1771	0.617
11.2103	0.667
11.2434	0.685
11.2765	0.673
11.3096	0.624
11.3428	0.551
11.3759	0.447
11.409	0.451
11.4422	0.516
11.4753	0.606
11.5084	0.664
11.5416	0.695
11.5747	0.713
11.6078	0.714
11.641	0.703
11.6741	0.685
11.7072	0.641
11.7403	0.606
11.7735	0.586
11.8066	0.541
11.8397	0.406
11.8729	0.28
11.906	0.256
11.9391	0.31
11.9723	0.435
12.0054	0.512
12.0385	0.512
12.0717	0.494
12.1048	0.535
12.1379	0.576
12.171	0.583
12.2042	0.581
12.2373	0.571
12.2704	0.555
12.3036	0.537
12.3367	0.509
12.3698	0.486
12.403	0.467
12.4361	0.45
12.4692	0.442
12.5024	0.443
12.5355	0.443
12.5686	0.431
12.6018	0.431
12.6349	0.442
12.668	0.47
12.7011	0.49
12.7343	0.512
12.7674	0.536
12.8005	0.552
12.8337	0.571
12.8668	0.588
12.8999	0.605
12.9331	0.617
12.9662	0.63
12.9993	0.642
13.0325	0.652
13.0656	0.657
13.0987	0.661
13.1318	0.665
13.165	0.673
13.1981	0.677
13.2312	0.677
13.2644	0.677
13.2975	0.677
13.3306	0.671
13.3638	0.662
13.3969	0.646
13.43	0.604
13.4632	0.552
13.4963	0.498
13.5294	0.517
13.5625	0.572
13.5957	0.638
13.6288	0.662
13.6619	0.674
13.6951	0.687
13.7282	0.693
13.7613	0.697
13.7945	0.701
13.8276	0.701
13.8607	0.697
13.8939	0.693
13.927	0.686
13.9601	0.662
13.9932	0.613
14.0264	0.601
14.0595	0.628
14.0926	0.657
14.1258	0.666
14.1589	0.674
14.192	0.674
14.2252	0.673
14.2583	0.67
14.2914	0.666
14.3246	0.661
14.3577	0.656
14.3908	0.645
14.4239	0.64
14.4571	0.633
14.4902	0.63
14.5233	0.63
14.5565	0.629
14.5896	0.628
14.6227	0.624
14.6559	0.622
14.689	0.621
14.7221	0.62
14.7553	0.616
14.7884	0.613
14.8215	0.609
14.8547	0.601
14.8878	0.597
14.9209	0.597
14.954	0.61
14.9872	0.612
