Infrared Spectrum: 9,12-OCTADECADIENOIC ACID, [Z,Z]
Formula: C18 H32 O2
CAS: 60-33-3
State: LIQUID (NEAT)
Class: COBLENTZ III
Instrument: PERKIN-ELMER 180 (GRATING)
Instrument parameters: GRATING CHANGES AT 2000, 1000, 500, 250 CM^-^1
Sampling: TRANSMISSION
Path length: CAPILLARY, KBr CRYSTALS
Resolution: 4
Origin: STANDARD OIL OF OHIO
1/CM	TRANSMITTANCE
294.148	0.057
304.326	0.102
314.504	0.147
324.682	0.201
334.861	0.276
345.039	0.354
355.217	0.423
365.395	0.493
375.573	0.55
385.751	0.602
395.929	0.649
406.108	0.685
416.286	0.729
426.464	0.75
436.642	0.769
446.82	0.779
456.998	0.783
467.176	0.781
477.355	0.786
487.533	0.795
497.711	0.81
507.889	0.831
518.067	0.841
528.245	0.848
538.424	0.85
548.602	0.85
558.78	0.848
568.958	0.835
579.136	0.829
589.314	0.819
599.492	0.806
609.671	0.812
619.849	0.809
630.027	0.803
640.205	0.801
650.383	0.798
660.561	0.774
670.739	0.747
680.918	0.726
691.096	0.713
701.274	0.69
711.452	0.664
721.63	0.631
731.808	0.682
741.986	0.743
752.165	0.773
762.343	0.785
772.521	0.786
782.699	0.795
792.877	0.797
803.055	0.797
813.233	0.803
823.412	0.791
833.59	0.781
843.768	0.778
853.946	0.774
864.124	0.763
874.302	0.753
884.481	0.736
894.659	0.717
904.837	0.681
915.015	0.648
925.193	0.634
935.371	0.626
945.549	0.645
955.728	0.683
965.906	0.716
976.084	0.741
986.262	0.759
996.44	0.783
1006.62	0.805
1016.8	0.802
1026.97	0.804
1037.15	0.797
1047.33	0.8
1057.51	0.798
1067.69	0.796
1077.87	0.789
1088.04	0.778
1098.22	0.778
1108.4	0.783
1118.58	0.775
1128.76	0.789
1138.93	0.774
1149.11	0.779
1159.29	0.756
1169.47	0.747
1179.65	0.73
1189.82	0.713
1200	0.679
1210.18	0.629
1220.36	0.616
1230.54	0.62
1240.72	0.597
1250.89	0.597
1261.07	0.592
1271.25	0.568
1281.43	0.519
1291.61	0.552
1301.78	0.598
1311.96	0.639
1322.14	0.673
1332.32	0.706
1342.5	0.715
1352.68	0.737
1362.85	0.737
1373.03	0.726
1383.21	0.727
1393.39	0.686
1403.57	0.582
1413.74	0.523
1423.92	0.551
1434.1	0.544
1444.28	0.553
1454.46	0.493
1464.63	0.498
1474.81	0.748
1484.99	0.784
1495.17	0.81
1505.35	0.813
1515.53	0.819
1525.7	0.825
1535.88	0.825
1546.06	0.825
1556.24	0.827
1566.42	0.822
1576.59	0.82
1586.77	0.82
1596.95	0.815
1607.13	0.81
1617.31	0.802
1627.49	0.792
1637.66	0.768
1647.84	0.741
1658.02	0.725
1668.2	0.71
1678.38	0.66
1688.55	0.533
1698.73	0.2179
1708.91	0.033
1719.09	0.2111
1729.27	0.488
1739.44	0.568
1749.62	0.64
1759.8	0.715
1769.98	0.755
1780.16	0.777
1790.34	0.786
1800.51	0.785
1810.69	0.795
1820.87	0.798
1831.05	0.799
1841.23	0.804
1851.4	0.811
1861.58	0.807
1871.76	0.808
1881.94	0.813
1892.12	0.814
1902.3	0.816
1912.47	0.819
1922.65	0.817
1932.83	0.816
1943.01	0.819
1953.19	0.821
1963.36	0.825
1973.54	0.825
1983.72	0.826
1993.9	0.824
2004.08	0.831
2014.25	0.837
2024.43	0.834
2034.61	0.837
2044.79	0.8391
2054.97	0.8351
2065.15	0.8379
2075.32	0.837
2085.5	0.8371
2095.68	0.8369
2105.86	0.8396
2116.04	0.8391
2126.21	0.8348
2136.39	0.8407
2146.57	0.837
2156.75	0.8332
2166.93	0.834
2177.11	0.8342
2187.28	0.8319
2197.46	0.8318
2207.64	0.8367
2217.82	0.8327
2228	0.831
2238.17	0.833
2248.35	0.8286
2258.53	0.8267
2268.71	0.8267
2278.89	0.8273
2289.06	0.8233
2299.24	0.826
2309.42	0.8254
2319.6	0.821
2329.78	0.8196
2339.96	0.817
2350.13	0.814
2360.31	0.8136
2370.49	0.8145
2380.67	0.8095
2390.85	0.808
2401.02	0.8075
2411.2	0.8025
2421.38	0.798
2431.56	0.7939
2441.74	0.79
2451.92	0.7824
2462.09	0.7824
2472.27	0.775
2482.45	0.7698
2492.63	0.7598
2502.81	0.7514
2512.98	0.7414
2523.16	0.734
2533.34	0.7247
2543.52	0.7113
2553.7	0.7006
2563.87	0.6973
2574.05	0.692
2584.23	0.688
2594.41	0.6843
2604.59	0.6773
2614.77	0.6732
2624.94	0.6667
2635.12	0.6604
2645.3	0.6512
2655.48	0.6452
2665.66	0.6392
2675.83	0.637
2686.01	0.6399
2696.19	0.6509
2706.37	0.6559
2716.55	0.6588
2726.73	0.6551
2736.9	0.6519
2747.08	0.6521
2757.26	0.651
2767.44	0.649
2777.62	0.6401
2787.79	0.6321
2797.97	0.621
2808.15	0.6
2818.33	0.5688
2828.51	0.5246
2838.68	0.4385
2848.86	0.199
2859.04	0.1534
2869.22	0.2625
2879.4	0.3165
2889.58	0.2962
2899.75	0.2156
2909.93	0.1195
2920.11	0.0288
2930.29	0.0324
2940.47	0.1063
2950.64	0.1622
2960.82	0.1882
2971	0.2972
2981.18	0.3994
2991.36	0.433
3001.54	0.365
3011.71	0.3141
3021.89	0.4106
3032.07	0.4734
3042.25	0.4903
3052.43	0.5003
3062.6	0.5077
3072.78	0.5163
3082.96	0.5257
3093.14	0.532
3103.32	0.5371
3113.49	0.5418
3123.67	0.5532
3133.85	0.5672
3144.03	0.5804
3154.21	0.5913
3164.39	0.5999
3174.56	0.6085
3184.74	0.6174
3194.92	0.627
3205.1	0.6365
3215.28	0.6466
3225.45	0.6545
3235.63	0.6646
3245.81	0.6767
3255.99	0.6836
3266.17	0.6936
3276.35	0.7022
3286.52	0.7098
3296.7	0.7186
3306.88	0.7299
3317.06	0.7372
3327.24	0.741
3337.41	0.7477
3347.59	0.7514
3357.77	0.755
3367.95	0.762
3378.13	0.769
3388.3	0.7725
3398.48	0.781
3408.66	0.7858
3418.84	0.7878
3429.02	0.793
3439.2	0.8
3449.37	0.7978
3459.55	0.7991
3469.73	0.805
3479.91	0.8037
3490.09	0.8051
3500.26	0.8119
3510.44	0.8128
3520.62	0.811
3530.8	0.8179
3540.98	0.8168
3551.15	0.815
3561.33	0.8181
3571.51	0.819
3581.69	0.819
3591.87	0.82
3602.05	0.822
3612.22	0.819
3622.4	0.818
3632.58	0.824
3642.76	0.821
3652.94	0.82
3663.11	0.8247
3673.29	0.8222
3683.47	0.8199
3693.65	0.8243
3703.83	0.8211
3714.01	0.8201
3724.18	0.8235
3734.36	0.82
3744.54	0.8204
3754.72	0.8218
3764.9	0.824
3775.07	0.824
3785.25	0.824
3795.43	0.824
3805.61	0.8205
3815.79	0.8192
3825.96	0.8187
3836.14	0.8226
3846.32	0.8192
3856.5	0.8197
3866.68	0.8187
3876.86	0.8183
3887.03	0.8189
3897.21	0.819
3907.39	0.819
3917.57	0.8152
3927.75	0.816
3937.92	0.815
3948.1	0.8136
3958.28	0.816
3968.46	0.8155
3978.64	0.8125
3988.82	0.815
