Infrared Spectrum: Dieldrin
Formula: C 12 H 8 Cl 6 O
CAS: 60-57-1
State: gas
Instrument: HP-GC/MS/IRD
Origin: NIST Mass Spectrometry Data Center
1/CM	ABSORBANCE
550	2.4e-05
562	0.0008528
574	0.0018768
586	0.0009968
598	0.003172
610	0.0014056
622	0.0005216
634	0.00034
646	4.56e-05
658	9.68e-05
670	0.00078
682	0.0024616
694	0.0023288
706	0.003688
718	0.0005872
730	0.00012
742	0.0002584
754	0.0003176
766	0.0004744
778	0.0016408
790	0.002408
802	0.007048
814	0.0033416
826	0.0017712
838	0.002912
850	0.0079736
862	0.001124
874	0.0012408
886	0.0015016
898	0.0019688
910	0.0039128
922	0.0019024
934	0.0008064
946	0.0003416
958	0.0002616
970	0.0003608
982	0.0006144
994	0.0018472
1006	0.0050432
1018	0.0040016
1030	0.0034608
1042	0.005988
1054	0.0033632
1066	0.0028304
1078	0.0032328
1090	0.0038168
1102	0.0016928
1114	0.001008
1126	0.000364
1138	0.00028
1150	0.000364
1162	0.0011392
1174	0.0032816
1186	0.0017496
1198	0.0011856
1210	0.0004792
1222	0.0002592
1234	0.0006424
1246	0.0036136
1258	0.0018976
1270	0.001324
1282	0.0012808
1294	0.0015608
1306	0.000324
1318	0.0001616
1330	0.0004528
1342	0.0005848
1354	0.0003648
1366	0.0015352
1378	0.0017064
1390	0.0002208
1402	0.0001632
1414	0.0002744
1426	0.0001544
1438	0.0001232
1450	0.0001784
1462	0.0004872
1474	0.0005656
1486	0.0001384
1498	0.000104
1510	7.92e-05
1522	5.92e-05
1534	2.64e-05
1546	5.2e-05
1558	8.32e-05
1570	0.0002336
1582	0.0008224
1594	0.003348
1606	0.0019992
1618	0.0002968
1630	9.36e-05
1642	3.68e-05
1654	3.36e-05
1666	7.68e-05
1678	6.56e-05
1690	7.36e-05
1702	7.52e-05
1714	2e-05
1726	8.96e-05
1738	4.72e-05
1750	3.44e-05
1762	2.16e-05
1774	4.56e-05
1786	6e-05
1798	5.6e-05
1810	3.44e-05
1822	4.8e-05
1834	2.8e-05
1846	2.56e-05
1858	3.68e-05
1870	4.56e-05
1882	4.72e-05
1894	3.92e-05
1906	4.4e-05
1918	6.96e-05
1930	6.16e-05
1942	7.44e-05
1954	6.24e-05
1966	8e-05
1978	3.36e-05
1990	6e-05
2002	3.6e-05
2014	3.68e-05
2026	5.44e-05
2038	4.96e-05
2050	5.2e-05
2062	5.92e-05
2074	3.44e-05
2086	2.88e-05
2098	1.92e-05
2110	2.88e-05
2122	5.76e-05
2134	4e-05
2146	5.2e-05
2158	3.92e-05
2170	7.68e-05
2182	8.48e-05
2194	6.48e-05
2206	9.2e-05
2218	2.88e-05
2230	5.04e-05
2242	4.08e-05
2254	2.72e-05
2266	4.88e-05
2278	2.48e-05
2290	4.8e-05
2302	2.48e-05
2314	2e-05
2326	3.6e-05
2338	4.56e-05
2350	5.84e-05
2362	6.88e-05
2374	1.28e-05
2386	1.6e-06
2398	3.44e-05
2410	3.44e-05
2422	5.12e-05
2434	3.28e-05
2446	2.56e-05
2458	6.4e-06
2470	4.32e-05
2482	3.04e-05
2494	3.28e-05
2506	4.32e-05
2518	3.52e-05
2530	4.16e-05
2542	3.84e-05
2554	4.24e-05
2566	6.48e-05
2578	6.32e-05
2590	4.88e-05
2602	3.36e-05
2614	6e-05
2626	5.36e-05
2638	6.24e-05
2650	4.88e-05
2662	4.32e-05
2674	1.12e-05
2686	3.6e-05
2698	5.68e-05
2710	4.32e-05
2722	7.12e-05
2734	6.88e-05
2746	7.2e-05
2758	7.68e-05
2770	7.36e-05
2782	0.0001024
2794	4.56e-05
2806	8.32e-05
2818	4.72e-05
2830	4.8e-05
2842	0.0001192
2854	8.16e-05
2866	5.2e-05
2878	0.000128
2890	9.6e-05
2902	0.0001496
2914	0.0002184
2926	0.0002448
2938	0.0002272
2950	0.000888
2962	0.001192
2974	0.0013288
2986	0.0036504
2998	0.0016768
3010	0.0006056
3022	0.0005616
3034	0.0021768
3046	0.0025904
3058	0.0005336
3070	0.0005608
3082	0.0002696
3094	0.0001544
3106	0.0001824
3118	0.0001296
3130	0.0001152
3142	0.000112
3154	0.0001112
3166	0.0001136
3178	0.0001328
3190	0.0001184
3202	9.84e-05
3214	8.56e-05
3226	0.0001144
3238	0.0001288
3250	8.4e-05
3262	0.0001392
3274	0.0001504
3286	9.44e-05
3298	0.0001184
3310	8.88e-05
3322	0.0001088
3334	0.0001472
3346	0.000136
3358	7.12e-05
3370	0.0001232
3382	0.0001624
3394	0.0001456
3406	0.0001376
3418	0.0001104
3430	0.000116
3442	0.0001384
3454	0.000116
3466	5.92e-05
3478	0.0001112
3490	0.0001072
3502	0.0001504
3514	7.2e-05
3526	0.0001248
3538	0.0001864
3550	0.0001336
3562	0.0001184
3574	0.0001512
3586	0.0001072
3598	8.56e-05
3610	0.0001056
3622	0.00012
3634	8.32e-05
3646	9.52e-05
3658	6.4e-05
3670	0.0001112
3682	1.6e-05
3694	9.68e-05
3706	9.36e-05
3718	0.0001008
3730	0.000116
3742	0.0001328
3754	0.0001528
3766	0.0001472
3778	8.48e-05
3790	0.0001696
3802	0.00018
3814	0.0001712
3826	0.0001672
3838	0.000152
