Infrared Spectrum: Dimethoate
Formula: C 5 H 12 N O 3 P S 2
CAS: 60-51-5
State: gas
Instrument: HP-GC/MS/IRD
Origin: NIST Mass Spectrometry Data Center
1/CM	ABSORBANCE
550	0.00132
562	0.000175
574	3.5e-05
586	0.0002
598	0.000415
610	0.0004
622	0.000535
634	0.00152
646	0.005695
658	0.020105
670	0.020875
682	0.006535
694	0.00249
706	0.00127
718	0.000765
730	0.00083
742	0.00124
754	0.001705
766	0.002175
778	0.004225
790	0.009225
802	0.01648
814	0.021185
826	0.0174
838	0.008995
850	0.00433
862	0.002265
874	0.001395
886	0.001095
898	0.000865
910	0.00063
922	0.000495
934	0.00054
946	0.00068
958	0.000875
970	0.001245
982	0.002065
994	0.003985
1006	0.00946
1018	0.023435
1030	0.044365
1042	0.048305
1054	0.03588
1066	0.020015
1078	0.0099
1090	0.006455
1102	0.00506
1114	0.00425
1126	0.00377
1138	0.003855
1150	0.00389
1162	0.004545
1174	0.0061
1186	0.006075
1198	0.004645
1210	0.00395
1222	0.00413
1234	0.00471
1246	0.005195
1258	0.00464
1270	0.00361
1282	0.00296
1294	0.001985
1306	0.00116
1318	0.00084
1330	0.00075
1342	0.000815
1354	0.00087
1366	0.00091
1378	0.001205
1390	0.001865
1402	0.002845
1414	0.003485
1426	0.003195
1438	0.0031
1450	0.0039
1462	0.0047
1474	0.0061
1486	0.008595
1498	0.01184
1510	0.013025
1522	0.011285
1534	0.00846
1546	0.00577
1558	0.00396
1570	0.00261
1582	0.001785
1594	0.00125
1606	0.000945
1618	0.000765
1630	0.00066
1642	0.00078
1654	0.00121
1666	0.002105
1678	0.00392
1690	0.008175
1702	0.02082
1714	0.032105
1726	0.016285
1738	0.00713
1750	0.00303
1762	0.00123
1774	0.00056
1786	0.000335
1798	0.000245
1810	0.00026
1822	0.00041
1834	0.00054
1846	0.000635
1858	0.00059
1870	0.00045
1882	0.00027
1894	0.00015
1906	7e-05
1918	5.5e-05
1930	1e-05
1942	5e-06
1954	2e-05
1966	3e-05
1978	7.5e-05
1990	7.5e-05
2002	6e-05
2014	3.5e-05
2026	2e-05
2038	3e-05
2050	5e-05
2062	7.5e-05
2074	7.5e-05
2086	8.5e-05
2098	8e-05
2110	0.000105
2122	8e-05
2134	4.5e-05
2146	3.5e-05
2158	4e-05
2170	5.5e-05
2182	5.5e-05
2194	7e-05
2206	8.5e-05
2218	7.5e-05
2230	8e-05
2242	7.5e-05
2254	9e-05
2266	0.00011
2278	0.0001
2290	9e-05
2302	8.5e-05
2314	9e-05
2326	9.5e-05
2338	0.000105
2350	9.5e-05
2362	0.000135
2374	6e-05
2386	6.5e-05
2398	7.5e-05
2410	7e-05
2422	4.5e-05
2434	7e-05
2446	7.5e-05
2458	8e-05
2470	7.5e-05
2482	7e-05
2494	7.5e-05
2506	0.0001
2518	7e-05
2530	0.00011
2542	0.000125
2554	0.00014
2566	0.000165
2578	0.000175
2590	0.000155
2602	0.00019
2614	0.000205
2626	0.0002
2638	0.000195
2650	0.000235
2662	0.000175
2674	0.000175
2686	0.000125
2698	0.000135
2710	0.00016
2722	0.00021
2734	0.0002
2746	0.000205
2758	0.000215
2770	0.000295
2782	0.00033
2794	0.000485
2806	0.00075
2818	0.001105
2830	0.001185
2842	0.001815
2854	0.00319
2866	0.00211
2878	0.00189
2890	0.00245
2902	0.00331
2914	0.00403
2926	0.0047
2938	0.006275
2950	0.010525
2962	0.010855
2974	0.004935
2986	0.003325
2998	0.00311
3010	0.002895
3022	0.00285
3034	0.002235
3046	0.001675
3058	0.00141
3070	0.001255
3082	0.001095
3094	0.000945
3106	0.000805
3118	0.00063
3130	0.00049
3142	0.000375
3154	0.00034
3166	0.00022
3178	0.000195
3190	0.00022
3202	0.000185
3214	0.000215
3226	0.00023
3238	0.00019
3250	0.00023
3262	0.00019
3274	0.0002
3286	0.00031
3298	0.000295
3310	0.000335
3322	0.000375
3334	0.000505
3346	0.000555
3358	0.00073
3370	0.00101
3382	0.00141
3394	0.002
3406	0.002345
3418	0.002305
3430	0.002485
3442	0.00329
3454	0.002955
3466	0.001625
3478	0.00108
3490	0.000785
3502	0.000475
3514	0.00028
3526	0.00021
3538	0.000155
3550	0.000145
3562	6.5e-05
3574	8e-05
3586	0.00012
3598	2.5e-05
3610	0.00017
3622	0.000115
3634	0.000155
3646	0.0001
3658	0.00014
3670	0.00017
3682	0.00011
3694	3.5e-05
3706	0.000105
3718	0.00011
3730	8.5e-05
3742	0.000155
3754	0.000165
3766	0.00012
3778	0.00015
3790	0.00021
3802	0.00018
3814	0.000135
3826	0.00014
3838	0.000195
