Infrared Spectrum: Promethazine
Formula: C 17 H 20 N 2 S
CAS: 60-87-7
State: gas
Instrument: HP-GC/MS/IRD
Origin: NIST Mass Spectrometry Data Center
1/CM	ABSORBANCE
550	0.0003696
562	0.0002415
574	1.05e-05
586	0.0001785
598	0.0004809
610	0.0004011
622	0.0003402
634	0.0004515
646	0.0006006
658	0.0006363
670	0.0006846
682	0.0010143
694	0.0010416
706	0.0013104
718	0.0025536
730	0.0047859
742	0.0091644
754	0.003549
766	0.0010689
778	0.0007308
790	0.0006678
802	0.0005586
814	0.000462
826	0.000567
838	0.0007896
850	0.0006069
862	0.000693
874	0.0007896
886	0.0007056
898	0.0005208
910	0.000588
922	0.0007161
934	0.0005481
946	0.0005313
958	0.0005082
970	0.000546
982	0.0005355
994	0.0005145
1006	0.0004914
1018	0.0006888
1030	0.0015729
1042	0.0010899
1054	0.0006027
1066	0.0007581
1078	0.0006279
1090	0.0005544
1102	0.0005061
1114	0.0011655
1126	0.0019824
1138	0.0009744
1150	0.0006132
1162	0.000546
1174	0.0003528
1186	0.0002604
1198	0.0002814
1210	0.0003675
1222	0.0005124
1234	0.0008106
1246	0.0016968
1258	0.0020559
1270	0.0014091
1282	0.0032256
1294	0.0068187
1306	0.0036813
1318	0.0011277
1330	0.0006153
1342	0.0005397
1354	0.0006867
1366	0.0010521
1378	0.0010983
1390	0.0011676
1402	0.00315
1414	0.0022554
1426	0.0011172
1438	0.0025095
1450	0.0062055
1462	0.0189021
1474	0.0135702
1486	0.0035931
1498	0.001848
1510	0.0013566
1522	0.0011277
1534	0.0009933
1546	0.0008946
1558	0.0012831
1570	0.0029043
1582	0.0018795
1594	0.0011718
1606	0.0007371
1618	0.000357
1630	0.0003213
1642	0.000273
1654	0.0003276
1666	0.0003738
1678	0.0002877
1690	0.0002373
1702	0.0001554
1714	0.0001848
1726	0.0002058
1738	0.0002499
1750	0.0003654
1762	0.0003801
1774	0.0002331
1786	0.0002415
1798	0.0002709
1810	0.00021
1822	0.0001743
1834	0.0002604
1846	0.0002709
1858	0.0002016
1870	0.0003192
1882	0.0003549
1894	0.000231
1906	0.0003402
1918	0.0003675
1930	0.0001638
1942	9.03e-05
1954	0.000126
1966	0.0001071
1978	7.77e-05
1990	7.77e-05
2002	6.3e-05
2014	5.25e-05
2026	7.14e-05
2038	4.62e-05
2050	4.41e-05
2062	4.2e-05
2074	5.46e-05
2086	3.36e-05
2098	5.67e-05
2110	5.67e-05
2122	7.56e-05
2134	7.35e-05
2146	9.66e-05
2158	8.4e-05
2170	6.09e-05
2182	5.25e-05
2194	3.57e-05
2206	2.1e-05
2218	2.31e-05
2230	3.36e-05
2242	4.2e-05
2254	4.41e-05
2266	6.93e-05
2278	7.14e-05
2290	7.14e-05
2302	7.98e-05
2314	9.03e-05
2326	7.56e-05
2338	6.3e-05
2350	5.46e-05
2362	6.51e-05
2374	7.35e-05
2386	7.77e-05
2398	0.0001365
2410	0.0001113
2422	0.0001344
2434	0.0001491
2446	0.0001743
2458	0.0001848
2470	0.0001995
2482	0.0001953
2494	0.0001785
2506	0.0001827
2518	0.0002583
2530	0.0003171
2542	0.000336
2554	0.0002604
2566	0.0002079
2578	0.0002142
2590	0.0002226
2602	0.0002247
2614	0.0001785
2626	0.0002016
2638	0.0002184
2650	0.00021
2662	0.0001953
2674	0.0002163
2686	0.0002541
2698	0.0002457
2710	0.0002793
2722	0.0002625
2734	0.0003045
2746	0.000252
2758	0.0002751
2770	0.0002583
2782	0.0002562
2794	0.0002373
2806	0.0002541
2818	0.0002499
2830	0.0002541
2842	0.0002562
2854	0.0003171
2866	0.0002814
2878	0.000252
2890	0.0002835
2902	0.0002877
2914	0.0002709
2926	0.0002562
2938	0.0002625
2950	0.0003045
2962	0.000336
2974	0.0003171
2986	0.0003843
2998	0.0005565
3010	0.0009786
3022	0.0011424
3034	0.0011382
3046	0.0011676
3058	0.0018165
3070	0.0026229
3082	0.0024465
3094	0.001428
3106	0.0005376
3118	0.0003528
3130	0.0002961
3142	0.000273
3154	0.0002835
3166	0.0002856
3178	0.0002205
3190	0.00021
3202	0.0002205
3214	0.0001827
3226	0.0002037
3238	0.0002037
3250	0.0001953
3262	0.0001701
3274	0.0001806
3286	0.0001722
3298	0.0001554
3310	0.0001323
3322	0.0001302
3334	0.0001365
3346	0.0002016
3358	0.0001407
3370	0.0001701
3382	0.0001533
3394	0.0001827
3406	0.0001743
3418	0.0003108
3430	0.0008106
3442	0.0007728
3454	0.0002877
3466	0.0001365
3478	0.0002016
3490	0.0002016
3502	0.0001113
3514	7.14e-05
3526	7.14e-05
3538	5.04e-05
3550	7.98e-05
3562	6.93e-05
3574	8.19e-05
3586	7.35e-05
3598	2.94e-05
3610	5.88e-05
3622	5.67e-05
3634	3.15e-05
3646	4.62e-05
3658	5.04e-05
3670	8.19e-05
3682	6.72e-05
3694	0.0001113
3706	0.0001281
3718	0.0001218
3730	8.19e-05
3742	0.000105
3754	8.82e-05
3766	0.000147
3778	0.0001092
3790	7.14e-05
3802	8.82e-05
3814	7.77e-05
3826	0.0001323
3838	0.0001365
