Infrared Spectrum: 10(Beta-DIETHYLAMINOETHYL)-PHENOTHIAZINE
Formula: C18 H22 N2 S
CAS: 60-91-3
State: LIQUID
Class: COBLENTZ
Instrument: PERKIN-ELMER
Sampling: TRANSMISSION
Path length: CAPILLARY
Resolution: 4
Origin: ABBOTT LABORATORIES - WASHBURN
MICROMETERS	TRANSMITTANCE
2.072	0.908
2.10542	0.908
2.13884	0.913
2.17226	0.913
2.20568	0.918
2.2391	0.916
2.27252	0.913
2.30594	0.9162
2.33936	0.913
2.37278	0.9063
2.4062	0.913
2.43962	0.914
2.47304	0.904
2.50646	0.911
2.53988	0.916
2.5733	0.916
2.60672	0.914
2.64014	0.921
2.67356	0.914
2.70698	0.916
2.7404	0.919
2.77382	0.9228
2.80724	0.9179
2.84066	0.911
2.87408	0.908
2.9075	0.903
2.94092	0.911
2.97434	0.901
3.00776	0.9038
3.04118	0.9029
3.0746	0.9041
3.10802	0.9039
3.14144	0.909
3.17486	0.908
3.20828	0.9092
3.2417	0.9042
3.27512	0.8308
3.30854	0.8141
3.34196	0.836
3.37538	0.7546
3.4088	0.5
3.44222	0.6262
3.47564	0.6873
3.50906	0.7003
3.54248	0.7002
3.5759	0.6736
3.60932	0.68
3.64274	0.7721
3.67616	0.8363
3.70958	0.854
3.743	0.877
3.77642	0.892
3.80984	0.897
3.84326	0.8991
3.87668	0.899
3.9101	0.8921
3.94352	0.9009
3.97694	0.908
4.01036	0.908
4.04378	0.911
4.0772	0.908
4.11062	0.9063
4.14404	0.911
4.17745	0.906
4.21087	0.906
4.24429	0.903
4.27771	0.909
4.31113	0.9041
4.34455	0.9091
4.37797	0.904
4.41139	0.8992
4.44481	0.896
4.47823	0.8942
4.51165	0.897
4.54507	0.897
4.57849	0.891
4.61191	0.892
4.64533	0.892
4.67875	0.891
4.71217	0.889
4.74559	0.8909
4.77901	0.8919
4.81243	0.8919
4.84585	0.8893
4.87927	0.8919
4.91269	0.891
4.94611	0.892
4.97953	0.891
5.01295	0.8824
5.04637	0.889
5.07979	0.8895
5.11321	0.8877
5.14663	0.881
5.18005	0.8715
5.21347	0.869
5.24689	0.877
5.28031	0.8656
5.31373	0.8664
5.34715	0.8791
5.38057	0.8772
5.41399	0.8758
5.44741	0.882
5.48083	0.8832
5.51425	0.877
5.54767	0.879
5.58109	0.879
5.61451	0.871
5.64793	0.871
5.68135	0.8744
5.71477	0.8811
5.74819	0.879
5.78161	0.8722
5.81503	0.8693
5.84845	0.8618
5.88187	0.8512
5.91529	0.824
5.94871	0.831
5.98213	0.847
6.01555	0.856
6.04897	0.8613
6.08239	0.8657
6.11581	0.862
6.14923	0.861
6.18265	0.8513
6.21607	0.8202
6.24949	0.6628
6.28291	0.6776
6.31633	0.7609
6.34975	0.6532
6.38317	0.6899
6.41659	0.8012
6.45001	0.851
6.48343	0.859
6.51685	0.8592
6.55027	0.856
6.58369	0.8513
6.61711	0.832
6.65053	0.805
6.68395	0.74
6.71737	0.6492
6.75079	0.59
6.78421	0.574
6.81763	0.3256
6.85105	0.1542
6.88447	0.1526
6.91789	0.2578
6.95131	0.312
6.98473	0.5964
7.01815	0.7603
7.05157	0.7946
7.08499	0.7981
7.11841	0.792
7.15183	0.7749
7.18525	0.7482
7.21867	0.649
7.25209	0.6068
7.28551	0.5855
7.31893	0.4899
7.35235	0.5332
7.38577	0.5695
7.41919	0.5922
7.45261	0.6127
7.48603	0.6339
7.51945	0.6511
7.55287	0.6794
7.58629	0.6862
7.61971	0.6732
7.65313	0.68
7.68655	0.6577
7.71997	0.6185
7.75339	0.5797
7.78681	0.5206
7.82023	0.5707
7.85365	0.703
7.88707	0.7253
7.92049	0.7037
7.95391	0.6448
7.98733	0.5545
8.02075	0.461
8.05417	0.5208
8.08759	0.6234
8.12101	0.6538
8.15443	0.5947
8.18785	0.561
8.22127	0.6466
8.25469	0.7009
8.28811	0.6984
8.32153	0.6599
8.35494	0.6388
8.38836	0.7194
8.42178	0.7751
8.4552	0.7751
8.48862	0.7384
8.52204	0.6391
8.55546	0.57
8.58888	0.5994
8.6223	0.6612
8.65572	0.7354
8.68914	0.7887
8.72256	0.7993
8.75598	0.7662
8.7894	0.6819
8.82282	0.6496
8.85624	0.6255
8.88966	0.6166
8.92308	0.7209
8.9565	0.76
8.98992	0.7622
9.02334	0.717
9.05676	0.6794
9.09018	0.7118
9.1236	0.7476
9.15702	0.7468
9.19044	0.7273
9.22386	0.717
9.25728	0.715
9.2907	0.7129
9.32412	0.6982
9.35754	0.6875
9.39096	0.6896
9.42438	0.7107
9.4578	0.7007
9.49122	0.6763
9.52464	0.6514
9.55806	0.642
9.59148	0.6498
9.6249	0.6353
9.65832	0.6755
9.69174	0.721
9.72516	0.7936
9.75858	0.8225
9.792	0.8298
9.82542	0.834
9.85884	0.83
9.89226	0.8323
9.92568	0.841
9.9591	0.8469
9.99252	0.8488
10.0259	0.851
10.0594	0.8425
10.0928	0.8446
10.1262	0.851
10.1596	0.8515
10.193	0.8535
10.2265	0.8554
10.2599	0.852
10.2933	0.852
10.3267	0.8541
10.3601	0.854
10.3936	0.8666
10.427	0.8736
10.4604	0.8784
10.4938	0.8785
10.5272	0.877
10.5607	0.8823
10.5941	0.8752
10.6275	0.8717
10.6609	0.8614
10.6943	0.8435
10.7278	0.821
10.7612	0.812
10.7946	0.8037
10.828	0.817
10.8614	0.8334
10.8949	0.857
10.9283	0.864
10.9617	0.866
10.9951	0.8703
11.0285	0.8655
11.062	0.8657
11.0954	0.8638
11.1288	0.862
11.1622	0.8522
11.1956	0.841
11.2291	0.8263
11.2625	0.823
11.2959	0.827
11.3293	0.8334
11.3627	0.8395
11.3962	0.851
11.4296	0.8542
11.463	0.859
11.4964	0.8619
11.5298	0.8593
11.5633	0.8563
11.5967	0.864
11.6301	0.8587
11.6635	0.854
11.6969	0.8452
11.7304	0.8417
11.7638	0.839
11.7972	0.837
11.8306	0.839
11.864	0.841
11.8975	0.834
11.9309	0.844
11.9643	0.8506
11.9977	0.8583
12.0311	0.8651
12.0646	0.8665
12.098	0.866
12.1314	0.864
12.1648	0.8644
12.1982	0.866
12.2317	0.861
12.2651	0.861
12.2985	0.859
12.3319	0.861
12.3653	0.862
12.3988	0.861
12.4322	0.8656
12.4656	0.861
12.499	0.8553
12.5324	0.854
12.5659	0.856
12.5993	0.847
12.6327	0.847
12.6661	0.8423
12.6995	0.8312
12.733	0.8262
12.7664	0.832
12.7998	0.824
12.8332	0.8215
12.8666	0.8182
12.9001	0.822
12.9335	0.8135
12.9669	0.807
13.0003	0.7848
13.0337	0.7601
13.0672	0.7077
13.1006	0.6464
13.134	0.5885
13.1674	0.5002
13.2008	0.4418
13.2343	0.3566
13.2677	0.2855
13.3011	0.2525
13.3345	0.2089
13.3679	0.1967
13.4014	0.1931
13.4348	0.2069
13.4682	0.2504
13.5016	0.326
13.535	0.4336
13.5685	0.5824
13.6019	0.6593
13.6353	0.6614
13.6687	0.6352
13.7021	0.6016
13.7356	0.5834
13.769	0.5985
13.8024	0.6338
13.8358	0.6745
13.8692	0.7097
13.9027	0.7259
13.9361	0.7411
13.9695	0.7559
14.0029	0.7751
14.0363	0.7856
14.0698	0.7908
14.1032	0.7972
14.1366	0.802
14.17	0.801
14.2034	0.797
14.2369	0.7955
14.2703	0.7906
14.3037	0.7732
14.3371	0.7618
14.3705	0.7509
14.404	0.759
14.4374	0.7628
14.4708	0.769
14.5042	0.775
14.5376	0.78
14.5711	0.7772
14.6045	0.775
14.6379	0.7743
14.6713	0.7697
14.7047	0.7658
14.7381	0.7605
14.7716	0.749
14.805	0.7434
14.8384	0.74
14.8718	0.7317
14.9052	0.732
14.9387	0.729
14.9721	0.73
15.0055	0.744
15.0389	0.7348
15.0723	0.724
15.1058	0.732
15.1392	0.725
15.1726	0.722
15.206	0.7184
15.2394	0.714
15.2729	0.712
15.3063	0.71
15.3397	0.7071
15.3731	0.6983
15.4065	0.698
