Infrared Spectrum: .alpha.-Dibromo-n-butyric acid
Formula: C 4 H 6 Br 2 O 2
CAS: 600-30-6
State: gas
Origin: EPA-IR VAPOR PHASE LIBRARY
1/CM	ABSORBANCE
501.5	0.001991
513.074	0.002641
524.648	0.003051
536.222	0.003011
547.796	0.003411
559.37	0.005061
570.944	0.009741
582.518	0.015101
594.092	0.011611
605.666	0.005151
617.24	0.006291
628.814	0.007001
640.388	0.008331
651.962	0.007291
663.536	0.007931
675.11	0.005601
686.684	0.004721
698.258	0.003121
709.832	0.001981
721.406	0.001711
732.98	0.0010798
744.554	0.000829
756.128	0.0008749
767.702	0.0007378
779.276	0.0006654
790.85	0.0006137
802.423	0.0005324
813.997	0.0007334
825.571	0.0009531
837.145	0.0011807
848.719	0.0012654
860.293	0.001421
871.867	0.001581
883.441	0.001291
895.015	0.0009969
906.589	0.0010608
918.163	0.001461
929.737	0.001841
941.311	0.001611
952.885	0.0011423
964.459	0.0010981
976.033	0.0011115
987.607	0.0012611
999.181	0.002331
1010.76	0.003741
1022.33	0.002541
1033.9	0.001921
1045.48	0.002741
1057.05	0.003851
1068.63	0.005371
1080.2	0.005931
1091.77	0.006541
1103.35	0.012251
1114.92	0.019901
1126.49	0.015491
1138.07	0.011241
1149.64	0.013931
1161.22	0.012041
1172.79	0.007811
1184.36	0.006261
1195.94	0.006621
1207.51	0.006831
1219.09	0.004661
1230.66	0.003041
1242.23	0.002231
1253.81	0.002321
1265.38	0.002411
1276.96	0.002721
1288.53	0.003801
1300.1	0.004841
1311.68	0.004871
1323.25	0.005111
1334.83	0.004491
1346.4	0.004441
1357.97	0.004791
1369.55	0.005041
1381.12	0.006411
1392.7	0.006461
1404.27	0.002991
1415.84	0.001471
1427.42	0.001371
1438.99	0.002001
1450.57	0.002731
1462.14	0.002531
1473.71	0.001671
1485.29	0.0012741
1496.86	0.0012089
1508.44	0.0012747
1520.01	0.0012748
1531.58	0.0012389
1543.16	0.0012628
1554.73	0.001291
1566.31	0.001291
1577.88	0.0012231
1589.45	0.001045
1601.03	0.0009467
1612.6	0.0009843
1624.18	0.0010162
1635.75	0.0009725
1647.32	0.0007008
1658.9	0.0003957
1670.47	0.0002462
1682.05	0.000177
1693.62	0.00032789
1705.19	0.0007269
1716.77	0.001371
1728.34	0.002101
1739.92	0.003501
1751.49	0.005761
1763.06	0.011331
1774.64	0.025121
1786.21	0.034831
1797.79	0.017281
1809.36	0.006421
1820.93	0.003051
1832.51	0.002101
1844.08	0.002191
1855.66	0.002391
1867.23	0.002531
1878.8	0.002131
1890.38	0.001311
1901.95	0.000641
1913.53	0.000491
1925.1	0.0004599
1936.67	0.000486
1948.25	0.0004248
1959.82	0.00035557
1971.4	0.00030744
1982.97	0.00029744
1994.54	0.00031208
2006.12	0.00031274
2017.69	0.00027729
2029.27	0.000243
2040.84	0.0002202
2052.41	0.0002273
2063.99	0.0002195
2075.56	0.0002266
2087.14	0.0002135
2098.71	0.0001979
2110.28	0.0001994
2121.86	0.0002546
2133.43	0.0002153
2145.01	0.0002264
2156.58	0.0002074
2168.15	0.0002709
2179.73	0.00032393
2191.3	0.00033703
2202.88	0.0003333
2214.45	0.00032657
2226.02	0.00035225
2237.6	0.00036849
2249.17	0.0004633
2260.74	0.0006769
2272.32	0.0011543
2283.89	0.002251
2295.47	0.004511
2307.04	0.007951
2318.61	0.011291
2330.19	0.012301
2341.76	0.010891
2353.34	0.011671
2364.91	0.015981
2376.48	0.009771
2388.06	0.002001
2399.63	0.0004611
2411.21	0.00037897
2422.78	0.00029798
2434.35	0.00036964
2445.93	0.00034653
2457.5	0.00031278
2469.08	0.00034699
2480.65	0.000288185
2492.22	0.00033961
2503.8	0.00031397
2515.37	0.000247
2526.95	0.00029425
2538.52	0.0002087
2550.09	0.0001956
2561.67	0.0001995
2573.24	0.0002301
2584.82	0.0001919
2596.39	0.000171
2607.96	0.0002453
2619.54	0.00028127
2631.11	0.0001954
2642.69	0.0001969
2654.26	0.0002102
2665.83	0.0002368
2677.41	0.000187
2688.98	0.0001992
2700.56	0.0002179
2712.13	0.0002164
2723.7	0.0002376
2735.28	0.0001889
2746.85	0.0002203
2758.43	0.0002027
2770	0.000205
2781.57	0.0002009
2793.15	0.00016
2804.72	0.0001904
2816.3	0.000285259
2827.87	0.000257
2839.44	0.00036053
2851.02	0.00037902
2862.59	0.0005115
2874.17	0.0008087
2885.74	0.0008776
2897.31	0.0007838
2908.89	0.0008686
2920.46	0.0011337
2932.04	0.001651
2943.61	0.002241
2955.18	0.001461
2966.76	0.0011512
2978.33	0.001731
2989.91	0.002621
3001.48	0.002921
3013.05	0.001521
3024.63	0.0008716
3036.2	0.0007261
3047.78	0.0006049
3059.35	0.0004672
3070.92	0.0004016
3082.5	0.0003965
3094.07	0.00036189
3105.65	0.00032708
3117.22	0.0002027
3128.79	0.00011
3140.37	0.000137
3151.94	8.5e-05
3163.52	8.6e-05
3175.09	0.000129
3186.66	8.5e-05
3198.24	6.2e-05
3209.81	8.6e-05
3221.39	5.4e-05
3232.96	0.000105
3244.53	4.3e-05
3256.11	7.8e-05
3267.68	3.1e-05
3279.26	0.000109
3290.83	5e-05
3302.4	2.3e-05
3313.98	0
3325.55	7.4e-05
3337.13	9.5e-05
3348.7	4.1e-05
3360.27	4.4e-05
3371.85	5.8e-05
3383.42	4.4e-05
3395	0.000145
3406.57	0.000106
3418.14	0.000169
3429.72	0.000162
3441.29	0.0001857
3452.86	0.0002006
3464.44	0.000253
3476.01	0.00037091
3487.59	0.0005291
3499.16	0.0006643
3510.73	0.0006186
3522.31	0.0007301
3533.88	0.000853
3545.46	0.0012069
3557.03	0.003101
3568.6	0.012581
3580.18	0.015331
3591.75	0.005941
3603.33	0.001281
3614.9	0.0006356
3626.47	0.0005984
3638.05	0.0004774
3649.62	0.00029576
3661.2	0.000281486
3672.77	0.00032785
3684.34	0.00037462
3695.92	0.0005097
3707.49	0.0003938
3719.07	0.0003666
3730.64	0.0005694
3742.21	0.0005157
3753.79	0.00029142
3765.36	0.0002177
3776.94	0.0002685
3788.51	0.0001953
3800.08	0.0002351
3811.66	0.0001995
3823.23	0.0002192
3834.81	0.0001842
3846.38	0.000161
3857.95	0.000166
3869.53	0.000136
3881.1	0.0002488
3892.68	0.0002122
3904.25	0.000262
3915.82	0.000134
3927.4	0.0002368
3938.97	0.0002051
3950.55	9.9e-05
3962.12	0.0002285
3973.69	0.000163
3985.27	0.0002031
3996.84	0.00027331
