Infrared Spectrum: (+/-)-2-Methylbutyric acid
Formula: C 5 H 10 O 2
CAS: 600-07-7
State: gas
Origin: EPA-IR VAPOR PHASE LIBRARY
1/CM	ABSORBANCE
549.9	0.01547
559.547	0.01829
569.193	0.02226
578.84	0.02568
588.486	0.02635
598.133	0.0234
607.779	0.02001
617.426	0.01674
627.072	0.01224
636.719	0.00797
646.365	0.00461
656.012	0.00316
665.658	0.00257
675.305	0.0023
684.951	0.00238
694.598	0.00266
704.245	0.00341
713.891	0.0048
723.538	0.00637
733.184	0.00797
742.831	0.00934
752.477	0.00996
762.124	0.00941
771.77	0.00732
781.417	0.00529
791.063	0.00408
800.71	0.00359
810.356	0.00323
820.003	0.00278
829.649	0.0019959
839.296	0.0015612
848.943	0.0013064
858.589	0.0013626
868.236	0.0014081
877.882	0.0013107
887.529	0.00108327
897.175	0.000874
906.822	0.00077
916.468	0.000767
926.115	0.000901
935.761	0.0011094
945.408	0.0016675
955.054	0.00251
964.701	0.00352
974.347	0.00404
983.994	0.00439
993.64	0.00524
1003.29	0.00736
1012.93	0.00962
1022.58	0.01075
1032.23	0.01197
1041.87	0.01432
1051.52	0.01812
1061.17	0.02239
1070.81	0.02814
1080.46	0.03873
1090.11	0.05337
1099.75	0.06474
1109.4	0.06426
1119.05	0.05481
1128.69	0.04605
1138.34	0.03784
1147.99	0.03172
1157.63	0.03048
1167.28	0.03204
1176.92	0.03004
1186.57	0.02257
1196.22	0.01392
1205.86	0.00759
1215.51	0.00474
1225.16	0.00334
1234.8	0.00346
1244.45	0.00378
1254.1	0.00478
1263.74	0.00604
1273.39	0.007
1283.04	0.00787
1292.68	0.00832
1302.33	0.00832
1311.98	0.00735
1321.62	0.00665
1331.27	0.00628
1340.92	0.00669
1350.56	0.00764
1360.21	0.00894
1369.86	0.0107
1379.5	0.01247
1389.15	0.01302
1398.79	0.01097
1408.44	0.0073
1418.09	0.00455
1427.73	0.00402
1437.38	0.00509
1447.03	0.00818
1456.67	0.0114
1466.32	0.01274
1475.97	0.00992
1485.61	0.00637
1495.26	0.00342
1504.91	0.00213
1514.55	0.0017004
1524.2	0.0014578
1533.85	0.0013035
1543.49	0.00110866
1553.14	0.0012156
1562.79	0.0012455
1572.43	0.0012093
1582.08	0.001151
1591.73	0.0011755
1601.37	0.00109211
1611.02	0.0011456
1620.67	0.0011861
1630.31	0.0012128
1639.96	0.0012657
1649.6	0.0012496
1659.25	0.0013238
1668.9	0.0014649
1678.54	0.001725
1688.19	0.00206
1697.84	0.00269
1707.48	0.00436
1717.13	0.00749
1726.78	0.01336
1736.42	0.02265
1746.07	0.04019
1755.72	0.07155
1765.36	0.09921
1775.01	0.11707
1784.66	0.0861
1794.3	0.0469
1803.95	0.02142
1813.6	0.01129
1823.24	0.00591
1832.89	0.00347
1842.54	0.00241
1852.18	0.0019711
1861.83	0.0017072
1871.47	0.0015017
1881.12	0.001347
1890.77	0.0012441
1900.41	0.0011324
1910.06	0.00105138
1919.71	0.00102615
1929.35	0.0009413
1939	0.00085
1948.65	0.000825
1958.29	0.000831
1967.94	0.000773
1977.59	0.000772
1987.23	0.000771
1996.88	0.000762
2006.53	0.000755
2016.17	0.000744
2025.82	0.000785
2035.47	0.000784
2045.11	0.000823
2054.76	0.000807
2064.41	0.000773
2074.05	0.000689
2083.7	0.000717
2093.35	0.00074
2102.99	0.000736
2112.64	0.000805
2122.28	0.000776
2131.93	0.000775
2141.58	0.000798
2151.22	0.0008
2160.87	0.00082
2170.52	0.000917
2180.16	0.0009782
2189.81	0.00101998
2199.46	0.00109764
2209.1	0.0011079
2218.75	0.00110366
2228.4	0.0010587
2238.04	0.0009956
2247.69	0.0009453
2257.34	0.0009443
2266.98	0.000887
2276.63	0.000868
2286.28	0.00087
2295.92	0.000875
2305.57	0.000868
2315.22	0.000875
2324.86	0.000928
2334.51	0.000958
2344.16	0.0010528
2353.8	0.00107271
2363.45	0.00105434
2373.09	0.00105936
2382.74	0.0010091
2392.39	0.0009732
2402.03	0.0009288
2411.68	0.0009437
2421.33	0.0009266
2430.97	0.000917
2440.62	0.000892
2450.27	0.00091
2459.91	0.0009331
2469.56	0.0009
2479.21	0.000898
2488.85	0.000859
2498.5	0.000864
2508.15	0.000818
2517.79	0.000851
2527.44	0.000842
2537.09	0.000782
2546.73	0.000792
2556.38	0.00084
2566.03	0.000815
2575.67	0.000864
2585.32	0.000841
2594.96	0.000865
2604.61	0.000863
2614.26	0.000892
2623.9	0.000873
2633.55	0.000907
2643.2	0.00087
2652.84	0.0009311
2662.49	0.0009
2672.14	0.000876
2681.78	0.000886
2691.43	0.000861
2701.08	0.0009318
2710.72	0.0009417
2720.37	0.0009881
2730.02	0.00106942
2739.66	0.0012357
2749.31	0.0014019
2758.96	0.0014109
2768.6	0.0014167
2778.25	0.0014588
2787.9	0.0014774
2797.54	0.0016366
2807.19	0.0017693
2816.84	0.0020121
2826.48	0.00231
2836.13	0.00272
2845.77	0.00348
2855.42	0.00484
2865.07	0.00752
2874.71	0.01235
2884.36	0.01628
2894.01	0.01704
2903.65	0.01601
2913.3	0.01573
2922.95	0.019
2932.59	0.02568
2942.24	0.03073
2951.89	0.03289
2961.53	0.03551
2971.18	0.04438
2980.83	0.04697
2990.47	0.03741
3000.12	0.02081
3009.77	0.00926
3019.41	0.00466
3029.06	0.00338
3038.71	0.00267
3048.35	0.00237
3058	0.00219
3067.64	0.0019685
3077.29	0.0019066
3086.94	0.0016741
3096.58	0.0014493
3106.23	0.0014238
3115.88	0.0012865
3125.52	0.00110901
3135.17	0.0011631
3144.82	0.0011878
3154.46	0.0009785
3164.11	0.0009217
3173.76	0.0009793
3183.4	0.0009574
3193.05	0.000744
3202.7	0.000525
3212.34	0.000409
3221.99	0.000332
3231.64	0.000289
3241.28	0.000173
3250.93	0.000337
3260.58	0.0003
3270.22	0.000137
3279.87	0.00024
3289.52	0.000149
3299.16	0.000251
3308.81	0.000122
3318.45	0.000138
3328.1	0.000268
3337.75	0.000197
3347.39	0.000163
3357.04	0.000241
3366.69	0.000308
3376.33	0.00018
3385.98	0.000149
3395.63	0.000193
3405.27	0.00015
3414.92	0.000116
3424.57	0.000136
3434.21	0.000255
3443.86	0.000118
3453.51	0.0003
3463.15	0.000374
3472.8	0.000352
3482.45	0.000401
3492.09	0.000447
3501.74	0.000698
3511.39	0.0009867
3521.03	0.001418
3530.68	0.0016146
3540.33	0.00239
3549.97	0.00594
3559.62	0.02043
3569.26	0.03216
3578.91	0.03156
3588.56	0.01851
3598.2	0.00437
3607.85	0.0014012
3617.5	0.0010016
3627.14	0.000774
3636.79	0.000666
3646.44	0.000438
3656.08	0.000332
3665.73	0.000359
3675.38	0.0003
3685.02	0.000291
3694.67	0.000418
3704.32	0.000357
3713.96	0.000249
3723.61	0.000276
3733.26	0.000293
3742.9	0.000399
3752.55	0.000421
3762.2	0.000513
3771.84	0.00046
3781.49	0.000433
3791.13	0.000386
3800.78	0.000375
3810.43	0.000481
3820.07	0.00038
3829.72	0.000519
3839.37	0.000517
3849.01	0.000478
3858.66	0.000512
3868.31	0.000557
3877.95	0.00049
3887.6	0.000495
3897.25	0.00049
3906.89	0.000516
3916.54	0.000526
3926.19	0.000628
3935.83	0.000595
3945.48	0.000591
3955.13	0.000621
3964.77	0.000697
3974.42	0.000664
3984.07	0.000763
3993.71	0.000724
