Infrared Spectrum: 2,3-Pentadione
Formula: C 5 H 8 O 2
CAS: 600-14-6
State: gas
Instrument: HP-GC/MS/IRD
Origin: NIST Mass Spectrometry Data Center
1/CM	ABSORBANCE
550	0.001513
562	0.002176
574	0.003298
586	0.002941
598	0.001207
610	0.0005678
622	0.0002754
634	0.000238
646	0.0002856
658	0.0001394
670	6.12e-05
682	3.74e-05
694	5.1e-05
706	7.48e-05
718	6.8e-05
730	7.48e-05
742	0.0001088
754	0.0001224
766	0.0003842
778	0.0004488
790	0.000595
802	0.0006154
814	0.0005032
826	0.000459
838	0.0004046
850	0.000459
862	0.0006868
874	0.0013226
886	0.0035564
898	0.0074018
910	0.0081566
922	0.0045016
934	0.0017646
946	0.0011322
958	0.0010982
970	0.0011492
982	0.0012818
994	0.0013328
1006	0.0014654
1018	0.001717
1030	0.002312
1042	0.0030634
1054	0.0031552
1066	0.0030668
1078	0.0043248
1090	0.00561
1102	0.0056134
1114	0.0047702
1126	0.004539
1138	0.0029274
1150	0.0011084
1162	0.0005066
1174	0.000323
1186	0.0003026
1198	0.000425
1210	0.0007412
1222	0.0012104
1234	0.0013362
1246	0.0008568
1258	0.0006392
1270	0.0005746
1282	0.0005882
1294	0.0007174
1306	0.0011764
1318	0.001853
1330	0.0028288
1342	0.0050456
1354	0.0069938
1366	0.0061744
1378	0.0038964
1390	0.0030464
1402	0.0034238
1414	0.0038896
1426	0.0040528
1438	0.0036006
1450	0.003162
1462	0.002975
1474	0.002397
1486	0.0016524
1498	0.0011764
1510	0.0010166
1522	0.0009486
1534	0.0009146
1546	0.0008194
1558	0.0007106
1570	0.0006494
1582	0.0005848
1594	0.0005508
1606	0.0005576
1618	0.0005406
1630	0.0006222
1642	0.0007956
1654	0.0011798
1666	0.0020434
1678	0.0036074
1690	0.0066436
1702	0.0153238
1714	0.0310522
1726	0.033745
1738	0.0239258
1750	0.0084728
1762	0.0039372
1774	0.002329
1786	0.001292
1798	0.0007412
1810	0.0005032
1822	0.0003298
1834	0.0001802
1846	0.0001224
1858	6.46e-05
1870	7.82e-05
1882	7.82e-05
1894	7.48e-05
1906	0.0001088
1918	0.0001224
1930	0.0001054
1942	0.0001156
1954	9.86e-05
1966	7.82e-05
1978	5.1e-05
1990	4.76e-05
2002	3.4e-05
2014	6.46e-05
2026	4.42e-05
2038	1.36e-05
2050	2.38e-05
2062	5.1e-05
2074	6.8e-05
2086	4.42e-05
2098	3.74e-05
2110	3.06e-05
2122	4.42e-05
2134	4.08e-05
2146	6.46e-05
2158	4.76e-05
2170	2.38e-05
2182	5.1e-05
2194	1.7e-05
2206	3.4e-05
2218	3.74e-05
2230	5.1e-05
2242	8.84e-05
2254	0.0001224
2266	0.0001768
2278	0.0001292
2290	0.0001088
2302	9.18e-05
2314	9.18e-05
2326	9.52e-05
2338	0.0001462
2350	0.0001326
2362	0.0001156
2374	0.0001224
2386	9.18e-05
2398	8.84e-05
2410	5.44e-05
2422	7.14e-05
2434	6.12e-05
2446	8.84e-05
2458	7.82e-05
2470	7.48e-05
2482	8.16e-05
2494	6.8e-05
2506	3.74e-05
2518	0
2530	2.72e-05
2542	5.1e-05
2554	4.42e-05
2566	5.44e-05
2578	8.16e-05
2590	7.82e-05
2602	9.52e-05
2614	6.8e-05
2626	8.5e-05
2638	0.0001054
2650	7.48e-05
2662	0.000119
2674	0.0001224
2686	0.0001598
2698	0.000153
2710	0.0001768
2722	0.0002142
2734	0.0002108
2746	0.0002788
2758	0.0003264
2770	0.000374
2782	0.0003536
2794	0.0004046
2806	0.0004624
2818	0.0005202
2830	0.0006188
2842	0.0007106
2854	0.0008534
2866	0.0011424
2878	0.001768
2890	0.0025432
2902	0.0028832
2914	0.0029614
2926	0.0032674
2938	0.0042806
2950	0.005083
2962	0.0049742
2974	0.0049844
2986	0.00629
2998	0.0056542
3010	0.003434
3022	0.002142
3034	0.0014824
3046	0.0010234
3058	0.0008092
3070	0.0007548
3082	0.0006018
3094	0.0006154
3106	0.0004998
3118	0.000391
3130	0.0003842
3142	0.0003808
3154	0.0003366
3166	0.0003366
3178	0.000306
3190	0.0002414
3202	0.0001734
3214	0.0001904
3226	0.000136
3238	0.000119
3250	0.0001292
3262	0.0001326
3274	0.0001326
3286	0.0001224
3298	0.000119
3310	0.0001326
3322	0.0001666
3334	0.0001258
3346	0.000119
3358	0.0001564
3370	0.0001564
3382	0.0002414
3394	0.0003026
3406	0.0005916
3418	0.0008602
3430	0.0010574
3442	0.0008228
3454	0.0005168
3466	0.000357
3478	0.0002686
3490	0.0002312
3502	0.0001258
3514	0.0001394
3526	9.52e-05
3538	8.16e-05
3550	7.48e-05
3562	6.46e-05
3574	8.16e-05
3586	5.1e-05
3598	8.84e-05
3610	6.12e-05
3622	6.12e-05
3634	8.84e-05
3646	9.18e-05
3658	8.16e-05
3670	7.48e-05
3682	0.0001258
3694	1.36e-05
3706	5.1e-05
3718	6.12e-05
3730	5.44e-05
3742	8.5e-05
3754	6.46e-05
3766	0.000119
3778	0.0001156
3790	0.0001088
3802	8.16e-05
3814	0.0001462
3826	0.000102
3838	0.0001292
