Infrared Spectrum: AMINO ACETIC ACID HYDROCHLORIDE
Formula: C2 H5 N O2  * H Cl
CAS: 6000-43-7
State: SOLID (MINERAL OIL MULL)
Class: COBLENTZ
Instrument: PERKIN-ELMER
Sampling: TRANSMISSION
Resolution: 4
MICROMETERS	TRANSMITTANCE
2.018	0.86
2.05479	0.866
2.09159	0.872
2.12838	0.877
2.16517	0.88
2.20197	0.888
2.23876	0.894
2.27555	0.897
2.31235	0.891
2.34914	0.889
2.38593	0.892
2.42273	0.9
2.45952	0.911
2.49631	0.929
2.53311	0.944
2.5699	0.963
2.60669	0.973
2.64349	0.977
2.68028	0.978
2.71707	0.986
2.75387	0.989
2.79066	0.983
2.82745	0.96
2.86425	0.934
2.90104	0.892
2.93783	0.879
2.97463	0.843
3.01142	0.788
3.04821	0.721
3.08501	0.513
3.1218	0.264
3.15859	0.196
3.19539	0.179
3.23218	0.157
3.26898	0.137
3.30577	0.102
3.34256	0.079
3.37936	0.044
3.41615	0.016
3.45294	0.015
3.48974	0.012
3.52653	0.013
3.56332	0.047
3.60012	0.111
3.63691	0.151
3.6737	0.189
3.7105	0.2
3.74729	0.234
3.78408	0.292
3.82088	0.327
3.85767	0.297
3.89446	0.411
3.93126	0.335
3.96805	0.379
4.00484	0.454
4.04164	0.537
4.07843	0.578
4.11522	0.513
4.15202	0.577
4.18881	0.618
4.2256	0.664
4.2624	0.673
4.29919	0.692
4.33598	0.765
4.37278	0.803
4.40957	0.813
4.44636	0.805
4.48316	0.817
4.51995	0.828
4.55674	0.811
4.59354	0.851
4.63033	0.874
4.66712	0.883
4.70392	0.885
4.74071	0.9
4.7775	0.9
4.8143	0.869
4.85109	0.879
4.88788	0.9
4.92468	0.9
4.96147	0.905
4.99826	0.892
5.03506	0.842
5.07185	0.799
5.10864	0.762
5.14544	0.721
5.18223	0.776
5.21902	0.799
5.25582	0.828
5.29261	0.854
5.3294	0.863
5.3662	0.849
5.40299	0.852
5.43978	0.859
5.47658	0.848
5.51337	0.803
5.55017	0.793
5.58696	0.719
5.62375	0.54
5.66055	0.238
5.69734	0.105
5.73413	0.076
5.77093	0.192
5.80772	0.249
5.84451	0.344
5.88131	0.488
5.9181	0.525
5.95489	0.545
5.99169	0.542
6.02848	0.578
6.06527	0.637
6.10207	0.673
6.13886	0.686
6.17565	0.548
6.21245	0.307
6.24924	0.358
6.28603	0.471
6.32283	0.581
6.35962	0.679
6.39641	0.696
6.43321	0.712
6.47	0.71
6.50679	0.712
6.54359	0.679
6.58038	0.528
6.61717	0.399
6.65397	0.159
6.69076	0.087
6.72755	0.179
6.76435	0.271
6.80114	0.205
6.83793	0.212
6.87473	0.228
6.91152	0.182
6.94831	0.241
6.98511	0.228
7.0219	0.205
7.05869	0.471
7.09549	0.562
7.13228	0.647
7.16907	0.658
7.20587	0.586
7.24266	0.468
7.27945	0.594
7.31625	0.63
7.35304	0.676
7.38983	0.652
7.42663	0.428
7.46342	0.447
7.50021	0.656
7.53701	0.707
7.5738	0.722
7.61059	0.767
7.64739	0.793
7.68418	0.8
7.72097	0.797
7.75777	0.788
7.79456	0.759
7.83136	0.707
7.86815	0.649
7.90494	0.555
7.94174	0.448
7.97853	0.381
8.01532	0.355
8.05212	0.289
8.08891	0.208
8.1257	0.124
8.1625	0.093
8.19929	0.108
8.23608	0.153
8.27288	0.24
8.30967	0.313
8.34646	0.385
8.38326	0.454
8.42005	0.499
8.45684	0.535
8.49364	0.572
8.53043	0.597
8.56722	0.618
8.60402	0.643
8.64081	0.658
8.6776	0.675
8.7144	0.686
8.75119	0.686
8.78798	0.669
8.82478	0.618
8.86157	0.456
8.89836	0.431
8.93516	0.597
8.97195	0.684
9.00874	0.653
9.04554	0.63
9.08233	0.732
9.11912	0.77
9.15592	0.794
9.19271	0.81
9.2295	0.826
9.2663	0.834
9.30309	0.846
9.33988	0.854
9.37668	0.859
9.41347	0.865
9.45026	0.856
9.48706	0.793
9.52385	0.779
9.56064	0.431
9.59744	0.483
9.63423	0.689
9.67102	0.756
9.70782	0.774
9.74461	0.81
9.7814	0.842
9.8182	0.854
9.85499	0.863
9.89178	0.871
9.92858	0.874
9.96537	0.872
10.0022	0.877
10.039	0.885
10.0758	0.892
10.1125	0.897
10.1493	0.9
10.1861	0.9
10.2229	0.9
10.2597	0.898
10.2965	0.897
10.3333	0.898
10.3701	0.898
10.4069	0.898
10.4437	0.9
10.4805	0.897
10.5173	0.894
10.5541	0.891
10.5909	0.892
10.6277	0.891
10.6644	0.892
10.7012	0.892
10.738	0.886
10.7748	0.889
10.8116	0.88
10.8484	0.868
10.8852	0.83
10.922	0.77
10.9588	0.712
10.9956	0.589
11.0324	0.275
11.0692	0.321
11.106	0.542
11.1428	0.679
11.1796	0.735
11.2163	0.75
11.2531	0.748
11.2899	0.762
11.3267	0.787
11.3635	0.791
11.4003	0.777
11.4371	0.733
11.4739	0.679
11.5107	0.565
11.5475	0.413
11.5843	0.229
11.6211	0.191
11.6579	0.255
11.6947	0.261
11.7315	0.251
11.7682	0.266
11.805	0.346
11.8418	0.427
11.8786	0.514
11.9154	0.581
11.9522	0.646
11.989	0.69
12.0258	0.735
12.0626	0.767
12.0994	0.784
12.1362	0.802
12.173	0.813
12.2098	0.825
12.2466	0.83
12.2834	0.833
12.3201	0.84
12.3569	0.849
12.3937	0.862
12.4305	0.871
12.4673	0.882
12.5041	0.888
12.5409	0.892
12.5777	0.898
12.6145	0.905
12.6513	0.908
12.6881	0.911
12.7249	0.915
12.7617	0.918
12.7985	0.918
12.8353	0.918
12.872	0.92
12.9088	0.92
12.9456	0.92
12.9824	0.918
13.0192	0.918
13.056	0.918
13.0928	0.918
13.1296	0.918
13.1664	0.92
13.2032	0.92
13.24	0.915
13.2768	0.914
13.3136	0.914
13.3504	0.909
13.3872	0.906
13.4239	0.901
13.4607	0.895
13.4975	0.891
13.5343	0.885
13.5711	0.882
13.6079	0.875
13.6447	0.872
13.6815	0.865
13.7183	0.86
13.7551	0.854
13.7919	0.848
13.8287	0.84
13.8655	0.83
13.9023	0.833
13.9391	0.849
13.9759	0.857
14.0126	0.866
14.0494	0.872
14.0862	0.875
14.123	0.88
14.1598	0.882
14.1966	0.885
14.2334	0.883
14.2702	0.885
14.307	0.885
14.3438	0.882
14.3806	0.88
14.4174	0.879
14.4542	0.877
14.491	0.874
14.5278	0.868
14.5645	0.86
14.6013	0.857
14.6381	0.848
14.6749	0.842
14.7117	0.83
14.7485	0.814
14.7853	0.805
14.8221	0.796
14.8589	0.791
14.8957	0.788
14.9325	0.791
14.9693	0.793
15.0061	0.791
15.0429	0.79
15.0797	0.788
15.1164	0.784
15.1532	0.781
