Infrared Spectrum: Crotonyl isothiocyanate
Formula: C 5 H 5 N O S
CAS: 60034-28-8
State: gas
Origin: EPA-IR VAPOR PHASE LIBRARY
1/CM	ABSORBANCE
549.8	0.00267
559.445	0.00286
569.09	0.00332
578.734	0.00314
588.379	0.00292
598.024	0.00293
607.669	0.00396
617.313	0.0062
626.958	0.0142
636.603	0.03589
646.248	0.04191
655.893	0.02663
665.537	0.02095
675.182	0.01545
684.827	0.01119
694.472	0.00958
704.116	0.00804
713.761	0.00615
723.406	0.00483
733.051	0.0046
742.695	0.00444
752.34	0.00471
761.985	0.00702
771.63	0.01241
781.275	0.0281
790.919	0.04152
800.564	0.0331
810.209	0.01661
819.854	0.00916
829.498	0.00706
839.143	0.00589
848.788	0.00506
858.433	0.00464
868.078	0.00454
877.722	0.0048
887.367	0.00605
897.012	0.00931
906.657	0.01604
916.301	0.02115
925.946	0.02186
935.591	0.02071
945.236	0.01888
954.88	0.02113
964.525	0.02404
974.17	0.01672
983.815	0.00977
993.46	0.00703
1003.1	0.00856
1012.75	0.0091
1022.39	0.00686
1032.04	0.00554
1041.68	0.00525
1051.33	0.0063
1060.97	0.00759
1070.62	0.01156
1080.26	0.02017
1089.91	0.03331
1099.55	0.03768
1109.2	0.03102
1118.84	0.03276
1128.49	0.0503
1138.13	0.06766
1147.78	0.06968
1157.42	0.05056
1167.07	0.02821
1176.71	0.02369
1186.36	0.0345
1196	0.06322
1205.64	0.10375
1215.29	0.1191
1224.93	0.09015
1234.58	0.04278
1244.22	0.01586
1253.87	0.01073
1263.51	0.01047
1273.16	0.01373
1282.8	0.02449
1292.45	0.03513
1302.09	0.02591
1311.74	0.01166
1321.38	0.00746
1331.03	0.00529
1340.67	0.0036
1350.32	0.00302
1359.96	0.0031
1369.61	0.00343
1379.25	0.00436
1388.9	0.00457
1398.54	0.00381
1408.18	0.00397
1417.83	0.00428
1427.47	0.00509
1437.12	0.00699
1446.76	0.00995
1456.41	0.00925
1466.05	0.00556
1475.7	0.00402
1485.34	0.00346
1494.99	0.0031
1504.63	0.00282
1514.28	0.00247
1523.92	0.00225
1533.57	0.00232
1543.21	0.00245
1552.86	0.0026
1562.5	0.00272
1572.15	0.00275
1581.79	0.00293
1591.44	0.00334
1601.08	0.00418
1610.73	0.00633
1620.37	0.01071
1630.01	0.02068
1639.66	0.03911
1649.3	0.04573
1658.95	0.02719
1668.59	0.01187
1678.24	0.01038
1687.88	0.01383
1697.53	0.02411
1707.17	0.05659
1716.82	0.13048
1726.46	0.17989
1736.11	0.16411
1745.75	0.08245
1755.4	0.03731
1765.04	0.01867
1774.69	0.01037
1784.33	0.00696
1793.98	0.00563
1803.62	0.00506
1813.27	0.00486
1822.91	0.00508
1832.55	0.0058
1842.2	0.00718
1851.84	0.00941
1861.49	0.01231
1871.13	0.01568
1880.78	0.02048
1890.42	0.02768
1900.07	0.03797
1909.71	0.05164
1919.36	0.06739
1929	0.08459
1938.65	0.10551
1948.29	0.142
1957.94	0.2142
1967.58	0.30308
1977.23	0.32948
1986.87	0.28618
1996.52	0.23119
2006.16	0.18916
2015.81	0.16739
2025.45	0.15874
2035.1	0.14553
2044.74	0.11608
2054.38	0.08122
2064.03	0.05554
2073.67	0.04182
2083.32	0.03535
2092.96	0.03249
2102.61	0.03138
2112.25	0.02946
2121.9	0.02516
2131.54	0.02015
2141.19	0.01659
2150.83	0.01181
2160.48	0.00912
2170.12	0.00724
2179.77	0.00632
2189.41	0.0058
2199.06	0.00559
2208.7	0.00538
2218.35	0.00511
2227.99	0.00449
2237.64	0.00375
2247.28	0.00314
2256.92	0.00263
2266.57	0.00244
2276.21	0.00239
2285.86	0.00242
2295.5	0.00245
2305.15	0.00246
2314.79	0.00233
2324.44	0.00219
2334.08	0.0019
2343.73	0.0015764
2353.37	0.0015538
2363.02	0.00171
2372.66	0.0016166
2382.31	0.001591
2391.95	0.0014775
2401.6	0.0014663
2411.24	0.001517
2420.89	0.0013766
2430.53	0.0014317
2440.18	0.0015082
2449.82	0.0014369
2459.47	0.0015905
2469.11	0.00174
2478.75	0.00173
2488.4	0.001636
2498.04	0.0015505
2507.69	0.001587
2517.33	0.00174
2526.98	0.00189
2536.62	0.00189
2546.27	0.00197
2555.91	0.00189
2565.56	0.00176
2575.2	0.00178
2584.85	0.00189
2594.49	0.00215
2604.14	0.00237
2613.78	0.00266
2623.43	0.00265
2633.07	0.00249
2642.72	0.00231
2652.36	0.00253
2662.01	0.00255
2671.65	0.0025
2681.29	0.0022
2690.94	0.00194
2700.58	0.00197
2710.23	0.0015643
2719.87	0.0015062
2729.52	0.0014844
2739.16	0.0014764
2748.81	0.0015821
2758.45	0.0013169
2768.1	0.001116
2777.74	0.0010651
2787.39	0.0010518
2797.03	0.0011085
2806.68	0.0008865
2816.32	0.001055
2825.97	0.0010275
2835.61	0.0009803
2845.26	0.0014122
2854.9	0.00197
2864.55	0.00304
2874.19	0.00326
2883.84	0.00268
2893.48	0.0023
2903.12	0.0023
2912.77	0.0028
2922.41	0.00528
2932.06	0.00666
2941.7	0.00537
2951.35	0.00444
2960.99	0.0048
2970.64	0.00458
2980.28	0.00509
2989.93	0.00462
2999.57	0.00325
3009.22	0.00246
3018.86	0.00235
3028.51	0.00246
3038.15	0.00284
3047.8	0.00371
3057.44	0.00419
3067.09	0.00319
3076.73	0.0016886
3086.38	0.0014
3096.02	0.0009987
3105.67	0.00073108
3115.31	0.0008718
3124.95	0.0009101
3134.6	0.0005987
3144.24	0.0006119
3153.89	0.000488
3163.53	0.000535
3173.18	0.000226
3182.82	0.00035
3192.47	0.00028
3202.11	0.000325
3211.76	0.000354
3221.4	0.000191
3231.05	0.000251
3240.69	0.000137
3250.34	9.9e-05
3259.98	0.000115
3269.63	7.4e-05
3279.27	0.000219
3288.92	0.000116
3298.56	8.1e-05
3308.21	0.00034
3317.85	0.000287
3327.49	0.000206
3337.14	0.000381
3346.78	0.000252
3356.43	0.000481
3366.07	0.0006393
3375.72	0.00077081
3385.36	0.000556
3395.01	0.0008648
3404.65	0.00071409
3414.3	0.0014072
3423.94	0.00215
3433.59	0.00221
3443.23	0.00203
3452.88	0.00178
3462.52	0.0015246
3472.17	0.0010879
3481.81	0.0010346
3491.46	0.00072032
3501.1	0.0010821
3510.75	0.0012417
3520.39	0.0010207
3530.04	0.0011715
3539.68	0.0009787
3549.32	0.0008335
3558.97	0.00073215
3568.61	0.00035
3578.26	0.000419
3587.9	0.0004
3597.55	0.000515
3607.19	0.000409
3616.84	0.000347
3626.48	0.000396
3636.13	0.000464
3645.77	0.000295
3655.42	0.000266
3665.06	0.000243
3674.71	0.000348
3684.35	0.000427
3694	0.000304
3703.64	0.000373
3713.29	0.000443
3722.93	0.000273
3732.58	0.000385
3742.22	0.000533
3751.86	0.000275
3761.51	0.000343
3771.15	0.0006316
3780.8	0.000486
3790.44	0.000576
3800.09	0.00077462
3809.73	0.000572
3819.38	0.0008484
3829.02	0.0009475
3838.67	0.00075704
3848.31	0.0011156
3857.96	0.0012982
3867.6	0.0012086
3877.25	0.0011724
3886.89	0.0013219
3896.54	0.0012924
3906.18	0.0014925
3915.83	0.0015662
3925.47	0.00184
3935.12	0.00182
3944.76	0.00176
3954.41	0.0016238
3964.05	0.00178
3973.69	0.0016369
3983.34	0.00179
3992.98	0.0016084
