Infrared Spectrum: Alpha-D-MELIBIOSE, MONOHYDRATE
Formula: C12 H22 O11* H2 O
CAS: 60033-03-6
State: SOLID (SPLIT MULL), FLUOROLUBE FOR 3800-1330 CM^-^1, NUJOL FOR 1330-400 CM^-^1
Class: COBLENTZ III
Instrument: BECKMAN IR-9 (GRATING)
Instrument parameters: ORDER CHANGES: 670, 1200, 2000 CM^-^1
Sampling: TRANSMISSION
Resolution: 2
Origin: DOW CHEMICAL COMPANY
1/CM	TRANSMITTANCE
404	0.3994
413	0.4246
422	0.4585
431	0.4894
440	0.5648
449	0.6002
458	0.6134
467	0.6202
476	0.6194
485	0.6273
494	0.6258
503	0.6072
512	0.5904
521	0.5852
530	0.6002
539	0.5745
548	0.5544
557	0.5547
566	0.5469
575	0.5299
584	0.5101
593	0.5041
602	0.5226
611	0.5405
620	0.5584
629	0.5636
638	0.565
647	0.5688
656	0.5169
665	0.5291
674	0.5592
683	0.5692
692	0.557
701	0.5308
710	0.554
719	0.5415
728	0.5143
737	0.6139
746	0.6377
755	0.6508
764	0.6494
773	0.6344
782	0.6036
791	0.5109
800	0.5653
809	0.6475
818	0.6993
827	0.7224
836	0.7168
845	0.7668
854	0.7725
863	0.6835
872	0.6446
881	0.7285
890	0.7806
899	0.7851
908	0.7684
917	0.6869
926	0.6651
935	0.7471
944	0.7071
953	0.7576
962	0.7304
971	0.6022
980	0.6781
989	0.6855
998	0.5434
1007	0.3304
1016	0.1459
1025	0.0602
1034	0.2434
1043	0.1899
1052	0.1861
1061	0.3407
1070	0.421
1079	0.2882
1088	0.2183
1097	0.3457
1106	0.3589
1115	0.2919
1124	0.4366
1133	0.4628
1142	0.4221
1151	0.2988
1160	0.258
1169	0.5164
1178	0.6844
1187	0.7343
1196	0.7315
1205	0.6593
1214	0.6097
1223	0.5976
1232	0.5855
1241	0.5993
1250	0.6692
1259	0.6715
1268	0.6497
1277	0.6584
1286	0.6831
1295	0.6888
1304	0.6233
1313	0.5519
1322	0.5943
1331	0.568
1340	0.4486
1349	0.3955
1358	0.3966
1367	0.5001
1376	0.5765
1385	0.48
1394	0.3864
1403	0.3694
1412	0.3966
1421	0.4288
1430	0.4244
1439	0.4079
1448	0.4738
1457	0.565
1466	0.5394
1475	0.6571
1484	0.7456
1493	0.7821
1502	0.8028
1511	0.8201
1520	0.8323
1529	0.8421
1538	0.8486
1547	0.8536
1556	0.8578
1565	0.8656
1574	0.8687
1583	0.8668
1592	0.8635
1601	0.8588
1610	0.8551
1619	0.8548
1628	0.8563
1637	0.8473
1646	0.8405
1655	0.8354
1664	0.8282
1673	0.7971
1682	0.7884
1691	0.8158
1700	0.8061
1709	0.815
1718	0.8567
1727	0.8658
1736	0.8875
1745	0.8909
1754	0.8927
1763	0.8948
1772	0.897
1781	0.8965
1790	0.897
1799	0.8966
1808	0.8955
1817	0.8949
1826	0.8935
1835	0.892
1844	0.8918
1853	0.8918
1862	0.8913
1871	0.8908
1880	0.8897
1889	0.8884
1898	0.888
1907	0.8886
1916	0.8885
1925	0.8883
1934	0.8881
1943	0.8878
1952	0.8875
1961	0.8866
1970	0.8852
1979	0.8813
1988	0.8746
1997	0.8703
2006	0.8713
2015	0.8751
2024	0.8727
2033	0.8696
2042	0.867
2051	0.8639
2060	0.861
2069	0.8578
2078	0.8546
2087	0.8513
2096	0.8486
2105	0.8471
2114	0.8453
2123	0.8425
2132	0.8397
2141	0.8368
2150	0.8338
2159	0.8306
2168	0.8263
2177	0.8192
2186	0.8148
2195	0.811
2204	0.809
2213	0.809
2222	0.8065
2231	0.8026
2240	0.7989
2249	0.7951
2258	0.7912
2267	0.7865
2276	0.7815
2285	0.7771
2294	0.7725
2303	0.7684
2312	0.7646
2321	0.7608
2330	0.7571
2339	0.7528
2348	0.7492
2357	0.7499
2366	0.7504
2375	0.7483
2384	0.7558
2393	0.763
2402	0.7634
2411	0.7621
2420	0.7607
2429	0.7585
2438	0.756
2447	0.7533
2456	0.7508
2465	0.7483
2474	0.7457
2483	0.7421
2492	0.7389
2501	0.7362
2510	0.7336
2519	0.7308
2528	0.7282
2537	0.7258
2546	0.7234
2555	0.7205
2564	0.7161
2573	0.7117
2582	0.7072
2591	0.7026
2600	0.6975
2609	0.6925
2618	0.6875
2627	0.6826
2636	0.6778
2645	0.6728
2654	0.6685
2663	0.6648
2672	0.6617
2681	0.6591
2690	0.6567
2699	0.6542
2708	0.6518
2717	0.6485
2726	0.6448
2735	0.6397
2744	0.6331
2753	0.6258
2762	0.6192
2771	0.6121
2780	0.6046
2789	0.5954
2798	0.5852
2807	0.575
2816	0.5634
2825	0.5516
2834	0.5388
2843	0.5299
2852	0.522
2861	0.5072
2870	0.483
2879	0.4615
2888	0.4441
2897	0.4307
2906	0.4178
2915	0.3955
2924	0.3532
2933	0.2657
2942	0.237
2951	0.3789
2960	0.5321
2969	0.5446
2978	0.5598
2987	0.5514
2996	0.5393
3005	0.5393
3014	0.5333
3023	0.519
3032	0.5001
3041	0.4802
3050	0.4656
3059	0.4477
3068	0.427
3077	0.4068
3086	0.3862
3095	0.3643
3104	0.3393
3113	0.3103
3122	0.2845
3131	0.2598
3140	0.2382
3149	0.2227
3158	0.2111
3167	0.1994
3176	0.1887
3185	0.1783
3194	0.1668
3203	0.1545
3212	0.1429
3221	0.1312
3230	0.1186
3239	0.103
3248	0.087
3257	0.0752
3266	0.067
3275	0.0621
3284	0.0586
3293	0.055
3302	0.0517
3311	0.0487
3320	0.0464
3329	0.0452
3338	0.0452
3347	0.0466
3356	0.0491
3365	0.0523
3374	0.0556
3383	0.0581
3392	0.0606
3401	0.0623
3410	0.0641
3419	0.066
3428	0.0678
3437	0.0739
3446	0.1029
3455	0.1371
3464	0.1921
3473	0.2287
3482	0.2734
3491	0.3172
3500	0.3634
3509	0.4102
3518	0.4702
3527	0.506
3536	0.5433
3545	0.5812
3554	0.6224
3563	0.6978
3572	0.7342
3581	0.7587
3590	0.7858
3599	0.8169
3608	0.832
3617	0.8414
3626	0.8492
3635	0.8552
3644	0.8617
3653	0.8659
3662	0.8671
3671	0.8668
3680	0.864
3689	0.8603
3698	0.8565
3707	0.8525
3716	0.8478
3725	0.8436
3734	0.8396
3743	0.8361
3752	0.8328
3761	0.8297
3770	0.8268
3779	0.8236
3788	0.8201
3797	0.8157
