Infrared Spectrum: Tetrahydrodicyclopentadiene
Formula: C 10 H 16
CAS: 6004-38-2
State: gas
Instrument: HP-GC/MS/IRD
Origin: NIST Mass Spectrometry Data Center
1/CM	ABSORBANCE
550	3.48e-05
562	0.0001131
574	5.22e-05
586	6.96e-05
598	6.96e-05
610	0.0001914
622	0.0001131
634	9.57e-05
646	0.0001044
658	0.0001131
670	8.7e-05
682	5.22e-05
694	7.83e-05
706	5.22e-05
718	7.83e-05
730	5.22e-05
742	0.0001044
754	0.0001044
766	9.57e-05
778	0.0001914
790	0.0003915
802	0.0005133
814	0.000522
826	0.0004089
838	0.0004089
850	0.000348
862	0.0003828
874	0.0004698
886	0.0004785
898	0.0003828
910	0.0002958
922	0.0002436
934	0.0002001
946	0.0004698
958	0.0005916
970	0.0003567
982	0.0002784
994	0.0001827
1006	0.000261
1018	0.0002175
1030	9.57e-05
1042	6.96e-05
1054	8.7e-05
1066	8.7e-05
1078	0.0001392
1090	0.0001566
1102	0.0001653
1114	7.83e-05
1126	5.22e-05
1138	9.57e-05
1150	0.000174
1162	0.0005133
1174	0.00087
1186	0.000609
1198	0.0002088
1210	0.0002349
1222	0.0002175
1234	0.0002175
1246	0.0003219
1258	0.0003219
1270	0.0003393
1282	0.0005655
1294	0.000696
1306	0.0006438
1318	0.0004959
1330	0.0005742
1342	0.0004698
1354	0.0001653
1366	8.7e-05
1378	8.7e-05
1390	0.0001305
1402	0.0001827
1414	0.0002697
1426	0.0004785
1438	0.0012441
1450	0.0027753
1462	0.0044718
1474	0.0047937
1486	0.0034104
1498	0.0015051
1510	0.0005394
1522	0.0002262
1534	0.0001305
1546	0.0001044
1558	6.96e-05
1570	6.96e-05
1582	5.22e-05
1594	6.09e-05
1606	6.96e-05
1618	6.96e-05
1630	5.22e-05
1642	8.7e-06
1654	1.74e-05
1666	1.74e-05
1678	2.61e-05
1690	1.74e-05
1702	8.7e-06
1714	1.74e-05
1726	2.61e-05
1738	1.74e-05
1750	8.7e-06
1762	1.74e-05
1774	8.7e-06
1786	2.61e-05
1798	1.74e-05
1810	1.74e-05
1822	1.74e-05
1834	0
1846	8.7e-06
1858	8.7e-06
1870	0
1882	0
1894	1.74e-05
1906	1.74e-05
1918	1.74e-05
1930	3.48e-05
1942	2.61e-05
1954	3.48e-05
1966	3.48e-05
1978	2.61e-05
1990	4.35e-05
2002	2.61e-05
2014	3.48e-05
2026	4.35e-05
2038	4.35e-05
2050	3.48e-05
2062	4.35e-05
2074	5.22e-05
2086	9.57e-05
2098	7.83e-05
2110	8.7e-05
2122	8.7e-05
2134	6.09e-05
2146	7.83e-05
2158	0.0001131
2170	0.0001479
2182	0.0001131
2194	0.0001044
2206	0.0001044
2218	7.83e-05
2230	7.83e-05
2242	0.0001131
2254	0.0001044
2266	0.0001131
2278	9.57e-05
2290	6.96e-05
2302	5.22e-05
2314	3.48e-05
2326	3.48e-05
2338	3.48e-05
2350	8.7e-05
2362	6.09e-05
2374	6.09e-05
2386	6.96e-05
2398	5.22e-05
2410	6.09e-05
2422	6.09e-05
2434	5.22e-05
2446	3.48e-05
2458	4.35e-05
2470	4.35e-05
2482	3.48e-05
2494	1.74e-05
2506	4.35e-05
2518	6.09e-05
2530	6.09e-05
2542	6.96e-05
2554	8.7e-05
2566	8.7e-05
2578	0.0001566
2590	0.0002175
2602	0.0002523
2614	0.0002697
2626	0.000261
2638	0.0002523
2650	0.0002523
2662	0.0002436
2674	0.0002262
2686	0.0001653
2698	0.0001392
2710	0.0001566
2722	0.0001653
2734	0.0002001
2746	0.0002784
2758	0.0003219
2770	0.0003828
2782	0.0004437
2794	0.0004872
2806	0.0005481
2818	0.0006264
2830	0.0008787
2842	0.0015399
2854	0.0043674
2866	0.0126585
2878	0.0199752
2890	0.0189138
2902	0.0175653
2914	0.0222198
2926	0.0299106
2938	0.0512865
2950	0.0835113
2962	0.0747069
2974	0.0343476
2986	0.0114579
2998	0.0038019
3010	0.0015747
3022	0.0010179
3034	0.0008439
3046	0.0006699
3058	0.0005394
3070	0.0004698
3082	0.0004437
3094	0.000348
3106	0.0002784
3118	0.0002088
3130	0.000174
3142	0.0001566
3154	0.0001218
3166	0.0001044
3178	0.0001305
3190	6.96e-05
3202	0.0001218
3214	0.0001044
3226	0.0001218
3238	0.0001392
3250	9.57e-05
3262	5.22e-05
3274	6.09e-05
3286	3.48e-05
3298	5.22e-05
3310	5.22e-05
3322	4.35e-05
3334	3.48e-05
3346	5.22e-05
3358	4.35e-05
3370	5.22e-05
3382	9.57e-05
3394	0.000174
3406	0.0001131
3418	8.7e-05
3430	6.09e-05
3442	6.09e-05
3454	4.35e-05
3466	3.48e-05
3478	6.09e-05
3490	2.61e-05
3502	5.22e-05
3514	2.61e-05
3526	4.35e-05
3538	8.7e-06
3550	4.35e-05
3562	6.96e-05
3574	4.35e-05
3586	3.48e-05
3598	5.22e-05
3610	6.96e-05
3622	5.22e-05
3634	5.22e-05
3646	6.96e-05
3658	8.7e-05
3670	6.96e-05
3682	7.83e-05
3694	8.7e-05
3706	0.0001131
3718	0.0001392
3730	0.0002001
3742	0.0001914
3754	0.0001479
3766	0.0001479
3778	0.0001479
3790	0.0001131
3802	0.0001218
3814	0.0001566
3826	9.57e-05
3838	0.0001827
