Infrared Spectrum: Cyclopentylethanone
Formula: C 7 H 12 O
CAS: 6004-60-0
State: gas
Instrument: HP-GC/MS/IRD
Origin: NIST Mass Spectrometry Data Center
1/CM	ABSORBANCE
550	0.0008892
562	0.0012948
574	0.0015132
586	0.001664
598	0.001339
610	0.000845
622	0.000429
634	0.0003198
646	3.9e-05
658	0.0001638
670	9.62e-05
682	0.0001378
694	0.0001664
706	0.0001716
718	6.76e-05
730	2.34e-05
742	3.9e-05
754	6.5e-05
766	4.16e-05
778	3.38e-05
790	5.46e-05
802	9.36e-05
814	0.0001066
826	0.0002262
838	0.0002782
850	0.0002132
862	0.00026
874	0.0004238
886	0.000754
898	0.0010426
910	0.001222
922	0.001157
934	0.0009906
946	0.001001
958	0.0013312
970	0.0014976
982	0.0011492
994	0.0007592
1006	0.000702
1018	0.000611
1030	0.0005252
1042	0.0004056
1054	0.0003926
1066	0.0004056
1078	0.0004862
1090	0.0006188
1102	0.0007982
1114	0.0012064
1126	0.002158
1138	0.004082
1150	0.0071292
1162	0.0089674
1174	0.0080678
1186	0.006032
1198	0.0041522
1210	0.0028288
1222	0.0024258
1234	0.002405
1246	0.0020514
1258	0.0016536
1270	0.0015522
1282	0.0015496
1294	0.0016744
1306	0.0017706
1318	0.001885
1330	0.0026052
1342	0.0048386
1354	0.0084604
1366	0.0084942
1378	0.0043888
1390	0.0022152
1402	0.001755
1414	0.00182
1426	0.0020774
1438	0.0024882
1450	0.0028158
1462	0.0025584
1474	0.0018902
1486	0.0013208
1498	0.000988
1510	0.0007956
1522	0.0006812
1534	0.0005928
1546	0.000533
1558	0.0004784
1570	0.0004056
1582	0.0003328
1594	0.0003146
1606	0.0002808
1618	0.00026
1630	0.0003198
1642	0.000442
1654	0.0006526
1666	0.0011882
1678	0.0022464
1690	0.004303
1702	0.0089986
1714	0.0167752
1726	0.0209586
1738	0.015223
1750	0.0065624
1762	0.0024986
1774	0.0012038
1786	0.000663
1798	0.0004082
1810	0.0003016
1822	0.0002236
1834	0.0001768
1846	0.0001534
1858	0.0001144
1870	9.88e-05
1882	8.06e-05
1894	9.1e-05
1906	7.02e-05
1918	7.28e-05
1930	6.24e-05
1942	4.42e-05
1954	4.42e-05
1966	3.12e-05
1978	3.9e-05
1990	3.38e-05
2002	2.86e-05
2014	2.86e-05
2026	3.64e-05
2038	3.12e-05
2050	3.9e-05
2062	2.08e-05
2074	4.42e-05
2086	3.12e-05
2098	3.64e-05
2110	0
2122	2.6e-05
2134	3.38e-05
2146	1.04e-05
2158	4.68e-05
2170	4.94e-05
2182	6.5e-05
2194	4.94e-05
2206	4.16e-05
2218	3.9e-05
2230	3.64e-05
2242	4.68e-05
2254	9.62e-05
2266	0.000104
2278	7.8e-05
2290	8.84e-05
2302	9.36e-05
2314	9.88e-05
2326	9.88e-05
2338	0.000117
2350	8.58e-05
2362	4.94e-05
2374	5.98e-05
2386	5.2e-05
2398	3.9e-05
2410	3.12e-05
2422	3.64e-05
2434	1.04e-05
2446	1.3e-05
2458	2.6e-05
2470	3.12e-05
2482	4.16e-05
2494	4.94e-05
2506	5.46e-05
2518	5.2e-05
2530	4.42e-05
2542	3.38e-05
2554	2.6e-05
2566	2.86e-05
2578	5.46e-05
2590	4.94e-05
2602	4.68e-05
2614	5.98e-05
2626	5.46e-05
2638	2.34e-05
2650	5.98e-05
2662	3.9e-05
2674	8.84e-05
2686	9.36e-05
2698	7.8e-05
2710	9.1e-05
2722	0.0001248
2734	0.0001404
2746	0.0001508
2758	0.0001768
2770	0.0002158
2782	0.0002756
2794	0.0003328
2806	0.000455
2818	0.0006578
2830	0.0010244
2842	0.0016458
2854	0.0029094
2866	0.0060138
2878	0.0091416
2890	0.0094458
2902	0.008411
2914	0.0093704
2926	0.0114998
2938	0.0150982
2950	0.0211328
2962	0.026
2974	0.0216866
2986	0.0120796
2998	0.0061698
3010	0.003835
3022	0.002561
3034	0.0016094
3046	0.0011596
3058	0.0009178
3070	0.0008034
3082	0.0006604
3094	0.0005304
3106	0.0003796
3118	0.0002652
3130	0.0001794
3142	0.0001586
3154	0.0001586
3166	0.0001118
3178	0.000117
3190	8.58e-05
3202	8.06e-05
3214	5.2e-05
3226	8.06e-05
3238	7.8e-05
3250	8.84e-05
3262	2.86e-05
3274	0
3286	2.86e-05
3298	2.34e-05
3310	4.42e-05
3322	5.72e-05
3334	4.42e-05
3346	1.82e-05
3358	6.24e-05
3370	7.8e-05
3382	0.000104
3394	0.0001248
3406	0.00026
3418	0.0003744
3430	0.0004784
3442	0.0004498
3454	0.0002964
3466	0.000156
3478	0.0001326
3490	0.0001274
3502	7.02e-05
3514	9.62e-05
3526	7.8e-05
3538	8.32e-05
3550	9.1e-05
3562	9.88e-05
3574	9.62e-05
3586	8.58e-05
3598	9.1e-05
3610	4.94e-05
3622	5.72e-05
3634	0.0001274
3646	5.2e-05
3658	2.34e-05
3670	8.06e-05
3682	5.2e-05
3694	3.9e-05
3706	6.76e-05
3718	0.000104
3730	4.94e-05
3742	8.06e-05
3754	7.8e-05
3766	6.24e-05
3778	8.06e-05
3790	8.06e-05
3802	0.0001222
3814	0.0001378
3826	0.00013
3838	8.32e-05
