Infrared Spectrum: Tridecylcyclohexane
Formula: C 19 H 38
CAS: 6006-33-3
State: gas
Instrument: HP-GC/MS/IRD
Origin: NIST Mass Spectrometry Data Center
1/CM	ABSORBANCE
550	0.0001598
562	0.0002162
574	0.0002162
586	7.52e-05
598	0.000188
610	0.0001504
622	0.0002162
634	0.0001786
646	0.0001316
658	0.0001504
670	0.0001692
682	0.0003008
694	0.0004324
706	0.0007144
718	0.0009682
730	0.0008836
742	0.000705
754	0.0005546
766	0.0004888
778	0.000423
790	0.0003854
802	0.0003572
814	0.0003666
826	0.0004418
838	0.000517
850	0.0004324
862	0.0004418
874	0.0005358
886	0.0006298
898	0.000564
910	0.0004606
922	0.000376
934	0.0003854
946	0.0003666
958	0.0004606
970	0.000423
982	0.0003196
994	0.0003478
1006	0.0003196
1018	0.0003384
1030	0.0003854
1042	0.0003102
1054	0.0003572
1066	0.0003666
1078	0.0004042
1090	0.0003572
1102	0.000329
1114	0.0003102
1126	0.000282
1138	0.0002726
1150	0.0003008
1162	0.0003102
1174	0.0003384
1186	0.0003572
1198	0.0003666
1210	0.0003478
1222	0.0003854
1234	0.0004324
1246	0.0005734
1258	0.0008648
1270	0.0010058
1282	0.000893
1294	0.0009306
1306	0.0010622
1318	0.0010152
1330	0.0011186
1342	0.001692
1354	0.0019646
1366	0.0015698
1378	0.001175
1390	0.000846
1402	0.0006862
1414	0.0007332
1426	0.001081
1438	0.0023688
1450	0.0054896
1462	0.0057434
1474	0.0029516
1486	0.0011844
1498	0.000611
1510	0.0003196
1522	0.0002068
1534	0.0002162
1546	0.0001786
1558	9.4e-05
1570	0.0001786
1582	0.0001598
1594	0.0001504
1606	0.000141
1618	8.46e-05
1630	0.0001222
1642	0.0001034
1654	9.4e-06
1666	8.46e-05
1678	6.58e-05
1690	7.52e-05
1702	9.4e-06
1714	2.82e-05
1726	6.58e-05
1738	3.76e-05
1750	9.4e-06
1762	4.7e-05
1774	5.64e-05
1786	5.64e-05
1798	6.58e-05
1810	6.58e-05
1822	6.58e-05
1834	4.7e-05
1846	1.88e-05
1858	6.58e-05
1870	5.64e-05
1882	6.58e-05
1894	7.52e-05
1906	7.52e-05
1918	4.7e-05
1930	7.52e-05
1942	5.64e-05
1954	4.7e-05
1966	5.64e-05
1978	5.64e-05
1990	7.52e-05
2002	8.46e-05
2014	7.52e-05
2026	0.0001222
2038	0.0001128
2050	0.0001222
2062	0.0001034
2074	8.46e-05
2086	6.58e-05
2098	5.64e-05
2110	6.58e-05
2122	9.4e-05
2134	6.58e-05
2146	9.4e-05
2158	0.0001128
2170	0.0001128
2182	0.0001128
2194	9.4e-05
2206	0.0001034
2218	9.4e-05
2230	0.0001316
2242	0.0001034
2254	9.4e-05
2266	9.4e-05
2278	7.52e-05
2290	7.52e-05
2302	9.4e-05
2314	6.58e-05
2326	7.52e-05
2338	7.52e-05
2350	0.0001034
2362	7.52e-05
2374	7.52e-05
2386	0.0001128
2398	0.0001316
2410	0.0001316
2422	0.0001316
2434	0.0001316
2446	0.0001222
2458	0.0001316
2470	0.0001128
2482	0.0001504
2494	0.0001598
2506	0.0001786
2518	0.0002162
2530	0.0002538
2542	0.0002538
2554	0.0002726
2566	0.0003102
2578	0.0003478
2590	0.0004324
2602	0.0004982
2614	0.0005358
2626	0.0006016
2638	0.0006768
2650	0.0008272
2662	0.0009682
2674	0.000987
2686	0.0009118
2698	0.0008554
2710	0.0008084
2722	0.0007708
2734	0.0007896
2746	0.0008648
2758	0.0009494
2770	0.0011092
2782	0.0014382
2794	0.0018706
2806	0.0023406
2818	0.0031302
2830	0.0047752
2842	0.0097196
2854	0.0253612
2866	0.032289
2878	0.0186778
2890	0.0166474
2902	0.0242896
2914	0.042347
2926	0.081968
2938	0.0825696
2950	0.0346578
2962	0.0177472
2974	0.0113834
2986	0.0055272
2998	0.0032806
3010	0.0022842
3022	0.001692
3034	0.0013912
3046	0.0011186
3058	0.0009682
3070	0.0007708
3082	0.000658
3094	0.0005828
3106	0.000517
3118	0.00047
3130	0.0004512
3142	0.0004512
3154	0.0004042
3166	0.0003572
3178	0.0003478
3190	0.0003196
3202	0.0002726
3214	0.0002444
3226	0.0002726
3238	0.000188
3250	0.0002162
3262	0.0001692
3274	0.0001504
3286	0.0001504
3298	0.000188
3310	0.0001504
3322	0.0001598
3334	0.0001598
3346	0.0001598
3358	0.0002068
3370	0.0001692
3382	0.0001692
3394	0.000141
3406	0.0001504
3418	0.000188
3430	0.0001692
3442	0.0001692
3454	0.000141
3466	0.000141
3478	0.0001692
3490	0.0001504
3502	0.0001034
3514	0.000141
3526	7.52e-05
3538	0.0001128
3550	0.0001128
3562	0.0001034
3574	0.0001504
3586	0.0001128
3598	0.0001316
3610	0.0001034
3622	0.0001692
3634	0.0001974
3646	0.000188
3658	0.0001598
3670	0.0001598
3682	0.0002162
3694	0.000235
3706	0.0002256
3718	0.000188
3730	0.000188
3742	0.0001316
3754	0.000188
3766	0.0002162
3778	0.0002914
3790	0.0002538
3802	0.0002162
3814	0.0002538
3826	0.0002538
3838	0.0002068
