Infrared Spectrum: Pentadecylcyclohexane
Formula: C 21 H 42
CAS: 6006-95-7
State: gas
Instrument: HP-GC/MS/IRD
Origin: NIST Mass Spectrometry Data Center
1/CM	ABSORBANCE
550	0.0002376
562	0.0002232
574	0.0002304
586	0.0001512
598	0.0001512
610	7.92e-05
622	9.36e-05
634	3.6e-05
646	0.0001008
658	0.0001512
670	0.0001728
682	0.0002016
694	0.0002808
706	0.0005688
718	0.0008064
730	0.0007272
742	0.0005184
754	0.0004176
766	0.0003816
778	0.0003024
790	0.0002592
802	0.0002376
814	0.0002736
826	0.0002592
838	0.0003528
850	0.0003168
862	0.0003096
874	0.0003312
886	0.0004032
898	0.0004032
910	0.0002808
922	0.000252
934	0.000216
946	0.00018
958	0.0002736
970	0.0002808
982	0.000288
994	0.0002592
1006	0.0003096
1018	0.0003384
1030	0.0003096
1042	0.0002448
1054	0.0001728
1066	0.0001296
1078	0.0001656
1090	0.0001296
1102	0.0001296
1114	0.0001296
1126	0.000108
1138	0.0001296
1150	0.000108
1162	7.92e-05
1174	0.000108
1186	0.000144
1198	0.0001656
1210	0.0002448
1222	0.000252
1234	0.0002592
1246	0.000288
1258	0.0004968
1270	0.0006048
1282	0.0005544
1294	0.0006552
1306	0.0007272
1318	0.0007344
1330	0.0007488
1342	0.0012456
1354	0.0014832
1366	0.0012024
1378	0.0008208
1390	0.000612
1402	0.0004608
1414	0.0005328
1426	0.0007488
1438	0.0017856
1450	0.0040608
1462	0.0043488
1474	0.0022608
1486	0.000864
1498	0.000432
1510	0.000396
1522	0.0002664
1534	0.0001728
1546	0.0001584
1558	0.0001296
1570	4.32e-05
1582	7.2e-05
1594	7.2e-05
1606	7.92e-05
1618	6.48e-05
1630	5.76e-05
1642	4.32e-05
1654	7.92e-05
1666	6.48e-05
1678	7.92e-05
1690	5.76e-05
1702	0.0001008
1714	8.64e-05
1726	3.6e-05
1738	7.2e-05
1750	0.0001224
1762	7.92e-05
1774	5.04e-05
1786	9.36e-05
1798	5.76e-05
1810	3.6e-05
1822	5.76e-05
1834	3.6e-05
1846	4.32e-05
1858	3.6e-05
1870	2.16e-05
1882	7.2e-06
1894	2.88e-05
1906	2.16e-05
1918	2.16e-05
1930	1.44e-05
1942	2.16e-05
1954	0
1966	2.88e-05
1978	2.88e-05
1990	2.88e-05
2002	2.16e-05
2014	3.6e-05
2026	6.48e-05
2038	6.48e-05
2050	3.6e-05
2062	6.48e-05
2074	3.6e-05
2086	5.04e-05
2098	5.76e-05
2110	2.16e-05
2122	3.6e-05
2134	5.76e-05
2146	5.04e-05
2158	7.2e-05
2170	5.04e-05
2182	8.64e-05
2194	6.48e-05
2206	5.76e-05
2218	6.48e-05
2230	7.2e-05
2242	5.76e-05
2254	6.48e-05
2266	5.04e-05
2278	6.48e-05
2290	6.48e-05
2302	8.64e-05
2314	8.64e-05
2326	9.36e-05
2338	7.92e-05
2350	0.0001008
2362	0.0001296
2374	0.0001152
2386	9.36e-05
2398	7.2e-05
2410	8.64e-05
2422	8.64e-05
2434	7.2e-05
2446	7.2e-05
2458	7.92e-05
2470	8.64e-05
2482	8.64e-05
2494	0.0001152
2506	0.0001296
2518	0.0001512
2530	0.000144
2542	0.0002016
2554	0.0002088
2566	0.0002304
2578	0.0002448
2590	0.0002952
2602	0.000324
2614	0.0003816
2626	0.0004392
2638	0.0004824
2650	0.000612
2662	0.0007056
2674	0.00072
2686	0.0006912
2698	0.0006264
2710	0.000576
2722	0.0005904
2734	0.000576
2746	0.0006408
2758	0.0007056
2770	0.000828
2782	0.0010584
2794	0.0014184
2806	0.0017784
2818	0.0024264
2830	0.0036
2842	0.0072216
2854	0.0191376
2866	0.0246456
2878	0.0139752
2890	0.0123984
2902	0.0182376
2914	0.0318024
2926	0.0624816
2938	0.0629352
2950	0.0260352
2962	0.012996
2974	0.0082656
2986	0.0040392
2998	0.002448
3010	0.0016776
3022	0.0012744
3034	0.000972
3046	0.000792
3058	0.000648
3070	0.00054
3082	0.0004824
3094	0.0004032
3106	0.000396
3118	0.0003744
3130	0.0003528
3142	0.0003528
3154	0.0003528
3166	0.000288
3178	0.0002448
3190	0.0002088
3202	0.0002016
3214	0.0002232
3226	0.0001584
3238	0.0001512
3250	0.0001656
3262	0.0001224
3274	0.000144
3286	0.0001008
3298	0.0001296
3310	0.0001152
3322	0.0001296
3334	0.0001152
3346	0.0001512
3358	0.000144
3370	0.000144
3382	0.0001368
3394	0.0001008
3406	0.000108
3418	0.0001152
3430	0.0001152
3442	0.0001296
3454	8.64e-05
3466	9.36e-05
3478	9.36e-05
3490	9.36e-05
3502	0.0001152
3514	7.2e-05
3526	0.000144
3538	9.36e-05
3550	8.64e-05
3562	0.0001224
3574	9.36e-05
3586	0.0001872
3598	7.92e-05
3610	0.0001368
3622	0.0001656
3634	0.000144
3646	0.0001872
3658	0.0001224
3670	0.0001296
3682	0.0001296
3694	9.36e-05
3706	0.0001296
3718	0.0001512
3730	0.000108
3742	0.000144
3754	0.0001656
3766	7.92e-05
3778	0.000108
3790	0.0001584
3802	0.0001152
3814	0.0001368
3826	0.0001008
3838	0.0001152
