Infrared Spectrum: 3,4-Dimethoxyphenylacethydrazide
Formula: C 10 H 14 N 2 O 3
CAS: 60075-23-2
State: gas
Origin: EPA-IR VAPOR PHASE LIBRARY
1/CM	ABSORBANCE
549.8	0.004289
559.445	0.004249
569.09	0.004399
578.734	0.004139
588.379	0.004219
598.024	0.004249
607.669	0.004009
617.313	0.003999
626.958	0.004249
636.603	0.004269
646.248	0.003769
655.893	0.002999
665.537	0.002709
675.182	0.003109
684.827	0.003669
694.472	0.003939
704.116	0.003999
713.761	0.004259
723.406	0.004999
733.051	0.004669
742.695	0.005509
752.34	0.006669
761.985	0.006089
771.63	0.006079
781.275	0.006099
790.919	0.006319
800.564	0.006189
810.209	0.006949
819.854	0.006729
829.498	0.006019
839.143	0.005349
848.788	0.006029
858.433	0.006269
868.078	0.007029
877.722	0.006289
887.367	0.005989
897.012	0.005069
906.657	0.005139
916.301	0.005409
925.946	0.005189
935.591	0.005759
945.236	0.005719
954.88	0.006539
964.525	0.007309
974.17	0.009879
983.815	0.012789
993.46	0.012769
1003.1	0.012469
1012.75	0.016779
1022.39	0.025399
1032.04	0.030069
1041.68	0.021949
1051.33	0.010409
1060.97	0.005139
1070.62	0.003539
1080.26	0.003669
1089.91	0.003519
1099.55	0.004029
1109.2	0.006829
1118.84	0.011959
1128.49	0.018649
1138.13	0.018759
1147.78	0.019699
1157.42	0.017369
1167.07	0.013109
1176.71	0.009989
1186.36	0.010839
1196	0.010239
1205.64	0.012599
1215.29	0.019739
1224.93	0.028289
1234.58	0.033929
1244.22	0.032989
1253.87	0.036419
1263.51	0.053459
1273.16	0.062869
1282.8	0.048419
1292.45	0.032829
1302.09	0.023799
1311.74	0.017779
1321.38	0.012919
1331.03	0.010109
1340.67	0.007969
1350.32	0.006239
1359.96	0.004929
1369.61	0.004249
1379.25	0.004139
1388.9	0.004809
1398.54	0.007249
1408.18	0.013429
1417.83	0.019909
1427.47	0.022709
1437.12	0.029279
1446.76	0.033989
1456.41	0.033689
1466.05	0.032559
1475.7	0.026399
1485.34	0.021939
1494.99	0.029889
1504.63	0.058249
1514.28	0.061779
1523.92	0.025929
1533.57	0.011659
1543.21	0.007199
1552.86	0.005939
1562.5	0.006079
1572.15	0.008439
1581.79	0.010719
1591.44	0.010109
1601.08	0.010379
1610.73	0.011029
1620.37	0.011079
1630.01	0.012199
1639.66	0.012029
1649.3	0.009449
1658.95	0.008159
1668.59	0.008459
1678.24	0.011309
1687.88	0.018889
1697.53	0.037649
1707.17	0.058269
1716.82	0.038899
1726.46	0.026079
1736.11	0.016499
1745.75	0.008199
1755.4	0.004389
1765.04	0.003039
1774.69	0.002389
1784.33	0.001799
1793.98	0.001689
1803.62	0.001579
1813.27	0.001419
1822.91	0.001409
1832.55	0.001379
1842.2	0.001309
1851.84	0.001409
1861.49	0.001479
1871.13	0.001429
1880.78	0.001199
1890.42	0.001289
1900.07	0.0010626
1909.71	0.0010911
1919.36	0.0010744
1929	0.0009945
1938.65	0.001044
1948.29	0.0010583
1957.94	0.0009891
1967.58	0.0011752
1977.23	0.0011162
1986.87	0.001319
1996.52	0.001379
2006.16	0.001539
2015.81	0.001689
2025.45	0.001749
2035.1	0.001769
2044.74	0.001819
2054.38	0.001499
2064.03	0.001519
2073.67	0.001379
2083.32	0.0011558
2092.96	0.0008293
2102.61	0.0008013
2112.25	0.0007385
2121.9	0.0007268
2131.54	0.0007397
2141.19	0.0007184
2150.83	0.000785
2160.48	0.0008299
2170.12	0.0006253
2179.77	0.000813
2189.41	0.0008891
2199.06	0.0008674
2208.7	0.0008992
2218.35	0.0007384
2227.99	0.0008889
2237.64	0.0007652
2247.28	0.0008673
2256.92	0.000931
2266.57	0.0009463
2276.21	0.0008536
2285.86	0.0009121
2295.5	0.0007707
2305.15	0.0007851
2314.79	0.0006259
2324.44	0.0007282
2334.08	0.0006492
2343.73	0.0005478
2353.37	0.0005072
2363.02	0.0007254
2372.66	0.0006105
2382.31	0.0006479
2391.95	0.00058
2401.6	0.0006456
2411.24	0.0006363
2420.89	0.0007232
2430.53	0.0007393
2440.18	0.0007057
2449.82	0.0006229
2459.47	0.0007677
2469.11	0.0007514
2478.75	0.0006813
2488.4	0.0007816
2498.04	0.0008937
2507.69	0.0009625
2517.33	0.0007831
2526.98	0.0010513
2536.62	0.0009769
2546.27	0.0011482
2555.91	0.0010152
2565.56	0.0011505
2575.2	0.0011807
2584.85	0.001229
2594.49	0.0009103
2604.14	0.0010116
2613.78	0.0009671
2623.43	0.0008624
2633.07	0.000905
2642.72	0.0006667
2652.36	0.0007186
2662.01	0.0008245
2671.65	0.0007963
2681.29	0.0008554
2690.94	0.0009634
2700.58	0.0007614
2710.23	0.0009873
2719.87	0.000898
2729.52	0.0007291
2739.16	0.0007976
2748.81	0.0008002
2758.45	0.0008884
2768.1	0.0010441
2777.74	0.001389
2787.39	0.001419
2797.03	0.001689
2806.68	0.002409
2816.32	0.003399
2825.97	0.005569
2835.61	0.009699
2845.26	0.011859
2854.9	0.008099
2864.55	0.006389
2874.19	0.005869
2883.84	0.006039
2893.48	0.006809
2903.12	0.008429
2912.77	0.011089
2922.41	0.013669
2932.06	0.016829
2941.7	0.020909
2951.35	0.019739
2960.99	0.016039
2970.64	0.012439
2980.28	0.010159
2989.93	0.010089
2999.57	0.012959
3009.22	0.013919
3018.86	0.008389
3028.51	0.006249
3038.15	0.005869
3047.8	0.005539
3057.44	0.004969
3067.09	0.004099
3076.73	0.003439
3086.38	0.002499
3096.02	0.002149
3105.67	0.001789
3115.31	0.001209
3124.95	0.001499
3134.6	0.001419
3144.24	0.0010881
3153.89	0.001058
3163.53	0.0008712
3173.18	0.0008581
3182.82	0.0010155
3192.47	0.0010417
3202.11	0.001399
3211.76	0.0009452
3221.4	0.0010081
3231.05	0.0008173
3240.69	0.0009708
3250.34	0.0006476
3259.98	0.0004752
3269.63	0.0005558
3279.27	0.0009392
3288.92	0.0008225
3298.56	0.0008015
3308.21	0.0006792
3317.85	0.0006055
3327.49	0.0009278
3337.14	0.0011654
3346.78	0.0009625
3356.43	0.0006737
3366.07	0.0006097
3375.72	0.000738
3385.36	0.0008694
3395.01	0.001329
3404.65	0.001339
3414.3	0.001839
3423.94	0.002389
3433.59	0.003179
3443.23	0.005369
3452.88	0.006439
3462.52	0.006949
3472.17	0.005969
3481.81	0.004149
3491.46	0.002859
3501.1	0.001799
3510.75	0.0011265
3520.39	0.0005491
3530.04	0.0005087
3539.68	0.0008984
3549.32	0.0004703
3558.97	0.0005703
3568.61	0.0003085
3578.26	0.0004818
3587.9	0.0005221
3597.55	0.0005828
3607.19	0.0003689
3616.84	0.0004836
3626.48	0.0001
3636.13	7.7e-05
3645.77	0.0005085
3655.42	0.0004179
3665.06	0.0001471
3674.71	0.0003008
3684.35	0.0002144
3694	0.000422
3703.64	0.0006124
3713.29	0.0004171
3722.93	0.0001597
3732.58	0.0005565
3742.22	0.0005633
3751.86	0.0003515
3761.51	0.0004344
3771.15	0.0004056
3780.8	0.0004615
3790.44	0.0004484
3800.09	0.000332
3809.73	0.0004604
3819.38	0.0003937
3829.02	0.0006135
3838.67	0.0005671
3848.31	0.0007625
3857.96	0.0004725
3867.6	0.0002895
3877.25	0.0004265
3886.89	0.0007589
3896.54	0.0006439
3906.18	0.0007313
3915.83	0.0006471
3925.47	0.0005604
3935.12	0.00024282
3944.76	0.000367
3954.41	0.00027074
3964.05	0.0004334
3973.69	0.0006324
3983.34	0.0007557
3992.98	0.00023253
