Infrared Spectrum: 17Alpha,21DIHYDROXY PROGESTERONE
Formula: C21 H30 O4
CAS: 601-05-8
State: SOLUTION (7% IN CHCl3)
Class: COBLENTZ
Instrument: PERKIN-ELMER
Sampling: TRANSMISSION
Path length: 0.010 CM CELL
Resolution: 4
Origin: ABBOTT LABORATORIES - WASHBURN
MICROMETERS	TRANSMITTANCE
2.513	0.922
2.54598	0.932
2.57896	0.933
2.61194	0.935
2.64492	0.936
2.6779	0.936
2.71088	0.933
2.74386	0.9034
2.77684	0.835
2.80982	0.7745
2.8428	0.6785
2.87578	0.635
2.90876	0.6459
2.94174	0.6854
2.97472	0.733
3.0077	0.7753
3.04068	0.8233
3.07366	0.8536
3.10664	0.8767
3.13962	0.8869
3.1726	0.89
3.20558	0.888
3.23856	0.8673
3.27154	0.8026
3.30452	0.6484
3.3375	0.5062
3.37048	0.3724
3.40346	0.3825
3.43644	0.484
3.46942	0.562
3.5024	0.7294
3.53538	0.8462
3.56836	0.8927
3.60134	0.9018
3.63432	0.9118
3.6673	0.918
3.70028	0.9229
3.73326	0.9252
3.76624	0.9251
3.79922	0.93
3.8322	0.9331
3.86518	0.935
3.89816	0.936
3.93114	0.936
3.96412	0.932
3.9971	0.932
4.03008	0.92
4.06306	0.912
4.09604	0.917
4.12902	0.923
4.162	0.94
4.19498	0.946
4.22796	0.953
4.26094	0.956
4.29392	0.96
4.3269	0.961
4.35988	0.96
4.39286	0.96
4.42584	0.958
4.45882	0.956
4.4918	0.953
4.52478	0.956
4.55776	0.956
4.59074	0.953
4.62372	0.953
4.6567	0.9579
4.68968	0.96
4.72266	0.9629
4.75564	0.965
4.78862	0.965
4.8216	0.965
4.85458	0.965
4.88756	0.9631
4.92054	0.963
4.95352	0.956
4.9865	0.9548
5.01948	0.9628
5.05246	0.963
5.08544	0.965
5.11842	0.9617
5.1514	0.966
5.18438	0.965
5.21736	0.9636
5.25034	0.9614
5.28332	0.9609
5.3163	0.9581
5.34928	0.9631
5.38226	0.9583
5.41524	0.9517
5.44822	0.9504
5.4812	0.944
5.51418	0.9372
5.54716	0.9313
5.58014	0.9245
5.61312	0.9166
5.64609	0.9068
5.67907	0.8776
5.71205	0.8262
5.74503	0.74
5.77801	0.6292
5.81099	0.3772
5.84397	0.3249
5.87695	0.5135
5.90993	0.4636
5.94291	0.2388
5.97589	0.1166
6.00887	0.1059
6.04185	0.2376
6.07483	0.4424
6.10781	0.6298
6.14079	0.5983
6.17377	0.5467
6.20675	0.7719
6.23973	0.8583
6.27271	0.8837
6.30569	0.8956
6.33867	0.905
6.37165	0.905
6.40463	0.912
6.43761	0.918
6.47059	0.9211
6.50357	0.9225
6.53655	0.9212
6.56953	0.9163
6.60251	0.9128
6.63549	0.8986
6.66847	0.8879
6.70145	0.8735
6.73443	0.835
6.76741	0.7787
6.80039	0.7215
6.83337	0.6726
6.86635	0.6062
6.89933	0.586
6.93231	0.6271
6.96529	0.5698
6.99827	0.6237
7.03125	0.65
7.06423	0.643
7.09721	0.645
7.13019	0.65
7.16317	0.6574
7.19615	0.582
7.22913	0.6061
7.26211	0.6338
7.29509	0.686
7.32807	0.6493
7.36105	0.5971
7.39403	0.6293
7.42701	0.6532
7.45999	0.6812
7.49297	0.6342
7.52595	0.6338
7.55893	0.7317
7.59191	0.751
7.62489	0.7484
7.65787	0.7323
7.69085	0.7012
7.72383	0.6484
7.75681	0.5824
7.78979	0.5264
7.82277	0.4748
7.85575	0.4273
7.88873	0.43
7.92171	0.5156
7.95469	0.5884
7.98767	0.601
8.02065	0.5899
8.05363	0.5246
8.08661	0.4831
8.11959	0.4484
8.15257	0.4461
8.18555	0.4765
8.21853	0.5156
8.25151	0.5344
8.28449	0.5512
8.31747	0.573
8.35045	0.6186
8.38343	0.6209
8.41641	0.5884
8.44939	0.6072
8.48237	0.6743
8.51535	0.7344
8.54833	0.7674
8.58131	0.7837
8.61429	0.794
8.64727	0.7975
8.68025	0.799
8.71323	0.7872
8.74621	0.7571
8.77919	0.7266
8.81217	0.7074
8.84515	0.6407
8.87813	0.588
8.91111	0.617
8.94409	0.63
8.97707	0.63
9.01005	0.6364
9.04303	0.6461
9.07601	0.6451
9.10899	0.5925
9.14197	0.5215
9.17495	0.4985
9.20793	0.5175
9.24091	0.5211
9.27389	0.5157
9.30687	0.5608
9.33985	0.5931
9.37283	0.6154
9.40581	0.648
9.43879	0.6303
9.47177	0.5726
9.50475	0.557
9.53773	0.5827
9.57071	0.604
9.60369	0.5879
9.63667	0.5713
9.66965	0.5885
9.70263	0.6371
9.73561	0.6923
9.76859	0.7286
9.80157	0.7314
9.83455	0.7411
9.86753	0.7762
9.90051	0.7926
9.93349	0.7795
9.96647	0.7291
9.99945	0.694
10.0324	0.7422
10.0654	0.7941
10.0984	0.8234
10.1314	0.842
10.1643	0.8386
10.1973	0.8254
10.2303	0.8108
10.2633	0.8057
10.2963	0.8006
10.3292	0.802
10.3622	0.7918
10.3952	0.777
10.4282	0.782
10.4612	0.7772
10.4941	0.743
10.5271	0.7127
10.5601	0.711
10.5931	0.716
10.6261	0.7008
10.659	0.6771
10.692	0.7227
10.725	0.7562
10.758	0.7619
10.791	0.7463
10.8239	0.7205
10.8569	0.6914
10.8899	0.673
10.9229	0.6988
10.9559	0.7563
10.9888	0.7932
11.0218	0.8148
11.0548	0.803
11.0878	0.7285
11.1208	0.6165
11.1537	0.5997
11.1867	0.6851
11.2197	0.7381
11.2527	0.7479
11.2857	0.729
11.3186	0.673
11.3516	0.658
11.3846	0.6785
11.4176	0.7181
11.4506	0.728
11.4835	0.7033
11.5165	0.6492
11.5495	0.6539
11.5825	0.7151
11.6155	0.758
11.6484	0.7821
11.6814	0.8233
11.7144	0.8497
11.7474	0.8755
11.7804	0.8852
11.8133	0.887
11.8463	0.8827
11.8793	0.8634
11.9123	0.8363
11.9453	0.8331
11.9782	0.8483
12.0112	0.8741
12.0442	0.887
12.0772	0.893
12.1102	0.895
12.1431	0.892
12.1761	0.895
12.2091	0.89
12.2421	0.892
12.2751	0.893
12.308	0.8912
12.341	0.892
12.374	0.8955
12.407	0.8978
12.44	0.8971
12.4729	0.898
12.5059	0.9017
12.5389	0.905
12.5719	0.915
12.6049	0.9162
12.6378	0.922
12.6708	0.925
12.7038	0.925
12.7368	0.9285
12.7698	0.933
12.8027	0.936
12.8357	0.9497
12.8687	0.953
12.9017	0.96
12.9347	0.9643
12.9676	0.9641
13.0006	0.972
13.0336	0.976
13.0666	0.978
13.0996	0.985
13.1325	0.99
13.1655	0.9958
13.1985	1.003
13.2315	0.9974
13.2645	1.003
13.2974	1.003
13.3304	1.008
13.3634	1.009
13.3964	1.008
13.4294	1.0107
13.4623	1.011
13.4953	1.009
13.5283	1.008
13.5613	1.009
13.5943	1.009
13.6272	1.009
13.6602	1.008
13.6932	1.008
13.7262	1.0083
13.7592	1.008
13.7921	1.009
13.8251	1.011
13.8581	1.008
13.8911	1.004
13.9241	1.0046
13.957	1.003
13.99	0.9928
14.023	0.987
14.056	0.9748
14.089	0.9658
14.1219	0.9397
14.1549	0.9269
14.1879	0.9201
14.2209	0.9124
14.2539	0.9022
14.2868	0.8889
14.3198	0.882
14.3528	0.8753
14.3858	0.8664
14.4188	0.8547
14.4517	0.8503
14.4847	0.8541
14.5177	0.857
14.5507	0.857
14.5837	0.8564
14.6166	0.86
14.6496	0.859
14.6826	0.8545
14.7156	0.852
14.7486	0.8497
14.7815	0.847
14.8145	0.847
14.8475	0.845
14.8805	0.8467
14.9135	0.8548
14.9464	0.8576
14.9794	0.854
15.0124	0.857
