Infrared Spectrum: 5Alpha-CHOLEST-1-EN-3-ONE
Formula: C27 H44 O
CAS: 601-55-8
State: SOLID (KBr DISC)
Class: COBLENTZ III
Instrument: BECKMAN IR-7
Sampling: TRANSMISSION
Resolution: 4
Origin: THE WORCESTER FOUNDATION FOR EXPERIMENTAL BIOLOGY
1/CM	TRANSMITTANCE
593.598	1.004
602.135	1.004
610.671	1.003
619.208	1.003
627.744	1.003
636.281	1.003
644.818	1.003
653.354	1.003
661.891	1.001
670.427	1.002
678.964	1
687.501	0.966
696.037	0.95
704.574	0.95
713.11	0.925
721.647	0.896
730.184	0.877
738.72	0.857
747.257	0.833
755.793	0.855
764.33	0.829
772.866	0.567
781.403	0.72
789.94	0.81
798.476	0.833
807.013	0.826
815.549	0.76
824.086	0.785
832.623	0.804
841.159	0.825
849.696	0.828
858.232	0.831
866.769	0.825
875.306	0.807
883.842	0.794
892.379	0.773
900.915	0.751
909.452	0.741
917.989	0.718
926.525	0.701
935.062	0.625
943.598	0.697
952.135	0.71
960.672	0.714
969.208	0.748
977.745	0.748
986.281	0.737
994.818	0.711
1003.35	0.716
1011.89	0.702
1020.43	0.69
1028.96	0.698
1037.5	0.712
1046.04	0.715
1054.57	0.719
1063.11	0.718
1071.65	0.715
1080.18	0.703
1088.72	0.702
1097.26	0.696
1105.79	0.601
1114.33	0.636
1122.87	0.64
1131.4	0.657
1139.94	0.654
1148.48	0.628
1157.01	0.6
1165.55	0.578
1174.09	0.553
1182.62	0.622
1191.16	0.608
1199.7	0.56
1208.23	0.598
1216.77	0.611
1225.31	0.577
1233.84	0.619
1242.38	0.587
1250.92	0.594
1259.45	0.489
1267.99	0.586
1276.53	0.526
1285.06	0.646
1293.6	0.67
1302.14	0.653
1310.67	0.679
1319.21	0.682
1327.75	0.644
1336.28	0.615
1344.82	0.632
1353.35	0.602
1361.89	0.512
1370.43	0.427
1378.96	0.376
1387.5	0.437
1396.04	0.483
1404.57	0.6
1413.11	0.561
1421.65	0.624
1430.18	0.601
1438.72	0.411
1447.26	0.427
1455.79	0.431
1464.33	0.398
1472.87	0.505
1481.4	0.686
1489.94	0.719
1498.48	0.734
1507.01	0.734
1515.55	0.749
1524.09	0.743
1532.62	0.749
1541.16	0.735
1549.7	0.741
1558.23	0.734
1566.77	0.742
1575.31	0.735
1583.84	0.733
1592.38	0.708
1600.92	0.694
1609.45	0.7
1617.99	0.695
1626.53	0.685
1635.06	0.637
1643.6	0.601
1652.14	0.55
1660.67	0.405
1669.21	0.317
1677.75	0.224
1686.28	0.199
1694.82	0.319
1703.36	0.404
1711.89	0.452
1720.43	0.531
1728.96	0.55
1737.5	0.572
1746.04	0.611
1754.57	0.654
1763.11	0.682
1771.65	0.694
1780.18	0.707
1788.72	0.715
1797.26	0.725
1805.79	0.739
1814.33	0.746
1822.87	0.748
1831.4	0.749
1839.94	0.751
1848.48	0.752
1857.01	0.753
1865.55	0.753
1874.09	0.753
1882.62	0.753
1891.16	0.753
1899.7	0.753
1908.23	0.753
1916.77	0.753
1925.31	0.753
1933.84	0.751
1942.38	0.75
1950.92	0.744
1959.45	0.745
1967.99	0.748
1976.53	0.748
1985.06	0.749
1993.6	0.75
2002.14	0.751
2010.67	0.7502
2019.21	0.75
2027.75	0.749
2036.28	0.749
2044.82	0.748
2053.36	0.748
2061.89	0.747
2070.43	0.746
2078.97	0.746
2087.5	0.7459
2096.04	0.745
2104.58	0.745
2113.11	0.745
2121.65	0.745
2130.18	0.7438
2138.72	0.743
2147.26	0.7427
2155.79	0.7417
2164.33	0.7407
2172.87	0.7396
2181.4	0.7386
2189.94	0.736
2198.48	0.7345
2207.01	0.7325
2215.55	0.7305
2224.09	0.7285
2232.62	0.727
2241.16	0.7244
2249.7	0.723
2258.23	0.722
2266.77	0.721
2275.31	0.7193
2283.84	0.719
2292.38	0.7172
2300.92	0.7162
2309.45	0.7141
2317.99	0.714
2326.53	0.7111
2335.06	0.7081
2343.6	0.705
2352.14	0.7
2360.67	0.698
2369.21	0.6949
2377.75	0.6941
2386.28	0.6992
2394.82	0.7022
2403.36	0.704
2411.89	0.704
2420.43	0.703
2428.97	0.702
2437.5	0.702
2446.04	0.7
2454.58	0.6996
2463.11	0.698
2471.65	0.6976
2480.19	0.696
2488.72	0.695
2497.26	0.694
2505.8	0.693
2514.33	0.692
2522.87	0.6904
2531.4	0.6894
2539.94	0.688
2548.48	0.6863
2557.01	0.6833
2565.55	0.6792
2574.09	0.6772
2582.62	0.6752
2591.16	0.6713
2599.7	0.6661
2608.23	0.6642
2616.77	0.6631
2625.31	0.662
2633.84	0.661
2642.38	0.6569
2650.92	0.654
2659.45	0.6539
2667.99	0.6529
2676.53	0.6518
2685.06	0.65
2693.6	0.649
2702.14	0.6455
2710.67	0.6414
2719.21	0.6341
2727.75	0.63
2736.28	0.6286
2744.82	0.627
2753.36	0.625
2761.89	0.623
2770.43	0.6205
2778.97	0.6134
2787.5	0.6028
2796.04	0.59
2804.58	0.5504
2813.11	0.5285
2821.65	0.4786
2830.19	0.3454
2838.72	0.2275
2847.26	0.1959
2855.8	0.1908
2864.33	0.176
2872.87	0.2096
2881.41	0.2102
2889.94	0.1808
2898.48	0.1496
2907.01	0.1141
2915.55	0.089
2924.09	0.081
2932.62	0.0831
2941.16	0.0862
2949.7	0.0987
2958.23	0.1588
2966.77	0.206
2975.31	0.2634
2983.84	0.3199
2992.38	0.3901
3000.92	0.4432
3009.45	0.4792
3017.99	0.4908
3026.53	0.4585
3035.06	0.4707
3043.6	0.5107
3052.14	0.538
3060.67	0.5476
3069.21	0.55
3077.75	0.5516
3086.28	0.5526
3094.82	0.553
3103.36	0.553
3111.89	0.553
3120.43	0.553
3128.97	0.5522
3137.5	0.552
3146.04	0.551
3154.58	0.5519
3163.11	0.5501
3171.65	0.55
3180.19	0.55
3188.72	0.549
3197.26	0.549
3205.8	0.55
3214.33	0.55
3222.87	0.55
3231.41	0.55
3239.94	0.55
3248.48	0.55
3257.02	0.549
3265.55	0.5487
3274.09	0.5471
3282.63	0.5387
3291.16	0.537
3299.7	0.536
3308.23	0.5352
3316.77	0.5321
3325.31	0.53
3333.84	0.5285
3342.38	0.528
3350.92	0.527
3359.45	0.527
3367.99	0.526
3376.53	0.526
3385.06	0.526
3393.6	0.524
3402.14	0.5233
3410.67	0.523
3419.21	0.5238
3427.75	0.524
3436.28	0.524
3444.82	0.526
3453.36	0.5279
3461.89	0.528
3470.43	0.528
3478.97	0.531
3487.5	0.5321
3496.04	0.5353
3504.58	0.5406
3513.11	0.5471
3521.65	0.5482
3530.19	0.55
3538.72	0.551
3547.26	0.553
3555.8	0.5563
3564.33	0.565
3572.87	0.572
3581.41	0.574
3589.94	0.5754
3598.48	0.577
3607.02	0.5795
3615.55	0.5825
3624.09	0.5845
3632.63	0.5866
3641.16	0.588
3649.7	0.5886
3658.24	0.589
3666.77	0.5907
3675.31	0.591
3683.84	0.592
3692.38	0.592
3700.92	0.591
3709.45	0.5892
3717.99	0.589
3726.53	0.587
3735.06	0.5851
3743.6	0.581
3752.14	0.576
3760.67	0.583
3769.21	0.5851
3777.75	0.585
3786.28	0.5841
3794.82	0.585
3803.36	0.585
3811.89	0.5848
3820.43	0.584
3828.97	0.5837
3837.5	0.5827
3846.04	0.5803
3854.58	0.5776
3863.11	0.576
3871.65	0.576
3880.19	0.577
3888.72	0.577
3897.26	0.576
3905.8	0.576
3914.33	0.5754
3922.87	0.574
3931.41	0.5736
3939.94	0.575
3948.48	0.5757
3957.02	0.575
3965.55	0.5742
3974.09	0.572
3982.63	0.574
3991.16	0.573
3999.7	0.572
