Infrared Spectrum: (1-METHYLBUTYL) GLYCINE
Formula: C7 H15 N O2
CAS: 60182-96-9
State: SOLID (KBr PELLET)
Class: COBLENTZ
Instrument: PERKIN-ELMER
Sampling: TRANSMISSION
Resolution: 4
Origin: ABBOTT LABORATORIES - WASHBURN
MICROMETERS	TRANSMITTANCE
2.035	0.82
2.0687	0.823
2.10239	0.8196
2.13609	0.8197
2.16978	0.8101
2.20348	0.8079
2.23717	0.813
2.27087	0.811
2.30456	0.8031
2.33826	0.8028
2.37195	0.8
2.40565	0.7999
2.43934	0.8012
2.47304	0.813
2.50673	0.816
2.54043	0.8199
2.57412	0.816
2.60782	0.808
2.64151	0.8181
2.67521	0.8014
2.7089	0.798
2.7426	0.7861
2.77629	0.7568
2.80999	0.7238
2.84368	0.7002
2.87738	0.6822
2.91107	0.665
2.94477	0.675
2.97846	0.6698
3.01216	0.6297
3.04585	0.5892
3.07955	0.5244
3.11324	0.4175
3.14694	0.3625
3.18063	0.3006
3.21433	0.2733
3.24802	0.262
3.28172	0.24
3.31541	0.2146
3.34911	0.147
3.3828	0.147
3.4165	0.1909
3.45019	0.2002
3.48389	0.2552
3.51758	0.2985
3.55128	0.3218
3.58497	0.337
3.61867	0.344
3.65236	0.3521
3.68606	0.3592
3.71975	0.3759
3.75345	0.3928
3.78714	0.3858
3.82084	0.356
3.85453	0.3494
3.88823	0.3665
3.92192	0.396
3.95562	0.4209
3.98931	0.4472
4.02301	0.4783
4.0567	0.5117
4.0904	0.5258
4.12409	0.539
4.15779	0.563
4.19148	0.6035
4.22518	0.6211
4.25887	0.631
4.29257	0.6449
4.32626	0.6631
4.35996	0.677
4.39365	0.682
4.42735	0.6819
4.46104	0.68
4.49474	0.68
4.52843	0.6719
4.56213	0.6518
4.59582	0.6311
4.62952	0.625
4.66321	0.6361
4.69691	0.6552
4.7306	0.6786
4.7643	0.7091
4.79799	0.727
4.83169	0.739
4.86538	0.7511
4.89908	0.763
4.93277	0.771
4.96647	0.7759
5.00016	0.776
5.03386	0.7809
5.06755	0.786
5.10125	0.788
5.13494	0.793
5.16864	0.794
5.20233	0.7936
5.23603	0.798
5.26972	0.798
5.30342	0.794
5.33711	0.7905
5.37081	0.7916
5.4045	0.7927
5.4382	0.7878
5.47189	0.779
5.50559	0.781
5.53928	0.7732
5.57298	0.7632
5.60667	0.759
5.64037	0.7414
5.67406	0.732
5.70776	0.7106
5.74145	0.698
5.77515	0.6755
5.80884	0.6615
5.84254	0.6496
5.87623	0.6078
5.90993	0.5783
5.94362	0.5024
5.97732	0.4244
6.01101	0.3623
6.04471	0.2779
6.0784	0.219
6.1121	0.1501
6.14579	0.1379
6.17949	0.1282
6.21318	0.0917
6.24688	0.0334
6.28057	0.0614
6.31427	0.1645
6.34796	0.2506
6.38166	0.304
6.41535	0.3408
6.44905	0.3689
6.48274	0.3482
6.51644	0.2819
6.55013	0.2091
6.58383	0.122
6.61752	0.083
6.65122	0.023
6.68491	0.0404
6.71861	0.1654
6.7523	0.2273
6.786	0.253
6.81969	0.2438
6.85339	0.3013
6.88708	0.3476
6.92078	0.4025
6.95447	0.428
6.98817	0.3992
7.02186	0.2809
7.05556	0.1833
7.08925	0.159
7.12295	0.2032
7.15664	0.2642
7.19034	0.321
7.22403	0.3572
7.25773	0.3953
7.29142	0.3977
7.32512	0.3417
7.35881	0.2673
7.39251	0.3256
7.4262	0.3637
7.4599	0.3717
7.49359	0.3533
7.52729	0.264
7.56098	0.1721
7.59468	0.3074
7.62837	0.3759
7.66207	0.4696
7.69576	0.4784
7.72946	0.4662
7.76315	0.5118
7.79685	0.5355
7.83054	0.5267
7.86424	0.5502
7.89793	0.5446
7.93163	0.4972
7.96532	0.495
7.99902	0.5662
8.03271	0.584
8.06641	0.5784
8.1001	0.6038
8.1338	0.6333
8.16749	0.6554
8.20119	0.675
8.23488	0.6838
8.26858	0.6917
8.30227	0.6924
8.33597	0.692
8.36966	0.6855
8.40336	0.6522
8.43705	0.6271
8.47075	0.611
8.50444	0.625
8.53814	0.6493
8.57183	0.6625
8.60553	0.667
8.63922	0.6683
8.67292	0.673
8.70661	0.67
8.74031	0.6553
8.774	0.6322
8.8077	0.5862
8.84139	0.5487
8.87509	0.5416
8.90878	0.5763
8.94248	0.5995
8.97617	0.62
9.00987	0.628
9.04356	0.631
9.07726	0.6433
9.11095	0.65
9.14465	0.6628
9.17834	0.6669
9.21204	0.668
9.24573	0.6578
9.27943	0.644
9.31312	0.663
9.34682	0.6706
9.38051	0.679
9.41421	0.687
9.4479	0.689
9.4816	0.6892
9.51529	0.7048
9.54899	0.7
9.58268	0.6894
9.61638	0.67
9.65007	0.667
9.68377	0.6772
9.71746	0.6815
9.75116	0.6914
9.78485	0.6981
9.81855	0.7045
9.85224	0.6949
9.88594	0.675
9.91963	0.6836
9.95333	0.6993
9.98702	0.7042
10.0207	0.707
10.0544	0.7189
10.0881	0.7339
10.1218	0.7467
10.1555	0.7582
10.1892	0.7621
10.2229	0.7679
10.2566	0.776
10.2903	0.788
10.324	0.7869
10.3577	0.791
10.3914	0.7855
10.4251	0.7733
10.4588	0.7569
10.4924	0.746
10.5261	0.742
10.5598	0.7556
10.5935	0.757
10.6272	0.7528
10.6609	0.7455
10.6946	0.757
10.7283	0.776
10.762	0.782
10.7957	0.793
10.8294	0.7833
10.8631	0.7823
10.8968	0.7604
10.9305	0.74
10.9642	0.7036
10.9979	0.665
11.0316	0.6333
11.0653	0.6406
11.099	0.6602
11.1327	0.6713
11.1663	0.6871
11.2	0.7273
11.2337	0.7414
11.2674	0.752
11.3011	0.7547
11.3348	0.7567
11.3685	0.754
11.4022	0.746
11.4359	0.734
11.4696	0.727
11.5033	0.729
11.537	0.722
11.5707	0.721
11.6044	0.7248
11.6381	0.712
11.6718	0.706
11.7055	0.7234
11.7392	0.7519
11.7729	0.7638
11.8066	0.774
11.8403	0.7814
11.8739	0.7842
11.9076	0.786
11.9413	0.7743
11.975	0.759
12.0087	0.752
12.0424	0.7623
12.0761	0.7621
12.1098	0.757
12.1435	0.7437
12.1772	0.7212
12.2109	0.7057
12.2446	0.7233
12.2783	0.7521
12.312	0.7741
12.3457	0.778
12.3794	0.781
12.4131	0.7694
12.4468	0.749
12.4805	0.7057
12.5142	0.6868
12.5478	0.6676
12.5815	0.623
12.6152	0.6038
12.6489	0.6559
12.6826	0.6951
12.7163	0.7221
12.75	0.7391
12.7837	0.746
12.8174	0.746
12.8511	0.746
12.8848	0.7324
12.9185	0.7109
12.9522	0.6937
12.9859	0.6783
13.0196	0.6787
13.0533	0.706
13.087	0.7367
13.1207	0.7498
13.1544	0.7632
13.1881	0.7682
13.2217	0.7693
13.2554	0.7758
13.2891	0.7612
13.3228	0.7562
13.3565	0.7512
13.3902	0.7275
13.4239	0.711
13.4576	0.6934
13.4913	0.6695
13.525	0.6503
13.5587	0.645
13.5924	0.673
13.6261	0.6942
13.6598	0.7091
13.6935	0.7049
13.7272	0.6939
13.7609	0.658
13.7946	0.6024
13.8283	0.5576
13.862	0.5363
13.8956	0.5567
13.9293	0.5982
13.963	0.628
13.9967	0.6556
14.0304	0.672
14.0641	0.6736
14.0978	0.6825
14.1315	0.6836
14.1652	0.678
14.1989	0.6682
14.2326	0.658
14.2663	0.6427
14.3	0.6285
14.3337	0.6141
14.3674	0.6018
14.4011	0.5969
14.4348	0.593
14.4685	0.5958
14.5022	0.6017
14.5359	0.6039
14.5695	0.598
14.6032	0.5907
14.6369	0.586
14.6706	0.5812
14.7043	0.581
14.738	0.5884
14.7717	0.5904
14.8054	0.6007
14.8391	0.611
14.8728	0.6105
14.9065	0.618
14.9402	0.6288
14.9739	0.64
15.0076	0.6155
15.0413	0.6201
15.075	0.6252
15.1087	0.628
15.1424	0.6261
15.1761	0.6309
15.2098	0.6253
15.2434	0.62
15.2771	0.6224
15.3108	0.616
15.3445	0.6156
15.3782	0.616
15.4119	0.6153
