Infrared Spectrum: 5-NITROACENAPHTHENE
Formula: C12 H9 O2 N
CAS: 602-87-9
Melting point: 102 C
Class: COBLENTZ
Instrument: Not specified, most likely a prism, grating, or hybrid spectrometer.
Sampling: TRANSMISSION
Resolution: 4
Origin: PROF. T. URBANSKI, INSTITUTE OF TECHNOLOGY, WARSZAWA, POLAND
1/CM	TRANSMITTANCE
1005.74	0.929
1011.48	0.929
1017.22	0.926
1022.97	0.923
1028.71	0.92
1034.45	0.915
1040.19	0.899
1045.94	0.87
1051.68	0.84
1057.42	0.863
1063.16	0.915
1068.91	0.915
1074.65	0.913
1080.39	0.912
1086.13	0.913
1091.88	0.915
1097.62	0.911
1103.36	0.835
1109.1	0.786
1114.85	0.896
1120.59	0.895
1126.33	0.883
1132.07	0.86
1137.82	0.883
1143.56	0.873
1149.3	0.8
1155.04	0.76
1160.79	0.848
1166.53	0.843
1172.27	0.821
1178.01	0.724
1183.76	0.663
1189.5	0.775
1195.24	0.792
1200.98	0.684
1206.73	0.785
1212.47	0.807
1218.21	0.759
1223.95	0.768
1229.69	0.783
1235.44	0.796
1241.18	0.809
1246.92	0.805
1252.66	0.786
1258.41	0.738
1264.15	0.719
1269.89	0.676
1275.63	0.545
1281.38	0.464
1287.12	0.531
1292.86	0.649
1298.6	0.657
1304.35	0.493
1310.09	0.416
1315.83	0.298
1321.57	0.189
1327.32	0.1
1333.06	0.081
1338.8	0.18
1344.54	0.355
1350.29	0.503
1356.03	0.636
1361.77	0.677
1367.51	0.693
1373.26	0.707
1379	0.692
1384.74	0.622
1390.48	0.679
1396.23	0.763
1401.97	0.738
1407.71	0.735
1413.45	0.76
1419.19	0.701
1424.94	0.49
1430.68	0.573
1436.42	0.631
1442.16	0.581
1447.91	0.506
1453.65	0.448
1459.39	0.396
1465.13	0.359
1470.88	0.424
1476.62	0.563
1482.36	0.595
1488.1	0.586
1493.85	0.495
1499.59	0.377
1505.33	0.282
1511.07	0.212
1516.82	0.253
1522.56	0.431
1528.3	0.573
1534.04	0.731
1539.79	0.837
1545.53	0.861
1551.27	0.879
1557.01	0.883
1562.76	0.873
1568.5	0.875
1574.24	0.864
1579.98	0.83
1585.73	0.71
1591.47	0.59
1597.21	0.52
1602.95	0.594
1608.7	0.765
1614.44	0.814
1620.18	0.65
1625.92	0.571
1631.66	0.746
1637.41	0.931
1643.15	0.998
1648.89	0.996
1654.63	0.992
1660.38	0.988
1666.12	0.981
1671.86	0.972
1677.6	0.965
1683.35	0.964
1689.09	0.961
1694.83	0.955
1700.57	0.942
1706.32	0.939
1712.06	0.944
1717.8	0.946
1723.54	0.944
1729.29	0.943
1735.03	0.943
1740.77	0.944
1746.51	0.945
1752.26	0.945
1758	0.945
1763.74	0.945
1769.48	0.944
1775.23	0.942
1780.97	0.938
1786.71	0.931
1792.45	0.922
1798.2	0.912
1803.94	0.909
1809.68	0.913
1815.42	0.92
1821.16	0.928
1826.91	0.928
1832.65	0.926
1838.39	0.925
1844.13	0.923
1849.88	0.921
1855.62	0.918
1861.36	0.913
1867.1	0.906
1872.85	0.902
1878.59	0.901
1884.33	0.899
1890.07	0.897
1895.82	0.894
1901.56	0.889
1907.3	0.886
1913.04	0.883
1918.79	0.883
1924.53	0.886
1930.27	0.888
1936.01	0.889
1941.76	0.888
1947.5	0.886
1953.24	0.885
1958.98	0.885
1964.73	0.891
1970.47	0.899
1976.21	0.897
1981.95	0.896
1987.7	0.895
1993.44	0.893
1999.18	0.892
2004.92	0.89
2010.67	0.889
2016.41	0.888
2022.15	0.886
2027.89	0.884
2033.63	0.882
2039.38	0.881
2045.12	0.88
2050.86	0.877
2056.6	0.875
2062.35	0.874
2068.09	0.871
2073.83	0.87
2079.57	0.868
2085.32	0.866
2091.06	0.864
2096.8	0.862
2102.54	0.861
2108.29	0.859
2114.03	0.857
2119.77	0.855
2125.51	0.853
2131.26	0.852
2137	0.85
2142.74	0.848
2148.48	0.846
2154.23	0.845
2159.97	0.843
2165.71	0.842
2171.45	0.84
2177.2	0.838
2182.94	0.837
2188.68	0.836
2194.42	0.835
2200.17	0.834
2205.91	0.832
2211.65	0.83
2217.39	0.829
2223.13	0.827
2228.88	0.826
2234.62	0.824
2240.36	0.822
2246.1	0.821
2251.85	0.819
2257.59	0.818
2263.33	0.816
2269.07	0.815
2274.82	0.814
2280.56	0.812
2286.3	0.81
2292.04	0.807
2297.79	0.804
2303.53	0.796
2309.27	0.781
2315.01	0.762
2320.76	0.748
2326.5	0.739
2332.24	0.732
2337.98	0.727
2343.73	0.725
2349.47	0.724
2355.21	0.725
2360.95	0.73
2366.7	0.742
2372.44	0.749
2378.18	0.759
2383.92	0.769
2389.67	0.775
2395.41	0.776
2401.15	0.776
2406.89	0.774
2412.64	0.773
2418.38	0.773
2424.12	0.772
2429.86	0.771
2435.6	0.771
2441.35	0.772
2447.09	0.773
2452.83	0.772
2458.57	0.771
2464.32	0.771
2470.06	0.77
2475.8	0.768
2481.54	0.767
2487.29	0.767
2493.03	0.765
2498.77	0.762
2504.51	0.76
2510.26	0.758
2516	0.755
2521.74	0.754
2527.48	0.752
2533.23	0.75
2538.97	0.748
2544.71	0.746
2550.45	0.744
2556.2	0.742
2561.94	0.74
2567.68	0.738
2573.42	0.735
2579.17	0.732
2584.91	0.73
2590.65	0.728
2596.39	0.725
2602.14	0.723
2607.88	0.72
2613.62	0.717
2619.36	0.716
2625.1	0.713
2630.85	0.712
2636.59	0.71
2642.33	0.709
2648.07	0.708
2653.82	0.706
2659.56	0.704
2665.3	0.703
2671.04	0.701
2676.79	0.7
2682.53	0.698
2688.27	0.696
2694.01	0.695
2699.76	0.693
2705.5	0.692
2711.24	0.691
2716.98	0.69
2722.73	0.689
2728.47	0.688
2734.21	0.687
2739.95	0.687
2745.7	0.687
2751.44	0.687
2757.18	0.687
2762.92	0.687
2768.67	0.687
2774.41	0.686
2780.15	0.684
2785.89	0.681
2791.64	0.677
2797.38	0.669
2803.12	0.659
2808.86	0.648
2814.61	0.634
2820.35	0.616
2826.09	0.596
2831.83	0.576
2837.57	0.549
2843.32	0.475
2849.06	0.396
2854.8	0.322
2860.54	0.251
2866.29	0.189
2872.03	0.184
2877.77	0.194
2883.51	0.206
2889.26	0.209
2895	0.199
2900.74	0.18
2906.48	0.161
2912.23	0.141
2917.97	0.12
2923.71	0.1
2929.45	0.092
2935.2	0.089
2940.94	0.091
2946.68	0.094
2952.42	0.097
2958.17	0.103
2963.91	0.122
2969.65	0.145
2975.39	0.183
2981.14	0.231
2986.88	0.268
2992.62	0.309
2998.36	0.345
3004.11	0.391
3009.85	0.42
3015.59	0.457
3021.33	0.472
3027.07	0.484
3032.82	0.492
3038.56	0.5
3044.3	0.504
3050.04	0.508
3055.79	0.51
3061.53	0.513
3067.27	0.516
3073.01	0.517
3078.76	0.518
3084.5	0.518
3090.24	0.519
3095.98	0.522
3101.73	0.525
3107.47	0.531
3113.21	0.538
3118.95	0.545
3124.7	0.551
3130.44	0.553
3136.18	0.553
3141.92	0.554
3147.67	0.555
3153.41	0.555
3159.15	0.555
3164.89	0.555
3170.64	0.554
3176.38	0.553
3182.12	0.553
3187.86	0.553
3193.61	0.553
3199.35	0.553
3205.09	0.553
3210.83	0.553
3216.58	0.553
3222.32	0.553
3228.06	0.553
3233.8	0.552
3239.54	0.551
3245.29	0.551
3251.03	0.55
