Infrared Spectrum: 1,1'-Bi-2-naphthol
Formula: C 20 H 14 O 2
CAS: 602-09-5
State: gas
Instrument: HP-GC/MS/IRD
Origin: NIST Mass Spectrometry Data Center
1/CM	ABSORBANCE
550	0.0005428
562	0.0022954
574	0.0026266
586	0.0013248
598	6.9e-05
610	5.98e-05
622	0.000851
634	0.0004094
646	0.000207
658	0.001472
670	0.0031832
682	0.0008418
694	0.000414
706	0.0005612
718	0.001679
730	0.0030498
742	0.0167946
754	0.0050968
766	0.0018078
778	0.002162
790	0.001748
802	0.004853
814	0.0201664
826	0.0062698
838	0.0013018
850	0.0014674
862	0.0020838
874	0.0006624
886	0.0004462
898	0.0002346
910	0.0002392
922	0.0014582
934	0.0032384
946	0.0012282
958	0.0033902
970	0.003151
982	0.0021942
994	0.000828
1006	0.00069
1018	0.0009752
1030	0.0010258
1042	0.0002162
1054	0.0003036
1066	0.0006762
1078	0.0006716
1090	0.0007682
1102	0.001058
1114	0.0030038
1126	0.009177
1138	0.0130686
1150	0.0148626
1162	0.010235
1174	0.0098578
1186	0.0217994
1198	0.0199548
1210	0.018607
1222	0.016353
1234	0.0050922
1246	0.0053682
1258	0.005313
1270	0.0054464
1282	0.0040986
1294	0.0031924
1306	0.0058144
1318	0.0077556
1330	0.004968
1342	0.0105248
1354	0.0083628
1366	0.0071162
1378	0.0127098
1390	0.0092644
1402	0.0039468
1414	0.0013938
1426	0.001564
1438	0.0044436
1450	0.0039238
1462	0.0095542
1474	0.006716
1486	0.0035282
1498	0.006141
1510	0.0109434
1522	0.0078154
1534	0.0012512
1546	0.0009384
1558	0.0017066
1570	0.0031372
1582	0.0070886
1594	0.0151754
1606	0.011868
1618	0.013777
1630	0.006256
1642	0.0020792
1654	0.001334
1666	0.0008832
1678	0.0010672
1690	0.0010626
1702	0.0008142
1714	0.0004738
1726	0.0003864
1738	0.0004094
1750	0.0008878
1762	0.0009476
1774	0.000437
1786	0.000391
1798	0.0006026
1810	0.000644
1822	0.0007084
1834	0.0005842
1846	0.0001334
1858	0.000115
1870	0.0002346
1882	0.0006118
1894	0.0011086
1906	0.0012282
1918	0.001058
1930	0.000713
1942	0.0009338
1954	0.0002714
1966	6.9e-05
1978	9.2e-06
1990	1.38e-05
2002	2.76e-05
2014	1.84e-05
2026	4.6e-05
2038	5.98e-05
2050	0.0001288
2062	8.74e-05
2074	9.66e-05
2086	7.82e-05
2098	9.2e-05
2110	8.74e-05
2122	0.0001196
2134	9.2e-05
2146	7.36e-05
2158	8.28e-05
2170	0.0001012
2182	9.2e-05
2194	6.44e-05
2206	3.22e-05
2218	2.3e-05
2230	9.2e-06
2242	5.52e-05
2254	5.52e-05
2266	6.44e-05
2278	0.000115
2290	0.0001196
2302	9.2e-05
2314	0.0001334
2326	0.0001196
2338	0.0001794
2350	0.0001794
2362	0.0001196
2374	7.82e-05
2386	5.06e-05
2398	8.28e-05
2410	0.0001426
2422	0.0001518
2434	0.0001288
2446	9.2e-05
2458	0.0001242
2470	0.000138
2482	0.000184
2494	0.00023
2506	0.000207
2518	0.0002024
2530	0.0002392
2542	0.000207
2554	0.0002254
2566	0.0001932
2578	0.0001702
2590	0.0001518
2602	0.0001196
2614	8.28e-05
2626	6.9e-05
2638	4.14e-05
2650	8.28e-05
2662	4.14e-05
2674	1.84e-05
2686	7.36e-05
2698	2.76e-05
2710	5.52e-05
2722	6.9e-05
2734	9.2e-05
2746	6.9e-05
2758	7.36e-05
2770	4.14e-05
2782	8.74e-05
2794	0.0001334
2806	0.0001242
2818	6.44e-05
2830	3.68e-05
2842	2.3e-05
2854	7.82e-05
2866	7.36e-05
2878	6.9e-05
2890	0.0001104
2902	0.0001426
2914	0.0001702
2926	0.0002162
2938	0.0003174
2950	0.0005474
2962	0.0006486
2974	0.0006118
2986	0.0006348
2998	0.0009798
3010	0.0019228
3022	0.0026726
3034	0.0032706
3046	0.0054832
3058	0.010994
3070	0.01656
3082	0.0062146
3094	0.0028014
3106	0.0015778
3118	0.0007728
3130	0.0003864
3142	0.0001932
3154	0.0001702
3166	0.0001104
3178	0.00023
3190	0.0002944
3202	0.0002806
3214	0.0001748
3226	0.0001564
3238	0.0001058
3250	0.0001472
3262	7.82e-05
3274	8.74e-05
3286	5.98e-05
3298	2.3e-05
3310	3.22e-05
3322	2.3e-05
3334	9.66e-05
3346	3.68e-05
3358	0.0001242
3370	0.0001748
3382	8.74e-05
3394	0.0001426
3406	0.0001426
3418	8.74e-05
3430	0.0001104
3442	0.0001794
3454	0.0001886
3466	0.000138
3478	0.0001794
3490	0.0002944
3502	0.0006532
3514	0.0006026
3526	0.000782
3538	0.001679
3550	0.0071162
3562	0.046
3574	0.0124016
3586	0.003565
3598	0.0009568
3610	0.0006072
3622	0.0005474
3634	0.0006118
3646	0.00184
3658	0.000759
3670	0.0002346
3682	0.0001288
3694	9.2e-05
3706	0.0001196
3718	0.0001242
3730	0.0001472
3742	0.0002162
3754	0.0002438
3766	0.0001748
3778	0.0002116
3790	0.0002116
3802	0.0001564
3814	0.0001288
3826	0.0001012
3838	0.0001472
