Infrared Spectrum: Pentafluorobenzoic acid
Formula: C 7 H F 5 O 2
CAS: 602-94-8
State: gas
Origin: EPA-IR VAPOR PHASE LIBRARY
1/CM	ABSORBANCE
549.8	0.019795
559.445	0.011975
569.09	0.00820496
578.734	0.00858496
588.379	0.00541496
598.024	0.00333496
607.669	0.00322496
617.313	0.00608496
626.958	0.00962496
636.603	0.016385
646.248	0.021765
655.893	0.057295
665.537	0.080135
675.182	0.023185
684.827	0.011275
694.472	0.011095
704.116	0.00996496
713.761	0.00907496
723.406	0.00715496
733.051	0.00271496
742.695	0.00215496
752.34	0.00289496
761.985	0.00339496
771.63	0.00238496
781.275	0.00204496
790.919	0.00219496
800.564	0.00274496
810.209	0.00559496
819.854	0.00758496
829.498	0.00732496
839.143	0.00719496
848.788	0.00459496
858.433	0.00272496
868.078	0.00257496
877.722	0.00377496
887.367	0.011375
897.012	0.036645
906.657	0.028915
916.301	0.00533496
925.946	0.00624496
935.591	0.011165
945.236	0.018565
954.88	0.024085
964.525	0.019925
974.17	0.017115
983.815	0.029305
993.46	0.078275
1003.1	0.131075
1012.75	0.089285
1022.39	0.036095
1032.04	0.016385
1041.68	0.00925496
1051.33	0.00835496
1060.97	0.014065
1070.62	0.031085
1080.26	0.035715
1089.91	0.030835
1099.55	0.032055
1109.2	0.018115
1118.84	0.018445
1128.49	0.030545
1138.13	0.060295
1147.78	0.108705
1157.42	0.118585
1167.07	0.090025
1176.71	0.075615
1186.36	0.049185
1196	0.026135
1205.64	0.016275
1215.29	0.013395
1224.93	0.011955
1234.58	0.011605
1244.22	0.010415
1253.87	0.00990496
1263.51	0.00916496
1273.16	0.00911496
1282.8	0.010285
1292.45	0.00821496
1302.09	0.00686496
1311.74	0.00878496
1321.38	0.014585
1331.03	0.030615
1340.67	0.045885
1350.32	0.051405
1359.96	0.046935
1369.61	0.038235
1379.25	0.031125
1388.9	0.013685
1398.54	0.00874496
1408.18	0.013185
1417.83	0.027275
1427.47	0.033525
1437.12	0.017375
1446.76	0.00956496
1456.41	0.00932496
1466.05	0.012495
1475.7	0.029155
1485.34	0.096325
1494.99	0.209815
1504.63	0.255845
1514.28	0.207945
1523.92	0.171905
1533.57	0.114275
1543.21	0.056145
1552.86	0.014825
1562.5	0.00862496
1572.15	0.00626496
1581.79	0.00540496
1591.44	0.00607496
1601.08	0.00734496
1610.73	0.00777496
1620.37	0.00982496
1630.01	0.017335
1639.66	0.034735
1649.3	0.037465
1658.95	0.017705
1668.59	0.00758496
1678.24	0.00486496
1687.88	0.00409496
1697.53	0.00442496
1707.17	0.00480496
1716.82	0.00590496
1726.46	0.00928496
1736.11	0.016765
1745.75	0.027085
1755.4	0.037565
1765.04	0.064445
1774.69	0.145475
1784.33	0.135965
1793.98	0.066115
1803.62	0.048235
1813.27	0.027535
1822.91	0.013855
1832.55	0.00721496
1842.2	0.00437496
1851.84	0.00393496
1861.49	0.00317496
1871.13	0.00190496
1880.78	0.00151496
1890.42	0.00135496
1900.07	0.00116496
1909.71	0.00094046
1919.36	0.00091466
1929	0.00091436
1938.65	0.00064376
1948.29	0.00065136
1957.94	0.00070866
1967.58	0.00064956
1977.23	0.00075536
1986.87	0.00090866
1996.52	0.00096846
2006.16	0.00096036
2015.81	0.00089376
2025.45	0.00084686
2035.1	0.00081566
2044.74	0.00114496
2054.38	0.00124496
2064.03	0.00111496
2073.67	0.00123496
2083.32	0.00117496
2092.96	0.00105496
2102.61	0.00089426
2112.25	0.00070116
2121.9	0.00051516
2131.54	0.00043456
2141.19	0.00070976
2150.83	0.00079486
2160.48	0.00084446
2170.12	0.00062546
2179.77	0.00050456
2189.41	0.00059486
2199.06	0.00069456
2208.7	0.00078366
2218.35	0.00101496
2227.99	0.00110496
2237.64	0.00124496
2247.28	0.00149496
2256.92	0.00167496
2266.57	0.00211496
2276.21	0.00350496
2285.86	0.00618496
2295.5	0.011285
2305.15	0.018305
2314.79	0.025335
2324.44	0.029965
2334.08	0.028415
2343.73	0.026445
2353.37	0.029985
2363.02	0.040335
2372.66	0.031265
2382.31	0.012445
2391.95	0.00241496
2401.6	0.00166496
2411.24	0.00201496
2420.89	0.00233496
2430.53	0.00211496
2440.18	0.00160496
2449.82	0.00118496
2459.47	0.00102496
2469.11	0.00097336
2478.75	0.00095026
2488.4	0.00111496
2498.04	0.00130496
2507.69	0.00152496
2517.33	0.00159496
2526.98	0.00151496
2536.62	0.00143496
2546.27	0.00135496
2555.91	0.00097716
2565.56	0.00104496
2575.2	0.00116496
2584.85	0.00118496
2594.49	0.00115496
2604.14	0.00138496
2613.78	0.00130496
2623.43	0.00103496
2633.07	0.00089956
2642.72	0.00103496
2652.36	0.00132496
2662.01	0.00149496
2671.65	0.00163496
2681.29	0.00107496
2690.94	0.00064236
2700.58	0.00040186
2710.23	0.00037826
2719.87	0.00030926
2729.52	0.00041376
2739.16	0.00042796
2748.81	0.00057566
2758.45	0.00050306
2768.1	0.00046446
2777.74	0.00047946
2787.39	0.00042956
2797.03	0.00053666
2806.68	0.00046906
2816.32	0.00044946
2825.97	0.00031856
2835.61	0.00037946
2845.26	0.00019926
2854.9	0.00042096
2864.55	0.00044586
2874.19	0.00056286
2883.84	0.00057326
2893.48	0.00064876
2903.12	0.00101496
2912.77	0.00114496
2922.41	0.00146496
2932.06	0.00143496
2941.7	0.00109496
2951.35	0.00078526
2960.99	0.00049906
2970.64	0.00043046
2980.28	0.00045566
2989.93	0.00052836
2999.57	0.00036896
3009.22	0.00061126
3018.86	0.00081036
3028.51	0.00080206
3038.15	0.00075466
3047.8	0.00065106
3057.44	0.00042186
3067.09	0.00045666
3076.73	0.00038006
3086.38	0.00059046
3096.02	0.00085196
3105.67	0.00079976
3115.31	0.00063216
3124.95	0.00030856
3134.6	0.00055926
3144.24	0.00044696
3153.89	0.00034276
3163.53	0.00038096
3173.18	0.00024976
3182.82	0.00038066
3192.47	0.00031736
3202.11	0.00014286
3211.76	0.00029986
3221.4	0.00013786
3231.05	0.00028286
3240.69	0.00042026
3250.34	0.00044996
3259.98	8.187e-05
3269.63	0.00030236
3279.27	0.00031746
3288.92	0.00050036
3298.56	0.00031556
3308.21	0.00015156
3317.85	1.717e-05
3327.49	0.00021396
3337.14	0.00013836
3346.78	0.00012886
3356.43	0.00025046
3366.07	0.00037136
3375.72	0.00023716
3385.36	0.00019826
3395.01	0.00033706
3404.65	0.00046926
3414.3	0.00032096
3423.94	0.00029826
3433.59	0.00032846
3443.23	0.00020776
3452.88	0.00021226
3462.52	0.00054476
3472.17	0.00045586
3481.81	0.00064816
3491.46	0.00093696
3501.1	0.00091536
3510.75	0.00106496
3520.39	0.00146496
3530.04	0.00231496
3539.68	0.00350496
3549.32	0.00675496
3558.97	0.034135
3568.61	0.076365
3578.26	0.031345
3587.9	0.00529496
3597.55	0.00295496
3607.19	0.00228496
3616.84	0.00179496
3626.48	0.00203496
3636.13	0.00165496
3645.77	0.00133496
3655.42	0.00080496
3665.06	0.00070626
3674.71	0.00062166
3684.35	0.00079396
3694	0.00103496
3703.64	0.00099316
3713.29	0.00074536
3722.93	0.00105496
3732.58	0.00135496
3742.22	0.00094946
3751.86	0.00054426
3761.51	0.00039716
3771.15	0.00021316
3780.8	0.00034866
3790.44	0.00032686
3800.09	0.00041906
3809.73	0.00046246
3819.38	0.00012436
3829.02	0.00037846
3838.67	0.00047036
3848.31	0.00025196
3857.96	0.00023836
3867.6	0.00015606
3877.25	0.00049136
3886.89	0.00030846
3896.54	6.213e-05
3906.18	9.956e-05
3915.83	0.00020406
3925.47	0.00039286
3935.12	0.00015126
3944.76	0.00038596
3954.41	0.00037946
3964.05	0.00031416
3973.69	0.00040466
3983.34	0.00024576
3992.98	9.12e-05
