Infrared Spectrum: 2,4,6-TRINITRO-M-CRESOL
Formula: C7 H5 N3 O7
CAS: 602-99-3
State: SOLID (MINERAL OIL MULL)
Class: COBLENTZ
Instrument: Not specified, most likely a prism, grating, or hybrid spectrometer.
Sampling: TRANSMISSION
Resolution: 4
Origin: WYANDOTTE CHEMICALS CORP., WYANDOTTE, MICHIGAN, USA
MICROMETERS	TRANSMITTANCE
2.027	0.376
2.068	0.376
2.10899	0.378
2.14999	0.383
2.19099	0.39
2.23198	0.4
2.27298	0.405
2.31398	0.415
2.35498	0.42
2.39597	0.429
2.43697	0.431
2.47797	0.429
2.51896	0.434
2.55996	0.451
2.60096	0.451
2.64195	0.459
2.68295	0.465
2.72395	0.458
2.76495	0.451
2.80594	0.448
2.84694	0.437
2.88794	0.413
2.92893	0.395
2.96993	0.361
3.01093	0.303
3.05192	0.301
3.09292	0.279
3.13392	0.274
3.17492	0.335
3.21591	0.311
3.25691	0.339
3.29791	0.32
3.3389	0.141
3.3799	0.037
3.4209	0.056
3.46189	0.102
3.50289	0.136
3.54389	0.466
3.58488	0.534
3.62588	0.562
3.66688	0.551
3.70788	0.572
3.74887	0.582
3.78987	0.582
3.83087	0.597
3.87186	0.609
3.91286	0.62
3.95386	0.63
3.99485	0.635
4.03585	0.64
4.07685	0.642
4.11785	0.649
4.15884	0.65
4.19984	0.654
4.24084	0.642
4.28183	0.65
4.32283	0.678
4.36383	0.713
4.40482	0.722
4.44582	0.712
4.48682	0.724
4.52781	0.725
4.56881	0.734
4.60981	0.744
4.65081	0.768
4.6918	0.773
4.7328	0.771
4.7738	0.79
4.81479	0.797
4.85579	0.805
4.89679	0.812
4.93778	0.819
4.97878	0.819
5.01978	0.827
5.06078	0.824
5.10177	0.827
5.14277	0.841
5.18377	0.853
5.22476	0.867
5.26576	0.877
5.30676	0.889
5.34775	0.897
5.38875	0.918
5.42975	0.901
5.47075	0.923
5.51174	0.919
5.55274	0.88
5.59374	0.935
5.63473	0.921
5.67573	0.936
5.71673	0.93
5.75772	0.95
5.79872	0.947
5.83972	0.928
5.88071	0.914
5.92171	0.88
5.96271	0.8
6.00371	0.684
6.0447	0.393
6.0857	0.16
6.1267	0.235
6.16769	0.393
6.20869	0.189
6.24969	0.194
6.29068	0.333
6.33168	0.291
6.37268	0.18
6.41368	0.073
6.45467	0.091
6.49567	0.088
6.53667	0.109
6.57766	0.139
6.61866	0.258
6.65966	0.327
6.70065	0.347
6.74165	0.258
6.78265	0.056
6.82365	0.061
6.86464	0.1
6.90564	0.212
6.94664	0.277
6.98763	0.219
7.02863	0.275
7.06963	0.417
7.11062	0.487
7.15162	0.507
7.19262	0.391
7.23361	0.098
7.27461	0.095
7.31561	0.102
7.35661	0.076
7.3976	0.063
7.4386	0.064
7.4796	0.088
7.52059	0.091
7.56159	0.076
7.60259	0.098
7.64358	0.214
7.68458	0.238
7.72558	0.204
7.76658	0.247
7.80757	0.267
7.84857	0.252
7.88957	0.267
7.93056	0.284
7.97156	0.274
8.01256	0.257
8.05355	0.241
8.09455	0.224
8.13555	0.211
8.17655	0.24
8.21754	0.298
8.25854	0.349
8.29954	0.367
8.34053	0.437
8.38153	0.415
8.42253	0.333
8.46352	0.183
8.50452	0.136
8.54552	0.139
8.58651	0.153
8.62751	0.187
8.66851	0.221
8.70951	0.267
8.7505	0.299
8.7915	0.328
8.8325	0.371
8.87349	0.403
8.91449	0.427
8.95549	0.453
8.99648	0.471
9.03748	0.48
9.07848	0.502
9.11948	0.529
9.16047	0.548
9.20147	0.545
9.24247	0.514
9.28346	0.396
9.32446	0.144
9.36546	0.141
9.40645	0.275
9.44745	0.386
9.48845	0.465
9.52944	0.504
9.57044	0.511
9.61144	0.422
9.65244	0.339
9.69343	0.407
9.73443	0.379
9.77543	0.434
9.81642	0.5
9.85742	0.558
9.89842	0.597
9.93941	0.611
9.98041	0.642
10.0214	0.659
10.0624	0.674
10.1034	0.688
10.1444	0.693
10.1854	0.7
10.2264	0.712
10.2674	0.72
10.3084	0.727
10.3494	0.734
10.3904	0.744
10.4314	0.752
10.4724	0.756
10.5134	0.759
10.5544	0.763
10.5954	0.766
10.6364	0.771
10.6774	0.78
10.7184	0.778
10.7594	0.761
10.8004	0.689
10.8413	0.374
10.8823	0.177
10.9233	0.282
10.9643	0.362
11.0053	0.301
11.0463	0.289
11.0873	0.534
11.1283	0.638
11.1693	0.66
11.2103	0.632
11.2513	0.505
11.2923	0.586
11.3333	0.693
11.3743	0.732
11.4153	0.759
11.4563	0.766
11.4973	0.776
11.5383	0.781
11.5793	0.787
11.6203	0.792
11.6613	0.798
11.7023	0.8
11.7433	0.805
11.7843	0.805
11.8253	0.805
11.8663	0.805
11.9073	0.807
11.9483	0.81
11.9893	0.816
12.0303	0.816
12.0713	0.816
12.1123	0.809
12.1533	0.81
12.1942	0.819
12.2352	0.824
12.2762	0.831
12.3172	0.831
12.3582	0.827
12.3992	0.834
12.4402	0.836
12.4812	0.843
12.5222	0.839
12.5632	0.836
12.6042	0.829
12.6452	0.829
12.6862	0.826
12.7272	0.81
12.7682	0.798
12.8092	0.671
12.8502	0.606
12.8912	0.628
12.9322	0.507
12.9732	0.316
13.0142	0.383
13.0552	0.589
13.0962	0.705
13.1372	0.671
13.1782	0.488
13.2192	0.366
13.2602	0.42
13.3012	0.34
13.3422	0.216
13.3832	0.277
13.4242	0.424
13.4652	0.526
13.5062	0.565
13.5471	0.567
13.5881	0.519
13.6291	0.432
13.6701	0.327
13.7111	0.257
13.7521	0.258
13.7931	0.321
13.8341	0.425
13.8751	0.478
13.9161	0.533
13.9571	0.565
13.9981	0.582
14.0391	0.591
14.0801	0.596
14.1211	0.594
14.1621	0.591
14.2031	0.579
14.2441	0.565
14.2851	0.538
14.3261	0.512
14.3671	0.475
14.4081	0.429
14.4491	0.379
14.4901	0.327
14.5311	0.296
14.5721	0.286
14.6131	0.293
14.6541	0.342
14.6951	0.393
14.7361	0.429
14.7771	0.427
14.8181	0.412
14.8591	0.376
14.9	0.335
14.941	0.303
14.982	0.286
15.023	0.293
15.064	0.303
15.105	0.291
15.146	0.299
15.187	0.325
15.228	0.352
15.269	0.391
15.31	0.403
15.351	0.431
15.392	0.446
15.433	0.454
15.474	0.451
15.515	0.453
15.556	0.444
15.597	0.424
15.638	0.417
15.679	0.398
15.72	0.386
15.761	0.402
15.802	0.403
15.843	0.425
15.884	0.432
15.925	0.436
15.966	0.439
