Infrared Spectrum: 9-Phenylantharcene
Formula: C 20 H 14
CAS: 602-55-1
State: gas
Instrument: HP-GC/MS/IRD
Origin: NIST Mass Spectrometry Data Center
1/CM	ABSORBANCE
550	0.001446
562	0.000347
574	0.000121
586	9.5e-05
598	0.000445
610	0.002801
622	0.001438
634	0.001305
646	0.00073
658	0.000509
670	0.000769
682	0.000751
694	0.002925
706	0.004492
718	0.002389
730	0.01
742	0.003836
754	0.002864
766	0.000811
778	0.000554
790	0.001476
802	0.00052
814	0.000309
826	0.000563
838	0.002572
850	0.000696
862	0.000341
874	0.001769
886	0.002232
898	0.000304
910	0.00023
922	0.000328
934	0.001575
946	0.000514
958	0.000298
970	8.2e-05
982	4.7e-05
994	0.000329
1006	0.001174
1018	0.001391
1030	0.000726
1042	0.000188
1054	0.000171
1066	0.000609
1078	0.00028
1090	8.3e-05
1102	0.000128
1114	5.2e-05
1126	3.1e-05
1138	2.5e-05
1150	4.3e-05
1162	0.000477
1174	0.000423
1186	0.000193
1198	9.6e-05
1210	8.5e-05
1222	0.000162
1234	0.000164
1246	0.000146
1258	6.6e-05
1270	0.000112
1282	0.000105
1294	0.000224
1306	0.000282
1318	0.000246
1330	0.000226
1342	0.000493
1354	0.001541
1366	0.000718
1378	0.000582
1390	0.000467
1402	0.001112
1414	0.001012
1426	0.000396
1438	0.001175
1450	0.000983
1462	0.000295
1474	0.000345
1486	0.000537
1498	0.00078
1510	0.000577
1522	0.000605
1534	0.000203
1546	0.00022
1558	0.0003
1570	0.000521
1582	0.000468
1594	0.000936
1606	0.000608
1618	0.000258
1630	0.000302
1642	0.000131
1654	7.9e-05
1666	0.000188
1678	0.000452
1690	0.000489
1702	0.000567
1714	0.000387
1726	0.000269
1738	0.000228
1750	0.000361
1762	0.000453
1774	0.000204
1786	0.000427
1798	0.000697
1810	0.000813
1822	0.00036
1834	0.000249
1846	0.000155
1858	0.000146
1870	0.000224
1882	0.000242
1894	0.000313
1906	0.000438
1918	0.000497
1930	0.000494
1942	0.000712
1954	0.000291
1966	0.00014
1978	4.7e-05
1990	3.9e-05
2002	2.9e-05
2014	3.4e-05
2026	4.9e-05
2038	3.1e-05
2050	3.6e-05
2062	2.7e-05
2074	2.9e-05
2086	3.6e-05
2098	1.1e-05
2110	1.4e-05
2122	1.9e-05
2134	2.2e-05
2146	1.1e-05
2158	2.7e-05
2170	1.4e-05
2182	1.4e-05
2194	2.7e-05
2206	3.4e-05
2218	1.7e-05
2230	1.3e-05
2242	2.9e-05
2254	2.3e-05
2266	5.1e-05
2278	7.3e-05
2290	3.4e-05
2302	0.000105
2314	0.000108
2326	6.1e-05
2338	4.9e-05
2350	6.4e-05
2362	1.9e-05
2374	3.5e-05
2386	7e-05
2398	7.2e-05
2410	4.6e-05
2422	6.1e-05
2434	5.1e-05
2446	4.5e-05
2458	6.6e-05
2470	5.4e-05
2482	5.8e-05
2494	5.5e-05
2506	5.1e-05
2518	5.7e-05
2530	7.2e-05
2542	6e-05
2554	7.5e-05
2566	6.8e-05
2578	4.9e-05
2590	6.6e-05
2602	8.5e-05
2614	5.2e-05
2626	7.3e-05
2638	6.2e-05
2650	5.6e-05
2662	6.5e-05
2674	5.1e-05
2686	6.3e-05
2698	7.4e-05
2710	5.4e-05
2722	5.4e-05
2734	5.7e-05
2746	6.1e-05
2758	6.3e-05
2770	8.1e-05
2782	8.7e-05
2794	6.1e-05
2806	8.9e-05
2818	0.000124
2830	0.00012
2842	0.000141
2854	0.000123
2866	0.000106
2878	0.000143
2890	0.000124
2902	0.000152
2914	0.000227
2926	0.000276
2938	0.00021
2950	0.000222
2962	0.000238
2974	0.000368
2986	0.000631
2998	0.000937
3010	0.001281
3022	0.002411
3034	0.004253
3046	0.004724
3058	0.008376
3070	0.007619
3082	0.005926
3094	0.002896
3106	0.001072
3118	0.000543
3130	0.000364
3142	0.000321
3154	0.000226
3166	0.000188
3178	0.000196
3190	0.000154
3202	0.000128
3214	0.0001
3226	9.4e-05
3238	0.000101
3250	8.9e-05
3262	7.4e-05
3274	5.6e-05
3286	8.2e-05
3298	7.4e-05
3310	3.1e-05
3322	4.9e-05
3334	7.7e-05
3346	7.2e-05
3358	4.6e-05
3370	6.6e-05
3382	4e-05
3394	5.9e-05
3406	4.5e-05
3418	4.3e-05
3430	5.2e-05
3442	5.7e-05
3454	5.3e-05
3466	4.1e-05
3478	4.4e-05
3490	4.4e-05
3502	2.8e-05
3514	6.4e-05
3526	5.3e-05
3538	5.3e-05
3550	5.7e-05
3562	4.4e-05
3574	4.1e-05
3586	5.2e-05
3598	4.4e-05
3610	3.3e-05
3622	4.4e-05
3634	6.1e-05
3646	7.4e-05
3658	5.4e-05
3670	6.8e-05
3682	9.3e-05
3694	0.000105
3706	6.5e-05
3718	4.7e-05
3730	5.6e-05
3742	5.6e-05
3754	4.4e-05
3766	6.7e-05
3778	9.2e-05
3790	3.7e-05
3802	4.7e-05
3814	2e-05
3826	7.6e-05
3838	3.8e-05
