Infrared Spectrum: 3-Undecyne
Formula: C 11 H 20
CAS: 60212-30-8
State: gas
Instrument: HP-GC/MS/IRD
Origin: NIST Mass Spectrometry Data Center
1/CM	ABSORBANCE
550	0.00024
562	3.5e-05
574	2e-05
586	4.5e-05
598	0.00021
610	0.00013
622	0.0002
634	0.000145
646	6e-05
658	4e-05
670	9e-05
682	0.000155
694	0.000255
706	0.000335
718	0.00067
730	0.000655
742	0.000495
754	0.00046
766	0.00049
778	0.00049
790	0.000445
802	0.000405
814	0.000275
826	0.000215
838	0.00023
850	0.000205
862	0.00023
874	0.000225
886	0.000285
898	0.000285
910	0.00029
922	0.000225
934	0.00028
946	0.0002
958	0.000225
970	0.00022
982	0.00026
994	0.000275
1006	0.00039
1018	0.000375
1030	0.000365
1042	0.00039
1054	0.00053
1066	0.00069
1078	0.000575
1090	0.000445
1102	0.00037
1114	0.000315
1126	0.00026
1138	0.0002
1150	0.000185
1162	0.000195
1174	0.00032
1186	0.00032
1198	0.00031
1210	0.000315
1222	0.00034
1234	0.000405
1246	0.00053
1258	0.000675
1270	0.00077
1282	0.001035
1294	0.00152
1306	0.002625
1318	0.00544
1330	0.005435
1342	0.003205
1354	0.00224
1366	0.00175
1378	0.00163
1390	0.00148
1402	0.00119
1414	0.001255
1426	0.001855
1438	0.003585
1450	0.00437
1462	0.004705
1474	0.003335
1486	0.00172
1498	0.00102
1510	0.000685
1522	0.000505
1534	0.00038
1546	0.0003
1558	0.00028
1570	0.000245
1582	0.00022
1594	0.000175
1606	0.00015
1618	0.00015
1630	0.00016
1642	0.000125
1654	0.00014
1666	0.00011
1678	0.00012
1690	8e-05
1702	8.5e-05
1714	6.5e-05
1726	6e-05
1738	3.5e-05
1750	5e-05
1762	6e-05
1774	5e-05
1786	4e-05
1798	3.5e-05
1810	4e-05
1822	6e-05
1834	4e-05
1846	4e-05
1858	6e-05
1870	8e-05
1882	3.5e-05
1894	4e-05
1906	3e-05
1918	1.5e-05
1930	5e-06
1942	1e-05
1954	2e-05
1966	1.5e-05
1978	5e-06
1990	2.5e-05
2002	3.5e-05
2014	6e-05
2026	6e-05
2038	9e-05
2050	0.0001
2062	6e-05
2074	4e-05
2086	6e-05
2098	5e-05
2110	3.5e-05
2122	2.5e-05
2134	5e-05
2146	5.5e-05
2158	7e-05
2170	8e-05
2182	6e-05
2194	6.5e-05
2206	6e-05
2218	8e-05
2230	4.5e-05
2242	3e-05
2254	5e-05
2266	7e-05
2278	5e-05
2290	6.5e-05
2302	9.5e-05
2314	7.5e-05
2326	0.00011
2338	9e-05
2350	0.0001
2362	9.5e-05
2374	7e-05
2386	9.5e-05
2398	0.000105
2410	7.5e-05
2422	0.000115
2434	0.00012
2446	0.00013
2458	0.00012
2470	9.5e-05
2482	0.00013
2494	0.00014
2506	0.000155
2518	0.000185
2530	0.00018
2542	0.000215
2554	0.00021
2566	0.00027
2578	0.000305
2590	0.00031
2602	0.00031
2614	0.00038
2626	0.00046
2638	0.000505
2650	0.00052
2662	0.0005
2674	0.00054
2686	0.00057
2698	0.000545
2710	0.000555
2722	0.0006
2734	0.000735
2746	0.000825
2758	0.000885
2770	0.00096
2782	0.00108
2794	0.00136
2806	0.001735
2818	0.002355
2830	0.003475
2842	0.00601
2854	0.012325
2866	0.018175
2878	0.016345
2890	0.015145
2902	0.017175
2914	0.02539
2926	0.04031
2938	0.05
2950	0.03685
2962	0.02562
2974	0.02249
2986	0.014915
2998	0.00748
3010	0.00467
3022	0.00304
3034	0.002115
3046	0.00154
3058	0.00126
3070	0.00102
3082	0.00094
3094	0.00085
3106	0.000795
3118	0.00073
3130	0.000655
3142	0.00063
3154	0.000605
3166	0.000545
3178	0.000475
3190	0.00044
3202	0.00034
3214	0.00028
3226	0.000295
3238	0.00024
3250	0.000235
3262	0.000205
3274	0.000185
3286	0.000145
3298	0.000175
3310	0.000195
3322	0.000145
3334	0.00016
3346	0.000195
3358	0.00014
3370	0.000175
3382	0.00017
3394	0.00014
3406	6e-05
3418	0.000145
3430	0.000165
3442	0.00012
3454	0.000155
3466	6e-05
3478	0.0001
3490	7.5e-05
3502	6e-05
3514	7e-05
3526	3.5e-05
3538	0.0001
3550	4e-05
3562	6.5e-05
3574	4.5e-05
3586	9e-05
3598	0.00012
3610	9e-05
3622	5e-05
3634	7.5e-05
3646	2.5e-05
3658	0.00011
3670	0.000115
3682	0.00016
3694	0.000105
3706	7e-05
3718	4.5e-05
3730	0.000105
3742	0.00013
3754	7e-05
3766	7.5e-05
3778	0.00012
3790	8.5e-05
3802	0.00011
3814	0.00011
3826	0.0001
3838	0.00014
