Infrared Spectrum: 3,5-Dichlorobenzyl alcohol
Formula: C 7 H 6 Cl 2 O
CAS: 60211-57-6
State: gas
Origin: EPA-IR VAPOR PHASE LIBRARY
1/CM	ABSORBANCE
549.8	0.0012428
559.445	0.001399
569.09	0.0013845
578.734	0.0017212
588.379	0.00224
598.024	0.00318
607.669	0.00418
617.313	0.00873
626.958	0.00807
636.603	0.00464
646.248	0.00482
655.893	0.00525
665.537	0.00636
675.182	0.01042
684.827	0.01361
694.472	0.00828
704.116	0.00427
713.761	0.00238
723.406	0.00212
733.051	0.0023
742.695	0.0023
752.34	0.00307
761.985	0.00408
771.63	0.00583
781.275	0.01412
790.919	0.04057
800.564	0.06449
810.209	0.03597
819.854	0.01806
829.498	0.01724
839.143	0.02048
848.788	0.03531
858.433	0.03213
868.078	0.01577
877.722	0.00898
887.367	0.00821
897.012	0.00894
906.657	0.00728
916.301	0.00469
925.946	0.00425
935.591	0.00393
945.236	0.00437
954.88	0.00522
964.525	0.00769
974.17	0.00789
983.815	0.0083
993.46	0.00934
1003.1	0.01259
1012.75	0.01737
1022.39	0.02124
1032.04	0.02541
1041.68	0.0283
1051.33	0.02407
1060.97	0.01719
1070.62	0.01189
1080.26	0.00997
1089.91	0.01286
1099.55	0.02281
1109.2	0.01851
1118.84	0.01045
1128.49	0.00646
1138.13	0.00557
1147.78	0.00671
1157.42	0.00847
1167.07	0.01055
1176.71	0.01461
1186.36	0.01968
1196	0.02791
1205.64	0.03653
1215.29	0.02907
1224.93	0.01821
1234.58	0.01783
1244.22	0.01221
1253.87	0.00812
1263.51	0.00706
1273.16	0.00715
1282.8	0.00723
1292.45	0.00639
1302.09	0.00613
1311.74	0.00583
1321.38	0.00631
1331.03	0.00728
1340.67	0.00896
1350.32	0.01189
1359.96	0.01674
1369.61	0.02234
1379.25	0.02641
1388.9	0.02604
1398.54	0.02123
1408.18	0.01729
1417.83	0.02543
1427.47	0.04606
1437.12	0.04531
1446.76	0.01956
1456.41	0.00776
1466.05	0.00567
1475.7	0.0046
1485.34	0.00323
1494.99	0.0031
1504.63	0.00318
1514.28	0.00342
1523.92	0.00363
1533.57	0.00464
1543.21	0.00757
1552.86	0.02084
1562.5	0.05378
1572.15	0.07808
1581.79	0.05484
1591.44	0.03027
1601.08	0.01613
1610.73	0.00831
1620.37	0.00575
1630.01	0.0041
1639.66	0.00262
1649.3	0.00214
1658.95	0.001939
1668.59	0.00206
1678.24	0.001531
1687.88	0.0016893
1697.53	0.0018283
1707.17	0.00237
1716.82	0.00346
1726.46	0.00449
1736.11	0.00411
1745.75	0.00295
1755.4	0.00286
1765.04	0.00271
1774.69	0.00211
1784.33	0.0015676
1793.98	0.0014854
1803.62	0.0012903
1813.27	0.00106283
1822.91	0.0012034
1832.55	0.0012065
1842.2	0.00108482
1851.84	0.0011708
1861.49	0.0011222
1871.13	0.0011412
1880.78	0.0012174
1890.42	0.0013665
1900.07	0.0013271
1909.71	0.0013096
1919.36	0.001229
1929	0.0009368
1938.65	0.00105056
1948.29	0.0009702
1957.94	0.0010924
1967.58	0.0011001
1977.23	0.00105954
1986.87	0.0008984
1996.52	0.000758
2006.16	0.0009708
2015.81	0.000865
2025.45	0.0011201
2035.1	0.0009758
2044.74	0.0011704
2054.38	0.0012366
2064.03	0.0013416
2073.67	0.0011412
2083.32	0.0011684
2092.96	0.00107923
2102.61	0.0009081
2112.25	0.001094
2121.9	0.000739
2131.54	0.000803
2141.19	0.000879
2150.83	0.0009289
2160.48	0.000822
2170.12	0.0009397
2179.77	0.000729
2189.41	0.000775
2199.06	0.0009354
2208.7	0.00103194
2218.35	0.0009164
2227.99	0.000844
2237.64	0.0009394
2247.28	0.0009191
2256.92	0.00081
2266.57	0.000598
2276.21	0.000845
2285.86	0.000738
2295.5	0.0009547
2305.15	0.000794
2314.79	0.00083
2324.44	0.000739
2334.08	0.00100089
2343.73	0.0009439
2353.37	0.000684
2363.02	0.0009717
2372.66	0.0010983
2382.31	0.0012375
2391.95	0.0015667
2401.6	0.0013617
2411.24	0.0012088
2420.89	0.0009226
2430.53	0.0009371
2440.18	0.000838
2449.82	0.000992587
2459.47	0.0009304
2469.11	0.000721
2478.75	0.000808
2488.4	0.000619
2498.04	0.000737
2507.69	0.000674
2517.33	0.000488
2526.98	0.000732
2536.62	0.000802
2546.27	0.000968
2555.91	0.000876
2565.56	0.000835
2575.2	0.0012433
2584.85	0.000717
2594.49	0.000834
2604.14	0.0009325
2613.78	0.0009028
2623.43	0.00091
2633.07	0.000723
2642.72	0.0011889
2652.36	0.0009058
2662.01	0.0012483
2671.65	0.001112
2681.29	0.00104559
2690.94	0.00104447
2700.58	0.0012149
2710.23	0.00102873
2719.87	0.0012656
2729.52	0.0009718
2739.16	0.0011348
2748.81	0.0010269
2758.45	0.0012437
2768.1	0.001673
2777.74	0.0012756
2787.39	0.001621
2797.03	0.0022
2806.68	0.00215
2816.32	0.00219
2825.97	0.00284
2835.61	0.00352
2845.26	0.00465
2854.9	0.00609
2864.55	0.00802
2874.19	0.01021
2883.84	0.01239
2893.48	0.01223
2903.12	0.01076
2912.77	0.01021
2922.41	0.01034
2932.06	0.01117
2941.7	0.01013
2951.35	0.0088
2960.99	0.00707
2970.64	0.00591
2980.28	0.00377
2989.93	0.00315
2999.57	0.0017656
3009.22	0.0014179
3018.86	0.0015106
3028.51	0.00076
3038.15	0.000668
3047.8	0.0016975
3057.44	0.0017471
3067.09	0.00217
3076.73	0.0011909
3086.38	0.0011912
3096.02	0.0009272
3105.67	0.000853
3115.31	0.0013943
3124.95	0.00066
3134.6	0.00100604
3144.24	0.000639
3153.89	0.0008994
3163.53	0.00106216
3173.18	0.000707
3182.82	0.000497
3192.47	0.000333
3202.11	0.0009777
3211.76	0.000377
3221.4	0.00057
3231.05	0.000527
3240.69	0.0011856
3250.34	0.000836
3259.98	0.000361
3269.63	0.00047
3279.27	0.000521
3288.92	0.000308
3298.56	0.000282
3308.21	0.000865
3317.85	0.000771
3327.49	0.000834
3337.14	0.000842
3346.78	0.0008997
3356.43	0.00104538
3366.07	0.000508
3375.72	0.0011522
3385.36	0.000859
3395.01	0.000879
3404.65	0.000715
3414.3	0.000888
3423.94	0.00104118
3433.59	0.000876
3443.23	0.0012077
3452.88	0.000653
3462.52	0.0009799
3472.17	0.000492
3481.81	0.0011394
3491.46	0.000732
3501.1	0.001491
3510.75	0.000784
3520.39	0.0012472
3530.04	0.00101829
3539.68	0.0009291
3549.32	0.0009756
3558.97	0.0012398
3568.61	0.000778
3578.26	0.0012877
3587.9	0.0015854
3597.55	0.0015445
3607.19	0.0018207
3616.84	0.00234
3626.48	0.00324
3636.13	0.00518
3645.77	0.00839
3655.42	0.01119
3665.06	0.0109
3674.71	0.00845
3684.35	0.00663
3694	0.00402
3703.64	0.00266
3713.29	0.0016628
3722.93	0.0018166
3732.58	0.00099529
3742.22	0.00107679
3751.86	0.001119
3761.51	0.0009644
3771.15	0.00149
3780.8	0.0011471
3790.44	0.0012416
3800.09	0.00088
3809.73	0.000456
3819.38	0.0012926
3829.02	0.000795
3838.67	0.00104506
3848.31	0.0016919
3857.96	0.0015775
3867.6	0.0017818
3877.25	0.001169
3886.89	0.0011389
3896.54	0.0009124
3906.18	0.0011474
3915.83	0.0011457
3925.47	0.0014145
3935.12	0.0010212
3944.76	0.0009654
3954.41	0.0009447
3964.05	0.000991046
3973.69	0.000722
3983.34	0.000532
3992.98	0.0008941
