Infrared Spectrum: .gamma.-(2,4-Dichlorophenoxy)butyricacid
Formula: C 10 H 10 Cl 2 O 3
CAS: 60210-83-5
State: gas
Origin: EPA-IR VAPOR PHASE LIBRARY
1/CM	ABSORBANCE
501.5	0.0009147
513.074	0.0011583
524.648	0.0008539
536.222	0.0009891
547.796	0.0010242
559.37	0.0012668
570.944	0.0012929
582.518	0.0011937
594.092	0.0011916
605.666	0.0012639
617.24	0.0011718
628.814	0.0013281
640.388	0.0014256
651.962	0.0013543
663.536	0.0007505
675.11	0.0006986
686.684	0.0006976
698.258	0.0009124
709.832	0.0009538
721.406	0.0011373
732.98	0.0012301
744.554	0.0009319
756.128	0.0006486
767.702	0.0007971
779.276	0.000972
790.85	0.0009496
802.423	0.0011887
813.997	0.0010824
825.571	0.0008742
837.145	0.0009608
848.719	0.000873
860.293	0.0010254
871.867	0.0011808
883.441	0.000708
895.015	0.0006005
906.589	0.0005823
918.163	0.0005923
929.737	0.0007112
941.311	0.0008031
952.885	0.0007916
964.459	0.0006334
976.033	0.0006055
987.607	0.0007606
999.181	0.0010191
1010.76	0.0013616
1022.33	0.001903
1033.9	0.002453
1045.48	0.002233
1057.05	0.002963
1068.63	0.003103
1080.2	0.002343
1091.77	0.002313
1103.35	0.003593
1114.92	0.002953
1126.49	0.003673
1138.07	0.004203
1149.64	0.002853
1161.22	0.002013
1172.79	0.001523
1184.36	0.0012385
1195.94	0.0013995
1207.51	0.001643
1219.09	0.001773
1230.66	0.002523
1242.23	0.003453
1253.81	0.004243
1265.38	0.004063
1276.96	0.003493
1288.53	0.002843
1300.1	0.001683
1311.68	0.0011555
1323.25	0.0009192
1334.83	0.0008291
1346.4	0.0009213
1357.97	0.0010992
1369.55	0.0014007
1381.12	0.001943
1392.7	0.001693
1404.27	0.001134
1415.84	0.0009498
1427.42	0.0012629
1438.99	0.0013991
1450.57	0.001623
1462.14	0.003253
1473.71	0.006323
1485.29	0.005573
1496.86	0.002433
1508.44	0.0011103
1520.01	0.0006326
1531.58	0.00046853
1543.16	0.0004659
1554.73	0.00050265
1566.31	0.0006102
1577.88	0.0007632
1589.45	0.0007122
1601.03	0.00045346
1612.6	0.0004141
1624.18	0.0003637
1635.75	0.000384
1647.32	0.0003402
1658.9	0.0003499
1670.47	0.0003701
1682.05	0.0003442
1693.62	0.0003621
1705.19	0.00050456
1716.77	0.0006486
1728.34	0.0009891
1739.92	0.001473
1751.49	0.002223
1763.06	0.003633
1774.64	0.005313
1786.21	0.004423
1797.79	0.002783
1809.36	0.001623
1820.93	0.0009408
1832.51	0.0006129
1844.08	0.00047715
1855.66	0.00042339
1867.23	0.0003752
1878.8	0.0003607
1890.38	0.000291
1901.95	0.000316
1913.53	0.000333
1925.1	0.000318
1936.67	0.000316
1948.25	0.000275
1959.82	0.000283
1971.4	0.000305
1982.97	0.000305
1994.54	0.000295
2006.12	0.000312
2017.69	0.000297
2029.27	0.00027
2040.84	0.000281
2052.41	0.000299
2063.99	0.000287
2075.56	0.000242
2087.14	0.000296
2098.71	0.000294
2110.28	0.000245
2121.86	0.000264
2133.43	0.000269
2145.01	0.00028
2156.58	0.000286
2168.15	0.000274
2179.73	0.000267
2191.3	0.000279
2202.88	0.000248
2214.45	0.000298
2226.02	0.00029
2237.6	0.000292
2249.17	0.000248
2260.74	0.000227
2272.32	0.000285
2283.89	0.00027
2295.47	0.000256
2307.04	0.000325
2318.61	0.000312
2330.19	0.000315
2341.76	0.00033
2353.34	0.000263
2364.91	0.000312
2376.48	0.000328
2388.06	0.000284
2399.63	0.000251
2411.21	0.000256
2422.78	0.000289
2434.35	0.000338
2445.93	0.000291
2457.5	0.000281
2469.08	0.000273
2480.65	0.000321
2492.22	0.0003444
2503.8	0.0003342
2515.37	0.000321
2526.95	0.000313
2538.52	0.000295
2550.09	0.000299
2561.67	0.000286
2573.24	0.000307
2584.82	0.000248
2596.39	0.000273
2607.96	0.000209
2619.54	0.000233
2631.11	0.000227
2642.69	0.000301
2654.26	0.000286
2665.83	0.000307
2677.41	0.000272
2688.98	0.000252
2700.56	0.0003409
2712.13	0.000225
2723.7	0.00032
2735.28	0.000272
2746.85	0.0003539
2758.43	0.000275
2770	0.000278
2781.57	0.000283
2793.15	0.000235
2804.72	0.000295
2816.3	0.000287
2827.87	0.000326
2839.44	0.00031
2851.02	0.0004075
2862.59	0.00045211
2874.17	0.0005951
2885.74	0.0006614
2897.31	0.0007298
2908.89	0.00064
2920.46	0.0006828
2932.04	0.000934
2943.61	0.0010903
2955.18	0.0010334
2966.76	0.0011377
2978.33	0.0008935
2989.91	0.0006036
3001.48	0.000407
3013.05	0.0003554
3024.63	0.000294
3036.2	0.000299
3047.78	0.000296
3059.35	0.000238
3070.92	0.0003513
3082.5	0.0003922
3094.07	0.000271
3105.65	0.000222
3117.22	0.000306
3128.79	0.000171
3140.37	0.000209
3151.94	0.000202
3163.52	0.000163
3175.09	0.000245
3186.66	0.000178
3198.24	0.000211
3209.81	0.000178
3221.39	0.000206
3232.96	0.000227
3244.53	0.000227
3256.11	0.000227
3267.68	0.000195
3279.26	0.00014
3290.83	0.000236
3302.4	0.00016
3313.98	0.000194
3325.55	0.000146
3337.13	0.000202
3348.7	0.000176
3360.27	0.000185
3371.85	0.000252
3383.42	0.00024
3395	0.000156
3406.57	8.1e-05
3418.14	0.000138
3429.72	0.000193
3441.29	0.000285
3452.86	0.000184
3464.44	0.000198
3476.01	0.000114
3487.59	0.00023
3499.16	0.000232
3510.73	0.000209
3522.31	0.000302
3533.88	0.000249
3545.46	0.000287
3557.03	0.0005418
3568.6	0.001683
3580.18	0.002023
3591.75	0.0005862
3603.33	0.000316
3614.9	0.000197
3626.47	0.000175
3638.05	9.6e-05
3649.62	0.000185
3661.2	0.000163
3672.77	0.00018
3684.34	0.000175
3695.92	0.000226
3707.49	0.000228
3719.07	0.000174
3730.64	0.000311
3742.21	7e-05
3753.79	7.9e-05
3765.36	9.5e-05
3776.94	0.000188
3788.51	0.000176
3800.08	0.000198
3811.66	0.000176
3823.23	3.8e-05
3834.81	0.000219
3846.38	0.000104
3857.95	9.8e-05
3869.53	0.000142
3881.1	6.5e-05
3892.68	9.4e-05
3904.25	0.00016
3915.82	0.000124
3927.4	0.00022
3938.97	0.000124
3950.55	7.9e-05
3962.12	0.000211
3973.69	0.000174
3985.27	0.000309
3996.84	0.000145
