Infrared Spectrum: 2-Undecyne
Formula: C 11 H 20
CAS: 60212-29-5
State: gas
Instrument: HP-GC/MS/IRD
Origin: NIST Mass Spectrometry Data Center
1/CM	ABSORBANCE
550	0.00042
562	0.000576
574	0.000588
586	0.000324
598	0.000384
610	0.000312
622	0.0003
634	4.8e-05
646	0.000108
658	0.000192
670	0.000252
682	0.00042
694	0.000564
706	0.000912
718	0.00144
730	0.001332
742	0.001056
754	0.000852
766	0.000816
778	0.000744
790	0.000588
802	0.000396
814	0.000372
826	0.000312
838	0.000348
850	0.0003
862	0.0003
874	0.00042
886	0.000324
898	0.00036
910	0.000324
922	0.000312
934	0.000336
946	0.000372
958	0.000312
970	0.0003
982	0.000264
994	0.000312
1006	0.000336
1018	0.00048
1030	0.000504
1042	0.000408
1054	0.00054
1066	0.000396
1078	0.00036
1090	0.000336
1102	0.000384
1114	0.00048
1126	0.000408
1138	0.0003
1150	0.000216
1162	0.000312
1174	0.000432
1186	0.000432
1198	0.00054
1210	0.0006
1222	0.000708
1234	0.000864
1246	0.00108
1258	0.0012
1270	0.001488
1282	0.002028
1294	0.002484
1306	0.003024
1318	0.003768
1330	0.005208
1342	0.005232
1354	0.004824
1366	0.00438
1378	0.004776
1390	0.003768
1402	0.002424
1414	0.00264
1426	0.003648
1438	0.00672
1450	0.00882
1462	0.009912
1474	0.006768
1486	0.003552
1498	0.002496
1510	0.001788
1522	0.001356
1534	0.001164
1546	0.001068
1558	0.000792
1570	0.00072
1582	0.000648
1594	0.000492
1606	0.00042
1618	0.000372
1630	0.000288
1642	0.000252
1654	0.000216
1666	0.000192
1678	0.000204
1690	0.000144
1702	9.6e-05
1714	7.2e-05
1726	6e-05
1738	6e-05
1750	2.4e-05
1762	7.2e-05
1774	7.2e-05
1786	1.2e-05
1798	7.2e-05
1810	7.2e-05
1822	7.2e-05
1834	6e-05
1846	4.8e-05
1858	4.8e-05
1870	3.6e-05
1882	0
1894	0
1906	2.4e-05
1918	3.6e-05
1930	2.4e-05
1942	3.6e-05
1954	2.4e-05
1966	3.6e-05
1978	2.4e-05
1990	4.8e-05
2002	7.2e-05
2014	0.000132
2026	0.000144
2038	0.00024
2050	0.000324
2062	0.000276
2074	0.000168
2086	9.6e-05
2098	7.2e-05
2110	8.4e-05
2122	0.000108
2134	9.6e-05
2146	9.6e-05
2158	0.000108
2170	8.4e-05
2182	9.6e-05
2194	0.00012
2206	0.00012
2218	8.4e-05
2230	0.000108
2242	9.6e-05
2254	7.2e-05
2266	0.00012
2278	9.6e-05
2290	0.000108
2302	0.000108
2314	0.000168
2326	0.000168
2338	0.000168
2350	0.000144
2362	0.000204
2374	0.000216
2386	0.000156
2398	0.00024
2410	0.000276
2422	0.00024
2434	0.000252
2446	0.00024
2458	0.000252
2470	0.000312
2482	0.000324
2494	0.000324
2506	0.000348
2518	0.000384
2530	0.000408
2542	0.000432
2554	0.000384
2566	0.00048
2578	0.000504
2590	0.00054
2602	0.000576
2614	0.000636
2626	0.000708
2638	0.000828
2650	0.00096
2662	0.001056
2674	0.001164
2686	0.001248
2698	0.0012
2710	0.00114
2722	0.001284
2734	0.00162
2746	0.0021
2758	0.001968
2770	0.00192
2782	0.00222
2794	0.002784
2806	0.003636
2818	0.00492
2830	0.007272
2842	0.013044
2854	0.028644
2866	0.04302
2878	0.037596
2890	0.029856
2902	0.034032
2914	0.055116
2926	0.098112
2938	0.118944
2950	0.075468
2962	0.04842
2974	0.035568
2986	0.01632
2998	0.009756
3010	0.006924
3022	0.005076
3034	0.004452
3046	0.003096
3058	0.002664
3070	0.001992
3082	0.001716
3094	0.001428
3106	0.001188
3118	0.001056
3130	0.000888
3142	0.000744
3154	0.000756
3166	0.00066
3178	0.000636
3190	0.000564
3202	0.00054
3214	0.000384
3226	0.000348
3238	0.000192
3250	0.00024
3262	0.000192
3274	0.00024
3286	0.000228
3298	0.000228
3310	0.000156
3322	0.00024
3334	0.000252
3346	0.000216
3358	0.000252
3370	0.000168
3382	0.000156
3394	0.00018
3406	0.000192
3418	0.00012
3430	0.00018
3442	0.000204
3454	0.000228
3466	0.000192
3478	0.000156
3490	7.2e-05
3502	0.000144
3514	7.2e-05
3526	0.000108
3538	7.2e-05
3550	6e-05
3562	7.2e-05
3574	8.4e-05
3586	9.6e-05
3598	7.2e-05
3610	0.00012
3622	0.000144
3634	0.000168
3646	0.00018
3658	0.00018
3670	0.000132
3682	0.000192
3694	0.000216
3706	0.000108
3718	0.00018
3730	0.000156
3742	0.000144
3754	0.000192
3766	0.00024
3778	0.000192
3790	0.000192
3802	0.000228
3814	0.00018
3826	0.000192
3838	0.000204
