Infrared Spectrum: 1,2,3-BENZOTRIAZINE-4-(3H)-ONE, 6,8-DICHLORO-
Formula: C7 H3 Cl2 N3 O
CAS: 60233-65-0
State: SOLID (1 mg / 500 mg KBr DISC)
Class: COBLENTZ
Instrument: PERKIN-ELMER 621
Sampling: TRANSMISSION
Resolution: 4
Origin: SOUTHERN RESEARCH INSTITUTE
1/CM	TRANSMITTANCE
246.275	0.164
256.765	0.2138
267.254	0.2944
277.744	0.3802
288.233	0.4869
298.723	0.5296
309.212	0.5555
319.702	0.5668
330.191	0.569
340.681	0.566
351.17	0.5343
361.66	0.4827
372.149	0.7185
382.639	0.7043
393.128	0.6903
403.618	0.6763
414.107	0.6141
424.597	0.704
435.086	0.6968
445.576	0.688
456.065	0.6774
466.555	0.671
477.044	0.6654
487.534	0.6486
498.023	0.661
508.513	0.6456
519.002	0.6271
529.492	0.5839
539.981	0.4187
550.471	0.5818
560.96	0.5534
571.45	0.7046
581.939	0.6444
592.429	0.4784
602.918	0.732
613.408	0.6969
623.897	0.683
634.387	0.677
644.876	0.6738
655.366	0.6618
665.855	0.6442
676.345	0.6255
686.834	0.5498
697.324	0.4909
707.813	0.6882
718.303	0.6898
728.793	0.6669
739.282	0.652
749.772	0.636
760.261	0.622
770.751	0.6011
781.24	0.5312
791.73	0.4256
802.219	0.6317
812.709	0.5971
823.198	0.5483
833.688	0.5191
844.177	0.412
854.667	0.482
865.156	0.5139
875.646	0.4884
886.135	0.4688
896.625	0.4703
907.114	0.5484
917.604	0.539
928.093	0.5754
938.583	0.4471
949.072	0.3584
959.562	0.7739
970.051	0.7603
980.541	0.7304
991.03	0.7075
1001.52	0.6881
1012.01	0.6686
1022.5	0.6452
1032.99	0.6119
1043.48	0.6042
1053.97	0.6156
1064.46	0.5916
1074.95	0.4743
1085.44	0.6187
1095.93	0.615
1106.41	0.6084
1116.9	0.5782
1127.39	0.5536
1137.88	0.4793
1148.37	0.3539
1158.86	0.4841
1169.35	0.7168
1179.84	0.6901
1190.33	0.6315
1200.82	0.5367
1211.31	0.5544
1221.8	0.576
1232.29	0.5629
1242.78	0.515
1253.27	0.5289
1263.76	0.6351
1274.25	0.5939
1284.74	0.6352
1295.23	0.6163
1305.72	0.5726
1316.21	0.4849
1326.69	0.4163
1337.18	0.617
1347.67	0.5771
1358.16	0.4645
1368.65	0.5783
1379.14	0.6103
1389.63	0.5869
1400.12	0.5476
1410.61	0.498
1421.1	0.5021
1431.59	0.5447
1442.08	0.4509
1452.57	0.5518
1463.06	0.6316
1473.55	0.6149
1484.04	0.599
1494.53	0.573
1505.02	0.557
1515.51	0.5385
1526	0.5271
1536.48	0.5107
1546.97	0.4569
1557.46	0.3527
1567.95	0.5346
1578.44	0.5057
1588.93	0.401
1599.42	0.5308
1609.91	0.4957
1620.4	0.4583
1630.89	0.4244
1641.38	0.3952
1651.87	0.3444
1662.36	0.2472
1672.85	0.212
1683.34	0.2234
1693.83	0.2788
1704.32	0.4151
1714.81	0.5413
1725.3	0.6062
1735.79	0.6581
1746.28	0.679
1756.76	0.708
1767.25	0.7012
1777.74	0.6829
1788.23	0.6898
1798.72	0.7142
1809.21	0.73
1819.7	0.732
1830.19	0.729
1840.68	0.717
1851.17	0.7152
1861.66	0.709
1872.15	0.704
1882.64	0.7
1893.13	0.698
1903.62	0.6913
1914.11	0.687
1924.6	0.6847
1935.09	0.679
1945.58	0.675
1956.07	0.673
1966.55	0.6679
1977.04	0.6645
1987.53	0.658
1998.02	0.656
2008.51	0.6565
2019	0.653
2029.49	0.645
2039.98	0.643
2050.47	0.636
2060.96	0.632
2071.45	0.632
2081.94	0.632
2092.43	0.632
2102.92	0.63
2113.41	0.626
2123.9	0.624
2134.39	0.62
2144.88	0.6195
2155.37	0.619
2165.86	0.618
2176.35	0.6155
2186.83	0.613
2197.32	0.6095
2207.81	0.607
2218.3	0.605
2228.79	0.605
2239.28	0.602
2249.77	0.6005
2260.26	0.5975
2270.75	0.593
2281.24	0.588
2291.73	0.5875
2302.22	0.589
2312.71	0.586
2323.2	0.584
2333.69	0.581
2344.18	0.576
2354.67	0.577
2365.16	0.577
2375.65	0.5755
2386.14	0.57
2396.62	0.568
2407.11	0.568
2417.6	0.569
2428.09	0.567
2438.58	0.566
2449.07	0.5595
2459.56	0.556
2470.05	0.556
2480.54	0.5545
2491.03	0.5495
2501.52	0.549
2512.01	0.55
2522.5	0.55
2532.99	0.548
2543.48	0.546
2553.97	0.542
2564.46	0.538
2574.95	0.5335
2585.44	0.5325
2595.93	0.5295
2606.42	0.526
2616.9	0.525
2627.39	0.524
2637.88	0.52
2648.37	0.513
2658.86	0.511
2669.35	0.509
2679.84	0.505
2690.33	0.4985
2700.82	0.4945
2711.31	0.49
2721.8	0.485
2732.29	0.479
2742.78	0.472
2753.27	0.4645
2763.76	0.4565
2774.25	0.451
2784.74	0.446
2795.23	0.444
2805.72	0.441
2816.21	0.44
2826.69	0.434
2837.18	0.4215
2847.67	0.406
2858.16	0.397
2868.65	0.398
2879.14	0.4135
2889.63	0.416
2900.12	0.4095
2910.61	0.4005
2921.1	0.396
2931.59	0.392
2942.08	0.3935
2952.57	0.396
2963.06	0.397
2973.55	0.387
2984.04	0.3685
2994.53	0.362
3005.02	0.3665
3015.51	0.3855
3026	0.416
3036.48	0.4145
3046.97	0.4015
3057.46	0.3735
3067.95	0.3755
3078.44	0.371
3088.93	0.403
3099.42	0.4065
3109.91	0.407
3120.4	0.405
3130.89	0.412
3141.38	0.4365
3151.87	0.4679
3162.36	0.4945
3172.85	0.503
3183.34	0.4925
3193.83	0.465
3204.32	0.453
3214.81	0.4699
3225.3	0.507
3235.79	0.543
3246.28	0.56
3256.76	0.569
3267.25	0.573
3277.74	0.572
3288.23	0.569
3298.72	0.565
3309.21	0.56
3319.7	0.5425
3330.19	0.539
3340.68	0.537
3351.17	0.5325
3361.66	0.523
3372.15	0.513
3382.64	0.506
3393.13	0.4955
3403.62	0.487
3414.11	0.4825
3424.6	0.481
3435.09	0.481
3445.58	0.4815
3456.07	0.482
3466.55	0.482
3477.04	0.483
3487.53	0.486
3498.02	0.49
3508.51	0.494
3519	0.5005
3529.49	0.506
3539.98	0.5115
3550.47	0.5175
3560.96	0.5235
3571.45	0.529
3581.94	0.533
3592.43	0.538
3602.92	0.543
3613.41	0.551
3623.9	0.554
3634.39	0.556
3644.88	0.556
3655.37	0.555
3665.86	0.555
3676.35	0.555
3686.83	0.557
3697.32	0.56
3707.81	0.56
3718.3	0.555
3728.79	0.555
3739.28	0.555
3749.77	0.555
3760.26	0.555
3770.75	0.553
3781.24	0.554
3791.73	0.552
3802.22	0.55
3812.71	0.55
3823.2	0.55
3833.69	0.551
3844.18	0.55
3854.67	0.55
3865.16	0.545
3875.65	0.545
3886.14	0.543
3896.62	0.543
3907.11	0.5425
3917.6	0.541
3928.09	0.539
3938.58	0.541
3949.07	0.541
3959.56	0.54
3970.05	0.539
3980.54	0.538
3991.03	0.538
4001.52	0.539
