Infrared Spectrum: 1-(2'-Aminophenyl)pyrrole
Formula: C 10 H 10 N 2
CAS: 6025-60-1
State: gas
Origin: EPA-IR VAPOR PHASE LIBRARY
1/CM	ABSORBANCE
549.9	0.01443
559.547	0.01421
569.193	0.01367
578.84	0.01363
588.486	0.01312
598.133	0.01268
607.779	0.01283
617.426	0.01576
627.072	0.02395
636.719	0.02745
646.365	0.02253
656.012	0.01965
665.658	0.02215
675.305	0.0229
684.951	0.02004
694.598	0.02078
704.245	0.02933
713.891	0.07429
723.538	0.11607
733.184	0.12228
742.831	0.10573
752.477	0.07059
762.124	0.03609
771.77	0.02163
781.417	0.01836
791.063	0.01741
800.71	0.01708
810.356	0.01673
820.003	0.0145
829.649	0.01074
839.296	0.0086
848.943	0.00824
858.589	0.00753
868.236	0.00715
877.882	0.00689
887.529	0.00656
897.175	0.00668
906.822	0.00778
916.468	0.01681
926.115	0.03136
935.761	0.02053
945.408	0.00735
955.054	0.00588
964.701	0.00549
974.347	0.00537
983.994	0.0051
993.64	0.00526
1003.29	0.01039
1012.93	0.01727
1022.58	0.01477
1032.23	0.01337
1041.87	0.01245
1051.52	0.01573
1061.17	0.03238
1070.81	0.04713
1080.46	0.03295
1090.11	0.01331
1099.75	0.01804
1109.4	0.02725
1119.05	0.01645
1128.69	0.00747
1138.34	0.00976
1147.99	0.01273
1157.63	0.01264
1167.28	0.00869
1176.92	0.00475
1186.57	0.00427
1196.22	0.00478
1205.86	0.00534
1215.51	0.00631
1225.16	0.00702
1234.8	0.00854
1244.45	0.01412
1254.1	0.02094
1263.74	0.02024
1273.39	0.01709
1283.04	0.01965
1292.68	0.0246
1302.33	0.03362
1311.98	0.05335
1321.62	0.09656
1331.27	0.0807
1340.92	0.01698
1350.56	0.00618
1360.21	0.00444
1369.86	0.00399
1379.5	0.00445
1389.15	0.00518
1398.79	0.00679
1408.44	0.00866
1418.09	0.0099
1427.73	0.00979
1437.38	0.00999
1447.03	0.0149
1456.67	0.02457
1466.32	0.03147
1475.97	0.03692
1485.61	0.03875
1495.26	0.06731
1504.91	0.15075
1514.55	0.14057
1524.2	0.0547
1533.85	0.03047
1543.49	0.02924
1553.14	0.02951
1562.79	0.02315
1572.43	0.02063
1582.08	0.02204
1591.73	0.02538
1601.37	0.02937
1611.02	0.04872
1620.67	0.07462
1630.31	0.06851
1639.96	0.03547
1649.6	0.01546
1659.25	0.00957
1668.9	0.00919
1678.54	0.00928
1688.19	0.00816
1697.84	0.0061
1707.48	0.0048
1717.13	0.0064
1726.78	0.00618
1736.42	0.00351
1746.07	0.00292
1755.72	0.00315
1765.36	0.0039
1775.01	0.00418
1784.66	0.00365
1794.3	0.00344
1803.95	0.00349
1813.6	0.00312
1823.24	0.0026604
1832.89	0.0023972
1842.54	0.002599
1852.18	0.00314
1861.83	0.00314
1871.47	0.00292
1881.12	0.00376
1890.77	0.00432
1900.41	0.0034
1910.06	0.00316
1919.71	0.00403
1929.35	0.00355
1939	0.0026196
1948.65	0.0022405
1958.29	0.0020714
1967.94	0.002032
1977.59	0.0020405
1987.23	0.0021185
1996.88	0.0020585
2006.53	0.001789
2016.17	0.001804
2025.82	0.0018487
2035.47	0.001791
2045.11	0.001707
2054.76	0.00168
2064.41	0.001665
2074.05	0.001633
2083.7	0.001588
2093.35	0.001615
2102.99	0.001638
2112.64	0.001713
2122.28	0.0018385
2131.93	0.00199439
2141.58	0.00191993
2151.22	0.001622
2160.87	0.001547
2170.52	0.001736
2180.16	0.00194211
2189.81	0.001764
2199.46	0.001576
2209.1	0.001506
2218.75	0.001474
2228.4	0.001465
2238.04	0.001467
2247.69	0.001604
2257.34	0.001781
2266.98	0.001729
2276.63	0.001623
2286.28	0.001585
2295.92	0.001509
2305.57	0.001542
2315.22	0.001623
2324.86	0.001638
2334.51	0.001402
2344.16	0.001353
2353.8	0.001334
2363.45	0.001388
2373.09	0.001317
2382.74	0.001293
2392.39	0.001274
2402.03	0.001337
2411.68	0.001294
2421.33	0.001366
2430.97	0.001433
2440.62	0.001593
2450.27	0.001653
2459.91	0.001665
2469.56	0.00138
2479.21	0.001258
2488.85	0.001021
2498.5	0.001046
2508.15	0.00112
2517.79	0.001002
2527.44	0.001115
2537.09	0.001265
2546.73	0.001412
2556.38	0.001615
2566.03	0.0019099
2575.67	0.0020966
2585.32	0.0020413
2594.96	0.0018873
2604.61	0.0020695
2614.26	0.0024533
2623.9	0.0027208
2633.55	0.0026305
2643.2	0.0021959
2652.84	0.001716
2662.49	0.001253
2672.14	0.00089
2681.78	0.00071
2691.43	0.00076
2701.08	0.000936
2710.72	0.00083
2720.37	0.00079
2730.02	0.00078
2739.66	0.0008
2749.31	0.00079
2758.96	0.00071
2768.6	0.00072
2778.25	0.00069
2787.9	0.00066
2797.54	0.00067
2807.19	0.00054
2816.84	0.00054
2826.48	0.00067
2836.13	0.00079
2845.77	0.0006
2855.42	0.00064
2865.07	0.0006
2874.71	0.00074
2884.36	0.00075
2894.01	0.00077
2903.65	0.00066
2913.3	0.00045
2922.95	0.00027
2932.59	0.00026
2942.24	0.00014
2951.89	2e-05
2961.53	3e-05
2971.18	0.00015
2980.83	0.00023
2990.47	0.00038
3000.12	0.00075
3009.77	0.0019068
3019.41	0.00468
3029.06	0.0107
3038.71	0.01715
3048.35	0.01805
3058	0.01489
3067.64	0.01724
3077.29	0.01889
3086.94	0.01434
3096.58	0.00952
3106.23	0.00847
3115.88	0.0092
3125.52	0.00737
3135.17	0.00578
3144.82	0.004
3154.46	0.001264
3164.11	0.00081
3173.76	0.000938
3183.4	0.00084
3193.05	0.001151
3202.7	0.001071
3212.34	0.001046
3221.99	0.00079
3231.64	0.00048
3241.28	0.00041
3250.93	0.00039
3260.58	0.00036
3270.22	0.00033
3279.87	0.00036
3289.52	0.00039
3299.16	0.00046
3308.81	0.00043
3318.45	0.00081
3328.1	0.00073
3337.75	0.00083
3347.39	0.0009
3357.04	0.001267
3366.69	0.0017
3376.33	0.00306
3385.98	0.00692
3395.63	0.01623
3405.27	0.02206
3414.92	0.01387
3424.57	0.00546
3434.21	0.00303
3443.86	0.0026927
3453.51	0.00318
3463.15	0.00445
3472.8	0.0071
3482.45	0.01215
3492.09	0.02025
3501.74	0.02223
3511.39	0.01369
3521.03	0.00622
3530.68	0.0035
3540.33	0.0026217
3549.97	0.0020437
3559.62	0.0018906
3569.26	0.001525
3578.91	0.001428
3588.56	0.001486
3598.2	0.001445
3607.85	0.001463
3617.5	0.001308
3627.14	0.001378
3636.79	0.001253
3646.44	0.001422
3656.08	0.001277
3665.73	0.001429
3675.38	0.001412
3685.02	0.001509
3694.67	0.001673
3704.32	0.001627
3713.96	0.001639
3723.61	0.001513
3733.26	0.001445
3742.9	0.001459
3752.55	0.001557
3762.2	0.001562
3771.84	0.0014
3781.49	0.001383
3791.13	0.001314
3800.78	0.001534
3810.43	0.001425
3820.07	0.00139
3829.72	0.001513
3839.37	0.00162
3849.01	0.001582
3858.66	0.001664
3868.31	0.001651
3877.95	0.001695
3887.6	0.001633
3897.25	0.001688
3906.89	0.001552
3916.54	0.001589
3926.19	0.001535
3935.83	0.001591
3945.48	0.001618
3955.13	0.001709
3964.77	0.001893
3974.42	0.0024108
3984.07	0.00304
3993.71	0.0028356
