Infrared Spectrum: CYCLOHEXANECARBOXYLIC ACID, 1-CYCLOHEXYL-
Formula: C13 H22 O2
CAS: 60263-54-9
State: SOLID (KBr PELLET)
Melting point: 118-120 C
Class: COBLENTZ
Instrument: Not specified, most likely a prism, grating, or hybrid spectrometer.
Sampling: TRANSMISSION
Resolution: 4
Origin: TENNESSEE EASTMAN COMPANY, RESEARCH LABORATORIES
MICROMETERS	TRANSMITTANCE
2	0.884
2.04099	0.89
2.08198	0.896
2.12296	0.902
2.16395	0.905
2.20494	0.908
2.24593	0.91
2.28692	0.905
2.32791	0.903
2.36889	0.905
2.40988	0.908
2.45087	0.908
2.49186	0.912
2.53285	0.914
2.57383	0.914
2.61482	0.914
2.65581	0.914
2.6968	0.914
2.73779	0.908
2.77878	0.876
2.81976	0.835
2.86075	0.804
2.90174	0.78
2.94273	0.771
2.98372	0.774
3.0247	0.778
3.06569	0.75
3.10668	0.695
3.14767	0.625
3.18866	0.551
3.22964	0.46
3.27063	0.393
3.31162	0.378
3.35261	0.309
3.3936	0.018
3.43459	0.146
3.47557	0.097
3.51656	0.414
3.55755	0.441
3.59854	0.503
3.63953	0.536
3.68051	0.525
3.7215	0.532
3.76249	0.539
3.80348	0.53
3.84447	0.52
3.88546	0.572
3.92644	0.621
3.96743	0.652
4.00842	0.716
4.04941	0.754
4.0904	0.774
4.13138	0.814
4.17237	0.831
4.21336	0.85
4.25435	0.853
4.29534	0.857
4.33633	0.893
4.37731	0.915
4.4183	0.92
4.45929	0.926
4.50028	0.929
4.54127	0.929
4.58225	0.932
4.62324	0.938
4.66423	0.945
4.70522	0.948
4.74621	0.951
4.78719	0.95
4.82818	0.948
4.86917	0.95
4.91016	0.95
4.95115	0.948
4.99214	0.95
5.03312	0.932
5.07411	0.934
5.1151	0.934
5.15609	0.934
5.19708	0.931
5.23806	0.926
5.27905	0.917
5.32004	0.908
5.36103	0.903
5.40202	0.898
5.44301	0.883
5.48399	0.879
5.52498	0.872
5.56597	0.864
5.60696	0.869
5.64795	0.853
5.68893	0.85
5.72992	0.831
5.77091	0.78
5.8119	0.637
5.85289	0.429
5.89388	0.111
5.93486	0.036
5.97585	0.276
6.01684	0.577
6.05783	0.743
6.09882	0.773
6.1398	0.804
6.18079	0.843
6.22178	0.888
6.26277	0.924
6.30376	0.936
6.34475	0.931
6.38573	0.924
6.42672	0.924
6.46771	0.927
6.5087	0.932
6.54969	0.936
6.59067	0.941
6.63166	0.936
6.67265	0.934
6.71364	0.938
6.75463	0.855
6.79561	0.689
6.8366	0.367
6.87759	0.379
6.91858	0.78
6.95957	0.891
7.00056	0.864
7.04154	0.764
7.08253	0.694
7.12352	0.762
7.16451	0.86
7.2055	0.884
7.24648	0.826
7.28747	0.857
7.32846	0.85
7.36945	0.792
7.41044	0.752
7.45143	0.773
7.49241	0.654
7.5334	0.752
7.57439	0.64
7.61538	0.512
7.65637	0.285
7.69735	0.621
7.73834	0.802
7.77933	0.781
7.82032	0.658
7.86131	0.522
7.9023	0.642
7.94328	0.666
7.98427	0.515
8.02526	0.111
8.06625	0.374
8.10724	0.671
8.14822	0.78
8.18921	0.807
8.2302	0.85
8.27119	0.883
8.31218	0.891
8.35316	0.907
8.39415	0.781
8.43514	0.551
8.47613	0.816
8.51712	0.884
8.55811	0.924
8.59909	0.869
8.64008	0.884
8.68107	0.908
8.72206	0.664
8.76305	0.484
8.80403	0.73
8.84502	0.891
8.88601	0.924
8.927	0.939
8.96799	0.932
9.00898	0.888
9.04996	0.845
9.09095	0.907
9.13194	0.884
9.17293	0.934
9.21392	0.951
9.2549	0.945
9.29589	0.957
9.33688	0.97
9.37787	0.974
9.41886	0.975
9.45985	0.946
9.50083	0.957
9.54182	0.967
9.58281	0.943
9.6238	0.946
9.66479	0.945
9.70577	0.946
9.74676	0.941
9.78775	0.926
9.82874	0.888
9.86973	0.793
9.91071	0.762
9.9517	0.919
9.99269	0.945
10.0337	0.948
10.0747	0.95
10.1157	0.941
10.1566	0.934
10.1976	0.917
10.2386	0.893
10.2796	0.862
10.3206	0.836
10.3616	0.805
10.4026	0.778
10.4436	0.726
10.4845	0.62
10.5255	0.534
10.5665	0.558
10.6075	0.551
10.6485	0.58
10.6895	0.615
10.7305	0.628
10.7715	0.646
10.8125	0.733
10.8534	0.771
10.8944	0.776
10.9354	0.802
10.9764	0.795
11.0174	0.872
11.0584	0.914
11.0994	0.896
11.1404	0.762
11.1813	0.816
11.2223	0.9
11.2633	0.896
11.3043	0.938
11.3453	0.987
11.3863	1.001
11.4273	1.001
11.4683	1.001
11.5093	0.998
11.5502	0.996
11.5912	0.97
11.6322	0.945
11.6732	0.795
11.7142	0.773
11.7552	0.907
11.7962	0.915
11.8372	0.96
11.8781	0.975
11.9191	0.974
11.9601	0.977
12.0011	0.972
12.0421	0.939
12.0831	0.865
12.1241	0.814
12.1651	0.907
12.2061	0.955
12.247	0.951
12.288	0.926
12.329	0.941
12.37	0.967
12.411	0.967
12.452	0.975
12.493	0.982
12.534	0.984
12.5749	0.982
12.6159	0.982
12.6569	0.982
12.6979	0.982
12.7389	0.982
12.7799	0.984
12.8209	0.986
12.8619	0.987
12.9029	0.989
12.9438	0.989
12.9848	0.989
13.0258	0.991
13.0668	0.977
13.1078	0.917
13.1488	0.8
13.1898	0.606
13.2308	0.671
13.2717	0.804
13.3127	0.874
13.3537	0.891
13.3947	0.92
13.4357	0.951
13.4767	0.962
13.5177	0.972
13.5587	0.977
13.5996	0.982
13.6406	0.987
13.6816	0.991
13.7226	0.994
13.7636	0.998
13.8046	0.998
13.8456	1.001
13.8866	1.005
13.9276	1.006
13.9685	1.006
14.0095	1.008
14.0505	1.006
14.0915	1.008
14.1325	1.003
14.1735	0.996
14.2145	0.996
14.2555	0.994
14.2964	0.996
14.3374	0.994
14.3784	0.996
14.4194	1
14.4604	1
14.5014	1.003
14.5424	1.003
14.5834	1.003
14.6244	1.005
14.6653	1.006
14.7063	1.01
14.7473	1.006
14.7883	1.008
14.8293	1.008
14.8703	1.008
14.9113	1.008
14.9523	0.987
14.9932	0.974
15.0342	0.955
15.0752	0.924
15.1162	0.895
15.1572	0.879
15.1982	0.878
15.2392	0.886
15.2802	0.898
15.3212	0.912
15.3621	0.917
15.4031	0.92
15.4441	0.92
15.4851	0.92
15.5261	0.92
15.5671	0.92
15.6081	0.92
15.6491	0.92
15.69	0.919
15.731	0.915
15.772	0.905
15.813	0.895
15.854	0.886
15.895	0.872
15.936	0.862
