Infrared Spectrum: CARBANILIDE, N-NITROSO-
Formula: C13 H11 N3 O2
CAS: 60285-31-6
State: SOLID (1 mg / 650 mg KBr DISC)
Class: COBLENTZ III
Instrument: PERKIN-ELMER 221 (GRATING)
Instrument parameters: FILTER AT 980 CM^-^1. GRATING 4000-1428 CM^-^1, NaCl PRISM 1428-650 CM^-^1
Sampling: TRANSMISSION
Resolution: 2
Origin: SOUTHERN RESEARCH INSTITUTE
1/CM	TRANSMITTANCE
615.479	0.673
624.023	0.7466
632.566	0.7924
641.11	0.804
649.653	0.7866
658.197	0.7742
666.74	0.7257
675.284	0.4216
683.827	0.3837
692.371	0.6805
700.914	0.8549
709.458	0.8121
718.001	0.6775
726.545	0.3345
735.088	0.3496
743.632	0.2168
752.175	0.4284
760.719	0.8565
769.262	0.9382
777.806	0.9315
786.35	0.8883
794.893	0.7352
803.437	0.3171
811.98	0.545
820.524	0.755
829.067	0.917
837.611	0.9216
846.154	0.8949
854.698	0.8599
863.241	0.71
871.785	0.8836
880.328	0.8752
888.872	0.8488
897.415	0.6826
905.959	0.7364
914.502	0.7485
923.046	0.8716
931.59	0.8458
940.133	0.8174
948.677	0.7516
957.22	0.7283
965.764	0.6583
974.307	0.6221
982.851	0.4208
991.394	0.1663
999.938	0.3397
1008.48	0.1581
1017.02	0.3681
1025.57	0.2004
1034.11	0.1378
1042.66	0.4273
1051.2	0.768
1059.74	0.5527
1068.29	0.6469
1076.83	0.6428
1085.37	0.3367
1093.92	0.2532
1102.46	0.5018
1111	0.5973
1119.55	0.7863
1128.09	0.806
1136.63	0.8163
1145.18	0.8084
1153.72	0.6736
1162.26	0.5839
1170.81	0.5765
1179.35	0.838
1187.9	0.8401
1196.44	0.8312
1204.98	0.8184
1213.53	0.7814
1222.07	0.5944
1230.61	0.6568
1239.16	0.773
1247.7	0.7712
1256.24	0.774
1264.79	0.7382
1273.33	0.6715
1281.87	0.6326
1290.42	0.6178
1298.96	0.6402
1307.5	0.5194
1316.05	0.4859
1324.59	0.4769
1333.14	0.8142
1341.68	0.816
1350.22	0.813
1358.77	0.7859
1367.31	0.78
1375.85	0.7741
1384.4	0.7356
1392.94	0.7281
1401.48	0.7164
1410.03	0.6755
1418.57	0.6614
1427.11	0.5387
1435.66	0.3283
1444.2	0.5137
1452.74	0.6563
1461.29	0.5933
1469.83	0.3386
1478.38	0.106
1486.92	0.1359
1495.46	0.0866
1504.01	0.2133
1512.55	0.4584
1521.09	0.3859
1529.64	0.1843
1538.18	0.0856
1546.72	0.1244
1555.27	0.5666
1563.81	0.7146
1572.35	0.796
1580.9	0.6798
1589.44	0.3881
1597.98	0.1822
1606.53	0.465
1615.07	0.6749
1623.62	0.8295
1632.16	0.838
1640.7	0.836
1649.25	0.83
1657.79	0.8217
1666.33	0.799
1674.88	0.7554
1683.42	0.6667
1691.96	0.625
1700.51	0.5886
1709.05	0.4992
1717.59	0.3847
1726.14	0.1407
1734.68	0.0498
1743.22	0.3883
1751.77	0.6848
1760.31	0.7956
1768.86	0.869
1777.4	0.8916
1785.94	0.896
1794.49	0.893
1803.03	0.8993
1811.57	0.9126
1820.12	0.9166
1828.66	0.92
1837.2	0.923
1845.75	0.9226
1854.29	0.9162
1862.83	0.8983
1871.38	0.909
1879.92	0.8972
1888.46	0.8846
1897.01	0.9
1905.55	0.903
1914.1	0.9
1922.64	0.9
1931.18	0.905
1939.73	0.8962
1948.27	0.8871
1956.81	0.8712
1965.36	0.88
1973.9	0.8743
1982.44	0.8897
1990.99	0.892
1999.53	0.892
2008.07	0.889
2016.62	0.888
2025.16	0.884
2033.7	0.882
2042.25	0.881
2050.79	0.881
2059.34	0.881
2067.88	0.88
2076.42	0.878
2084.97	0.8764
2093.51	0.8714
2102.05	0.8664
2110.6	0.865
2119.14	0.866
2127.68	0.864
2136.23	0.863
2144.77	0.863
2153.31	0.8644
2161.86	0.861
2170.4	0.8584
2178.94	0.856
2187.49	0.855
2196.03	0.855
2204.58	0.855
2213.12	0.8544
2221.66	0.85
2230.21	0.848
2238.75	0.843
2247.29	0.842
2255.84	0.841
2264.38	0.84
2272.92	0.8388
2281.47	0.836
2290.01	0.833
2298.55	0.83
2307.1	0.8225
2315.64	0.8124
2324.18	0.7942
2332.73	0.7616
2341.27	0.7263
2349.82	0.7927
2358.36	0.7992
2366.9	0.8032
2375.45	0.81
2383.99	0.8134
2392.53	0.809
2401.08	0.808
2409.62	0.807
2418.16	0.807
2426.71	0.809
2435.25	0.8112
2443.79	0.813
2452.34	0.8094
2460.88	0.8064
2469.42	0.8
2477.97	0.797
2486.51	0.7833
2495.06	0.7846
2503.6	0.791
2512.14	0.789
2520.69	0.786
2529.23	0.786
2537.77	0.786
2546.32	0.785
2554.86	0.784
2563.4	0.7818
2571.95	0.781
2580.49	0.78
2589.03	0.7784
2597.58	0.776
2606.12	0.775
2614.66	0.775
2623.21	0.775
2631.75	0.775
2640.3	0.775
2648.84	0.772
2657.38	0.77
2665.93	0.77
2674.47	0.7674
2683.01	0.766
2691.56	0.763
2700.1	0.763
2708.64	0.761
2717.19	0.761
2725.73	0.7588
2734.27	0.756
2742.82	0.752
2751.36	0.7478
2759.9	0.746
2768.45	0.7444
2776.99	0.744
2785.54	0.745
2794.08	0.7404
2802.62	0.734
2811.17	0.7308
2819.71	0.728
2828.25	0.726
2836.8	0.724
2845.34	0.721
2853.88	0.718
2862.43	0.718
2870.97	0.718
2879.51	0.718
2888.06	0.7154
2896.6	0.7004
2905.14	0.696
2913.69	0.693
2922.23	0.693
2930.78	0.694
2939.32	0.694
2947.86	0.69
2956.41	0.6824
2964.95	0.68
2973.49	0.686
2982.04	0.686
2990.58	0.6814
2999.12	0.6682
3007.67	0.6542
3016.21	0.6356
3024.75	0.6536
3033.3	0.653
3041.84	0.6368
3050.38	0.621
3058.93	0.5487
3067.47	0.4907
3076.01	0.5942
3084.56	0.659
3093.1	0.652
3101.65	0.6556
3110.19	0.6524
3118.73	0.6434
3127.28	0.643
3135.82	0.6508
3144.36	0.6641
3152.91	0.6694
3161.45	0.6634
3169.99	0.6584
3178.54	0.6484
3187.08	0.644
3195.62	0.642
3204.17	0.64
3212.71	0.6364
3221.25	0.635
3229.8	0.6204
3238.34	0.6144
3246.89	0.609
3255.43	0.6024
3263.97	0.5904
3272.52	0.5748
3281.06	0.5502
3289.6	0.5288
3298.15	0.5082
3306.69	0.4912
3315.23	0.4616
3323.78	0.3912
3332.32	0.2738
3340.86	0.1137
3349.41	0.3037
3357.95	0.4881
3366.49	0.5922
3375.04	0.6082
3383.58	0.6136
3392.13	0.615
3400.67	0.616
3409.21	0.6168
3417.76	0.618
3426.3	0.6168
3434.84	0.614
3443.39	0.6108
3451.93	0.606
3460.47	0.606
3469.02	0.6096
3477.56	0.6156
3486.1	0.6186
3494.65	0.62
3503.19	0.623
3511.73	0.624
3520.28	0.625
3528.82	0.627
3537.37	0.629
3545.91	0.629
3554.45	0.629
3563	0.63
3571.54	0.6316
3580.08	0.635
3588.63	0.636
3597.17	0.636
3605.71	0.637
3614.26	0.637
3622.8	0.638
3631.34	0.64
3639.89	0.6388
3648.43	0.637
3656.97	0.6354
3665.52	0.635
3674.06	0.635
3682.61	0.635
3691.15	0.633
3699.69	0.632
3708.24	0.632
3716.78	0.632
3725.32	0.631
3733.87	0.6271
3742.41	0.626
3750.95	0.625
3759.5	0.6256
3768.04	0.626
3776.58	0.624
3785.13	0.624
3793.67	0.623
3802.21	0.6222
3810.76	0.6168
3819.3	0.618
3827.85	0.618
3836.39	0.612
3844.93	0.612
3853.48	0.61
3862.02	0.609
3870.56	0.608
3879.11	0.608
3887.65	0.608
3896.19	0.608
3904.74	0.607
3913.28	0.606
3921.82	0.604
3930.37	0.603
3938.91	0.603
3947.45	0.602
3956	0.5988
3964.54	0.6
3973.09	0.602
3981.63	0.602
3990.17	0.601
3998.72	0.5988
4007.26	0.598
