Infrared Spectrum: UREA, 1,3-BIS(2-CYANOETHYL)-1-NITROSO-
Formula: C7 H9 N5 O2
CAS: 60285-25-8
State: SOLID (0.7 mg / 500 mg KBr DISC)
Class: COBLENTZ III
Instrument: PERKIN-ELMER 221 (GRATING)
Instrument parameters: FILTER CHANGE AT 980 CM^-^1, GRATING FOR 4000-1428 CM^-^1, NaCl PRISM FOR 1428-650 CM^-^1
Sampling: TRANSMISSION
Resolution: 4
Origin: SOUTHERN RESEARCH INSTITUTE
1/CM	TRANSMITTANCE
606.402	0.751
615.608	0.759
624.815	0.775
634.021	0.794
643.227	0.814
652.434	0.833
661.64	0.846
670.847	0.855
680.053	0.864
689.259	0.877
698.466	0.875
707.672	0.864
716.878	0.855
726.085	0.825
735.291	0.745
744.497	0.802
753.704	0.697
762.91	0.798
772.117	0.711
781.323	0.483
790.529	0.732
799.736	0.848
808.942	0.814
818.148	0.775
827.355	0.541
836.561	0.425
845.768	0.8
854.974	0.688
864.18	0.844
873.387	0.825
882.593	0.729
891.799	0.859
901.006	0.854
910.212	0.834
919.418	0.807
928.625	0.757
937.831	0.689
947.038	0.566
956.244	0.404
965.45	0.283
974.657	0.592
983.863	0.789
993.069	0.829
1002.28	0.83
1011.48	0.797
1020.69	0.648
1029.89	0.642
1039.1	0.584
1048.31	0.787
1057.51	0.816
1066.72	0.629
1075.93	0.48
1085.13	0.716
1094.34	0.679
1103.55	0.509
1112.75	0.317
1121.96	0.485
1131.16	0.7
1140.37	0.773
1149.58	0.766
1158.78	0.609
1167.99	0.402
1177.2	0.493
1186.4	0.66
1195.61	0.739
1204.82	0.754
1214.02	0.764
1223.23	0.783
1232.43	0.809
1241.64	0.802
1250.85	0.71
1260.05	0.635
1269.26	0.653
1278.47	0.741
1287.67	0.757
1296.88	0.717
1306.09	0.591
1315.29	0.625
1324.5	0.75
1333.7	0.654
1342.91	0.441
1352.12	0.469
1361.32	0.733
1370.53	0.716
1379.74	0.739
1388.94	0.775
1398.15	0.767
1407.36	0.655
1416.56	0.593
1425.77	0.553
1434.97	0.514
1444.18	0.635
1453.39	0.562
1462.59	0.569
1471.8	0.394
1481.01	0.243
1490.21	0.217
1499.42	0.361
1508.63	0.451
1517.83	0.408
1527.04	0.262
1536.25	0.214
1545.45	0.364
1554.66	0.506
1563.86	0.603
1573.07	0.678
1582.28	0.738
1591.48	0.77
1600.69	0.79
1609.9	0.803
1619.1	0.809
1628.31	0.794
1637.52	0.803
1646.72	0.843
1655.93	0.854
1665.13	0.858
1674.34	0.853
1683.55	0.832
1692.75	0.788
1701.96	0.773
1711.17	0.67
1720.37	0.563
1729.58	0.286
1738.79	0.146
1747.99	0.266
1757.2	0.468
1766.4	0.574
1775.61	0.652
1784.82	0.714
1794.02	0.751
1803.23	0.786
1812.44	0.804
1821.64	0.815
1830.85	0.832
1840.06	0.841
1849.26	0.85
1858.47	0.854
1867.67	0.865
1876.88	0.872
1886.09	0.877
1895.29	0.881
1904.5	0.883
1913.71	0.883
1922.91	0.888
1932.12	0.89
1941.33	0.893
1950.53	0.893
1959.74	0.896
1968.94	0.896
1978.15	0.896
1987.36	0.896
1996.56	0.896
2005.77	0.895
2014.98	0.894
2024.18	0.895
2033.39	0.896
2042.6	0.896
2051.8	0.896
2061.01	0.896
2070.21	0.896
2079.42	0.895
2088.63	0.894
2097.83	0.893
2107.04	0.892
2116.25	0.891
2125.45	0.891
2134.66	0.893
2143.87	0.894
2153.07	0.896
2162.28	0.899
2171.48	0.897
2180.69	0.894
2189.9	0.893
2199.1	0.891
2208.31	0.889
2217.52	0.877
2226.72	0.865
2235.93	0.709
2245.14	0.764
2254.34	0.625
2263.55	0.811
2272.75	0.867
2281.96	0.882
2291.17	0.874
2300.37	0.873
2309.58	0.872
2318.79	0.87
2327.99	0.871
2337.2	0.873
2346.41	0.874
2355.61	0.875
2364.82	0.878
2374.02	0.88
2383.23	0.883
2392.44	0.882
2401.64	0.88
2410.85	0.88
2420.06	0.878
2429.26	0.877
2438.47	0.878
2447.68	0.879
2456.88	0.88
2466.09	0.88
2475.29	0.881
2484.5	0.88
2493.71	0.877
2502.91	0.877
2512.12	0.875
2521.33	0.874
2530.53	0.872
2539.74	0.871
2548.95	0.87
2558.15	0.87
2567.36	0.871
2576.56	0.871
2585.77	0.87
2594.98	0.869
2604.18	0.869
2613.39	0.871
2622.6	0.874
2631.8	0.872
2641.01	0.87
2650.22	0.87
2659.42	0.87
2668.63	0.869
2677.83	0.868
2687.04	0.867
2696.25	0.868
2705.45	0.87
2714.66	0.87
2723.87	0.87
2733.07	0.868
2742.28	0.867
2751.49	0.866
2760.69	0.864
2769.9	0.863
2779.1	0.861
2788.31	0.856
2797.52	0.855
2806.72	0.855
2815.93	0.855
2825.14	0.853
2834.34	0.85
2843.55	0.848
2852.76	0.848
2861.96	0.848
2871.17	0.848
2880.37	0.846
2889.58	0.845
2898.79	0.84
2907.99	0.835
2917.2	0.819
2926.41	0.816
2935.61	0.813
2944.82	0.799
2954.03	0.804
2963.23	0.804
2972.44	0.766
2981.64	0.74
2990.85	0.777
3000.06	0.809
3009.26	0.816
3018.47	0.803
3027.68	0.758
3036.88	0.777
3046.09	0.81
3055.3	0.822
3064.5	0.825
3073.71	0.828
3082.91	0.83
3092.12	0.833
3101.33	0.834
3110.53	0.835
3119.74	0.835
3128.95	0.835
3138.15	0.835
3147.36	0.835
3156.57	0.835
3165.77	0.834
3174.98	0.832
3184.18	0.828
3193.39	0.822
3202.6	0.816
3211.8	0.812
3221.01	0.81
3230.22	0.807
3239.42	0.806
3248.63	0.803
3257.84	0.798
3267.04	0.793
3276.25	0.79
3285.45	0.786
3294.66	0.78
3303.87	0.764
3313.07	0.74
3322.28	0.715
3331.49	0.693
3340.69	0.665
3349.9	0.63
3359.11	0.583
3368.31	0.522
3377.52	0.444
3386.72	0.373
3395.93	0.436
3405.14	0.543
3414.34	0.608
3423.55	0.645
3432.76	0.671
3441.96	0.696
3451.17	0.71
3460.38	0.727
3469.58	0.748
3478.79	0.754
3487.99	0.759
3497.2	0.763
3506.41	0.768
3515.61	0.774
3524.82	0.777
3534.03	0.779
3543.23	0.781
3552.44	0.783
3561.65	0.786
3570.85	0.789
3580.06	0.793
3589.26	0.796
3598.47	0.8
3607.68	0.803
3616.88	0.807
3626.09	0.809
3635.3	0.812
3644.5	0.814
3653.71	0.816
3662.92	0.818
3672.12	0.819
3681.33	0.82
3690.53	0.82
3699.74	0.82
3708.95	0.819
3718.15	0.817
3727.36	0.815
3736.57	0.813
3745.77	0.81
3754.98	0.819
3764.19	0.824
3773.39	0.824
3782.6	0.822
3791.8	0.82
3801.01	0.816
3810.22	0.815
3819.42	0.815
3828.63	0.815
3837.84	0.813
3847.04	0.813
3856.25	0.813
3865.46	0.814
3874.66	0.816
3883.87	0.816
3893.07	0.814
3902.28	0.813
3911.49	0.815
3920.69	0.814
3929.9	0.813
3939.11	0.812
3948.31	0.812
3957.52	0.811
3966.73	0.81
3975.93	0.809
3985.14	0.809
3994.34	0.809
4003.55	0.809
