Infrared Spectrum: 1-(4-nitrophenyl)-3-(2-thienyl)-prop-2-en-1-one
Formula: C 13 H 9 N O 3 S
CAS: 6028-92-8
State: gas
Origin: EPA-IR VAPOR PHASE LIBRARY
1/CM	ABSORBANCE
549.8	0.003178
559.445	0.003428
569.09	0.004288
578.734	0.007378
588.379	0.007528
598.024	0.008148
607.669	0.003518
617.313	0.001998
626.958	0.002788
636.603	0.0013036
646.248	0.002108
655.893	0.003208
665.537	0.005148
675.182	0.010418
684.827	0.014008
694.472	0.032748
704.116	0.046058
713.761	0.018338
723.406	0.011888
733.051	0.007848
742.695	0.013458
752.34	0.010838
761.985	0.005608
771.63	0.003478
781.275	0.003198
790.919	0.003138
800.564	0.004228
810.209	0.009298
819.854	0.022688
829.498	0.026258
839.143	0.027858
848.788	0.039388
858.433	0.031398
868.078	0.010578
877.722	0.007328
887.367	0.004848
897.012	0.003238
906.657	0.002298
916.301	0.002798
925.946	0.002758
935.591	0.004128
945.236	0.006298
954.88	0.009648
964.525	0.016258
974.17	0.014558
983.815	0.009548
993.46	0.010128
1003.1	0.023178
1012.75	0.060048
1022.39	0.044118
1032.04	0.016478
1041.68	0.010638
1051.33	0.006888
1060.97	0.007888
1070.62	0.012508
1080.26	0.007848
1089.91	0.003638
1099.55	0.004578
1109.2	0.005418
1118.84	0.004188
1128.49	0.004168
1138.13	0.002418
1147.78	0.003108
1157.42	0.003788
1167.07	0.005028
1176.71	0.009488
1186.36	0.023708
1196	0.038288
1205.64	0.058198
1215.29	0.024508
1224.93	0.027308
1234.58	0.028258
1244.22	0.016978
1253.87	0.017678
1263.51	0.031828
1273.16	0.050238
1282.8	0.070118
1292.45	0.039958
1302.09	0.037258
1311.74	0.049678
1321.38	0.036988
1331.03	0.027918
1340.67	0.045388
1350.32	0.078448
1359.96	0.057398
1369.61	0.025678
1379.25	0.014238
1388.9	0.011458
1398.54	0.014798
1408.18	0.016018
1417.83	0.013068
1427.47	0.009978
1437.12	0.005558
1446.76	0.003898
1456.41	0.004038
1466.05	0.004448
1475.7	0.004998
1485.34	0.007268
1494.99	0.009008
1504.63	0.011998
1514.28	0.021228
1523.92	0.029338
1533.57	0.052328
1543.21	0.075778
1552.86	0.041548
1562.5	0.027618
1572.15	0.028758
1581.79	0.043068
1591.44	0.093088
1601.08	0.158478
1610.73	0.107408
1620.37	0.032628
1630.01	0.016328
1639.66	0.012788
1649.3	0.012248
1658.95	0.019078
1668.59	0.045858
1678.24	0.056908
1687.88	0.035618
1697.53	0.014628
1707.17	0.007478
1716.82	0.005278
1726.46	0.003378
1736.11	0.002468
1745.75	0.002198
1755.4	0.002188
1765.04	0.002108
1774.69	0.002508
1784.33	0.003288
1793.98	0.005218
1803.62	0.003858
1813.27	0.002578
1822.91	0.002108
1832.55	0.001748
1842.2	0.001598
1851.84	0.001468
1861.49	0.001438
1871.13	0.001478
1880.78	0.001478
1890.42	0.001388
1900.07	0.001518
1909.71	0.001678
1919.36	0.001788
1929	0.001998
1938.65	0.001828
1948.29	0.001698
1957.94	0.001428
1967.58	0.0011895
1977.23	0.0010693
1986.87	0.000847
1996.52	0.0008551
2006.16	0.0009443
2015.81	0.0010065
2025.45	0.0011968
2035.1	0.0013086
2044.74	0.0011369
2054.38	0.000965
2064.03	0.0008617
2073.67	0.0008748
2083.32	0.0008618
2092.96	0.0009324
2102.61	0.0009646
2112.25	0.0008028
2121.9	0.0009517
2131.54	0.0008019
2141.19	0.0007822
2150.83	0.0008026
2160.48	0.0009529
2170.12	0.0009109
2179.77	0.0007685
2189.41	0.0006469
2199.06	0.0007362
2208.7	0.0008033
2218.35	0.000789
2227.99	0.0008399
2237.64	0.0006745
2247.28	0.0006226
2256.92	0.0006857
2266.57	0.0009073
2276.21	0.0009399
2285.86	0.0010432
2295.5	0.0008026
2305.15	0.0010069
2314.79	0.0008777
2324.44	0.0009802
2334.08	0.0007401
2343.73	0.0009316
2353.37	0.0007065
2363.02	0.0006244
2372.66	0.0008953
2382.31	0.0009471
2391.95	0.0009036
2401.6	0.0008094
2411.24	0.0007565
2420.89	0.0009617
2430.53	0.0009871
2440.18	0.0010884
2449.82	0.0010742
2459.47	0.0012575
2469.11	0.0011937
2478.75	0.0008576
2488.4	0.0007107
2498.04	0.0006025
2507.69	0.0005549
2517.33	0.0005737
2526.98	0.0006992
2536.62	0.0006627
2546.27	0.0007181
2555.91	0.0005963
2565.56	0.0007613
2575.2	0.0007068
2584.85	0.0008266
2594.49	0.0009967
2604.14	0.0013111
2613.78	0.001418
2623.43	0.001368
2633.07	0.0010083
2642.72	0.0008312
2652.36	0.0008044
2662.01	0.000867
2671.65	0.000973
2681.29	0.0010034
2690.94	0.0013038
2700.58	0.001368
2710.23	0.0010561
2719.87	0.0008072
2729.52	0.0006942
2739.16	0.0006054
2748.81	0.0007354
2758.45	0.0008159
2768.1	0.0006282
2777.74	0.0010175
2787.39	0.0008967
2797.03	0.0009282
2806.68	0.0010258
2816.32	0.0012057
2825.97	0.0012981
2835.61	0.001518
2845.26	0.001618
2854.9	0.001468
2864.55	0.001768
2874.19	0.002108
2883.84	0.002098
2893.48	0.001978
2903.12	0.001628
2912.77	0.001498
2922.41	0.0012469
2932.06	0.0011372
2941.7	0.0010877
2951.35	0.0010904
2960.99	0.001178
2970.64	0.0010026
2980.28	0.0006563
2989.93	0.0009152
2999.57	0.000802
3009.22	0.0012198
3018.86	0.0011959
3028.51	0.001528
3038.15	0.002178
3047.8	0.002878
3057.44	0.002528
3067.09	0.003918
3076.73	0.005518
3086.38	0.004888
3096.02	0.004508
3105.67	0.001678
3115.31	0.0009983
3124.95	0.000729
3134.6	0.0005213
3144.24	0.0005967
3153.89	0.0005479
3163.53	0.000322413
3173.18	0.0007782
3182.82	0.0004616
3192.47	0.0005761
3202.11	0.0009497
3211.76	0.0006014
3221.4	0.0004425
3231.05	0.00058
3240.69	0.0004265
3250.34	0.0005389
3259.98	0.0003808
3269.63	0.0007112
3279.27	0.0010019
3288.92	0.0004279
3298.56	0.0004937
3308.21	0.0005716
3317.85	0.001003
3327.49	0.0009112
3337.14	0.0009775
3346.78	0.0011835
3356.43	0.000719
3366.07	0.000269
3375.72	0.0004953
3385.36	0.0006813
3395.01	0.0002451
3404.65	0.000137
3414.3	0.0002203
3423.94	0.00039438
3433.59	6.4e-05
3443.23	0.000214
3452.88	0.00036153
3462.52	0.0004539
3472.17	0.0004197
3481.81	0.0002633
3491.46	0.00036613
3501.1	0.000158
3510.75	0.000451
3520.39	0.0004546
3530.04	0.00036959
3539.68	0.0005727
3549.32	0.00041464
3558.97	0.000146
3568.61	0.0003473
3578.26	0.0002726
3587.9	0.0002639
3597.55	0.0006924
3607.19	0.0002399
3616.84	0.00037086
3626.48	0.00041685
3636.13	0.0004427
3645.77	0.00040899
3655.42	0.00034832
3665.06	0.00035272
3674.71	0.00033226
3684.35	0.00038053
3694	0.0005088
3703.64	0.0004317
3713.29	0.0002864
3722.93	0.0004725
3732.58	0.0002442
3742.22	0.0002356
3751.86	0.0002909
3761.51	0.0005607
3771.15	0.00031559
3780.8	9.5e-05
3790.44	0.0005442
3800.09	0.00039223
3809.73	0.0005759
3819.38	0.00035394
3829.02	0.0006427
3838.67	0.0005801
3848.31	0.000488
3857.96	0.00035014
3867.6	0.000476
3877.25	0.0003123
3886.89	0.00036825
3896.54	0.00040976
3906.18	0.000508
3915.83	0.0004733
3925.47	0.000542
3935.12	0.000571
3944.76	0.0007332
3954.41	0.0005607
3964.05	0.0004891
3973.69	0.0004657
3983.34	0.0004498
3992.98	0.0006149
