Infrared Spectrum: 1-(4-Methylphenyl)-3-(2-thienyl)-prop-2-en-1-one
Formula: C 14 H 12 O S
CAS: 6028-89-3
State: gas
Origin: EPA-IR VAPOR PHASE LIBRARY
1/CM	ABSORBANCE
549.8	0.016014
559.445	0.037974
569.09	0.124874
578.734	0.087894
588.379	0.024454
598.024	0.012574
607.669	0.010574
617.313	0.007394
626.958	0.006364
636.603	0.009534
646.248	0.009574
655.893	0.013434
665.537	0.025384
675.182	0.068134
684.827	0.091494
694.472	0.213924
704.116	0.187494
713.761	0.086504
723.406	0.057824
733.051	0.039854
742.695	0.041014
752.34	0.019974
761.985	0.015584
771.63	0.018604
781.275	0.030184
790.919	0.044794
800.564	0.110864
810.209	0.146604
819.854	0.082704
829.498	0.052594
839.143	0.054014
848.788	0.050654
858.433	0.055954
868.078	0.045344
877.722	0.028894
887.367	0.019874
897.012	0.012794
906.657	0.011444
916.301	0.013294
925.946	0.016614
935.591	0.025554
945.236	0.041544
954.88	0.068494
964.525	0.116454
974.17	0.102244
983.815	0.073204
993.46	0.064764
1003.1	0.146964
1012.75	0.329644
1022.39	0.170934
1032.04	0.106474
1041.68	0.067414
1051.33	0.045324
1060.97	0.041444
1070.62	0.059204
1080.26	0.045384
1089.91	0.021634
1099.55	0.016804
1109.2	0.022444
1118.84	0.030684
1128.49	0.023414
1138.13	0.019874
1147.78	0.021294
1157.42	0.029104
1167.07	0.057854
1176.71	0.261824
1186.36	0.223564
1196	0.142114
1205.64	0.204424
1215.29	0.145564
1224.93	0.163814
1234.58	0.156184
1244.22	0.114424
1253.87	0.100894
1263.51	0.147634
1273.16	0.226254
1282.8	0.399934
1292.45	0.276424
1302.09	0.203524
1311.74	0.187784
1321.38	0.162944
1331.03	0.091474
1340.67	0.046124
1350.32	0.060964
1359.96	0.114594
1369.61	0.067594
1379.25	0.035334
1388.9	0.046554
1398.54	0.059324
1408.18	0.073334
1417.83	0.069494
1427.47	0.050554
1437.12	0.033394
1446.76	0.025794
1456.41	0.023284
1466.05	0.022364
1475.7	0.019984
1485.34	0.019824
1494.99	0.023564
1504.63	0.033184
1514.28	0.053464
1523.92	0.040784
1533.57	0.028564
1543.21	0.028544
1552.86	0.033884
1562.5	0.049294
1572.15	0.076514
1581.79	0.124274
1591.44	0.271264
1601.08	0.643824
1610.73	0.722154
1620.37	0.251644
1630.01	0.106744
1639.66	0.082174
1649.3	0.088414
1658.95	0.165674
1668.59	0.335714
1678.24	0.382214
1687.88	0.169924
1697.53	0.057604
1707.17	0.033814
1716.82	0.026094
1726.46	0.017754
1736.11	0.012224
1745.75	0.011724
1755.4	0.012574
1765.04	0.012914
1774.69	0.014084
1784.33	0.019804
1793.98	0.021484
1803.62	0.015654
1813.27	0.013344
1822.91	0.011994
1832.55	0.009124
1842.2	0.007324
1851.84	0.007244
1861.49	0.007364
1871.13	0.007654
1880.78	0.008614
1890.42	0.010314
1900.07	0.010744
1909.71	0.011014
1919.36	0.009854
1929	0.007664
1938.65	0.006674
1948.29	0.005174
1957.94	0.004574
1967.58	0.004524
1977.23	0.004424
1986.87	0.004624
1996.52	0.004834
2006.16	0.004644
2015.81	0.004724
2025.45	0.004984
2035.1	0.004404
2044.74	0.004324
2054.38	0.003684
2064.03	0.002914
2073.67	0.003134
2083.32	0.003284
2092.96	0.003554
2102.61	0.003644
2112.25	0.003234
2121.9	0.003464
2131.54	0.003324
2141.19	0.002954
2150.83	0.002784
2160.48	0.004264
2170.12	0.003854
2179.77	0.002644
2189.41	0.002294
2199.06	0.002094
2208.7	0.002174
2218.35	0.002354
2227.99	0.002194
2237.64	0.002264
2247.28	0.002724
2256.92	0.002904
2266.57	0.003464
2276.21	0.003934
2285.86	0.004044
2295.5	0.004674
2305.15	0.004574
2314.79	0.004134
2324.44	0.003814
2334.08	0.003714
2343.73	0.003204
2353.37	0.003014
2363.02	0.003144
2372.66	0.003314
2382.31	0.003634
2391.95	0.003464
2401.6	0.003604
2411.24	0.003694
2420.89	0.003894
2430.53	0.003784
2440.18	0.003874
2449.82	0.004134
2459.47	0.004674
2469.11	0.004434
2478.75	0.003384
2488.4	0.002864
2498.04	0.002654
2507.69	0.002384
2517.33	0.002504
2526.98	0.002624
2536.62	0.003064
2546.27	0.003294
2555.91	0.003484
2565.56	0.003904
2575.2	0.004384
2584.85	0.004914
2594.49	0.004974
2604.14	0.004924
2613.78	0.005694
2623.43	0.005744
2633.07	0.004654
2642.72	0.003304
2652.36	0.002674
2662.01	0.002484
2671.65	0.002464
2681.29	0.003024
2690.94	0.003164
2700.58	0.003434
2710.23	0.003294
2719.87	0.003194
2729.52	0.003664
2739.16	0.004804
2748.81	0.004014
2758.45	0.003044
2768.1	0.003074
2777.74	0.003584
2787.39	0.004134
2797.03	0.004684
2806.68	0.005474
2816.32	0.006314
2825.97	0.007194
2835.61	0.008654
2845.26	0.010534
2854.9	0.013234
2864.55	0.020104
2874.19	0.028964
2883.84	0.030744
2893.48	0.027564
2903.12	0.025504
2912.77	0.028124
2922.41	0.041014
2932.06	0.063604
2941.7	0.048904
2951.35	0.026364
2960.99	0.020054
2970.64	0.019074
2980.28	0.020664
2989.93	0.024974
2999.57	0.031614
3009.22	0.036294
3018.86	0.042174
3028.51	0.075044
3038.15	0.082214
3047.8	0.053524
3057.44	0.044474
3067.09	0.047084
3076.73	0.053264
3086.38	0.053894
3096.02	0.042184
3105.67	0.017274
3115.31	0.014754
3124.95	0.010884
3134.6	0.006404
3144.24	0.003954
3153.89	0.002804
3163.53	0.002074
3173.18	0.001874
3182.82	0.001714
3192.47	0.001614
3202.11	0.001794
3211.76	0.001764
3221.4	0.001784
3231.05	0.001744
3240.69	0.001604
3250.34	0.001684
3259.98	0.002054
3269.63	0.002844
3279.27	0.003114
3288.92	0.002644
3298.56	0.002634
3308.21	0.003274
3317.85	0.003824
3327.49	0.004434
3337.14	0.005904
3346.78	0.005854
3356.43	0.003054
3366.07	0.001584
3375.72	0.001474
3385.36	0.0010304
3395.01	0.0009692
3404.65	0.0005269
3414.3	0.0006816
3423.94	0.0005755
3433.59	0.0007424
3443.23	0.0004919
3452.88	0.00043033
3462.52	0.0003183
3472.17	0.0006369
3481.81	0.00037607
3491.46	0.0003228
3501.1	0.0004819
3510.75	0.0003065
3520.39	0.000176
3530.04	0.0002965
3539.68	0.0004914
3549.32	0.000261
3558.97	0.000142
3568.61	0.0002839
3578.26	0.000363355
3587.9	0.0006016
3597.55	0.0005883
3607.19	0.00044907
3616.84	0.0006625
3626.48	0.00046002
3636.13	0.0007397
3645.77	0.0007101
3655.42	0.0011301
3665.06	0.001414
3674.71	0.0011376
3684.35	0.0007612
3694	0.0010415
3703.64	0.0011024
3713.29	0.000894
3722.93	0.0009897
3732.58	0.0009763
3742.22	0.0009332
3751.86	0.0007052
3761.51	0.0007231
3771.15	0.0008313
3780.8	0.0006324
3790.44	0.0007645
3800.09	0.0010184
3809.73	0.0009127
3819.38	0.001854
3829.02	0.002114
3838.67	0.002134
3848.31	0.001464
3857.96	0.0010948
3867.6	0.0010694
3877.25	0.0010483
3886.89	0.001414
3896.54	0.0012056
3906.18	0.0012433
3915.83	0.0013506
3925.47	0.001674
3935.12	0.002314
3944.76	0.002564
3954.41	0.002344
3964.05	0.002144
3973.69	0.001374
3983.34	0.0010766
3992.98	0.0010412
