Infrared Spectrum: GLYCINE, N-[(2-CHLOROETHYL)CARBAMOYL]-N-NITROSO-, ETHYL ESTER
Formula: C7 H12 Cl N3 O4
CAS: 60285-28-1
State: SOLID (0.7 mg / 650 mg KBr DISC)
Class: COBLENTZ III
Instrument: PERKIN-ELMER 221 (GRATING)
Instrument parameters: FILTER CHANGES AT 2490, 980 CM^-^1, GRATING FOR 4000-1428 CM^-^1, NaCl PRISM FOR 1428-650 CM^-^1
Sampling: TRANSMISSION
Resolution: 4
Origin: SOUTHERN RESEARCH INST.
1/CM	TRANSMITTANCE
593.252	0.778
602.823	0.774
612.393	0.754
621.964	0.709
631.534	0.676
641.105	0.757
650.675	0.702
660.246	0.745
669.816	0.841
679.387	0.869
688.957	0.879
698.528	0.881
708.098	0.866
717.669	0.816
727.24	0.895
736.81	0.911
746.381	0.895
755.951	0.829
765.522	0.794
775.092	0.844
784.663	0.9
794.233	0.912
803.804	0.903
813.374	0.899
822.945	0.911
832.516	0.892
842.086	0.839
851.657	0.78
861.227	0.901
870.798	0.904
880.368	0.886
889.939	0.86
899.509	0.8
909.08	0.589
918.65	0.581
928.221	0.747
937.791	0.622
947.362	0.784
956.933	0.824
966.503	0.874
976.074	0.9
985.644	0.908
995.215	0.904
1004.79	0.853
1014.36	0.804
1023.93	0.745
1033.5	0.828
1043.07	0.879
1052.64	0.867
1062.21	0.784
1071.78	0.564
1081.35	0.749
1090.92	0.813
1100.49	0.611
1110.06	0.734
1119.63	0.855
1129.2	0.886
1138.77	0.876
1148.34	0.865
1157.91	0.856
1167.48	0.826
1177.05	0.772
1186.63	0.584
1196.2	0.678
1205.77	0.765
1215.34	0.732
1224.91	0.616
1234.48	0.42
1244.05	0.432
1253.62	0.653
1263.19	0.736
1272.76	0.773
1282.33	0.747
1291.9	0.71
1301.47	0.8
1311.04	0.824
1320.61	0.847
1330.18	0.82
1339.75	0.749
1349.32	0.699
1358.9	0.792
1368.47	0.667
1378.04	0.582
1387.61	0.692
1397.18	0.783
1406.75	0.87
1416.32	0.845
1425.89	0.776
1435.46	0.765
1445.03	0.82
1454.6	0.856
1464.17	0.852
1473.74	0.744
1483.31	0.774
1492.88	0.53
1502.45	0.287
1512.02	0.571
1521.59	0.723
1531.16	0.494
1540.74	0.427
1550.31	0.581
1559.88	0.767
1569.45	0.834
1579.02	0.849
1588.59	0.859
1598.16	0.865
1607.73	0.866
1617.3	0.863
1626.87	0.859
1636.44	0.855
1646.01	0.852
1655.58	0.848
1665.15	0.842
1674.72	0.831
1684.29	0.741
1693.86	0.714
1703.43	0.626
1713.01	0.324
1722.58	0.423
1732.15	0.338
1741.72	0.215
1751.29	0.537
1760.86	0.696
1770.43	0.792
1780	0.816
1789.57	0.839
1799.14	0.85
1808.71	0.86
1818.28	0.865
1827.85	0.868
1837.42	0.871
1846.99	0.874
1856.56	0.877
1866.13	0.879
1875.7	0.881
1885.27	0.882
1894.85	0.884
1904.42	0.885
1913.99	0.886
1923.56	0.886
1933.13	0.886
1942.7	0.886
1952.27	0.886
1961.84	0.885
1971.41	0.884
1980.98	0.884
1990.55	0.883
2000.12	0.882
2009.69	0.881
2019.26	0.88
2028.83	0.879
2038.4	0.878
2047.97	0.877
2057.54	0.877
2067.12	0.876
2076.69	0.876
2086.26	0.876
2095.83	0.876
2105.4	0.876
2114.97	0.876
2124.54	0.876
2134.11	0.876
2143.68	0.876
2153.25	0.875
2162.82	0.875
2172.39	0.875
2181.96	0.875
2191.53	0.876
2201.1	0.877
2210.67	0.877
2220.24	0.877
2229.81	0.877
2239.38	0.876
2248.96	0.875
2258.53	0.874
2268.1	0.873
2277.67	0.873
2287.24	0.871
2296.81	0.87
2306.38	0.868
2315.95	0.866
2325.52	0.864
2335.09	0.862
2344.66	0.86
2354.23	0.86
2363.8	0.861
2373.37	0.865
2382.94	0.869
2392.51	0.868
2402.08	0.867
2411.65	0.866
2421.23	0.864
2430.8	0.864
2440.37	0.864
2449.94	0.864
2459.51	0.865
2469.08	0.866
2478.65	0.867
2488.22	0.868
2497.79	0.868
2507.36	0.868
2516.93	0.867
2526.5	0.866
2536.07	0.865
2545.64	0.864
2555.21	0.864
2564.78	0.864
2574.35	0.863
2583.92	0.862
2593.49	0.861
2603.07	0.86
2612.64	0.86
2622.21	0.861
2631.78	0.862
2641.35	0.862
2650.92	0.863
2660.49	0.863
2670.06	0.862
2679.63	0.861
2689.2	0.86
2698.77	0.86
2708.34	0.858
2717.91	0.857
2727.48	0.857
2737.05	0.858
2746.62	0.858
2756.19	0.857
2765.76	0.857
2775.34	0.855
2784.91	0.853
2794.48	0.853
2804.05	0.853
2813.62	0.852
2823.19	0.849
2832.76	0.848
2842.33	0.843
2851.9	0.836
2861.47	0.834
2871.04	0.834
2880.61	0.835
2890.18	0.835
2899.75	0.83
2909.32	0.819
2918.89	0.805
2928.46	0.802
2938.03	0.789
2947.6	0.794
2957.18	0.782
2966.75	0.71
2976.32	0.754
2985.89	0.755
2995.46	0.745
3005.03	0.789
3014.6	0.76
3024.17	0.803
3033.74	0.826
3043.31	0.831
3052.88	0.832
3062.45	0.832
3072.02	0.834
3081.59	0.836
3091.16	0.838
3100.73	0.839
3110.3	0.841
3119.87	0.841
3129.45	0.84
3139.02	0.839
3148.59	0.838
3158.16	0.836
3167.73	0.835
3177.3	0.832
3186.87	0.831
3196.44	0.827
3206.01	0.825
3215.58	0.822
3225.15	0.818
3234.72	0.815
3244.29	0.811
3253.86	0.807
3263.43	0.802
3273	0.793
3282.57	0.787
3292.14	0.772
3301.71	0.758
3311.29	0.728
3320.86	0.717
3330.43	0.696
3340	0.627
3349.57	0.476
3359.14	0.384
3368.71	0.518
3378.28	0.692
3387.85	0.729
3397.42	0.736
3406.99	0.738
3416.56	0.741
3426.13	0.747
3435.7	0.754
3445.27	0.757
3454.84	0.758
3464.41	0.758
3473.98	0.759
3483.56	0.761
3493.13	0.762
3502.7	0.765
3512.27	0.767
3521.84	0.769
3531.41	0.771
3540.98	0.781
3550.55	0.787
3560.12	0.788
3569.69	0.789
3579.26	0.794
3588.83	0.798
3598.4	0.801
3607.97	0.807
3617.54	0.809
3627.11	0.81
3636.68	0.811
3646.25	0.812
3655.82	0.812
3665.4	0.812
3674.97	0.812
3684.54	0.812
3694.11	0.81
3703.68	0.811
3713.25	0.811
3722.82	0.811
3732.39	0.81
3741.96	0.809
3751.53	0.808
3761.1	0.808
3770.67	0.809
3780.24	0.811
3789.81	0.812
3799.38	0.812
3808.95	0.811
3818.52	0.809
3828.09	0.809
3837.67	0.808
3847.24	0.807
3856.81	0.805
3866.38	0.805
3875.95	0.804
3885.52	0.804
3895.09	0.804
3904.66	0.805
3914.23	0.805
3923.8	0.805
3933.37	0.805
3942.94	0.805
3952.51	0.805
3962.08	0.805
3971.65	0.804
3981.22	0.804
3990.79	0.803
4000.36	0.802
4009.93	0.802
