Infrared Spectrum: TRIPHENYL GUANIDINE
Formula: C19 H17 N3
CAS: 603-53-2
State: SOLID (MINERAL OIL MULL)
Class: COBLENTZ
Instrument: Not specified, most likely a prism, grating, or hybrid spectrometer.
Sampling: TRANSMISSION
Resolution: 4
Origin: WYANDOTTE CHEMICALS CORP., WYANDOTTE, MICHIGAN, USA
MICROMETERS	TRANSMITTANCE
2.027	0.215
2.06786	0.218
2.10871	0.222
2.14957	0.223
2.19042	0.229
2.23128	0.237
2.27213	0.242
2.31299	0.252
2.35384	0.256
2.3947	0.263
2.43556	0.27
2.47641	0.275
2.51727	0.28
2.55812	0.29
2.59898	0.304
2.63983	0.317
2.68069	0.328
2.72154	0.34
2.7624	0.35
2.80326	0.358
2.84411	0.37
2.88497	0.37
2.92582	0.384
2.96668	0.364
3.00753	0.305
3.04839	0.311
3.08924	0.321
3.1301	0.329
3.17095	0.324
3.21181	0.328
3.25267	0.311
3.29352	0.261
3.33438	0.167
3.37523	0.075
3.41609	0.027
3.45694	0.041
3.4978	0.047
3.53865	0.188
3.57951	0.319
3.62037	0.34
3.66122	0.34
3.70208	0.35
3.74293	0.367
3.78379	0.389
3.82464	0.422
3.8655	0.444
3.90635	0.452
3.94721	0.471
3.98807	0.488
4.02892	0.499
4.06978	0.511
4.11063	0.523
4.15149	0.535
4.19234	0.558
4.2332	0.562
4.27405	0.565
4.31491	0.574
4.35577	0.593
4.39662	0.613
4.43748	0.63
4.47833	0.637
4.51919	0.651
4.56004	0.659
4.6009	0.67
4.64175	0.673
4.68261	0.69
4.72346	0.7
4.76432	0.709
4.80518	0.717
4.84603	0.735
4.88689	0.745
4.92774	0.755
4.9686	0.758
5.00945	0.762
5.05031	0.769
5.09116	0.781
5.13202	0.794
5.17288	0.798
5.21373	0.788
5.25459	0.798
5.29544	0.818
5.3363	0.834
5.37715	0.837
5.41801	0.835
5.45886	0.847
5.49972	0.863
5.54058	0.871
5.58143	0.876
5.62229	0.88
5.66314	0.89
5.704	0.907
5.74485	0.902
5.78571	0.902
5.82656	0.907
5.86742	0.905
5.90828	0.883
5.94913	0.827
5.98999	0.748
6.03084	0.536
6.0717	0.323
6.11255	0.27
6.15341	0.377
6.19426	0.478
6.23512	0.138
6.27597	0.119
6.31683	0.16
6.35769	0.302
6.39854	0.252
6.4394	0.141
6.48025	0.128
6.52111	0.172
6.56196	0.184
6.60282	0.153
6.64367	0.104
6.68453	0.082
6.72539	0.124
6.76624	0.16
6.8071	0.165
6.84795	0.189
6.88881	0.174
6.92966	0.15
6.97052	0.215
7.01137	0.393
7.05223	0.482
7.09309	0.531
7.13394	0.558
7.1748	0.55
7.21565	0.464
7.25651	0.415
7.29736	0.536
7.33822	0.608
7.37907	0.654
7.41993	0.659
7.46079	0.61
7.50164	0.444
7.5425	0.22
7.58335	0.152
7.62421	0.234
7.66506	0.312
7.70592	0.364
7.74677	0.408
7.78763	0.447
7.82849	0.553
7.86934	0.577
7.9102	0.447
7.95105	0.258
7.99191	0.251
8.03276	0.295
8.07362	0.268
8.11447	0.275
8.15533	0.369
8.19618	0.446
8.23704	0.505
8.2779	0.531
8.31875	0.574
8.35961	0.6
8.40046	0.615
8.44132	0.623
8.48217	0.579
8.52303	0.553
8.56388	0.605
8.60474	0.623
8.6456	0.596
8.68645	0.61
8.72731	0.644
8.76816	0.661
8.80902	0.678
8.84987	0.68
8.89073	0.678
8.93158	0.663
8.97244	0.647
9.0133	0.639
9.05415	0.651
9.09501	0.658
9.13586	0.676
9.17672	0.688
9.21757	0.685
9.25843	0.611
9.29928	0.509
9.34014	0.611
9.381	0.694
9.42185	0.735
9.46271	0.753
9.50356	0.758
9.54442	0.76
9.58527	0.772
9.62613	0.774
9.66698	0.764
9.70784	0.736
9.74869	0.659
9.78955	0.707
9.83041	0.729
9.87126	0.75
9.91212	0.788
9.95297	0.81
9.99383	0.817
10.0347	0.81
10.0755	0.733
10.1164	0.765
10.1573	0.8
10.1981	0.815
10.239	0.81
10.2798	0.817
10.3207	0.815
10.3615	0.808
10.4024	0.769
10.4432	0.776
10.4841	0.81
10.5249	0.829
10.5658	0.846
10.6067	0.859
10.6475	0.864
10.6884	0.876
10.7292	0.87
10.7701	0.868
10.8109	0.87
10.8518	0.876
10.8926	0.88
10.9335	0.864
10.9744	0.852
11.0152	0.762
11.0561	0.617
11.0969	0.618
11.1378	0.675
11.1786	0.75
11.2195	0.808
11.2603	0.839
11.3012	0.864
11.3421	0.875
11.3829	0.9
11.4238	0.902
11.4646	0.902
11.5055	0.9
11.5463	0.899
11.5872	0.883
11.628	0.864
11.6689	0.851
11.7098	0.83
11.7506	0.818
11.7915	0.808
11.8323	0.782
11.8732	0.777
11.914	0.747
11.9549	0.694
11.9957	0.694
12.0366	0.772
12.0775	0.837
12.1183	0.863
12.1592	0.873
12.2	0.88
12.2409	0.883
12.2817	0.894
12.3226	0.899
12.3634	0.902
12.4043	0.919
12.4452	0.924
12.486	0.924
12.5269	0.921
12.5677	0.916
12.6086	0.917
12.6494	0.917
12.6903	0.919
12.7311	0.912
12.772	0.888
12.8129	0.871
12.8537	0.854
12.8946	0.832
12.9354	0.794
12.9763	0.702
13.0171	0.548
13.058	0.459
13.0988	0.459
13.1397	0.463
13.1806	0.422
13.2214	0.398
13.2623	0.374
13.3031	0.283
13.344	0.237
13.3848	0.347
13.4257	0.555
13.4665	0.594
13.5074	0.548
13.5483	0.49
13.5891	0.463
13.63	0.458
13.6708	0.456
13.7117	0.512
13.7525	0.586
13.7934	0.646
13.8342	0.675
13.8751	0.705
13.916	0.728
13.9568	0.755
13.9977	0.782
14.0385	0.803
14.0794	0.822
14.1202	0.837
14.1611	0.851
14.2019	0.854
14.2428	0.844
14.2837	0.765
14.3245	0.618
14.3654	0.487
14.4062	0.406
14.4471	0.353
14.4879	0.312
14.5288	0.29
14.5696	0.307
14.6105	0.355
14.6514	0.406
14.6922	0.473
14.7331	0.541
14.7739	0.596
14.8148	0.63
14.8556	0.675
14.8965	0.692
14.9373	0.705
14.9782	0.707
15.0191	0.695
15.0599	0.676
15.1008	0.678
15.1416	0.695
15.1825	0.702
15.2233	0.712
15.2642	0.711
15.305	0.704
15.3459	0.7
15.3868	0.699
15.4276	0.692
15.4685	0.682
15.5093	0.671
15.5502	0.664
15.591	0.661
15.6319	0.649
15.6727	0.637
15.7136	0.622
15.7545	0.598
15.7953	0.586
15.8362	0.572
15.877	0.565
15.9179	0.562
15.9587	0.555
15.9996	0.548
