Infrared Spectrum: TRIS(P-NITROPHENYL)METHANE
Formula: C19 H13 N3 O6
CAS: 603-49-6
State: SOLID (1.0% IN KBr PELLET)
Class: COBLENTZ
Instrument: Not specified, most likely a prism, grating, or hybrid spectrometer.
Sampling: TRANSMISSION
Path length: 0.0355 CM THICK
Resolution: 4
Origin: ANDERSON PHYSICAL LABORATORY
1/CM	TRANSMITTANCE
665.206	0.622
673.654	0.5111
682.102	0.509
690.55	0.2572
698.998	0.043
707.446	0.5325
715.894	0.756
724.343	0.6421
732.791	0.3082
741.239	0.3149
749.687	0.168
758.135	0.4543
766.583	0.9209
775.031	0.98
783.479	0.972
791.927	0.968
800.375	0.912
808.823	0.7301
817.271	0.861
825.719	0.804
834.168	0.64
842.616	0.2282
851.064	0.6533
859.512	0.893
867.96	0.723
876.408	0.8641
884.856	0.598
893.304	0.969
901.752	0.971
910.2	0.945
918.648	0.795
927.096	0.9047
935.545	0.968
943.993	0.959
952.441	0.941
960.889	0.8761
969.337	0.885
977.785	0.884
986.233	0.87
994.681	0.852
1003.13	0.73
1011.58	0.7382
1020.03	0.8237
1028.47	0.6274
1036.92	0.8518
1045.37	0.888
1053.82	0.875
1062.27	0.855
1070.71	0.79
1079.16	0.696
1087.61	0.769
1096.06	0.724
1104.51	0.5292
1112.95	0.4238
1121.4	0.8279
1129.85	0.887
1138.3	0.869
1146.75	0.843
1155.19	0.718
1163.64	0.781
1172.09	0.753
1180.54	0.697
1188.99	0.702
1197.43	0.7859
1205.88	0.816
1214.33	0.803
1222.78	0.771
1231.23	0.744
1239.68	0.697
1248.12	0.651
1256.57	0.609
1265.02	0.687
1273.47	0.715
1281.92	0.6581
1290.36	0.628
1298.81	0.6
1307.26	0.535
1315.71	0.475
1324.16	0.374
1332.6	0.276
1341.05	0.097
1349.5	0.031
1357.95	0.1349
1366.4	0.4448
1374.84	0.7999
1383.29	0.84
1391.74	0.854
1400.19	0.833
1408.64	0.798
1417.09	0.787
1425.53	0.795
1433.98	0.748
1442.43	0.6131
1450.88	0.362
1459.33	0.5808
1467.77	0.634
1476.22	0.5171
1484.67	0.369
1493.12	0.165
1501.57	0.196
1510.01	0.043
1518.46	0.1109
1526.91	0.33
1535.36	0.5089
1543.81	0.7889
1552.25	0.833
1560.7	0.845
1569.15	0.818
1577.6	0.658
1586.05	0.473
1594.49	0.299
1602.94	0.335
1611.39	0.7178
1619.84	0.914
1628.29	0.929
1636.74	0.935
1645.18	0.935
1653.63	0.932
1662.08	0.902
1670.53	0.864
1678.98	0.882
1687.42	0.915
1695.87	0.933
1704.32	0.942
1712.77	0.917
1721.22	0.903
1729.66	0.902
1738.11	0.906
1746.56	0.909
1755.01	0.902
1763.46	0.884
1771.9	0.903
1780.35	0.932
1788.8	0.926
1797.25	0.905
1805.7	0.86
1814.14	0.861
1822.59	0.897
1831.04	0.92
1839.49	0.921
1847.94	0.926
1856.39	0.92
1864.83	0.918
1873.28	0.905
1881.73	0.861
1890.18	0.857
1898.63	0.879
1907.07	0.879
1915.52	0.888
1923.97	0.884
1932.42	0.864
1940.87	0.83
1949.31	0.809
1957.76	0.837
1966.21	0.848
1974.66	0.872
1983.11	0.87
1991.55	0.872
2000	0.896
2008.45	0.897
2016.9	0.8965
2025.35	0.896
2033.79	0.893
2042.24	0.8894
2050.69	0.888
2059.14	0.8854
2067.59	0.8819
2076.04	0.881
2084.48	0.881
2092.93	0.881
2101.38	0.8748
2109.83	0.8713
2118.28	0.87
2126.72	0.8691
2135.17	0.8657
2143.62	0.8636
2152.07	0.8603
2160.52	0.86
2168.96	0.858
2177.41	0.8561
2185.86	0.8543
2194.31	0.8491
2202.76	0.846
2211.2	0.847
2219.65	0.849
2228.1	0.848
2236.55	0.8436
2245	0.8349
2253.44	0.83
2261.89	0.8269
2270.34	0.8234
2278.79	0.8184
2287.24	0.813
2295.69	0.8098
2304.13	0.8029
2312.58	0.8004
2321.03	0.798
2329.48	0.8
2337.93	0.8034
2346.37	0.806
2354.82	0.806
2363.27	0.8068
2371.72	0.8047
2380.17	0.8009
2388.61	0.798
2397.06	0.7958
2405.51	0.7865
2413.96	0.7815
2422.41	0.7691
2430.85	0.766
2439.3	0.7705
2447.75	0.7795
2456.2	0.784
2464.65	0.7837
2473.09	0.783
2481.54	0.7802
2489.99	0.777
2498.44	0.7747
2506.89	0.7714
2515.34	0.768
2523.78	0.766
2532.23	0.7626
2540.68	0.7564
2549.13	0.7531
2557.58	0.7497
2566.02	0.7476
2574.47	0.747
2582.92	0.7452
2591.37	0.745
2599.82	0.745
2608.26	0.7443
2616.71	0.742
2625.16	0.742
2633.61	0.7415
2642.06	0.741
2650.5	0.739
2658.95	0.7375
2667.4	0.735
2675.85	0.735
2684.3	0.7329
2692.74	0.729
2701.19	0.7243
2709.64	0.721
2718.09	0.72
2726.54	0.7193
2734.99	0.7174
2743.43	0.7124
2751.88	0.7089
2760.33	0.706
2768.78	0.705
2777.23	0.7003
2785.67	0.68
2794.12	0.6555
2802.57	0.6466
2811.02	0.645
2819.47	0.652
2827.91	0.654
2836.36	0.652
2844.81	0.6491
2853.26	0.6436
2861.71	0.635
2870.15	0.633
2878.6	0.633
2887.05	0.633
2895.5	0.633
2903.95	0.633
2912.39	0.633
2920.84	0.631
2929.29	0.6304
2937.74	0.6255
2946.19	0.6214
2954.64	0.6105
2963.08	0.598
2971.53	0.5706
2979.98	0.5436
2988.43	0.5228
2996.88	0.5058
3005.32	0.465
3013.77	0.463
3022.22	0.463
3030.67	0.4637
3039.12	0.4669
3047.56	0.4821
3056.01	0.5077
3064.46	0.538
3072.91	0.5619
3081.36	0.5785
3089.8	0.6053
3098.25	0.632
3106.7	0.6421
3115.15	0.645
3123.6	0.645
3132.05	0.643
3140.49	0.6418
3148.94	0.6383
3157.39	0.6364
3165.84	0.636
3174.29	0.634
3182.73	0.633
3191.18	0.6288
3199.63	0.6252
3208.08	0.625
3216.53	0.625
3224.97	0.625
3233.42	0.6221
3241.87	0.6174
3250.32	0.6125
3258.77	0.6079
3267.21	0.6011
3275.66	0.596
3284.11	0.594
3292.56	0.5863
3301.01	0.583
3309.45	0.5792
3317.9	0.5699
3326.35	0.5576
3334.8	0.5529
3343.25	0.5477
3351.7	0.5453
3360.14	0.5385
3368.59	0.5327
3377.04	0.5267
3385.49	0.524
3393.94	0.524
3402.38	0.524
3410.83	0.524
3419.28	0.524
3427.73	0.5269
3436.18	0.5303
3444.62	0.5324
3453.07	0.533
3461.52	0.535
3469.97	0.5394
3478.42	0.5459
3486.86	0.5494
3495.31	0.553
3503.76	0.556
3512.21	0.559
3520.66	0.5615
3529.1	0.565
3537.55	0.5683
3546	0.5706
3554.45	0.574
3562.9	0.575
3571.35	0.5787
3579.79	0.5806
3588.24	0.5827
3596.69	0.583
3605.14	0.583
3613.59	0.5836
3622.03	0.584
3630.48	0.586
3638.93	0.586
3647.38	0.5847
3655.83	0.584
3664.27	0.584
3672.72	0.5821
3681.17	0.5803
3689.62	0.577
3698.07	0.5766
3706.51	0.575
3714.96	0.574
3723.41	0.575
3731.86	0.578
3740.31	0.578
3748.75	0.578
3757.2	0.5769
3765.65	0.5711
3774.1	0.5663
3782.55	0.5604
3791	0.5589
3799.44	0.557
3807.89	0.5564
3816.34	0.556
3824.79	0.554
3833.24	0.554
3841.68	0.5553
3850.13	0.5569
3858.58	0.557
3867.03	0.557
3875.48	0.557
3883.92	0.5561
3892.37	0.554
3900.82	0.553
3909.27	0.551
3917.72	0.551
3926.16	0.55
3934.61	0.546
3943.06	0.5425
