Infrared Spectrum: 4,4'-Diacetoxydiphenylpyridyl-2-methane
Formula: C 22 H 19 N O 4
CAS: 603-50-9
State: gas
Origin: EPA-IR VAPOR PHASE LIBRARY
1/CM	ABSORBANCE
501.5	0.002609
513.074	0.003859
524.648	0.002019
536.222	0.0008133
547.796	0.0008368
559.37	0.001111
570.944	0.0009686
582.518	0.0010351
594.092	0.001389
605.666	0.002129
617.24	0.003159
628.814	0.001909
640.388	0.003009
651.962	0.006459
663.536	0.005299
675.11	0.002589
686.684	0.001749
698.258	0.001229
709.832	0.001239
721.406	0.001459
732.98	0.002099
744.554	0.006779
756.128	0.003219
767.702	0.002269
779.276	0.002089
790.85	0.002409
802.423	0.002909
813.997	0.003599
825.571	0.004629
837.145	0.005619
848.719	0.004779
860.293	0.003799
871.867	0.003759
883.441	0.004509
895.015	0.006709
906.589	0.013089
918.163	0.007789
929.737	0.003159
941.311	0.002499
952.885	0.001559
964.459	0.001589
976.033	0.002539
987.607	0.004879
999.181	0.008739
1010.76	0.013899
1022.33	0.012529
1033.9	0.004169
1045.48	0.003909
1057.05	0.004029
1068.63	0.004879
1080.2	0.005679
1091.77	0.005239
1103.35	0.004919
1114.92	0.004359
1126.49	0.004429
1138.07	0.006449
1149.64	0.011349
1161.22	0.034819
1172.79	0.045809
1184.36	0.054979
1195.94	0.123349
1207.51	0.153499
1219.09	0.058129
1230.66	0.025739
1242.23	0.013569
1253.81	0.008629
1265.38	0.006319
1276.96	0.004969
1288.53	0.004119
1300.1	0.003579
1311.68	0.003019
1323.25	0.002379
1334.83	0.002309
1346.4	0.003059
1357.97	0.006719
1369.55	0.020649
1381.12	0.012149
1392.7	0.004739
1404.27	0.003609
1415.84	0.004399
1427.42	0.007569
1438.99	0.006679
1450.57	0.004399
1462.14	0.006429
1473.71	0.006999
1485.29	0.006859
1496.86	0.023219
1508.44	0.031119
1520.01	0.007899
1531.58	0.003989
1543.16	0.003299
1554.73	0.003499
1566.31	0.005609
1577.88	0.008529
1589.45	0.011109
1601.03	0.006239
1612.6	0.003969
1624.18	0.001999
1635.75	0.001579
1647.32	0.001429
1658.9	0.001369
1670.47	0.001369
1682.05	0.001449
1693.62	0.001649
1705.19	0.001939
1716.77	0.002469
1728.34	0.003609
1739.92	0.005779
1751.49	0.009979
1763.06	0.017009
1774.64	0.025809
1786.21	0.033599
1797.79	0.023309
1809.36	0.010569
1820.93	0.005729
1832.51	0.003399
1844.08	0.002309
1855.66	0.001749
1867.23	0.001429
1878.8	0.001379
1890.38	0.001509
1901.95	0.001269
1913.53	0.0010971
1925.1	0.0009128
1936.67	0.0009738
1948.25	0.0009839
1959.82	0.0010529
1971.4	0.001209
1982.97	0.0011458
1994.54	0.0011309
2006.12	0.0010174
2017.69	0.0009168
2029.27	0.0008238
2040.84	0.0007704
2052.41	0.0006833
2063.99	0.0005949
2075.56	0.0005935
2087.14	0.000656
2098.71	0.0008112
2110.28	0.0008256
2121.86	0.0006987
2133.43	0.000515
2145.01	0.0004288
2156.58	0.0003971
2168.15	0.0003792
2179.73	0.0003858
2191.3	0.0003542
2202.88	0.0003434
2214.45	0.0003249
2226.02	0.0003148
2237.6	0.0002936
2249.17	0.0002976
2260.74	0.0003458
2272.32	0.0004437
2283.89	0.0004866
2295.47	0.0004716
2307.04	0.0003866
2318.61	0.0003797
2330.19	0.0004227
2341.76	0.0004662
2353.34	0.0004701
2364.91	0.0005857
2376.48	0.000651
2388.06	0.0006265
2399.63	0.0005931
2411.21	0.0006141
2422.78	0.0005311
2434.35	0.0004561
2445.93	0.0004187
2457.5	0.0003402
2469.08	0.000341
2480.65	0.0003308
2492.22	0.0003206
2503.8	0.0003025
2515.37	0.0003207
2526.95	0.00025791
2538.52	0.0002886
2550.09	0.0002984
2561.67	0.0003197
2573.24	0.0003581
2584.82	0.0003403
2596.39	0.00026721
2607.96	0.00026667
2619.54	0.00024583
2631.11	0.00021092
2642.69	0.00022565
2654.26	0.00021405
2665.83	0.00022302
2677.41	0.0002314
2688.98	0.00022795
2700.56	0.00023651
2712.13	0.00022654
2723.7	0.00023071
2735.28	0.00021127
2746.85	0.00018931
2758.43	0.00019706
2770	0.00023042
2781.57	0.00021709
2793.15	0.00022428
2804.72	0.0002246
2816.3	0.00021394
2827.87	0.00026447
2839.44	0.0002945
2851.02	0.000393
2862.59	0.0004428
2874.17	0.0004742
2885.74	0.0006092
2897.31	0.0009346
2908.89	0.0009689
2920.46	0.0007203
2932.04	0.0006518
2943.61	0.0009222
2955.18	0.001259
2966.76	0.0007972
2978.33	0.0009083
2989.91	0.001369
3001.48	0.002309
3013.05	0.003569
3024.63	0.002959
3036.2	0.004389
3047.78	0.004069
3059.35	0.004629
3070.92	0.005989
3082.5	0.004529
3094.07	0.002269
3105.65	0.001599
3117.22	0.0011213
3128.79	0.0007586
3140.37	0.0005884
3151.94	0.0003966
3163.52	0.0002913
3175.09	0.00026469
3186.66	0.00022224
3198.24	0.000139
3209.81	0.0001408
3221.39	0.0001383
3232.96	0.0001454
3244.53	8.83e-05
3256.11	6.7e-05
3267.68	9.23e-05
3279.26	6.9e-05
3290.83	5.4e-05
3302.4	0.0001252
3313.98	8.09e-05
3325.55	0.0001023
3337.13	0.0001577
3348.7	6.8e-05
3360.27	3.2e-05
3371.85	8.27e-05
3383.42	9.93e-05
3395	6.3e-05
3406.57	5.6e-05
3418.14	8.82e-05
3429.72	6.2e-05
3441.29	4.7e-05
3452.86	6.9e-05
3464.44	8.53e-05
3476.01	0.0001445
3487.59	0.0001467
3499.16	0.0001521
3510.73	0.0001843
3522.31	0.00026179
3533.88	0.0004229
3545.46	0.0004294
3557.03	0.000354
3568.6	0.0003519
3580.18	0.0003334
3591.75	0.00021245
3603.33	0.0001092
3614.9	0.0001087
3626.47	0.0001382
3638.05	0.0001006
3649.62	0.0001146
3661.2	0.0001351
3672.77	0.00019199
3684.34	8.53e-05
3695.92	7.99e-05
3707.49	0.0001112
3719.07	0.0001479
3730.64	0.0001517
3742.21	0.0001174
3753.79	0.0001338
3765.36	4.5e-05
3776.94	0
3788.51	9.01e-05
3800.08	7.83e-05
3811.66	9.33e-05
3823.23	0.0001116
3834.81	0.0001078
3846.38	0.0001508
3857.95	4.5e-05
3869.53	6.92e-05
3881.1	6.1e-05
3892.68	8.17e-05
3904.25	0.000129
3915.82	0.0001104
3927.4	0.0001571
3938.97	7.81e-05
3950.55	0.0001019
3962.12	0.0001044
3973.69	8.85e-05
3985.27	0.0001412
3996.84	0.00015996
