Infrared Spectrum: 2,3-Dimethylbenzoic acid
Formula: C 9 H 10 O 2
CAS: 603-79-2
State: gas
Origin: EPA-IR VAPOR PHASE LIBRARY
1/CM	ABSORBANCE
501.5	0.0026704
513.074	0.0032904
524.648	0.0039804
536.222	0.0058504
547.796	0.0074804
559.37	0.0091004
570.944	0.0119904
582.518	0.0158104
594.092	0.0151004
605.666	0.0123104
617.24	0.0089504
628.814	0.0037504
640.388	0.0021304
651.962	0.0020604
663.536	0.0052204
675.11	0.0170804
686.684	0.0137004
698.258	0.0028204
709.832	0.0018604
721.406	0.0027304
732.98	0.0064704
744.554	0.0160204
756.128	0.0218604
767.702	0.0125404
779.276	0.0059304
790.85	0.0034604
802.423	0.0027304
813.997	0.0021704
825.571	0.0014404
837.145	0.0011604
848.719	0.0009425
860.293	0.0007553
871.867	0.000597
883.441	0.0005979
895.015	0.0007275
906.589	0.0007044
918.163	0.0007208
929.737	0.0007957
941.311	0.000987
952.885	0.0012904
964.459	0.0018904
976.033	0.0029304
987.607	0.0044504
999.181	0.0059204
1010.76	0.0092104
1022.33	0.0145404
1033.9	0.0140704
1045.48	0.0103704
1057.05	0.0088304
1068.63	0.0103004
1080.2	0.0158904
1091.77	0.0198104
1103.35	0.0219304
1114.92	0.0379604
1126.49	0.0541404
1138.07	0.0344704
1149.64	0.0146004
1161.22	0.0131804
1172.79	0.0139204
1184.36	0.0145804
1195.94	0.0157804
1207.51	0.0154004
1219.09	0.0130104
1230.66	0.0064604
1242.23	0.0048504
1253.81	0.0053304
1265.38	0.0065204
1276.96	0.0082104
1288.53	0.0104604
1300.1	0.0127204
1311.68	0.0156804
1323.25	0.0170704
1334.83	0.0125004
1346.4	0.0094404
1357.97	0.0079604
1369.55	0.0057204
1381.12	0.0056604
1392.7	0.0051804
1404.27	0.0038904
1415.84	0.0037204
1427.42	0.0056204
1438.99	0.0089604
1450.57	0.0105604
1462.14	0.0088404
1473.71	0.0065204
1485.29	0.0042604
1496.86	0.0028004
1508.44	0.0023004
1520.01	0.0020204
1531.58	0.0019204
1543.16	0.0019304
1554.73	0.0019904
1566.31	0.0022204
1577.88	0.0028804
1589.45	0.0035604
1601.03	0.0029304
1612.6	0.0018604
1624.18	0.0014604
1635.75	0.0012804
1647.32	0.0013104
1658.9	0.0016004
1670.47	0.0018304
1682.05	0.0021204
1693.62	0.0032104
1705.19	0.0059304
1716.77	0.0106704
1728.34	0.0182704
1739.92	0.0404304
1751.49	0.0899204
1763.06	0.0769804
1774.64	0.0253204
1786.21	0.0178604
1797.79	0.0100504
1809.36	0.0045504
1820.93	0.0025304
1832.51	0.0015404
1844.08	0.0010554
1855.66	0.0009674
1867.23	0.0012004
1878.8	0.0011904
1890.38	0.000803
1901.95	0.0005614
1913.53	0.0006212
1925.1	0.0009031
1936.67	0.0009837
1948.25	0.0006747
1959.82	0.000497
1971.4	0.0005185
1982.97	0.0004778
1994.54	0.000354
2006.12	0.0002894
2017.69	0.0002803
2029.27	0.000258
2040.84	0.0002428
2052.41	0.0002373
2063.99	0.0002405
2075.56	0.0002237
2087.14	0.0002537
2098.71	0.0003156
2110.28	0.0003365
2121.86	0.0003318
2133.43	0.0003254
2145.01	0.0003312
2156.58	0.0002919
2168.15	0.0002742
2179.73	0.0002285
2191.3	0.0002605
2202.88	0.0002327
2214.45	0.0002354
2226.02	0.0002759
2237.6	0.0002677
2249.17	0.0003068
2260.74	0.0002416
2272.32	0.0002408
2283.89	0.0002236
2295.47	0.0002324
2307.04	0.0002921
2318.61	0.0002945
2330.19	0.0003512
2341.76	0.000351
2353.34	0.0003274
2364.91	0.0002759
2376.48	0.0002718
2388.06	0.0003273
2399.63	0.0003703
2411.21	0.0003926
2422.78	0.0003642
2434.35	0.0003378
2445.93	0.0003262
2457.5	0.0003376
2469.08	0.000241
2480.65	0.0002817
2492.22	0.0002618
2503.8	0.0002131
2515.37	0.0001871
2526.95	0.00016824
2538.52	0.0002033
2550.09	0.0002189
2561.67	0.0002637
2573.24	0.0002507
2584.82	0.0002236
2596.39	0.0002041
2607.96	0.0002268
2619.54	0.0001848
2631.11	0.0001807
2642.69	0.0002414
2654.26	0.0002196
2665.83	0.0001914
2677.41	0.00017779
2688.98	0.0001838
2700.56	0.0001932
2712.13	0.0002556
2723.7	0.0003004
2735.28	0.0004436
2746.85	0.0005628
2758.43	0.000567
2770	0.0005419
2781.57	0.0006007
2793.15	0.0005843
2804.72	0.0006085
2816.3	0.000648
2827.87	0.0008245
2839.44	0.0011704
2851.02	0.0017904
2862.59	0.0027804
2874.17	0.0040704
2885.74	0.0044904
2897.31	0.0042404
2908.89	0.0046304
2920.46	0.0064804
2932.04	0.0091404
2943.61	0.0098904
2955.18	0.0090304
2966.76	0.0077104
2978.33	0.0070904
2989.91	0.0059004
3001.48	0.0047504
3013.05	0.0049904
3024.63	0.0047904
3036.2	0.0045504
3047.78	0.0047704
3059.35	0.0057504
3070.92	0.0065804
3082.5	0.0055404
3094.07	0.0030504
3105.65	0.0015204
3117.22	0.0009556
3128.79	0.0007685
3140.37	0.0005882
3151.94	0.0005756
3163.52	0.0004885
3175.09	0.0004758
3186.66	0.0003263
3198.24	0.0002576
3209.81	0.0001999
3221.39	0.00014919
3232.96	0.0001044
3244.53	0.00011241
3256.11	5.1e-05
3267.68	8.04453e-05
3279.26	4.02e-05
3290.83	2.92e-05
3302.4	2.78e-05
3313.98	8.2336e-05
3325.55	8.6752e-05
3337.13	0.00010293
3348.7	0.00013671
3360.27	7.094e-05
3371.85	8.6861e-05
3383.42	0.00011084
3395	0.00016543
3406.57	0.00011122
3418.14	9.468e-05
3429.72	0.00014333
3441.29	0.00014589
3452.86	0.0002488
3464.44	0.0003022
3476.01	0.0005714
3487.59	0.0008075
3499.16	0.0007764
3510.73	0.0006236
3522.31	0.0006862
3533.88	0.000832
3545.46	0.0017104
3557.03	0.0090504
3568.6	0.0232004
3580.18	0.0226204
3591.75	0.0074404
3603.33	0.0013704
3614.9	0.0009529
3626.47	0.0007824
3638.05	0.0003953
3649.62	0.0001946
3661.2	0.00016877
3672.77	0.00013013
3684.34	9.346e-05
3695.92	7.12e-05
3707.49	1.62e-05
3719.07	8.6396e-05
3730.64	0.00010921
3742.21	4.91e-05
3753.79	0.00011569
3765.36	8.6956e-05
3776.94	9.0374e-05
3788.51	3.66e-05
3800.08	1.07e-05
3811.66	6.41e-05
3823.23	0.0001859
3834.81	0.00013509
3846.38	0.00014393
3857.95	0.0002201
3869.53	0.00013483
3881.1	0.0002232
3892.68	0.0001165
3904.25	0.0002202
3915.82	0.00010983
3927.4	0.00015365
3938.97	0.00011093
3950.55	0.00013564
3962.12	0.00012328
3973.69	6.44e-05
3985.27	0.00013556
3996.84	0.00013748
