Infrared Spectrum: Phosphine, triphenyl-
Formula: C18 H15 P
CAS: 603-35-0
State: SOLUTION (11% CCl4 FOR 3800-1300, 11% CS2 FOR 1300-650, AND 11% CCl4 FOR 650-250)
Class: COBLENTZ II
Instrument: PERKIN-ELMER 521 (GRATING)
Instrument parameters: FILTERS AT 3150, 2500, 2000, 1150, 700, 410. GRATING CHANGES: 2000, 630
Path length: 0.011 CM, 0.011 CM, AND 0.010 CM
Resolution: 2
Origin: DOW CORNING CORP.
1/CM	TRANSMITTANCE
241	0.927
250	0.9257
259	0.9236
268	0.9251
277	0.9241
286	0.922
295	0.9196
304	0.9181
313	0.9172
322	0.9158
331	0.9138
340	0.9122
349	0.9104
358	0.9071
367	0.9043
376	0.9028
385	0.8952
394	0.8733
403	0.8693
412	0.868
421	0.8321
430	0.7623
439	0.8324
448	0.891
457	0.8931
466	0.8861
475	0.8573
484	0.6521
493	0.4826
502	0.3619
511	0.3864
520	0.5489
529	0.8438
538	0.8669
547	0.7544
556	0.8939
565	0.9061
574	0.9088
583	0.9097
592	0.9096
601	0.909
610	0.9042
619	0.8878
628	0.9056
637	0.9028
646	0.9031
655	0.8913
664	0.8582
673	0.7792
682	0.7056
691	0.3587
700	0.0278
709	0.3579
718	0.7596
727	0.7508
736	0.4974
745	0.0329
754	0.5873
763	0.8024
772	0.8608
781	0.8729
790	0.8794
799	0.8864
808	0.8872
817	0.8853
826	0.8797
835	0.8659
844	0.8485
853	0.8847
862	0.8901
871	0.8929
880	0.8968
889	0.8844
898	0.8741
907	0.8069
916	0.7979
925	0.8711
934	0.8741
943	0.873
952	0.8687
961	0.8501
970	0.8483
979	0.8345
988	0.8227
997	0.6879
1006	0.8138
1015	0.8094
1024	0.6086
1033	0.8487
1042	0.8544
1051	0.8438
1060	0.8085
1069	0.6051
1078	0.7661
1087	0.4817
1096	0.6085
1105	0.7577
1114	0.8014
1123	0.8301
1132	0.8382
1141	0.8306
1150	0.8037
1159	0.7792
1168	0.7999
1177	0.7095
1186	0.7283
1195	0.8032
1204	0.8225
1213	0.871
1222	0.8744
1231	0.8734
1240	0.8583
1249	0.8557
1258	0.8452
1267	0.8301
1276	0.7961
1285	0.8382
1294	0.8574
1303	0.776
1312	0.7809
1321	0.7952
1330	0.7546
1339	0.8668
1348	0.8805
1357	0.8777
1366	0.8683
1375	0.84
1384	0.8366
1393	0.8631
1402	0.8647
1411	0.8583
1420	0.8388
1429	0.7281
1438	0.0526
1447	0.8275
1456	0.8414
1465	0.8115
1474	0.6397
1483	0.3517
1492	0.697
1501	0.8461
1510	0.8677
1519	0.8656
1528	0.858
1537	0.8541
1546	0.8494
1555	0.8682
1564	0.866
1573	0.824
1582	0.6871
1591	0.6233
1600	0.8267
1609	0.8556
1618	0.8599
1627	0.875
1636	0.8805
1645	0.8612
1654	0.8366
1663	0.8277
1672	0.8596
1681	0.8808
1690	0.8854
1699	0.8854
1708	0.8841
1717	0.8826
1726	0.8811
1735	0.8797
1744	0.8761
1753	0.867
1762	0.8409
1771	0.8621
1780	0.8655
1789	0.8826
1798	0.8785
1807	0.8444
1816	0.7781
1825	0.8308
1834	0.8456
1843	0.8719
1852	0.8817
1861	0.8807
1870	0.8694
1879	0.8235
1888	0.7949
1897	0.8035
1906	0.8291
1915	0.8775
1924	0.8817
1933	0.8784
1942	0.868
1951	0.8278
1960	0.7885
1969	0.8099
1978	0.8411
1987	0.8778
1996	0.8842
2005	0.8934
2014	0.8998
2023	0.9006
2032	0.901
2041	0.9008
2050	0.9001
2059	0.8992
2068	0.8975
2077	0.8961
2086	0.8957
2095	0.8952
2104	0.8957
2113	0.8952
2122	0.8938
2131	0.8934
2140	0.8935
2149	0.8936
2158	0.8936
2167	0.8936
2176	0.8929
2185	0.8916
2194	0.8905
2203	0.8894
2212	0.8883
2221	0.8874
2230	0.8868
2239	0.8862
2248	0.8856
2257	0.8851
2266	0.8849
2275	0.8847
2284	0.8845
2293	0.8842
2302	0.8828
2311	0.8813
2320	0.8813
2329	0.8827
2338	0.8844
2347	0.886
2356	0.8876
2365	0.889
2374	0.8895
2383	0.8899
2392	0.8896
2401	0.8891
2410	0.8888
2419	0.8885
2428	0.8882
2437	0.8879
2446	0.8876
2455	0.8868
2464	0.8852
2473	0.8836
2482	0.8836
2491	0.8836
2500	0.8836
2509	0.8837
2518	0.8838
2527	0.8839
2536	0.8837
2545	0.883
2554	0.8824
2563	0.8818
2572	0.8812
2581	0.8807
2590	0.8811
2599	0.8818
2608	0.8817
2617	0.8815
2626	0.8809
2635	0.88
2644	0.8791
2653	0.8782
2662	0.8778
2671	0.8773
2680	0.8795
2689	0.883
2698	0.8857
2707	0.8851
2716	0.884
2725	0.8828
2734	0.8817
2743	0.8807
2752	0.8796
2761	0.8786
2770	0.8776
2779	0.8767
2788	0.8756
2797	0.8744
2806	0.8733
2815	0.8722
2824	0.8704
2833	0.868
2842	0.8656
2851	0.8639
2860	0.8627
2869	0.8629
2878	0.8633
2887	0.8626
2896	0.8604
2905	0.856
2914	0.8496
2923	0.8487
2932	0.8481
2941	0.8471
2950	0.841
2959	0.8329
2968	0.8281
2977	0.824
2986	0.8133
2995	0.7791
3004	0.679
3013	0.5942
3022	0.6631
3031	0.6725
3040	0.6788
3049	0.5737
3058	0.4165
3067	0.367
3076	0.4479
3085	0.3763
3094	0.6325
3103	0.8354
3112	0.8509
3121	0.85
3130	0.8494
3139	0.8317
3148	0.8165
3157	0.8687
3166	0.8706
3175	0.8709
3184	0.8716
3193	0.8729
3202	0.8772
3211	0.8794
3220	0.8798
3229	0.8802
3238	0.8805
3247	0.8806
3256	0.8807
3265	0.8809
3274	0.881
3283	0.8806
3292	0.8802
3301	0.8801
3310	0.8824
3319	0.8849
3328	0.8858
3337	0.8862
3346	0.8868
3355	0.8872
3364	0.8878
3373	0.8882
3382	0.8888
3391	0.889
3400	0.8894
3409	0.8898
3418	0.8904
3427	0.891
3436	0.8909
3445	0.89
3454	0.889
3463	0.8886
3472	0.8885
3481	0.8885
3490	0.8885
3499	0.8885
3508	0.8886
3517	0.8887
3526	0.8888
3535	0.8888
3544	0.8887
3553	0.8886
3562	0.8886
3571	0.8885
3580	0.8884
3589	0.8883
3598	0.8882
3607	0.8882
3616	0.8881
3625	0.8878
3634	0.8876
3643	0.8887
3652	0.89
3661	0.8931
3670	0.8943
3679	0.8938
3688	0.8928
3697	0.8927
3706	0.8931
3715	0.8941
3724	0.8952
3733	0.8961
3742	0.8967
3751	0.8975
3760	0.8988
3769	0.8964
3778	0.8921
3787	0.893
3796	0.893
3805	0.8929
