Infrared Spectrum: 4,4-DIPHENYLSEMICARBAZIDE
Formula: C13 H13 N3 O
CAS: 603-51-0
State: SOLID (MINERAL OIL MULL)
Melting point: 154 C
Class: COBLENTZ
Instrument: Not specified, most likely a prism, grating, or hybrid spectrometer.
Sampling: TRANSMISSION
Resolution: 4
Origin: WYANDOTTE CHEMICALS CORP., WYANDOTTE, MICHIGAN, USA
MICROMETERS	TRANSMITTANCE
2.014	0.572
2.05486	0.58
2.09571	0.589
2.13657	0.594
2.17742	0.596
2.21828	0.592
2.25913	0.599
2.29999	0.613
2.34084	0.618
2.3817	0.623
2.42256	0.628
2.46341	0.654
2.50427	0.66
2.54512	0.664
2.58598	0.684
2.62683	0.684
2.66769	0.695
2.70854	0.659
2.7494	0.655
2.79026	0.652
2.83111	0.664
2.87197	0.637
2.91282	0.647
2.95368	0.662
2.99453	0.628
3.03539	0.374
3.07624	0.272
3.1171	0.31
3.15796	0.437
3.19881	0.477
3.23967	0.471
3.28052	0.436
3.32138	0.356
3.36223	0.137
3.40309	0.04
3.44394	0.059
3.4848	0.134
3.52566	0.172
3.56651	0.667
3.60737	0.742
3.64822	0.749
3.68908	0.751
3.72993	0.763
3.77079	0.766
3.81164	0.764
3.8525	0.77
3.89336	0.793
3.93421	0.805
3.97507	0.822
4.01592	0.822
4.05678	0.826
4.09763	0.831
4.13849	0.833
4.17934	0.836
4.2202	0.831
4.26106	0.829
4.30191	0.86
4.34277	0.882
4.38362	0.892
4.42448	0.887
4.46533	0.887
4.50619	0.892
4.54704	0.897
4.5879	0.904
4.62876	0.906
4.66961	0.911
4.71047	0.919
4.75132	0.925
4.79218	0.928
4.83303	0.931
4.87389	0.933
4.91474	0.933
4.9556	0.933
4.99646	0.931
5.03731	0.93
5.07817	0.923
5.11902	0.914
5.15988	0.906
5.20073	0.925
5.24159	0.933
5.28244	0.935
5.3233	0.935
5.36416	0.935
5.40501	0.94
5.44587	0.954
5.48672	0.957
5.52758	0.935
5.56843	0.933
5.60929	0.943
5.65014	0.938
5.691	0.926
5.73186	0.908
5.77271	0.86
5.81357	0.793
5.85442	0.684
5.89528	0.385
5.93613	0.187
5.97699	0.149
6.01784	0.248
6.0587	0.134
6.09956	0.233
6.14041	0.359
6.18127	0.429
6.22212	0.26
6.26298	0.357
6.30383	0.524
6.34469	0.565
6.38554	0.579
6.4264	0.55
6.46726	0.485
6.50811	0.35
6.54897	0.178
6.58982	0.235
6.63068	0.201
6.67153	0.1
6.71239	0.209
6.75324	0.252
6.7941	0.18
6.83496	0.134
6.87581	0.26
6.91667	0.465
6.95752	0.604
6.99838	0.645
7.03923	0.666
7.08009	0.671
7.12094	0.66
7.1618	0.63
7.20266	0.505
7.24351	0.383
7.28437	0.504
7.32522	0.522
7.36608	0.483
7.40693	0.364
7.44779	0.248
7.48864	0.223
7.5295	0.19
7.57036	0.202
7.61121	0.241
7.65207	0.323
7.69292	0.356
7.73378	0.398
7.77463	0.298
7.81549	0.235
7.85634	0.347
7.8972	0.471
7.93806	0.522
7.97891	0.517
8.01977	0.514
8.06062	0.385
8.10148	0.475
8.14233	0.604
8.18319	0.654
8.22404	0.671
8.2649	0.684
8.30576	0.695
8.34661	0.71
8.38747	0.73
8.42832	0.655
8.46918	0.722
8.51003	0.696
8.55089	0.7
8.59174	0.666
8.6326	0.584
8.67346	0.589
8.71431	0.735
8.75517	0.787
8.79602	0.812
8.83688	0.802
8.87773	0.79
8.91859	0.775
8.95944	0.759
9.0003	0.758
9.04116	0.751
9.08201	0.744
9.12287	0.727
9.16372	0.689
9.20458	0.616
9.24543	0.616
9.28629	0.614
9.32714	0.681
9.368	0.655
9.40886	0.507
9.44971	0.408
9.49057	0.553
9.53142	0.666
9.57228	0.71
9.61313	0.691
9.65399	0.613
9.69484	0.628
9.7357	0.592
9.77656	0.703
9.81741	0.756
9.85827	0.776
9.89912	0.781
9.93998	0.676
9.98083	0.759
10.0217	0.819
10.0625	0.809
10.1034	0.819
10.1443	0.817
10.1851	0.787
10.226	0.758
10.2668	0.725
10.3077	0.637
10.3485	0.533
10.3894	0.453
10.4302	0.505
10.4711	0.628
10.512	0.722
10.5528	0.77
10.5937	0.797
10.6345	0.809
10.6754	0.817
10.7162	0.817
10.7571	0.787
10.7979	0.739
10.8388	0.792
10.8797	0.821
10.9205	0.831
10.9614	0.829
11.0022	0.798
11.0431	0.754
11.0839	0.749
11.1248	0.681
11.1656	0.63
11.2065	0.689
11.2474	0.781
11.2882	0.809
11.3291	0.822
11.3699	0.827
11.4108	0.831
11.4516	0.831
11.4925	0.833
11.5333	0.831
11.5742	0.829
11.6151	0.827
11.6559	0.826
11.6968	0.822
11.7376	0.817
11.7785	0.81
11.8193	0.788
11.8602	0.758
11.901	0.735
11.9419	0.725
11.9828	0.715
12.0236	0.749
12.0645	0.785
12.1053	0.814
12.1462	0.829
12.187	0.841
12.2279	0.848
12.2687	0.851
12.3096	0.853
12.3505	0.863
12.3913	0.863
12.4322	0.863
12.473	0.862
12.5139	0.856
12.5547	0.848
12.5956	0.843
12.6364	0.836
12.6773	0.824
12.7182	0.81
12.759	0.787
12.7999	0.761
12.8407	0.739
12.8816	0.7
12.9224	0.65
12.9633	0.589
13.0041	0.499
13.045	0.405
13.0859	0.396
13.1267	0.432
13.1676	0.39
13.2084	0.277
13.2493	0.298
13.2901	0.325
13.331	0.253
13.3718	0.352
13.4127	0.558
13.4536	0.65
13.4944	0.688
13.5353	0.706
13.5761	0.713
13.617	0.715
13.6578	0.715
13.6987	0.71
13.7395	0.705
13.7804	0.693
13.8213	0.683
13.8621	0.672
13.903	0.674
13.9438	0.684
13.9847	0.686
14.0255	0.669
14.0664	0.655
14.1072	0.62
14.1481	0.563
14.189	0.459
14.2298	0.34
14.2707	0.257
14.3115	0.245
14.3524	0.264
14.3932	0.262
14.4341	0.243
14.4749	0.229
14.5158	0.252
14.5567	0.323
14.5975	0.41
14.6384	0.468
14.6792	0.5
14.7201	0.529
14.7609	0.555
14.8018	0.577
14.8426	0.609
14.8835	0.625
14.9244	0.632
14.9652	0.618
15.0061	0.587
15.0469	0.531
15.0878	0.505
15.1286	0.507
15.1695	0.526
15.2103	0.529
15.2512	0.528
15.2921	0.524
15.3329	0.524
15.3738	0.524
15.4146	0.528
15.4555	0.531
15.4963	0.536
15.5372	0.541
15.578	0.543
15.6189	0.545
15.6598	0.548
15.7006	0.55
15.7415	0.545
15.7823	0.545
15.8232	0.517
15.864	0.504
15.9049	0.488
15.9457	0.488
15.9866	0.507
