Infrared Spectrum: 1-Methylindole
Formula: C 9 H 9 N
CAS: 603-76-9
State: gas
Instrument: HP-GC/MS/IRD
Origin: NIST Mass Spectrometry Data Center
1/CM	ABSORBANCE
550	0.0004256
562	0.0013328
574	0.0023744
586	0.0014896
598	0.0003752
610	4.48e-05
622	0.0002016
634	0.0004088
646	0.0005152
658	0.000532
670	0.0007336
682	0.0017024
694	0.0058128
706	0.0147
718	0.0223384
730	0.0390768
742	0.0308448
754	0.0163968
766	0.0055328
778	0.001624
790	0.0006944
802	0.0005936
814	0.0005936
826	0.0009464
838	0.0011984
850	0.0009016
862	0.0005208
874	0.0016688
886	0.0021952
898	0.0010192
910	0.0009744
922	0.0011816
934	0.000784
946	0.000588
958	0.0006104
970	0.0005992
982	0.0006944
994	0.0016464
1006	0.0043848
1018	0.0045136
1030	0.0019096
1042	0.0010304
1054	0.0015624
1066	0.0039424
1078	0.0051072
1090	0.004256
1102	0.0030912
1114	0.0022232
1126	0.0017024
1138	0.0024024
1150	0.003668
1162	0.0034272
1174	0.0019264
1186	0.0017024
1198	0.002604
1210	0.0029008
1222	0.0043288
1234	0.012096
1246	0.0132832
1258	0.0054656
1270	0.0022904
1282	0.0023744
1294	0.004788
1306	0.0142968
1318	0.0258328
1330	0.019404
1342	0.0099232
1354	0.0069048
1366	0.0042896
1378	0.0028224
1390	0.0033432
1402	0.0044072
1414	0.007644
1426	0.0088872
1438	0.0060032
1450	0.008988
1462	0.0194656
1474	0.0200088
1486	0.0126448
1498	0.009352
1510	0.0108864
1522	0.0117936
1534	0.007868
1546	0.0064792
1558	0.0054712
1570	0.004228
1582	0.0034048
1594	0.0026096
1606	0.0038248
1618	0.0039032
1630	0.0019936
1642	0.0014616
1654	0.0018536
1666	0.002156
1678	0.002492
1690	0.0016464
1702	0.0006888
1714	0.0005544
1726	0.0004648
1738	0.000672
1750	0.0010472
1762	0.0009296
1774	0.0005488
1786	0.0007336
1798	0.000616
1810	0.0002352
1822	0.0002856
1834	0.0005656
1846	0.000644
1858	0.0006832
1870	0.0010976
1882	0.0009912
1894	0.0006104
1906	0.001008
1918	0.0009408
1930	0.0001848
1942	6.16e-05
1954	8.96e-05
1966	7.28e-05
1978	9.52e-05
1990	9.52e-05
2002	9.52e-05
2014	9.52e-05
2026	8.4e-05
2038	9.52e-05
2050	7.84e-05
2062	7.28e-05
2074	0.0001064
2086	0.0001008
2098	8.96e-05
2110	0.0001008
2122	5.04e-05
2134	7.28e-05
2146	0.000112
2158	0.0001344
2170	0.0001176
2182	9.52e-05
2194	0.0001344
2206	0.000168
2218	0.000224
2230	0.0002632
2242	0.0002576
2254	0.0001848
2266	0.0001232
2278	6.72e-05
2290	5.04e-05
2302	5.04e-05
2314	5.04e-05
2326	0
2338	0
2350	0
2362	0
2374	0
2386	4.48e-05
2398	0.0001288
2410	0.0001064
2422	1.12e-05
2434	5.6e-06
2446	9.52e-05
2458	0.0002016
2470	0.0002184
2482	0.000308
2494	0.0003696
2506	0.0004872
2518	0.000532
2530	0.0004144
2542	0.0002576
2554	0.0002072
2566	0.0002184
2578	0.0002408
2590	0.0002912
2602	0.0002856
2614	0.0003472
2626	0.0003136
2638	0.00028
2650	0.0002968
2662	0.0003808
2674	0.0004704
2686	0.000504
2698	0.0005544
2710	0.0005656
2722	0.0005488
2734	0.0004592
2746	0.0004424
2758	0.0004984
2770	0.0006664
2782	0.000896
2794	0.001176
2806	0.0020664
2818	0.00364
2830	0.0036568
2842	0.002324
2854	0.002268
2866	0.0033376
2878	0.0052304
2890	0.0065912
2902	0.0069832
2914	0.00854
2926	0.010276
2938	0.0117152
2950	0.0127848
2962	0.0100128
2974	0.005544
2986	0.0038528
2998	0.003556
3010	0.003472
3022	0.0049056
3034	0.0074256
3046	0.0102592
3058	0.014504
3070	0.01442
3082	0.0083496
3094	0.0053592
3106	0.0031696
3118	0.0025704
3130	0.0027944
3142	0.001876
3154	0.0005544
3166	0.0002296
3178	0.0001568
3190	0.0001904
3202	0.0002016
3214	0.0001848
3226	0.0002184
3238	0.0001848
3250	7.84e-05
3262	0.0001064
3274	0.0001064
3286	5.04e-05
3298	5.6e-06
3310	5.6e-05
3322	6.16e-05
3334	7.28e-05
3346	4.48e-05
3358	2.24e-05
3370	5.6e-05
3382	2.8e-05
3394	2.8e-05
3406	1.12e-05
3418	2.24e-05
3430	3.36e-05
3442	6.16e-05
3454	5.04e-05
3466	0.0001064
3478	5.6e-05
3490	5.04e-05
3502	8.4e-05
3514	9.52e-05
3526	7.84e-05
3538	7.28e-05
3550	6.16e-05
3562	0.0001008
3574	0.0001008
3586	0.0001288
3598	0.0001344
3610	0.00014
3622	8.96e-05
3634	0.0001008
3646	0.0001512
3658	7.28e-05
3670	0.000112
3682	3.36e-05
3694	6.72e-05
3706	6.16e-05
3718	5.04e-05
3730	3.92e-05
3742	6.16e-05
3754	0.0001288
3766	0.0001288
3778	0.0001288
3790	0.0001792
3802	0.0001848
3814	0.0001344
3826	0.0001848
3838	0.000168
