Infrared Spectrum: Triphenylamine
Formula: C 18 H 15 N
CAS: 603-34-9
State: gas
Instrument: HP-GC/MS/IRD
Origin: NIST Mass Spectrometry Data Center
1/CM	ABSORBANCE
550	9.24e-05
562	3.08e-05
574	7.04e-05
586	0.0002112
598	0.0004532
610	0.0026664
622	0.0063272
634	0.000902
646	0.0006292
658	0.0016852
670	0.0029084
682	0.0052888
694	0.0205788
706	0.0090112
718	0.003014
730	0.0032428
742	0.0087648
754	0.012628
766	0.0021736
778	0.0008712
790	0.0006248
802	0.0005412
814	0.0004972
826	0.0006424
838	0.0003608
850	0.0003828
862	0.0004312
874	0.0004752
886	0.0007964
898	0.0008404
910	0.0005192
922	0.000506
934	0.000396
946	0.000374
958	0.0005544
970	0.0006864
982	0.0005456
994	0.000836
1006	0.0008844
1018	0.001254
1030	0.0031856
1042	0.0009988
1054	0.000616
1066	0.0017908
1078	0.0019228
1090	0.0005016
1102	0.0004312
1114	0.0004312
1126	0.0003476
1138	0.000374
1150	0.0007348
1162	0.0009328
1174	0.0015752
1186	0.0010824
1198	0.0015444
1210	0.0021428
1222	0.001848
1234	0.0022
1246	0.0042504
1258	0.0103928
1270	0.0250712
1282	0.0273768
1294	0.0136048
1306	0.01188
1318	0.0102344
1330	0.0114884
1342	0.0058388
1354	0.00275
1366	0.001694
1378	0.0012056
1390	0.0011924
1402	0.0011088
1414	0.0009724
1426	0.0011352
1438	0.0015972
1450	0.0025256
1462	0.0043208
1474	0.0135168
1486	0.0296252
1498	0.036762
1510	0.0080608
1522	0.0037752
1534	0.0027324
1546	0.002816
1558	0.0041184
1570	0.0095568
1582	0.0235488
1594	0.0265452
1606	0.01034
1618	0.0044396
1630	0.0027412
1642	0.0017248
1654	0.0010912
1666	0.0008492
1678	0.0006996
1690	0.0005896
1702	0.0006028
1714	0.0008184
1726	0.0006776
1738	0.000484
1750	0.0004928
1762	0.0006116
1774	0.0010296
1786	0.0012628
1798	0.0007084
1810	0.0004972
1822	0.0004004
1834	0.0005236
1846	0.0007964
1858	0.0008536
1870	0.0006072
1882	0.0005148
1894	0.0005456
1906	0.0005016
1918	0.0008316
1930	0.0014344
1942	0.0011
1954	0.0005984
1966	0.0003036
1978	0.0003168
1990	0.0003608
2002	0.0003388
2014	0.0002552
2026	0.000242
2038	0.00022
2050	0.0002068
2062	0.0001848
2074	0.0001672
2086	0.0001584
2098	0.0001452
2110	0.00011
2122	7.92e-05
2134	0.0001012
2146	9.68e-05
2158	0.0001232
2170	0.0001584
2182	0.0001936
2194	0.0002024
2206	0.000198
2218	0.0001584
2230	0.0001056
2242	0.0001144
2254	0.0001144
2266	0.00011
2278	0.000132
2290	0.0001276
2302	0.0001672
2314	0.0002156
2326	0.0001892
2338	0.0002068
2350	0.0001672
2362	0.0001364
2374	0.00011
2386	0.0001408
2398	0.0001276
2410	0.0001892
2422	0.0002508
2434	0.000264
2446	0.000308
2458	0.0002992
2470	0.0002816
2482	0.0002904
2494	0.0003124
2506	0.000286
2518	0.00033
2530	0.0003344
2542	0.0003432
2554	0.0003432
2566	0.0003256
2578	0.0003212
2590	0.0003784
2602	0.0003872
2614	0.0003652
2626	0.0002596
2638	0.0001848
2650	0.0001012
2662	8.36e-05
2674	3.08e-05
2686	8.8e-06
2698	3.52e-05
2710	2.64e-05
2722	5.28e-05
2734	8.8e-05
2746	7.48e-05
2758	0.0001144
2770	0.000154
2782	0.0001276
2794	0.0001188
2806	0.0001056
2818	0.00011
2830	0.0001144
2842	9.24e-05
2854	0.0001232
2866	0.0001144
2878	0.000132
2890	0.0001936
2902	0.0002112
2914	0.0001848
2926	0.0001716
2938	0.0001804
2950	0.0002024
2962	0.0001848
2974	0.0002288
2986	0.000374
2998	0.0007524
3010	0.0016544
3022	0.0035948
3034	0.0066572
3046	0.0067716
3058	0.0061996
3070	0.011484
3082	0.0085932
3094	0.0053504
3106	0.0023672
3118	0.0010516
3130	0.000462
3142	0.0002772
3154	0.000264
3166	0.0002772
3178	0.0001936
3190	0.0001408
3202	8.36e-05
3214	7.04e-05
3226	5.72e-05
3238	5.72e-05
3250	4.4e-05
3262	5.28e-05
3274	5.28e-05
3286	7.04e-05
3298	3.52e-05
3310	4.84e-05
3322	4.84e-05
3334	6.16e-05
3346	4.4e-05
3358	5.72e-05
3370	6.16e-05
3382	7.92e-05
3394	4.84e-05
3406	3.96e-05
3418	5.72e-05
3430	3.52e-05
3442	4.4e-06
3454	5.72e-05
3466	7.04e-05
3478	2.64e-05
3490	3.96e-05
3502	4.4e-05
3514	4.84e-05
3526	6.6e-05
3538	4.4e-05
3550	5.28e-05
3562	4.4e-06
3574	7.48e-05
3586	3.96e-05
3598	6.16e-05
3610	8.8e-06
3622	7.04e-05
3634	8.8e-05
3646	0.0001232
3658	0.0001276
3670	8.36e-05
3682	0.0001144
3694	0.0001672
3706	0.0001408
3718	0.0001452
3730	7.48e-05
3742	2.2e-05
3754	5.28e-05
3766	9.24e-05
3778	0.0001056
3790	9.68e-05
3802	0.0001144
3814	0.0001012
3826	9.68e-05
3838	3.08e-05
