Infrared Spectrum: 3-NITROPHTHALIC ACID
Formula: C8 H5 N O6
CAS: 603-11-2
State: SOLID (MINERAL OIL MULL)
Melting point: 217-219 C
Class: COBLENTZ
Instrument: Not specified, most likely a prism, grating, or hybrid spectrometer.
Sampling: TRANSMISSION
Resolution: 4
Origin: WYANDOTTE CHEMICALS CORP., WYANDOTTE, MICHIGAN, USA
MICROMETERS	TRANSMITTANCE
2.027	0.632
2.06677	0.65
2.10654	0.655
2.14631	0.652
2.18609	0.635
2.22586	0.615
2.26563	0.627
2.3054	0.642
2.34517	0.653
2.38494	0.66
2.42471	0.682
2.46448	0.683
2.50426	0.688
2.54403	0.706
2.5838	0.725
2.62357	0.716
2.66334	0.746
2.70311	0.751
2.74288	0.766
2.78266	0.781
2.82243	0.784
2.8622	0.789
2.90197	0.774
2.94174	0.759
2.98151	0.72
3.02128	0.649
3.06106	0.551
3.10083	0.463
3.1406	0.377
3.18037	0.327
3.22014	0.281
3.25991	0.273
3.29968	0.256
3.33945	0.084
3.37923	0.048
3.419	0.049
3.45877	0.049
3.49854	0.054
3.53831	0.099
3.57808	0.367
3.61785	0.456
3.65763	0.485
3.6974	0.476
3.73717	0.516
3.77694	0.523
3.81671	0.521
3.85648	0.552
3.89625	0.581
3.93602	0.614
3.9758	0.634
4.01557	0.642
4.05534	0.597
4.09511	0.635
4.13488	0.68
4.17465	0.701
4.21442	0.715
4.2542	0.706
4.29397	0.698
4.33374	0.71
4.37351	0.736
4.41328	0.781
4.45305	0.788
4.49282	0.799
4.53259	0.809
4.57237	0.821
4.61214	0.824
4.65191	0.834
4.69168	0.844
4.73145	0.859
4.77122	0.87
4.81099	0.879
4.85077	0.879
4.89054	0.875
4.93031	0.884
4.97008	0.889
5.00985	0.908
5.04962	0.907
5.08939	0.91
5.12917	0.945
5.16894	0.945
5.20871	0.93
5.24848	0.95
5.28825	0.958
5.32802	0.951
5.36779	0.966
5.40756	0.991
5.44734	0.975
5.48711	0.975
5.52688	0.958
5.56665	0.94
5.60642	0.894
5.64619	0.811
5.68596	0.75
5.72574	0.579
5.76551	0.264
5.80528	0.183
5.84505	0.253
5.88482	0.337
5.92459	0.346
5.96436	0.301
6.00413	0.435
6.04391	0.496
6.08368	0.61
6.12345	0.66
6.16322	0.548
6.20299	0.668
6.24276	0.761
6.28253	0.779
6.32231	0.491
6.36208	0.544
6.40185	0.586
6.44162	0.461
6.48139	0.279
6.52116	0.372
6.56093	0.552
6.6007	0.625
6.64048	0.657
6.68025	0.624
6.72002	0.45
6.75979	0.22
6.79956	0.084
6.83933	0.105
6.8791	0.158
6.91888	0.268
6.95865	0.476
6.99842	0.592
7.03819	0.498
7.07796	0.306
7.11773	0.288
7.1575	0.321
7.19728	0.276
7.23705	0.165
7.27682	0.225
7.31659	0.266
7.35636	0.137
7.39613	0.182
7.4359	0.296
7.47567	0.384
7.51545	0.455
7.55522	0.485
7.59499	0.486
7.63476	0.514
7.67453	0.567
7.7143	0.624
7.75407	0.653
7.79385	0.637
7.83362	0.548
7.87339	0.442
7.91316	0.263
7.95293	0.127
7.9927	0.1
8.03247	0.139
8.07224	0.205
8.11202	0.259
8.15179	0.322
8.19156	0.367
8.23133	0.365
8.2711	0.392
8.31087	0.433
8.35064	0.473
8.39042	0.5
8.43019	0.541
8.46996	0.562
8.50973	0.597
8.5495	0.609
8.58927	0.584
8.62904	0.495
8.66881	0.392
8.70859	0.42
8.74836	0.473
8.78813	0.549
8.8279	0.604
8.86767	0.615
8.90744	0.501
8.94721	0.554
8.98699	0.61
9.02676	0.65
9.06653	0.66
9.1063	0.675
9.14607	0.68
9.18584	0.69
9.22561	0.701
9.26539	0.713
9.30516	0.682
9.34493	0.521
9.3847	0.594
9.42447	0.635
9.46424	0.668
9.50401	0.692
9.54378	0.701
9.58356	0.71
9.62333	0.711
9.6631	0.718
9.70287	0.72
9.74264	0.735
9.78241	0.745
9.82218	0.746
9.86196	0.748
9.90173	0.756
9.9415	0.761
9.98127	0.748
10.021	0.741
10.0608	0.731
10.1006	0.759
10.1404	0.753
10.1801	0.758
10.2199	0.746
10.2597	0.743
10.2994	0.746
10.3392	0.743
10.379	0.75
10.4188	0.746
10.4585	0.753
10.4983	0.751
10.5381	0.754
10.5778	0.754
10.6176	0.763
10.6574	0.769
10.6972	0.773
10.7369	0.771
10.7767	0.776
10.8165	0.779
10.8562	0.789
10.896	0.773
10.9358	0.697
10.9756	0.503
11.0153	0.39
11.0551	0.524
11.0949	0.622
11.1346	0.66
11.1744	0.673
11.2142	0.677
11.254	0.662
11.2937	0.65
11.3335	0.63
11.3733	0.596
11.413	0.571
11.4528	0.561
11.4926	0.569
11.5324	0.596
11.5721	0.614
11.6119	0.637
11.6517	0.647
11.6914	0.677
11.7312	0.705
11.771	0.723
11.8108	0.743
11.8505	0.761
11.8903	0.779
11.9301	0.786
11.9698	0.718
12.0096	0.581
12.0494	0.552
12.0892	0.622
12.1289	0.658
12.1687	0.672
12.2085	0.662
12.2482	0.615
12.288	0.602
12.3278	0.655
12.3676	0.677
12.4073	0.673
12.4471	0.652
12.4869	0.599
12.5266	0.531
12.5664	0.493
12.6062	0.468
12.6459	0.485
12.6857	0.518
12.7255	0.511
12.7653	0.5
12.805	0.486
12.8448	0.453
12.8846	0.443
12.9243	0.465
12.9641	0.556
13.0039	0.607
13.0437	0.634
13.0834	0.622
13.1232	0.589
13.163	0.541
13.2027	0.491
13.2425	0.407
13.2823	0.36
13.3221	0.342
13.3618	0.339
13.4016	0.346
13.4414	0.364
13.4811	0.389
13.5209	0.425
13.5607	0.458
13.6005	0.498
13.6402	0.551
13.68	0.587
13.7198	0.619
13.7595	0.645
13.7993	0.67
13.8391	0.69
13.8789	0.7
13.9186	0.71
13.9584	0.721
13.9982	0.725
14.0379	0.716
14.0777	0.698
14.1175	0.673
14.1573	0.64
14.197	0.617
14.2368	0.586
14.2766	0.562
14.3163	0.541
14.3561	0.523
14.3959	0.514
14.4357	0.501
14.4754	0.478
14.5152	0.437
14.555	0.395
14.5947	0.367
14.6345	0.369
14.6743	0.4
14.7141	0.445
14.7538	0.478
14.7936	0.521
14.8334	0.549
14.8731	0.572
14.9129	0.587
14.9527	0.61
14.9925	0.602
15.0322	0.599
15.072	0.572
15.1118	0.551
15.1515	0.546
15.1913	0.551
15.2311	0.561
15.2709	0.562
15.3106	0.561
15.3504	0.562
15.3902	0.574
15.4299	0.587
15.4697	0.589
15.5095	0.597
15.5493	0.604
15.589	0.605
15.6288	0.605
15.6686	0.607
15.7083	0.604
15.7481	0.602
15.7879	0.599
15.8277	0.591
15.8674	0.587
15.9072	0.586
15.947	0.582
15.9867	0.579
