Infrared Spectrum: p,p',p''-METHYLIDYNETRIS(N,N-DIMETHYLANILINE)
Formula: C25 H31 N3
CAS: 603-48-5
State: SOLID (MINERAL OIL MULL)
Melting point: 178-179 C
Class: COBLENTZ
Instrument: Not specified, most likely a prism, grating, or hybrid spectrometer.
Sampling: TRANSMISSION
Resolution: 4
Origin: WYANDOTTE CHEMICALS CORP., WYANDOTTE, MICHIGAN, USA
MICROMETERS	TRANSMITTANCE
2.019	0.358
2.05613	0.353
2.09327	0.361
2.1304	0.366
2.16753	0.361
2.20467	0.369
2.2418	0.367
2.27894	0.375
2.31607	0.381
2.3532	0.38
2.39034	0.38
2.42747	0.401
2.4646	0.414
2.50174	0.408
2.53887	0.415
2.576	0.431
2.61314	0.436
2.65027	0.453
2.68741	0.442
2.72454	0.45
2.76167	0.459
2.79881	0.453
2.83594	0.453
2.87307	0.459
2.91021	0.457
2.94734	0.454
2.98448	0.462
3.02161	0.464
3.05874	0.461
3.09588	0.454
3.13301	0.44
3.17014	0.442
3.20728	0.425
3.24441	0.35
3.28154	0.28
3.31868	0.11
3.35581	0.014
3.39295	0.023
3.43008	0.023
3.46721	0.024
3.50435	0.054
3.54148	0.2
3.57861	0.161
3.61575	0.361
3.65288	0.457
3.69001	0.492
3.72715	0.504
3.76428	0.531
3.80142	0.545
3.83855	0.551
3.87568	0.584
3.91282	0.584
3.94995	0.598
3.98708	0.604
4.02422	0.61
4.06135	0.621
4.09848	0.633
4.13562	0.637
4.17275	0.644
4.20989	0.658
4.24702	0.637
4.28415	0.646
4.32129	0.658
4.35842	0.696
4.39555	0.696
4.43269	0.696
4.46982	0.694
4.50696	0.7
4.54409	0.7
4.58122	0.713
4.61836	0.725
4.65549	0.73
4.69262	0.727
4.72976	0.738
4.76689	0.749
4.80402	0.749
4.84116	0.753
4.87829	0.75
4.91543	0.758
4.95256	0.767
4.98969	0.778
5.02683	0.785
5.06396	0.792
5.10109	0.8
5.13823	0.803
5.17536	0.803
5.21249	0.806
5.24963	0.808
5.28676	0.772
5.3239	0.716
5.36103	0.728
5.39816	0.791
5.4353	0.819
5.47243	0.842
5.50956	0.844
5.5467	0.842
5.58383	0.848
5.62096	0.853
5.6581	0.853
5.69523	0.827
5.73237	0.848
5.7695	0.878
5.80663	0.856
5.84377	0.844
5.8809	0.872
5.91803	0.838
5.95517	0.809
5.9923	0.839
6.02944	0.841
6.06657	0.767
6.1037	0.461
6.14084	0.07
6.17797	0.168
6.2151	0.429
6.25224	0.604
6.28937	0.644
6.3265	0.369
6.36364	0.423
6.40077	0.609
6.43791	0.545
6.47504	0.235
6.51217	0.054
6.54931	0.037
6.58644	0.073
6.62357	0.19
6.66071	0.258
6.69784	0.146
6.73497	0.113
6.77211	0.091
6.80924	0.104
6.84638	0.129
6.88351	0.095
6.92064	0.216
6.95778	0.431
6.99491	0.504
7.03204	0.595
7.06918	0.556
7.10631	0.624
7.14344	0.627
7.18058	0.51
7.21771	0.292
7.25485	0.277
7.29198	0.294
7.32911	0.154
7.36625	0.037
7.40338	0.049
7.44051	0.099
7.47765	0.171
7.51478	0.238
7.55191	0.295
7.58905	0.364
7.62618	0.394
7.66332	0.447
7.70045	0.47
7.73758	0.514
7.77472	0.545
7.81185	0.577
7.84898	0.585
7.88612	0.582
7.92325	0.548
7.96039	0.492
7.99752	0.507
8.03465	0.44
8.07179	0.26
8.10892	0.13
8.14605	0.151
8.18319	0.228
8.22032	0.32
8.25745	0.289
8.29459	0.158
8.33172	0.177
8.36886	0.387
8.40599	0.373
8.44312	0.425
8.48026	0.443
8.51739	0.35
8.55452	0.171
8.59166	0.2
8.62879	0.339
8.66592	0.425
8.70306	0.476
8.74019	0.501
8.77733	0.465
8.81446	0.404
8.85159	0.356
8.88873	0.32
8.92586	0.395
8.96299	0.542
9.00013	0.602
9.03726	0.612
9.07439	0.633
9.11153	0.661
9.14866	0.669
9.1858	0.669
9.22293	0.668
9.26006	0.64
9.2972	0.57
9.33433	0.442
9.37146	0.263
9.4086	0.235
9.44573	0.386
9.48287	0.534
9.52	0.621
9.55713	0.671
9.59427	0.7
9.6314	0.73
9.66853	0.73
9.70567	0.757
9.7428	0.76
9.77993	0.774
9.81707	0.786
9.8542	0.785
9.89134	0.742
9.92847	0.775
9.9656	0.813
10.0027	0.822
10.0399	0.819
10.077	0.82
10.1141	0.825
10.1513	0.823
10.1884	0.825
10.2255	0.816
10.2627	0.811
10.2998	0.814
10.3369	0.813
10.3741	0.788
10.4112	0.722
10.4483	0.676
10.4855	0.588
10.5226	0.425
10.5597	0.257
10.5969	0.239
10.634	0.42
10.6711	0.556
10.7083	0.626
10.7454	0.643
10.7825	0.643
10.8197	0.755
10.8568	0.791
10.8939	0.809
10.9311	0.82
10.9682	0.833
11.0053	0.853
11.0425	0.869
11.0796	0.88
11.1167	0.889
11.1539	0.898
11.191	0.895
11.2281	0.9
11.2653	0.908
11.3024	0.912
11.3395	0.92
11.3767	0.914
11.4138	0.908
11.4509	0.856
11.4881	0.736
11.5252	0.683
11.5624	0.75
11.5995	0.83
11.6366	0.876
11.6738	0.904
11.7109	0.909
11.748	0.904
11.7852	0.889
11.8223	0.827
11.8594	0.716
11.8966	0.517
11.9337	0.409
11.9708	0.5
12.008	0.649
12.0451	0.738
12.0822	0.8
12.1194	0.831
12.1565	0.819
12.1936	0.789
12.2308	0.652
12.2679	0.425
12.305	0.171
12.3422	0.048
12.3793	0.056
12.4164	0.112
12.4536	0.247
12.4907	0.389
12.5278	0.47
12.565	0.436
12.6021	0.244
12.6392	0.191
12.6764	0.428
12.7135	0.612
12.7506	0.707
12.7878	0.75
12.8249	0.783
12.862	0.809
12.8992	0.83
12.9363	0.834
12.9734	0.847
13.0106	0.862
13.0477	0.866
13.0848	0.873
13.122	0.884
13.1591	0.887
13.1962	0.878
13.2334	0.802
13.2705	0.686
13.3076	0.704
13.3448	0.792
13.3819	0.822
13.419	0.741
13.4562	0.637
13.4933	0.64
13.5304	0.711
13.5676	0.78
13.6047	0.822
13.6418	0.833
13.679	0.853
13.7161	0.856
13.7532	0.864
13.7904	0.861
13.8275	0.858
13.8646	0.856
13.9018	0.864
13.9389	0.881
13.976	0.894
14.0132	0.87
14.0503	0.845
14.0874	0.845
14.1246	0.884
14.1617	0.919
14.1988	0.925
14.236	0.912
14.2731	0.887
14.3102	0.887
14.3474	0.898
14.3845	0.925
14.4216	0.945
14.4588	0.954
14.4959	0.959
14.533	0.953
14.5702	0.965
14.6073	0.953
14.6444	0.959
14.6816	0.945
14.7187	0.945
14.7558	0.923
14.793	0.923
14.8301	0.922
14.8672	0.917
14.9044	0.917
14.9415	0.92
14.9786	0.906
15.0158	0.864
15.0529	0.813
15.09	0.808
15.1272	0.842
15.1643	0.859
15.2014	0.872
15.2386	0.87
15.2757	0.862
15.3128	0.853
15.35	0.838
15.3871	0.83
15.4243	0.822
15.4614	0.802
15.4985	0.791
15.5357	0.781
15.5728	0.771
15.6099	0.763
15.6471	0.75
15.6842	0.746
15.7213	0.716
15.7585	0.7
15.7956	0.671
15.8327	0.66
15.8699	0.644
15.907	0.633
15.9441	0.624
15.9813	0.619
