Infrared Spectrum: 3-Methyldecanoic acid
Formula: C 11 H 22 O 2
CAS: 60308-82-9
State: gas
Instrument: HP-GC/MS/IRD
Origin: NIST Mass Spectrometry Data Center
1/CM	ABSORBANCE
550	0.0020685
562	0.0017505
574	0.0016665
586	0.0013695
598	0.0015375
610	0.0019875
622	0.002106
634	0.0019995
646	0.001383
658	0.000921
670	0.000771
682	0.000753
694	0.000828
706	0.000783
718	0.0006525
730	0.0005115
742	0.0002985
754	0.0002025
766	0.000147
778	7.65e-05
790	6.6e-05
802	1.2e-05
814	6.6e-05
826	8.4e-05
838	0.000144
850	0.0001575
862	0.000192
874	0.0001545
886	0.0001965
898	0.0002775
910	0.0002055
922	0.0002115
934	0.0001245
946	0.0001485
958	0.0001305
970	0.0001635
982	0.0001785
994	0.000192
1006	0.0002385
1018	0.0003015
1030	0.0005115
1042	0.001023
1054	0.001749
1066	0.0025545
1078	0.003213
1090	0.0042375
1102	0.0052515
1114	0.004656
1126	0.0043605
1138	0.0047895
1150	0.004362
1162	0.003327
1174	0.0024195
1186	0.0018465
1198	0.001422
1210	0.001143
1222	0.001071
1234	0.000927
1246	0.0008625
1258	0.0008835
1270	0.000879
1282	0.000891
1294	0.0009735
1306	0.000981
1318	0.0009975
1330	0.00111
1342	0.001338
1354	0.0015945
1366	0.0019245
1378	0.0023595
1390	0.001839
1402	0.000855
1414	0.0006645
1426	0.0007995
1438	0.000942
1450	0.0012435
1462	0.001725
1474	0.0012135
1486	0.0005055
1498	0.000279
1510	0.000222
1522	0.000141
1534	0.0001005
1546	9.3e-05
1558	0.0001215
1570	6.3e-05
1582	5.7e-05
1594	2.85e-05
1606	3.75e-05
1618	7.95e-05
1630	4.35e-05
1642	6.9e-05
1654	0.0001095
1666	0.0001125
1678	0.000168
1690	0.0002505
1702	0.000465
1714	0.000729
1726	0.001323
1738	0.002409
1750	0.004158
1762	0.007341
1774	0.011421
1786	0.0078
1798	0.0038565
1810	0.00195
1822	0.000891
1834	0.000447
1846	0.0002625
1858	0.0001425
1870	0.0001065
1882	7.8e-05
1894	6.9e-05
1906	5.85e-05
1918	4.8e-05
1930	4.35e-05
1942	6.3e-05
1954	2.4e-05
1966	3.75e-05
1978	3.45e-05
1990	4.2e-05
2002	3.9e-05
2014	2.25e-05
2026	2.25e-05
2038	1.65e-05
2050	3.15e-05
2062	2.4e-05
2074	3.6e-05
2086	1.95e-05
2098	2.25e-05
2110	1.2e-05
2122	3.45e-05
2134	3.3e-05
2146	3.45e-05
2158	2.7e-05
2170	3.75e-05
2182	5.4e-05
2194	6.3e-05
2206	4.8e-05
2218	4.8e-05
2230	5.1e-05
2242	4.5e-05
2254	3.75e-05
2266	2.4e-05
2278	5.25e-05
2290	2.7e-05
2302	2.85e-05
2314	2.25e-05
2326	0
2338	0
2350	0
2362	0
2374	0
2386	3.6e-05
2398	3.3e-05
2410	4.95e-05
2422	6.15e-05
2434	3.3e-05
2446	4.2e-05
2458	3.45e-05
2470	4.2e-05
2482	4.65e-05
2494	1.5e-05
2506	2.7e-05
2518	2.7e-05
2530	4.05e-05
2542	6.3e-05
2554	4.5e-05
2566	5.1e-05
2578	5.4e-05
2590	6.45e-05
2602	6.9e-05
2614	8.7e-05
2626	9.75e-05
2638	0.0001005
2650	0.000111
2662	0.0001155
2674	0.000156
2686	0.0001575
2698	0.000159
2710	0.000141
2722	0.0001605
2734	0.0002145
2746	0.000219
2758	0.000207
2770	0.000231
2782	0.000261
2794	0.000369
2806	0.000468
2818	0.000666
2830	0.000966
2842	0.001638
2854	0.0035955
2866	0.0053775
2878	0.0048165
2890	0.0043995
2902	0.0048885
2914	0.0074715
2926	0.0128565
2938	0.0143595
2950	0.0092625
2962	0.008298
2974	0.0073275
2986	0.0033225
2998	0.0014835
3010	0.0008655
3022	0.000609
3034	0.000459
3046	0.0003855
3058	0.0003075
3070	0.000276
3082	0.000216
3094	0.0002175
3106	0.0001695
3118	0.000162
3130	0.00015
3142	0.000138
3154	0.0001515
3166	0.0001365
3178	0.0001965
3190	0.0001785
3202	0.0001245
3214	0.0001155
3226	0.000126
3238	9.75e-05
3250	7.05e-05
3262	0.000102
3274	9.3e-05
3286	9e-05
3298	9.75e-05
3310	7.8e-05
3322	0.0001095
3334	8.4e-05
3346	8.4e-05
3358	4.2e-05
3370	3.75e-05
3382	5.7e-05
3394	9.15e-05
3406	6e-05
3418	5.55e-05
3430	5.85e-05
3442	6e-05
3454	3.45e-05
3466	7.5e-06
3478	4.2e-05
3490	6.6e-05
3502	0.0001005
3514	0.0001305
3526	0.0001725
3538	0.000246
3550	0.000489
3562	0.001866
3574	0.0045375
3586	0.0013035
3598	0.0003615
3610	0.000192
3622	0.000153
3634	0.0001125
3646	9.45e-05
3658	2.1e-05
3670	7.8e-05
3682	6.15e-05
3694	5.7e-05
3706	7.5e-05
3718	5.1e-05
3730	4.2e-05
3742	7.5e-05
3754	9.15e-05
3766	5.25e-05
3778	1.2e-05
3790	5.1e-05
3802	6.6e-05
3814	6e-05
3826	4.65e-05
3838	9.9e-05
