Infrared Spectrum: ETHYLENE GLYCOL BIS(3,5-DINITROBENZOATE)
Formula: C16 H10 N4 O12
CAS: 60317-39-7
State: SOLID (OIL MULL)
Class: COBLENTZ
Instrument: Not specified, most likely a grating spectrometer.
Sampling: TRANSMISSION
Resolution: 4
Origin: ABBOTT LABORATORIES
MICROMETERS	TRANSMITTANCE
2	0.35
2.03589	0.36
2.07179	0.366
2.10768	0.367
2.14357	0.369
2.17947	0.382
2.21536	0.394
2.25125	0.396
2.28715	0.394
2.32304	0.39
2.35893	0.39
2.39482	0.396
2.43072	0.404
2.46661	0.411
2.5025	0.419
2.5384	0.436
2.57429	0.447
2.61018	0.452
2.64608	0.459
2.68197	0.473
2.71786	0.48
2.75376	0.487
2.78965	0.498
2.82554	0.507
2.86144	0.51
2.89733	0.521
2.93322	0.521
2.96912	0.526
3.00501	0.531
3.0409	0.54
3.0768	0.547
3.11269	0.547
3.14858	0.547
3.18447	0.544
3.22037	0.517
3.25626	0.32
3.29215	0.322
3.32805	0.299
3.36394	0.139
3.39983	0.098
3.43573	0.08
3.47162	0.079
3.50751	0.08
3.54341	0.228
3.5793	0.454
3.61519	0.565
3.65109	0.616
3.68698	0.612
3.72287	0.609
3.75877	0.616
3.79466	0.63
3.83055	0.647
3.86645	0.66
3.90234	0.684
3.93823	0.7
3.97412	0.716
4.01002	0.73
4.04591	0.739
4.0818	0.741
4.1177	0.741
4.15359	0.75
4.18948	0.76
4.22538	0.772
4.26127	0.776
4.29716	0.774
4.33306	0.769
4.36895	0.779
4.40484	0.792
4.44074	0.797
4.47663	0.804
4.51252	0.815
4.54842	0.816
4.58431	0.823
4.6202	0.83
4.6561	0.836
4.69199	0.846
4.72788	0.853
4.76377	0.853
4.79967	0.855
4.83556	0.862
4.87145	0.869
4.90735	0.867
4.94324	0.875
4.97913	0.887
5.01503	0.894
5.05092	0.897
5.08681	0.903
5.12271	0.91
5.1586	0.908
5.19449	0.897
5.23039	0.913
5.26628	0.904
5.30217	0.897
5.33807	0.901
5.37396	0.908
5.40985	0.915
5.44575	0.929
5.48164	0.948
5.51753	0.966
5.55342	0.97
5.58932	0.952
5.62521	0.922
5.6611	0.86
5.697	0.707
5.73289	0.246
5.76878	0.16
5.80468	0.2
5.84057	0.454
5.87646	0.566
5.91236	0.665
5.94825	0.735
5.98414	0.783
6.02004	0.816
6.05593	0.823
6.09182	0.558
6.12772	0.44
6.16361	0.69
6.1995	0.778
6.2354	0.76
6.27129	0.732
6.30718	0.841
6.34307	0.786
6.37897	0.625
6.41486	0.264
6.45075	0.14
6.48665	0.142
6.52254	0.176
6.55843	0.26
6.59433	0.424
6.63022	0.478
6.66611	0.551
6.70201	0.609
6.7379	0.526
6.77379	0.413
6.80969	0.19
6.84558	0.1
6.88147	0.1
6.91737	0.205
6.95326	0.336
6.98915	0.617
7.02505	0.683
7.06094	0.697
7.09683	0.72
7.13272	0.737
7.16862	0.705
7.20451	0.484
7.2404	0.313
7.2763	0.188
7.31219	0.237
7.34808	0.274
7.38398	0.207
7.41987	0.126
7.45576	0.102
7.49166	0.135
7.52755	0.191
7.56344	0.274
7.59934	0.367
7.63523	0.431
7.67112	0.376
7.70702	0.309
7.74291	0.308
7.7788	0.234
7.8147	0.137
7.85059	0.119
7.88648	0.123
7.92237	0.161
7.95827	0.235
7.99416	0.313
8.03005	0.378
8.06595	0.394
8.10184	0.419
8.13773	0.489
8.17363	0.545
8.20952	0.586
8.24541	0.619
8.28131	0.649
8.3172	0.676
8.35309	0.698
8.38899	0.704
8.42488	0.704
8.46077	0.681
8.49667	0.568
8.53256	0.445
8.56845	0.248
8.60435	0.133
8.64024	0.132
8.67613	0.179
8.71202	0.242
8.74792	0.341
8.78381	0.426
8.8197	0.503
8.8556	0.561
8.89149	0.602
8.92738	0.625
8.96328	0.639
8.99917	0.646
9.03506	0.647
9.07096	0.623
9.10685	0.577
9.14274	0.566
9.17864	0.45
9.21453	0.399
9.25042	0.352
9.28632	0.25
9.32221	0.394
9.3581	0.501
9.394	0.568
9.42989	0.595
9.46578	0.482
9.50167	0.35
9.53757	0.406
9.57346	0.411
9.60935	0.443
9.64525	0.556
9.68114	0.619
9.71703	0.654
9.75293	0.681
9.78882	0.697
9.82471	0.713
9.86061	0.725
9.8965	0.728
9.93239	0.72
9.96829	0.647
10.0042	0.66
10.0401	0.709
10.076	0.744
10.1119	0.748
10.1478	0.751
10.1836	0.755
10.2195	0.757
10.2554	0.75
10.2913	0.72
10.3272	0.688
10.3631	0.637
10.399	0.491
10.4349	0.309
10.4708	0.306
10.5067	0.403
10.5426	0.521
10.5785	0.51
10.6144	0.552
10.6503	0.528
10.6861	0.547
10.722	0.609
10.7579	0.598
10.7938	0.533
10.8297	0.403
10.8656	0.359
10.9015	0.375
10.9374	0.561
10.9733	0.649
11.0092	0.697
11.0451	0.718
11.081	0.735
11.1169	0.746
11.1528	0.751
11.1887	0.751
11.2245	0.751
11.2604	0.739
11.2963	0.672
11.3322	0.575
11.3681	0.588
11.404	0.672
11.4399	0.72
11.4758	0.76
11.5117	0.778
11.5476	0.783
11.5835	0.757
11.6194	0.656
11.6553	0.524
11.6912	0.496
11.7271	0.621
11.7629	0.727
11.7988	0.755
11.8347	0.771
11.8706	0.779
11.9065	0.792
11.9424	0.802
11.9783	0.813
12.0142	0.818
12.0501	0.825
12.086	0.825
12.1219	0.813
12.1578	0.774
12.1937	0.785
12.2296	0.822
12.2654	0.841
12.3013	0.852
12.3372	0.855
12.3731	0.86
12.409	0.859
12.4449	0.862
12.4808	0.867
12.5167	0.867
12.5526	0.869
12.5885	0.869
12.6244	0.869
12.6603	0.869
12.6962	0.869
12.7321	0.867
12.768	0.866
12.8038	0.855
12.8397	0.843
12.8756	0.705
12.9115	0.556
12.9474	0.566
12.9833	0.681
13.0192	0.79
13.0551	0.82
13.091	0.838
13.1269	0.846
13.1628	0.85
13.1987	0.85
13.2346	0.85
13.2705	0.843
13.3064	0.839
13.3422	0.838
13.3781	0.827
13.414	0.816
13.4499	0.797
13.4858	0.771
13.5217	0.72
13.5576	0.632
13.5935	0.454
13.6294	0.283
13.6653	0.181
13.7012	0.147
13.7371	0.147
13.773	0.14
13.8089	0.132
13.8447	0.128
13.8806	0.137
13.9165	0.165
13.9524	0.228
13.9883	0.322
14.0242	0.404
14.0601	0.459
14.096	0.503
14.1319	0.549
14.1678	0.573
14.2037	0.595
14.2396	0.626
14.2755	0.647
14.3114	0.663
14.3473	0.677
14.3831	0.69
14.419	0.697
14.4549	0.705
14.4908	0.713
14.5267	0.721
14.5626	0.727
14.5985	0.732
14.6344	0.735
14.6703	0.737
14.7062	0.741
14.7421	0.742
14.778	0.742
14.8139	0.744
14.8498	0.748
14.8857	0.75
14.9215	0.75
14.9574	0.744
14.9933	0.742
15.0292	0.748
15.0651	0.751
15.101	0.746
15.1369	0.746
15.1728	0.744
15.2087	0.744
15.2446	0.744
15.2805	0.739
15.3164	0.735
15.3523	0.737
15.3882	0.732
15.424	0.72
15.4599	0.716
