Infrared Spectrum: P-(2-HYDROXYETHOXY) CINNAMIC ACID
Formula: C11 H12 O4
CAS: 60345-99-5
State: SOLID (NUJOL MULL)
Class: COBLENTZ
Instrument: Not specified, most likely a prism, grating, or hybrid spectrometer.
Sampling: TRANSMISSION
Resolution: 4
Origin: DOW CHEMICAL COMPANY
MICROMETERS	TRANSMITTANCE
2.013	0.455
2.05312	0.469
2.09323	0.477
2.13335	0.484
2.17346	0.5
2.21358	0.509
2.2537	0.512
2.29381	0.515
2.33393	0.529
2.37404	0.54
2.41416	0.554
2.45428	0.569
2.49439	0.58
2.53451	0.592
2.57462	0.597
2.61474	0.62
2.65486	0.623
2.69497	0.647
2.73509	0.642
2.77521	0.648
2.81532	0.652
2.85544	0.647
2.89555	0.625
2.93567	0.58
2.97579	0.515
3.0159	0.465
3.05602	0.467
3.09613	0.492
3.13625	0.515
3.17637	0.535
3.21648	0.53
3.2566	0.505
3.29671	0.475
3.33683	0.4
3.37695	0.143
3.41706	0.091
3.45718	0.184
3.49729	0.282
3.53741	0.492
3.57753	0.53
3.61764	0.569
3.65776	0.569
3.69787	0.564
3.73799	0.569
3.77811	0.575
3.81822	0.572
3.85834	0.569
3.89845	0.575
3.93857	0.585
3.97869	0.602
4.0188	0.63
4.05892	0.663
4.09904	0.685
4.13915	0.702
4.17927	0.713
4.21938	0.72
4.2595	0.743
4.29962	0.76
4.33973	0.768
4.37985	0.777
4.41996	0.79
4.46008	0.8
4.5002	0.801
4.54031	0.808
4.58043	0.813
4.62054	0.823
4.66066	0.823
4.70078	0.828
4.74089	0.831
4.78101	0.838
4.82112	0.841
4.86124	0.848
4.90136	0.861
4.94147	0.861
4.98159	0.868
5.0217	0.875
5.06182	0.876
5.10194	0.873
5.14205	0.871
5.18217	0.883
5.22229	0.883
5.2624	0.871
5.30252	0.863
5.34263	0.875
5.38275	0.89
5.42287	0.891
5.46298	0.898
5.5031	0.9
5.54321	0.903
5.58333	0.915
5.62345	0.916
5.66356	0.913
5.70368	0.901
5.74379	0.885
5.78391	0.833
5.82403	0.732
5.86414	0.584
5.90426	0.356
5.94437	0.209
5.98449	0.174
6.02461	0.287
6.06472	0.492
6.10484	0.52
6.14495	0.424
6.18507	0.404
6.22519	0.191
6.2653	0.366
6.30542	0.534
6.34553	0.49
6.38565	0.633
6.42577	0.732
6.46588	0.753
6.506	0.782
6.54612	0.758
6.58623	0.53
6.62635	0.384
6.66646	0.67
6.70658	0.718
6.7467	0.697
6.78681	0.587
6.82693	0.464
6.86704	0.475
6.90716	0.552
6.94728	0.509
6.98739	0.41
7.02751	0.56
7.06762	0.638
7.10774	0.7
7.14786	0.723
7.18797	0.702
7.22809	0.633
7.2682	0.622
7.30832	0.708
7.34844	0.73
7.38855	0.707
7.42867	0.648
7.46878	0.537
7.5089	0.49
7.54902	0.457
7.58913	0.417
7.62925	0.391
7.66936	0.484
7.70948	0.459
7.7496	0.379
7.78971	0.457
7.82983	0.512
7.86995	0.442
7.91006	0.269
7.95018	0.166
7.99029	0.188
8.03041	0.306
8.07053	0.399
8.11064	0.449
8.15076	0.407
8.19087	0.364
8.23099	0.357
8.27111	0.447
8.31122	0.502
8.35134	0.607
8.39145	0.66
8.43157	0.575
8.47169	0.271
8.5118	0.211
8.55192	0.424
8.59203	0.509
8.63215	0.574
8.67227	0.612
8.71238	0.653
8.7525	0.69
8.79261	0.718
8.83273	0.733
8.87285	0.72
8.91296	0.672
8.95308	0.665
8.9932	0.668
9.03331	0.635
9.07343	0.613
9.11354	0.657
9.15366	0.673
9.19378	0.618
9.23389	0.632
9.27401	0.712
9.31412	0.755
9.35424	0.777
9.39436	0.783
9.43447	0.763
9.47459	0.67
9.5147	0.618
9.55482	0.632
9.59494	0.602
9.63505	0.515
9.67517	0.369
9.71528	0.342
9.7554	0.512
9.79552	0.608
9.83563	0.672
9.87575	0.702
9.91586	0.722
9.95598	0.747
9.9961	0.755
10.0362	0.752
10.0763	0.73
10.1164	0.647
10.1566	0.602
10.1967	0.65
10.2368	0.643
10.2769	0.597
10.317	0.725
10.3571	0.752
10.3973	0.76
10.4374	0.768
10.4775	0.77
10.5176	0.758
10.5577	0.717
10.5978	0.658
10.638	0.637
10.6781	0.64
10.7182	0.628
10.7583	0.653
10.7984	0.668
10.8385	0.587
10.8787	0.539
10.9188	0.595
10.9589	0.65
10.999	0.663
11.0391	0.667
11.0792	0.65
11.1193	0.635
11.1595	0.677
11.1996	0.725
11.2397	0.752
11.2798	0.763
11.3199	0.782
11.36	0.785
11.4002	0.785
11.4403	0.79
11.4804	0.8
11.5205	0.8
11.5606	0.8
11.6007	0.792
11.6409	0.783
11.681	0.79
11.7211	0.8
11.7612	0.797
11.8013	0.783
11.8414	0.733
11.8816	0.652
11.9217	0.625
11.9618	0.698
12.0019	0.715
12.042	0.677
12.0821	0.577
12.1222	0.539
12.1624	0.675
12.2025	0.763
12.2426	0.81
12.2827	0.813
12.3228	0.79
12.3629	0.72
12.4031	0.663
12.4432	0.67
12.4833	0.748
12.5234	0.805
12.5635	0.83
12.6036	0.843
12.6438	0.848
12.6839	0.843
12.724	0.831
12.7641	0.813
12.8042	0.81
12.8443	0.82
12.8845	0.835
12.9246	0.84
12.9647	0.848
13.0048	0.846
13.0449	0.848
13.085	0.848
13.1251	0.845
13.1653	0.841
13.2054	0.84
13.2455	0.833
13.2856	0.831
13.3257	0.83
13.3658	0.825
13.406	0.815
13.4461	0.8
13.4862	0.787
13.5263	0.778
13.5664	0.777
13.6065	0.78
13.6467	0.775
13.6868	0.768
13.7269	0.76
13.767	0.752
13.8071	0.747
13.8472	0.738
13.8874	0.737
13.9275	0.735
13.9676	0.733
14.0077	0.732
14.0478	0.732
14.0879	0.73
14.1281	0.725
14.1682	0.722
14.2083	0.715
14.2484	0.703
14.2885	0.687
14.3286	0.678
14.3687	0.667
14.4089	0.658
14.449	0.647
14.4891	0.643
14.5292	0.643
14.5693	0.648
14.6094	0.658
14.6496	0.662
14.6897	0.663
14.7298	0.662
14.7699	0.658
14.81	0.655
14.8501	0.65
14.8903	0.642
14.9304	0.637
14.9705	0.637
15.0106	0.633
15.0507	0.627
15.0908	0.622
15.131	0.617
15.1711	0.608
15.2112	0.605
15.2513	0.599
15.2914	0.594
15.3315	0.587
15.3716	0.577
15.4118	0.572
15.4519	0.565
15.492	0.555
15.5321	0.547
15.5722	0.539
15.6123	0.527
15.6525	0.517
15.6926	0.507
15.7327	0.499
15.7728	0.492
15.8129	0.49
15.853	0.487
