Infrared Spectrum: 3Beta-HYDROXY-24Beta-METHYL-5Alpha-CHOLEST-14-ENE, BENZOATE
Formula: C35 H52 O2
CAS: 6034-20-4
State: SOLID (KBr DISC)
Class: COBLENTZ III
Instrument: BECKMAN IR-7
Sampling: TRANSMISSION
Resolution: 4
Origin: THE WORCESTER FOUNDATION FOR EXPERIMENTAL BIOLOGY, Neal L. McNiven
1/CM	TRANSMITTANCE
598.526	0.643
607.368	0.573
616.21	0.613
625.052	0.744
633.894	0.801
642.737	0.834
651.579	0.885
660.421	0.894
669.263	0.86
678.105	0.7131
686.947	0.555
695.789	0.713
704.631	0.1331
713.473	0.3049
722.316	0.6828
731.158	0.943
740	1.01
748.842	1.004
757.684	0.986
766.526	0.9639
775.368	1.029
784.21	1.031
793.052	1.02
801.895	0.7431
810.737	0.8939
819.579	0.97
828.421	0.678
837.263	0.946
846.105	0.9441
854.947	0.9429
863.789	0.973
872.631	0.876
881.474	0.689
890.316	0.907
899.158	0.824
908	0.927
916.842	0.872
925.684	0.843
934.526	0.5211
943.368	0.6409
952.21	0.626
961.053	0.614
969.895	0.6331
978.737	0.614
987.579	0.5611
996.421	0.538
1005.26	0.479
1014.11	0.4859
1022.95	0.552
1031.79	0.6108
1040.63	0.711
1049.47	0.73
1058.32	0.692
1067.16	0.3221
1076	0.5298
1084.84	0.663
1093.68	0.4801
1102.53	0.27
1111.37	0.186
1120.21	0.3119
1129.05	0.484
1137.89	0.64
1146.74	0.63
1155.58	0.623
1164.42	0.628
1173.26	0.426
1182.11	0.66
1190.95	0.747
1199.79	0.741
1208.63	0.6931
1217.47	0.647
1226.32	0.639
1235.16	0.486
1244	0.26
1252.84	0.257
1261.68	0.152
1270.53	0.096
1279.37	0.23
1288.21	0.3969
1297.05	0.5179
1305.89	0.487
1314.74	0.425
1323.58	0.444
1332.42	0.602
1341.26	0.673
1350.11	0.655
1358.95	0.526
1367.79	0.395
1376.63	0.372
1385.47	0.4858
1394.32	0.712
1403.16	0.769
1412	0.794
1420.84	0.771
1429.68	0.599
1438.53	0.359
1447.37	0.271
1456.21	0.36
1465.05	0.36
1473.9	0.6009
1482.74	0.759
1491.58	0.776
1500.42	0.893
1509.26	0.906
1518.11	0.915
1526.95	0.937
1535.79	0.935
1544.63	0.931
1553.47	0.9
1562.32	0.906
1571.16	0.909
1580	0.755
1588.84	0.836
1597.68	0.694
1606.53	0.7449
1615.37	0.866
1624.21	0.873
1633.05	0.868
1641.9	0.7891
1650.74	0.7749
1659.58	0.844
1668.42	0.809
1677.26	0.734
1686.11	0.712
1694.95	0.623
1703.79	0.294
1712.63	0.102
1721.47	0.207
1730.32	0.4859
1739.16	0.5959
1748	0.749
1756.84	0.82
1765.68	0.852
1774.53	0.844
1783.37	0.839
1792.21	0.855
1801.05	0.882
1809.9	0.897
1818.74	0.865
1827.58	0.911
1836.42	0.928
1845.26	0.947
1854.11	0.956
1862.95	0.958
1871.79	0.956
1880.63	0.953
1889.47	0.948
1898.32	0.939
1907.16	0.878
1916	0.9
1924.84	0.895
1933.68	0.936
1942.53	0.935
1951.37	0.921
1960.21	0.868
1969.05	0.898
1977.9	0.908
1986.74	0.926
1995.58	0.936
2004.42	0.942
2013.26	0.944
2022.11	0.944
2030.95	0.945
2039.79	0.945
2048.63	0.946
2057.47	0.947
2066.32	0.947
2075.16	0.9483
2084	0.949
2092.84	0.948
2101.68	0.9474
2110.53	0.947
2119.37	0.946
2128.21	0.946
2137.05	0.946
2145.9	0.945
2154.74	0.944
2163.58	0.944
2172.42	0.943
2181.26	0.943
2190.11	0.942
2198.95	0.9402
2207.79	0.9361
2216.63	0.9064
2225.47	0.8859
2234.32	0.882
2243.16	0.881
2252	0.8797
2260.84	0.8775
2269.69	0.876
2278.53	0.874
2287.37	0.8722
2296.21	0.871
2305.05	0.8681
2313.9	0.8609
2322.74	0.8537
2331.58	0.8487
2340.42	0.847
2349.26	0.845
2358.11	0.843
2366.95	0.8384
2375.79	0.8302
2384.63	0.8261
2393.47	0.8279
2402.32	0.8301
2411.16	0.8355
2420	0.839
2428.84	0.84
2437.69	0.839
2446.53	0.838
2455.37	0.8353
2464.21	0.8315
2473.05	0.8301
2481.9	0.829
2490.74	0.828
2499.58	0.827
2508.42	0.8245
2517.26	0.8179
2526.11	0.8121
2534.95	0.8084
2543.79	0.807
2552.63	0.8035
2561.47	0.7974
2570.32	0.7842
2579.16	0.7697
2588	0.7525
2596.84	0.7427
2605.69	0.739
2614.53	0.7466
2623.37	0.7494
2632.21	0.7457
2641.05	0.7405
2649.9	0.7381
2658.74	0.736
2667.58	0.7308
2676.42	0.724
2685.26	0.7217
2694.11	0.72
2702.95	0.719
2711.79	0.7164
2720.63	0.705
2729.47	0.6972
2738.32	0.7026
2747.16	0.707
2756	0.7066
2764.84	0.6917
2773.69	0.6832
2782.53	0.6601
2791.37	0.61
2800.21	0.536
2809.05	0.2826
2817.9	0.2932
2826.74	0.29
2835.58	0.2203
2844.42	0.1736
2853.26	0.1403
2862.11	0.1629
2870.95	0.1836
2879.79	0.1865
2888.63	0.1629
2897.48	0.158
2906.32	0.1395
2915.16	0.1025
2924	0.089
2932.84	0.089
2941.69	0.0892
2950.53	0.0976
2959.37	0.1325
2968.21	0.2269
2977.05	0.3048
2985.9	0.3585
2994.74	0.4392
3003.58	0.5087
3012.42	0.5498
3021.26	0.574
3030.11	0.5706
3038.95	0.5659
3047.79	0.5458
3056.63	0.497
3065.48	0.5197
3074.32	0.5785
3083.16	0.6259
3092	0.6299
3100.84	0.6649
3109.69	0.6712
3118.53	0.6835
3127.37	0.691
3136.21	0.691
3145.05	0.6905
3153.9	0.6884
3162.74	0.6813
3171.58	0.6846
3180.42	0.688
3189.26	0.69
3198.11	0.6921
3206.95	0.6942
3215.79	0.6963
3224.63	0.6984
3233.48	0.701
3242.32	0.705
3251.16	0.707
3260	0.7088
3268.84	0.7109
3277.69	0.711
3286.53	0.7098
3295.37	0.7078
3304.21	0.7067
3313.05	0.705
3321.9	0.7035
3330.74	0.703
3339.58	0.703
3348.42	0.7022
3357.26	0.7011
3366.11	0.7
3374.95	0.699
3383.79	0.6966
3392.63	0.6879
3401.48	0.6724
3410.32	0.6565
3419.16	0.6667
3428	0.6768
3436.84	0.6888
3445.69	0.6939
3454.53	0.696
3463.37	0.6971
3472.21	0.698
3481.05	0.6993
3489.9	0.7
3498.74	0.7015
3507.58	0.703
3516.42	0.7077
3525.26	0.71
3534.11	0.711
3542.95	0.713
3551.79	0.7141
3560.63	0.7152
3569.48	0.7173
3578.32	0.7204
3587.16	0.721
3596	0.7226
3604.84	0.723
3613.69	0.723
3622.53	0.723
3631.37	0.722
3640.21	0.719
3649.05	0.7178
3657.9	0.7167
3666.74	0.7156
3675.58	0.715
3684.42	0.714
3693.27	0.714
3702.11	0.713
3710.95	0.713
3719.79	0.713
3728.63	0.712
3737.48	0.7088
3746.32	0.707
3755.16	0.7026
3764	0.7
3772.84	0.699
3781.69	0.6983
3790.53	0.698
3799.37	0.697
3808.21	0.697
3817.05	0.6969
3825.9	0.696
3834.74	0.695
3843.58	0.695
3852.42	0.694
3861.27	0.6924
3870.11	0.6903
3878.95	0.6892
3887.79	0.689
3896.63	0.689
3905.48	0.689
3914.32	0.6888
3923.16	0.6857
3932	0.684
3940.84	0.684
3949.69	0.684
3958.53	0.684
3967.37	0.684
3976.21	0.6841
3985.05	0.684
