Infrared Spectrum: 2,4-PYRIMIDINEDIAMINE, 6-CHLORO-5-NITRO-
Formula: C4 H4 Cl N5 O2
CAS: 6036-64-2
State: SOLID (1 mg / 500 mg KBr DISC)
Class: COBLENTZ III
Instrument: PERKIN-ELMER 521 (GRATING)
Sampling: TRANSMISSION
Resolution: 4
Origin: SOUTHERN RESEARCH INSTITUTE
1/CM	TRANSMITTANCE
263.158	0.245
273.675	0.3318
284.192	0.4259
294.709	0.4828
305.226	0.5627
315.743	0.6227
326.26	0.6538
336.778	0.6898
347.295	0.7238
357.812	0.7429
368.329	0.7629
378.846	0.7642
389.363	0.7451
399.88	0.7726
410.397	0.7918
420.914	0.794
431.431	0.7846
441.948	0.7546
452.465	0.7121
462.982	0.7415
473.5	0.7669
484.017	0.763
494.534	0.7915
505.051	0.798
515.568	0.7962
526.085	0.7805
536.602	0.7533
547.119	0.7118
557.636	0.7154
568.153	0.7572
578.67	0.7798
589.187	0.7777
599.704	0.7848
610.222	0.759
620.739	0.796
631.256	0.7798
641.773	0.831
652.29	0.854
662.807	0.857
673.324	0.854
683.841	0.8724
694.358	0.879
704.875	0.8898
715.392	0.915
725.909	0.915
736.426	0.9083
746.943	0.8863
757.461	0.8607
767.978	0.8483
778.495	0.7093
789.012	0.9139
799.529	0.934
810.046	0.938
820.563	0.938
831.08	0.9311
841.597	0.8
852.114	0.935
862.631	0.9344
873.148	0.9222
883.665	0.9079
894.183	0.8535
904.7	0.7448
915.217	0.8898
925.734	0.918
936.251	0.92
946.768	0.92
957.285	0.918
967.802	0.916
978.319	0.9
988.836	0.8854
999.353	0.855
1009.87	0.7891
1020.39	0.8324
1030.9	0.857
1041.42	0.8405
1051.94	0.8399
1062.46	0.8688
1072.97	0.879
1083.49	0.879
1094.01	0.877
1104.52	0.873
1115.04	0.871
1125.56	0.861
1136.08	0.8566
1146.59	0.857
1157.11	0.861
1167.63	0.8442
1178.14	0.8122
1188.66	0.8291
1199.18	0.836
1209.69	0.835
1220.21	0.8289
1230.73	0.7973
1241.25	0.7596
1251.76	0.6606
1262.28	0.5354
1272.8	0.4178
1283.31	0.3966
1293.83	0.5349
1304.35	0.7243
1314.87	0.6966
1325.38	0.6114
1335.9	0.6071
1346.42	0.7478
1356.93	0.8042
1367.45	0.8338
1377.97	0.843
1388.49	0.839
1399	0.825
1409.52	0.8038
1420.04	0.7484
1430.55	0.6768
1441.07	0.6604
1451.59	0.7334
1462.1	0.7324
1472.62	0.6996
1483.14	0.6603
1493.66	0.6361
1504.17	0.5446
1514.69	0.478
1525.21	0.5248
1535.72	0.3049
1546.24	0.3701
1556.76	0.4226
1567.28	0.3549
1577.79	0.3996
1588.31	0.5854
1598.83	0.5974
1609.34	0.5402
1619.86	0.4008
1630.38	0.2663
1640.89	0.3899
1651.41	0.4829
1661.93	0.4541
1672.45	0.5781
1682.96	0.7505
1693.48	0.8331
1704	0.8872
1714.51	0.9171
1725.03	0.937
1735.55	0.946
1746.07	0.955
1756.58	0.962
1767.1	0.967
1777.62	0.969
1788.13	0.972
1798.65	0.973
1809.17	0.972
1819.69	0.972
1830.2	0.975
1840.72	0.975
1851.24	0.975
1861.75	0.975
1872.27	0.975
1882.79	0.9732
1893.3	0.972
1903.82	0.973
1914.34	0.972
1924.86	0.969
1935.37	0.968
1945.89	0.969
1956.41	0.967
1966.92	0.968
1977.44	0.966
1987.96	0.9643
1998.48	0.964
2008.99	0.9623
2019.51	0.96
2030.03	0.96
2040.54	0.96
2051.06	0.9628
2061.58	0.963
2072.1	0.963
2082.61	0.9622
2093.13	0.96
2103.65	0.9622
2114.16	0.962
2124.68	0.962
2135.2	0.962
2145.71	0.962
2156.23	0.9603
2166.75	0.96
2177.27	0.962
2187.78	0.962
2198.3	0.963
2208.82	0.962
2219.33	0.9603
2229.85	0.9582
2240.37	0.9577
2250.89	0.956
2261.4	0.956
2271.92	0.956
2282.44	0.956
2292.95	0.956
2303.47	0.954
2313.99	0.952
2324.5	0.952
2335.02	0.952
2345.54	0.952
2356.06	0.952
2366.57	0.952
2377.09	0.952
2387.61	0.9512
2398.12	0.951
2408.64	0.951
2419.16	0.951
2429.68	0.951
2440.19	0.951
2450.71	0.95
2461.23	0.947
2471.74	0.946
2482.26	0.945
2492.78	0.945
2503.3	0.945
2513.81	0.943
2524.33	0.943
2534.85	0.9412
2545.36	0.939
2555.88	0.937
2566.4	0.937
2576.91	0.937
2587.43	0.9342
2597.95	0.933
2608.47	0.9292
2618.98	0.925
2629.5	0.921
2640.02	0.918
2650.53	0.9168
2661.05	0.916
2671.57	0.913
2682.09	0.912
2692.6	0.9118
2703.12	0.911
2713.64	0.912
2724.15	0.913
2734.67	0.913
2745.19	0.9112
2755.71	0.908
2766.22	0.9013
2776.74	0.8942
2787.26	0.888
2797.77	0.886
2808.29	0.8822
2818.81	0.882
2829.32	0.882
2839.84	0.882
2850.36	0.882
2860.88	0.881
2871.39	0.878
2881.91	0.8753
2892.43	0.8702
2902.94	0.8652
2913.46	0.8583
2923.98	0.854
2934.5	0.849
2945.01	0.8405
2955.53	0.8312
2966.05	0.8182
2976.56	0.8113
2987.08	0.7943
2997.6	0.784
3008.11	0.776
3018.63	0.7662
3029.15	0.7542
3039.67	0.7323
3050.18	0.7085
3060.7	0.6813
3071.22	0.6546
3081.73	0.6365
3092.25	0.6243
3102.77	0.6132
3113.29	0.6003
3123.8	0.5815
3134.32	0.572
3144.84	0.5542
3155.35	0.551
3165.87	0.552
3176.39	0.552
3186.91	0.554
3197.42	0.551
3207.94	0.558
3218.46	0.5855
3228.97	0.6272
3239.49	0.6764
3250.01	0.692
3260.52	0.6822
3271.04	0.653
3281.56	0.6105
3292.08	0.5796
3302.59	0.5605
3313.11	0.55
3323.63	0.5558
3334.14	0.5704
3344.66	0.5928
3355.18	0.593
3365.7	0.5815
3376.21	0.5563
3386.73	0.5283
3397.25	0.4736
3407.76	0.4068
3418.28	0.4872
3428.8	0.5363
3439.31	0.543
3449.83	0.546
3460.35	0.5393
3470.87	0.4885
3481.38	0.5436
3491.9	0.642
3502.42	0.6744
3512.93	0.6975
3523.45	0.72
3533.97	0.74
3544.49	0.7588
3555	0.777
3565.52	0.7928
3576.04	0.8127
3586.55	0.83
3597.07	0.8394
3607.59	0.8608
3618.11	0.8838
3628.62	0.8958
3639.14	0.9088
3649.66	0.915
3660.17	0.915
3670.69	0.916
3681.21	0.918
3691.72	0.9277
3702.24	0.929
3712.76	0.928
3723.28	0.9242
3733.79	0.922
3744.31	0.9223
3754.83	0.922
3765.34	0.922
3775.86	0.921
3786.38	0.921
3796.9	0.921
3807.41	0.918
3817.93	0.918
3828.45	0.917
3838.96	0.917
3849.48	0.916
3860	0.915
3870.52	0.916
3881.03	0.913
3891.55	0.915
3902.07	0.9147
3912.58	0.9122
3923.1	0.913
3933.62	0.913
3944.13	0.913
3954.65	0.9147
3965.17	0.913
3975.69	0.913
3986.2	0.9122
3996.72	0.913
