Infrared Spectrum: 1,1'-Binaphtyl
Formula: C 20 H 14
CAS: 604-53-5
State: gas
Instrument: HP-GC/MS/IRD
Origin: NIST Mass Spectrometry Data Center
1/CM	ABSORBANCE
550	0.0002184
562	0.0004836
574	0.0029068
586	0.0008008
598	0.000364
610	0.0008112
622	0.0049608
634	0.0002496
646	0.0001768
658	5.2e-06
670	0.000364
682	0.0012532
694	0.0001664
706	0.0004056
718	0.0007228
730	0.002184
742	0.0018512
754	0.0042952
766	0.0228228
778	0.052
790	0.022542
802	0.0175604
814	0.0030888
826	0.0011024
838	0.0006656
850	0.0014456
862	0.0019656
874	0.0007332
886	0.000286
898	0.0002964
910	0.0004056
922	0.0005564
934	0.0010816
946	0.0030316
958	0.0011544
970	0.0009776
982	0.0003172
994	0.000702
1006	0.0029536
1018	0.0045656
1030	0.0011232
1042	0.0007904
1054	0.0012844
1066	0.000442
1078	0.0007072
1090	0.0001976
1102	0.0001248
1114	0.0003172
1126	0.0005512
1138	0.0010088
1150	0.0002652
1162	0.0014456
1174	0.0001612
1186	7.28e-05
1198	0.000702
1210	0.00091
1222	0.000234
1234	0.0003848
1246	0.0008216
1258	0.0016432
1270	0.0001352
1282	1.04e-05
1294	0.0002444
1306	0.000416
1318	0.0004212
1330	0.000884
1342	0.0006344
1354	0.0006292
1366	0.002392
1378	0.0077636
1390	0.0089284
1402	0.0014456
1414	0.0009412
1426	0.0010192
1438	0.0009672
1450	0.0006552
1462	0.0006188
1474	0.000598
1486	0.0010348
1498	0.0045032
1510	0.0048828
1522	0.00195
1534	0.001196
1546	0.0006812
1558	0.0009464
1570	0.0026052
1582	0.0029276
1594	0.0026208
1606	0.0006864
1618	0.0007124
1630	0.000936
1642	0.0006968
1654	0.0005876
1666	0.0006916
1678	0.0014144
1690	0.001716
1702	0.001352
1714	0.0008892
1726	0.0011232
1738	0.000832
1750	0.0008424
1762	0.0010036
1774	0.000936
1786	0.0005096
1798	0.0015912
1810	0.0024596
1822	0.0011388
1834	0.0011648
1846	0.0006188
1858	0.001066
1870	0.001352
1882	0.0003744
1894	0.0006604
1906	0.0013676
1918	0.0027196
1930	0.0021268
1942	0.001638
1954	0.0006604
1966	0.0001768
1978	0.0001144
1990	6.76e-05
2002	7.28e-05
2014	0.0001144
2026	4.16e-05
2038	3.64e-05
2050	8.32e-05
2062	7.28e-05
2074	5.2e-05
2086	6.24e-05
2098	4.68e-05
2110	5.72e-05
2122	2.6e-05
2134	2.6e-05
2146	1.56e-05
2158	4.68e-05
2170	2.6e-05
2182	4.68e-05
2194	3.64e-05
2206	4.68e-05
2218	9.36e-05
2230	9.36e-05
2242	8.32e-05
2254	0.00013
2266	0.00013
2278	0.000208
2290	0.0002236
2302	0.0001872
2314	0.0001144
2326	0.000156
2338	0.0001716
2350	0.000104
2362	0.0001196
2374	0.0001144
2386	0.00013
2398	0.0001404
2410	0.0002704
2422	0.000182
2434	7.8e-05
2446	9.36e-05
2458	0.0001196
2470	0.0001092
2482	0.0001144
2494	0.0001092
2506	6.76e-05
2518	6.76e-05
2530	9.88e-05
2542	0.00013
2554	6.24e-05
2566	6.24e-05
2578	4.68e-05
2590	5.2e-05
2602	4.16e-05
2614	6.76e-05
2626	5.72e-05
2638	8.32e-05
2650	7.28e-05
2662	6.76e-05
2674	4.16e-05
2686	3.64e-05
2698	7.28e-05
2710	5.2e-05
2722	0
2734	2.6e-05
2746	9.88e-05
2758	4.68e-05
2770	1.56e-05
2782	0.000104
2794	0.0001144
2806	0.0001196
2818	0.000156
2830	0.0001404
2842	0.000182
2854	0.0002132
2866	0.0003068
2878	0.0002184
2890	0.0003172
2902	0.0004212
2914	0.0004212
2926	0.0006552
2938	0.0010608
2950	0.0011856
2962	0.0010088
2974	0.0009464
2986	0.0014976
2998	0.002808
3010	0.0042484
3022	0.00468
3034	0.0077844
3046	0.0216892
3058	0.0325728
3070	0.026624
3082	0.0135564
3094	0.008632
3106	0.0033488
3118	0.0011388
3130	0.0006292
3142	0.0004316
3154	0.0003588
3166	0.000468
3178	0.0003432
3190	0.0001924
3202	0.0002704
3214	0.000182
3226	0.0001612
3238	9.88e-05
3250	0.0001352
3262	7.8e-05
3274	9.36e-05
3286	1.56e-05
3298	7.28e-05
3310	0.0001352
3322	9.88e-05
3334	5.72e-05
3346	8.84e-05
3358	9.88e-05
3370	5.72e-05
3382	9.88e-05
3394	8.32e-05
3406	5.2e-06
3418	6.76e-05
3430	5.2e-05
3442	5.2e-05
3454	6.24e-05
3466	3.12e-05
3478	7.8e-05
3490	6.24e-05
3502	9.36e-05
3514	0.0001092
3526	0.0001352
3538	8.32e-05
3550	0.0001508
3562	0.0002132
3574	0.0002028
3586	0.0001768
3598	0.0001248
3610	0.0001352
3622	0.0001768
3634	0.0001768
3646	9.36e-05
3658	0.0001664
3670	0.00013
3682	0.0001144
3694	0.0001976
3706	0.0001664
3718	0.0001456
3730	0.0001716
3742	0.0001404
3754	0.0001716
3766	0.0002392
3778	0.0002028
3790	0.0002288
3802	0.0002704
3814	0.000338
3826	0.0002496
3838	0.0003744
