Infrared Spectrum: O-BENZOYL BENZOIC ACID, 2-ETHOXY-ETHYL ETHER
Formula: C18 H18 O4
CAS: 604-63-7
State: SOLID (MINERAL OIL MULL)
Melting point: 52-56 C
Class: COBLENTZ
Instrument: Not specified, most likely a prism, grating, or hybrid spectrometer.
Sampling: TRANSMISSION
Resolution: 4
Origin: WYANDOTTE CHEMICALS CORP., WYANDOTTE, MICHIGAN, USA
MICROMETERS	TRANSMITTANCE
2.026	0.651
2.06574	0.659
2.10547	0.671
2.14521	0.669
2.18495	0.662
2.22468	0.674
2.26442	0.679
2.30415	0.686
2.34389	0.686
2.38363	0.692
2.42336	0.7
2.4631	0.712
2.50284	0.72
2.54257	0.735
2.58231	0.712
2.62205	0.759
2.66178	0.749
2.70152	0.744
2.74126	0.75
2.78099	0.737
2.82073	0.739
2.86046	0.73
2.9002	0.732
2.93994	0.719
2.97967	0.732
3.01941	0.707
3.05915	0.732
3.09888	0.729
3.13862	0.712
3.17836	0.719
3.21809	0.659
3.25783	0.639
3.29757	0.526
3.3373	0.091
3.37704	0.091
3.41677	0.139
3.45651	0.169
3.49625	0.377
3.53598	0.647
3.57572	0.75
3.61546	0.78
3.65519	0.784
3.69493	0.797
3.73467	0.815
3.7744	0.818
3.81414	0.822
3.85388	0.833
3.89361	0.842
3.93335	0.85
3.97308	0.862
4.01282	0.868
4.05256	0.863
4.09229	0.868
4.13203	0.863
4.17177	0.862
4.2115	0.868
4.25124	0.858
4.29098	0.865
4.33071	0.883
4.37045	0.903
4.41019	0.903
4.44992	0.905
4.48966	0.908
4.52939	0.906
4.56913	0.91
4.60887	0.918
4.6486	0.916
4.68834	0.928
4.72808	0.93
4.76781	0.93
4.80755	0.94
4.84729	0.938
4.88702	0.941
4.92676	0.945
4.9665	0.941
5.00623	0.936
5.04597	0.903
5.0857	0.89
5.12544	0.915
5.16518	0.906
5.20491	0.926
5.24465	0.926
5.28439	0.953
5.32412	0.955
5.36386	0.95
5.4036	0.95
5.44333	0.938
5.48307	0.9
5.52281	0.948
5.56254	0.938
5.60228	0.921
5.64201	0.895
5.68175	0.895
5.72149	0.838
5.76122	0.636
5.80096	0.252
5.8407	0.074
5.88043	0.388
5.92017	0.493
5.95991	0.199
5.99964	0.23
6.03938	0.5
6.07912	0.681
6.11885	0.739
6.15859	0.764
6.19832	0.509
6.23806	0.556
6.2778	0.378
6.31753	0.616
6.35727	0.712
6.39701	0.805
6.43674	0.799
6.47648	0.82
6.51622	0.822
6.55595	0.84
6.59569	0.843
6.63543	0.832
6.67516	0.629
6.7149	0.661
6.75463	0.646
6.79437	0.43
6.83411	0.3
6.87384	0.33
6.91358	0.461
6.95332	0.729
6.99305	0.697
7.03279	0.755
7.07253	0.769
7.11226	0.779
7.152	0.735
7.19174	0.514
7.23147	0.45
7.27121	0.337
7.31094	0.631
7.35068	0.534
7.39042	0.691
7.43015	0.759
7.46989	0.744
7.50963	0.671
7.54936	0.513
7.5891	0.232
7.62884	0.26
7.66857	0.139
7.70831	0.091
7.74805	0.044
7.78778	0.046
7.82752	0.066
7.86725	0.202
7.90699	0.31
7.94673	0.186
7.98646	0.235
8.0262	0.416
8.06594	0.393
8.10567	0.561
8.14541	0.664
8.18515	0.717
8.22488	0.765
8.26462	0.789
8.30436	0.8
8.34409	0.815
8.38383	0.803
8.42356	0.686
8.4633	0.742
8.50304	0.767
8.54277	0.657
8.58251	0.461
8.62225	0.541
8.66198	0.36
8.70172	0.225
8.74146	0.257
8.78119	0.172
8.82093	0.325
8.86067	0.152
8.9004	0.129
8.94014	0.3
8.97987	0.397
9.01961	0.32
9.05935	0.5
9.09908	0.501
9.13882	0.312
9.17856	0.194
9.21829	0.302
9.25803	0.463
9.29777	0.576
9.3375	0.682
9.37724	0.719
9.41698	0.691
9.45671	0.491
9.49645	0.426
9.53618	0.634
9.57592	0.672
9.61566	0.661
9.65539	0.506
9.69513	0.579
9.73487	0.659
9.7746	0.77
9.81434	0.803
9.85408	0.84
9.89381	0.853
9.93355	0.862
9.97329	0.755
10.013	0.853
10.0528	0.87
10.0925	0.862
10.1322	0.87
10.172	0.865
10.2117	0.862
10.2514	0.862
10.2912	0.875
10.3309	0.865
10.3706	0.863
10.4104	0.812
10.4501	0.739
10.4899	0.82
10.5296	0.82
10.5693	0.764
10.6091	0.637
10.6488	0.624
10.6885	0.541
10.7283	0.235
10.768	0.186
10.8078	0.564
10.8475	0.7
10.8872	0.76
10.927	0.81
10.9667	0.832
11.0064	0.845
11.0462	0.855
11.0859	0.86
11.1256	0.853
11.1654	0.84
11.2051	0.789
11.2449	0.732
11.2846	0.765
11.3243	0.742
11.3641	0.641
11.4038	0.797
11.4435	0.842
11.4833	0.86
11.523	0.863
11.5627	0.843
11.6025	0.775
11.6422	0.632
11.682	0.652
11.7217	0.764
11.7614	0.817
11.8012	0.832
11.8409	0.83
11.8806	0.752
11.9204	0.657
11.9601	0.75
11.9998	0.828
12.0396	0.858
12.0793	0.878
12.1191	0.873
12.1588	0.86
12.1985	0.84
12.2383	0.852
12.278	0.875
12.3177	0.883
12.3575	0.883
12.3972	0.857
12.4369	0.762
12.4767	0.563
12.5164	0.431
12.5562	0.606
12.5959	0.762
12.6356	0.82
12.6754	0.853
12.7151	0.865
12.7548	0.883
12.7946	0.88
12.8343	0.875
12.874	0.85
12.9138	0.823
12.9535	0.774
12.9933	0.715
13.033	0.514
13.0727	0.303
13.1125	0.25
13.1522	0.466
13.1919	0.674
13.2317	0.762
13.2714	0.81
13.3111	0.833
13.3509	0.842
13.3906	0.852
13.4304	0.845
13.4701	0.843
13.5098	0.833
13.5496	0.823
13.5893	0.82
13.629	0.792
13.6688	0.78
13.7085	0.722
13.7482	0.568
13.788	0.455
13.8277	0.488
13.8675	0.556
13.9072	0.49
13.9469	0.317
13.9867	0.237
14.0264	0.182
14.0661	0.142
14.1059	0.139
14.1456	0.21
14.1853	0.28
14.2251	0.303
14.2648	0.26
14.3046	0.242
14.3443	0.327
14.384	0.448
14.4238	0.589
14.4635	0.656
14.5032	0.699
14.543	0.722
14.5827	0.72
14.6224	0.712
14.6622	0.73
14.7019	0.755
14.7417	0.782
14.7814	0.799
14.8211	0.802
14.8609	0.802
14.9006	0.8
14.9403	0.782
14.9801	0.752
15.0198	0.704
15.0595	0.689
15.0993	0.705
15.139	0.747
15.1788	0.762
15.2185	0.765
15.2582	0.769
15.298	0.76
15.3377	0.75
15.3774	0.752
15.4172	0.732
15.4569	0.727
15.4966	0.722
15.5364	0.71
15.5761	0.697
15.6159	0.656
15.6556	0.602
15.6953	0.558
15.7351	0.544
15.7748	0.569
15.8145	0.614
15.8543	0.632
15.894	0.641
15.9337	0.649
15.9735	0.644
