Infrared Spectrum: 9,10-DIMETHYL-PHENANTHRENE
Formula: C16 H14
CAS: 604-83-1
State: SOLUTION (SATURATED IN CS2)
Class: COBLENTZ
Instrument: Not specified, most likely a prism, grating, or hybrid spectrometer.
Sampling: TRANSMISSION
Path length: 0.01 CM
Resolution: 4
Origin: CENTRE D'ETUDES NUCLEAIRES DE GRENOBLE
MICROMETERS	TRANSMITTANCE
1.992	0.851
2.03204	0.848
2.07208	0.853
2.11212	0.848
2.15217	0.841
2.19221	0.841
2.23225	0.841
2.27229	0.835
2.31233	0.836
2.35237	0.84
2.39242	0.843
2.43246	0.841
2.4725	0.84
2.51254	0.851
2.55258	0.855
2.59262	0.855
2.63266	0.855
2.67271	0.861
2.71275	0.865
2.75279	0.863
2.79283	0.863
2.83287	0.855
2.87291	0.85
2.91295	0.84
2.953	0.838
2.99304	0.835
3.03308	0.835
3.07312	0.84
3.11316	0.835
3.1532	0.825
3.19325	0.79
3.23329	0.638
3.27333	0.445
3.31337	0.49
3.35341	0.635
3.39345	0.565
3.43349	0.426
3.47354	0.565
3.51358	0.631
3.55362	0.798
3.59366	0.845
3.6337	0.85
3.67374	0.845
3.71379	0.855
3.75383	0.863
3.79387	0.868
3.83391	0.868
3.87395	0.87
3.91399	0.875
3.95403	0.875
3.99408	0.871
4.03412	0.875
4.07416	0.876
4.1142	0.878
4.15424	0.878
4.19428	0.88
4.23432	0.888
4.27437	0.901
4.31441	0.91
4.35445	0.916
4.39449	0.931
4.43453	0.926
4.47457	0.918
4.51462	0.913
4.55466	0.953
4.5947	0.983
4.63474	0.985
4.67478	0.981
4.71482	0.971
4.75486	0.96
4.79491	0.946
4.83495	0.918
4.87499	0.891
4.91503	0.888
4.95507	0.895
4.99511	0.898
5.03516	0.898
5.0752	0.893
5.11524	0.883
5.15528	0.828
5.19532	0.83
5.23536	0.82
5.2754	0.838
5.31545	0.84
5.35549	0.863
5.39553	0.888
5.43557	0.891
5.47561	0.863
5.51565	0.82
5.55569	0.863
5.59574	0.835
5.63578	0.863
5.67582	0.88
5.71586	0.863
5.7559	0.868
5.79594	0.871
5.83599	0.85
5.87603	0.826
5.91607	0.76
5.95611	0.821
5.99615	0.848
6.03619	0.835
6.07623	0.84
6.11628	0.813
6.15632	0.773
6.19636	0.735
6.2364	0.6
6.27644	0.586
6.31648	0.598
6.35653	0.678
6.39657	0.695
6.43661	0.703
6.47665	0.711
6.51669	0.725
6.55673	0.73
6.59677	0.735
6.63682	0.743
6.67686	0.756
6.7169	0.768
6.75694	0.776
6.79698	0.786
6.83702	0.818
6.87706	0.828
6.91711	0.82
6.95715	0.776
6.99719	0.605
7.03723	0.6
7.07727	0.636
7.11731	0.653
7.15736	0.651
7.1974	0.633
7.23744	0.513
7.27748	0.586
7.31752	0.663
7.35756	0.685
7.3976	0.725
7.43765	0.766
7.47769	0.791
7.51773	0.753
7.55777	0.743
7.59781	0.773
7.63785	0.606
7.6779	0.796
7.71794	0.835
7.75798	0.828
7.79802	0.81
7.83806	0.825
7.8781	0.841
7.91814	0.838
7.95819	0.815
7.99823	0.781
8.03827	0.565
8.07831	0.645
8.11835	0.761
8.15839	0.725
8.19843	0.788
8.23848	0.79
8.27852	0.8
8.31856	0.83
8.3586	0.835
8.39864	0.83
8.43868	0.816
8.47873	0.786
8.51877	0.745
8.55881	0.793
8.59885	0.765
8.63889	0.78
8.67893	0.805
8.71897	0.826
8.75902	0.831
8.79906	0.828
8.8391	0.825
8.87914	0.818
8.91918	0.813
8.95922	0.816
8.99927	0.815
9.03931	0.821
9.07935	0.833
9.11939	0.831
9.15943	0.825
9.19947	0.818
9.23951	0.825
9.27956	0.831
9.3196	0.821
9.35964	0.835
9.39968	0.843
9.43972	0.845
9.47976	0.84
9.5198	0.81
9.55985	0.761
9.59989	0.496
9.63993	0.376
9.67997	0.56
9.72001	0.63
9.76005	0.736
9.8001	0.778
9.84014	0.796
9.88018	0.803
9.92022	0.766
9.96026	0.688
10.0003	0.795
10.0403	0.818
10.0804	0.823
10.1204	0.815
10.1605	0.81
10.2005	0.818
10.2406	0.831
10.2806	0.83
10.3206	0.83
10.3607	0.835
10.4007	0.836
10.4408	0.835
10.4808	0.833
10.5208	0.825
10.5609	0.766
10.6009	0.676
10.641	0.798
10.681	0.835
10.7211	0.85
10.7611	0.855
10.8011	0.86
10.8412	0.871
10.8812	0.875
10.9213	0.875
10.9613	0.878
11.0013	0.878
11.0414	0.878
11.0814	0.878
11.1215	0.876
11.1615	0.876
11.2015	0.878
11.2416	0.881
11.2816	0.883
11.3217	0.88
11.3617	0.878
11.4018	0.873
11.4418	0.868
11.4818	0.861
11.5219	0.855
11.5619	0.85
11.602	0.841
11.642	0.835
11.682	0.835
11.7221	0.828
11.7621	0.825
11.8022	0.838
11.8422	0.851
11.8823	0.865
11.9223	0.873
11.9623	0.875
12.0024	0.871
12.0424	0.875
12.0825	0.878
12.1225	0.878
12.1625	0.871
12.2026	0.871
12.2426	0.863
12.2827	0.856
12.3227	0.85
12.3628	0.841
12.4028	0.84
12.4428	0.831
12.4829	0.805
12.5229	0.77
12.563	0.79
12.603	0.811
12.643	0.825
12.6831	0.82
12.7231	0.811
12.7632	0.8
12.8032	0.778
12.8433	0.773
12.8833	0.765
12.9233	0.751
12.9634	0.725
13.0034	0.675
13.0435	0.661
13.0835	0.618
13.1235	0.521
13.1636	0.383
13.2036	0.168
13.2437	0.028
13.2837	0.005
13.3237	0
13.3638	0.045
13.4038	0.231
13.4439	0.42
13.4839	0.586
13.524	0.67
13.564	0.71
13.604	0.736
13.6441	0.731
13.6841	0.71
13.7242	0.64
13.7642	0.493
13.8042	0.203
13.8443	0.04
13.8843	0.026
13.9244	0.226
13.9644	0.456
14.0045	0.625
14.0445	0.693
14.0845	0.753
14.1246	0.788
14.1646	0.816
14.2047	0.826
14.2447	0.84
14.2847	0.845
14.3248	0.848
14.3648	0.848
14.4049	0.85
14.4449	0.851
14.485	0.855
14.525	0.855
14.565	0.856
14.6051	0.858
14.6451	0.861
14.6852	0.865
14.7252	0.868
14.7652	0.873
14.8053	0.88
14.8453	0.9
14.8854	0.908
14.9254	0.905
14.9655	0.896
15.0055	0.881
15.0455	0.87
15.0856	0.878
15.1256	0.875
15.1657	0.87
15.2057	0.865
15.2457	0.86
15.2858	0.853
15.3258	0.85
15.3659	0.85
15.4059	0.848
15.4459	0.84
15.486	0.845
15.526	0.848
15.5661	0.848
15.6061	0.85
15.6462	0.85
15.6862	0.861
15.7262	0.861
15.7663	0.86
15.8063	0.865
15.8464	0.86
15.8864	0.856
