Infrared Spectrum: o-Benzoylbenzoic acid, ethyl ester
Formula: C16 H14 O3
CAS: 604-61-5
State: SOLUTION (10% CCl4 FOR 3800-1330, 10% CS2 FOR 1330-400 CM^-^1)
Class: COBLENTZ III
Instrument: DOW KBr FOREPRISM-GRATING
Instrument parameters: BLAZED AT 3.5, 12.0, 20.0 MICRON AND CHANGED AT 5.0, 7.5, 14.9 MICRON
Sampling: TRANSMISSION
Path length: 0.011 CM, 0.011 CM
Resolution: 2
Origin: DOW CHEMICAL COMPANY
1/CM	TRANSMITTANCE
3798	0.9047
3789	0.9068
3780	0.9075
3771	0.9082
3762	0.9086
3753	0.9088
3744	0.9086
3735	0.9092
3726	0.9084
3717	0.9076
3708	0.9089
3699	0.9089
3690	0.9072
3681	0.9052
3672	0.9049
3663	0.9047
3654	0.9047
3645	0.9048
3636	0.9045
3627	0.9034
3618	0.8973
3609	0.893
3600	0.9014
3591	0.8944
3582	0.8704
3573	0.8921
3564	0.8922
3555	0.8932
3546	0.8929
3537	0.8916
3528	0.8902
3519	0.8897
3510	0.8893
3501	0.8892
3492	0.8891
3483	0.8882
3474	0.8869
3465	0.8845
3456	0.8771
3447	0.868
3438	0.8622
3429	0.8627
3420	0.867
3411	0.872
3402	0.8762
3393	0.8777
3384	0.8781
3375	0.8756
3366	0.8695
3357	0.8572
3348	0.8469
3339	0.8446
3330	0.8521
3321	0.8619
3312	0.8689
3303	0.8701
3294	0.8721
3285	0.8733
3276	0.875
3267	0.8769
3258	0.8775
3249	0.8781
3240	0.8786
3231	0.8789
3222	0.8792
3213	0.8774
3204	0.8736
3195	0.8715
3186	0.867
3177	0.8659
3168	0.8646
3159	0.8654
3150	0.8661
3141	0.8662
3132	0.8685
3123	0.8685
3114	0.8667
3105	0.8618
3096	0.8148
3087	0.7989
3078	0.7291
3069	0.6617
3060	0.6186
3051	0.68
3042	0.7917
3033	0.7565
3024	0.7292
3015	0.7882
3006	0.7639
2997	0.6598
2988	0.5657
2979	0.5113
2970	0.5749
2961	0.7157
2952	0.7595
2943	0.7609
2934	0.7253
2925	0.7769
2916	0.8114
2907	0.7727
2898	0.7837
2889	0.8223
2880	0.8262
2871	0.8114
2862	0.8464
2853	0.87
2844	0.8798
2835	0.8844
2826	0.8894
2817	0.8909
2808	0.8938
2799	0.896
2790	0.8962
2781	0.8965
2772	0.8955
2763	0.8928
2754	0.8906
2745	0.8903
2736	0.8926
2727	0.8957
2718	0.8972
2709	0.8987
2700	0.8999
2691	0.9006
2682	0.9012
2673	0.9009
2664	0.9005
2655	0.9014
2646	0.9009
2637	0.8989
2628	0.8996
2619	0.898
2610	0.8965
2601	0.8954
2592	0.8946
2583	0.8939
2574	0.8953
2565	0.8966
2556	0.8979
2547	0.8982
2538	0.8984
2529	0.899
2520	0.8998
2511	0.9006
2502	0.9016
2493	0.9027
2484	0.9041
2475	0.9068
2466	0.9071
2457	0.9057
2448	0.9045
2439	0.9
2430	0.897
2421	0.8956
2412	0.8956
2403	0.8979
2394	0.8988
2385	0.9013
2376	0.907
2367	0.9065
2358	0.9082
2349	0.9069
2340	0.905
2331	0.9029
2322	0.9059
2313	0.9067
2304	0.9076
2295	0.9101
2286	0.91
2277	0.9084
2268	0.9058
2259	0.905
2250	0.9022
2241	0.9048
2232	0.907
2223	0.9088
2214	0.9088
2205	0.9102
2196	0.9112
2187	0.9105
2178	0.912
2169	0.9101
2160	0.9057
2151	0.9027
2142	0.902
2133	0.9021
2124	0.9047
2115	0.9071
2106	0.9082
2097	0.9077
2088	0.9091
2079	0.9086
2070	0.9079
2061	0.9066
2052	0.9054
2043	0.9017
2034	0.8989
2025	0.8963
2016	0.8934
2007	0.8911
1998	0.8963
1989	0.8885
1980	0.8664
1971	0.8534
1962	0.856
1953	0.8715
1944	0.8614
1935	0.886
1926	0.8814
1917	0.8704
1908	0.8685
1899	0.8774
1890	0.8839
1881	0.8872
1872	0.8816
1863	0.881
1854	0.8848
1845	0.8664
1836	0.8622
1827	0.8551
1818	0.8393
1809	0.8485
1800	0.8473
1791	0.8159
1782	0.7424
1773	0.7584
1764	0.7672
1755	0.6825
1746	0.5458
1737	0.2429
1728	0.0001
1719	0.0001
1710	0.1584
1701	0.4424
1692	0.4009
1683	0.0402
1674	0.007
1665	0.3233
1656	0.6877
1647	0.7391
1638	0.7621
1629	0.8038
1620	0.8
1611	0.759
1602	0.5338
1593	0.4906
1584	0.4809
1575	0.5547
1566	0.6973
1557	0.7209
1548	0.7601
1539	0.8017
1530	0.8025
1521	0.7638
1512	0.8202
1503	0.835
1494	0.7952
1485	0.7097
1476	0.6507
1467	0.6794
1458	0.7026
1449	0.186
1440	0.7134
1431	0.8279
1422	0.8276
1413	0.8201
1404	0.8078
1395	0.7064
1386	0.7446
1377	0.7573
1368	0.3161
1359	0.7968
1350	0.821
1341	0.7818
1332	0.7406
1323	0.5666
1314	0.1577
1305	0.2577
1296	0.0712
1287	0.0002
1278	0.0003
1269	0.0089
1260	0.0694
1251	0.151
1242	0.2899
1233	0.5351
1224	0.7137
1215	0.7808
1206	0.8017
1197	0.8007
1188	0.7799
1179	0.4651
1170	0.5879
1161	0.5472
1152	0.3794
1143	0.3867
1134	0.1334
1125	0.1379
1116	0.3937
1107	0.6437
1098	0.5095
1089	0.2859
1080	0.1635
1071	0.5129
1062	0.7788
1053	0.8472
1044	0.6081
1035	0.7002
1026	0.5904
1017	0.6015
1008	0.6898
999	0.663
990	0.8617
981	0.8853
972	0.8704
963	0.8659
954	0.8692
945	0.8439
936	0.2289
927	0.3617
918	0.8198
909	0.8896
900	0.8953
891	0.8424
882	0.7567
873	0.7478
864	0.7865
855	0.6992
846	0.8169
837	0.9185
828	0.91
819	0.8981
810	0.8585
801	0.716
792	0.7586
783	0.7676
774	0.7107
765	0.1522
756	0.6785
747	0.819
738	0.7351
729	0.3028
720	0.2423
711	0.0964
702	0.1017
693	0.3288
684	0.5698
675	0.8208
666	0.5072
657	0.8336
648	0.849
639	0.5798
630	0.8612
621	0.9092
612	0.9322
603	0.9296
594	0.9208
585	0.8771
576	0.8781
567	0.9158
558	0.9154
549	0.9029
540	0.8841
531	0.8681
522	0.8605
513	0.8661
504	0.8783
495	0.8798
486	0.8746
477	0.8619
468	0.8284
459	0.7645
450	0.7027
441	0.6552
432	0.5901
423	0.4813
414	0.2157
