Infrared Spectrum: CHOLESTERYL ACETATE
Formula: C29 H48 O2
CAS: 604-35-3
State: SOLID (MINERAL OIL MULL)
Melting point: 112-115 C
Class: COBLENTZ
Instrument: Not specified, most likely a prism, grating, or hybrid spectrometer.
Sampling: TRANSMISSION
Resolution: 4
Origin: WYANDOTTE CHEMICALS CORP., WYANDOTTE, MICHIGAN, USA
MICROMETERS	TRANSMITTANCE
2.034	0.718
2.07488	0.737
2.11575	0.733
2.15663	0.728
2.19751	0.68
2.23838	0.66
2.27926	0.663
2.32013	0.679
2.36101	0.694
2.40189	0.708
2.44276	0.718
2.48364	0.723
2.52452	0.73
2.56539	0.74
2.60627	0.74
2.64715	0.757
2.68802	0.757
2.7289	0.759
2.76978	0.771
2.81065	0.761
2.85153	0.757
2.8924	0.735
2.93328	0.75
2.97416	0.75
3.01503	0.745
3.05591	0.749
3.09679	0.737
3.13766	0.711
3.17854	0.706
3.21942	0.699
3.26029	0.662
3.30117	0.51
3.34205	0.027
3.38292	0.03
3.4238	0.03
3.46467	0.032
3.50555	0.047
3.54643	0.232
3.5873	0.607
3.62818	0.691
3.66906	0.68
3.70993	0.691
3.75081	0.709
3.79169	0.732
3.83256	0.75
3.87344	0.773
3.91432	0.8
3.95519	0.825
3.99607	0.834
4.03694	0.836
4.07782	0.837
4.1187	0.848
4.15957	0.854
4.20045	0.853
4.24133	0.841
4.2822	0.819
4.32308	0.843
4.36396	0.877
4.40483	0.889
4.44571	0.878
4.48659	0.878
4.52746	0.883
4.56834	0.894
4.60921	0.901
4.65009	0.901
4.69097	0.899
4.73184	0.899
4.77272	0.899
4.8136	0.904
4.85447	0.912
4.89535	0.918
4.93623	0.919
4.9771	0.926
5.01798	0.924
5.05886	0.924
5.09973	0.928
5.14061	0.93
5.18148	0.931
5.22236	0.923
5.26324	0.919
5.30411	0.926
5.34499	0.93
5.38587	0.926
5.42674	0.924
5.46762	0.918
5.5085	0.895
5.54937	0.877
5.59025	0.849
5.63113	0.779
5.672	0.711
5.71288	0.365
5.75375	0.087
5.79463	0.242
5.83551	0.612
5.87638	0.684
5.91726	0.73
5.95814	0.778
5.99901	0.754
6.03989	0.798
6.08077	0.82
6.12164	0.853
6.16252	0.865
6.2034	0.883
6.24427	0.889
6.28515	0.897
6.32602	0.895
6.3669	0.877
6.40778	0.887
6.44865	0.858
6.48953	0.86
6.53041	0.846
6.57128	0.846
6.61216	0.82
6.65304	0.778
6.69391	0.701
6.73479	0.462
6.77567	0.168
6.81654	0.054
6.85742	0.1
6.89829	0.127
6.93917	0.189
6.98005	0.348
7.02092	0.51
7.0618	0.646
7.10268	0.689
7.14355	0.682
7.18443	0.544
7.22531	0.172
7.26618	0.092
7.30706	0.127
7.34794	0.204
7.38881	0.38
7.42969	0.566
7.47056	0.636
7.51144	0.607
7.55232	0.694
7.59319	0.668
7.63407	0.624
7.67495	0.679
7.71582	0.691
7.7567	0.646
7.79758	0.561
7.83845	0.561
7.87933	0.467
7.92021	0.327
7.96108	0.233
8.00196	0.146
8.04283	0.098
8.08371	0.076
8.12459	0.105
8.16546	0.209
8.20634	0.319
8.24722	0.426
8.28809	0.464
8.32897	0.505
8.36985	0.486
8.41072	0.508
8.4516	0.58
8.49248	0.605
8.53335	0.617
8.57423	0.631
8.6151	0.653
8.65598	0.656
8.69686	0.674
8.73773	0.638
8.77861	0.566
8.81949	0.581
8.86036	0.581
8.90124	0.674
8.94212	0.686
8.98299	0.72
9.02387	0.744
9.06475	0.8
9.10562	0.812
9.1465	0.774
9.18737	0.716
9.22825	0.704
9.26913	0.75
9.31	0.742
9.35088	0.738
9.39176	0.728
9.43263	0.697
9.47351	0.655
9.51439	0.578
9.55526	0.457
9.59614	0.354
9.63702	0.233
9.67789	0.179
9.71877	0.233
9.75964	0.252
9.80052	0.249
9.8414	0.312
9.88227	0.356
9.92315	0.401
9.96403	0.474
10.0049	0.559
10.0458	0.598
10.0867	0.558
10.1275	0.564
10.1684	0.607
10.2093	0.547
10.2502	0.491
10.291	0.585
10.3319	0.641
10.3728	0.66
10.4137	0.595
10.4545	0.501
10.4954	0.491
10.5363	0.5
10.5772	0.587
10.618	0.672
10.6589	0.687
10.6998	0.648
10.7407	0.704
10.7816	0.755
10.8224	0.754
10.8633	0.674
10.9042	0.703
10.9451	0.699
10.9859	0.663
11.0268	0.725
11.0677	0.694
11.1086	0.539
11.1494	0.47
11.1903	0.663
11.2312	0.744
11.2721	0.742
11.3129	0.747
11.3538	0.783
11.3947	0.757
11.4356	0.769
11.4765	0.778
11.5173	0.819
11.5582	0.851
11.5991	0.861
11.64	0.868
11.6808	0.844
11.7217	0.771
11.7626	0.767
11.8035	0.795
11.8443	0.786
11.8852	0.715
11.9261	0.663
11.967	0.713
12.0078	0.771
12.0487	0.781
12.0896	0.72
12.1305	0.674
12.1714	0.694
12.2122	0.718
12.2531	0.703
12.294	0.72
12.3349	0.72
12.3757	0.74
12.4166	0.791
12.4575	0.781
12.4984	0.718
12.5392	0.626
12.5801	0.597
12.621	0.699
12.6619	0.832
12.7027	0.894
12.7436	0.916
12.7845	0.926
12.8254	0.935
12.8663	0.933
12.9071	0.928
12.948	0.93
12.9889	0.926
13.0298	0.926
13.0706	0.926
13.1115	0.93
13.1524	0.93
13.1933	0.923
13.2341	0.918
13.275	0.918
13.3159	0.911
13.3568	0.907
13.3976	0.899
13.4385	0.875
13.4794	0.819
13.5203	0.745
13.5612	0.701
13.602	0.687
13.6429	0.725
13.6838	0.771
13.7247	0.81
13.7655	0.831
13.8064	0.844
13.8473	0.846
13.8882	0.848
13.929	0.858
13.9699	0.88
14.0108	0.904
14.0517	0.924
14.0925	0.938
14.1334	0.95
14.1743	0.957
14.2152	0.96
14.2561	0.955
14.2969	0.94
14.3378	0.93
14.3787	0.931
14.4196	0.947
14.4604	0.957
14.5013	0.962
14.5422	0.965
14.5831	0.959
14.6239	0.962
14.6648	0.962
14.7057	0.959
14.7466	0.957
14.7874	0.955
14.8283	0.952
14.8692	0.948
14.9101	0.945
14.951	0.936
14.9918	0.93
15.0327	0.902
15.0736	0.872
15.1145	0.856
15.1553	0.86
15.1962	0.848
15.2371	0.825
15.278	0.817
15.3188	0.82
15.3597	0.832
15.4006	0.848
15.4415	0.851
15.4823	0.851
15.5232	0.846
15.5641	0.841
15.605	0.836
15.6459	0.832
15.6867	0.82
15.7276	0.81
15.7685	0.805
15.8094	0.796
15.8502	0.786
15.8911	0.781
15.932	0.771
15.9729	0.757
