Infrared Spectrum: D-Alpha-GLUCOSE PENTAACETATE
Formula: C16 H22 O11
CAS: 604-68-2
State: SOLID (MINERAL OIL MULL)
Melting point: 111-112 C
Class: COBLENTZ
Instrument: Not specified, most likely a prism, grating, or hybrid spectrometer.
Sampling: TRANSMISSION
Resolution: 4
Origin: WYANDOTTE CHEMICALS CORP., WYANDOTTE, MICHIGAN, USA
MICROMETERS	TRANSMITTANCE
2.048	0.976
2.08878	0.974
2.12955	0.976
2.17033	0.967
2.21111	0.948
2.25188	0.948
2.29266	0.948
2.33344	0.96
2.37421	0.96
2.41499	0.964
2.45577	0.965
2.49654	0.965
2.53732	0.967
2.5781	0.976
2.61887	0.974
2.65965	0.981
2.70043	0.976
2.7412	0.979
2.78198	0.979
2.82276	0.967
2.86353	0.943
2.90431	0.926
2.94509	0.95
2.98586	0.95
3.02664	0.942
3.06742	0.938
3.10819	0.94
3.14897	0.933
3.18975	0.93
3.23052	0.914
3.2713	0.887
3.31208	0.724
3.35285	0.345
3.39363	0.144
3.43441	0.211
3.47518	0.35
3.51596	0.441
3.55674	0.846
3.59751	0.904
3.63829	0.921
3.67907	0.916
3.71984	0.926
3.76062	0.933
3.8014	0.935
3.84217	0.947
3.88295	0.948
3.92373	0.965
3.9645	0.971
4.00528	0.971
4.04605	0.962
4.08683	0.96
4.12761	0.959
4.16838	0.96
4.20916	0.96
4.24994	0.952
4.29071	0.957
4.33149	0.962
4.37227	0.979
4.41304	0.979
4.45382	0.969
4.4946	0.971
4.53537	0.969
4.57615	0.962
4.61693	0.971
4.6577	0.969
4.69848	0.959
4.73926	0.955
4.78003	0.957
4.82081	0.962
4.86159	0.971
4.90236	0.967
4.94314	0.969
4.98392	0.964
5.02469	0.96
5.06547	0.952
5.10625	0.952
5.14702	0.936
5.1878	0.94
5.22858	0.933
5.26935	0.938
5.31013	0.933
5.35091	0.925
5.39168	0.919
5.43246	0.902
5.47324	0.865
5.51401	0.833
5.55479	0.79
5.59557	0.703
5.63634	0.572
5.67712	0.09
5.7179	0.04
5.75867	0.131
5.79945	0.437
5.84023	0.62
5.881	0.717
5.92178	0.795
5.96256	0.809
6.00333	0.8
6.04411	0.816
6.08489	0.848
6.12566	0.855
6.16644	0.87
6.20722	0.879
6.24799	0.882
6.28877	0.884
6.32955	0.882
6.37032	0.879
6.4111	0.879
6.45188	0.867
6.49265	0.855
6.53343	0.86
6.57421	0.86
6.61498	0.851
6.65576	0.841
6.69654	0.814
6.73731	0.71
6.77809	0.528
6.81887	0.466
6.85964	0.505
6.90042	0.521
6.9412	0.533
6.98197	0.528
7.02275	0.609
7.06353	0.633
7.1043	0.691
7.14508	0.642
7.18586	0.349
7.22663	0.212
7.26741	0.207
7.30819	0.257
7.34896	0.41
7.38974	0.642
7.43052	0.746
7.47129	0.758
7.51207	0.759
7.55285	0.754
7.59362	0.764
7.6344	0.71
7.67518	0.669
7.71595	0.669
7.75673	0.625
7.7975	0.534
7.83828	0.432
7.87906	0.325
7.91983	0.173
7.96061	0.049
8.00139	0.037
8.04216	0.034
8.08294	0.037
8.12372	0.039
8.16449	0.037
8.20527	0.085
8.24605	0.216
8.28682	0.398
8.3276	0.529
8.36838	0.613
8.40915	0.666
8.44993	0.698
8.49071	0.701
8.53148	0.645
8.57226	0.538
8.61304	0.667
8.65381	0.621
8.69459	0.54
8.73537	0.541
8.77614	0.31
8.81692	0.398
8.8577	0.591
8.89847	0.638
8.93925	0.579
8.98003	0.589
9.0208	0.522
9.06158	0.545
9.10236	0.597
9.14313	0.613
9.18391	0.582
9.22469	0.466
9.26546	0.357
9.30624	0.236
9.34702	0.224
9.38779	0.284
9.42857	0.294
9.46935	0.304
9.51012	0.211
9.5509	0.137
9.59168	0.069
9.63245	0.057
9.67323	0.107
9.71401	0.158
9.75478	0.224
9.79556	0.235
9.83634	0.328
9.87711	0.519
9.91789	0.606
9.95867	0.657
9.99944	0.713
10.0402	0.734
10.081	0.724
10.1218	0.667
10.1625	0.591
10.2033	0.613
10.2441	0.717
10.2849	0.773
10.3257	0.8
10.3664	0.807
10.4072	0.804
10.448	0.798
10.4888	0.744
10.5295	0.616
10.5703	0.339
10.6111	0.429
10.6519	0.522
10.6926	0.385
10.7334	0.534
10.7742	0.718
10.815	0.766
10.8558	0.775
10.8965	0.725
10.9373	0.666
10.9781	0.689
11.0189	0.693
11.0596	0.72
11.1004	0.773
11.1412	0.793
11.182	0.804
11.2227	0.802
11.2635	0.78
11.3043	0.764
11.3451	0.812
11.3858	0.846
11.4266	0.862
11.4674	0.862
11.5082	0.868
11.549	0.872
11.5897	0.877
11.6305	0.877
11.6713	0.875
11.7121	0.868
11.7528	0.863
11.7936	0.843
11.8344	0.792
11.8752	0.775
11.9159	0.826
11.9567	0.853
11.9975	0.873
12.0383	0.88
12.0791	0.882
12.1198	0.887
12.1606	0.892
12.2014	0.887
12.2422	0.887
12.2829	0.89
12.3237	0.892
12.3645	0.892
12.4053	0.896
12.446	0.894
12.4868	0.896
12.5276	0.897
12.5684	0.892
12.6091	0.887
12.6499	0.889
12.6907	0.896
12.7315	0.902
12.7723	0.902
12.813	0.901
12.8538	0.904
12.8946	0.899
12.9354	0.899
12.9761	0.899
13.0169	0.899
13.0577	0.897
13.0985	0.896
13.1392	0.896
13.18	0.889
13.2208	0.889
13.2616	0.884
13.3024	0.873
13.3431	0.863
13.3839	0.844
13.4247	0.829
13.4655	0.834
13.5062	0.858
13.547	0.867
13.5878	0.879
13.6286	0.882
13.6693	0.887
13.7101	0.89
13.7509	0.889
13.7917	0.89
13.8324	0.892
13.8732	0.887
13.914	0.89
13.9548	0.894
13.9956	0.901
14.0363	0.902
14.0771	0.908
14.1179	0.908
14.1587	0.906
14.1994	0.901
14.2402	0.899
14.281	0.896
14.3218	0.896
14.3625	0.901
14.4033	0.902
14.4441	0.897
14.4849	0.897
14.5256	0.887
14.5664	0.875
14.6072	0.863
14.648	0.848
14.6888	0.836
14.7295	0.848
14.7703	0.858
14.8111	0.868
14.8519	0.88
14.8926	0.88
14.9334	0.88
14.9742	0.877
15.015	0.858
15.0557	0.838
15.0965	0.833
15.1373	0.85
15.1781	0.872
15.2189	0.88
15.2596	0.872
15.3004	0.867
15.3412	0.867
15.382	0.862
15.4227	0.856
15.4635	0.855
15.5043	0.844
15.5451	0.838
15.5858	0.838
15.6266	0.831
15.6674	0.827
15.7082	0.819
15.7489	0.814
15.7897	0.816
15.8305	0.81
15.8713	0.805
15.9121	0.802
15.9528	0.797
15.9936	0.788
