Infrared Spectrum: 3-Bromo-2,5-dichlorothiophene
Formula: C 4 H Br Cl 2 S
CAS: 60404-18-4
State: gas
Origin: EPA-IR VAPOR PHASE LIBRARY
1/CM	ABSORBANCE
549.8	0.005166
559.445	0.025326
569.09	0.031336
578.734	0.011646
588.379	0.004116
598.024	0.0017032
607.669	0.0008841
617.313	0.000535
626.958	0.0011821
636.603	0.0014651
646.248	0.0014182
655.893	0.0014826
665.537	0.0012413
675.182	0.003626
684.827	0.008026
694.472	0.004186
704.116	0.0011742
713.761	0.001826
723.406	0.002566
733.051	0.002946
742.695	0.003286
752.34	0.005726
761.985	0.004906
771.63	0.001684
781.275	0.001926
790.919	0.003076
800.564	0.019426
810.209	0.089836
819.854	0.104196
829.498	0.021316
839.143	0.005816
848.788	0.005656
858.433	0.004466
868.078	0.002956
877.722	0.002076
887.367	0.0015992
897.012	0.0014095
906.657	0.001766
916.301	0.0013219
925.946	0.001886
935.591	0.002106
945.236	0.001856
954.88	0.001996
964.525	0.002826
974.17	0.002836
983.815	0.004296
993.46	0.011196
1003.1	0.017216
1012.75	0.013546
1022.39	0.036076
1032.04	0.110226
1041.68	0.115406
1051.33	0.030466
1060.97	0.012986
1070.62	0.007506
1080.26	0.008556
1089.91	0.007676
1099.55	0.004136
1109.2	0.003696
1118.84	0.006686
1128.49	0.015666
1138.13	0.021556
1147.78	0.012876
1157.42	0.006556
1167.07	0.003496
1176.71	0.0012937
1186.36	0.0008548
1196	0.0011623
1205.64	0.000694
1215.29	0
1224.93	0.000469
1234.58	0.0010543
1244.22	0.000617
1253.87	0.0010951
1263.51	0.002406
1273.16	0.002116
1282.8	0.007096
1292.45	0.019436
1302.09	0.023236
1311.74	0.016536
1321.38	0.006536
1331.03	0.0016179
1340.67	0.0014471
1350.32	0.0015073
1359.96	0.001756
1369.61	0.002286
1379.25	0.002156
1388.9	0.001986
1398.54	0.002206
1408.18	0.004216
1417.83	0.011986
1427.47	0.027966
1437.12	0.023966
1446.76	0.004206
1456.41	0.002076
1466.05	0.002176
1475.7	0.002726
1485.34	0.004816
1494.99	0.013476
1504.63	0.041296
1514.28	0.109966
1523.92	0.098996
1533.57	0.010826
1543.21	0.003316
1552.86	0.003816
1562.5	0.005866
1572.15	0.003986
1581.79	0.0014939
1591.44	0.0015799
1601.08	0.001724
1610.73	0.002676
1620.37	0.005646
1630.01	0.005756
1639.66	0.002446
1649.3	0.0010569
1658.95	0.0006996
1668.59	0.00079173
1678.24	0.0010909
1687.88	0.001149
1697.53	0.0008548
1707.17	0.00077925
1716.82	0.0008324
1726.46	0.00078734
1736.11	0.00081165
1745.75	0.00080472
1755.4	0.00074608
1765.04	0.0006809
1774.69	0.00076396
1784.33	0.00081348
1793.98	0.0008789
1803.62	0.0012026
1813.27	0.0011966
1822.91	0.0011222
1832.55	0.0009338
1842.2	0.0008575
1851.84	0.0008168
1861.49	0.0008745
1871.13	0.00077336
1880.78	0.000735951
1890.42	0.00074161
1900.07	0.0006857
1909.71	0.0006471
1919.36	0.0006574
1929	0.00074
1938.65	0.000730367
1948.29	0.00076782
1957.94	0.00078049
1967.58	0.00082388
1977.23	0.0009741
1986.87	0.0012218
1996.52	0.0014541
2006.16	0.0011525
2015.81	0.0009194
2025.45	0.0010874
2035.1	0.0010947
2044.74	0.0010099
2054.38	0.0006911
2064.03	0.00082341
2073.67	0.00081109
2083.32	0.0007017
2092.96	0.00080595
2102.61	0.00074855
2112.25	0.0006849
2121.9	0.0008214
2131.54	0.0006613
2141.19	0.0008364
2150.83	0.0006363
2160.48	0.0006376
2170.12	0.0008519
2179.77	0.0008587
2189.41	0.00079822
2199.06	0.0006966
2208.7	0.0007085
2218.35	0.0006463
2227.99	0.0007055
2237.64	0.0006899
2247.28	0.0008584
2256.92	0.0006636
2266.57	0.000906
2276.21	0.000911
2285.86	0.0010514
2295.5	0.0010372
2305.15	0.0008014
2314.79	0.0008745
2324.44	0.0008983
2334.08	0.0006998
2343.73	0.0006636
2353.37	0.000499
2363.02	0.00072121
2372.66	0.00072182
2382.31	0.000561
2391.95	0.000595
2401.6	0.0006914
2411.24	0.000612
2420.89	0.0006965
2430.53	0.0008557
2440.18	0.0007064
2449.82	0.0007137
2459.47	0.0006756
2469.11	0.000533
2478.75	0.00075808
2488.4	0.000613
2498.04	0.0008307
2507.69	0.0009138
2517.33	0.0010615
2526.98	0.0010838
2536.62	0.0009068
2546.27	0.0009417
2555.91	0.0008705
2565.56	0.0009233
2575.2	0.0009195
2584.85	0.00075042
2594.49	0.0006747
2604.14	0.0007227
2613.78	0.00073699
2623.43	0.0008609
2633.07	0.00081175
2642.72	0.00081968
2652.36	0.00076997
2662.01	0.000734315
2671.65	0.0006984
2681.29	0.000734888
2690.94	0.0006555
2700.58	0.0007992
2710.23	0.000581
2719.87	0.0009244
2729.52	0.0008611
2739.16	0.0009261
2748.81	0.0007127
2758.45	0.000733119
2768.1	0.000587
2777.74	0.0006354
2787.39	0.000734708
2797.03	0.0008371
2806.68	0.0008333
2816.32	0.0009069
2825.97	0.0009431
2835.61	0.0008276
2845.26	0.0009701
2854.9	0.0010458
2864.55	0.0008657
2874.19	0.0006729
2883.84	0.0007089
2893.48	0.000578
2903.12	0.000828
2912.77	0.0006683
2922.41	0.00079268
2932.06	0.00073849
2941.7	0.0006618
2951.35	0.000624
2960.99	0.00074658
2970.64	0.00082453
2980.28	0.000734939
2989.93	0.000615
2999.57	0.0007158
3009.22	0.000613
3018.86	0.0006664
3028.51	0.0007568
3038.15	0.0007027
3047.8	0.00077323
3057.44	0.0006736
3067.09	0.0007122
3076.73	0.0006271
3086.38	0.0011047
3096.02	0.0016517
3105.67	0.003806
3115.31	0.004336
3124.95	0.0012866
3134.6	0.0006757
3144.24	0.0007131
3153.89	0.00074552
3163.53	0.000612
3173.18	0.0006322
3182.82	0.000706
3192.47	0.000602
3202.11	0.000472
3211.76	0.00062
3221.4	0.000449
3231.05	0.0008039
3240.69	0.000622
3250.34	0.0006422
3259.98	0.00074114
3269.63	0.0006636
3279.27	0.0006472
3288.92	0.0006522
3298.56	0.000622
3308.21	0.000525
3317.85	0.000596
3327.49	0.000727242
3337.14	0.000462
3346.78	0.0006616
3356.43	0.0006305
3366.07	0.00078681
3375.72	0.000423
3385.36	0.000463
3395.01	0.000693
3404.65	0.0006919
3414.3	0.00041
3423.94	0.000441
3433.59	0.000312
3443.23	0.00071
3452.88	0.000593
3462.52	0.000515
3472.17	0.000881
3481.81	0.0007099
3491.46	0.000517
3501.1	0.000625
3510.75	0.00080291
3520.39	0.00078855
3530.04	0.00074787
3539.68	0.000729652
3549.32	0.000548
3558.97	0.000506
3568.61	0.000547
3578.26	0.0007004
3587.9	0.000541
3597.55	0.0006888
3607.19	0.00063
3616.84	0.000547
3626.48	0.0006513
3636.13	0.00055
3645.77	0.000388
3655.42	0.000559
3665.06	0.0007044
3674.71	0.0006448
3684.35	0.00076266
3694	0.0007033
3703.64	0.000483
3713.29	0.000591
3722.93	0.000603
3732.58	0.000374
3742.22	0.000549
3751.86	0.000585
3761.51	0.0006925
3771.15	0.000611
3780.8	0.000437
3790.44	0.000608
3800.09	0.0006816
3809.73	0.00074892
3819.38	0.000447
3829.02	0.0006784
3838.67	0.000514
3848.31	0.0006278
3857.96	0.000725288
3867.6	0.0006262
3877.25	0.000625
3886.89	0.000584
3896.54	0.000481
3906.18	0.00076936
3915.83	0.0009941
3925.47	0.00078602
3935.12	0.0007
3944.76	0.00077151
3954.41	0.000599
3964.05	0.000523
3973.69	0.00079556
3983.34	0.000725341
3992.98	0.000587
