Infrared Spectrum: Bis(p-chlorobenzylidene) ethylenediamine
Formula: C 16 H 14 Cl 2 N 2
CAS: 60434-95-9
State: gas
Origin: EPA-IR VAPOR PHASE LIBRARY
1/CM	ABSORBANCE
549.8	0.00141
559.445	0.00242
569.09	0.00318
578.734	0.00161
588.379	0.0004966
598.024	0.0006149
607.669	0.0004604
617.313	0.0002071
626.958	0.0007979
636.603	0.000983
646.248	0.0006518
655.893	0.0005335
665.537	0.0008013
675.182	0.0007487
684.827	0.00117
694.472	0.00406
704.116	0.00508
713.761	0.00162
723.406	0.00105
733.051	0.0009396
742.695	0.0007895
752.34	0.0012
761.985	0.00144
771.63	0.00176
781.275	0.00266
790.919	0.00469
800.564	0.00843
810.209	0.01733
819.854	0.03211
829.498	0.0283
839.143	0.0181
848.788	0.01401
858.433	0.01144
868.078	0.0083
877.722	0.00807
887.367	0.00777
897.012	0.00667
906.657	0.0071
916.301	0.00696
925.946	0.00413
935.591	0.00357
945.236	0.00376
954.88	0.00357
964.525	0.00495
974.17	0.00494
983.815	0.00392
993.46	0.00482
1003.1	0.00933
1012.75	0.03772
1022.39	0.01242
1032.04	0.00746
1041.68	0.01005
1051.33	0.00689
1060.97	0.00656
1070.62	0.00902
1080.26	0.02523
1089.91	0.08037
1099.55	0.02877
1109.2	0.00971
1118.84	0.00493
1128.49	0.00303
1138.13	0.0025
1147.78	0.00247
1157.42	0.00257
1167.07	0.00614
1176.71	0.0035
1186.36	0.00295
1196	0.00342
1205.64	0.00655
1215.29	0.00686
1224.93	0.00352
1234.58	0.00219
1244.22	0.00207
1253.87	0.00276
1263.51	0.00497
1273.16	0.00627
1282.8	0.00882
1292.45	0.01395
1302.09	0.01132
1311.74	0.00559
1321.38	0.00805
1331.03	0.01775
1340.67	0.01744
1350.32	0.00926
1359.96	0.00918
1369.61	0.01223
1379.25	0.00886
1388.9	0.00594
1398.54	0.00663
1408.18	0.00844
1417.83	0.00497
1427.47	0.0057
1437.12	0.01037
1446.76	0.0131
1456.41	0.00916
1466.05	0.00876
1475.7	0.01514
1485.34	0.04389
1494.99	0.03415
1504.63	0.00837
1514.28	0.0042
1523.92	0.00289
1533.57	0.00256
1543.21	0.00265
1552.86	0.00358
1562.5	0.00744
1572.15	0.01395
1581.79	0.0109
1591.44	0.02783
1601.08	0.02652
1610.73	0.00755
1620.37	0.00747
1630.01	0.01409
1639.66	0.04053
1649.3	0.10062
1658.95	0.03694
1668.59	0.01169
1678.24	0.00571
1687.88	0.00371
1697.53	0.0027
1707.17	0.00205
1716.82	0.00202
1726.46	0.00156
1736.11	0.00133
1745.75	0.00131
1755.4	0.00133
1765.04	0.0013
1774.69	0.00188
1784.33	0.00256
1793.98	0.00215
1803.62	0.00111
1813.27	0.0008148
1822.91	0.0006716
1832.55	0.0005957
1842.2	0.0006951
1851.84	0.0007118
1861.49	0.00107
1871.13	0.00145
1880.78	0.0016
1890.42	0.0019
1900.07	0.00232
1909.71	0.00176
1919.36	0.00163
1929	0.00174
1938.65	0.00118
1948.29	0.0008715
1957.94	0.0005865
1967.58	0.0005413
1977.23	0.000514
1986.87	0.0004808
1996.52	0.0004211
2006.16	0.0004327
2015.81	0.0005326
2025.45	0.0005167
2035.1	0.0005135
2044.74	0.0005647
2054.38	0.0005364
2064.03	0.0005261
2073.67	0.0005213
2083.32	0.000365
2092.96	0.0003991
2102.61	0.0002972
2112.25	0.0003109
2121.9	0.000237
2131.54	0.0003469
2141.19	0.0003041
2150.83	0.0002298
2160.48	0.0001844
2170.12	0.0001949
2179.77	0.0002277
2189.41	0.0002361
2199.06	0.0001425
2208.7	0.0002533
2218.35	0.0002827
2227.99	0.0002441
2237.64	0.0003264
2247.28	0.0003423
2256.92	0.0004743
2266.57	0.0005608
2276.21	0.000635
2285.86	0.0005845
2295.5	0.0005562
2305.15	0.0005356
2314.79	0.0004655
2324.44	0.0003087
2334.08	0.0003735
2343.73	0.0003176
2353.37	0.0004048
2363.02	0.0003272
2372.66	0.0003069
2382.31	0.0004573
2391.95	0.0004525
2401.6	0.00048
2411.24	0.000388
2420.89	0.0004977
2430.53	0.0004238
2440.18	0.0004675
2449.82	0.0004604
2459.47	0.0005016
2469.11	0.0004181
2478.75	0.0004717
2488.4	0.0004641
2498.04	0.0004312
2507.69	0.0004423
2517.33	0.0004951
2526.98	0.0006165
2536.62	0.0009693
2546.27	0.000796
2555.91	0.000707
2565.56	0.0006827
2575.2	0.0007076
2584.85	0.0005885
2594.49	0.0006121
2604.14	0.0007788
2613.78	0.0007754
2623.43	0.0008182
2633.07	0.0009409
2642.72	0.0009773
2652.36	0.00122
2662.01	0.00128
2671.65	0.00106
2681.29	0.00105
2690.94	0.0009891
2700.58	0.00107
2710.23	0.00127
2719.87	0.00133
2729.52	0.0019
2739.16	0.00203
2748.81	0.00204
2758.45	0.00196
2768.1	0.00216
2777.74	0.00254
2787.39	0.00272
2797.03	0.00316
2806.68	0.00425
2816.32	0.00675
2825.97	0.01286
2835.61	0.02665
2845.26	0.04425
2854.9	0.04049
2864.55	0.02435
2874.19	0.01823
2883.84	0.01529
2893.48	0.01345
2903.12	0.01278
2912.77	0.0132
2922.41	0.01265
2932.06	0.01559
2941.7	0.01892
2951.35	0.01433
2960.99	0.00746
2970.64	0.00425
2980.28	0.00307
2989.93	0.00272
2999.57	0.0027
3009.22	0.0029
3018.86	0.00402
3028.51	0.00604
3038.15	0.0061
3047.8	0.00381
3057.44	0.00315
3067.09	0.00305
3076.73	0.00428
3086.38	0.00527
3096.02	0.00432
3105.67	0.00251
3115.31	0.00117
3124.95	0.0008436
3134.6	0.0006205
3144.24	0.000561
3153.89	0.0005875
3163.53	0.0005472
3173.18	0.0004878
3182.82	0.0005281
3192.47	0.0004664
3202.11	0.0003711
3211.76	0.0005139
3221.4	0.0004293
3231.05	0.0003897
3240.69	0.0004758
3250.34	0.0003115
3259.98	0.000733
3269.63	0.00119
3279.27	0.00163
3288.92	0.00182
3298.56	0.00103
3308.21	0.000422
3317.85	0.0002971
3327.49	0.0002699
3337.14	0.0003846
3346.78	0.0002921
3356.43	0.0001803
3366.07	0.000218
3375.72	0.0002559
3385.36	0.0003265
3395.01	0.0002543
3404.65	0.0001893
3414.3	0.0001085
3423.94	0.0001667
3433.59	0.0001673
3443.23	0.0002395
3452.88	0.000318
3462.52	0.0001222
3472.17	0.0001505
3481.81	0.0002424
3491.46	0.0003761
3501.1	0.0005006
3510.75	0.0004077
3520.39	0.0003424
3530.04	0.0001603
3539.68	0.0002456
3549.32	0.000319
3558.97	0.0003445
3568.61	0.0002114
3578.26	0.0002945
3587.9	0.0003026
3597.55	0.0002425
3607.19	0.0002661
3616.84	0.0003308
3626.48	0.0004991
3636.13	0.0001604
3645.77	0.0003789
3655.42	0.0004804
3665.06	0.000405
3674.71	0.0005661
3684.35	0.0002212
3694	0.0002267
3703.64	0.0002703
3713.29	0.0005088
3722.93	0.0004364
3732.58	0.0006492
3742.22	0.0005284
3751.86	0.0006151
3761.51	0.0004638
3771.15	0.0003925
3780.8	0.0004726
3790.44	0.0005427
3800.09	0.0004167
3809.73	0.00037
3819.38	0.0003771
3829.02	0.0003477
3838.67	0.0005629
3848.31	0.000192
3857.96	0.0003632
3867.6	0.0003948
3877.25	0.0004254
3886.89	0.0004864
3896.54	0.0004212
3906.18	0.0003806
3915.83	0.0004934
3925.47	0.000419
3935.12	0.0004628
3944.76	0.0004433
3954.41	0.0004728
3964.05	0.0003072
3973.69	0.0001483
3983.34	0.0002996
3992.98	0.0005632
