Infrared Spectrum: 2-BENZOTHIAZOLINETHIONE, 3-(4-NITROPHENYLAMINOMETHYL)-
Formula: C14 H11 N3 O2 S2
CAS: 60431-65-4
State: SOLID (SPLIT MULL, FLUOROLUBE FOR 3800-1333 AND NUJOL FOR 1333-460 CM ^-^1)
Melting point: 223 C
Class: COBLENTZ III
Instrument: DOW KBr FOREPRISM-GRATING
Instrument parameters: BLAZED AT 3.5, 12.0, 20.0 MICRON, CHANGED AT 5.0, 7.5, 14.9 MICRON
Sampling: TRANSMISSION
Resolution: 4
Origin: DOW CHEMICAL COMPANY
1/CM	TRANSMITTANCE
455.368	0.87
464.119	0.867
472.871	0.861
481.622	0.846
490.374	0.83
499.125	0.827
507.877	0.857
516.628	0.891
525.38	0.875
534.131	0.871
542.883	0.777
551.634	0.834
560.386	0.803
569.137	0.833
577.889	0.897
586.64	0.916
595.392	0.931
604.143	0.9
612.894	0.915
621.646	0.908
630.397	0.833
639.149	0.815
647.9	0.956
656.652	0.948
665.403	0.905
674.155	0.934
682.906	0.931
691.658	0.808
700.409	0.924
709.161	0.896
717.912	0.786
726.664	0.748
735.415	0.813
744.167	0.674
752.918	0.3141
761.67	0.915
770.421	0.937
779.172	0.948
787.924	0.931
796.675	0.917
805.427	0.935
814.178	0.879
822.93	0.906
831.681	0.6399
840.433	0.748
849.184	0.841
857.936	0.782
866.687	0.934
875.439	0.942
884.19	0.932
892.942	0.922
901.693	0.922
910.445	0.911
919.196	0.893
927.947	0.863
936.699	0.79
945.45	0.723
954.202	0.761
962.953	0.819
971.705	0.83
980.456	0.812
989.208	0.774
997.959	0.616
1006.71	0.727
1015.46	0.556
1024.21	0.648
1032.97	0.38
1041.72	0.395
1050.47	0.57
1059.22	0.662
1067.97	0.685
1076.72	0.595
1085.47	0.549
1094.23	0.266
1102.98	0.273
1111.73	0.221
1120.48	0.662
1129.23	0.614
1137.98	0.508
1146.73	0.562
1155.49	0.74
1164.24	0.726
1172.99	0.731
1181.74	0.562
1190.49	0.477
1199.24	0.636
1207.99	0.66
1216.75	0.549
1225.5	0.3579
1234.25	0.3021
1243	0.5
1251.75	0.381
1260.5	0.19
1269.25	0.09
1278.01	0.205
1286.76	0.231
1295.51	0.147
1304.26	0.1491
1313.01	0.247
1321.76	0.1241
1330.52	0.288
1339.27	0.084
1348.02	0.5141
1356.77	0.645
1365.52	0.582
1374.27	0.331
1383.02	0.5371
1391.78	0.804
1400.53	0.797
1409.28	0.798
1418.03	0.785
1426.78	0.697
1435.53	0.804
1444.28	0.816
1453.04	0.675
1461.79	0.419
1470.54	0.477
1479.29	0.4069
1488.04	0.5141
1496.79	0.5379
1505.54	0.514
1514.3	0.7441
1523.05	0.741
1531.8	0.422
1540.55	0.616
1549.3	0.816
1558.05	0.883
1566.8	0.834
1575.56	0.741
1584.31	0.536
1593.06	0.295
1601.81	0.039
1610.56	0.3722
1619.31	0.789
1628.07	0.917
1636.82	0.928
1645.57	0.917
1654.32	0.934
1663.07	0.95
1671.82	0.957
1680.57	0.957
1689.33	0.957
1698.08	0.954
1706.83	0.953
1715.58	0.948
1724.33	0.948
1733.08	0.945
1741.83	0.938
1750.59	0.932
1759.34	0.93
1768.09	0.928
1776.84	0.913
1785.59	0.913
1794.34	0.924
1803.09	0.927
1811.85	0.926
1820.6	0.924
1829.35	0.924
1838.1	0.924
1846.85	0.919
1855.6	0.913
1864.35	0.908
1873.11	0.909
1881.86	0.902
1890.61	0.894
1899.36	0.886
1908.11	0.885
1916.86	0.891
1925.62	0.887
1934.37	0.891
1943.12	0.885
1951.87	0.886
1960.62	0.885
1969.37	0.885
1978.12	0.885
1986.88	0.882
1995.63	0.879
2004.38	0.878
2013.13	0.876
2021.88	0.875
2030.63	0.875
2039.38	0.875
2048.14	0.874
2056.89	0.874
2065.64	0.874
2074.39	0.874
2083.14	0.872
2091.89	0.872
2100.64	0.872
2109.4	0.872
2118.15	0.871
2126.9	0.8687
2135.65	0.867
2144.4	0.863
2153.15	0.8577
2161.91	0.8523
2170.66	0.8483
2179.41	0.842
2188.16	0.8396
2196.91	0.838
2205.66	0.834
2214.41	0.8295
2223.17	0.8222
2231.92	0.819
2240.67	0.815
2249.42	0.8112
2258.17	0.805
2266.92	0.8002
2275.67	0.7944
2284.43	0.7903
2293.18	0.7833
2301.93	0.7793
2310.68	0.7723
2319.43	0.7671
2328.18	0.766
2336.93	0.763
2345.69	0.763
2354.44	0.7601
2363.19	0.759
2371.94	0.759
2380.69	0.757
2389.44	0.7531
2398.19	0.751
2406.95	0.749
2415.7	0.744
2424.45	0.742
2433.2	0.744
2441.95	0.749
2450.7	0.753
2459.46	0.752
2468.21	0.755
2476.96	0.7529
2485.71	0.7489
2494.46	0.7449
2503.21	0.742
2511.96	0.7409
2520.72	0.737
2529.47	0.737
2538.22	0.7299
2546.97	0.726
2555.72	0.72
2564.47	0.719
2573.22	0.716
2581.98	0.712
2590.73	0.711
2599.48	0.709
2608.23	0.7066
2616.98	0.7
2625.73	0.6998
2634.48	0.697
2643.24	0.6938
2651.99	0.6927
2660.74	0.6857
2669.49	0.686
2678.24	0.6827
2686.99	0.678
2695.74	0.6764
2704.5	0.675
2713.25	0.6693
2722	0.666
2730.75	0.662
2739.5	0.66
2748.25	0.659
2757.01	0.6526
2765.76	0.649
2774.51	0.645
2783.26	0.6392
2792.01	0.6326
2800.76	0.63
2809.51	0.63
2818.27	0.6237
2827.02	0.614
2835.77	0.6065
2844.52	0.603
2853.27	0.6005
2862.02	0.5975
2870.77	0.592
2879.53	0.5809
2888.28	0.5625
2897.03	0.563
2905.78	0.57
2914.53	0.5634
2923.28	0.56
2932.03	0.564
2940.79	0.5588
2949.54	0.548
2958.29	0.5464
2967.04	0.5636
2975.79	0.5763
2984.54	0.5751
2993.29	0.5663
3002.05	0.5593
3010.8	0.5433
3019.55	0.537
3028.3	0.5326
3037.05	0.5223
3045.8	0.5257
3054.56	0.5184
3063.31	0.4975
3072.06	0.497
3080.81	0.5085
3089.56	0.5178
3098.31	0.5212
3107.06	0.515
3115.82	0.525
3124.57	0.528
3133.32	0.529
3142.07	0.5378
3150.82	0.541
3159.57	0.543
3168.32	0.5336
3177.08	0.5234
3185.83	0.5101
3194.58	0.503
3203.33	0.5
3212.08	0.504
3220.83	0.4952
3229.58	0.4843
3238.34	0.4732
3247.09	0.4561
3255.84	0.444
3264.59	0.425
3273.34	0.4001
3282.09	0.374
3290.84	0.357
3299.6	0.3651
3308.35	0.3831
3317.1	0.392
3325.85	0.3839
3334.6	0.3466
3343.35	0.2756
3352.11	0.1881
3360.86	0.147
3369.61	0.1799
3378.36	0.2759
3387.11	0.4276
3395.86	0.5185
3404.61	0.536
3413.37	0.538
3422.12	0.538
3430.87	0.5368
3439.62	0.5356
3448.37	0.5328
3457.12	0.529
3465.87	0.5288
3474.63	0.525
3483.38	0.5228
3492.13	0.521
3500.88	0.518
3509.63	0.515
3518.38	0.5117
3527.13	0.51
3535.89	0.507
3544.64	0.5054
3553.39	0.5033
3562.14	0.5014
3570.89	0.4847
3579.64	0.4957
3588.39	0.4956
3597.15	0.4877
3605.9	0.489
3614.65	0.487
3623.4	0.488
3632.15	0.487
3640.9	0.484
3649.66	0.4816
3658.41	0.481
3667.16	0.478
3675.91	0.4765
3684.66	0.473
3693.41	0.47
3702.16	0.467
3710.92	0.466
3719.67	0.463
3728.42	0.461
3737.17	0.4585
3745.92	0.456
3754.67	0.455
3763.42	0.45
3772.18	0.448
3780.93	0.448
3789.68	0.445
