Infrared Spectrum: 2-Furylglyoxylonitrile
Formula: C 6 H 3 N O 2
CAS: 6047-91-2
State: gas
Origin: EPA-IR VAPOR PHASE LIBRARY
1/CM	ABSORBANCE
549.8	0.0010611
559.445	0.002071
569.09	0.002441
578.734	0.003491
588.379	0.006021
598.024	0.003751
607.669	0.003761
617.313	0.002231
626.958	0.0016565
636.603	0.001841
646.248	0.001881
655.893	0.001871
665.537	0.0013089
675.182	0.0014594
684.827	0.001009
694.472	0.0016139
704.116	0.0016365
713.761	0.002101
723.406	0.003831
733.051	0.006041
742.695	0.010321
752.34	0.016611
761.985	0.033161
771.63	0.015981
781.275	0.008911
790.919	0.003281
800.564	0.0014003
810.209	0.0016524
819.854	0.002011
829.498	0.0017981
839.143	0.002791
848.788	0.0018164
858.433	0.002321
868.078	0.006481
877.722	0.014831
887.367	0.020401
897.012	0.016771
906.657	0.012631
916.301	0.006871
925.946	0.002991
935.591	0.002411
945.236	0.002291
954.88	0.002211
964.525	0.002331
974.17	0.006461
983.815	0.016701
993.46	0.021641
1003.1	0.021511
1012.75	0.016531
1022.39	0.030101
1032.04	0.035501
1041.68	0.025411
1051.33	0.009511
1060.97	0.002621
1070.62	0.004181
1080.26	0.006621
1089.91	0.006381
1099.55	0.003931
1109.2	0.0015618
1118.84	0.000704
1128.49	0.000249
1138.13	0.002211
1147.78	0.004281
1157.42	0.008541
1167.07	0.008851
1176.71	0.006171
1186.36	0.003051
1196	0.002261
1205.64	0.0017563
1215.29	0.0014184
1224.93	0.004481
1234.58	0.006311
1244.22	0.003981
1253.87	0.005861
1263.51	0.013101
1273.16	0.018621
1282.8	0.018781
1292.45	0.013451
1302.09	0.008101
1311.74	0.0014804
1321.38	0.0010216
1331.03	0.0011786
1340.67	0.0012993
1350.32	0.001971
1359.96	0.003411
1369.61	0.004421
1379.25	0.007921
1388.9	0.015401
1398.54	0.016591
1408.18	0.009151
1417.83	0.002271
1427.47	0.002511
1437.12	0.004671
1446.76	0.013071
1456.41	0.031611
1466.05	0.036991
1475.7	0.026191
1485.34	0.010161
1494.99	0.003181
1504.63	0.002391
1514.28	0.003181
1523.92	0.003461
1533.57	0.003271
1543.21	0.005071
1552.86	0.012041
1562.5	0.019571
1572.15	0.017761
1581.79	0.007831
1591.44	0.003921
1601.08	0.004071
1610.73	0.003341
1620.37	0.002211
1630.01	0.002621
1639.66	0.003881
1649.3	0.005511
1658.95	0.010181
1668.59	0.026171
1678.24	0.057621
1687.88	0.088091
1697.53	0.073671
1707.17	0.040011
1716.82	0.014511
1726.46	0.008881
1736.11	0.007361
1745.75	0.006041
1755.4	0.004941
1765.04	0.003031
1774.69	0.002101
1784.33	0.0018146
1793.98	0.0017459
1803.62	0.001971
1813.27	0.0016154
1822.91	0.0015242
1832.55	0.0016188
1842.2	0.0013554
1851.84	0.0014635
1861.49	0.0013842
1871.13	0.0010905
1880.78	0.0012045
1890.42	0.0014464
1900.07	0.0015058
1909.71	0.0015446
1919.36	0.0017261
1929	0.0016621
1938.65	0.0013253
1948.29	0.0010245
1957.94	0.0010422
1967.58	0.000978
1977.23	0.0012724
1986.87	0.0011294
1996.52	0.0011272
2006.16	0.0011441
2015.81	0.0011166
2025.45	0.0012013
2035.1	0.0013608
2044.74	0.001249
2054.38	0.00099
2064.03	0.0013601
2073.67	0.0010366
2083.32	0.0013087
2092.96	0.0012232
2102.61	0.0016594
2112.25	0.0015962
2121.9	0.0017064
2131.54	0.0016923
2141.19	0.0015905
2150.83	0.0017858
2160.48	0.001756
2170.12	0.0016446
2179.77	0.0015489
2189.41	0.002201
2199.06	0.003461
2208.7	0.008061
2218.35	0.014231
2227.99	0.015181
2237.64	0.009291
2247.28	0.002571
2256.92	0.0011318
2266.57	0.0012864
2276.21	0.00158
2285.86	0.00129
2295.5	0.0014542
2305.15	0.0013987
2314.79	0.0014411
2324.44	0.001316
2334.08	0.0014772
2343.73	0.0014441
2353.37	0.0013626
2363.02	0.001145
2372.66	0.0010399
2382.31	0.0014725
2391.95	0.0015244
2401.6	0.00091815
2411.24	0.0014715
2420.89	0.001485
2430.53	0.0012557
2440.18	0.0015161
2449.82	0.0015836
2459.47	0.0017216
2469.11	0.0016003
2478.75	0.0014842
2488.4	0.0015001
2498.04	0.0011387
2507.69	0.0012943
2517.33	0.0016443
2526.98	0.0013244
2536.62	0.0013269
2546.27	0.0012948
2555.91	0.0012713
2565.56	0.0013358
2575.2	0.0011146
2584.85	0.0012847
2594.49	0.0012244
2604.14	0.0013323
2613.78	0.0012502
2623.43	0.0015755
2633.07	0.0013677
2642.72	0.0013073
2652.36	0.0007951
2662.01	0.001311
2671.65	0.0012018
2681.29	0.001328
2690.94	0.0014302
2700.58	0.0011625
2710.23	0.0012288
2719.87	0.00134
2729.52	0.0016464
2739.16	0.0015053
2748.81	0.0015395
2758.45	0.001861
2768.1	0.0013381
2777.74	0.0013368
2787.39	0.0016895
2797.03	0.0017534
2806.68	0.0013105
2816.32	0.0015569
2825.97	0.0012815
2835.61	0.0015065
2845.26	0.0017557
2854.9	0.001951
2864.55	0.0016064
2874.19	0.0013037
2883.84	0.001851
2893.48	0.0011136
2903.12	0.0013725
2912.77	0.001209
2922.41	0.0017015
2932.06	0.0012975
2941.7	0.0013482
2951.35	0.0011918
2960.99	0.0011709
2970.64	0.0011332
2980.28	0.0011857
2989.93	0.0013447
2999.57	0.00091552
3009.22	0.0013573
3018.86	0.0017257
3028.51	0.000642
3038.15	0.001861
3047.8	0.0009884
3057.44	0.0012883
3067.09	0.00088962
3076.73	0.00086798
3086.38	0.00090409
3096.02	0.0012916
3105.67	0.0010003
3115.31	0.0012714
3124.95	0.0014841
3134.6	0.0015874
3144.24	0.0016513
3153.89	0.0012766
3163.53	0.0015484
3173.18	0.0016633
3182.82	0.0012292
3192.47	0.0011773
3202.11	0.0009993
3211.76	0.0009861
3221.4	0.0011619
3231.05	0.0012727
3240.69	0.0014602
3250.34	0.0011776
3259.98	0.0007676
3269.63	0.0011331
3279.27	0.0009722
3288.92	1.1e-05
3298.56	0.0009396
3308.21	0.0011839
3317.85	0.00132
3327.49	0.0013298
3337.14	0.001784
3346.78	0.002211
3356.43	0.002851
3366.07	0.002221
3375.72	0.002201
3385.36	0.0014846
3395.01	0.0015609
3404.65	0.0011348
3414.3	0.0011343
3423.94	0.0012339
3433.59	0.0010377
3443.23	0.00086959
3452.88	0.0011728
3462.52	0.0011548
3472.17	0.0017158
3481.81	0.000513
3491.46	0.0013234
3501.1	0.0010801
3510.75	0.0011262
3520.39	0.0010639
3530.04	0.0014028
3539.68	0.000423
3549.32	0.0010503
3558.97	0.0012831
3568.61	0.0007861
3578.26	0.0009761
3587.9	0.000598
3597.55	0.000512
3607.19	0.0013843
3616.84	0.0013127
3626.48	0.000326
3636.13	0.0017538
3645.77	0.0010596
3655.42	0.0007494
3665.06	0.000685
3674.71	0.00089377
3684.35	0.0011314
3694	0.0010414
3703.64	0.0009416
3713.29	0.0009381
3722.93	0.000714
3732.58	0.00084034
3742.22	0.0007489
3751.86	0.000566
3761.51	0.0013858
3771.15	0.000617
3780.8	0.0012168
3790.44	0.000672
3800.09	0.0009254
3809.73	0.000744
3819.38	0.0009759
3829.02	0.0012297
3838.67	0.0015836
3848.31	0.00098
3857.96	0.0017193
3867.6	0.0012325
3877.25	0.0012245
3886.89	0.0010437
3896.54	0.000237
3906.18	0.0009251
3915.83	0.0010268
3925.47	0.0007796
3935.12	0.000923
3944.76	0.0007211
3954.41	0.0014589
3964.05	0.0007581
3973.69	0.00090521
3983.34	0.0009685
3992.98	0.001658
