Infrared Spectrum: 1-Phenyl-1-decanone
Formula: C 16 H 24 O
CAS: 6048-82-4
State: gas
Instrument: HP-GC/MS/IRD
Origin: NIST Mass Spectrometry Data Center
1/CM	ABSORBANCE
550	0.0003375
562	0.000684
574	0.000981
586	0.0007515
598	0.000981
610	0.000486
622	0.0001035
634	0.0001665
646	0.000873
658	0.0016515
670	0.0022455
682	0.004905
694	0.007947
706	0.0041985
718	0.0030285
730	0.003465
742	0.004104
754	0.0035145
766	0.0022455
778	0.0013725
790	0.0007335
802	0.000378
814	0.0001575
826	4.05e-05
838	6.75e-05
850	9e-05
862	0.000198
874	0.0002925
886	0.000387
898	0.00045
910	0.0005805
922	0.0008415
934	0.001044
946	0.001521
958	0.0023535
970	0.002952
982	0.0029025
994	0.003348
1006	0.004122
1018	0.0024705
1030	0.0012015
1042	0.000792
1054	0.0008055
1066	0.000855
1078	0.000603
1090	0.000396
1102	0.000405
1114	0.0004995
1126	0.0003915
1138	0.0004635
1150	0.001044
1162	0.001845
1174	0.0039285
1186	0.0047565
1198	0.0051525
1210	0.00828
1222	0.0079515
1234	0.006516
1246	0.006813
1258	0.0072585
1270	0.007272
1282	0.0059085
1294	0.0047655
1306	0.0040905
1318	0.004455
1330	0.0040995
1342	0.004554
1354	0.005103
1366	0.0039915
1378	0.0025875
1390	0.00162
1402	0.0012465
1414	0.001575
1426	0.001836
1438	0.00342
1450	0.0066375
1462	0.005184
1474	0.0029115
1486	0.0012465
1498	0.0007155
1510	0.000495
1522	0.0004275
1534	0.000387
1546	0.000351
1558	0.0004545
1570	0.0009225
1582	0.0016785
1594	0.001854
1606	0.001458
1618	0.0007065
1630	0.0004725
1642	0.0006345
1654	0.0011925
1666	0.0020925
1678	0.0046845
1690	0.0144
1702	0.0234765
1714	0.0102645
1726	0.0028305
1738	0.0012375
1750	0.0007785
1762	0.0005445
1774	0.000396
1786	0.0002655
1798	0.0004095
1810	0.000522
1822	0.000216
1834	0.0001215
1846	5.85e-05
1858	7.2e-05
1870	0.0001035
1882	0.000216
1894	0.0003105
1906	0.0002475
1918	0.000135
1930	0.000108
1942	0.0002025
1954	0.000387
1966	0.0003285
1978	0.000153
1990	6.3e-05
2002	1.8e-05
2014	4.05e-05
2026	4.05e-05
2038	4.5e-05
2050	4.5e-05
2062	3.15e-05
2074	1.8e-05
2086	1.35e-05
2098	9e-06
2110	9e-06
2122	1.8e-05
2134	2.7e-05
2146	4.05e-05
2158	5.4e-05
2170	4.5e-05
2182	1.8e-05
2194	4.05e-05
2206	1.8e-05
2218	4.95e-05
2230	3.6e-05
2242	4.95e-05
2254	5.85e-05
2266	5.85e-05
2278	6.3e-05
2290	8.1e-05
2302	8.55e-05
2314	0.00018
2326	0.000207
2338	0.000225
2350	0.0001485
2362	0.00018
2374	0.0001215
2386	6.3e-05
2398	6.3e-05
2410	7.2e-05
2422	9e-05
2434	9.45e-05
2446	6.75e-05
2458	3.6e-05
2470	3.6e-05
2482	5.85e-05
2494	7.2e-05
2506	6.75e-05
2518	7.65e-05
2530	9.45e-05
2542	0.000126
2554	0.000144
2566	0.0001485
2578	0.00018
2590	0.0002115
2602	0.000225
2614	0.000243
2626	0.0002835
2638	0.0003285
2650	0.00036
2662	0.0004005
2674	0.0004365
2686	0.0004905
2698	0.0004635
2710	0.0004365
2722	0.000459
2734	0.000522
2746	0.000585
2758	0.0006525
2770	0.000702
2782	0.0008955
2794	0.001161
2806	0.001557
2818	0.002079
2830	0.002898
2842	0.004851
2854	0.0112815
2866	0.017424
2878	0.0138465
2890	0.0120285
2902	0.014508
2914	0.022185
2926	0.0383715
2938	0.042714
2950	0.0272925
2962	0.021114
2974	0.0152955
2986	0.0067635
2998	0.003744
3010	0.002682
3022	0.0025965
3034	0.003078
3046	0.003033
3058	0.003537
3070	0.005472
3082	0.0040995
3094	0.003249
3106	0.0018
3118	0.0008415
3130	0.0005265
3142	0.000468
3154	0.0004635
3166	0.0004005
3178	0.000261
3190	0.00027
3202	0.000243
3214	0.000162
3226	0.000108
3238	0.000126
3250	9.9e-05
3262	8.1e-05
3274	7.2e-05
3286	3.15e-05
3298	6.75e-05
3310	7.65e-05
3322	4.95e-05
3334	9e-05
3346	0.000135
3358	0.0002205
3370	0.0003915
3382	0.0004545
3394	0.0003825
3406	0.0002385
3418	0.00018
3430	0.000108
3442	7.65e-05
3454	8.1e-05
3466	1.8e-05
3478	5.4e-05
3490	5.85e-05
3502	5.4e-05
3514	1.35e-05
3526	2.7e-05
3538	4.5e-05
3550	1.35e-05
3562	4.95e-05
3574	8.55e-05
3586	4.95e-05
3598	7.2e-05
3610	0.000108
3622	9.9e-05
3634	9.45e-05
3646	0.000162
3658	0.000153
3670	0.000126
3682	0.000108
3694	0.000162
3706	0.000162
3718	0.000126
3730	0.000144
3742	0.0001215
3754	0.000162
3766	0.0001395
3778	6.75e-05
3790	8.1e-05
3802	0.0001575
3814	0.0001485
3826	0.000135
3838	0.000144
