Infrared Spectrum: 1-Phenylnaphthalene
Formula: C 16 H 12
CAS: 605-02-7
State: gas
Instrument: HP-GC/MS/IRD
Origin: NIST Mass Spectrometry Data Center
1/CM	ABSORBANCE
550	0.0041514
562	0.0051102
574	0.0029648
586	0.001343
598	0.001003
610	0.0027234
622	0.0043792
634	0.0008126
646	0.0012104
658	0.0014042
670	0.0023732
682	0.003077
694	0.0119
706	0.014535
718	0.0036652
730	0.0031042
742	0.0037434
754	0.0116484
766	0.0250172
778	0.0306034
790	0.016507
802	0.0107338
814	0.0019006
826	0.0007684
838	0.0006596
850	0.0006562
862	0.001139
874	0.0005508
886	0.0003366
898	0.0005338
910	0.0008092
922	0.0004522
934	0.0003638
946	0.000935
958	0.001955
970	0.001615
982	0.0004488
994	0.0008296
1006	0.0016252
1018	0.0028152
1030	0.003587
1042	0.000969
1054	0.000901
1066	0.001717
1078	0.001105
1090	0.0002346
1102	0.0002448
1114	0.0005406
1126	0.0002278
1138	0.0001938
1150	7.14e-05
1162	0.0005644
1174	0.0004114
1186	0.0005644
1198	0.0003196
1210	0.0002414
1222	0.000255
1234	0.0002992
1246	0.0007922
1258	0.0003536
1270	7.14e-05
1282	0.0001054
1294	0.000238
1306	0.0002312
1318	0.0006188
1330	0.000748
1342	0.000629
1354	0.000306
1366	0.0008194
1378	0.001785
1390	0.0070924
1402	0.0053346
1414	0.0019992
1426	0.001564
1438	0.0026996
1450	0.0021182
1462	0.0016218
1474	0.0019788
1486	0.003621
1498	0.0061302
1510	0.0044472
1522	0.002533
1534	0.0014994
1546	0.0013736
1558	0.0016456
1570	0.0020434
1582	0.00374
1594	0.0042126
1606	0.0023834
1618	0.0010132
1630	0.0008058
1642	0.0007106
1654	0.0013124
1666	0.0010438
1678	0.0014246
1690	0.001411
1702	0.0015606
1714	0.0011628
1726	0.000969
1738	0.0012274
1750	0.0015436
1762	0.0011866
1774	0.0011526
1786	0.0009656
1798	0.0021658
1810	0.0020808
1822	0.00119
1834	0.0010982
1846	0.0009996
1858	0.001122
1870	0.001462
1882	0.0010472
1894	0.0011186
1906	0.0011526
1918	0.0020468
1930	0.0017714
1942	0.0019244
1954	0.0013702
1966	0.0006324
1978	0.0002516
1990	0.0002822
2002	0.0001904
2014	0.000204
2026	0.0001938
2038	0.0001938
2050	0.0001938
2062	0.0001904
2074	0.0001564
2086	0.0001632
2098	0.000187
2110	0.00017
2122	0.0001564
2134	0.0001632
2146	0.0001666
2158	0.000187
2170	0.0001666
2182	0.0001802
2194	0.0001496
2206	0.000187
2218	0.0001836
2230	0.0002448
2242	0.0002822
2254	0.0002822
2266	0.0002924
2278	0.0003502
2290	0.0003502
2302	0.0003162
2314	0.0004964
2326	0.0004624
2338	0.0004998
2350	0.000425
2362	0.000527
2374	0.0003808
2386	0.0002584
2398	0.0002482
2410	0.0002754
2422	0.0002924
2434	0.000272
2446	0.000221
2458	0.0002516
2470	0.0002448
2482	0.0002278
2494	0.0002482
2506	0.000204
2518	0.0002006
2530	0.0002312
2542	0.0002618
2554	0.0002448
2566	0.0002652
2578	0.000238
2590	0.0002448
2602	0.0002176
2614	0.0002754
2626	0.0002346
2638	0.000221
2650	0.0002176
2662	0.0002074
2674	0.0001904
2686	0.0001938
2698	0.0001802
2710	0.0001462
2722	0.0001802
2734	0.0001972
2746	0.0002346
2758	0.0001938
2770	0.0002686
2782	0.0002754
2794	0.000238
2806	0.0002278
2818	0.0003264
2830	0.0002924
2842	0.0003706
2854	0.0004488
2866	0.00051
2878	0.0004862
2890	0.000527
2902	0.0005168
2914	0.0005916
2926	0.0007956
2938	0.0009792
2950	0.0010404
2962	0.0009384
2974	0.0010132
2986	0.0014076
2998	0.0025058
3010	0.0041038
3022	0.0064838
3034	0.0111996
3046	0.0171836
3058	0.0261222
3070	0.0269178
3082	0.0155414
3094	0.0091834
3106	0.0043724
3118	0.001904
3130	0.0010472
3142	0.0008024
3154	0.0007208
3166	0.0006154
3178	0.0004454
3190	0.0004216
3202	0.0003366
3214	0.0003638
3226	0.0003264
3238	0.0002822
3250	0.0001836
3262	0.000187
3274	0.0002244
3286	0.000153
3298	0.000136
3310	0.0001598
3322	0.0001462
3334	0.0001632
3346	0.0001156
3358	9.18e-05
3370	0.0001394
3382	0.0001258
3394	0.0001836
3406	0.000119
3418	0.0001428
3430	0.0001836
3442	0.0002176
3454	0.000204
3466	0.0001462
3478	0.0001972
3490	0.00017
3502	0.0003808
3514	0.0001666
3526	0.0003536
3538	0.0002244
3550	0.0003536
3562	0.0004046
3574	0.0001462
3586	0.0005984
3598	0.0002822
3610	0.0006154
3622	0.0003162
3634	0.0002856
3646	0.0005644
3658	0.0002958
3670	0.0005644
3682	0.0002822
3694	0.0003842
3706	0.0003536
3718	0.0003264
3730	0.0004692
3742	0.0006664
3754	0.0005134
3766	0.000306
3778	0.0001836
3790	0.0001836
3802	0.0004046
3814	0.0002754
3826	0.0003162
3838	0.0006222
