Infrared Spectrum: 5,6-Benzoquinoline hydrochloride
Formula: C13 H10 Cl N
CAS: 605-86-7
State: SOLID (KBr DISC, 0.8% WT.)
Class: COBLENTZ III
Instrument: PERKIN-ELMER 157
Sampling: TRANSMISSION
Resolution: 2
Origin: BRITISH PETROLEUM CO. LTD., ENGLAND
1/CM	TRANSMITTANCE
668	0.9587
677	0.9381
686	0.9051
695	0.8457
704	0.3339
713	0.8164
722	0.8141
731	0.7698
740	0.5861
749	0.0633
758	0.1717
767	0.623
776	0.3222
785	0.7896
794	0.7894
803	0.7355
812	0.5822
821	0.0787
830	0.0723
839	0.5872
848	0.7661
857	0.7908
866	0.7602
875	0.4947
884	0.7341
893	0.7957
902	0.7812
911	0.758
920	0.6994
929	0.476
938	0.6582
947	0.6666
956	0.5998
965	0.6781
974	0.5728
983	0.5403
992	0.458
1001	0.3949
1010	0.3505
1019	0.6429
1028	0.6216
1037	0.3396
1046	0.6479
1055	0.7213
1064	0.6989
1073	0.7105
1082	0.6904
1091	0.5759
1100	0.7456
1109	0.7199
1118	0.7013
1127	0.7015
1136	0.6779
1145	0.6667
1154	0.6456
1163	0.6704
1172	0.6177
1181	0.6459
1190	0.6275
1199	0.4467
1208	0.5315
1217	0.3727
1226	0.5176
1235	0.1553
1244	0.4329
1253	0.3941
1262	0.2216
1271	0.3521
1280	0.6017
1289	0.3996
1298	0.042
1307	0.1842
1316	0.4423
1325	0.6223
1334	0.5831
1343	0.4299
1352	0.2385
1361	0.0661
1370	0.6297
1379	0.6716
1388	0.6719
1397	0.6582
1406	0.6411
1415	0.5489
1424	0.3492
1433	0.5481
1442	0.3717
1451	0.3328
1460	0.5467
1469	0.5324
1478	0.4021
1487	0.5761
1496	0.5573
1505	0.4278
1514	0.1981
1523	0.3607
1532	0.5452
1541	0.4655
1550	0.3867
1559	0.3156
1568	0.4561
1577	0.3566
1586	0.1973
1595	0.213
1604	0.2765
1613	0.1968
1622	0.0944
1631	0.1826
1640	0.4596
1649	0.5639
1658	0.6284
1667	0.6284
1676	0.6155
1685	0.6008
1694	0.5886
1703	0.5761
1712	0.5817
1721	0.5844
1730	0.5725
1739	0.5465
1748	0.535
1757	0.5388
1766	0.5386
1775	0.5348
1784	0.526
1793	0.512
1802	0.4963
1811	0.4879
1820	0.4665
1829	0.4091
1838	0.4021
1847	0.333
1856	0.3343
1865	0.3814
1874	0.4024
1883	0.4045
1892	0.4062
1901	0.3663
1910	0.2993
1919	0.2329
1928	0.2139
1937	0.2243
1946	0.2268
1955	0.1885
1964	0.1372
1973	0.1846
1982	0.254
1991	0.2887
2000	0.2539
2009	0.215
2018	0.1887
2027	0.1679
2036	0.1481
2045	0.1225
2054	0.1111
2063	0.2081
2072	0.3134
2081	0.3608
2090	0.3704
2099	0.3689
2108	0.3587
2117	0.3377
2126	0.3133
2135	0.3
2144	0.2923
2153	0.2819
2162	0.2705
2171	0.2537
2180	0.2423
2189	0.2294
2198	0.2142
2207	0.1925
2216	0.1732
2225	0.1602
2234	0.1519
2243	0.1484
2252	0.1398
2261	0.1214
2270	0.0905
2279	0.0704
2288	0.0554
2297	0.0476
2306	0.0446
2315	0.0436
2324	0.0432
2333	0.043
2342	0.0428
2351	0.0426
2360	0.0424
2369	0.0422
2378	0.042
2387	0.0419
2396	0.0419
2405	0.0419
2414	0.0419
2423	0.0419
2432	0.0419
2441	0.0419
2450	0.0401
2459	0.0346
2468	0.0267
2477	0.0232
2486	0.022
2495	0.0218
2504	0.0214
2513	0.0211
2522	0.021
2531	0.0209
2540	0.0213
2549	0.0219
2558	0.0225
2567	0.0236
2576	0.0253
2585	0.0302
2594	0.0407
2603	0.0505
2612	0.056
2621	0.0595
2630	0.0636
2639	0.0692
2648	0.0777
2657	0.0963
2666	0.1014
2675	0.1056
2684	0.1134
2693	0.1212
2702	0.128
2711	0.1351
2720	0.1642
2729	0.1792
2738	0.1907
2747	0.2064
2756	0.224
2765	0.2565
2774	0.2802
2783	0.2908
2792	0.2978
2801	0.304
2810	0.3082
2819	0.3108
2828	0.3145
2837	0.3316
2846	0.3375
2855	0.3404
2864	0.3429
2873	0.3445
2882	0.3442
2891	0.3428
2900	0.3405
2909	0.3383
2918	0.3357
2927	0.3319
2936	0.3266
2945	0.3209
2954	0.3149
2963	0.3015
2972	0.2797
2981	0.2581
2990	0.2366
2999	0.2152
3008	0.194
3017	0.1812
3026	0.1803
3035	0.181
3044	0.1851
3053	0.2001
3062	0.2293
3071	0.2584
3080	0.2873
3089	0.3161
3098	0.3474
3107	0.3545
3116	0.3558
3125	0.3566
3134	0.3569
3143	0.3566
3152	0.3557
3161	0.3526
3170	0.3463
3179	0.342
3188	0.3406
3197	0.3395
3206	0.3381
3215	0.3349
3224	0.3307
3233	0.3261
3242	0.3237
3251	0.3221
3260	0.3209
3269	0.3196
3278	0.3171
3287	0.3135
3296	0.3086
3305	0.3033
3314	0.2976
3323	0.2909
3332	0.2847
3341	0.2789
3350	0.2746
3359	0.2704
3368	0.266
3377	0.2636
3386	0.263
3395	0.263
3404	0.2634
3413	0.2654
3422	0.2676
3431	0.2719
3440	0.2774
3449	0.2822
3458	0.2869
3467	0.2909
3476	0.2945
3485	0.2977
3494	0.2992
3503	0.2998
3512	0.3007
3521	0.3022
3530	0.3085
3539	0.3204
3548	0.3262
3557	0.3305
3566	0.334
3575	0.3361
3584	0.3366
3593	0.337
3602	0.3371
3611	0.3374
3620	0.3376
3629	0.3385
3638	0.338
3647	0.338
3656	0.338
3665	0.338
3674	0.3375
3683	0.3365
3692	0.3356
3701	0.3318
3710	0.327
3719	0.3228
3728	0.3188
3737	0.3147
3746	0.3114
3755	0.309
3764	0.3069
3773	0.3058
3782	0.3048
3791	0.3038
3800	0.3033
3809	0.3031
3818	0.3028
3827	0.3027
3836	0.3024
3845	0.3022
3854	0.302
3863	0.3015
3872	0.3009
3881	0.2993
3890	0.2964
3899	0.2915
3908	0.2866
3917	0.2824
3926	0.2805
3935	0.2804
3944	0.2802
3953	0.2801
3962	0.28
3971	0.2799
3980	0.2798
3989	0.2796
3998	0.2796
