Infrared Spectrum: 9,10-Dichloroanthracene
Formula: C 14 H 8 Cl 2
CAS: 605-48-1
State: gas
Instrument: HP-GC/MS/IRD
Origin: NIST Mass Spectrometry Data Center
1/CM	ABSORBANCE
550	0.0004032
562	0.0002496
574	0.0003312
586	0.0018624
598	0.0060528
610	0.0015144
622	0.000228
634	0.0001824
646	0.0002088
658	0.0001776
670	0.0002184
682	0.0002376
694	0.0012216
706	0.0007704
718	0.0005976
730	0.0009408
742	0.005328
754	0.024
766	0.0038592
778	0.0006024
790	0.0003504
802	0.0002424
814	0.0001632
826	0.0001728
838	0.000228
850	0.0005088
862	0.0004584
874	0.0005424
886	0.0004464
898	0.00024
910	0.000408
922	0.0005232
934	0.0030552
946	0.0154584
958	0.0088968
970	0.001356
982	0.0003888
994	0.0002136
1006	0.0002424
1018	0.0016488
1030	0.0018024
1042	0.0001872
1054	7.2e-05
1066	0.0001368
1078	7.2e-05
1090	5.52e-05
1102	9.84e-05
1114	1.68e-05
1126	0
1138	0.0001776
1150	0.0003648
1162	0.001428
1174	0.0010128
1186	0.000324
1198	0.0003576
1210	0.0002808
1222	0.0002544
1234	0.0004248
1246	0.0009576
1258	0.0060048
1270	0.0060288
1282	0.0012792
1294	0.001992
1306	0.0105912
1318	0.0104328
1330	0.002088
1342	0.0009864
1354	0.0006936
1366	0.0006816
1378	0.0003528
1390	0.0004776
1402	0.0003576
1414	0.0002856
1426	0.0006984
1438	0.0027
1450	0.0008448
1462	0.0002352
1474	0.0001272
1486	0.0001872
1498	0.0004848
1510	0.0004536
1522	0.000912
1534	0.0004056
1546	0.0001464
1558	6.96e-05
1570	0.0001272
1582	0.0002232
1594	0.0004968
1606	0.0006216
1618	0.0009168
1630	0.000732
1642	0.0002304
1654	5.28e-05
1666	0.00012
1678	0.000204
1690	0.0005496
1702	0.0011568
1714	0.0006
1726	0.0003168
1738	0.000288
1750	0.0002352
1762	0.0001392
1774	0.0001416
1786	0.000312
1798	0.000792
1810	0.0008664
1822	0.0008016
1834	0.0002064
1846	0.0001176
1858	0.0001608
1870	0.0001272
1882	0.0001344
1894	0.0001896
1906	0.0005208
1918	0.0005136
1930	0.0005784
1942	0.0007776
1954	0.0004584
1966	0.0001896
1978	0.0001248
1990	0.0001128
2002	0.0001056
2014	0.0001032
2026	0.0001152
2038	0.000132
2050	0.0001416
2062	0.0001152
2074	0.0001224
2086	0.0001128
2098	0.0001392
2110	0.0001152
2122	0.0001056
2134	9.84e-05
2146	9.6e-05
2158	8.88e-05
2170	0.0001056
2182	0.0001296
2194	7.92e-05
2206	9.84e-05
2218	9.36e-05
2230	0.000108
2242	0.000108
2254	0.0001368
2266	0.0001128
2278	9.6e-05
2290	0.0001296
2302	0.0001176
2314	0.0001584
2326	0.0001776
2338	0.000132
2350	0.0001176
2362	7.2e-06
2374	8.64e-05
2386	0.0001248
2398	0.0001032
2410	0.0001008
2422	8.88e-05
2434	8.4e-05
2446	9.6e-05
2458	0.0001056
2470	0.0001296
2482	0.0001008
2494	7.68e-05
2506	7.2e-05
2518	9.12e-05
2530	7.44e-05
2542	0.000108
2554	0.0001128
2566	9.6e-05
2578	9.36e-05
2590	8.88e-05
2602	7.68e-05
2614	9.6e-05
2626	8.16e-05
2638	7.2e-05
2650	8.16e-05
2662	6.72e-05
2674	7.44e-05
2686	9.6e-05
2698	0.0001224
2710	0.00012
2722	0.0001176
2734	9.36e-05
2746	8.88e-05
2758	8.64e-05
2770	0.0001008
2782	8.64e-05
2794	9.12e-05
2806	8.64e-05
2818	0.0001272
2830	9.36e-05
2842	9.84e-05
2854	9.6e-05
2866	8.88e-05
2878	0.0001152
2890	0.0001176
2902	0.0001512
2914	0.0001728
2926	0.0001416
2938	0.0001464
2950	0.0001608
2962	0.00018
2974	0.000324
2986	0.0004968
2998	0.000408
3010	0.0003432
3022	0.0004488
3034	0.0012024
3046	0.0027288
3058	0.0019512
3070	0.0018528
3082	0.0056784
3094	0.0046608
3106	0.0006744
3118	0.0003024
3130	0.000192
3142	0.000228
3154	0.0002112
3166	0.0002064
3178	0.000192
3190	0.0001296
3202	0.0001152
3214	0.000108
3226	0.0001272
3238	0.0001104
3250	8.64e-05
3262	9.12e-05
3274	8.64e-05
3286	6.72e-05
3298	8.88e-05
3310	7.2e-05
3322	0.0001032
3334	6.48e-05
3346	9.84e-05
3358	7.68e-05
3370	8.16e-05
3382	8.64e-05
3394	0.0001392
3406	0.0001104
3418	0.0001272
3430	7.2e-05
3442	0.0001344
3454	0.0001224
3466	8.64e-05
3478	8.64e-05
3490	0.000144
3502	9.6e-05
3514	0.00012
3526	5.52e-05
3538	9.36e-05
3550	0.0001152
3562	7.92e-05
3574	7.2e-05
3586	7.2e-05
3598	0.0001416
3610	5.04e-05
3622	7.2e-05
3634	0.0001176
3646	9.12e-05
3658	8.88e-05
3670	4.56e-05
3682	0.0001248
3694	0.000108
3706	0.0001296
3718	0.0001368
3730	0.0001032
3742	0.0001032
3754	0.0001032
3766	0.000132
3778	0.0001248
3790	0.00012
3802	6.96e-05
3814	0.0001152
3826	9.6e-05
3838	6.48e-05
