Infrared Spectrum: .beta.-Naphthoflavone
Formula: C 19 H 12 O 2
CAS: 6051-87-2
State: gas
Origin: EPA-IR VAPOR PHASE LIBRARY
1/CM	ABSORBANCE
549.8	0.0005257
559.445	0.0007741
569.09	0.0005996
578.734	0.0002904
588.379	0.0005606
598.024	0.002349
607.669	0.003889
617.313	0.001789
626.958	0.0010351
636.603	0.0010814
646.248	0.001669
655.893	0.001699
665.537	0.001639
675.182	0.002299
684.827	0.004469
694.472	0.003729
704.116	0.001929
713.761	0.001529
723.406	0.002579
733.051	0.003309
742.695	0.004869
752.34	0.006169
761.985	0.004899
771.63	0.003699
781.275	0.001539
790.919	0.001249
800.564	0.001919
810.209	0.005849
819.854	0.007159
829.498	0.002159
839.143	0.001429
848.788	0.003739
858.433	0.004589
868.078	0.001669
877.722	0.001123
887.367	0.001229
897.012	0.0011238
906.657	0.0008494
916.301	0.0007053
925.946	0.0007692
935.591	0.001189
945.236	0.001869
954.88	0.006739
964.525	0.005659
974.17	0.001639
983.815	0.0010509
993.46	0.0005488
1003.1	0.0008482
1012.75	0.001229
1022.39	0.005319
1032.04	0.003079
1041.68	0.0010826
1051.33	0.001749
1060.97	0.002829
1070.62	0.001829
1080.26	0.001379
1089.91	0.0009296
1099.55	0.001169
1109.2	0.0009557
1118.84	0.002039
1128.49	0.005919
1138.13	0.004329
1147.78	0.002079
1157.42	0.002749
1167.07	0.001149
1176.71	0.0010478
1186.36	0.001989
1196	0.001929
1205.64	0.002589
1215.29	0.002579
1224.93	0.004049
1234.58	0.010759
1244.22	0.005669
1253.87	0.003019
1263.51	0.002909
1273.16	0.004459
1282.8	0.005669
1292.45	0.005499
1302.09	0.006689
1311.74	0.004529
1321.38	0.005119
1331.03	0.009639
1340.67	0.016379
1350.32	0.012029
1359.96	0.006499
1369.61	0.007159
1379.25	0.016109
1388.9	0.023299
1398.54	0.013539
1408.18	0.009449
1417.83	0.004409
1427.47	0.004709
1437.12	0.015179
1446.76	0.011519
1456.41	0.006549
1466.05	0.002699
1475.7	0.001809
1485.34	0.002089
1494.99	0.004479
1504.63	0.008719
1514.28	0.011779
1523.92	0.006089
1533.57	0.002459
1543.21	0.001239
1552.86	0.0010627
1562.5	0.001709
1572.15	0.003479
1581.79	0.004019
1591.44	0.004939
1601.08	0.004869
1610.73	0.003829
1620.37	0.004909
1630.01	0.006849
1639.66	0.007169
1649.3	0.017059
1658.95	0.056829
1668.59	0.037699
1678.24	0.008179
1687.88	0.003859
1697.53	0.002499
1707.17	0.001959
1716.82	0.001369
1726.46	0.0009631
1736.11	0.0009608
1745.75	0.0010505
1755.4	0.0010443
1765.04	0.0010909
1774.69	0.000758
1784.33	0.0006531
1793.98	0.0007918
1803.62	0.0008182
1813.27	0.0006207
1822.91	0.0006629
1832.55	0.0006017
1842.2	0.0006235
1851.84	0.0008252
1861.49	0.0005337
1871.13	0.0004623
1880.78	0.0006887
1890.42	0.000881
1900.07	0.0009498
1909.71	0.0007344
1919.36	0.0006547
1929	0.0007232
1938.65	0.0007144
1948.29	0.0007647
1957.94	0.0008148
1967.58	0.0008185
1977.23	0.0004588
1986.87	0.0003301
1996.52	0.0002915
2006.16	0.0003025
2015.81	0.0004551
2025.45	0.0004048
2035.1	0.0003257
2044.74	0.0002783
2054.38	0.0003971
2064.03	0.000368
2073.67	0.0003482
2083.32	0.0003992
2092.96	0.0003047
2102.61	0.0002805
2112.25	0.0002692
2121.9	0.0002676
2131.54	0.0002653
2141.19	0.0002109
2150.83	0.00017163
2160.48	0.0003044
2170.12	0.0003067
2179.77	0.0002679
2189.41	0.000246
2199.06	0.0002605
2208.7	0.000313
2218.35	0.000311
2227.99	0.0003785
2237.64	0.0003539
2247.28	0.0003103
2256.92	0.0003841
2266.57	0.0003951
2276.21	0.0003788
2285.86	0.0004102
2295.5	0.0002461
2305.15	0.0003603
2314.79	0.0003267
2324.44	0.0003284
2334.08	0.00022397
2343.73	0.0002733
2353.37	0.0003027
2363.02	0.00021829
2372.66	0.00020094
2382.31	0.0003042
2391.95	0.0003344
2401.6	0.0003234
2411.24	0.000388
2420.89	0.0003931
2430.53	0.00022583
2440.18	0.00013292
2449.82	0.0002874
2459.47	0.000146572
2469.11	0.00019855
2478.75	0.0002663
2488.4	0.0002768
2498.04	0.00017403
2507.69	0.00022222
2517.33	0.0001595
2526.98	0.0002696
2536.62	0.00023637
2546.27	0.00021189
2555.91	0.00015589
2565.56	0.00023474
2575.2	0.00021443
2584.85	0.0003768
2594.49	0.0002876
2604.14	0.00022245
2613.78	0.0002571
2623.43	0.00015587
2633.07	0.0002839
2642.72	0.00019985
2652.36	0.0002935
2662.01	0.0002667
2671.65	0.0001641
2681.29	0.00016096
2690.94	0.000121
2700.58	0.00018144
2710.23	0.00018277
2719.87	0.0003031
2729.52	6.38e-05
2739.16	7.74e-05
2748.81	0.0001083
2758.45	0.00015645
2768.1	0.0001652
2777.74	4.25e-05
2787.39	0.00017781
2797.03	0.0001092
2806.68	5.03e-05
2816.32	0.00021177
2825.97	0.00021355
2835.61	0.0002706
2845.26	0.0002073
2854.9	0.0001327
2864.55	0.00022522
2874.19	0.00023563
2883.84	0.0002483
2893.48	0.00020435
2903.12	0.0003807
2912.77	0.00021175
2922.41	0
2932.06	0.00021639
2941.7	0.0002992
2951.35	0.00021903
2960.99	0.000283
2970.64	0.0002709
2980.28	0.0004731
2989.93	0.0005185
2999.57	0.000693
3009.22	0.0010111
3018.86	0.001249
3028.51	0.001589
3038.15	0.002499
3047.8	0.003249
3057.44	0.004729
3067.09	0.007019
3076.73	0.006139
3086.38	0.004259
3096.02	0.003149
3105.67	0.002699
3115.31	0.001829
3124.95	0.0008711
3134.6	0.0007886
3144.24	0.0005723
3153.89	0.00021423
3163.53	0.0003409
3173.18	0.0003762
3182.82	0.0003722
3192.47	0.0003757
3202.11	0.00021819
3211.76	0.0005077
3221.4	0.000399
3231.05	0.0002555
3240.69	0.0005647
3250.34	0.0003501
3259.98	0.0004207
3269.63	0.0004828
3279.27	0.0005762
3288.92	0.0005263
3298.56	0.0002615
3308.21	0.0005873
3317.85	0.000549
3327.49	0.0006286
3337.14	0.00019448
3346.78	0.0002448
3356.43	0.0002705
3366.07	0.0002689
3375.72	0.0002578
3385.36	0.0001189
3395.01	0.0004242
3404.65	0.0002899
3414.3	0.0003309
3423.94	0.0003336
3433.59	0.0004552
3443.23	0.0003271
3452.88	0.00015793
3462.52	8.07e-05
3472.17	0.0003401
3481.81	0.0002635
3491.46	0.0006244
3501.1	0.0004005
3510.75	0.0004815
3520.39	0.0003833
3530.04	0.0004486
3539.68	0.0003602
3549.32	0.0006839
3558.97	0.0004586
3568.61	0.0003995
3578.26	0.0003831
3587.9	0.0005078
3597.55	0.000467
3607.19	0.0003269
3616.84	0.0004702
3626.48	0.0005034
3636.13	0.0003161
3645.77	0.0003511
3655.42	0.0003831
3665.06	0.0004135
3674.71	0.0004199
3684.35	0.00013041
3694	0.0003266
3703.64	0.0003984
3713.29	0.0003895
3722.93	0.000331
3732.58	0.0003727
3742.22	0.0004963
3751.86	0.0005824
3761.51	0.0004095
3771.15	0.0004254
3780.8	0.0004161
3790.44	0.0003736
3800.09	0.0004599
3809.73	0.0004168
3819.38	0.0004062
3829.02	0.0003974
3838.67	0.0003747
3848.31	0.0004202
3857.96	0.0003772
3867.6	0.0003277
3877.25	0.0004045
3886.89	0.0004796
3896.54	0.0003587
3906.18	0.0005567
3915.83	0.0004696
3925.47	0.0005632
3935.12	0.0003794
3944.76	0.0004689
3954.41	0.000466
3964.05	0.00018102
3973.69	0.0005283
3983.34	0.0004484
3992.98	0.0005039
