Infrared Spectrum: Alpha-Ethylcyclohexaneacetic acid
Formula: C10 H18 O2
CAS: 6051-00-9
State: SOLUTION (10% CCl4 FOR 3800-1330, 10% CS2 FOR 1330-450 CM^-^1)
Melting point: 56 C
Class: COBLENTZ III
Instrument: DOW KBr FOREPRISM-GRATING
Instrument parameters: BLAZED AT 3.5, 12.0, 20.0 MICRON AND CHANGED AT 5.0, 7.5, 14.9 MICRON
Sampling: TRANSMISSION
Path length: 0.011 CM, 0.011 CM
Resolution: 2
Origin: DOW CHEMICAL COMPANY
1/CM	TRANSMITTANCE
3788	0.9227
3779	0.9214
3770	0.9229
3761	0.923
3752	0.9232
3743	0.923
3734	0.9239
3725	0.9241
3716	0.9236
3707	0.9249
3698	0.9239
3689	0.9195
3680	0.9105
3671	0.9179
3662	0.9213
3653	0.9192
3644	0.9194
3635	0.921
3626	0.9192
3617	0.9183
3608	0.9183
3599	0.9123
3590	0.9199
3581	0.918
3572	0.9047
3563	0.9139
3554	0.9145
3545	0.9114
3536	0.8977
3527	0.8823
3518	0.8749
3509	0.8828
3500	0.8943
3491	0.896
3482	0.8959
3473	0.8927
3464	0.8892
3455	0.8866
3446	0.8808
3437	0.8741
3428	0.8672
3419	0.859
3410	0.8501
3401	0.8387
3392	0.8182
3383	0.8077
3374	0.7989
3365	0.7865
3356	0.7735
3347	0.7594
3338	0.7454
3329	0.7294
3320	0.7161
3311	0.7006
3302	0.6801
3293	0.6641
3284	0.648
3275	0.6324
3266	0.6156
3257	0.5955
3248	0.5726
3239	0.5487
3230	0.5262
3221	0.5046
3212	0.4842
3203	0.4611
3194	0.4381
3185	0.417
3176	0.3976
3167	0.3787
3158	0.3608
3149	0.3447
3140	0.3283
3131	0.3105
3122	0.2926
3113	0.2733
3104	0.2537
3095	0.2379
3086	0.2276
3077	0.2222
3068	0.2201
3059	0.2137
3050	0.2046
3041	0.2007
3032	0.1959
3023	0.1965
3014	0.1989
3005	0.1991
2996	0.1928
2987	0.1579
2978	0.0924
2969	0.0318
2960	0.0466
2951	0.0471
2942	0.0138
2933	0
2924	0.0001
2915	0.0089
2906	0.0329
2897	0.0651
2888	0.0903
2879	0.0778
2870	0.0947
2861	0.0533
2852	0.0225
2843	0.1289
2834	0.2136
2825	0.2496
2816	0.29
2807	0.3175
2798	0.3376
2789	0.3465
2780	0.3701
2771	0.3854
2762	0.3921
2753	0.3919
2744	0.3908
2735	0.3948
2726	0.4077
2717	0.4131
2708	0.4111
2699	0.4032
2690	0.3923
2681	0.3773
2672	0.3596
2663	0.3655
2654	0.3778
2645	0.3888
2636	0.3984
2627	0.4015
2618	0.4066
2609	0.4157
2600	0.4267
2591	0.4412
2582	0.4559
2573	0.4691
2564	0.478
2555	0.4836
2546	0.491
2537	0.5012
2528	0.5137
2519	0.5296
2510	0.5458
2501	0.5671
2492	0.5892
2483	0.6111
2474	0.6328
2465	0.6516
2456	0.6682
2447	0.6843
2438	0.6993
2429	0.7118
2420	0.723
2411	0.733
2402	0.744
2393	0.7524
2384	0.7641
2375	0.7773
2366	0.7845
2357	0.7943
2348	0.8031
2339	0.8098
2330	0.8158
2321	0.813
2312	0.8132
2303	0.8139
2294	0.8162
2285	0.8175
2276	0.8204
2267	0.8235
2258	0.8269
2249	0.8282
2240	0.8292
2231	0.8296
2222	0.8314
2213	0.8326
2204	0.8351
2195	0.8362
2186	0.8379
2177	0.8411
2168	0.8409
2159	0.8426
2150	0.8448
2141	0.8472
2132	0.8491
2123	0.8503
2114	0.8514
2105	0.853
2096	0.8543
2087	0.8558
2078	0.8556
2069	0.853
2060	0.853
2051	0.8545
2042	0.8538
2033	0.8513
2024	0.8494
2015	0.8457
2006	0.8429
1997	0.8225
1988	0.819
1979	0.8189
1970	0.8189
1961	0.8198
1952	0.8173
1943	0.8131
1934	0.8092
1925	0.8082
1916	0.8067
1907	0.8044
1898	0.8002
1889	0.7938
1880	0.7895
1871	0.7838
1862	0.7767
1853	0.771
1844	0.7657
1835	0.7587
1826	0.7522
1817	0.75
1808	0.7468
1799	0.7448
1790	0.7427
1781	0.7383
1772	0.7256
1763	0.7027
1754	0.6175
1745	0.5481
1736	0.529
1727	0.4372
1718	0.1797
1709	0.0008
1700	0.0001
1691	0.0512
1682	0.2703
1673	0.4544
1664	0.5752
1655	0.6252
1646	0.6724
1637	0.7077
1628	0.7379
1619	0.764
1610	0.7946
1601	0.8119
1592	0.8096
1583	0.7911
1574	0.7918
1565	0.7811
1556	0.7798
1547	0.7709
1538	0.8139
1529	0.8162
1520	0.8128
1511	0.8139
1502	0.7982
1493	0.7931
1484	0.787
1475	0.748
1466	0.4897
1457	0.284
1448	0.105
1439	0.4756
1430	0.5043
1421	0.3693
1412	0.3716
1403	0.5499
1394	0.6931
1385	0.5864
1376	0.7335
1367	0.7539
1358	0.7327
1349	0.6288
1340	0.589
1331	0.5927
1322	0.5817
1313	0.5552
1304	0.6123
1295	0.4432
1286	0.2288
1277	0.2197
1268	0.3437
1259	0.3752
1250	0.4659
1241	0.43
1232	0.2822
1223	0.2186
1214	0.3183
1205	0.441
1196	0.5145
1187	0.696
1178	0.7272
1169	0.8357
1160	0.8893
1151	0.8749
1142	0.7676
1133	0.8996
1124	0.9157
1115	0.8658
1106	0.8573
1097	0.8324
1088	0.8602
1079	0.7928
1070	0.8171
1061	0.8007
1052	0.9049
1043	0.8942
1034	0.8863
1025	0.869
1016	0.8894
1007	0.8931
998	0.884
989	0.8535
980	0.795
971	0.6846
962	0.5846
953	0.5084
944	0.435
935	0.4054
926	0.4444
917	0.5166
908	0.5967
899	0.6437
890	0.6269
881	0.6965
872	0.7907
863	0.81
854	0.8312
845	0.8272
836	0.749
827	0.9169
818	0.9398
809	0.9587
800	0.9409
791	0.8682
782	0.608
773	0.7391
764	0.8907
755	0.9525
746	0.9494
737	0.9558
728	0.9838
719	0.9934
710	0.9985
701	0.9971
692	0.992
683	0.9643
674	0.9348
665	0.7988
656	0.8599
647	0.9289
638	0.9717
629	0.9923
620	0.9994
611	0.9804
602	0.9698
593	0.9447
584	0.9148
575	0.9466
566	0.9778
557	0.9905
548	0.9889
539	0.9772
530	0.9586
521	0.9174
512	0.867
503	0.879
494	0.9234
485	0.9317
476	0.9257
467	0.9123
458	0.8997
