Infrared Spectrum: 4-(o-HYDROXYPHENYL)-3-BUTEN-2-ONE
Formula: C10 H10 O2
CAS: 6051-53-2
State: SOLID (MINERAL OIL MULL)
Boiling point: 135-138 C
Class: COBLENTZ
Instrument: Not specified, most likely a prism, grating, or hybrid spectrometer.
Sampling: TRANSMISSION
Resolution: 4
Origin: WYANDOTTE CHEMICALS CORP., WYANDOTTE, MICHIGAN, USA
MICROMETERS	TRANSMITTANCE
2.019	0.372
2.05612	0.372
2.09324	0.376
2.13035	0.378
2.16747	0.389
2.20459	0.393
2.24171	0.39
2.27882	0.384
2.31594	0.384
2.35306	0.389
2.39018	0.392
2.42729	0.392
2.46441	0.398
2.50153	0.401
2.53865	0.403
2.57577	0.417
2.61288	0.426
2.65	0.441
2.68712	0.451
2.72424	0.462
2.76135	0.474
2.79847	0.483
2.83559	0.489
2.87271	0.451
2.90982	0.409
2.94694	0.314
2.98406	0.226
3.02118	0.117
3.0583	0.136
3.09541	0.167
3.13253	0.2
3.16965	0.221
3.20677	0.257
3.24388	0.255
3.281	0.238
3.31812	0.207
3.35524	0.105
3.39235	0.037
3.42947	0.037
3.46659	0.04
3.50371	0.04
3.54083	0.125
3.57794	0.3
3.61506	0.362
3.65218	0.378
3.6893	0.376
3.72641	0.364
3.76353	0.37
3.80065	0.389
3.83777	0.4
3.87488	0.404
3.912	0.404
3.94912	0.4
3.98624	0.409
4.02336	0.417
4.06047	0.42
4.09759	0.44
4.13471	0.429
4.17183	0.429
4.20894	0.44
4.24606	0.431
4.28318	0.421
4.3203	0.451
4.35742	0.48
4.39453	0.505
4.43165	0.502
4.46877	0.497
4.50589	0.499
4.543	0.503
4.58012	0.516
4.61724	0.53
4.65436	0.528
4.69147	0.539
4.72859	0.541
4.76571	0.547
4.80283	0.547
4.83995	0.559
4.87706	0.559
4.91418	0.568
4.9513	0.572
4.98842	0.581
5.02553	0.587
5.06265	0.592
5.09977	0.609
5.13689	0.604
5.174	0.584
5.21112	0.612
5.24824	0.6
5.28536	0.624
5.32248	0.651
5.35959	0.638
5.39671	0.662
5.43383	0.669
5.47095	0.655
5.50806	0.674
5.54518	0.688
5.5823	0.671
5.61942	0.731
5.65653	0.751
5.69365	0.812
5.73077	0.834
5.76789	0.871
5.80501	0.883
5.84212	0.902
5.87924	0.818
5.91636	0.64
5.95348	0.412
5.99059	0.373
6.02771	0.341
6.06483	0.102
6.10195	0.125
6.13906	0.136
6.17618	0.075
6.2133	0.062
6.25042	0.124
6.28754	0.151
6.32465	0.241
6.36177	0.289
6.39889	0.353
6.43601	0.37
6.47312	0.404
6.51024	0.406
6.54736	0.398
6.58448	0.365
6.62159	0.291
6.65871	0.218
6.69583	0.336
6.73295	0.316
6.77007	0.158
6.80718	0.031
6.8443	0.06
6.88142	0.097
6.91854	0.164
6.95565	0.246
6.99277	0.296
7.02989	0.328
7.06701	0.358
7.10412	0.372
7.14124	0.409
7.17836	0.367
7.21548	0.226
7.2526	0.106
7.28971	0.096
7.32683	0.08
7.36395	0.062
7.40107	0.094
7.43818	0.153
7.4753	0.218
7.51242	0.172
7.54954	0.148
7.58665	0.231
7.62377	0.168
7.66089	0.089
7.69801	0.165
7.73513	0.269
7.77224	0.375
7.80936	0.488
7.84648	0.417
7.8836	0.147
7.92071	0.062
7.95783	0.049
7.99495	0.051
8.03207	0.075
8.06918	0.102
8.1063	0.117
8.14342	0.113
8.18054	0.103
8.21766	0.141
8.25477	0.176
8.29189	0.204
8.32901	0.218
8.36613	0.19
8.40324	0.165
8.44036	0.178
8.47748	0.195
8.5146	0.204
8.55172	0.254
8.58883	0.255
8.62595	0.142
8.66307	0.181
8.70019	0.237
8.7373	0.262
8.77442	0.285
8.81154	0.31
8.84866	0.32
8.88577	0.33
8.92289	0.331
8.96001	0.339
8.99713	0.355
9.03425	0.362
9.07136	0.348
9.10848	0.268
9.1456	0.19
9.18272	0.231
9.21983	0.286
9.25695	0.325
9.29407	0.35
9.33119	0.368
9.3683	0.384
9.40542	0.39
9.44254	0.4
9.47966	0.409
9.51678	0.407
9.55389	0.365
9.59101	0.252
9.62813	0.305
9.66525	0.342
9.70236	0.344
9.73948	0.311
9.7766	0.313
9.81372	0.344
9.85083	0.325
9.88795	0.252
9.92507	0.223
9.96219	0.246
9.99931	0.271
10.0364	0.299
10.0735	0.297
10.1107	0.288
10.1478	0.252
10.1849	0.268
10.222	0.249
10.2591	0.181
10.2962	0.11
10.3334	0.151
10.3705	0.243
10.4076	0.33
10.4447	0.389
10.4818	0.417
10.519	0.443
10.5561	0.455
10.5932	0.46
10.6303	0.423
10.6674	0.404
10.7045	0.46
10.7417	0.472
10.7788	0.486
10.8159	0.503
10.853	0.502
10.8901	0.511
10.9272	0.513
10.9644	0.527
11.0015	0.53
11.0386	0.536
11.0757	0.541
11.1128	0.548
11.15	0.548
11.1871	0.548
11.2242	0.55
11.2613	0.548
11.2984	0.551
11.3355	0.555
11.3727	0.558
11.4098	0.568
11.4469	0.57
11.484	0.573
11.5211	0.567
11.5582	0.493
11.5954	0.334
11.6325	0.224
11.6696	0.241
11.7067	0.361
11.7438	0.438
11.781	0.48
11.8181	0.489
11.8552	0.491
11.8923	0.479
11.9294	0.449
11.9665	0.401
12.0037	0.415
12.0408	0.463
12.0779	0.499
12.115	0.514
12.1521	0.527
12.1892	0.534
12.2264	0.537
12.2635	0.542
12.3006	0.548
12.3377	0.551
12.3748	0.551
12.412	0.558
12.4491	0.561
12.4862	0.559
12.5233	0.528
12.5604	0.449
12.5975	0.328
12.6347	0.327
12.6718	0.4
12.7089	0.441
12.746	0.455
12.7831	0.458
12.8203	0.446
12.8574	0.431
12.8945	0.415
12.9316	0.382
12.9687	0.351
13.0058	0.306
13.043	0.241
13.0801	0.162
13.1172	0.114
13.1543	0.105
13.1914	0.116
13.2285	0.186
13.2657	0.266
13.3028	0.337
13.3399	0.398
13.377	0.446
13.4141	0.482
13.4513	0.527
13.4884	0.548
13.5255	0.567
13.5626	0.579
13.5997	0.581
13.6368	0.575
13.674	0.531
13.7111	0.499
13.7482	0.524
13.7853	0.579
13.8224	0.607
13.8595	0.621
13.8967	0.632
13.9338	0.651
13.9709	0.662
14.008	0.675
14.0451	0.68
14.0823	0.688
14.1194	0.699
14.1565	0.699
14.1936	0.699
14.2307	0.697
14.2678	0.7
14.305	0.7
14.3421	0.699
14.3792	0.696
14.4163	0.696
14.4534	0.696
14.4905	0.689
14.5277	0.686
14.5648	0.683
14.6019	0.68
14.639	0.675
14.6761	0.674
14.7133	0.669
14.7504	0.666
14.7875	0.662
14.8246	0.658
14.8617	0.655
14.8988	0.652
14.936	0.648
14.9731	0.644
15.0102	0.638
15.0473	0.632
15.0844	0.624
15.1215	0.613
15.1587	0.6
15.1958	0.589
15.2329	0.572
15.27	0.556
15.3071	0.541
15.3443	0.522
15.3814	0.493
15.4185	0.398
15.4556	0.37
15.4927	0.365
15.5298	0.368
15.567	0.378
15.6041	0.384
15.6412	0.389
15.6783	0.396
15.7154	0.41
15.7525	0.42
15.7897	0.424
15.8268	0.435
15.8639	0.44
15.901	0.438
15.9381	0.443
15.9753	0.444
