Infrared Spectrum: 1H-PYRIDO[3,4-b]INDOLE-3-CARBOXYLIC ACID, 2,3,4,9-TETRAHYDRO-
Formula: C12 H12 N2 O2
CAS: 6052-68-2
State: SOLID (SPLIT MULL), FLUOROLUBE FOR 3800-1330 CM^-^1, NUJOL FOR 1330-450 CM^-^1
Class: COBLENTZ
Instrument: DOW KBr FOREPRISM-GRATING
Instrument parameters: BLAZED AT 3.5, 12.0, 20.0 MICRON AND CHANGED AT 5.0, 7.5, 14.9 MICRON
Sampling: TRANSMISSION
Resolution: 2
Origin: DOW CHEMICAL COMPANY
1/CM	TRANSMITTANCE
467	0.7578
476	0.7557
485	0.7448
494	0.7318
503	0.716
512	0.6998
521	0.6782
530	0.7
539	0.7078
548	0.7126
557	0.6935
566	0.7201
575	0.7325
584	0.6996
593	0.6506
602	0.7171
611	0.7597
620	0.7786
629	0.7971
638	0.7717
647	0.7583
656	0.7875
665	0.7968
674	0.7593
683	0.7026
692	0.7804
701	0.7836
710	0.6745
719	0.7485
728	0.7221
737	0.3052
746	0.6064
755	0.6771
764	0.8261
773	0.8573
782	0.8705
791	0.8706
800	0.8048
809	0.7948
818	0.8861
827	0.8505
836	0.8708
845	0.8648
854	0.8741
863	0.861
872	0.8839
881	0.88
890	0.8667
899	0.8618
908	0.8037
917	0.8517
926	0.8684
935	0.8609
944	0.8174
953	0.8474
962	0.8051
971	0.8503
980	0.8778
989	0.8692
998	0.8443
1007	0.8281
1016	0.8306
1025	0.7654
1034	0.8207
1043	0.7833
1052	0.8411
1061	0.8266
1070	0.7769
1079	0.7658
1088	0.8128
1097	0.8473
1106	0.8518
1115	0.8531
1124	0.8418
1133	0.8415
1142	0.7048
1151	0.7821
1160	0.7707
1169	0.8082
1178	0.7228
1187	0.7647
1196	0.8069
1205	0.7507
1214	0.7451
1223	0.768
1232	0.821
1241	0.8292
1250	0.8031
1259	0.7321
1268	0.7404
1277	0.7306
1286	0.7557
1295	0.7176
1304	0.5934
1313	0.6458
1322	0.731
1331	0.6738
1340	0.5531
1349	0.5765
1358	0.6305
1367	0.5722
1376	0.538
1385	0.4246
1394	0.2816
1403	0.1982
1412	0.2742
1421	0.4902
1430	0.5317
1439	0.523
1448	0.4014
1457	0.4807
1466	0.6258
1475	0.6312
1484	0.6489
1493	0.6404
1502	0.7511
1511	0.7515
1520	0.725
1529	0.6771
1538	0.635
1547	0.631
1556	0.6088
1565	0.6132
1574	0.5877
1583	0.5986
1592	0.5653
1601	0.4971
1610	0.4377
1619	0.3397
1628	0.1754
1637	0.056
1646	0.1413
1655	0.4214
1664	0.6694
1673	0.749
1682	0.8051
1691	0.821
1700	0.833
1709	0.8398
1718	0.8448
1727	0.8493
1736	0.8523
1745	0.851
1754	0.8498
1763	0.8578
1772	0.8608
1781	0.8634
1790	0.8657
1799	0.8687
1808	0.8708
1817	0.8721
1826	0.8725
1835	0.8724
1844	0.8715
1853	0.8742
1862	0.876
1871	0.873
1880	0.8671
1889	0.8678
1898	0.8743
1907	0.8771
1916	0.8763
1925	0.8693
1934	0.8686
1943	0.8799
1952	0.88
1961	0.8933
1970	0.8763
1979	0.8727
1988	0.8693
1997	0.8508
2006	0.8692
2015	0.8452
2024	0.8411
2033	0.8434
2042	0.8413
2051	0.8396
2060	0.8371
2069	0.8352
2078	0.8335
2087	0.8314
2096	0.8289
2105	0.8266
2114	0.8243
2123	0.8223
2132	0.8203
2141	0.8176
2150	0.8151
2159	0.8125
2168	0.8098
2177	0.8069
2186	0.8041
2195	0.8012
2204	0.7983
2213	0.7951
2222	0.7918
2231	0.7878
2240	0.784
2249	0.7798
2258	0.7756
2267	0.771
2276	0.7683
2285	0.7671
2294	0.7661
2303	0.7668
2312	0.7693
2321	0.7711
2330	0.7701
2339	0.7691
2348	0.7672
2357	0.7641
2366	0.7601
2375	0.7546
2384	0.7498
2393	0.7455
2402	0.7414
2411	0.7371
2420	0.7321
2429	0.7262
2438	0.7192
2447	0.7108
2456	0.7089
2465	0.7075
2474	0.7062
2483	0.705
2492	0.703
2501	0.7005
2510	0.6978
2519	0.6953
2528	0.6928
2537	0.6905
2546	0.6888
2555	0.6862
2564	0.6811
2573	0.6741
2582	0.6658
2591	0.6545
2600	0.6424
2609	0.6306
2618	0.6244
2627	0.6242
2636	0.6247
2645	0.6204
2654	0.6137
2663	0.6057
2672	0.5977
2681	0.5906
2690	0.5837
2699	0.5768
2708	0.5692
2717	0.5634
2726	0.5601
2735	0.5494
2744	0.5344
2753	0.5199
2762	0.5086
2771	0.4979
2780	0.4886
2789	0.4859
2798	0.4897
2807	0.5044
2816	0.5276
2825	0.5388
2834	0.5351
2843	0.5258
2852	0.5406
2861	0.5637
2870	0.5715
2879	0.5629
2888	0.5491
2897	0.5246
2906	0.5222
2915	0.5123
2924	0.4901
2933	0.4885
2942	0.4865
2951	0.4839
2960	0.4703
2969	0.4541
2978	0.4895
2987	0.4964
2996	0.4972
3005	0.4916
3014	0.4792
3023	0.4755
3032	0.484
3041	0.4901
3050	0.4842
3059	0.4722
3068	0.4738
3077	0.4678
3086	0.4634
3095	0.4696
3104	0.479
3113	0.4916
3122	0.5115
3131	0.5354
3140	0.5608
3149	0.5779
3158	0.596
3167	0.6098
3176	0.6154
3185	0.6162
3194	0.6148
3203	0.6123
3212	0.609
3221	0.606
3230	0.6025
3239	0.5962
3248	0.5884
3257	0.5784
3266	0.5669
3275	0.5539
3284	0.5406
3293	0.5274
3302	0.5146
3311	0.5003
3320	0.4855
3329	0.4691
3338	0.4536
3347	0.4604
3356	0.488
3365	0.5181
3374	0.5429
3383	0.5655
3392	0.5858
3401	0.6025
3410	0.619
3419	0.6348
3428	0.6461
3437	0.6512
3446	0.6578
3455	0.6675
3464	0.6783
3473	0.689
3482	0.6996
3491	0.7093
3500	0.7189
3509	0.7278
3518	0.7347
3527	0.7411
3536	0.7476
3545	0.7551
3554	0.761
3563	0.7653
3572	0.7654
3581	0.7671
3590	0.7758
3599	0.7791
3608	0.7835
3617	0.7875
3626	0.7911
3635	0.7934
3644	0.7958
3653	0.7982
3662	0.8039
3671	0.804
3680	0.8034
3689	0.8021
3698	0.8018
3707	0.8014
3716	0.8017
3725	0.8003
3734	0.8015
3743	0.8024
3752	0.7953
3761	0.7925
3770	0.7915
3779	0.7917
3788	0.7915
3797	0.7886
