Infrared Spectrum: 1-ETHYL-2,6-DIMETHYL QUINOLINIUM IODIDE
Formula: C13 H16 I N
CAS: 606-93-9
State: SOLID (MINERAL OIL MULL)
Melting point: 225-226 C
Class: COBLENTZ
Instrument: Not specified, most likely a prism, grating, or hybrid spectrometer.
Sampling: TRANSMISSION
Resolution: 4
Origin: WYANDOTTE CHEMICALS CORP., WYANDOTTE, MICHIGAN, USA
MICROMETERS	TRANSMITTANCE
2.027	0.198
2.06784	0.203
2.10868	0.2
2.14951	0.203
2.19035	0.205
2.23119	0.2
2.27203	0.208
2.31287	0.215
2.3537	0.217
2.39454	0.218
2.43538	0.223
2.47622	0.234
2.51706	0.242
2.55789	0.249
2.59873	0.256
2.63957	0.268
2.68041	0.27
2.72125	0.27
2.76208	0.27
2.80292	0.263
2.84376	0.264
2.8846	0.263
2.92544	0.256
2.96627	0.261
3.00711	0.261
3.04795	0.268
3.08879	0.264
3.12963	0.266
3.17046	0.261
3.2113	0.229
3.25214	0.167
3.29298	0.075
3.33382	0.023
3.37465	0.025
3.41549	0.027
3.45633	0.032
3.49717	0.056
3.53801	0.241
3.57885	0.299
3.61968	0.311
3.66052	0.317
3.70136	0.34
3.7422	0.353
3.78304	0.365
3.82387	0.382
3.86471	0.396
3.90555	0.41
3.94639	0.42
3.98723	0.427
4.02806	0.429
4.0689	0.427
4.10974	0.434
4.15058	0.434
4.19142	0.429
4.23225	0.411
4.27309	0.435
4.31393	0.468
4.35477	0.505
4.39561	0.502
4.43644	0.49
4.47728	0.504
4.51812	0.505
4.55896	0.519
4.5998	0.526
4.64063	0.529
4.68147	0.536
4.72231	0.54
4.76315	0.552
4.80399	0.564
4.84482	0.562
4.88566	0.564
4.9265	0.523
4.96734	0.547
5.00818	0.572
5.04901	0.584
5.08985	0.582
5.13069	0.577
5.17153	0.591
5.21237	0.601
5.2532	0.61
5.29404	0.61
5.33488	0.582
5.37572	0.623
5.41656	0.613
5.45739	0.639
5.49823	0.659
5.53907	0.601
5.57991	0.608
5.62075	0.635
5.66158	0.656
5.70242	0.632
5.74326	0.651
5.7841	0.61
5.82494	0.641
5.86577	0.668
5.90661	0.649
5.94745	0.659
5.98829	0.668
6.02913	0.658
6.06996	0.661
6.1108	0.588
6.15164	0.512
6.19248	0.17
6.23332	0.345
6.27416	0.295
6.31499	0.509
6.35583	0.505
6.39667	0.589
6.43751	0.567
6.47835	0.589
6.51918	0.377
6.56002	0.232
6.60086	0.271
6.6417	0.35
6.68254	0.391
6.72337	0.324
6.76421	0.148
6.80505	0.094
6.84589	0.105
6.88673	0.158
6.92756	0.309
6.9684	0.49
7.00924	0.529
7.05008	0.564
7.09092	0.553
7.13175	0.478
7.17259	0.348
7.21343	0.155
7.25427	0.104
7.29511	0.213
7.33594	0.128
7.37678	0.23
7.41762	0.169
7.45846	0.367
7.4993	0.454
7.54013	0.505
7.58097	0.533
7.62181	0.552
7.66265	0.574
7.70349	0.577
7.74432	0.594
7.78516	0.558
7.826	0.533
7.86684	0.598
7.90768	0.618
7.94851	0.611
7.98935	0.62
8.03019	0.651
8.07103	0.658
8.11187	0.67
8.1527	0.67
8.19354	0.492
8.23438	0.56
8.27522	0.646
8.31606	0.68
8.35689	0.704
8.39773	0.617
8.43857	0.605
8.47941	0.586
8.52025	0.441
8.56108	0.548
8.60192	0.627
8.64276	0.659
8.6836	0.671
8.72444	0.704
8.76527	0.728
8.80611	0.687
8.84695	0.555
8.88779	0.589
8.92863	0.649
8.96947	0.664
9.0103	0.666
9.05114	0.671
9.09198	0.663
9.13282	0.601
9.17366	0.441
9.21449	0.247
9.25533	0.471
9.29617	0.531
9.33701	0.516
9.37785	0.535
9.41868	0.598
9.45952	0.618
9.50036	0.623
9.5412	0.596
9.58204	0.579
9.62287	0.516
9.66371	0.524
9.70455	0.6
9.74539	0.588
9.78623	0.588
9.82706	0.625
9.8679	0.694
9.90874	0.731
9.94958	0.738
9.99042	0.76
10.0313	0.772
10.0721	0.747
10.1129	0.581
10.1538	0.61
10.1946	0.717
10.2354	0.764
10.2763	0.772
10.3171	0.755
10.358	0.723
10.3988	0.738
10.4396	0.784
10.4805	0.801
10.5213	0.815
10.5621	0.817
10.603	0.818
10.6438	0.822
10.6847	0.822
10.7255	0.811
10.7663	0.77
10.8072	0.762
10.848	0.796
10.8889	0.815
10.9297	0.817
10.9705	0.805
11.0114	0.688
11.0522	0.429
11.093	0.574
11.1339	0.731
11.1747	0.805
11.2156	0.822
11.2564	0.82
11.2972	0.82
11.3381	0.837
11.3789	0.858
11.4197	0.854
11.4606	0.858
11.5014	0.841
11.5423	0.782
11.5831	0.591
11.6239	0.41
11.6648	0.623
11.7056	0.755
11.7465	0.82
11.7873	0.847
11.8281	0.846
11.869	0.846
11.9098	0.863
11.9506	0.859
11.9915	0.832
12.0323	0.779
12.0732	0.658
12.114	0.463
12.1548	0.181
12.1957	0.179
12.2365	0.41
12.2773	0.634
12.3182	0.757
12.359	0.811
12.3999	0.847
12.4407	0.842
12.4815	0.779
12.5224	0.695
12.5632	0.716
12.604	0.813
12.6449	0.849
12.6857	0.882
12.7266	0.897
12.7674	0.907
12.8082	0.902
12.8491	0.897
12.8899	0.849
12.9308	0.806
12.9716	0.822
13.0124	0.858
13.0533	0.871
13.0941	0.863
13.1349	0.856
13.1758	0.882
13.2166	0.904
13.2575	0.9
13.2983	0.912
13.3391	0.919
13.38	0.916
13.4208	0.914
13.4616	0.909
13.5025	0.902
13.5433	0.892
13.5842	0.887
13.625	0.885
13.6658	0.883
13.7067	0.88
13.7475	0.87
13.7884	0.858
13.8292	0.844
13.87	0.835
13.9109	0.842
13.9517	0.873
13.9925	0.894
14.0334	0.894
14.0742	0.888
14.1151	0.916
14.1559	0.943
14.1967	0.955
14.2376	0.964
14.2784	0.967
14.3192	0.967
14.3601	0.97
14.4009	0.967
14.4418	0.958
14.4826	0.95
14.5234	0.945
14.5643	0.935
14.6051	0.929
14.646	0.921
14.6868	0.909
14.7276	0.897
14.7685	0.883
14.8093	0.871
14.8501	0.852
14.891	0.847
14.9318	0.839
14.9727	0.813
15.0135	0.714
15.0543	0.627
15.0952	0.593
15.136	0.623
15.1768	0.663
15.2177	0.705
15.2585	0.709
15.2994	0.692
15.3402	0.687
15.381	0.687
15.4219	0.688
15.4627	0.68
15.5035	0.666
15.5444	0.661
15.5852	0.627
15.6261	0.593
15.6669	0.579
15.7077	0.567
15.7486	0.558
15.7894	0.557
15.8303	0.543
15.8711	0.536
15.9119	0.516
15.9528	0.511
