Infrared Spectrum: Beta,Beta-DIPHENYLPROPIOPHENONE
Formula: C21 H18 O
CAS: 606-86-0
State: SOLID (0.75% KBr PELLET)
Class: COBLENTZ
Instrument: Not specified, most likely a prism, grating, or hybrid spectrometer.
Sampling: TRANSMISSION
Path length: 0.0355 CM
Resolution: 4
Origin: ANDERSON PHYSICAL LABORATORY
1/CM	TRANSMITTANCE
668.948	0.662
677.349	0.5393
685.75	0.297
694.15	0.2712
702.551	0.174
710.952	0.7407
719.353	0.897
727.753	0.863
736.154	0.6291
744.555	0.4621
752.956	0.276
761.357	0.7588
769.757	0.917
778.158	0.8551
786.559	0.8189
794.96	0.971
803.36	0.996
811.761	1
820.162	0.996
828.563	0.993
836.963	0.986
845.364	0.965
853.765	0.963
862.166	0.98
870.567	0.972
878.967	0.965
887.368	0.96
895.769	0.941
904.17	0.909
912.57	0.864
920.971	0.785
929.372	0.8458
937.773	0.909
946.174	0.9
954.574	0.848
962.975	0.773
971.376	0.815
979.777	0.713
988.177	0.569
996.578	0.728
1004.98	0.692
1013.38	0.8688
1021.78	0.843
1030.18	0.684
1038.58	0.644
1046.98	0.824
1055.38	0.812
1063.78	0.867
1072.19	0.819
1080.59	0.717
1088.99	0.675
1097.39	0.831
1105.79	0.858
1114.19	0.863
1122.59	0.878
1130.99	0.878
1139.39	0.872
1147.79	0.855
1156.19	0.81
1164.59	0.737
1172.99	0.755
1181.4	0.707
1189.8	0.644
1198.2	0.708
1206.6	0.6061
1215	0.42
1223.4	0.5629
1231.8	0.83
1240.2	0.821
1248.6	0.771
1257	0.674
1265.4	0.4751
1273.8	0.5789
1282.2	0.725
1290.61	0.761
1299.01	0.705
1307.41	0.728
1315.81	0.771
1324.21	0.72
1332.61	0.759
1341.01	0.662
1349.41	0.762
1357.81	0.842
1366.21	0.771
1374.61	0.615
1383.01	0.527
1391.41	0.74
1399.82	0.786
1408.22	0.825
1416.62	0.809
1425.02	0.716
1433.42	0.7019
1441.82	0.7611
1450.22	0.5451
1458.62	0.489
1467.02	0.914
1475.42	0.888
1483.82	0.822
1492.22	0.551
1500.62	0.4651
1509.03	0.878
1517.43	0.897
1525.83	0.887
1534.23	0.867
1542.63	0.86
1551.03	0.851
1559.43	0.813
1567.83	0.795
1576.23	0.695
1584.63	0.627
1593.03	0.5999
1601.43	0.5399
1609.83	0.765
1618.24	0.794
1626.64	0.777
1635.04	0.734
1643.44	0.696
1651.84	0.644
1660.24	0.584
1668.64	0.3659
1677.04	0.151
1685.44	0.3848
1693.84	0.7639
1702.24	0.96
1710.64	0.984
1719.04	0.986
1727.45	0.968
1735.85	0.95
1744.25	0.938
1752.65	0.933
1761.05	0.918
1769.45	0.911
1777.85	0.92
1786.25	0.918
1794.65	0.902
1803.05	0.893
1811.45	0.896
1819.85	0.897
1828.25	0.902
1836.66	0.903
1845.06	0.9
1853.46	0.893
1861.86	0.884
1870.26	0.879
1878.66	0.872
1887.06	0.857
1895.46	0.855
1903.86	0.869
1912.26	0.875
1920.66	0.875
1929.06	0.872
1937.46	0.866
1945.87	0.854
1954.27	0.848
1962.67	0.83
1971.07	0.845
1979.47	0.86
1987.87	0.858
1996.27	0.87
2004.67	0.8745
2013.07	0.873
2021.47	0.872
2029.87	0.869
2038.27	0.8638
2046.68	0.863
2055.08	0.8616
2063.48	0.861
2071.88	0.86
2080.28	0.858
2088.68	0.857
2097.08	0.855
2105.48	0.8518
2113.88	0.851
2122.28	0.849
2130.68	0.849
2139.08	0.8444
2147.48	0.8381
2155.89	0.8363
2164.29	0.834
2172.69	0.833
2181.09	0.833
2189.49	0.8303
2197.89	0.828
2206.29	0.827
2214.69	0.8262
2223.09	0.8243
2231.49	0.822
2239.89	0.818
2248.29	0.8156
2256.69	0.812
2265.1	0.81
2273.5	0.807
2281.9	0.8018
2290.3	0.795
2298.7	0.791
2307.1	0.7877
2315.5	0.786
2323.9	0.786
2332.3	0.788
2340.7	0.789
2349.1	0.7914
2357.5	0.792
2365.9	0.794
2374.31	0.794
2382.71	0.7933
2391.11	0.792
2399.51	0.7884
2407.91	0.7859
2416.31	0.7826
2424.71	0.7808
2433.11	0.78
2441.51	0.78
2449.91	0.779
2458.31	0.779
2466.71	0.779
2475.11	0.7769
2483.52	0.7753
2491.92	0.773
2500.32	0.7713
2508.72	0.7709
2517.12	0.7694
2525.52	0.7663
2533.92	0.7624
2542.32	0.761
2550.72	0.761
2559.12	0.761
2567.52	0.7594
2575.92	0.759
2584.32	0.7574
2592.73	0.7525
2601.13	0.75
2609.53	0.749
2617.93	0.747
2626.33	0.747
2634.73	0.747
2643.13	0.747
2651.53	0.7467
2659.93	0.745
2668.33	0.7407
2676.73	0.74
2685.13	0.74
2693.53	0.74
2701.94	0.737
2710.34	0.734
2718.74	0.7317
2727.14	0.7255
2735.54	0.7235
2743.94	0.72
2752.34	0.7185
2760.74	0.715
2769.14	0.7133
2777.54	0.7081
2785.94	0.699
2794.34	0.697
2802.74	0.6935
2811.15	0.6861
2819.55	0.6774
2827.95	0.6715
2836.35	0.6666
2844.75	0.6631
2853.15	0.6568
2861.55	0.654
2869.95	0.653
2878.35	0.6501
2886.75	0.6496
2895.15	0.6476
2903.55	0.6443
2911.95	0.6392
2920.36	0.6376
2928.76	0.6341
2937.16	0.6323
2945.56	0.6271
2953.96	0.62
2962.36	0.6067
2970.76	0.5933
2979.16	0.5651
2987.56	0.5515
2995.96	0.5539
3004.36	0.5727
3012.76	0.573
3021.16	0.5722
3029.57	0.5742
3037.97	0.5866
3046.37	0.6129
3054.77	0.6376
3063.17	0.6629
3071.57	0.6746
3079.97	0.677
3088.37	0.6767
3096.77	0.6732
3105.17	0.6691
3113.57	0.668
3121.97	0.666
3130.37	0.6649
3138.78	0.6594
3147.18	0.6573
3155.58	0.6539
3163.98	0.6499
3172.38	0.6444
3180.78	0.6415
3189.18	0.6357
3197.58	0.6283
3205.98	0.6248
3214.38	0.623
3222.78	0.6228
3231.18	0.6193
3239.59	0.617
3247.99	0.6142
3256.39	0.6119
3264.79	0.6064
3273.19	0.6003
3281.59	0.5921
3289.99	0.587
3298.39	0.5847
3306.79	0.584
3315.19	0.582
3323.59	0.5807
3331.99	0.5697
3340.39	0.5654
3348.8	0.5614
3357.2	0.558
3365.6	0.555
3374	0.555
3382.4	0.554
3390.8	0.555
3399.2	0.555
3407.6	0.5575
3416	0.5595
3424.4	0.564
3432.8	0.5663
3441.2	0.5685
3449.6	0.5715
3458.01	0.572
3466.41	0.5735
3474.81	0.5755
3483.21	0.578
3491.61	0.582
3500.01	0.5878
3508.41	0.592
3516.81	0.5955
3525.21	0.599
3533.61	0.6044
3542.01	0.611
3550.41	0.612
3558.81	0.612
3567.22	0.612
3575.62	0.6154
3584.02	0.617
3592.42	0.617
3600.82	0.618
3609.22	0.618
3617.62	0.618
3626.02	0.618
3634.42	0.6178
3642.82	0.617
3651.22	0.6143
3659.62	0.6121
3668.02	0.6106
3676.43	0.6086
3684.83	0.606
3693.23	0.606
3701.63	0.606
3710.03	0.606
3718.43	0.606
3726.83	0.606
3735.23	0.606
3743.63	0.6056
3752.03	0.605
3760.43	0.605
3768.83	0.603
3777.23	0.602
3785.64	0.6007
3794.04	0.6
3802.44	0.6
3810.84	0.6
3819.24	0.6
3827.64	0.5991
3836.04	0.5987
3844.44	0.597
3852.84	0.597
3861.24	0.597
3869.64	0.5969
3878.04	0.596
3886.44	0.594
3894.85	0.594
3903.25	0.5939
3911.65	0.5923
3920.05	0.5904
3928.45	0.5883
3936.85	0.5868
3945.25	0.5846
3953.65	0.5828
3962.05	0.582
3970.45	0.581
3978.85	0.581
