Infrared Spectrum: 3-Indanedione
Formula: C 9 H 6 O 2
CAS: 606-23-5
State: gas
Instrument: HP-GC/MS/IRD
Origin: NIST Mass Spectrometry Data Center
1/CM	ABSORBANCE
550	0.0009435
562	0.0004335
574	0.0012189
586	0.0023511
598	0.0013719
610	0.0008058
622	0.0008007
634	0.0005916
646	0.0003621
658	0.0002193
670	6.12e-05
682	0
694	0.0001122
706	0.0001836
718	0.0007905
730	0.0011067
742	0.0024837
754	0.0063393
766	0.006579
778	0.0021726
790	0.0003162
802	8.67e-05
814	8.16e-05
826	0.0001275
838	0.0001428
850	0.0001428
862	0.0001632
874	0.0002244
886	0.0001632
898	0.000153
910	0.0003009
922	0.0006273
934	0.0004488
946	0.0003723
958	0.0005202
970	0.0006324
982	0.0005763
994	0.0005967
1006	0.0008007
1018	0.0005559
1030	0.0002754
1042	0.0003162
1054	0.0004743
1066	0.0006885
1078	0.001428
1090	0.0014076
1102	0.0004488
1114	0.0003009
1126	0.0004845
1138	0.00051
1150	0.0011169
1162	0.0017646
1174	0.0012648
1186	0.001275
1198	0.0016779
1210	0.0023154
1222	0.0043554
1234	0.0132192
1246	0.0250155
1258	0.0148818
1270	0.0030957
1282	0.0023613
1294	0.0029172
1306	0.0024837
1318	0.0025704
1330	0.0041361
1342	0.0036822
1354	0.0019482
1366	0.0014739
1378	0.0015249
1390	0.0010812
1402	0.0005355
1414	0.0005661
1426	0.0004743
1438	0.0003468
1450	0.0002703
1462	0.0002754
1474	0.0002805
1486	0.0002805
1498	0.0002907
1510	0.0003825
1522	0.0003723
1534	0.0003111
1546	0.0003519
1558	0.0005661
1570	0.0008823
1582	0.0015555
1594	0.0031773
1606	0.0025398
1618	0.0010353
1630	0.0007293
1642	0.0007293
1654	0.0006477
1666	0.0007956
1678	0.0009996
1690	0.0017238
1702	0.003825
1714	0.0118677
1726	0.0417741
1738	0.0503778
1750	0.0219504
1762	0.0166209
1774	0.0087363
1786	0.0025908
1798	0.0015147
1810	0.0009792
1822	0.0007395
1834	0.0007854
1846	0.0009486
1858	0.0009741
1870	0.0007089
1882	0.0004692
1894	0.0003162
1906	0.000255
1918	0.0002652
1930	0.0002907
1942	0.0003621
1954	0.0004641
1966	0.00051
1978	0.0004284
1990	0.0002805
2002	0.0001428
2014	0.0001428
2026	0.000153
2038	0.0001938
2050	0.0001887
2062	0.000204
2074	0.0001479
2086	0.000102
2098	0.0001173
2110	0.0001275
2122	0.0001122
2134	0.0001122
2146	0.000102
2158	9.69e-05
2170	0.0001122
2182	0.0001071
2194	0.0001326
2206	0.0001377
2218	0.0001683
2230	0.000153
2242	0.0001683
2254	0.0001836
2266	0.0001836
2278	0.0001632
2290	0.0001938
2302	0.0001377
2314	0.0001326
2326	0.0001224
2338	8.67e-05
2350	7.65e-05
2362	4.08e-05
2374	6.63e-05
2386	7.14e-05
2398	5.61e-05
2410	8.67e-05
2422	9.18e-05
2434	5.61e-05
2446	6.63e-05
2458	7.65e-05
2470	6.12e-05
2482	5.1e-05
2494	4.59e-05
2506	4.59e-05
2518	3.57e-05
2530	6.63e-05
2542	5.61e-05
2554	3.06e-05
2566	3.06e-05
2578	5.1e-05
2590	3.06e-05
2602	5.61e-05
2614	7.14e-05
2626	0.0001122
2638	0.0001275
2650	9.69e-05
2662	9.69e-05
2674	0.0001224
2686	0.0001224
2698	3.57e-05
2710	0
2722	5.61e-05
2734	3.57e-05
2746	3.57e-05
2758	3.57e-05
2770	6.12e-05
2782	5.61e-05
2794	1.02e-05
2806	1.02e-05
2818	3.57e-05
2830	2.04e-05
2842	3.57e-05
2854	6.12e-05
2866	4.08e-05
2878	0.0001122
2890	0.0001224
2902	7.65e-05
2914	0.0001173
2926	0.0001173
2938	6.63e-05
2950	3.57e-05
2962	3.57e-05
2974	2.04e-05
2986	5.1e-05
2998	1.53e-05
3010	7.65e-05
3022	0.0002448
3034	0.0004437
3046	0.000561
3058	0.0006579
3070	0.0016218
3082	0.0023358
3094	0.001173
3106	0.0002703
3118	4.59e-05
3130	3.57e-05
3142	5.61e-05
3154	7.14e-05
3166	0.0001326
3178	0.0001173
3190	0.0001071
3202	9.69e-05
3214	7.65e-05
3226	3.06e-05
3238	1.53e-05
3250	6.63e-05
3262	2.55e-05
3274	4.59e-05
3286	6.12e-05
3298	1.53e-05
3310	4.08e-05
3322	6.12e-05
3334	5.1e-05
3346	7.65e-05
3358	7.65e-05
3370	8.67e-05
3382	9.18e-05
3394	6.63e-05
3406	7.65e-05
3418	9.69e-05
3430	0.0001581
3442	0.0002805
3454	0.0004743
3466	0.0008262
3478	0.0011067
3490	0.0007395
3502	0.0002754
3514	0.0002091
3526	0.0001377
3538	0.000153
3550	6.63e-05
3562	0.0001071
3574	6.12e-05
3586	6.63e-05
3598	7.14e-05
3610	9.18e-05
3622	5.61e-05
3634	6.63e-05
3646	5.1e-05
3658	2.04e-05
3670	6.12e-05
3682	8.67e-05
3694	4.59e-05
3706	2.04e-05
3718	2.04e-05
3730	5.1e-06
3742	0
3754	3.06e-05
3766	7.14e-05
3778	2.55e-05
3790	5.1e-05
3802	4.59e-05
3814	8.16e-05
3826	4.08e-05
3838	4.59e-05
