Infrared Spectrum: O-BENZOYL BENZOIC ACID, METHYL ESTER
Formula: C15 H12 O3
CAS: 606-28-0
State: SOLID (MINERAL OIL MULL)
Melting point: 50-52 C
Class: COBLENTZ
Instrument: Not specified, most likely a prism, grating, or hybrid spectrometer.
Sampling: TRANSMISSION
Resolution: 4
Origin: WYANDOTTE CHEMICALS CORP., WYANDOTTE, MICHIGAN, USA
MICROMETERS	TRANSMITTANCE
2.02	0.446
2.05977	0.451
2.09954	0.46
2.13931	0.463
2.17909	0.466
2.21886	0.47
2.25863	0.476
2.2984	0.483
2.33817	0.49
2.37794	0.501
2.41771	0.506
2.45748	0.511
2.49726	0.523
2.53703	0.546
2.5768	0.528
2.61657	0.561
2.65634	0.554
2.69611	0.556
2.73588	0.563
2.77566	0.563
2.81543	0.563
2.8552	0.558
2.89497	0.548
2.93474	0.548
2.97451	0.553
3.01428	0.556
3.05406	0.569
3.09383	0.564
3.1336	0.551
3.17337	0.544
3.21314	0.514
3.25291	0.48
3.29268	0.392
3.33245	0.091
3.37223	0.059
3.412	0.132
3.45177	0.161
3.49154	0.313
3.53131	0.667
3.57108	0.71
3.61085	0.715
3.65063	0.707
3.6904	0.719
3.73017	0.719
3.76994	0.724
3.80971	0.732
3.84948	0.739
3.88925	0.745
3.92902	0.752
3.9688	0.765
4.00857	0.775
4.04834	0.777
4.08811	0.779
4.12788	0.78
4.16765	0.782
4.20742	0.782
4.2472	0.747
4.28697	0.769
4.32674	0.8
4.36651	0.835
4.40628	0.833
4.44605	0.832
4.48582	0.835
4.52559	0.838
4.56537	0.843
4.60514	0.85
4.64491	0.857
4.68468	0.862
4.72445	0.868
4.76422	0.868
4.80399	0.87
4.84377	0.88
4.88354	0.887
4.92331	0.89
4.96308	0.892
5.00285	0.89
5.04262	0.858
5.08239	0.872
5.12217	0.87
5.16194	0.895
5.20171	0.89
5.24148	0.887
5.28125	0.915
5.32102	0.923
5.36079	0.91
5.40056	0.906
5.44034	0.916
5.48011	0.915
5.51988	0.933
5.55965	0.898
5.59942	0.901
5.63919	0.893
5.67896	0.897
5.71874	0.76
5.75851	0.149
5.79828	0.126
5.83805	0.425
5.87782	0.529
5.91759	0.416
5.95736	0.106
5.99713	0.405
6.03691	0.614
6.07668	0.662
6.11645	0.73
6.15622	0.742
6.19599	0.468
6.23576	0.546
6.27553	0.428
6.31531	0.647
6.35508	0.697
6.39485	0.779
6.43462	0.757
6.47439	0.79
6.51416	0.803
6.55393	0.83
6.5937	0.835
6.63348	0.83
6.67325	0.752
6.71302	0.71
6.75279	0.561
6.79256	0.385
6.83233	0.252
6.8721	0.325
6.91188	0.411
6.95165	0.357
6.99142	0.722
7.03119	0.795
7.07096	0.813
7.11073	0.843
7.1505	0.855
7.19028	0.752
7.23005	0.598
7.26982	0.734
7.30959	0.757
7.34936	0.825
7.38913	0.805
7.4289	0.764
7.46867	0.742
7.50845	0.656
7.54822	0.456
7.58799	0.197
7.62776	0.147
7.66753	0.079
7.7073	0.063
7.74707	0.053
7.78685	0.048
7.82662	0.081
7.86639	0.184
7.90616	0.171
7.94593	0.23
7.9857	0.259
8.02547	0.265
8.06524	0.471
8.10502	0.579
8.14479	0.624
8.18456	0.677
8.22433	0.704
8.2641	0.71
8.30387	0.647
8.34364	0.579
8.38342	0.559
8.42319	0.627
8.46296	0.697
8.50273	0.752
8.5425	0.626
8.58227	0.588
8.62204	0.662
8.66181	0.516
8.70159	0.531
8.74136	0.491
8.78113	0.471
8.8209	0.297
8.86067	0.392
8.90044	0.666
8.94021	0.76
8.97999	0.787
9.01976	0.79
9.05953	0.782
9.0993	0.7
9.13907	0.423
9.17884	0.382
9.21861	0.621
9.25839	0.614
9.29816	0.647
9.33793	0.742
9.3777	0.802
9.41747	0.825
9.45724	0.842
9.49701	0.85
9.53678	0.84
9.57656	0.777
9.61633	0.76
9.6561	0.823
9.69587	0.847
9.73564	0.803
9.77541	0.837
9.81518	0.88
9.85496	0.892
9.89473	0.898
9.9345	0.873
9.97427	0.729
10.014	0.88
10.0538	0.9
10.0936	0.89
10.1334	0.84
10.1731	0.882
10.2129	0.895
10.2527	0.882
10.2924	0.802
10.3322	0.752
10.372	0.526
10.4118	0.476
10.4515	0.687
10.4913	0.79
10.5311	0.835
10.5708	0.85
10.6106	0.75
10.6504	0.506
10.6902	0.667
10.7299	0.451
10.7697	0.24
10.8095	0.455
10.8492	0.707
10.889	0.779
10.9288	0.82
10.9686	0.855
11.0083	0.87
11.0481	0.88
11.0879	0.892
11.1276	0.887
11.1674	0.827
11.2072	0.745
11.247	0.676
11.2867	0.727
11.3265	0.83
11.3663	0.868
11.406	0.898
11.4458	0.906
11.4856	0.913
11.5254	0.92
11.5651	0.925
11.6049	0.923
11.6447	0.921
11.6844	0.93
11.7242	0.933
11.764	0.935
11.8038	0.931
11.8435	0.936
11.8833	0.938
11.9231	0.933
11.9628	0.921
12.0026	0.855
12.0424	0.777
12.0822	0.667
12.1219	0.752
12.1617	0.863
12.2015	0.908
12.2412	0.923
12.281	0.923
12.3208	0.928
12.3606	0.911
12.4003	0.833
12.4401	0.71
12.4799	0.656
12.5196	0.699
12.5594	0.775
12.5992	0.867
12.6389	0.908
12.6787	0.928
12.7185	0.93
12.7583	0.918
12.798	0.887
12.8378	0.802
12.8776	0.539
12.9173	0.26
12.9571	0.189
12.9969	0.32
13.0367	0.576
13.0764	0.697
13.1162	0.772
13.156	0.818
13.1957	0.842
13.2355	0.85
13.2753	0.855
13.3151	0.858
13.3548	0.86
13.3946	0.857
13.4344	0.845
13.4741	0.832
13.5139	0.813
13.5537	0.789
13.5935	0.75
13.6332	0.686
13.673	0.566
13.7128	0.421
13.7525	0.29
13.7923	0.254
13.8321	0.214
13.8719	0.205
13.9116	0.227
13.9514	0.184
13.9912	0.177
14.0309	0.255
14.0707	0.355
14.1105	0.385
14.1503	0.348
14.19	0.338
14.2298	0.358
14.2696	0.367
14.3093	0.405
14.3491	0.539
14.3889	0.636
14.4287	0.702
14.4684	0.722
14.5082	0.71
14.548	0.689
14.5877	0.702
14.6275	0.75
14.6673	0.789
14.7071	0.802
14.7468	0.813
14.7866	0.813
14.8264	0.812
14.8661	0.8
14.9059	0.774
14.9457	0.707
14.9855	0.637
15.0252	0.578
15.065	0.574
15.1048	0.637
15.1445	0.684
15.1843	0.72
15.2241	0.734
15.2639	0.739
15.3036	0.727
15.3434	0.727
15.3832	0.719
15.4229	0.715
15.4627	0.699
15.5025	0.687
15.5423	0.674
15.582	0.664
15.6218	0.649
15.6616	0.604
15.7013	0.548
15.7411	0.501
15.7809	0.493
15.8207	0.523
15.8604	0.549
15.9002	0.566
15.94	0.573
15.9797	0.573
