Infrared Spectrum: 2,4-DIMETHYL-6-NITRO ACETANILIDE
Formula: C10 H12 N2 O3
CAS: 606-38-2
State: SOLID (MINERAL OIL MULL)
Melting point: 172-173 C
Class: COBLENTZ
Instrument: Not specified, most likely a prism, grating, or hybrid spectrometer.
Sampling: TRANSMISSION
Resolution: 4
Origin: WYANDOTTE CHEMICALS CORP., WYANDOTTE, MICHIGAN, USA
MICROMETERS	TRANSMITTANCE
2.033	0.465
2.07287	0.476
2.11274	0.486
2.15261	0.488
2.19247	0.49
2.23234	0.488
2.27221	0.491
2.31208	0.496
2.35195	0.506
2.39182	0.514
2.43169	0.528
2.47155	0.541
2.51142	0.552
2.55129	0.564
2.59116	0.584
2.63103	0.587
2.6709	0.6
2.71077	0.594
2.75063	0.576
2.7905	0.554
2.83037	0.524
2.87024	0.493
2.91011	0.445
2.94998	0.384
2.98985	0.276
3.02972	0.135
3.06958	0.082
3.10945	0.072
3.14932	0.076
3.18919	0.097
3.22906	0.102
3.26893	0.107
3.3088	0.12
3.34866	0.029
3.38853	0.028
3.4284	0.028
3.46827	0.031
3.50814	0.038
3.54801	0.192
3.58788	0.354
3.62774	0.445
3.66761	0.453
3.70748	0.483
3.74735	0.513
3.78722	0.548
3.82709	0.564
3.86696	0.577
3.90682	0.592
3.94669	0.612
3.98656	0.639
4.02643	0.65
4.0663	0.663
4.10617	0.672
4.14604	0.675
4.1859	0.682
4.22577	0.69
4.26564	0.67
4.30551	0.675
4.34538	0.695
4.38525	0.718
4.42512	0.731
4.46498	0.731
4.50485	0.74
4.54472	0.746
4.58459	0.746
4.62446	0.751
4.66433	0.759
4.7042	0.773
4.74406	0.779
4.78393	0.784
4.8238	0.798
4.86367	0.796
4.90354	0.799
4.94341	0.802
4.98328	0.806
5.02315	0.807
5.06301	0.817
5.10288	0.826
5.14275	0.826
5.18262	0.822
5.22249	0.831
5.26236	0.826
5.30223	0.811
5.34209	0.809
5.38196	0.837
5.42183	0.85
5.4617	0.837
5.50157	0.841
5.54144	0.814
5.58131	0.827
5.62117	0.819
5.66104	0.834
5.70091	0.849
5.74078	0.849
5.78065	0.852
5.82052	0.846
5.86039	0.814
5.90025	0.789
5.94012	0.784
5.97999	0.778
6.01986	0.713
6.05973	0.253
6.0996	0.456
6.13947	0.64
6.17933	0.73
6.2192	0.771
6.25907	0.802
6.29894	0.821
6.33881	0.827
6.37868	0.822
6.41855	0.834
6.45841	0.814
6.49828	0.811
6.53815	0.793
6.57802	0.786
6.61789	0.761
6.65776	0.725
6.69763	0.653
6.73749	0.458
6.77736	0.25
6.81723	0.071
6.8571	0.069
6.89697	0.059
6.93684	0.081
6.97671	0.132
7.01658	0.337
7.05644	0.46
7.09631	0.521
7.13618	0.531
7.17605	0.415
7.21592	0.25
7.25579	0.115
7.29566	0.125
7.33552	0.312
7.37539	0.427
7.41526	0.476
7.45513	0.508
7.495	0.529
7.53487	0.559
7.57474	0.557
7.6146	0.599
7.65447	0.612
7.69434	0.592
7.73421	0.596
7.77408	0.629
7.81395	0.655
7.85382	0.634
7.89368	0.652
7.93355	0.635
7.97342	0.668
8.01329	0.695
8.05316	0.725
8.09303	0.743
8.1329	0.756
8.17276	0.758
8.21263	0.741
8.2525	0.721
8.29237	0.617
8.33224	0.754
8.37211	0.798
8.41198	0.812
8.45184	0.826
8.49171	0.829
8.53158	0.822
8.57145	0.819
8.61132	0.831
8.65119	0.816
8.69106	0.798
8.73093	0.849
8.77079	0.88
8.81066	0.885
8.85053	0.85
8.8904	0.649
8.93027	0.619
8.97014	0.793
9.01001	0.859
9.04987	0.885
9.08974	0.903
9.12961	0.908
9.16948	0.912
9.20935	0.917
9.24922	0.912
9.28909	0.91
9.32895	0.908
9.36882	0.902
9.40869	0.874
9.44856	0.89
9.48843	0.894
9.5283	0.793
9.56817	0.531
9.60803	0.682
9.6479	0.776
9.68777	0.764
9.72764	0.693
9.76751	0.768
9.80738	0.72
9.84725	0.736
9.88711	0.569
9.92698	0.74
9.96685	0.778
10.0067	0.738
10.0466	0.678
10.0865	0.743
10.1263	0.73
10.1662	0.65
10.2061	0.624
10.2459	0.591
10.2858	0.39
10.3257	0.13
10.3655	0.104
10.4054	0.24
10.4453	0.21
10.4851	0.074
10.525	0.036
10.5649	0.034
10.6047	0.046
10.6446	0.099
10.6845	0.195
10.7244	0.276
10.7642	0.354
10.8041	0.438
10.844	0.498
10.8838	0.533
10.9237	0.556
10.9636	0.504
11.0034	0.306
11.0433	0.205
11.0832	0.384
11.123	0.399
11.1629	0.211
11.2028	0.064
11.2426	0.071
11.2825	0.107
11.3224	0.205
11.3623	0.355
11.4021	0.531
11.442	0.594
11.4819	0.582
11.5217	0.374
11.5616	0.225
11.6015	0.319
11.6413	0.461
11.6812	0.549
11.7211	0.533
11.7609	0.428
11.8008	0.473
11.8407	0.552
11.8805	0.609
11.9204	0.647
11.9603	0.672
12.0002	0.69
12.04	0.7
12.0799	0.711
12.1198	0.721
12.1596	0.725
12.1995	0.731
12.2394	0.731
12.2792	0.72
12.3191	0.687
12.359	0.612
12.3988	0.506
12.4387	0.399
12.4786	0.367
12.5184	0.488
12.5583	0.566
12.5982	0.609
12.638	0.637
12.6779	0.65
12.7178	0.658
12.7577	0.649
12.7975	0.635
12.8374	0.617
12.8773	0.569
12.9171	0.485
12.957	0.382
12.9969	0.327
13.0367	0.359
13.0766	0.379
13.1165	0.397
13.1563	0.397
13.1962	0.389
13.2361	0.362
13.2759	0.332
13.3158	0.299
13.3557	0.271
13.3956	0.246
13.4354	0.221
13.4753	0.206
13.5152	0.195
13.555	0.187
13.5949	0.183
13.6348	0.185
13.6746	0.192
13.7145	0.201
13.7544	0.211
13.7942	0.228
13.8341	0.241
13.874	0.259
13.9138	0.281
13.9537	0.307
13.9936	0.331
14.0334	0.365
14.0733	0.392
14.1132	0.412
14.1531	0.438
14.1929	0.448
14.2328	0.466
14.2727	0.485
14.3125	0.501
14.3524	0.523
14.3923	0.539
14.4321	0.549
14.472	0.566
14.5119	0.577
14.5517	0.589
14.5916	0.599
14.6315	0.609
14.6713	0.615
14.7112	0.624
14.7511	0.63
14.791	0.634
14.8308	0.642
14.8707	0.649
14.9106	0.65
14.9504	0.653
14.9903	0.653
15.0302	0.647
15.07	0.627
15.1099	0.615
15.1498	0.637
15.1896	0.642
15.2295	0.632
15.2694	0.596
15.3092	0.546
15.3491	0.513
15.389	0.511
15.4289	0.528
15.4687	0.544
15.5086	0.548
15.5485	0.549
15.5883	0.552
15.6282	0.567
15.6681	0.574
15.7079	0.582
15.7478	0.581
15.7877	0.574
15.8275	0.571
15.8674	0.566
15.9073	0.559
15.9471	0.548
15.987	0.539
