Infrared Spectrum: 2-Fluoro-6-(trifluoromethyl)benzaldehyde
Formula: C 8 H 4 F 4 O
CAS: 60611-24-7
State: gas
Origin: EPA-IR VAPOR PHASE LIBRARY
1/CM	ABSORBANCE
549.8	0.00245
559.445	0.0014329
569.09	0.0010594
578.734	0.00209
588.379	0.0015789
598.024	0.0015443
607.669	0.0012847
617.313	0.0014118
626.958	0.0018454
636.603	0.00108943
646.248	0.00271
655.893	0.00354
665.537	0.00373
675.182	0.00348
684.827	0.00297
694.472	0.00308
704.116	0.00435
713.761	0.00622
723.406	0.00933
733.051	0.01184
742.695	0.01121
752.34	0.00669
761.985	0.00426
771.63	0.00323
781.275	0.00583
790.919	0.01282
800.564	0.0224
810.209	0.01678
819.854	0.01068
829.498	0.00821
839.143	0.00594
848.788	0.00433
858.433	0.00304
868.078	0.00271
877.722	0.00377
887.367	0.00486
897.012	0.00866
906.657	0.01444
916.301	0.01594
925.946	0.01098
935.591	0.00676
945.236	0.00609
954.88	0.00615
964.525	0.00651
974.17	0.00617
983.815	0.00503
993.46	0.00395
1003.1	0.00401
1012.75	0.00336
1022.39	0.00299
1032.04	0.0019788
1041.68	0.00216
1051.33	0.00244
1060.97	0.00398
1070.62	0.00519
1080.26	0.00344
1089.91	0.00262
1099.55	0.00472
1109.2	0.00943
1118.84	0.02163
1128.49	0.04455
1138.13	0.06345
1147.78	0.088
1157.42	0.10593
1167.07	0.10849
1176.71	0.08877
1186.36	0.05524
1196	0.03707
1205.64	0.01817
1215.29	0.0086
1224.93	0.00878
1234.58	0.00931
1244.22	0.01856
1253.87	0.03347
1263.51	0.02635
1273.16	0.01207
1282.8	0.01196
1292.45	0.0181
1302.09	0.0375
1311.74	0.09652
1321.38	0.13628
1331.03	0.0686
1340.67	0.01708
1350.32	0.00744
1359.96	0.00506
1369.61	0.00431
1379.25	0.00436
1388.9	0.00553
1398.54	0.00702
1408.18	0.00706
1417.83	0.00586
1427.47	0.00588
1437.12	0.01005
1446.76	0.0215
1456.41	0.02797
1466.05	0.01898
1475.7	0.01302
1485.34	0.00762
1494.99	0.00398
1504.63	0.00298
1514.28	0.00223
1523.92	0.00238
1533.57	0.00229
1543.21	0.00223
1552.86	0.00248
1562.5	0.00318
1572.15	0.00534
1581.79	0.00769
1591.44	0.00825
1601.08	0.01027
1610.73	0.01221
1620.37	0.00774
1630.01	0.00398
1639.66	0.00329
1649.3	0.00302
1658.95	0.00311
1668.59	0.00352
1678.24	0.00388
1687.88	0.0054
1697.53	0.00835
1707.17	0.01347
1716.82	0.03004
1726.46	0.05764
1736.11	0.05286
1745.75	0.02118
1755.4	0.00919
1765.04	0.00569
1774.69	0.00392
1784.33	0.00288
1793.98	0.00238
1803.62	0.00213
1813.27	0.001817
1822.91	0.0015366
1832.55	0.0012511
1842.2	0.0013335
1851.84	0.0012937
1861.49	0.0014268
1871.13	0.0019146
1880.78	0.0020235
1890.42	0.0013538
1900.07	0.0010305
1909.71	0.0009742
1919.36	0.00109708
1929	0.00097
1938.65	0.0014316
1948.29	0.0017239
1957.94	0.0011797
1967.58	0.00085
1977.23	0.000775
1986.87	0.000919
1996.52	0.000938
2006.16	0.00091
2015.81	0.000931
2025.45	0.000833
2035.1	0.001024
2044.74	0.000908
2054.38	0.0010273
2064.03	0.00109605
2073.67	0.00107768
2083.32	0.000878
2092.96	0.0010301
2102.61	0.0010134
2112.25	0.0012356
2121.9	0.000845
2131.54	0.000956
2141.19	0.0009869
2150.83	0.0009885
2160.48	0.000899
2170.12	0.000834
2179.77	0.000843
2189.41	0.000776
2199.06	0.000748
2208.7	0.000822
2218.35	0.0010024
2227.99	0.00109953
2237.64	0.000935
2247.28	0.000885
2256.92	0.000954
2266.57	0.000973
2276.21	0.0013193
2285.86	0.000841
2295.5	0.001235
2305.15	0.00112211
2314.79	0.0010275
2324.44	0.00112251
2334.08	0.00110101
2343.73	0.0012398
2353.37	0.0012206
2363.02	0.0009917
2372.66	0.00108514
2382.31	0.0010543
2391.95	0.001049
2401.6	0.00093
2411.24	0.000828
2420.89	0.000825
2430.53	0.000898
2440.18	0.000675
2449.82	0.000956
2459.47	0.000866
2469.11	0.000917
2478.75	0.000882
2488.4	0.0009809
2498.04	0.00092
2507.69	0.000949
2517.33	0.00079
2526.98	0.000721
2536.62	0.000924
2546.27	0.000619
2555.91	0.000813
2565.56	0.00096
2575.2	0.00084
2584.85	0.000956
2594.49	0.000906
2604.14	0.00095
2613.78	0.0012517
2623.43	0.00112245
2633.07	0.0009
2642.72	0.000947
2652.36	0.0011201
2662.01	0.000754
2671.65	0.000966
2681.29	0.000851
2690.94	0.0012947
2700.58	0.0011853
2710.23	0.0015032
2719.87	0.0018425
2729.52	0.0019707
2739.16	0.00225
2748.81	0.00259
2758.45	0.00279
2768.1	0.00339
2777.74	0.00322
2787.39	0.00278
2797.03	0.0026
2806.68	0.0019986
2816.32	0.00254
2825.97	0.00331
2835.61	0.00405
2845.26	0.00509
2854.9	0.00601
2864.55	0.00655
2874.19	0.00679
2883.84	0.00558
2893.48	0.00451
2903.12	0.00375
2912.77	0.00289
2922.41	0.0022
2932.06	0.0019124
2941.7	0.001652
2951.35	0.0015565
2960.99	0.0016934
2970.64	0.00108681
2980.28	0.000798
2989.93	0.000887
2999.57	0.0013374
3009.22	0.00094
3018.86	0.00111255
3028.51	0.000943
3038.15	0.0012229
3047.8	0.0012806
3057.44	0.0010517
3067.09	0.0013395
3076.73	0.0019256
3086.38	0.0020619
3096.02	0.0020182
3105.67	0.0014214
3115.31	0.0011115
3124.95	0.0013331
3134.6	0.00065
3144.24	0.00086
3153.89	0.00083
3163.53	0.00108698
3173.18	0.000702
3182.82	0.000594
3192.47	0.000687
3202.11	0.000961
3211.76	0.000892
3221.4	0.000612
3231.05	0.000869
3240.69	0.000681
3250.34	0.0012505
3259.98	0.000917
3269.63	0.000639
3279.27	0.000803
3288.92	0.00092
3298.56	0.000993
3308.21	0.000752
3317.85	0.0011423
3327.49	0.000819
3337.14	0.000828
3346.78	0.000859
3356.43	0.0010186
3366.07	0.001332
3375.72	0.000717
3385.36	0.0009919
3395.01	0.000649
3404.65	0.000863
3414.3	0.000837
3423.94	0.0015667
3433.59	0.0018857
3443.23	0.0015545
3452.88	0.001608
3462.52	0.0014248
3472.17	0.000494
3481.81	0.00106974
3491.46	0.000433
3501.1	0.0011772
3510.75	0.00110719
3520.39	0.000554
3530.04	0.000773
3539.68	0.00084
3549.32	0.000577
3558.97	0.000671
3568.61	0.0010002
3578.26	0.000849
3587.9	0.0010564
3597.55	0.000598
3607.19	0.00046
3616.84	0.000456
3626.48	0.000751
3636.13	0.0010044
3645.77	0.00072
3655.42	0.000463
3665.06	0.0014012
3674.71	0.0012917
3684.35	0.000607
3694	0.000514
3703.64	0.000712
3713.29	0.000681
3722.93	0.000775
3732.58	0.00110454
3742.22	0.000616
3751.86	0.000897
3761.51	0.000614
3771.15	0.000827
3780.8	0.000546
3790.44	0.000754
3800.09	0.000799
3809.73	0.0010599
3819.38	0.000848
3829.02	0.001263
3838.67	0.000642
3848.31	0.00113533
3857.96	0.00091
3867.6	0.0013903
3877.25	0.000951
3886.89	0.000531
3896.54	0.00068
3906.18	0.000581
3915.83	0.000921
3925.47	0.000702
3935.12	0.000733
3944.76	0.000691
3954.41	0.000828
3964.05	0.0012885
3973.69	0.000232
3983.34	0.000245
3992.98	0.000864
