Infrared Spectrum: 2-Bromo-4-chloroanisole
Formula: C 7 H 6 Br Cl O
CAS: 60633-25-2
State: gas
Origin: EPA-IR VAPOR PHASE LIBRARY
1/CM	ABSORBANCE
551.7	0.00864
563.274	0.00995
574.848	0.00606
586.421	0.00398
597.995	0.0035
609.569	0.00341
621.143	0.00458
632.717	0.01687
644.291	0.03548
655.864	0.00951
667.438	0.0113
679.012	0.03193
690.586	0.05929
702.16	0.02919
713.734	0.01203
725.307	0.0087
736.881	0.00657
748.455	0.00452
760.029	0.00383
771.603	0.00439
783.177	0.00895
794.75	0.02619
806.324	0.04288
817.898	0.05171
829.472	0.02613
841.046	0.00834
852.619	0.00686
864.193	0.0193
875.767	0.02391
887.341	0.007
898.915	0.00358
910.489	0.00324
922.062	0.00306
933.636	0.00312
945.21	0.00337
956.784	0.00416
968.358	0.00571
979.932	0.00861
991.505	0.01434
1003.08	0.02717
1014.65	0.04777
1026.23	0.04387
1037.8	0.03918
1049.37	0.08335
1060.95	0.08146
1072.52	0.02793
1084.1	0.02308
1095.67	0.04751
1107.24	0.04834
1118.82	0.02311
1130.39	0.01145
1141.97	0.01096
1153.54	0.01067
1165.11	0.00927
1176.69	0.01252
1188.26	0.01353
1199.83	0.01164
1211.41	0.01449
1222.98	0.0228
1234.56	0.04733
1246.13	0.10006
1257.7	0.14358
1269.28	0.13239
1280.85	0.11219
1292.42	0.07645
1304	0.02158
1315.57	0.00986
1327.15	0.00769
1338.72	0.00764
1350.29	0.00876
1361.87	0.01107
1373.44	0.0197
1385.02	0.02383
1396.59	0.01388
1408.16	0.01469
1419.74	0.03191
1431.31	0.05325
1442.88	0.07054
1454.46	0.06628
1466.03	0.12178
1477.61	0.272
1489.18	0.20494
1500.75	0.04705
1512.33	0.01685
1523.9	0.00956
1535.48	0.00757
1547.05	0.00948
1558.62	0.01811
1570.2	0.02262
1581.77	0.02254
1593.34	0.01731
1604.92	0.00759
1616.49	0.00452
1628.07	0.00375
1639.64	0.00343
1651.21	0.00337
1662.79	0.00334
1674.36	0.00319
1685.93	0.00304
1697.51	0.00302
1709.08	0.00305
1720.66	0.00393
1732.23	0.00549
1743.8	0.00544
1755.38	0.00297
1766.95	0.002
1778.53	0.00192
1790.1	0.00226
1801.67	0.00229
1813.25	0.00215
1824.82	0.00254
1836.39	0.00364
1847.97	0.00419
1859.54	0.00359
1871.12	0.00311
1882.69	0.00249
1894.26	0.00217
1905.84	0.00236
1917.41	0.00266
1928.99	0.00308
1940.56	0.003
1952.13	0.00261
1963.71	0.00234
1975.28	0.00244
1986.85	0.00233
1998.43	0.00229
2010	0.00263
2021.58	0.00294
2033.15	0.00288
2044.72	0.00278
2056.3	0.00285
2067.87	0.00315
2079.44	0.0036
2091.02	0.0034
2102.59	0.00292
2114.17	0.00229
2125.74	0.00142
2137.31	0.00109
2148.89	0.00109
2160.46	0.00122
2172.04	0.00139
2183.61	0.00123
2195.18	0.00114
2206.76	0.0012
2218.33	0.00105
2229.9	0.0009793
2241.48	0.001
2253.05	0.00113
2264.63	0.00137
2276.2	0.00168
2287.77	0.00197
2299.35	0.00232
2310.92	0.00193
2322.5	0.0012
2334.07	0.0009035
2345.64	0.0008434
2357.22	0.0007979
2368.79	0.0008005
2380.36	0.0008801
2391.94	0.001
2403.51	0.00105
2415.09	0.00103
2426.66	0.0009962
2438.23	0.0009234
2449.81	0.0009174
2461.38	0.00101
2472.96	0.00116
2484.53	0.00139
2496.1	0.00177
2507.68	0.00237
2519.25	0.00308
2530.82	0.00325
2542.4	0.00263
2553.97	0.00187
2565.55	0.00149
2577.12	0.00131
2588.69	0.00124
2600.27	0.0012
2611.84	0.00121
2623.41	0.0012
2634.99	0.00133
2646.56	0.00121
2658.14	0.00115
2669.71	0.00119
2681.28	0.00108
2692.86	0.00112
2704.43	0.00114
2716.01	0.00119
2727.58	0.00138
2739.15	0.00157
2750.73	0.00166
2762.3	0.00169
2773.87	0.00195
2785.45	0.00244
2797.02	0.00343
2808.6	0.00466
2820.17	0.0065
2831.74	0.01094
2843.32	0.02116
2854.89	0.01991
2866.47	0.01113
2878.04	0.00935
2889.61	0.01087
2901.19	0.0141
2912.76	0.01623
2924.33	0.0177
2935.91	0.02802
2947.48	0.04049
2959.06	0.03231
2970.63	0.02362
2982.2	0.01479
2993.78	0.01311
3005.35	0.01951
3016.92	0.02506
3028.5	0.01223
3040.07	0.00707
3051.65	0.00585
3063.22	0.0067
3074.79	0.00865
3086.37	0.0074
3097.94	0.00458
3109.52	0.00294
3121.09	0.00234
3132.66	0.00195
3144.24	0.00173
3155.81	0.00147
3167.38	0.00118
3178.96	0.00108
3190.53	0.0009587
3202.11	0.0008115
3213.68	0.0007727
3225.25	0.0007112
3236.83	0.0006616
3248.4	0.0005488
3259.98	0.0005118
3271.55	0.0005191
3283.12	0.0005367
3294.7	0.000565
3306.27	0.0005336
3317.84	0.0006258
3329.42	0.0005515
3340.99	0.0004798
3352.57	0.0004497
3364.14	0.0003935
3375.71	0.0005094
3387.29	0.0004821
3398.86	0.0003886
3410.43	0.0005425
3422.01	0.0005198
3433.58	0.0005842
3445.16	0.0005125
3456.73	0.0004478
3468.3	0.0005162
3479.88	0.0007092
3491.45	0.0005801
3503.03	0.000552
3514.6	0.0003775
3526.17	0.0005455
3537.75	0.000662
3549.32	0.0005701
3560.89	0.0006058
3572.47	0.0005565
3584.04	0.0005765
3595.62	0.0006346
3607.19	0.0004648
3618.76	0.0005131
3630.34	0.000648
3641.91	0.0005346
3653.49	0.0005495
3665.06	0.000609
3676.63	0.0005028
3688.21	0.0005989
3699.78	0.0006112
3711.35	0.0006166
3722.93	0.0006864
3734.5	0.0008278
3746.08	0.0008803
3757.65	0.0007085
3769.22	0.000641
3780.8	0.0007027
3792.37	0.0005449
3803.94	0.0004686
3815.52	0.0004776
3827.09	0.0005852
3838.67	0.0007132
3850.24	0.0006743
3861.81	0.0008484
3873.39	0.0008758
3884.96	0.0009193
3896.54	0.00101
3908.11	0.0011
3919.68	0.0009192
3931.26	0.0007099
3942.83	0.0007162
3954.4	0.0009639
3965.98	0.0009508
3977.55	0.0008426
3989.13	0.0008863
4000.7	0.0008774
