Infrared Spectrum: 6-Dodecanone
Formula: C 12 H 24 O
CAS: 6064-27-3
State: gas
Instrument: HP-GC/MS/IRD
Origin: NIST Mass Spectrometry Data Center
1/CM	ABSORBANCE
550	0.0003328
562	0.0001612
574	0.0001248
586	5.2e-05
598	8.84e-05
610	0.0002132
622	0.0002912
634	0.000286
646	0.0002132
658	0.0001612
670	0.0001612
682	0.0002964
694	0.0004056
706	0.0006552
718	0.00104
730	0.0013208
742	0.0011648
754	0.0008372
766	0.0007384
778	0.0005928
790	0.0004732
802	0.0004108
814	0.0003952
826	0.0003796
838	0.000468
850	0.0005564
862	0.0005876
874	0.0007072
886	0.0007436
898	0.0007852
910	0.0007852
922	0.000832
934	0.0009568
946	0.0010868
958	0.0013208
970	0.0014612
982	0.0015288
994	0.0016536
1006	0.0017784
1018	0.001846
1030	0.002132
1042	0.0029016
1054	0.0041808
1066	0.0039572
1078	0.0026884
1090	0.0020748
1102	0.0021164
1114	0.002834
1126	0.0039104
1138	0.0042276
1150	0.0035984
1162	0.0026364
1174	0.002054
1186	0.0022568
1198	0.0026572
1210	0.0029536
1222	0.002704
1234	0.0022932
1246	0.0020956
1258	0.0021216
1270	0.002548
1282	0.0029068
1294	0.0031356
1306	0.003276
1318	0.0033176
1330	0.0039364
1342	0.0053092
1354	0.0063648
1366	0.0060684
1378	0.0043836
1390	0.0034112
1402	0.0029068
1414	0.0036452
1426	0.0038844
1438	0.0043732
1450	0.0057148
1462	0.0067496
1474	0.0048724
1486	0.0023556
1498	0.0013572
1510	0.0010868
1522	0.00078
1534	0.0005252
1546	0.0004784
1558	0.0005252
1570	0.0002496
1582	0.0002288
1594	0.0002288
1606	0.0002392
1618	0.000338
1630	0.0003848
1642	0.0005148
1654	0.0008528
1666	0.0010712
1678	0.001768
1690	0.0029952
1702	0.0064688
1714	0.015678
1726	0.0222092
1738	0.0113516
1750	0.0038688
1762	0.001768
1774	0.0010244
1786	0.0006552
1798	0.0004472
1810	0.0002964
1822	0.0002236
1834	0.0001664
1846	0.0001768
1858	0.000104
1870	0.0001404
1882	6.76e-05
1894	7.28e-05
1906	5.2e-05
1918	7.8e-05
1930	3.64e-05
1942	6.24e-05
1954	3.12e-05
1966	4.68e-05
1978	2.08e-05
1990	3.12e-05
2002	2.6e-05
2014	5.2e-05
2026	6.76e-05
2038	7.8e-05
2050	6.24e-05
2062	7.8e-05
2074	3.64e-05
2086	5.72e-05
2098	3.12e-05
2110	4.16e-05
2122	6.76e-05
2134	6.24e-05
2146	7.8e-05
2158	7.8e-05
2170	5.72e-05
2182	7.28e-05
2194	8.32e-05
2206	0.0001092
2218	5.2e-05
2230	6.76e-05
2242	7.8e-05
2254	7.8e-05
2266	9.88e-05
2278	9.88e-05
2290	9.36e-05
2302	0.0001352
2314	0.0001456
2326	0.0001612
2338	0.0001508
2350	0.0001664
2362	0.0001872
2374	0.0001716
2386	0.0001144
2398	0.0001248
2410	0.0001248
2422	0.00013
2434	0.0001196
2446	0.00013
2458	0.0001092
2470	0.0001092
2482	0.0001092
2494	0.0001092
2506	0.0001352
2518	0.0001404
2530	0.0001924
2542	0.000208
2554	0.000208
2566	0.0002496
2578	0.0002808
2590	0.0003016
2602	0.0002964
2614	0.0003432
2626	0.0003952
2638	0.0004628
2650	0.0005044
2662	0.0005928
2674	0.0006968
2686	0.0007124
2698	0.0006916
2710	0.0006864
2722	0.0007644
2734	0.0008944
2746	0.0010296
2758	0.0010608
2770	0.0011804
2782	0.0014352
2794	0.0018668
2806	0.0024596
2818	0.0031824
2830	0.0043524
2842	0.0069212
2854	0.0130468
2866	0.0206284
2878	0.022282
2890	0.0216632
2902	0.0228176
2914	0.0301288
2926	0.044044
2938	0.052
2950	0.0446056
2962	0.0416364
2974	0.0327392
2986	0.0142272
2998	0.0071968
3010	0.0044564
3022	0.003068
3034	0.002314
3046	0.0017628
3058	0.0014196
3070	0.0012064
3082	0.0010608
3094	0.0009308
3106	0.0008736
3118	0.0007904
3130	0.000728
3142	0.0006552
3154	0.0005772
3166	0.0005564
3178	0.0005304
3190	0.0004888
3202	0.0004368
3214	0.0003744
3226	0.000286
3238	0.0002496
3250	0.0002444
3262	0.00026
3274	0.0002184
3286	0.0002184
3298	0.0001924
3310	0.0002028
3322	0.0001924
3334	0.0001872
3346	0.0002028
3358	0.0002132
3370	0.000234
3382	0.0002964
3394	0.0002756
3406	0.000338
3418	0.0004576
3430	0.0005148
3442	0.0004264
3454	0.0002808
3466	0.0001768
3478	0.0001248
3490	7.8e-05
3502	0.00013
3514	0.000104
3526	0.0001196
3538	9.36e-05
3550	0.0001144
3562	0.0001144
3574	6.24e-05
3586	0.0001872
3598	0.0001144
3610	0.0002184
3622	0.0001664
3634	0.0001664
3646	0.0002444
3658	0.0001508
3670	0.0002444
3682	0.0001768
3694	0.0001664
3706	0.0001976
3718	0.0002132
3730	0.0002444
3742	0.0003068
3754	0.0002652
3766	0.0002184
3778	0.0001924
3790	0.0001664
3802	0.0002392
3814	0.0001976
3826	0.0001976
3838	0.0002756
