Infrared Spectrum: 7-Pentadecanone
Formula: C 15 H 30 O
CAS: 6064-38-6
State: gas
Origin: EPA-IR VAPOR PHASE LIBRARY
1/CM	ABSORBANCE
549.8	0.004066
559.445	0.003246
569.09	0.003006
578.734	0.002736
588.379	0.001736
598.024	0.002536
607.669	0.002396
617.313	0.003596
626.958	0.003656
636.603	0.003516
646.248	0.002966
655.893	0.002186
665.537	0.002306
675.182	0.002446
684.827	0.002756
694.472	0.005056
704.116	0.007246
713.761	0.010886
723.406	0.012266
733.051	0.012086
742.695	0.009776
752.34	0.008086
761.985	0.007986
771.63	0.007186
781.275	0.006146
790.919	0.005806
800.564	0.004456
810.209	0.004486
819.854	0.004376
829.498	0.004516
839.143	0.004426
848.788	0.004996
858.433	0.005006
868.078	0.005276
877.722	0.005496
887.367	0.006206
897.012	0.006766
906.657	0.006126
916.301	0.005966
925.946	0.006506
935.591	0.006646
945.236	0.007196
954.88	0.008086
964.525	0.009006
974.17	0.010156
983.815	0.011946
993.46	0.013406
1003.1	0.013666
1012.75	0.013706
1022.39	0.015476
1032.04	0.016926
1041.68	0.017896
1051.33	0.022026
1060.97	0.028626
1070.62	0.032126
1080.26	0.026746
1089.91	0.020436
1099.55	0.018326
1109.2	0.020146
1118.84	0.024886
1128.49	0.030756
1138.13	0.031086
1147.78	0.026166
1157.42	0.021686
1167.07	0.018976
1176.71	0.020516
1186.36	0.022916
1196	0.024126
1205.64	0.025846
1215.29	0.023826
1224.93	0.019626
1234.58	0.018336
1244.22	0.019476
1253.87	0.020666
1263.51	0.021666
1273.16	0.024236
1282.8	0.026316
1292.45	0.026536
1302.09	0.027716
1311.74	0.028526
1321.38	0.029526
1331.03	0.033976
1340.67	0.042966
1350.32	0.053426
1359.96	0.056586
1369.61	0.045606
1379.25	0.034066
1388.9	0.026916
1398.54	0.022116
1408.18	0.025686
1417.83	0.030796
1427.47	0.031336
1437.12	0.035416
1446.76	0.046776
1456.41	0.061916
1466.05	0.059386
1475.7	0.037536
1485.34	0.019946
1494.99	0.012486
1504.63	0.008766
1514.28	0.006896
1523.92	0.005506
1533.57	0.004716
1543.21	0.004186
1552.86	0.003816
1562.5	0.003446
1572.15	0.003366
1581.79	0.003076
1591.44	0.003396
1601.08	0.003236
1610.73	0.003286
1620.37	0.003536
1630.01	0.003806
1639.66	0.004206
1649.3	0.004956
1658.95	0.006536
1668.59	0.008666
1678.24	0.012876
1687.88	0.019676
1697.53	0.032886
1707.17	0.067226
1716.82	0.140676
1726.46	0.175476
1736.11	0.091186
1745.75	0.035906
1755.4	0.018366
1765.04	0.011176
1774.69	0.007446
1784.33	0.005386
1793.98	0.004036
1803.62	0.003286
1813.27	0.002826
1822.91	0.002376
1832.55	0.002096
1842.2	0.001936
1851.84	0.001846
1861.49	0.001646
1871.13	0.001636
1880.78	0.001526
1890.42	0.001366
1900.07	0.001396
1909.71	0.0011394
1919.36	0.001186
1929	0.0012336
1938.65	0.001376
1948.29	0.0012427
1957.94	0.0010733
1967.58	0.001192
1977.23	0.001266
1986.87	0.0011867
1996.52	0.0012339
2006.16	0.001204
2015.81	0.001626
2025.45	0.001626
2035.1	0.001736
2044.74	0.001836
2054.38	0.001706
2064.03	0.001756
2073.67	0.001626
2083.32	0.001576
2092.96	0.001576
2102.61	0.001556
2112.25	0.001586
2121.9	0.001496
2131.54	0.001516
2141.19	0.001636
2150.83	0.001636
2160.48	0.001826
2170.12	0.001556
2179.77	0.001746
2189.41	0.001596
2199.06	0.001906
2208.7	0.001756
2218.35	0.001726
2227.99	0.001636
2237.64	0.001406
2247.28	0.001646
2256.92	0.001536
2266.57	0.001696
2276.21	0.001656
2285.86	0.001416
2295.5	0.001586
2305.15	0.001646
2314.79	0.001596
2324.44	0.001716
2334.08	0.001786
2343.73	0.001656
2353.37	0.001766
2363.02	0.001656
2372.66	0.001816
2382.31	0.001666
2391.95	0.001916
2401.6	0.001726
2411.24	0.001756
2420.89	0.001666
2430.53	0.001546
2440.18	0.001616
2449.82	0.001636
2459.47	0.001446
2469.11	0.001676
2478.75	0.001716
2488.4	0.001776
2498.04	0.001636
2507.69	0.001706
2517.33	0.001866
2526.98	0.001806
2536.62	0.002156
2546.27	0.002586
2555.91	0.002836
2565.56	0.002786
2575.2	0.003086
2584.85	0.003406
2594.49	0.003426
2604.14	0.003646
2613.78	0.003796
2623.43	0.004246
2633.07	0.004656
2642.72	0.005476
2652.36	0.005716
2662.01	0.006226
2671.65	0.006846
2681.29	0.007396
2690.94	0.007216
2700.58	0.006696
2710.23	0.006636
2719.87	0.006876
2729.52	0.007506
2739.16	0.008626
2748.81	0.009276
2758.45	0.009416
2768.1	0.010346
2777.74	0.011686
2787.39	0.014186
2797.03	0.017836
2806.68	0.022096
2816.32	0.028046
2825.97	0.035946
2835.61	0.049876
2845.26	0.081186
2854.9	0.154296
2864.55	0.226256
2874.19	0.215026
2883.84	0.197646
2893.48	0.187836
2903.12	0.217886
2912.77	0.295116
2922.41	0.435636
2932.06	0.578006
2941.7	0.525776
2951.35	0.396106
2960.99	0.349796
2970.64	0.300786
2980.28	0.154696
2989.93	0.080536
2999.57	0.050406
3009.22	0.035536
3018.86	0.026576
3028.51	0.021076
3038.15	0.016946
3047.8	0.013756
3057.44	0.011826
3067.09	0.010286
3076.73	0.009366
3086.38	0.008506
3096.02	0.007906
3105.67	0.006966
3115.31	0.005836
3124.95	0.005706
3134.6	0.005016
3144.24	0.004836
3153.89	0.004646
3163.53	0.004276
3173.18	0.003746
3182.82	0.003786
3192.47	0.003126
3202.11	0.002656
3211.76	0.002776
3221.4	0.002256
3231.05	0.002226
3240.69	0.001636
3250.34	0.001596
3259.98	0.001586
3269.63	0.0011311
3279.27	0.0012311
3288.92	0.001336
3298.56	0.001296
3308.21	0.0010578
3317.85	0.0012145
3327.49	0.001376
3337.14	0.001496
3346.78	0.000875
3356.43	0.001576
3366.07	0.001506
3375.72	0.001726
3385.36	0.001616
3395.01	0.001846
3404.65	0.002266
3414.3	0.003066
3423.94	0.003386
3433.59	0.003456
3443.23	0.002956
3452.88	0.001696
3462.52	0.0010634
3472.17	0.0009476
3481.81	0.0007539
3491.46	0.0006264
3501.1	0.0009299
3510.75	0.00024349
3520.39	0.0004542
3530.04	0.0007136
3539.68	0.0003995
3549.32	0.0003966
3558.97	0.0005968
3568.61	0.0005842
3578.26	0.0009651
3587.9	0
3597.55	0.0006795
3607.19	0.0010233
3616.84	0.001366
3626.48	0.0007771
3636.13	0.0011186
3645.77	0.0010834
3655.42	0.001306
3665.06	0.001476
3674.71	0.0011384
3684.35	0.0009496
3694	0.001446
3703.64	0.0011119
3713.29	0.001446
3722.93	0.001246
3732.58	0.0008187
3742.22	0.001336
3751.86	0.001046
3761.51	0.001406
3771.15	0.001266
3780.8	0.001266
3790.44	0.001416
3800.09	0.0012087
3809.73	0.001296
3819.38	0.001256
3829.02	0.001596
3838.67	0.001296
3848.31	0.0010732
3857.96	0.001436
3867.6	0.001296
3877.25	0.001366
3886.89	0.001516
3896.54	0.001356
3906.18	0.001736
3915.83	0.001756
3925.47	0.001346
3935.12	0.001222
3944.76	0.001876
3954.41	0.001766
3964.05	0.001456
3973.69	0.002146
3983.34	0.002456
3992.98	0.002236
