Infrared Spectrum: 7-Heptadecanone
Formula: C 17 H 34 O
CAS: 6064-42-2
State: gas
Origin: EPA-IR VAPOR PHASE LIBRARY
1/CM	ABSORBANCE
549.8	0.01563
559.445	0.01289
569.09	0.00991
578.734	0.00925
588.379	0.00819
598.024	0.00924
607.669	0.01033
617.313	0.01185
626.958	0.01293
636.603	0.01272
646.248	0.0108
655.893	0.00936
665.537	0.00938
675.182	0.01007
684.827	0.01296
694.472	0.01974
704.116	0.03253
713.761	0.0494
723.406	0.05799
733.051	0.05373
742.695	0.04423
752.34	0.0357
761.985	0.03121
771.63	0.02829
781.275	0.02419
790.919	0.02071
800.564	0.01942
810.209	0.01854
819.854	0.01919
829.498	0.01993
839.143	0.02099
848.788	0.02121
858.433	0.02235
868.078	0.02291
877.722	0.02396
887.367	0.02634
897.012	0.02632
906.657	0.0238
916.301	0.02382
925.946	0.02369
935.591	0.02412
945.236	0.02825
954.88	0.03574
964.525	0.04183
974.17	0.04607
983.815	0.04851
993.46	0.05023
1003.1	0.05101
1012.75	0.05309
1022.39	0.06132
1032.04	0.07371
1041.68	0.08509
1051.33	0.09778
1060.97	0.1066
1070.62	0.11256
1080.26	0.11011
1089.91	0.09283
1099.55	0.07899
1109.2	0.0828
1118.84	0.10447
1128.49	0.12552
1138.13	0.12106
1147.78	0.1015
1157.42	0.08591
1167.07	0.08288
1176.71	0.08433
1186.36	0.09074
1196	0.09766
1205.64	0.09931
1215.29	0.0929
1224.93	0.08699
1234.58	0.08191
1244.22	0.07806
1253.87	0.08128
1263.51	0.09081
1273.16	0.1014
1282.8	0.10792
1292.45	0.1123
1302.09	0.11902
1311.74	0.12317
1321.38	0.1254
1331.03	0.14374
1340.67	0.18381
1350.32	0.2294
1359.96	0.24158
1369.61	0.19363
1379.25	0.14304
1388.9	0.11159
1398.54	0.09149
1408.18	0.10606
1417.83	0.12835
1427.47	0.13165
1437.12	0.15273
1446.76	0.20924
1456.41	0.28192
1466.05	0.27013
1475.7	0.16393
1485.34	0.08515
1494.99	0.05239
1504.63	0.03716
1514.28	0.02849
1523.92	0.02322
1533.57	0.01961
1543.21	0.01734
1552.86	0.01546
1562.5	0.01425
1572.15	0.01353
1581.79	0.01345
1591.44	0.0132
1601.08	0.01323
1610.73	0.01348
1620.37	0.01434
1630.01	0.01554
1639.66	0.01732
1649.3	0.02034
1658.95	0.02568
1668.59	0.03521
1678.24	0.05226
1687.88	0.0788
1697.53	0.13182
1707.17	0.26878
1716.82	0.55589
1726.46	0.69265
1736.11	0.3518
1745.75	0.14061
1755.4	0.07173
1765.04	0.04395
1774.69	0.0297
1784.33	0.02151
1793.98	0.01626
1803.62	0.01313
1813.27	0.01098
1822.91	0.00937
1832.55	0.0084
1842.2	0.00786
1851.84	0.00724
1861.49	0.0068
1871.13	0.00628
1880.78	0.00607
1890.42	0.0058
1900.07	0.00551
1909.71	0.00528
1919.36	0.00522
1929	0.00511
1938.65	0.00494
1948.29	0.00484
1957.94	0.00489
1967.58	0.00482
1977.23	0.00491
1986.87	0.00496
1996.52	0.00535
2006.16	0.00577
2015.81	0.00667
2025.45	0.00754
2035.1	0.00794
2044.74	0.00786
2054.38	0.00763
2064.03	0.00726
2073.67	0.00704
2083.32	0.00667
2092.96	0.00645
2102.61	0.00645
2112.25	0.0065
2121.9	0.00668
2131.54	0.00686
2141.19	0.00699
2150.83	0.00747
2160.48	0.00759
2170.12	0.00757
2179.77	0.00752
2189.41	0.00746
2199.06	0.00729
2208.7	0.00723
2218.35	0.00701
2227.99	0.00695
2237.64	0.00677
2247.28	0.00697
2256.92	0.00692
2266.57	0.00679
2276.21	0.00694
2285.86	0.00692
2295.5	0.00716
2305.15	0.00731
2314.79	0.00759
2324.44	0.00763
2334.08	0.00756
2343.73	0.00769
2353.37	0.00771
2363.02	0.0075
2372.66	0.00738
2382.31	0.00755
2391.95	0.00769
2401.6	0.00775
2411.24	0.00773
2420.89	0.00775
2430.53	0.00753
2440.18	0.0073
2449.82	0.00717
2459.47	0.007
2469.11	0.00692
2478.75	0.00712
2488.4	0.00753
2498.04	0.00779
2507.69	0.00843
2517.33	0.00913
2526.98	0.0101
2536.62	0.0109
2546.27	0.01147
2555.91	0.01207
2565.56	0.01267
2575.2	0.01363
2584.85	0.01473
2594.49	0.01579
2604.14	0.01688
2613.78	0.01842
2623.43	0.02022
2633.07	0.02197
2642.72	0.02405
2652.36	0.02687
2662.01	0.02997
2671.65	0.03256
2681.29	0.03421
2690.94	0.03371
2700.58	0.03195
2710.23	0.03101
2719.87	0.03212
2729.52	0.03513
2739.16	0.03985
2748.81	0.04244
2758.45	0.04355
2768.1	0.04732
2777.74	0.05441
2787.39	0.06599
2797.03	0.08247
2806.68	0.10352
2816.32	0.12942
2825.97	0.16596
2835.61	0.23057
2845.26	0.38095
2854.9	0.75131
2864.55	1.08809
2874.19	0.9682
2883.84	0.86366
2893.48	0.82916
2903.12	0.98529
2912.77	1.32969
2922.41	1.82184
2932.06	2.04509
2941.7	1.98563
2951.35	1.61958
2960.99	1.40578
2970.64	1.18144
2980.28	0.62165
2989.93	0.33336
2999.57	0.21136
3009.22	0.14918
3018.86	0.1127
3028.51	0.08944
3038.15	0.07172
3047.8	0.05838
3057.44	0.0488
3067.09	0.04224
3076.73	0.03775
3086.38	0.03426
3096.02	0.03115
3105.67	0.02825
3115.31	0.02546
3124.95	0.0232
3134.6	0.02133
3144.24	0.01992
3153.89	0.01856
3163.53	0.01742
3173.18	0.01676
3182.82	0.01532
3192.47	0.01414
3202.11	0.01257
3211.76	0.0106
3221.4	0.00911
3231.05	0.00822
3240.69	0.00732
3250.34	0.00624
3259.98	0.00581
3269.63	0.00565
3279.27	0.00514
3288.92	0.00496
3298.56	0.00464
3308.21	0.00494
3317.85	0.00489
3327.49	0.00514
3337.14	0.00523
3346.78	0.00546
3356.43	0.00579
3366.07	0.00603
3375.72	0.00653
3385.36	0.00707
3395.01	0.00767
3404.65	0.00927
3414.3	0.01176
3423.94	0.01447
3433.59	0.01431
3443.23	0.01075
3452.88	0.00722
3462.52	0.00528
3472.17	0.00409
3481.81	0.00352
3491.46	0.00261
3501.1	0.00257
3510.75	0.00232
3520.39	0.00253
3530.04	0.00232
3539.68	0.00231
3549.32	0.00235
3558.97	0.00254
3568.61	0.00263
3578.26	0.00325
3587.9	0.00334
3597.55	0.00369
3607.19	0.00451
3616.84	0.00482
3626.48	0.00537
3636.13	0.00597
3645.77	0.00586
3655.42	0.00614
3665.06	0.00565
3674.71	0.00582
3684.35	0.00569
3694	0.0056
3703.64	0.00577
3713.29	0.00564
3722.93	0.0055
3732.58	0.00549
3742.22	0.00565
3751.86	0.00561
3761.51	0.00578
3771.15	0.00575
3780.8	0.00587
3790.44	0.006
3800.09	0.00583
3809.73	0.00599
3819.38	0.00606
3829.02	0.0062
3838.67	0.00613
3848.31	0.00635
3857.96	0.00651
3867.6	0.00671
3877.25	0.00686
3886.89	0.0066
3896.54	0.00691
3906.18	0.00724
3915.83	0.00729
3925.47	0.00716
3935.12	0.00733
3944.76	0.0072
3954.41	0.00778
3964.05	0.00836
3973.69	0.00909
3983.34	0.00968
3992.98	0.00974
