Infrared Spectrum: ACETAMIDE, N-(6-FORMYL-4-OXO-(3H)-PYRIMIDIN-2-YL)-
Formula: C7 H7 N3 O3
CAS: 60656-63-5
State: SOLID (1 mg / 650 mg KBr DISC)
Class: COBLENTZ III
Instrument: PERKIN-ELMER 521 (GRATING)
Sampling: TRANSMISSION
Resolution: 4
Origin: SOUTHERN RESEARCH INSTITUTE
1/CM	TRANSMITTANCE
268.519	0.485
279.101	0.5579
289.683	0.644
300.265	0.702
310.847	0.705
321.429	0.715
332.011	0.801
342.593	0.862
353.175	0.914
363.758	0.923
374.34	0.933
384.922	0.916
395.504	0.919
406.086	0.919
416.668	0.907
427.25	0.891
437.832	0.8431
448.414	0.8859
458.996	0.928
469.578	0.917
480.16	0.907
490.742	0.891
501.324	0.869
511.906	0.843
522.488	0.779
533.07	0.73
543.653	0.7591
554.235	0.628
564.817	0.764
575.399	0.805
585.981	0.785
596.563	0.805
607.145	0.81
617.727	0.805
628.309	0.793
638.891	0.784
649.473	0.764
660.055	0.748
670.637	0.711
681.219	0.658
691.801	0.544
702.383	0.5799
712.965	0.667
723.547	0.534
734.13	0.386
744.712	0.4801
755.294	0.466
765.876	0.425
776.458	0.365
787.04	0.445
797.622	0.587
808.204	0.72
818.786	0.763
829.368	0.751
839.95	0.738
850.532	0.735
861.114	0.6611
871.696	0.7389
882.278	0.835
892.86	0.814
903.442	0.792
914.025	0.752
924.607	0.69
935.189	0.642
945.771	0.461
956.353	0.6451
966.935	0.699
977.517	0.646
988.099	0.551
998.681	0.595
1009.26	0.665
1019.85	0.658
1030.43	0.619
1041.01	0.629
1051.59	0.656
1062.17	0.662
1072.76	0.667
1083.34	0.662
1093.92	0.66
1104.5	0.665
1115.08	0.66
1125.67	0.65
1136.25	0.632
1146.83	0.612
1157.41	0.591
1167.99	0.519
1178.58	0.5969
1189.16	0.571
1199.74	0.469
1210.32	0.421
1220.9	0.402
1231.49	0.294
1242.07	0.246
1252.65	0.283
1263.23	0.5521
1273.81	0.673
1284.4	0.664
1294.98	0.63
1305.56	0.603
1316.14	0.571
1326.72	0.5139
1337.31	0.441
1347.89	0.492
1358.47	0.39
1369.05	0.3381
1379.64	0.439
1390.22	0.378
1400.8	0.424
1411.38	0.466
1421.96	0.447
1432.55	0.435
1443.13	0.415
1453.71	0.396
1464.29	0.361
1474.87	0.289
1485.46	0.263
1496.04	0.263
1506.62	0.312
1517.2	0.35
1527.78	0.294
1538.37	0.208
1548.95	0.164
1559.53	0.153
1570.11	0.165
1580.69	0.178
1591.28	0.16
1601.86	0.133
1612.44	0.092
1623.02	0.074
1633.6	0.08
1644.19	0.062
1654.77	0.075
1665.35	0.088
1675.93	0.137
1686.51	0.177
1697.1	0.22
1707.68	0.251
1718.26	0.186
1728.84	0.308
1739.43	0.41
1750.01	0.46
1760.59	0.51
1771.17	0.556
1781.75	0.593
1792.34	0.632
1802.92	0.661
1813.5	0.687
1824.08	0.714
1834.66	0.751
1845.25	0.768
1855.83	0.791
1866.41	0.809
1876.99	0.826
1887.57	0.834
1898.16	0.834
1908.74	0.842
1919.32	0.857
1929.9	0.869
1940.48	0.873
1951.07	0.892
1961.65	0.907
1972.23	0.915
1982.81	0.924
1993.39	0.935
2003.98	0.953
2014.56	0.957
2025.14	0.9599
2035.72	0.965
2046.3	0.9689
2056.89	0.969
2067.47	0.968
2078.05	0.9688
2088.63	0.969
2099.22	0.966
2109.8	0.965
2120.38	0.9626
2130.96	0.9603
2141.54	0.957
2152.13	0.955
2162.71	0.952
2173.29	0.9541
2183.87	0.953
2194.45	0.953
2205.04	0.9485
2215.62	0.941
2226.2	0.943
2236.78	0.945
2247.36	0.941
2257.95	0.94
2268.53	0.9384
2279.11	0.936
2289.69	0.932
2300.27	0.9322
2310.86	0.925
2321.44	0.9119
2332.02	0.903
2342.6	0.9
2353.18	0.888
2363.77	0.887
2374.35	0.883
2384.93	0.873
2395.51	0.873
2406.09	0.8621
2416.68	0.8541
2427.26	0.8549
2437.84	0.861
2448.42	0.8494
2459.01	0.8354
2469.59	0.834
2480.17	0.83
2490.75	0.8234
2501.33	0.83
2511.92	0.829
2522.5	0.8326
2533.08	0.8294
2543.66	0.8214
2554.24	0.8189
2564.83	0.814
2575.41	0.8005
2585.99	0.793
2596.57	0.789
2607.15	0.7886
2617.74	0.783
2628.32	0.7767
2638.9	0.7664
2649.48	0.759
2660.06	0.7558
2670.65	0.7496
2681.23	0.7358
2691.81	0.7215
2702.39	0.7029
2712.97	0.6808
2723.56	0.675
2734.14	0.675
2744.72	0.675
2755.3	0.67
2765.88	0.666
2776.47	0.6601
2787.05	0.6482
2797.63	0.6295
2808.21	0.6085
2818.8	0.5837
2829.38	0.5558
2839.96	0.5267
2850.54	0.517
2861.12	0.5278
2871.71	0.554
2882.29	0.5543
2892.87	0.5374
2903.45	0.5318
2914.03	0.5239
2924.62	0.5005
2935.2	0.496
2945.78	0.4935
2956.36	0.4746
2966.94	0.4393
2977.53	0.423
2988.11	0.429
2998.69	0.435
3009.27	0.435
3019.85	0.432
3030.44	0.4225
3041.02	0.4013
3051.6	0.3772
3062.18	0.3486
3072.76	0.3371
3083.35	0.3512
3093.93	0.351
3104.51	0.3449
3115.09	0.3299
3125.67	0.305
3136.26	0.2811
3146.84	0.2641
3157.42	0.2689
3168	0.2839
3178.58	0.3157
3189.17	0.3338
3199.75	0.3406
3210.33	0.3458
3220.91	0.3715
3231.5	0.4196
3242.08	0.4532
3252.66	0.4907
3263.24	0.5169
3273.82	0.5428
3284.41	0.5532
3294.99	0.5636
3305.57	0.5961
3316.15	0.619
3326.73	0.6349
3337.32	0.64
3347.9	0.642
3358.48	0.6406
3369.06	0.638
3379.64	0.636
3390.23	0.633
3400.81	0.6287
3411.39	0.629
3421.97	0.6384
3432.55	0.6504
3443.14	0.6615
3453.72	0.6753
3464.3	0.6852
3474.88	0.6952
3485.46	0.705
3496.05	0.716
3506.63	0.728
3517.21	0.7459
3527.79	0.7589
3538.37	0.7729
3548.96	0.7933
3559.54	0.8037
3570.12	0.8196
3580.7	0.8414
3591.29	0.8578
3601.87	0.8707
3612.45	0.8797
3623.03	0.888
3633.61	0.892
3644.2	0.895
3654.78	0.895
3665.36	0.896
3675.94	0.9
3686.52	0.903
3697.11	0.903
3707.69	0.903
3718.27	0.902
3728.85	0.9
3739.43	0.899
3750.02	0.898
3760.6	0.8934
3771.18	0.892
3781.76	0.8917
3792.34	0.888
3802.93	0.888
3813.51	0.888
3824.09	0.8869
3834.67	0.886
3845.25	0.8858
3855.84	0.883
3866.42	0.882
3877	0.88
3887.58	0.879
3898.16	0.876
3908.75	0.876
3919.33	0.876
3929.91	0.875
3940.49	0.875
3951.08	0.8736
3961.66	0.87
3972.24	0.87
3982.82	0.871
3993.4	0.871
