Infrared Spectrum: 2-Methyl-5-octyn-4-ol
Formula: C 9 H 16 O
CAS: 60657-70-7
State: gas
Origin: EPA-IR VAPOR PHASE LIBRARY
1/CM	ABSORBANCE
549.9	0.004203
559.547	0.003523
569.193	0.002523
578.84	0.002293
588.486	0.001893
598.133	0.001823
607.779	0.001863
617.426	0.001813
627.072	0.002103
636.719	0.002213
646.365	0.002043
656.012	0.001923
665.658	0.001773
675.305	0.001743
684.951	0.001803
694.598	0.001993
704.245	0.002323
713.891	0.002593
723.538	0.002453
733.184	0.002263
742.831	0.002613
752.477	0.003223
762.124	0.003383
771.77	0.002603
781.417	0.002033
791.063	0.001823
800.71	0.002013
810.356	0.002443
820.003	0.003263
829.649	0.003783
839.296	0.004033
848.943	0.003213
858.589	0.002423
868.236	0.002503
877.882	0.002953
887.529	0.002883
897.175	0.002583
906.822	0.002803
916.468	0.003913
926.115	0.005763
935.761	0.008043
945.408	0.009493
955.054	0.009173
964.701	0.009333
974.347	0.011913
983.994	0.016163
993.64	0.019553
1003.29	0.020823
1012.93	0.022933
1022.58	0.027593
1032.23	0.029073
1041.87	0.025493
1051.52	0.019853
1061.17	0.014023
1070.81	0.009453
1080.46	0.007173
1090.11	0.006773
1099.75	0.007673
1109.4	0.009213
1119.05	0.009203
1128.69	0.008463
1138.34	0.009883
1147.99	0.012543
1157.63	0.012433
1167.28	0.010993
1176.92	0.008273
1186.57	0.006103
1196.22	0.006063
1205.86	0.006923
1215.51	0.008393
1225.16	0.009263
1234.8	0.009283
1244.45	0.008683
1254.1	0.008333
1263.74	0.008443
1273.39	0.008613
1283.04	0.008803
1292.68	0.009183
1302.33	0.011813
1311.98	0.021213
1321.62	0.028483
1331.27	0.022073
1340.92	0.019203
1350.56	0.021733
1360.21	0.025783
1369.86	0.028583
1379.5	0.026443
1389.15	0.021243
1398.79	0.014453
1408.44	0.009543
1418.09	0.007763
1427.73	0.007803
1437.38	0.008963
1447.03	0.010223
1456.67	0.012013
1466.32	0.013763
1475.97	0.011583
1485.61	0.006753
1495.26	0.003953
1504.91	0.002653
1514.55	0.001903
1524.2	0.0015338
1533.85	0.001294
1543.49	0.0010684
1553.14	0.0010246
1562.79	0.000879
1572.43	0.0008503
1582.08	0.0008772
1591.73	0.0007774
1601.37	0.00075253
1611.02	0.00066406
1620.67	0.0006395
1630.31	0.0005738
1639.96	0.000524
1649.6	0.000474
1659.25	0.00056
1668.9	0.000548
1678.54	0.000508
1688.19	0.000533
1697.84	0.00042
1707.48	0.000358
1717.13	0.000308
1726.78	0.000211
1736.42	0.000234
1746.07	0.000208
1755.72	0.000166
1765.36	0.000165
1775.01	0.000124
1784.66	0.000172
1794.3	0.000165
1803.95	0.000181
1813.6	0.000154
1823.24	0.000139
1832.89	0.000143
1842.54	0.000208
1852.18	0.000181
1861.83	0.000274
1871.47	0.000361
1881.12	0.000314
1890.77	0.000202
1900.41	0.00018
1910.06	0.000165
1919.71	0.000148
1929.35	0.000207
1939	0.000142
1948.65	0.00012
1958.29	0.000163
1967.94	0.000166
1977.59	0.000169
1987.23	0.000203
1996.88	0.000221
2006.53	0.000308
2016.17	0.000337
2025.82	0.000264
2035.47	0.00029
2045.11	0.000255
2054.76	0.000152
2064.41	6.9e-05
2074.05	8e-06
2083.7	2.5e-05
2093.35	2e-05
2102.99	4.7e-05
2112.64	2.5e-05
2122.28	5.2e-05
2131.93	5.7e-05
2141.58	6.6e-05
2151.22	0.000138
2160.87	0.000269
2170.52	0.000396
2180.16	0.000571
2189.81	0.0008739
2199.46	0.0013723
2209.1	0.001983
2218.75	0.002543
2228.4	0.002713
2238.04	0.002353
2247.69	0.001813
2257.34	0.0015653
2266.98	0.001339
2276.63	0.0010729
2286.28	0.0008604
2295.92	0.00067068
2305.57	0.0005744
2315.22	0.000436
2324.86	0.00033
2334.51	0.000293
2344.16	0.000298
2353.8	0.000235
2363.45	0.000289
2373.09	0.000292
2382.74	0.000273
2392.39	0.000327
2402.03	0.000326
2411.68	0.00033
2421.33	0.000377
2430.97	0.000387
2440.62	0.000422
2450.27	0.000372
2459.91	0.000321
2469.56	0.000347
2479.21	0.000345
2488.85	0.000309
2498.5	0.000398
2508.15	0.00042
2517.79	0.000409
2527.44	0.000415
2537.09	0.000417
2546.73	0.000478
2556.38	0.000502
2566.03	0.000568
2575.67	0.0006157
2585.32	0.0006461
2594.96	0.000678758
2604.61	0.0007671
2614.26	0.0008905
2623.9	0.0011325
2633.55	0.001075
2643.2	0.0008203
2652.84	0.0006977
2662.49	0.0007273
2672.14	0.0006457
2681.78	0.00070666
2691.43	0.0007857
2701.08	0.0010111
2710.72	0.0011634
2720.37	0.0015137
2730.02	0.001893
2739.66	0.001953
2749.31	0.001953
2758.96	0.001853
2768.6	0.002103
2778.25	0.002123
2787.9	0.002203
2797.54	0.002523
2807.19	0.003053
2816.84	0.003703
2826.48	0.004773
2836.13	0.006443
2845.77	0.009443
2855.42	0.014063
2865.07	0.021003
2874.71	0.031463
2884.36	0.038683
2894.01	0.039083
2903.65	0.040823
2913.3	0.047753
2922.95	0.057573
2932.59	0.069573
2942.24	0.075363
2951.89	0.078093
2961.53	0.095263
2971.18	0.086163
2980.83	0.057763
2990.47	0.037453
3000.12	0.018573
3009.77	0.011983
3019.41	0.007583
3029.06	0.004833
3038.71	0.003453
3048.35	0.002863
3058	0.002363
3067.64	0.002163
3077.29	0.002093
3086.94	0.001983
3096.58	0.001793
3106.23	0.001833
3115.88	0.0016456
3125.52	0.0016002
3135.17	0.001703
3144.82	0.0015727
3154.46	0.0015704
3164.11	0.0014828
3173.76	0.0016696
3183.4	0.001343
3193.05	0.0014504
3202.7	0.0010721
3212.34	0.0010194
3221.99	0.0009845
3231.64	0.00055
3241.28	0.00069427
3250.93	0.0006621
3260.58	0.0005802
3270.22	0.0006488
3279.87	0.000362
3289.52	0.0006287
3299.16	0.0005906
3308.81	0.00070727
3318.45	0.0006009
3328.1	0.0009016
3337.75	0.0008154
3347.39	0.000679681
3357.04	0.0006298
3366.69	0.0006437
3376.33	0.0008126
3385.98	0.0008915
3395.63	0.0008582
3405.27	0.0008652
3414.92	0.00073057
3424.57	0.00073787
3434.21	0.00075899
3443.86	0.0007969
3453.51	0.0008985
3463.15	0.0007991
3472.8	0.0008415
3482.45	0.00071977
3492.09	0.0009804
3501.74	0.0008903
3511.39	0.0008722
3521.03	0.0009086
3530.68	0.0007775
3540.33	0.00068546
3549.97	0.000472
3559.62	0.000449
3569.26	0.000516
3578.91	0.0006468
3588.56	0.000682526
3598.2	0.00069467
3607.85	0.0008137
3617.5	0.0012227
3627.14	0.002723
3636.79	0.007453
3646.44	0.012493
3656.08	0.010133
3665.73	0.003953
3675.38	0.001503
3685.02	0.0010296
3694.67	0.00071361
3704.32	0.000522
3713.96	0.00068524
3723.61	0.0006576
3733.26	0.000507
3742.9	0.0006152
3752.55	0.00066302
3762.2	0.0005913
3771.84	0.0009075
3781.49	0.0009383
3791.13	0.0008094
3800.78	0.00072532
3810.43	0.00075337
3820.07	0.0006336
3829.72	0.00069593
3839.37	0.00066699
3849.01	0.0006013
3858.66	0.0006124
3868.31	0.000679379
3877.95	0.00069029
3887.6	0.0006628
3897.25	0.0006892
3906.89	0.000484
3916.54	0.000525
3926.19	0.000521
3935.83	0.000553
3945.48	0.000483
3955.13	0.000487
3964.77	0.000334
3974.42	0.000471
3984.07	0.00043
3993.71	0.000476
