Infrared Spectrum: Ethyl 4-bromocrotonate
Formula: C 6 H 9 Br O 2
CAS: 6065-32-3
State: gas
Origin: EPA-IR VAPOR PHASE LIBRARY
1/CM	ABSORBANCE
549.8	0.001351
559.445	0.0011657
569.09	0.002171
578.734	0.002841
588.379	0.005471
598.024	0.006031
607.669	0.003151
617.313	0.001861
626.958	0.001911
636.603	0.001571
646.248	0.0013173
655.893	0.0011791
665.537	0.001371
675.182	0.001551
684.827	0.002001
694.472	0.002831
704.116	0.003841
713.761	0.004771
723.406	0.005391
733.051	0.004521
742.695	0.003031
752.34	0.002041
761.985	0.001911
771.63	0.001771
781.275	0.001861
790.919	0.001851
800.564	0.001671
810.209	0.002101
819.854	0.001851
829.498	0.002051
839.143	0.002621
848.788	0.003351
858.433	0.004011
868.078	0.004091
877.722	0.003391
887.367	0.003111
897.012	0.002661
906.657	0.002431
916.301	0.002251
925.946	0.002881
935.591	0.003951
945.236	0.005771
954.88	0.009401
964.525	0.014461
974.17	0.015851
983.815	0.010421
993.46	0.005881
1003.1	0.005621
1012.75	0.007241
1022.39	0.012101
1032.04	0.020491
1041.68	0.027341
1051.33	0.023931
1060.97	0.017371
1070.62	0.011501
1080.26	0.008271
1089.91	0.009951
1099.55	0.012101
1109.2	0.011791
1118.84	0.014391
1128.49	0.025881
1138.13	0.026321
1147.78	0.020371
1157.42	0.025481
1167.07	0.042141
1176.71	0.065311
1186.36	0.083231
1196	0.063011
1205.64	0.039731
1215.29	0.030781
1224.93	0.023381
1234.58	0.024891
1244.22	0.033391
1253.87	0.052351
1263.51	0.066511
1273.16	0.050091
1282.8	0.040871
1292.45	0.042671
1302.09	0.044461
1311.74	0.059541
1321.38	0.036621
1331.03	0.014301
1340.67	0.008281
1350.32	0.006421
1359.96	0.008141
1369.61	0.015401
1379.25	0.009441
1388.9	0.005901
1398.54	0.005641
1408.18	0.004741
1417.83	0.004781
1427.47	0.005211
1437.12	0.005721
1446.76	0.005931
1456.41	0.005851
1466.05	0.006271
1475.7	0.005881
1485.34	0.003761
1494.99	0.002601
1504.63	0.002041
1514.28	0.001701
1523.92	0.001671
1533.57	0.001631
1543.21	0.001571
1552.86	0.001631
1562.5	0.001521
1572.15	0.001471
1581.79	0.001531
1591.44	0.001571
1601.08	0.001661
1610.73	0.001851
1620.37	0.002341
1630.01	0.003511
1639.66	0.006411
1649.3	0.012431
1658.95	0.014891
1668.59	0.008171
1678.24	0.005291
1687.88	0.005271
1697.53	0.006651
1707.17	0.009421
1716.82	0.016101
1726.46	0.036011
1736.11	0.076881
1745.75	0.093751
1755.4	0.051001
1765.04	0.019501
1774.69	0.008461
1784.33	0.005331
1793.98	0.003801
1803.62	0.002821
1813.27	0.002361
1822.91	0.001971
1832.55	0.001531
1842.2	0.001461
1851.84	0.001341
1861.49	0.001351
1871.13	0.001306
1880.78	0.0013096
1890.42	0.001381
1900.07	0.001411
1909.71	0.0013112
1919.36	0.0011562
1929	0.0011618
1938.65	0.0009435
1948.29	0.0008017
1957.94	0.0007459
1967.58	0.0007164
1977.23	0.0007282
1986.87	0.0008286
1996.52	0.0008388
2006.16	0.0008075
2015.81	0.0007813
2025.45	0.0008378
2035.1	0.0008628
2044.74	0.0008977
2054.38	0.000945
2064.03	0.0008032
2073.67	0.0008355
2083.32	0.0008534
2092.96	0.0008911
2102.61	0.0007569
2112.25	0.0008473
2121.9	0.0008472
2131.54	0.0008262
2141.19	0.0007924
2150.83	0.0008254
2160.48	0.0006456
2170.12	0.0006279
2179.77	0.0006439
2189.41	0.0005453
2199.06	0.0005605
2208.7	0.0005457
2218.35	0.0005869
2227.99	0.0006593
2237.64	0.0005711
2247.28	0.0007118
2256.92	0.0006843
2266.57	0.0006978
2276.21	0.000738
2285.86	0.0006785
2295.5	0.0005404
2305.15	0.0006512
2314.79	0.0006442
2324.44	0.0006764
2334.08	0.0006965
2343.73	0.000675
2353.37	0.0007432
2363.02	0.0007596
2372.66	0.0006369
2382.31	0.0005492
2391.95	0.0006469
2401.6	0.0007055
2411.24	0.0006151
2420.89	0.000625
2430.53	0.0005347
2440.18	0.0005178
2449.82	0.00035948
2459.47	0.000453
2469.11	0.0005889
2478.75	0.0005812
2488.4	0.0004979
2498.04	0.0005753
2507.69	0.00041471
2517.33	0.0004687
2526.98	0.0004578
2536.62	0.00039904
2546.27	0.00034803
2555.91	0.0004034
2565.56	0.0004506
2575.2	0.00038097
2584.85	0.00031308
2594.49	0.00034897
2604.14	0.0004406
2613.78	0.00034925
2623.43	0.0004361
2633.07	0.00038288
2642.72	0.0004562
2652.36	0.000492
2662.01	0.00033357
2671.65	0.0004277
2681.29	0.0003608
2690.94	0.0002719
2700.58	0.000435
2710.23	0.0004628
2719.87	0.00044
2729.52	0.0005626
2739.16	0.000512
2748.81	0.000579
2758.45	0.0006522
2768.1	0.0005848
2777.74	0.0006095
2787.39	0.0006362
2797.03	0.0005918
2806.68	0.0007309
2816.32	0.0007768
2825.97	0.0009715
2835.61	0.0010797
2845.26	0.0012807
2854.9	0.001481
2864.55	0.001851
2874.19	0.002451
2883.84	0.003371
2893.48	0.003731
2903.12	0.004251
2912.77	0.005191
2922.41	0.005331
2932.06	0.006241
2941.7	0.009701
2951.35	0.009971
2960.99	0.010091
2970.64	0.012641
2980.28	0.018121
2989.93	0.019551
2999.57	0.012341
3009.22	0.008651
3018.86	0.005651
3028.51	0.003641
3038.15	0.002551
3047.8	0.002191
3057.44	0.002071
3067.09	0.001631
3076.73	0.001411
3086.38	0.0010426
3096.02	0.000837
3105.67	0.00061
3115.31	0.0005249
3124.95	0.0006022
3134.6	0.0005968
3144.24	0.0005451
3153.89	0.0006479
3163.53	0.0004264
3173.18	0.0005753
3182.82	0.0002801
3192.47	0.00039017
3202.11	0.00037331
3211.76	0.0002532
3221.4	5.9e-05
3231.05	0.0004369
3240.69	0.000177
3250.34	0.0002797
3259.98	0.0002479
3269.63	0.00037975
3279.27	0.000133
3288.92	0.000263
3298.56	0.0002382
3308.21	0.000326619
3317.85	0.00033281
3327.49	0.000161
3337.14	0.00035153
3346.78	0.00031344
3356.43	0.00033919
3366.07	0.00038577
3375.72	0.00037609
3385.36	0.000248
3395.01	0.0004362
3404.65	0.000327056
3414.3	0.000205
3423.94	0.000329824
3433.59	0.000486
3443.23	0.0004767
3452.88	0.0008546
3462.52	0.0012106
3472.17	0.0011414
3481.81	0.0008332
3491.46	0.0005767
3501.1	0.0002773
3510.75	0.00039883
3520.39	0.0002996
3530.04	0.00038541
3539.68	0.0002327
3549.32	0.00036266
3558.97	0.0002382
3568.61	0.0002386
3578.26	0.00039127
3587.9	0.00039745
3597.55	0.000325793
3607.19	0.0004923
3616.84	0.0002451
3626.48	0.0002977
3636.13	0.00021
3645.77	0.0002286
3655.42	0.00037887
3665.06	0.00031634
3674.71	0
3684.35	0.00039665
3694	0.0002774
3703.64	0.000202
3713.29	0.0003651
3722.93	0.000197
3732.58	0.000197
3742.22	0.00037497
3751.86	0.000256
3761.51	0.0003034
3771.15	0.00038973
3780.8	0.000255
3790.44	0.0004926
3800.09	0.0002602
3809.73	0.000521
3819.38	0.00041257
3829.02	0.0004267
3838.67	0.0002974
3848.31	0.000101
3857.96	0.0002613
3867.6	0.000186
3877.25	0.000156
3886.89	0.000164
3896.54	0.00038916
3906.18	0.0002518
3915.83	0.0005846
3925.47	0.00041802
3935.12	0.000165
3944.76	8.5e-05
3954.41	0.0002515
3964.05	0.0002345
3973.69	0.0002682
3983.34	0.00037817
3992.98	0.0004827
