Infrared Spectrum: Ethyldiethoxy acetate
Formula: C 8 H 16 O 4
CAS: 6065-82-3
State: gas
Origin: EPA-IR VAPOR PHASE LIBRARY
1/CM	ABSORBANCE
501.5	0.0006621
513.074	0.0005263
524.648	0.0005464
536.222	0.0005964
547.796	0.0005052
559.37	0.0007944
570.944	0.0011107
582.518	0.001451
594.092	0.001861
605.666	0.002301
617.24	0.002551
628.814	0.002811
640.388	0.003211
651.962	0.003691
663.536	0.003941
675.11	0.004121
686.684	0.004061
698.258	0.004141
709.832	0.004481
721.406	0.004951
732.98	0.005381
744.554	0.006181
756.128	0.007581
767.702	0.008561
779.276	0.008571
790.85	0.008021
802.423	0.007621
813.997	0.007621
825.571	0.008031
837.145	0.008731
848.719	0.009821
860.293	0.010621
871.867	0.008751
883.441	0.006771
895.015	0.006181
906.589	0.006471
918.163	0.007931
929.737	0.011721
941.311	0.017551
952.885	0.020841
964.459	0.017571
976.033	0.013861
987.607	0.016541
999.181	0.025581
1010.76	0.041981
1022.33	0.065481
1033.9	0.086681
1045.48	0.094511
1057.05	0.117391
1068.63	0.156731
1080.2	0.172691
1091.77	0.176831
1103.35	0.188901
1114.92	0.225681
1126.49	0.228341
1138.07	0.172191
1149.64	0.132191
1161.22	0.111171
1172.79	0.099961
1184.36	0.092211
1195.94	0.087671
1207.51	0.076211
1219.09	0.056711
1230.66	0.043671
1242.23	0.039671
1253.81	0.043111
1265.38	0.053441
1276.96	0.061091
1288.53	0.051841
1300.1	0.038101
1311.68	0.029321
1323.25	0.026521
1334.83	0.028391
1346.4	0.022751
1357.97	0.019461
1369.55	0.024621
1381.12	0.028161
1392.7	0.026781
1404.27	0.022081
1415.84	0.016071
1427.42	0.012911
1438.99	0.013781
1450.57	0.015541
1462.14	0.014901
1473.71	0.014371
1485.29	0.011501
1496.86	0.007351
1508.44	0.004951
1520.01	0.003931
1531.58	0.003291
1543.16	0.002851
1554.73	0.002511
1566.31	0.002301
1577.88	0.002211
1589.45	0.002141
1601.03	0.002131
1612.6	0.002161
1624.18	0.002211
1635.75	0.002301
1647.32	0.002471
1658.9	0.002781
1670.47	0.003281
1682.05	0.003941
1693.62	0.005081
1705.19	0.007341
1716.77	0.011461
1728.34	0.020391
1739.92	0.045041
1751.49	0.089021
1763.06	0.108221
1774.64	0.101331
1786.21	0.054541
1797.79	0.022171
1809.36	0.010341
1820.93	0.006161
1832.51	0.004411
1844.08	0.003621
1855.66	0.003221
1867.23	0.003121
1878.8	0.003171
1890.38	0.003151
1901.95	0.002971
1913.53	0.002661
1925.1	0.002411
1936.67	0.002251
1948.25	0.002141
1959.82	0.002061
1971.4	0.001941
1982.97	0.001851
1994.54	0.001781
2006.12	0.001691
2017.69	0.001641
2029.27	0.001621
2040.84	0.001681
2052.41	0.001751
2063.99	0.001811
2075.56	0.001791
2087.14	0.001801
2098.71	0.001761
2110.28	0.001741
2121.86	0.001771
2133.43	0.001791
2145.01	0.001761
2156.58	0.001621
2168.15	0.001521
2179.73	0.001431
2191.3	0.001411
2202.88	0.001431
2214.45	0.001381
2226.02	0.001381
2237.6	0.001341
2249.17	0.001291
2260.74	0.001311
2272.32	0.001251
2283.89	0.001201
2295.47	0.0011102
2307.04	0.00106
2318.61	0.0009971
2330.19	0.0009968
2341.76	0.0009886
2353.34	0.0009992
2364.91	0.0009557
2376.48	0.0010448
2388.06	0.001108
2399.63	0.001161
2411.21	0.0010991
2422.78	0.0010558
2434.35	0.000944
2445.93	0.0008425
2457.5	0.0007818
2469.08	0.0007742
2480.65	0.0007254
2492.22	0.0006837
2503.8	0.0006457
2515.37	0.0006186
2526.95	0.0005951
2538.52	0.000633
2550.09	0.0006817
2561.67	0.0006911
2573.24	0.0007445
2584.82	0.0007925
2596.39	0.0009489
2607.96	0.001131
2619.54	0.001301
2631.11	0.001381
2642.69	0.001411
2654.26	0.001351
2665.83	0.001411
2677.41	0.001511
2688.98	0.001621
2700.56	0.001811
2712.13	0.002161
2723.7	0.002731
2735.28	0.003221
2746.85	0.003671
2758.43	0.004221
2770	0.004841
2781.57	0.005461
2793.15	0.006101
2804.72	0.006731
2816.3	0.007671
2827.87	0.009191
2839.44	0.011671
2851.02	0.016441
2862.59	0.024841
2874.17	0.037811
2885.74	0.047201
2897.31	0.046561
2908.89	0.049581
2920.46	0.051991
2932.04	0.060081
2943.61	0.068261
2955.18	0.054701
2966.76	0.057501
2978.33	0.090131
2989.91	0.097291
3001.48	0.052151
3013.05	0.028711
3024.63	0.017161
3036.2	0.010831
3047.78	0.007281
3059.35	0.005371
3070.92	0.004321
3082.5	0.003581
3094.07	0.003061
3105.65	0.002721
3117.22	0.002441
3128.79	0.002221
3140.37	0.002001
3151.94	0.001851
3163.52	0.001681
3175.09	0.001511
3186.66	0.001401
3198.24	0.001301
3209.81	0.0010931
3221.39	0.0008696
3232.96	0.00071
3244.53	0.0005225
3256.11	0.0003952
3267.68	0.0003419
3279.26	0.0002945
3290.83	0.000219
3302.4	0.0002254
3313.98	0.00022026
3325.55	0.0002225
3337.13	0.0002305
3348.7	0.0002361
3360.27	0.0002289
3371.85	0.00020662
3383.42	0.0002411
3395	0.0002225
3406.57	0.00019594
3418.14	0.00018342
3429.72	0.00021473
3441.29	0.0002612
3452.86	0.0003143
3464.44	0.0004562
3476.01	0.0006576
3487.59	0.0009282
3499.16	0.0010341
3510.73	0.0010919
3522.31	0.001151
3533.88	0.0009464
3545.46	0.0006865
3557.03	0.0004625
3568.6	0.0003363
3580.18	0.00023
3591.75	0.000125779
3603.33	0.000122615
3614.9	8.02e-05
3626.47	3.71e-05
3638.05	8.46e-05
3649.62	3.37e-05
3661.2	6.61e-05
3672.77	0.0001011
3684.34	0.00014081
3695.92	0.00017243
3707.49	0.00015267
3719.07	0.00022002
3730.64	0.0002394
3742.21	0.0002837
3753.79	0.0003188
3765.36	0.0003267
3776.94	0.0002859
3788.51	0.000363
3800.08	0.0002661
3811.66	0.0003451
3823.23	0.0003682
3834.81	0.0002626
3846.38	0.000284
3857.95	0.000244
3869.53	0.0002743
3881.1	0.0002815
3892.68	0.0002588
3904.25	0.000289
3915.82	0.0002608
3927.4	0.0003582
3938.97	0.0003798
3950.55	0.0004142
3962.12	0.0005634
3973.69	0.0005601
3985.27	0.0006616
3996.84	0.0008029
